5KH3_6U6_A_1317


 16 17  0  0  0  0  0  0  0  0999 V2000
   -1.2460    2.5919    7.7643 C   0  0  0  0  0  0  0  0  0  0  0  0
    1.1304    2.1325    7.6423 C   0  0  0  0  0  0  0  0  0  0  0  0
   -1.2399    4.3089    6.0756 C   0  0  0  0  0  0  0  0  0  0  0  0
   -2.5873    2.8092    8.0185 C   0  0  0  0  0  0  0  0  0  0  0  0
   -3.2616    3.7630    7.3034 C   0  0  0  0  0  0  0  0  0  0  0  0
   -2.5973    4.4788    6.3367 C   0  0  0  0  0  0  0  0  0  0  0  0
   -0.5400    3.3478    6.8295 C   0  0  0  0  0  0  0  0  0  0  0  0
   -3.5161    5.5890    5.3710 Cl  0  0  0  0  0  0  0  0  0  0  0  0
    0.8337    3.0576    6.7812 N   0  0  0  0  0  0  0  0  0  0  0  0
   -0.2020    1.4912    8.5491 S   0  0  0  0  0  0  0  0  0  0  0  0
    2.4457    1.6152    8.0470 C   0  0  0  0  0  0  0  0  0  0  0  0
    3.5453    2.5224    8.0032 C   0  0  0  0  0  0  0  0  0  0  0  0
    3.2991    3.8511   10.1326 O   0  0  0  0  0  0  0  0  0  0  0  0
    3.5291    3.7049    8.9016 C   0  0  0  0  0  0  0  0  0  0  0  0
    3.7715    4.5820    8.0563 O   0  0  0  0  0  0  0  0  0  0  0  0
    3.1286    3.1024   10.6696 H   0  0  0  0  0  0  0  0  0  0  0  0
  8  6  1  0  0  0
  3  6  2  0  0  0
  3  7  1  0  0  0
  6  5  1  0  0  0
  9  7  1  0  0  0
  9  2  2  0  0  0
  7  1  2  0  0  0
 15 14  2  0  0  0
 12 11  1  0  0  0
 12 14  1  0  0  0
  5  4  2  0  0  0
  2 11  1  0  0  0
  2 10  1  0  0  0
  1  4  1  0  0  0
  1 10  1  0  0  0
 14 13  1  0  0  0
 13 16  1  0  0  0
M  END
> <minimizedAffinity>
-6.93377

$$$$
5KH3_6U6_A_1317


 16 17  0  0  0  0  0  0  0  0999 V2000
   -1.0156    3.4634    6.9922 C   0  0  0  0  0  0  0  0  0  0  0  0
    1.0093    2.2955    7.6316 C   0  0  0  0  0  0  0  0  0  0  0  0
   -2.4743    2.2183    8.4489 C   0  0  0  0  0  0  0  0  0  0  0  0
   -2.0908    4.1466    6.4555 C   0  0  0  0  0  0  0  0  0  0  0  0
   -3.3538    3.8801    6.9135 C   0  0  0  0  0  0  0  0  0  0  0  0
   -3.5298    2.9479    7.9074 C   0  0  0  0  0  0  0  0  0  0  0  0
   -1.1792    2.4722    7.9590 C   0  0  0  0  0  0  0  0  0  0  0  0
   -5.1287    2.7296    8.5440 Cl  0  0  0  0  0  0  0  0  0  0  0  0
    0.0119    1.8151    8.3096 N   0  0  0  0  0  0  0  0  0  0  0  0
    0.6298    3.6021    6.5556 S   0  0  0  0  0  0  0  0  0  0  0  0
    2.4017    1.8299    7.5546 C   0  0  0  0  0  0  0  0  0  0  0  0
    3.3317    2.3990    8.4738 C   0  0  0  0  0  0  0  0  0  0  0  0
    4.0860    4.6319    7.5761 O   0  0  0  0  0  0  0  0  0  0  0  0
    3.5682    3.8646    8.4322 C   0  0  0  0  0  0  0  0  0  0  0  0
    3.1358    4.1533    9.5601 O   0  0  0  0  0  0  0  0  0  0  0  0
    4.3757    4.2887    6.7537 H   0  0  0  0  0  0  0  0  0  0  0  0
  8  6  1  0  0  0
  3  6  2  0  0  0
  3  7  1  0  0  0
  6  5  1  0  0  0
  9  7  1  0  0  0
  9  2  2  0  0  0
  7  1  2  0  0  0
 15 14  2  0  0  0
 12 11  1  0  0  0
 12 14  1  0  0  0
  5  4  2  0  0  0
  2 11  1  0  0  0
  2 10  1  0  0  0
  1  4  1  0  0  0
  1 10  1  0  0  0
 14 13  1  0  0  0
 13 16  1  0  0  0
M  END
> <minimizedAffinity>
-6.78443

$$$$
5KH3_6U6_A_1317


 16 17  0  0  0  0  0  0  0  0999 V2000
   -1.1892    3.2786    7.1479 C   0  0  0  0  0  0  0  0  0  0  0  0
   -3.2761    2.7406    8.2561 C   0  0  0  0  0  0  0  0  0  0  0  0
    0.1388    1.6743    8.3573 C   0  0  0  0  0  0  0  0  0  0  0  0
   -0.0659    3.7633    6.5044 C   0  0  0  0  0  0  0  0  0  0  0  0
    1.1562    3.2063    6.7729 C   0  0  0  0  0  0  0  0  0  0  0  0
    1.2437    2.1669    7.6673 C   0  0  0  0  0  0  0  0  0  0  0  0
   -1.1133    2.2649    8.1021 C   0  0  0  0  0  0  0  0  0  0  0  0
    2.7891    1.4098    7.8860 Cl  0  0  0  0  0  0  0  0  0  0  0  0
   -2.3385    1.9750    8.7252 N   0  0  0  0  0  0  0  0  0  0  0  0
   -2.7967    3.8366    7.0001 S   0  0  0  0  0  0  0  0  0  0  0  0
   -4.6683    2.8987    8.7017 C   0  0  0  0  0  0  0  0  0  0  0  0
   -5.1046    4.2179    9.0229 C   0  0  0  0  0  0  0  0  0  0  0  0
   -4.8056    4.5720   11.5020 O   0  0  0  0  0  0  0  0  0  0  0  0
   -4.6246    4.8398   10.2833 C   0  0  0  0  0  0  0  0  0  0  0  0
   -3.9917    5.7884    9.7915 O   0  0  0  0  0  0  0  0  0  0  0  0
   -5.3074    3.8194   11.7468 H   0  0  0  0  0  0  0  0  0  0  0  0
  8  6  1  0  0  0
  3  6  2  0  0  0
  3  7  1  0  0  0
  6  5  1  0  0  0
  9  7  1  0  0  0
  9  2  2  0  0  0
  7  1  2  0  0  0
 15 14  2  0  0  0
 12 11  1  0  0  0
 12 14  1  0  0  0
  5  4  2  0  0  0
  2 11  1  0  0  0
  2 10  1  0  0  0
  1  4  1  0  0  0
  1 10  1  0  0  0
 14 13  1  0  0  0
 13 16  1  0  0  0
M  END
> <minimizedAffinity>
-6.33697

$$$$
5KH3_6U6_A_1317


 16 17  0  0  0  0  0  0  0  0999 V2000
   -0.1139    4.4442    5.5100 C   0  0  0  0  0  0  0  0  0  0  0  0
    0.6439    2.9828    7.2884 C   0  0  0  0  0  0  0  0  0  0  0  0
   -2.4502    4.3157    6.0803 C   0  0  0  0  0  0  0  0  0  0  0  0
   -0.4009    5.2081    4.3941 C   0  0  0  0  0  0  0  0  0  0  0  0
   -1.7019    5.5365    4.1201 C   0  0  0  0  0  0  0  0  0  0  0  0
   -2.6987    5.1125    4.9654 C   0  0  0  0  0  0  0  0  0  0  0  0
   -1.1158    3.9548    6.3470 C   0  0  0  0  0  0  0  0  0  0  0  0
   -4.3169    5.6527    4.6507 Cl  0  0  0  0  0  0  0  0  0  0  0  0
   -0.6453    3.1127    7.3682 N   0  0  0  0  0  0  0  0  0  0  0  0
    1.4162    3.8875    6.0259 S   0  0  0  0  0  0  0  0  0  0  0  0
    1.5455    2.0979    8.0405 C   0  0  0  0  0  0  0  0  0  0  0  0
    2.9435    2.3667    7.9563 C   0  0  0  0  0  0  0  0  0  0  0  0
    3.2307    3.8103   10.0044 O   0  0  0  0  0  0  0  0  0  0  0  0
    3.5245    3.4027    8.8479 C   0  0  0  0  0  0  0  0  0  0  0  0
    4.4087    3.8270    8.0860 O   0  0  0  0  0  0  0  0  0  0  0  0
    2.5353    3.4028   10.4821 H   0  0  0  0  0  0  0  0  0  0  0  0
  8  6  1  0  0  0
  3  6  2  0  0  0
  3  7  1  0  0  0
  6  5  1  0  0  0
  9  7  1  0  0  0
  9  2  2  0  0  0
  7  1  2  0  0  0
 15 14  2  0  0  0
 12 11  1  0  0  0
 12 14  1  0  0  0
  5  4  2  0  0  0
  2 11  1  0  0  0
  2 10  1  0  0  0
  1  4  1  0  0  0
  1 10  1  0  0  0
 14 13  1  0  0  0
 13 16  1  0  0  0
M  END
> <minimizedAffinity>
-6.24724

$$$$
5KH3_6U6_A_1317


 16 17  0  0  0  0  0  0  0  0999 V2000
   -1.1526    3.2218    7.2101 C   0  0  0  0  0  0  0  0  0  0  0  0
   -3.2167    2.6217    8.3290 C   0  0  0  0  0  0  0  0  0  0  0  0
    0.2207    1.6264    8.3801 C   0  0  0  0  0  0  0  0  0  0  0  0
   -0.0461    3.7406    6.5639 C   0  0  0  0  0  0  0  0  0  0  0  0
    1.1900    3.2053    6.8115 C   0  0  0  0  0  0  0  0  0  0  0  0
    1.3082    2.1535    7.6878 C   0  0  0  0  0  0  0  0  0  0  0  0
   -1.0460    2.1944    8.1466 C   0  0  0  0  0  0  0  0  0  0  0  0
    2.8712    1.4258    7.8793 Cl  0  0  0  0  0  0  0  0  0  0  0  0
   -2.2587    1.8685    8.7764 N   0  0  0  0  0  0  0  0  0  0  0  0
   -2.7728    3.7479    7.0867 S   0  0  0  0  0  0  0  0  0  0  0  0
   -4.6074    2.7430    8.7903 C   0  0  0  0  0  0  0  0  0  0  0  0
   -5.5519    1.8111    8.2675 C   0  0  0  0  0  0  0  0  0  0  0  0
   -7.0811    0.1870    9.4441 O   0  0  0  0  0  0  0  0  0  0  0  0
   -6.6454    1.3335    9.1516 C   0  0  0  0  0  0  0  0  0  0  0  0
   -7.0818    2.4371    9.5179 O   0  0  0  0  0  0  0  0  0  0  0  0
   -6.6598   -0.5761    9.1003 H   0  0  0  0  0  0  0  0  0  0  0  0
  8  6  1  0  0  0
  3  6  2  0  0  0
  3  7  1  0  0  0
  6  5  1  0  0  0
  9  7  1  0  0  0
  9  2  2  0  0  0
  7  1  2  0  0  0
 15 14  2  0  0  0
 12 11  1  0  0  0
 12 14  1  0  0  0
  5  4  2  0  0  0
  2 11  1  0  0  0
  2 10  1  0  0  0
  1  4  1  0  0  0
  1 10  1  0  0  0
 14 13  1  0  0  0
 13 16  1  0  0  0
M  END
> <minimizedAffinity>
-5.88037

$$$$
5KH3_6U6_A_1317


 16 17  0  0  0  0  0  0  0  0999 V2000
   -1.5744    2.8528    7.6958 C   0  0  0  0  0  0  0  0  0  0  0  0
   -2.5376    4.5457    6.2539 C   0  0  0  0  0  0  0  0  0  0  0  0
    0.6873    3.1444    6.9215 C   0  0  0  0  0  0  0  0  0  0  0  0
   -1.1912    1.7959    8.5001 C   0  0  0  0  0  0  0  0  0  0  0  0
    0.1239    1.4142    8.5283 C   0  0  0  0  0  0  0  0  0  0  0  0
    1.0422    2.0961    7.7669 C   0  0  0  0  0  0  0  0  0  0  0  0
   -0.6688    3.5192    6.8714 C   0  0  0  0  0  0  0  0  0  0  0  0
    2.7140    1.6607    7.9252 Cl  0  0  0  0  0  0  0  0  0  0  0  0
   -1.2566    4.4949    6.0494 N   0  0  0  0  0  0  0  0  0  0  0  0
   -3.1493    3.4757    7.4743 S   0  0  0  0  0  0  0  0  0  0  0  0
   -3.5733    5.2989    5.5316 C   0  0  0  0  0  0  0  0  0  0  0  0
   -3.3132    5.6215    4.1670 C   0  0  0  0  0  0  0  0  0  0  0  0
   -1.7663    4.2471    2.7252 O   0  0  0  0  0  0  0  0  0  0  0  0
   -2.8751    4.5384    3.2501 C   0  0  0  0  0  0  0  0  0  0  0  0
   -3.9728    3.9815    3.0846 O   0  0  0  0  0  0  0  0  0  0  0  0
   -1.0030    4.7492    2.9335 H   0  0  0  0  0  0  0  0  0  0  0  0
  8  6  1  0  0  0
  3  6  2  0  0  0
  3  7  1  0  0  0
  6  5  1  0  0  0
  9  7  1  0  0  0
  9  2  2  0  0  0
  7  1  2  0  0  0
 15 14  2  0  0  0
 12 11  1  0  0  0
 12 14  1  0  0  0
  5  4  2  0  0  0
  2 11  1  0  0  0
  2 10  1  0  0  0
  1  4  1  0  0  0
  1 10  1  0  0  0
 14 13  1  0  0  0
 13 16  1  0  0  0
M  END
> <minimizedAffinity>
-5.81554

$$$$
5KH3_6U6_A_1317


 16 17  0  0  0  0  0  0  0  0999 V2000
   -0.8757    3.2018    7.1580 C   0  0  0  0  0  0  0  0  0  0  0  0
   -2.9671    2.6288    8.2400 C   0  0  0  0  0  0  0  0  0  0  0  0
    0.4573    1.5949    8.3584 C   0  0  0  0  0  0  0  0  0  0  0  0
    0.2485    3.7059    6.5310 C   0  0  0  0  0  0  0  0  0  0  0  0
    1.4736    3.1575    6.8034 C   0  0  0  0  0  0  0  0  0  0  0  0
    1.5634    2.1074    7.6850 C   0  0  0  0  0  0  0  0  0  0  0  0
   -0.7984    2.1764    8.0996 C   0  0  0  0  0  0  0  0  0  0  0  0
    3.1142    1.3628    7.9079 Cl  0  0  0  0  0  0  0  0  0  0  0  0
   -2.0261    1.8663    8.7076 N   0  0  0  0  0  0  0  0  0  0  0  0
   -2.4873    3.7458    7.0027 S   0  0  0  0  0  0  0  0  0  0  0  0
   -4.3647    2.7673    8.6748 C   0  0  0  0  0  0  0  0  0  0  0  0
   -5.2962    3.2790    7.7238 C   0  0  0  0  0  0  0  0  0  0  0  0
   -6.2305    5.2050    9.0574 O   0  0  0  0  0  0  0  0  0  0  0  0
   -6.2627    4.3181    8.1617 C   0  0  0  0  0  0  0  0  0  0  0  0
   -7.1970    4.0364    7.3935 O   0  0  0  0  0  0  0  0  0  0  0  0
   -5.4582    5.3199    9.5754 H   0  0  0  0  0  0  0  0  0  0  0  0
  8  6  1  0  0  0
  3  6  2  0  0  0
  3  7  1  0  0  0
  6  5  1  0  0  0
  9  7  1  0  0  0
  9  2  2  0  0  0
  7  1  2  0  0  0
 15 14  2  0  0  0
 12 11  1  0  0  0
 12 14  1  0  0  0
  5  4  2  0  0  0
  2 11  1  0  0  0
  2 10  1  0  0  0
  1  4  1  0  0  0
  1 10  1  0  0  0
 14 13  1  0  0  0
 13 16  1  0  0  0
M  END
> <minimizedAffinity>
-5.67824

$$$$
5KH3_6U6_A_1317


 16 17  0  0  0  0  0  0  0  0999 V2000
   -2.8423    3.9676    6.7358 C   0  0  0  0  0  0  0  0  0  0  0  0
   -0.4513    3.5724    6.7316 C   0  0  0  0  0  0  0  0  0  0  0  0
   -3.3366    2.3958    8.4923 C   0  0  0  0  0  0  0  0  0  0  0  0
   -4.1878    4.2256    6.5516 C   0  0  0  0  0  0  0  0  0  0  0  0
   -5.1095    3.5836    7.3352 C   0  0  0  0  0  0  0  0  0  0  0  0
   -4.6811    2.7037    8.2998 C   0  0  0  0  0  0  0  0  0  0  0  0
   -2.3906    3.0348    7.6685 C   0  0  0  0  0  0  0  0  0  0  0  0
   -5.8717    2.0062    9.3511 Cl  0  0  0  0  0  0  0  0  0  0  0  0
   -1.0013    2.8290    7.6428 N   0  0  0  0  0  0  0  0  0  0  0  0
   -1.5275    4.6168    5.8600 S   0  0  0  0  0  0  0  0  0  0  0  0
    0.9367    3.5893    6.2471 C   0  0  0  0  0  0  0  0  0  0  0  0
    1.9627    3.3073    7.1967 C   0  0  0  0  0  0  0  0  0  0  0  0
    3.9395    4.4469    8.2710 O   0  0  0  0  0  0  0  0  0  0  0  0
    3.0436    4.3063    7.3949 C   0  0  0  0  0  0  0  0  0  0  0  0
    2.7887    5.0476    6.4317 O   0  0  0  0  0  0  0  0  0  0  0  0
    4.0309    3.8118    8.9538 H   0  0  0  0  0  0  0  0  0  0  0  0
  8  6  1  0  0  0
  3  6  2  0  0  0
  3  7  1  0  0  0
  6  5  1  0  0  0
  9  7  1  0  0  0
  9  2  2  0  0  0
  7  1  2  0  0  0
 15 14  2  0  0  0
 12 11  1  0  0  0
 12 14  1  0  0  0
  5  4  2  0  0  0
  2 11  1  0  0  0
  2 10  1  0  0  0
  1  4  1  0  0  0
  1 10  1  0  0  0
 14 13  1  0  0  0
 13 16  1  0  0  0
M  END
> <minimizedAffinity>
-5.46787

$$$$
5KH3_6U6_A_1317


 16 17  0  0  0  0  0  0  0  0999 V2000
    1.4800    5.2588    5.2979 C   0  0  0  0  0  0  0  0  0  0  0  0
   -0.6448    5.0040    4.1608 C   0  0  0  0  0  0  0  0  0  0  0  0
    1.2155    3.3353    6.7227 C   0  0  0  0  0  0  0  0  0  0  0  0
    2.6676    5.5914    5.9223 C   0  0  0  0  0  0  0  0  0  0  0  0
    3.1389    4.8008    6.9364 C   0  0  0  0  0  0  0  0  0  0  0  0
    2.4306    3.6834    7.3076 C   0  0  0  0  0  0  0  0  0  0  0  0
    0.7169    4.1631    5.6990 C   0  0  0  0  0  0  0  0  0  0  0  0
    3.1237    2.6432    8.5105 Cl  0  0  0  0  0  0  0  0  0  0  0  0
   -0.5074    4.0415    5.0210 N   0  0  0  0  0  0  0  0  0  0  0  0
    0.6876    6.1085    4.0459 S   0  0  0  0  0  0  0  0  0  0  0  0
   -1.8081    5.3678    3.3386 C   0  0  0  0  0  0  0  0  0  0  0  0
   -3.0587    5.5176    4.0075 C   0  0  0  0  0  0  0  0  0  0  0  0
   -4.5356    3.7228    3.0287 O   0  0  0  0  0  0  0  0  0  0  0  0
   -4.0266    4.3919    3.9684 C   0  0  0  0  0  0  0  0  0  0  0  0
   -4.2578    4.3051    5.1856 O   0  0  0  0  0  0  0  0  0  0  0  0
   -4.2750    3.8850    2.1434 H   0  0  0  0  0  0  0  0  0  0  0  0
  8  6  1  0  0  0
  3  6  2  0  0  0
  3  7  1  0  0  0
  6  5  1  0  0  0
  9  7  1  0  0  0
  9  2  2  0  0  0
  7  1  2  0  0  0
 15 14  2  0  0  0
 12 11  1  0  0  0
 12 14  1  0  0  0
  5  4  2  0  0  0
  2 11  1  0  0  0
  2 10  1  0  0  0
  1  4  1  0  0  0
  1 10  1  0  0  0
 14 13  1  0  0  0
 13 16  1  0  0  0
M  END
> <minimizedAffinity>
-5.42171

$$$$
5KH3_6U6_A_1317


 16 17  0  0  0  0  0  0  0  0999 V2000
   -2.2811    3.6954    7.0390 C   0  0  0  0  0  0  0  0  0  0  0  0
    0.0598    3.7358    6.4133 C   0  0  0  0  0  0  0  0  0  0  0  0
   -2.9815    5.3483    5.4335 C   0  0  0  0  0  0  0  0  0  0  0  0
   -3.5551    3.6347    7.5721 C   0  0  0  0  0  0  0  0  0  0  0  0
   -4.5454    4.4163    7.0392 C   0  0  0  0  0  0  0  0  0  0  0  0
   -4.2596    5.2379    5.9755 C   0  0  0  0  0  0  0  0  0  0  0  0
   -1.9571    4.5655    5.9989 C   0  0  0  0  0  0  0  0  0  0  0  0
   -5.5683    6.1177    5.2525 Cl  0  0  0  0  0  0  0  0  0  0  0  0
   -0.5942    4.5651    5.6583 N   0  0  0  0  0  0  0  0  0  0  0  0
   -0.8926    2.8478    7.5592 S   0  0  0  0  0  0  0  0  0  0  0  0
    1.5083    3.5087    6.5215 C   0  0  0  0  0  0  0  0  0  0  0  0
    1.9894    2.9307    7.7333 C   0  0  0  0  0  0  0  0  0  0  0  0
    3.5091    3.6524    9.6122 O   0  0  0  0  0  0  0  0  0  0  0  0
    3.1577    3.5546    8.4052 C   0  0  0  0  0  0  0  0  0  0  0  0
    3.7148    4.0304    7.4024 O   0  0  0  0  0  0  0  0  0  0  0  0
    2.9987    3.2437   10.2833 H   0  0  0  0  0  0  0  0  0  0  0  0
  8  6  1  0  0  0
  3  6  2  0  0  0
  3  7  1  0  0  0
  6  5  1  0  0  0
  9  7  1  0  0  0
  9  2  2  0  0  0
  7  1  2  0  0  0
 15 14  2  0  0  0
 12 11  1  0  0  0
 12 14  1  0  0  0
  5  4  2  0  0  0
  2 11  1  0  0  0
  2 10  1  0  0  0
  1  4  1  0  0  0
  1 10  1  0  0  0
 14 13  1  0  0  0
 13 16  1  0  0  0
M  END
> <minimizedAffinity>
-5.14722

$$$$
