3HUB_469_A_361


 36 39  0  0  0  0  0  0  0  0999 V2000
   19.9984    6.4700  -24.9358 C   0  0  0  0  0  0  0  0  0  0  0  0
   19.3516    5.2750  -24.6713 C   0  0  0  0  0  0  0  0  0  0  0  0
   19.6635    3.9420  -24.9155 C   0  0  0  0  0  0  0  0  0  0  0  0
   19.2169    7.4927  -24.5345 C   0  0  0  0  0  0  0  0  0  0  0  0
   18.1152    6.9819  -23.9655 N   0  0  0  0  0  0  0  0  0  0  0  0
   17.0799    7.7786  -23.3430 C   0  0  0  0  0  0  0  0  0  0  0  0
   18.1547    5.6349  -24.0221 C   0  0  0  0  0  0  0  0  0  0  0  0
   17.2705    4.6361  -23.6078 C   0  0  0  0  0  0  0  0  0  0  0  0
   17.5923    3.3051  -23.8266 C   0  0  0  0  0  0  0  0  0  0  0  0
   16.4307    2.1246  -23.3035 Cl  0  0  0  0  0  0  0  0  0  0  0  0
   18.7866    2.9642  -24.4848 C   0  0  0  0  0  0  0  0  0  0  0  0
   19.1915    1.5062  -24.7157 C   0  0  0  0  0  0  0  0  0  0  0  0
   19.1075    0.9847  -25.8130 O   0  0  0  0  0  0  0  0  0  0  0  0
   19.7384    0.8633  -23.6525 N   0  0  0  0  0  0  0  0  0  0  0  0
   20.1781   -0.5355  -23.6633 C   0  0  0  0  0  0  0  0  0  0  0  0
   21.5282   -0.5467  -23.0104 C   0  0  0  0  0  0  0  0  0  0  0  0
   19.2080   -1.3870  -22.7957 C   0  0  0  0  0  0  0  0  0  0  0  0
   19.8107    1.5814  -22.3185 C   0  0  0  0  0  0  0  0  0  0  0  0
   21.1512    1.4967  -21.6446 C   0  0  0  0  0  0  0  0  0  0  0  0
   22.0910    2.3614  -22.5050 C   0  0  0  0  0  0  0  0  0  0  0  0
   21.4301    0.0400  -21.6506 N   0  0  0  0  0  0  0  0  0  0  0  0
   22.6167   -0.3301  -20.9121 C   0  0  0  0  0  0  0  0  0  0  0  0
   23.0429   -1.8194  -20.9629 C   0  0  0  0  0  0  0  0  0  0  0  0
   24.3292   -2.1719  -21.4523 C   0  0  0  0  0  0  0  0  0  0  0  0
   24.7120   -3.5220  -21.4382 C   0  0  0  0  0  0  0  0  0  0  0  0
   23.8301   -4.5087  -20.9332 C   0  0  0  0  0  0  0  0  0  0  0  0
   24.1960   -5.8215  -20.9151 F   0  0  0  0  0  0  0  0  0  0  0  0
   22.5531   -4.1539  -20.4669 C   0  0  0  0  0  0  0  0  0  0  0  0
   22.1613   -2.8026  -20.4671 C   0  0  0  0  0  0  0  0  0  0  0  0
   21.2760    6.5749  -25.7764 C   0  0  0  0  0  0  0  0  0  0  0  0
   21.9999    5.5879  -25.8062 O   0  0  0  0  0  0  0  0  0  0  0  0
   22.2444    9.3085  -24.9435 C   0  0  0  0  0  0  0  0  0  0  0  0
   22.0492    8.9483  -26.4062 N   0  0  0  0  0  0  0  0  0  0  0  0
   22.2985    9.9869  -27.4274 C   0  0  0  0  0  0  0  0  0  0  0  0
   21.6322    7.6925  -26.8186 C   0  0  0  0  0  0  0  0  0  0  0  0
   21.4580    7.3952  -28.0017 O   0  0  0  0  0  0  0  0  0  0  0  0
 32 33  1  0  0  0
 34 33  1  0  0  0
 33 35  1  0  0  0
 35 30  1  0  0  0
 35 36  2  0  0  0
 31 30  2  0  0  0
 30  1  1  0  0  0
  1  2  1  0  0  0
  1  4  2  0  0  0
  3  2  1  0  0  0
  2  7  2  0  0  0
  3 11  2  0  0  0
  4  5  1  0  0  0
  7  5  1  0  0  0
  5  6  1  0  0  0
  7  8  1  0  0  0
  9  8  2  0  0  0
 11  9  1  0  0  0
  9 10  1  0  0  0
 12 11  1  0  0  0
 13 12  2  0  0  0
 12 14  1  0  0  0
 15 14  1  0  0  0
 14 18  1  0  0  0
 15 17  1  0  0  0
 15 16  1  0  0  0
 16 21  1  0  0  0
 18 19  1  0  0  0
 20 19  1  0  0  0
 21 19  1  0  0  0
 21 22  1  0  0  0
 23 22  1  0  0  0
 24 23  2  0  0  0
 23 29  1  0  0  0
 25 24  1  0  0  0
 25 26  2  0  0  0
 27 26  1  0  0  0
 26 28  1  0  0  0
 28 29  2  0  0  0
M  END
> <minimizedAffinity>
-11.67645

$$$$
3HUB_469_A_361


 36 39  0  0  0  0  0  0  0  0999 V2000
   18.1649    8.3296  -23.1230 C   0  0  0  0  0  0  0  0  0  0  0  0
   18.8047    7.2428  -23.6939 C   0  0  0  0  0  0  0  0  0  0  0  0
   18.4674    5.9021  -23.8435 C   0  0  0  0  0  0  0  0  0  0  0  0
   18.9728    9.4063  -23.1977 C   0  0  0  0  0  0  0  0  0  0  0  0
   20.0865    9.0515  -23.8551 N   0  0  0  0  0  0  0  0  0  0  0  0
   21.1528    9.9678  -24.1981 C   0  0  0  0  0  0  0  0  0  0  0  0
   20.0276    7.7440  -24.1807 C   0  0  0  0  0  0  0  0  0  0  0  0
   20.9123    6.8823  -24.8332 C   0  0  0  0  0  0  0  0  0  0  0  0
   20.5660    5.5508  -25.0070 C   0  0  0  0  0  0  0  0  0  0  0  0
   21.7293    4.5392  -25.8069 Cl  0  0  0  0  0  0  0  0  0  0  0  0
   19.3456    5.0653  -24.5062 C   0  0  0  0  0  0  0  0  0  0  0  0
   18.9142    3.6104  -24.7064 C   0  0  0  0  0  0  0  0  0  0  0  0
   18.2599    3.2641  -25.6733 O   0  0  0  0  0  0  0  0  0  0  0  0
   19.3849    2.7181  -23.7980 N   0  0  0  0  0  0  0  0  0  0  0  0
   19.0780    1.2844  -23.8052 C   0  0  0  0  0  0  0  0  0  0  0  0
   20.3855    0.5832  -23.5867 C   0  0  0  0  0  0  0  0  0  0  0  0
   18.1392    0.9527  -22.6103 C   0  0  0  0  0  0  0  0  0  0  0  0
   20.1958    3.2270  -22.6216 C   0  0  0  0  0  0  0  0  0  0  0  0
   21.4669    2.4649  -22.3732 C   0  0  0  0  0  0  0  0  0  0  0  0
   22.3891    2.8223  -23.5535 C   0  0  0  0  0  0  0  0  0  0  0  0
   21.0012    1.0577  -22.3223 N   0  0  0  0  0  0  0  0  0  0  0  0
   22.0295    0.1162  -21.9393 C   0  0  0  0  0  0  0  0  0  0  0  0
   21.5643   -1.2035  -21.2729 C   0  0  0  0  0  0  0  0  0  0  0  0
   20.1772   -1.4883  -21.1573 C   0  0  0  0  0  0  0  0  0  0  0  0
   19.7822   -2.7136  -20.5987 C   0  0  0  0  0  0  0  0  0  0  0  0
   20.7553   -3.6494  -20.1701 C   0  0  0  0  0  0  0  0  0  0  0  0
   20.3788   -4.8419  -19.6281 F   0  0  0  0  0  0  0  0  0  0  0  0
   22.1249   -3.3529  -20.2720 C   0  0  0  0  0  0  0  0  0  0  0  0
   22.5337   -2.1319  -20.8390 C   0  0  0  0  0  0  0  0  0  0  0  0
   16.8608    8.2225  -22.3243 C   0  0  0  0  0  0  0  0  0  0  0  0
   16.0929    7.3225  -22.6391 O   0  0  0  0  0  0  0  0  0  0  0  0
   15.8588   11.0675  -22.2448 C   0  0  0  0  0  0  0  0  0  0  0  0
   16.0809   10.2693  -20.9716 N   0  0  0  0  0  0  0  0  0  0  0  0
   15.8410   10.9324  -19.6730 C   0  0  0  0  0  0  0  0  0  0  0  0
   16.5138    8.9527  -20.9795 C   0  0  0  0  0  0  0  0  0  0  0  0
   16.7099    8.3017  -19.9518 O   0  0  0  0  0  0  0  0  0  0  0  0
 32 33  1  0  0  0
 34 33  1  0  0  0
 33 35  1  0  0  0
 35 30  1  0  0  0
 35 36  2  0  0  0
 31 30  2  0  0  0
 30  1  1  0  0  0
  1  2  1  0  0  0
  1  4  2  0  0  0
  3  2  1  0  0  0
  2  7  2  0  0  0
  3 11  2  0  0  0
  4  5  1  0  0  0
  7  5  1  0  0  0
  5  6  1  0  0  0
  7  8  1  0  0  0
  9  8  2  0  0  0
 11  9  1  0  0  0
  9 10  1  0  0  0
 12 11  1  0  0  0
 13 12  2  0  0  0
 12 14  1  0  0  0
 15 14  1  0  0  0
 14 18  1  0  0  0
 15 17  1  0  0  0
 15 16  1  0  0  0
 16 21  1  0  0  0
 18 19  1  0  0  0
 20 19  1  0  0  0
 21 19  1  0  0  0
 21 22  1  0  0  0
 23 22  1  0  0  0
 24 23  2  0  0  0
 23 29  1  0  0  0
 25 24  1  0  0  0
 25 26  2  0  0  0
 27 26  1  0  0  0
 26 28  1  0  0  0
 28 29  2  0  0  0
M  END
> <minimizedAffinity>
-9.47601

$$$$
