3B4P_3B4_A_500


 18 19  0  0  0  0  0  0  0  0999 V2000
   41.7945    3.0821   92.5120 C   0  0  0  0  0  0  0  0  0  0  0  0
   40.9361    3.4118   93.5520 C   0  0  0  0  0  0  0  0  0  0  0  0
   41.2713    4.4198   94.4042 C   0  0  0  0  0  0  0  0  0  0  0  0
   42.4410    5.1198   94.2347 C   0  0  0  0  0  0  0  0  0  0  0  0
   43.3368    4.7866   93.2212 C   0  0  0  0  0  0  0  0  0  0  0  0
   43.0076    3.7624   92.3191 C   0  0  0  0  0  0  0  0  0  0  0  0
   43.9523    3.3804   91.2023 C   0  0  0  0  0  0  0  0  0  0  0  0
   43.5322    3.5131   90.0613 O   0  0  0  0  0  0  0  0  0  0  0  0
   45.0827    3.0193   91.4650 O   0  0  0  0  0  0  0  0  0  0  0  0
   42.6504    3.7949   89.9166 H   0  0  0  0  0  0  0  0  0  0  0  0
   41.4059    2.0196   91.7033 N   0  0  0  0  0  0  0  0  0  0  0  0
   41.5030    2.0786   90.7253 H   0  0  0  0  0  0  0  0  0  0  0  0
   39.7843    0.2262   91.5273 C   0  0  0  0  0  0  0  0  0  0  0  0
   39.2691   -1.0760   92.1071 C   0  0  0  0  0  0  0  0  0  0  0  0
   40.4009   -2.1312   92.1322 C   0  0  0  0  0  0  0  0  0  0  0  0
   41.6221   -1.6826   92.8085 C   0  0  0  0  0  0  0  0  0  0  0  0
   42.0417   -0.2630   92.3865 C   0  0  0  0  0  0  0  0  0  0  0  0
   40.8294    0.7651   92.3427 C   0  0  0  0  0  0  0  0  0  0  0  0
 18 13  1  0  0  0
 14 13  1  0  0  0
 15 14  1  0  0  0
 16 15  1  0  0  0
 17 16  1  0  0  0
 17 18  1  0  0  0
 18 11  1  0  0  0
 11  1  1  0  0  0
  2  1  2  0  0  0
  1  6  1  0  0  0
  2  3  1  0  0  0
  3  4  2  0  0  0
  4  5  1  0  0  0
  6  5  2  0  0  0
  6  7  1  0  0  0
  9  7  2  0  0  0
  7  8  1  0  0  0
 11 12  1  0  0  0
  8 10  1  0  0  0
M  END
> <minimizedAffinity>
-9.26897

$$$$
3B4P_3B4_A_500


 18 19  0  0  0  0  0  0  0  0999 V2000
   41.4040    3.1840   92.5005 C   0  0  0  0  0  0  0  0  0  0  0  0
   42.7005    3.4174   92.0623 C   0  0  0  0  0  0  0  0  0  0  0  0
   43.4768    4.3243   92.7177 C   0  0  0  0  0  0  0  0  0  0  0  0
   42.9937    4.9969   93.8137 C   0  0  0  0  0  0  0  0  0  0  0  0
   41.6853    4.8079   94.2530 C   0  0  0  0  0  0  0  0  0  0  0  0
   40.8695    3.8666   93.6051 C   0  0  0  0  0  0  0  0  0  0  0  0
   39.4476    3.6298   94.0607 C   0  0  0  0  0  0  0  0  0  0  0  0
   38.5858    3.6436   93.1929 O   0  0  0  0  0  0  0  0  0  0  0  0
   39.2213    3.3846   95.2294 O   0  0  0  0  0  0  0  0  0  0  0  0
   38.8170    3.8393   92.3062 H   0  0  0  0  0  0  0  0  0  0  0  0
   40.6570    2.2722   91.7626 N   0  0  0  0  0  0  0  0  0  0  0  0
   40.3361    2.5068   90.8619 H   0  0  0  0  0  0  0  0  0  0  0  0
   39.3960    0.2140   91.5384 C   0  0  0  0  0  0  0  0  0  0  0  0
   39.1467   -1.1824   92.0724 C   0  0  0  0  0  0  0  0  0  0  0  0
   40.4561   -2.0064   92.0373 C   0  0  0  0  0  0  0  0  0  0  0  0
   41.5868   -1.3619   92.7127 C   0  0  0  0  0  0  0  0  0  0  0  0
   41.7237    0.1259   92.3425 C   0  0  0  0  0  0  0  0  0  0  0  0
   40.3399    0.9090   92.3591 C   0  0  0  0  0  0  0  0  0  0  0  0
 18 13  1  0  0  0
 14 13  1  0  0  0
 15 14  1  0  0  0
 16 15  1  0  0  0
 17 16  1  0  0  0
 17 18  1  0  0  0
 18 11  1  0  0  0
 11  1  1  0  0  0
  2  1  2  0  0  0
  1  6  1  0  0  0
  2  3  1  0  0  0
  3  4  2  0  0  0
  4  5  1  0  0  0
  6  5  2  0  0  0
  6  7  1  0  0  0
  9  7  2  0  0  0
  7  8  1  0  0  0
 11 12  1  0  0  0
  8 10  1  0  0  0
M  END
> <minimizedAffinity>
-9.22475

$$$$
3B4P_3B4_A_500


 18 19  0  0  0  0  0  0  0  0999 V2000
   41.5732    0.0974   91.9780 C   0  0  0  0  0  0  0  0  0  0  0  0
   40.2408   -0.2708   92.1052 C   0  0  0  0  0  0  0  0  0  0  0  0
   39.9201   -1.5857   92.2568 C   0  0  0  0  0  0  0  0  0  0  0  0
   40.9020   -2.5453   92.2991 C   0  0  0  0  0  0  0  0  0  0  0  0
   42.2439   -2.2072   92.1385 C   0  0  0  0  0  0  0  0  0  0  0  0
   42.6027   -0.8572   91.9971 C   0  0  0  0  0  0  0  0  0  0  0  0
   44.0500   -0.4538   91.8294 C   0  0  0  0  0  0  0  0  0  0  0  0
   44.5660    0.1348   92.7692 O   0  0  0  0  0  0  0  0  0  0  0  0
   44.6510   -0.7678   90.8207 O   0  0  0  0  0  0  0  0  0  0  0  0
   44.0545    0.3524   93.5235 H   0  0  0  0  0  0  0  0  0  0  0  0
   41.8247    1.4523   91.7903 N   0  0  0  0  0  0  0  0  0  0  0  0
   41.9210    1.8181   90.8814 H   0  0  0  0  0  0  0  0  0  0  0  0
   42.8325    3.4534   92.7157 C   0  0  0  0  0  0  0  0  0  0  0  0
   42.8885    4.4191   93.8826 C   0  0  0  0  0  0  0  0  0  0  0  0
   41.4905    5.0349   94.1304 C   0  0  0  0  0  0  0  0  0  0  0  0
   40.4218    4.0450   94.2972 C   0  0  0  0  0  0  0  0  0  0  0  0
   40.4821    2.9290   93.2386 C   0  0  0  0  0  0  0  0  0  0  0  0
   41.9495    2.3643   93.0017 C   0  0  0  0  0  0  0  0  0  0  0  0
 18 13  1  0  0  0
 14 13  1  0  0  0
 15 14  1  0  0  0
 16 15  1  0  0  0
 17 16  1  0  0  0
 17 18  1  0  0  0
 18 11  1  0  0  0
 11  1  1  0  0  0
  2  1  2  0  0  0
  1  6  1  0  0  0
  2  3  1  0  0  0
  3  4  2  0  0  0
  4  5  1  0  0  0
  6  5  2  0  0  0
  6  7  1  0  0  0
  9  7  2  0  0  0
  7  8  1  0  0  0
 11 12  1  0  0  0
  8 10  1  0  0  0
M  END
> <minimizedAffinity>
-8.70390

$$$$
3B4P_3B4_A_500


 18 19  0  0  0  0  0  0  0  0999 V2000
   41.1607    0.6021   91.8599 C   0  0  0  0  0  0  0  0  0  0  0  0
   39.7989    0.5865   91.5905 C   0  0  0  0  0  0  0  0  0  0  0  0
   39.0916   -0.5621   91.7776 C   0  0  0  0  0  0  0  0  0  0  0  0
   39.7098   -1.6970   92.2429 C   0  0  0  0  0  0  0  0  0  0  0  0
   41.0811   -1.7188   92.4876 C   0  0  0  0  0  0  0  0  0  0  0  0
   41.8305   -0.5437   92.3184 C   0  0  0  0  0  0  0  0  0  0  0  0
   43.3189   -0.5291   92.5830 C   0  0  0  0  0  0  0  0  0  0  0  0
   43.9869   -1.3686   91.9957 O   0  0  0  0  0  0  0  0  0  0  0  0
   43.7954    0.3255   93.3039 O   0  0  0  0  0  0  0  0  0  0  0  0
   43.5664   -2.0052   91.4517 H   0  0  0  0  0  0  0  0  0  0  0  0
   41.8260    1.7979   91.6119 N   0  0  0  0  0  0  0  0  0  0  0  0
   42.5590    1.8314   90.9556 H   0  0  0  0  0  0  0  0  0  0  0  0
   40.9066    2.7149   93.6591 C   0  0  0  0  0  0  0  0  0  0  0  0
   40.5806    3.9649   94.4518 C   0  0  0  0  0  0  0  0  0  0  0  0
   41.8639    4.7991   94.6802 C   0  0  0  0  0  0  0  0  0  0  0  0
   42.5998    5.1133   93.4515 C   0  0  0  0  0  0  0  0  0  0  0  0
   42.7529    3.8915   92.5278 C   0  0  0  0  0  0  0  0  0  0  0  0
   41.4112    3.0540   92.3637 C   0  0  0  0  0  0  0  0  0  0  0  0
 18 13  1  0  0  0
 14 13  1  0  0  0
 15 14  1  0  0  0
 16 15  1  0  0  0
 17 16  1  0  0  0
 17 18  1  0  0  0
 18 11  1  0  0  0
 11  1  1  0  0  0
  2  1  2  0  0  0
  1  6  1  0  0  0
  2  3  1  0  0  0
  3  4  2  0  0  0
  4  5  1  0  0  0
  6  5  2  0  0  0
  6  7  1  0  0  0
  9  7  2  0  0  0
  7  8  1  0  0  0
 11 12  1  0  0  0
  8 10  1  0  0  0
M  END
> <minimizedAffinity>
-8.60778

$$$$
3B4P_3B4_A_500


 18 19  0  0  0  0  0  0  0  0999 V2000
   41.0782    0.4645   91.8913 C   0  0  0  0  0  0  0  0  0  0  0  0
   42.1647   -0.3697   92.1169 C   0  0  0  0  0  0  0  0  0  0  0  0
   41.9533   -1.6877   92.3870 C   0  0  0  0  0  0  0  0  0  0  0  0
   40.6790   -2.1991   92.4236 C   0  0  0  0  0  0  0  0  0  0  0  0
   39.5698   -1.3775   92.2358 C   0  0  0  0  0  0  0  0  0  0  0  0
   39.7606   -0.0184   91.9396 C   0  0  0  0  0  0  0  0  0  0  0  0
   38.5798    0.9001   91.7215 C   0  0  0  0  0  0  0  0  0  0  0  0
   38.0425    0.8488   90.6240 O   0  0  0  0  0  0  0  0  0  0  0  0
   38.1803    1.5964   92.6340 O   0  0  0  0  0  0  0  0  0  0  0  0
   38.3938    0.2937   89.9559 H   0  0  0  0  0  0  0  0  0  0  0  0
   41.3663    1.8048   91.6574 N   0  0  0  0  0  0  0  0  0  0  0  0
   41.1425    2.2170   90.7919 H   0  0  0  0  0  0  0  0  0  0  0  0
   42.9382    3.5752   92.1785 C   0  0  0  0  0  0  0  0  0  0  0  0
   43.5325    4.4649   93.2521 C   0  0  0  0  0  0  0  0  0  0  0  0
   42.4153    5.2834   93.9426 C   0  0  0  0  0  0  0  0  0  0  0  0
   41.3121    4.4696   94.4628 C   0  0  0  0  0  0  0  0  0  0  0  0
   40.8365    3.4083   93.4545 C   0  0  0  0  0  0  0  0  0  0  0  0
   42.0304    2.6286   92.7507 C   0  0  0  0  0  0  0  0  0  0  0  0
 18 13  1  0  0  0
 14 13  1  0  0  0
 15 14  1  0  0  0
 16 15  1  0  0  0
 17 16  1  0  0  0
 17 18  1  0  0  0
 18 11  1  0  0  0
 11  1  1  0  0  0
  2  1  2  0  0  0
  1  6  1  0  0  0
  2  3  1  0  0  0
  3  4  2  0  0  0
  4  5  1  0  0  0
  6  5  2  0  0  0
  6  7  1  0  0  0
  9  7  2  0  0  0
  7  8  1  0  0  0
 11 12  1  0  0  0
  8 10  1  0  0  0
M  END
> <minimizedAffinity>
-8.51811

$$$$
3B4P_3B4_A_500


 18 19  0  0  0  0  0  0  0  0999 V2000
   43.4913    0.9600   91.7235 C   0  0  0  0  0  0  0  0  0  0  0  0
   42.8788    1.3625   92.9026 C   0  0  0  0  0  0  0  0  0  0  0  0
   42.7930    2.6899   93.1944 C   0  0  0  0  0  0  0  0  0  0  0  0
   43.2930    3.6309   92.3276 C   0  0  0  0  0  0  0  0  0  0  0  0
   43.9436    3.2534   91.1550 C   0  0  0  0  0  0  0  0  0  0  0  0
   44.0310    1.8921   90.8226 C   0  0  0  0  0  0  0  0  0  0  0  0
   44.7224    1.4473   89.5538 C   0  0  0  0  0  0  0  0  0  0  0  0
   44.4812    2.0940   88.5441 O   0  0  0  0  0  0  0  0  0  0  0  0
   45.5141    0.5259   89.5892 O   0  0  0  0  0  0  0  0  0  0  0  0
   43.8604    2.7953   88.5741 H   0  0  0  0  0  0  0  0  0  0  0  0
   43.5755   -0.4112   91.5077 N   0  0  0  0  0  0  0  0  0  0  0  0
   44.4537   -0.8542   91.4658 H   0  0  0  0  0  0  0  0  0  0  0  0
   41.8032   -1.6432   92.6112 C   0  0  0  0  0  0  0  0  0  0  0  0
   40.4809   -2.3682   92.4589 C   0  0  0  0  0  0  0  0  0  0  0  0
   39.4174   -1.4146   91.8634 C   0  0  0  0  0  0  0  0  0  0  0  0
   39.8275   -0.7673   90.6133 C   0  0  0  0  0  0  0  0  0  0  0  0
   41.2610   -0.2105   90.6808 C   0  0  0  0  0  0  0  0  0  0  0  0
   42.2988   -1.2209   91.3370 C   0  0  0  0  0  0  0  0  0  0  0  0
 18 13  1  0  0  0
 14 13  1  0  0  0
 15 14  1  0  0  0
 16 15  1  0  0  0
 17 16  1  0  0  0
 17 18  1  0  0  0
 18 11  1  0  0  0
 11  1  1  0  0  0
  2  1  2  0  0  0
  1  6  1  0  0  0
  2  3  1  0  0  0
  3  4  2  0  0  0
  4  5  1  0  0  0
  6  5  2  0  0  0
  6  7  1  0  0  0
  9  7  2  0  0  0
  7  8  1  0  0  0
 11 12  1  0  0  0
  8 10  1  0  0  0
M  END
> <minimizedAffinity>
-8.17924

$$$$
3B4P_3B4_A_500


 18 19  0  0  0  0  0  0  0  0999 V2000
   41.4169   -0.2364   92.4091 C   0  0  0  0  0  0  0  0  0  0  0  0
   40.4295    0.7388   92.3720 C   0  0  0  0  0  0  0  0  0  0  0  0
   39.1326    0.3727   92.1750 C   0  0  0  0  0  0  0  0  0  0  0  0
   38.7934   -0.9502   92.0276 C   0  0  0  0  0  0  0  0  0  0  0  0
   39.7680   -1.9455   92.0256 C   0  0  0  0  0  0  0  0  0  0  0  0
   41.1105   -1.5966   92.2432 C   0  0  0  0  0  0  0  0  0  0  0  0
   42.1929   -2.6519   92.2559 C   0  0  0  0  0  0  0  0  0  0  0  0
   42.9266   -2.6944   91.2782 O   0  0  0  0  0  0  0  0  0  0  0  0
   42.3303   -3.3638   93.2313 O   0  0  0  0  0  0  0  0  0  0  0  0
   42.7742   -2.1213   90.5528 H   0  0  0  0  0  0  0  0  0  0  0  0
   42.7224    0.2122   92.5777 N   0  0  0  0  0  0  0  0  0  0  0  0
   43.2004    0.0432   93.4216 H   0  0  0  0  0  0  0  0  0  0  0  0
   43.5543    2.3480   91.7884 C   0  0  0  0  0  0  0  0  0  0  0  0
   44.3194    3.0880   90.7093 C   0  0  0  0  0  0  0  0  0  0  0  0
   45.7479    2.5075   90.5775 C   0  0  0  0  0  0  0  0  0  0  0  0
   45.7872    1.0564   90.3712 C   0  0  0  0  0  0  0  0  0  0  0  0
   44.8442    0.3001   91.3242 C   0  0  0  0  0  0  0  0  0  0  0  0
   43.4056    0.9664   91.4466 C   0  0  0  0  0  0  0  0  0  0  0  0
 18 13  1  0  0  0
 14 13  1  0  0  0
 15 14  1  0  0  0
 16 15  1  0  0  0
 17 16  1  0  0  0
 17 18  1  0  0  0
 18 11  1  0  0  0
 11  1  1  0  0  0
  2  1  2  0  0  0
  1  6  1  0  0  0
  2  3  1  0  0  0
  3  4  2  0  0  0
  4  5  1  0  0  0
  6  5  2  0  0  0
  6  7  1  0  0  0
  9  7  2  0  0  0
  7  8  1  0  0  0
 11 12  1  0  0  0
  8 10  1  0  0  0
M  END
> <minimizedAffinity>
-8.11166

$$$$
3B4P_3B4_A_500


 18 19  0  0  0  0  0  0  0  0999 V2000
   41.4569    0.0073   92.5407 C   0  0  0  0  0  0  0  0  0  0  0  0
   41.3565   -1.3751   92.4621 C   0  0  0  0  0  0  0  0  0  0  0  0
   40.1502   -1.9453   92.1894 C   0  0  0  0  0  0  0  0  0  0  0  0
   39.0392   -1.1656   91.9781 C   0  0  0  0  0  0  0  0  0  0  0  0
   39.1045    0.2217   92.0858 C   0  0  0  0  0  0  0  0  0  0  0  0
   40.3393    0.8356   92.3497 C   0  0  0  0  0  0  0  0  0  0  0  0
   40.4482    2.3391   92.4647 C   0  0  0  0  0  0  0  0  0  0  0  0
   39.9521    2.9941   91.5587 O   0  0  0  0  0  0  0  0  0  0  0  0
   40.9588    2.8335   93.4506 O   0  0  0  0  0  0  0  0  0  0  0  0
   39.5715    2.5600   90.8208 H   0  0  0  0  0  0  0  0  0  0  0  0
   42.7106    0.5188   92.8581 N   0  0  0  0  0  0  0  0  0  0  0  0
   42.9038    0.8276   93.7728 H   0  0  0  0  0  0  0  0  0  0  0  0
   43.3444   -0.0771   90.5954 C   0  0  0  0  0  0  0  0  0  0  0  0
   44.3632    0.0775   89.4839 C   0  0  0  0  0  0  0  0  0  0  0  0
   44.5208    1.5713   89.1113 C   0  0  0  0  0  0  0  0  0  0  0  0
   44.8252    2.4429   90.2504 C   0  0  0  0  0  0  0  0  0  0  0  0
   43.9351    2.1493   91.4714 C   0  0  0  0  0  0  0  0  0  0  0  0
   43.7810    0.5970   91.7798 C   0  0  0  0  0  0  0  0  0  0  0  0
 18 13  1  0  0  0
 14 13  1  0  0  0
 15 14  1  0  0  0
 16 15  1  0  0  0
 17 16  1  0  0  0
 17 18  1  0  0  0
 18 11  1  0  0  0
 11  1  1  0  0  0
  2  1  2  0  0  0
  1  6  1  0  0  0
  2  3  1  0  0  0
  3  4  2  0  0  0
  4  5  1  0  0  0
  6  5  2  0  0  0
  6  7  1  0  0  0
  9  7  2  0  0  0
  7  8  1  0  0  0
 11 12  1  0  0  0
  8 10  1  0  0  0
M  END
> <minimizedAffinity>
-8.05063

$$$$
3B4P_3B4_A_500


 18 19  0  0  0  0  0  0  0  0999 V2000
   41.8582    2.5071   92.2800 C   0  0  0  0  0  0  0  0  0  0  0  0
   40.8755    2.7266   93.2357 C   0  0  0  0  0  0  0  0  0  0  0  0
   40.9811    3.7957   94.0727 C   0  0  0  0  0  0  0  0  0  0  0  0
   42.0410    4.6634   93.9695 C   0  0  0  0  0  0  0  0  0  0  0  0
   43.0587    4.4470   93.0432 C   0  0  0  0  0  0  0  0  0  0  0  0
   42.9657    3.3615   92.1576 C   0  0  0  0  0  0  0  0  0  0  0  0
   44.0476    3.1018   91.1341 C   0  0  0  0  0  0  0  0  0  0  0  0
   45.2022    3.1492   91.5349 O   0  0  0  0  0  0  0  0  0  0  0  0
   43.7427    2.8076   89.9949 O   0  0  0  0  0  0  0  0  0  0  0  0
   45.3800    3.3823   92.4248 H   0  0  0  0  0  0  0  0  0  0  0  0
   41.7046    1.3770   91.4841 N   0  0  0  0  0  0  0  0  0  0  0  0
   41.3704    1.4610   90.5619 H   0  0  0  0  0  0  0  0  0  0  0  0
   40.9184   -0.8550   92.0100 C   0  0  0  0  0  0  0  0  0  0  0  0
   41.2850   -2.2475   92.4830 C   0  0  0  0  0  0  0  0  0  0  0  0
   42.3457   -2.8666   91.5414 C   0  0  0  0  0  0  0  0  0  0  0  0
   43.5341   -2.0301   91.3471 C   0  0  0  0  0  0  0  0  0  0  0  0
   43.1797   -0.5567   91.0769 C   0  0  0  0  0  0  0  0  0  0  0  0
   42.0577    0.0099   92.0508 C   0  0  0  0  0  0  0  0  0  0  0  0
 18 13  1  0  0  0
 14 13  1  0  0  0
 15 14  1  0  0  0
 16 15  1  0  0  0
 17 16  1  0  0  0
 17 18  1  0  0  0
 18 11  1  0  0  0
 11  1  1  0  0  0
  2  1  2  0  0  0
  1  6  1  0  0  0
  2  3  1  0  0  0
  3  4  2  0  0  0
  4  5  1  0  0  0
  6  5  2  0  0  0
  6  7  1  0  0  0
  9  7  2  0  0  0
  7  8  1  0  0  0
 11 12  1  0  0  0
  8 10  1  0  0  0
M  END
> <minimizedAffinity>
-8.01843

$$$$
3B4P_3B4_A_500


 18 19  0  0  0  0  0  0  0  0999 V2000
   41.3784    2.1895   92.4634 C   0  0  0  0  0  0  0  0  0  0  0  0
   42.5948    2.6568   92.9421 C   0  0  0  0  0  0  0  0  0  0  0  0
   42.6206    3.7498   93.7540 C   0  0  0  0  0  0  0  0  0  0  0  0
   41.4555    4.3825   94.1134 C   0  0  0  0  0  0  0  0  0  0  0  0
   40.2249    3.9559   93.6192 C   0  0  0  0  0  0  0  0  0  0  0  0
   40.1689    2.8217   92.7936 C   0  0  0  0  0  0  0  0  0  0  0  0
   38.8496    2.3260   92.2465 C   0  0  0  0  0  0  0  0  0  0  0  0
   38.3124    3.0243   91.3982 O   0  0  0  0  0  0  0  0  0  0  0  0
   38.4078    1.2552   92.6146 O   0  0  0  0  0  0  0  0  0  0  0  0
   38.6975    3.8422   91.1522 H   0  0  0  0  0  0  0  0  0  0  0  0
   41.4303    1.0920   91.6108 N   0  0  0  0  0  0  0  0  0  0  0  0
   41.1276    1.1735   90.6776 H   0  0  0  0  0  0  0  0  0  0  0  0
   40.9165   -1.2159   92.1460 C   0  0  0  0  0  0  0  0  0  0  0  0
   41.4555   -2.5665   92.5733 C   0  0  0  0  0  0  0  0  0  0  0  0
   42.5156   -3.0604   91.5598 C   0  0  0  0  0  0  0  0  0  0  0  0
   43.5955   -2.1010   91.3084 C   0  0  0  0  0  0  0  0  0  0  0  0
   43.0725   -0.6707   91.0842 C   0  0  0  0  0  0  0  0  0  0  0  0
   41.9590   -0.2358   92.1328 C   0  0  0  0  0  0  0  0  0  0  0  0
 18 13  1  0  0  0
 14 13  1  0  0  0
 15 14  1  0  0  0
 16 15  1  0  0  0
 17 16  1  0  0  0
 17 18  1  0  0  0
 18 11  1  0  0  0
 11  1  1  0  0  0
  2  1  2  0  0  0
  1  6  1  0  0  0
  2  3  1  0  0  0
  3  4  2  0  0  0
  4  5  1  0  0  0
  6  5  2  0  0  0
  6  7  1  0  0  0
  9  7  2  0  0  0
  7  8  1  0  0  0
 11 12  1  0  0  0
  8 10  1  0  0  0
M  END
> <minimizedAffinity>
-7.99368

$$$$
