4ZBI_4M6_A_400


 30 34  0  0  0  0  0  0  0  0999 V2000
   -8.5392  -22.1933    6.0683 C   0  0  0  0  0  0  0  0  0  0  0  0
   -9.3699  -21.2387    6.5997 N   0  0  0  0  0  0  0  0  0  0  0  0
   -9.6902  -20.3678    5.6375 C   0  0  0  0  0  0  0  0  0  0  0  0
   -9.9028  -21.0527    7.9918 C   0  0  0  0  0  0  0  0  0  0  0  0
  -10.3724  -19.6036    8.2828 C   0  0  0  0  0  0  0  0  0  0  0  0
  -11.1202  -18.9489    7.1299 C   0  0  0  0  0  0  0  0  0  0  0  0
  -10.4996  -19.2575    5.7551 C   0  0  0  0  0  0  0  0  0  0  0  0
  -10.7214  -18.4465    4.5955 C   0  0  0  0  0  0  0  0  0  0  0  0
  -10.1220  -18.7932    3.3548 C   0  0  0  0  0  0  0  0  0  0  0  0
   -9.2952  -19.9321    3.2653 C   0  0  0  0  0  0  0  0  0  0  0  0
   -9.0824  -20.7126    4.4228 C   0  0  0  0  0  0  0  0  0  0  0  0
   -8.3332  -21.9028    4.7019 C   0  0  0  0  0  0  0  0  0  0  0  0
   -8.6673  -24.3448    7.1665 O   0  0  0  0  0  0  0  0  0  0  0  0
   -7.9392  -23.3805    6.8141 C   0  0  0  0  0  0  0  0  0  0  0  0
   -6.7229  -23.4188    7.0835 O   0  0  0  0  0  0  0  0  0  0  0  0
   -9.5841  -24.3348    6.9732 H   0  0  0  0  0  0  0  0  0  0  0  0
   -7.4765  -22.6978    3.7239 C   0  0  0  0  0  0  0  0  0  0  0  0
   -6.0143  -22.2561    3.7988 C   0  0  0  0  0  0  0  0  0  0  0  0
   -5.7024  -21.1243    2.8209 C   0  0  0  0  0  0  0  0  0  0  0  0
   -6.4894  -21.3505    1.6824 O   0  0  0  0  0  0  0  0  0  0  0  0
   -6.2736  -20.4892    0.5914 C   0  0  0  0  0  0  0  0  0  0  0  0
   -6.7485  -20.8723   -0.6724 C   0  0  0  0  0  0  0  0  0  0  0  0
   -7.4200  -22.1018   -0.8159 C   0  0  0  0  0  0  0  0  0  0  0  0
   -7.9032  -22.5041   -2.0605 C   0  0  0  0  0  0  0  0  0  0  0  0
   -7.7196  -21.6811   -3.1590 C   0  0  0  0  0  0  0  0  0  0  0  0
   -7.0574  -20.4670   -3.0146 C   0  0  0  0  0  0  0  0  0  0  0  0
   -6.5679  -20.0549   -1.7632 C   0  0  0  0  0  0  0  0  0  0  0  0
   -5.8992  -18.8208   -1.6248 C   0  0  0  0  0  0  0  0  0  0  0  0
   -5.4206  -18.4447   -0.3780 C   0  0  0  0  0  0  0  0  0  0  0  0
   -5.6113  -19.2737    0.7276 C   0  0  0  0  0  0  0  0  0  0  0  0
 26 25  2  0  0  0
 26 27  1  0  0  0
 28 27  2  0  0  0
 28 29  1  0  0  0
 25 24  1  0  0  0
 27 22  1  0  0  0
 29 30  2  0  0  0
 24 23  2  0  0  0
 22 23  1  0  0  0
 22 21  2  0  0  0
 30 21  1  0  0  0
 21 20  1  0  0  0
 20 19  1  0  0  0
 19 18  1  0  0  0
 18 17  1  0  0  0
 17 12  1  0  0  0
 15 14  2  0  0  0
 12 11  1  0  0  0
 12  1  2  0  0  0
 10 11  2  0  0  0
 10  9  1  0  0  0
 11  3  1  0  0  0
 14  1  1  0  0  0
 14 13  1  0  0  0
  9  8  2  0  0  0
  1  2  1  0  0  0
  3  2  1  0  0  0
  3  7  2  0  0  0
  2  4  1  0  0  0
  8  7  1  0  0  0
  7  6  1  0  0  0
  4  5  1  0  0  0
  5  6  1  0  0  0
 13 16  1  0  0  0
M  END
> <minimizedAffinity>
-11.71900

$$$$
4ZBI_4M6_A_400


 30 34  0  0  0  0  0  0  0  0999 V2000
   -8.8527  -21.9358    6.4494 C   0  0  0  0  0  0  0  0  0  0  0  0
   -9.6253  -20.8865    6.8807 N   0  0  0  0  0  0  0  0  0  0  0  0
   -9.9114  -20.1078    5.8325 C   0  0  0  0  0  0  0  0  0  0  0  0
  -10.1300  -20.5240    8.2483 C   0  0  0  0  0  0  0  0  0  0  0  0
  -10.5189  -19.0290    8.3848 C   0  0  0  0  0  0  0  0  0  0  0  0
  -11.2457  -18.4625    7.1733 C   0  0  0  0  0  0  0  0  0  0  0  0
  -10.6597  -18.9495    5.8355 C   0  0  0  0  0  0  0  0  0  0  0  0
  -10.8531  -18.2567    4.5968 C   0  0  0  0  0  0  0  0  0  0  0  0
  -10.2886  -18.7660    3.3966 C   0  0  0  0  0  0  0  0  0  0  0  0
   -9.5240  -19.9507    3.4245 C   0  0  0  0  0  0  0  0  0  0  0  0
   -9.3380  -20.6129    4.6578 C   0  0  0  0  0  0  0  0  0  0  0  0
   -8.6490  -21.8049    5.0583 C   0  0  0  0  0  0  0  0  0  0  0  0
   -7.0659  -23.2595    7.4016 O   0  0  0  0  0  0  0  0  0  0  0  0
   -8.3067  -23.0667    7.3146 C   0  0  0  0  0  0  0  0  0  0  0  0
   -9.0749  -23.8143    7.9506 O   0  0  0  0  0  0  0  0  0  0  0  0
   -6.4720  -22.7083    6.9311 H   0  0  0  0  0  0  0  0  0  0  0  0
   -7.8478  -22.7449    4.1657 C   0  0  0  0  0  0  0  0  0  0  0  0
   -6.3583  -22.4019    4.2137 C   0  0  0  0  0  0  0  0  0  0  0  0
   -5.7984  -22.0664    2.8321 C   0  0  0  0  0  0  0  0  0  0  0  0
   -6.7364  -21.2277    2.2129 O   0  0  0  0  0  0  0  0  0  0  0  0
   -6.9505  -21.4360    0.8383 C   0  0  0  0  0  0  0  0  0  0  0  0
   -6.4766  -20.4764   -0.0695 C   0  0  0  0  0  0  0  0  0  0  0  0
   -5.8078  -19.3359    0.4155 C   0  0  0  0  0  0  0  0  0  0  0  0
   -5.3256  -18.3690   -0.4661 C   0  0  0  0  0  0  0  0  0  0  0  0
   -5.5076  -18.5404   -1.8282 C   0  0  0  0  0  0  0  0  0  0  0  0
   -6.1671  -19.6678   -2.3046 C   0  0  0  0  0  0  0  0  0  0  0  0
   -6.6556  -20.6466   -1.4220 C   0  0  0  0  0  0  0  0  0  0  0  0
   -7.3217  -21.7885   -1.9136 C   0  0  0  0  0  0  0  0  0  0  0  0
   -7.7993  -22.7338   -1.0172 C   0  0  0  0  0  0  0  0  0  0  0  0
   -7.6102  -22.5607    0.3540 C   0  0  0  0  0  0  0  0  0  0  0  0
 26 25  2  0  0  0
 26 27  1  0  0  0
 28 27  2  0  0  0
 28 29  1  0  0  0
 25 24  1  0  0  0
 27 22  1  0  0  0
 29 30  2  0  0  0
 24 23  2  0  0  0
 22 23  1  0  0  0
 22 21  2  0  0  0
 30 21  1  0  0  0
 21 20  1  0  0  0
 20 19  1  0  0  0
 19 18  1  0  0  0
 18 17  1  0  0  0
 17 12  1  0  0  0
 15 14  2  0  0  0
 12 11  1  0  0  0
 12  1  2  0  0  0
 10 11  2  0  0  0
 10  9  1  0  0  0
 11  3  1  0  0  0
 14  1  1  0  0  0
 14 13  1  0  0  0
  9  8  2  0  0  0
  1  2  1  0  0  0
  3  2  1  0  0  0
  3  7  2  0  0  0
  2  4  1  0  0  0
  8  7  1  0  0  0
  7  6  1  0  0  0
  4  5  1  0  0  0
  5  6  1  0  0  0
 13 16  1  0  0  0
M  END
> <minimizedAffinity>
-10.96424

$$$$
4ZBI_4M6_A_400


 30 34  0  0  0  0  0  0  0  0999 V2000
   -8.5060  -21.8724    5.4608 C   0  0  0  0  0  0  0  0  0  0  0  0
   -8.8517  -21.6808    6.7753 N   0  0  0  0  0  0  0  0  0  0  0  0
   -9.6942  -20.6456    6.8487 C   0  0  0  0  0  0  0  0  0  0  0  0
   -8.4346  -22.4027    8.0248 C   0  0  0  0  0  0  0  0  0  0  0  0
   -8.6412  -21.5686    9.3158 C   0  0  0  0  0  0  0  0  0  0  0  0
   -9.9382  -20.7722    9.3407 C   0  0  0  0  0  0  0  0  0  0  0  0
  -10.2742  -20.1232    7.9856 C   0  0  0  0  0  0  0  0  0  0  0  0
  -11.1574  -19.0037    7.8506 C   0  0  0  0  0  0  0  0  0  0  0  0
  -11.4289  -18.4574    6.5674 C   0  0  0  0  0  0  0  0  0  0  0  0
  -10.8178  -19.0096    5.4226 C   0  0  0  0  0  0  0  0  0  0  0  0
   -9.9433  -20.1072    5.5792 C   0  0  0  0  0  0  0  0  0  0  0  0
   -9.1707  -20.9067    4.6737 C   0  0  0  0  0  0  0  0  0  0  0  0
   -6.3902  -22.6613    4.5935 O   0  0  0  0  0  0  0  0  0  0  0  0
   -7.5699  -22.9499    4.9241 C   0  0  0  0  0  0  0  0  0  0  0  0
   -7.9528  -24.1303    4.8072 O   0  0  0  0  0  0  0  0  0  0  0  0
   -6.0835  -21.7796    4.6741 H   0  0  0  0  0  0  0  0  0  0  0  0
   -9.0756  -20.7467    3.1612 C   0  0  0  0  0  0  0  0  0  0  0  0
   -8.2936  -19.4842    2.7963 C   0  0  0  0  0  0  0  0  0  0  0  0
   -6.8007  -19.6249    3.0898 C   0  0  0  0  0  0  0  0  0  0  0  0
   -6.2884  -20.5200    2.1394 O   0  0  0  0  0  0  0  0  0  0  0  0
   -6.1214  -20.0199    0.8353 C   0  0  0  0  0  0  0  0  0  0  0  0
   -6.6492  -20.7526   -0.2390 C   0  0  0  0  0  0  0  0  0  0  0  0
   -7.3233  -21.9629    0.0137 C   0  0  0  0  0  0  0  0  0  0  0  0
   -7.8584  -22.7085   -1.0363 C   0  0  0  0  0  0  0  0  0  0  0  0
   -7.7239  -22.2467   -2.3349 C   0  0  0  0  0  0  0  0  0  0  0  0
   -7.0589  -21.0508   -2.5818 C   0  0  0  0  0  0  0  0  0  0  0  0
   -6.5173  -20.2941   -1.5285 C   0  0  0  0  0  0  0  0  0  0  0  0
   -5.8461  -19.0809   -1.7873 C   0  0  0  0  0  0  0  0  0  0  0  0
   -5.3155  -18.3597   -0.7273 C   0  0  0  0  0  0  0  0  0  0  0  0
   -5.4567  -18.8249    0.5801 C   0  0  0  0  0  0  0  0  0  0  0  0
 26 25  2  0  0  0
 26 27  1  0  0  0
 28 27  2  0  0  0
 28 29  1  0  0  0
 25 24  1  0  0  0
 27 22  1  0  0  0
 29 30  2  0  0  0
 24 23  2  0  0  0
 22 23  1  0  0  0
 22 21  2  0  0  0
 30 21  1  0  0  0
 21 20  1  0  0  0
 20 19  1  0  0  0
 19 18  1  0  0  0
 18 17  1  0  0  0
 17 12  1  0  0  0
 15 14  2  0  0  0
 12 11  1  0  0  0
 12  1  2  0  0  0
 10 11  2  0  0  0
 10  9  1  0  0  0
 11  3  1  0  0  0
 14  1  1  0  0  0
 14 13  1  0  0  0
  9  8  2  0  0  0
  1  2  1  0  0  0
  3  2  1  0  0  0
  3  7  2  0  0  0
  2  4  1  0  0  0
  8  7  1  0  0  0
  7  6  1  0  0  0
  4  5  1  0  0  0
  5  6  1  0  0  0
 13 16  1  0  0  0
M  END
> <minimizedAffinity>
-10.47221

$$$$
4ZBI_4M6_A_400


 30 34  0  0  0  0  0  0  0  0999 V2000
   -9.6901  -19.9484    5.6050 C   0  0  0  0  0  0  0  0  0  0  0  0
   -9.5041  -20.6769    6.7532 N   0  0  0  0  0  0  0  0  0  0  0  0
   -8.9132  -21.8329    6.4346 C   0  0  0  0  0  0  0  0  0  0  0  0
   -9.8582  -20.3811    8.1828 C   0  0  0  0  0  0  0  0  0  0  0  0
   -9.9438  -21.6494    9.0710 C   0  0  0  0  0  0  0  0  0  0  0  0
   -8.8553  -22.6768    8.7946 C   0  0  0  0  0  0  0  0  0  0  0  0
   -8.5557  -22.8500    7.2944 C   0  0  0  0  0  0  0  0  0  0  0  0
   -7.9260  -24.0159    6.7506 C   0  0  0  0  0  0  0  0  0  0  0  0
   -7.6729  -24.1074    5.3556 C   0  0  0  0  0  0  0  0  0  0  0  0
   -8.0536  -23.0534    4.4995 C   0  0  0  0  0  0  0  0  0  0  0  0
   -8.6814  -21.9170    5.0551 C   0  0  0  0  0  0  0  0  0  0  0  0
   -9.1860  -20.6890    4.5136 C   0  0  0  0  0  0  0  0  0  0  0  0
  -11.4162  -18.4056    4.9035 O   0  0  0  0  0  0  0  0  0  0  0  0
  -10.3246  -18.5650    5.5096 C   0  0  0  0  0  0  0  0  0  0  0  0
   -9.7785  -17.5730    6.0304 O   0  0  0  0  0  0  0  0  0  0  0  0
  -11.8424  -19.1390    4.5053 H   0  0  0  0  0  0  0  0  0  0  0  0
   -9.1874  -20.2640    3.0501 C   0  0  0  0  0  0  0  0  0  0  0  0
   -8.0707  -19.2557    2.7760 C   0  0  0  0  0  0  0  0  0  0  0  0
   -6.6845  -19.8464    3.0293 C   0  0  0  0  0  0  0  0  0  0  0  0
   -6.4189  -20.7165    1.9620 O   0  0  0  0  0  0  0  0  0  0  0  0
   -6.1883  -20.1184    0.7099 C   0  0  0  0  0  0  0  0  0  0  0  0
   -6.6939  -20.7463   -0.4389 C   0  0  0  0  0  0  0  0  0  0  0  0
   -7.4098  -21.9521   -0.3102 C   0  0  0  0  0  0  0  0  0  0  0  0
   -7.9241  -22.5943   -1.4361 C   0  0  0  0  0  0  0  0  0  0  0  0
   -7.7272  -22.0340   -2.6871 C   0  0  0  0  0  0  0  0  0  0  0  0
   -7.0211  -20.8427   -2.8115 C   0  0  0  0  0  0  0  0  0  0  0  0
   -6.5001  -20.1897   -1.6812 C   0  0  0  0  0  0  0  0  0  0  0  0
   -5.7868  -18.9804   -1.8158 C   0  0  0  0  0  0  0  0  0  0  0  0
   -5.2780  -18.3631   -0.6821 C   0  0  0  0  0  0  0  0  0  0  0  0
   -5.4821  -18.9274    0.5771 C   0  0  0  0  0  0  0  0  0  0  0  0
 26 25  2  0  0  0
 26 27  1  0  0  0
 28 27  2  0  0  0
 28 29  1  0  0  0
 25 24  1  0  0  0
 27 22  1  0  0  0
 29 30  2  0  0  0
 24 23  2  0  0  0
 22 23  1  0  0  0
 22 21  2  0  0  0
 30 21  1  0  0  0
 21 20  1  0  0  0
 20 19  1  0  0  0
 19 18  1  0  0  0
 18 17  1  0  0  0
 17 12  1  0  0  0
 15 14  2  0  0  0
 12 11  1  0  0  0
 12  1  2  0  0  0
 10 11  2  0  0  0
 10  9  1  0  0  0
 11  3  1  0  0  0
 14  1  1  0  0  0
 14 13  1  0  0  0
  9  8  2  0  0  0
  1  2  1  0  0  0
  3  2  1  0  0  0
  3  7  2  0  0  0
  2  4  1  0  0  0
  8  7  1  0  0  0
  7  6  1  0  0  0
  4  5  1  0  0  0
  5  6  1  0  0  0
 13 16  1  0  0  0
M  END
> <minimizedAffinity>
-10.43844

$$$$
4ZBI_4M6_A_400


 30 34  0  0  0  0  0  0  0  0999 V2000
   -6.5006  -20.6470    1.4273 C   0  0  0  0  0  0  0  0  0  0  0  0
   -6.1752  -19.9100    0.3160 N   0  0  0  0  0  0  0  0  0  0  0  0
   -6.6859  -20.5140   -0.7616 C   0  0  0  0  0  0  0  0  0  0  0  0
   -5.3824  -18.6431    0.1645 C   0  0  0  0  0  0  0  0  0  0  0  0
   -4.8269  -18.4320   -1.2679 C   0  0  0  0  0  0  0  0  0  0  0  0
   -5.8007  -18.8112   -2.3747 C   0  0  0  0  0  0  0  0  0  0  0  0
   -6.5837  -20.1021   -2.0737 C   0  0  0  0  0  0  0  0  0  0  0  0
   -7.2082  -20.8948   -3.0902 C   0  0  0  0  0  0  0  0  0  0  0  0
   -7.9216  -22.0729   -2.7413 C   0  0  0  0  0  0  0  0  0  0  0  0
   -8.0057  -22.4722   -1.3914 C   0  0  0  0  0  0  0  0  0  0  0  0
   -7.3751  -21.6812   -0.4061 C   0  0  0  0  0  0  0  0  0  0  0  0
   -7.2562  -21.7682    1.0202 C   0  0  0  0  0  0  0  0  0  0  0  0
   -6.6612  -19.3443    3.4592 O   0  0  0  0  0  0  0  0  0  0  0  0
   -6.1245  -20.3172    2.8679 C   0  0  0  0  0  0  0  0  0  0  0  0
   -5.2861  -21.0037    3.4837 O   0  0  0  0  0  0  0  0  0  0  0  0
   -7.2938  -18.8162    3.0133 H   0  0  0  0  0  0  0  0  0  0  0  0
   -7.8244  -22.8563    1.9232 C   0  0  0  0  0  0  0  0  0  0  0  0
   -8.9210  -22.2935    2.8285 C   0  0  0  0  0  0  0  0  0  0  0  0
   -8.6825  -22.6278    4.3003 C   0  0  0  0  0  0  0  0  0  0  0  0
   -8.2895  -21.4344    4.9233 O   0  0  0  0  0  0  0  0  0  0  0  0
   -9.1962  -20.8827    5.8464 C   0  0  0  0  0  0  0  0  0  0  0  0
  -10.0165  -19.8220    5.4320 C   0  0  0  0  0  0  0  0  0  0  0  0
   -9.9084  -19.3378    4.1140 C   0  0  0  0  0  0  0  0  0  0  0  0
  -10.7135  -18.2863    3.6773 C   0  0  0  0  0  0  0  0  0  0  0  0
  -11.6260  -17.7207    4.5522 C   0  0  0  0  0  0  0  0  0  0  0  0
  -11.7317  -18.2012    5.8526 C   0  0  0  0  0  0  0  0  0  0  0  0
  -10.9237  -19.2609    6.2996 C   0  0  0  0  0  0  0  0  0  0  0  0
  -11.0386  -19.7440    7.6197 C   0  0  0  0  0  0  0  0  0  0  0  0
  -10.2220  -20.7864    8.0342 C   0  0  0  0  0  0  0  0  0  0  0  0
   -9.3072  -21.3572    7.1492 C   0  0  0  0  0  0  0  0  0  0  0  0
 26 25  2  0  0  0
 26 27  1  0  0  0
 28 27  2  0  0  0
 28 29  1  0  0  0
 25 24  1  0  0  0
 27 22  1  0  0  0
 29 30  2  0  0  0
 24 23  2  0  0  0
 22 23  1  0  0  0
 22 21  2  0  0  0
 30 21  1  0  0  0
 21 20  1  0  0  0
 20 19  1  0  0  0
 19 18  1  0  0  0
 18 17  1  0  0  0
 17 12  1  0  0  0
 15 14  2  0  0  0
 12 11  1  0  0  0
 12  1  2  0  0  0
 10 11  2  0  0  0
 10  9  1  0  0  0
 11  3  1  0  0  0
 14  1  1  0  0  0
 14 13  1  0  0  0
  9  8  2  0  0  0
  1  2  1  0  0  0
  3  2  1  0  0  0
  3  7  2  0  0  0
  2  4  1  0  0  0
  8  7  1  0  0  0
  7  6  1  0  0  0
  4  5  1  0  0  0
  5  6  1  0  0  0
 13 16  1  0  0  0
M  END
> <minimizedAffinity>
-9.69987

$$$$
4ZBI_4M6_A_400


 30 34  0  0  0  0  0  0  0  0999 V2000
   -8.5180  -21.9281    6.2603 C   0  0  0  0  0  0  0  0  0  0  0  0
   -9.3765  -21.8459    7.3281 N   0  0  0  0  0  0  0  0  0  0  0  0
  -10.1115  -20.7366    7.2006 C   0  0  0  0  0  0  0  0  0  0  0  0
   -9.5690  -22.7446    8.5163 C   0  0  0  0  0  0  0  0  0  0  0  0
  -10.2559  -22.0410    9.7155 C   0  0  0  0  0  0  0  0  0  0  0  0
  -11.3945  -21.1108    9.3217 C   0  0  0  0  0  0  0  0  0  0  0  0
  -11.0881  -20.2815    8.0613 C   0  0  0  0  0  0  0  0  0  0  0  0
  -11.7669  -19.0613    7.7421 C   0  0  0  0  0  0  0  0  0  0  0  0
  -11.4383  -18.3487    6.5576 C   0  0  0  0  0  0  0  0  0  0  0  0
  -10.4319  -18.8358    5.6982 C   0  0  0  0  0  0  0  0  0  0  0  0
   -9.7689  -20.0359    6.0364 C   0  0  0  0  0  0  0  0  0  0  0  0
   -8.7315  -20.8120    5.4221 C   0  0  0  0  0  0  0  0  0  0  0  0
   -6.4344  -23.0887    6.6645 O   0  0  0  0  0  0  0  0  0  0  0  0
   -7.5045  -23.0383    6.0037 C   0  0  0  0  0  0  0  0  0  0  0  0
   -7.7179  -23.9132    5.1420 O   0  0  0  0  0  0  0  0  0  0  0  0
   -6.2556  -22.4402    7.3167 H   0  0  0  0  0  0  0  0  0  0  0  0
   -7.9961  -20.4969    4.1251 C   0  0  0  0  0  0  0  0  0  0  0  0
   -8.8606  -20.8433    2.9122 C   0  0  0  0  0  0  0  0  0  0  0  0
   -8.4987  -22.2021    2.3145 C   0  0  0  0  0  0  0  0  0  0  0  0
   -7.2400  -22.0530    1.7142 O   0  0  0  0  0  0  0  0  0  0  0  0
   -7.2321  -21.8219    0.3267 C   0  0  0  0  0  0  0  0  0  0  0  0
   -6.6032  -20.6652   -0.1591 C   0  0  0  0  0  0  0  0  0  0  0  0
   -6.0047  -19.7699    0.7482 C   0  0  0  0  0  0  0  0  0  0  0  0
   -5.3718  -18.6147    0.2906 C   0  0  0  0  0  0  0  0  0  0  0  0
   -5.3336  -18.3543   -1.0690 C   0  0  0  0  0  0  0  0  0  0  0  0
   -5.9242  -19.2403   -1.9631 C   0  0  0  0  0  0  0  0  0  0  0  0
   -6.5636  -20.4068   -1.5090 C   0  0  0  0  0  0  0  0  0  0  0  0
   -7.1583  -21.3016   -2.4227 C   0  0  0  0  0  0  0  0  0  0  0  0
   -7.7887  -22.4410   -1.9437 C   0  0  0  0  0  0  0  0  0  0  0  0
   -7.8214  -22.7030   -0.5739 C   0  0  0  0  0  0  0  0  0  0  0  0
 26 25  2  0  0  0
 26 27  1  0  0  0
 28 27  2  0  0  0
 28 29  1  0  0  0
 25 24  1  0  0  0
 27 22  1  0  0  0
 29 30  2  0  0  0
 24 23  2  0  0  0
 22 23  1  0  0  0
 22 21  2  0  0  0
 30 21  1  0  0  0
 21 20  1  0  0  0
 20 19  1  0  0  0
 19 18  1  0  0  0
 18 17  1  0  0  0
 17 12  1  0  0  0
 15 14  2  0  0  0
 12 11  1  0  0  0
 12  1  2  0  0  0
 10 11  2  0  0  0
 10  9  1  0  0  0
 11  3  1  0  0  0
 14  1  1  0  0  0
 14 13  1  0  0  0
  9  8  2  0  0  0
  1  2  1  0  0  0
  3  2  1  0  0  0
  3  7  2  0  0  0
  2  4  1  0  0  0
  8  7  1  0  0  0
  7  6  1  0  0  0
  4  5  1  0  0  0
  5  6  1  0  0  0
 13 16  1  0  0  0
M  END
> <minimizedAffinity>
-9.67852

$$$$
4ZBI_4M6_A_400


 30 34  0  0  0  0  0  0  0  0999 V2000
   -9.9168  -19.5026    5.8082 C   0  0  0  0  0  0  0  0  0  0  0  0
  -10.3430  -20.0959    6.9703 N   0  0  0  0  0  0  0  0  0  0  0  0
   -9.6710  -21.2394    7.1373 C   0  0  0  0  0  0  0  0  0  0  0  0
  -11.3783  -19.6770    7.9749 C   0  0  0  0  0  0  0  0  0  0  0  0
  -11.9045  -20.8499    8.8423 C   0  0  0  0  0  0  0  0  0  0  0  0
  -10.8265  -21.8303    9.2823 C   0  0  0  0  0  0  0  0  0  0  0  0
   -9.8021  -22.1381    8.1750 C   0  0  0  0  0  0  0  0  0  0  0  0
   -8.9817  -23.3123    8.1708 C   0  0  0  0  0  0  0  0  0  0  0  0
   -8.0512  -23.5311    7.1197 C   0  0  0  0  0  0  0  0  0  0  0  0
   -7.9420  -22.5967    6.0691 C   0  0  0  0  0  0  0  0  0  0  0  0
   -8.7667  -21.4505    6.0879 C   0  0  0  0  0  0  0  0  0  0  0  0
   -8.9249  -20.3188    5.2218 C   0  0  0  0  0  0  0  0  0  0  0  0
  -10.2808  -17.1127    5.8939 O   0  0  0  0  0  0  0  0  0  0  0  0
  -10.4149  -18.1788    5.2383 C   0  0  0  0  0  0  0  0  0  0  0  0
  -10.9576  -18.1281    4.1174 O   0  0  0  0  0  0  0  0  0  0  0  0
   -9.8753  -17.1300    6.7385 H   0  0  0  0  0  0  0  0  0  0  0  0
   -8.1787  -20.0478    3.9211 C   0  0  0  0  0  0  0  0  0  0  0  0
   -8.8896  -20.7081    2.7390 C   0  0  0  0  0  0  0  0  0  0  0  0
   -8.3562  -22.1116    2.4553 C   0  0  0  0  0  0  0  0  0  0  0  0
   -7.1249  -21.9480    1.8043 O   0  0  0  0  0  0  0  0  0  0  0  0
   -7.1727  -21.7787    0.4087 C   0  0  0  0  0  0  0  0  0  0  0  0
   -6.5690  -20.6427   -0.1523 C   0  0  0  0  0  0  0  0  0  0  0  0
   -5.9396  -19.7062    0.6902 C   0  0  0  0  0  0  0  0  0  0  0  0
   -5.3308  -18.5705    0.1571 C   0  0  0  0  0  0  0  0  0  0  0  0
   -5.3474  -18.3706   -1.2131 C   0  0  0  0  0  0  0  0  0  0  0  0
   -5.9685  -19.2973   -2.0430 C   0  0  0  0  0  0  0  0  0  0  0  0
   -6.5838  -20.4444   -1.5128 C   0  0  0  0  0  0  0  0  0  0  0  0
   -7.2098  -21.3808   -2.3617 C   0  0  0  0  0  0  0  0  0  0  0  0
   -7.8154  -22.4997   -1.8082 C   0  0  0  0  0  0  0  0  0  0  0  0
   -7.7928  -22.7007   -0.4280 C   0  0  0  0  0  0  0  0  0  0  0  0
 26 25  2  0  0  0
 26 27  1  0  0  0
 28 27  2  0  0  0
 28 29  1  0  0  0
 25 24  1  0  0  0
 27 22  1  0  0  0
 29 30  2  0  0  0
 24 23  2  0  0  0
 22 23  1  0  0  0
 22 21  2  0  0  0
 30 21  1  0  0  0
 21 20  1  0  0  0
 20 19  1  0  0  0
 19 18  1  0  0  0
 18 17  1  0  0  0
 17 12  1  0  0  0
 15 14  2  0  0  0
 12 11  1  0  0  0
 12  1  2  0  0  0
 10 11  2  0  0  0
 10  9  1  0  0  0
 11  3  1  0  0  0
 14  1  1  0  0  0
 14 13  1  0  0  0
  9  8  2  0  0  0
  1  2  1  0  0  0
  3  2  1  0  0  0
  3  7  2  0  0  0
  2  4  1  0  0  0
  8  7  1  0  0  0
  7  6  1  0  0  0
  4  5  1  0  0  0
  5  6  1  0  0  0
 13 16  1  0  0  0
M  END
> <minimizedAffinity>
-9.56108

$$$$
4ZBI_4M6_A_400


 30 34  0  0  0  0  0  0  0  0999 V2000
   -6.3678  -20.5619    1.4175 C   0  0  0  0  0  0  0  0  0  0  0  0
   -6.1228  -19.8873    0.2475 N   0  0  0  0  0  0  0  0  0  0  0  0
   -6.6817  -20.5640   -0.7607 C   0  0  0  0  0  0  0  0  0  0  0  0
   -5.3671  -18.6179   -0.0248 C   0  0  0  0  0  0  0  0  0  0  0  0
   -4.8996  -18.4836   -1.4973 C   0  0  0  0  0  0  0  0  0  0  0  0
   -5.9273  -18.9458   -2.5206 C   0  0  0  0  0  0  0  0  0  0  0  0
   -6.6641  -20.2300   -2.0985 C   0  0  0  0  0  0  0  0  0  0  0  0
   -7.3291  -21.0934   -3.0281 C   0  0  0  0  0  0  0  0  0  0  0  0
   -7.9960  -22.2609   -2.5689 C   0  0  0  0  0  0  0  0  0  0  0  0
   -7.9938  -22.5797   -1.1952 C   0  0  0  0  0  0  0  0  0  0  0  0
   -7.3243  -21.7198   -0.2970 C   0  0  0  0  0  0  0  0  0  0  0  0
   -7.1217  -21.7188    1.1224 C   0  0  0  0  0  0  0  0  0  0  0  0
   -5.1588  -20.8830    3.4879 O   0  0  0  0  0  0  0  0  0  0  0  0
   -5.9164  -20.1395    2.8116 C   0  0  0  0  0  0  0  0  0  0  0  0
   -6.2847  -19.0545    3.3023 O   0  0  0  0  0  0  0  0  0  0  0  0
   -4.8710  -21.7025    3.1365 H   0  0  0  0  0  0  0  0  0  0  0  0
   -7.6137  -22.7606    2.1199 C   0  0  0  0  0  0  0  0  0  0  0  0
   -8.9155  -22.3069    2.7819 C   0  0  0  0  0  0  0  0  0  0  0  0
   -8.8368  -22.3607    4.3069 C   0  0  0  0  0  0  0  0  0  0  0  0
   -8.4555  -21.0804    4.7336 O   0  0  0  0  0  0  0  0  0  0  0  0
   -9.4596  -20.0953    4.7311 C   0  0  0  0  0  0  0  0  0  0  0  0
  -10.2015  -19.8877    5.9041 C   0  0  0  0  0  0  0  0  0  0  0  0
   -9.9269  -20.6682    7.0437 C   0  0  0  0  0  0  0  0  0  0  0  0
  -10.6485  -20.4799    8.2220 C   0  0  0  0  0  0  0  0  0  0  0  0
  -11.6398  -19.5138    8.2646 C   0  0  0  0  0  0  0  0  0  0  0  0
  -11.9083  -18.7437    7.1385 C   0  0  0  0  0  0  0  0  0  0  0  0
  -11.1848  -18.9277    5.9475 C   0  0  0  0  0  0  0  0  0  0  0  0
  -11.4619  -18.1408    4.8103 C   0  0  0  0  0  0  0  0  0  0  0  0
  -10.7359  -18.3509    3.6467 C   0  0  0  0  0  0  0  0  0  0  0  0
   -9.7347  -19.3215    3.6084 C   0  0  0  0  0  0  0  0  0  0  0  0
 26 25  2  0  0  0
 26 27  1  0  0  0
 28 27  2  0  0  0
 28 29  1  0  0  0
 25 24  1  0  0  0
 27 22  1  0  0  0
 29 30  2  0  0  0
 24 23  2  0  0  0
 22 23  1  0  0  0
 22 21  2  0  0  0
 30 21  1  0  0  0
 21 20  1  0  0  0
 20 19  1  0  0  0
 19 18  1  0  0  0
 18 17  1  0  0  0
 17 12  1  0  0  0
 15 14  2  0  0  0
 12 11  1  0  0  0
 12  1  2  0  0  0
 10 11  2  0  0  0
 10  9  1  0  0  0
 11  3  1  0  0  0
 14  1  1  0  0  0
 14 13  1  0  0  0
  9  8  2  0  0  0
  1  2  1  0  0  0
  3  2  1  0  0  0
  3  7  2  0  0  0
  2  4  1  0  0  0
  8  7  1  0  0  0
  7  6  1  0  0  0
  4  5  1  0  0  0
  5  6  1  0  0  0
 13 16  1  0  0  0
M  END
> <minimizedAffinity>
-9.41558

$$$$
4ZBI_4M6_A_400


 30 34  0  0  0  0  0  0  0  0999 V2000
   -9.3912  -19.8929    5.0497 C   0  0  0  0  0  0  0  0  0  0  0  0
   -9.3351  -19.2813    6.2771 N   0  0  0  0  0  0  0  0  0  0  0  0
   -9.0754  -20.2082    7.2046 C   0  0  0  0  0  0  0  0  0  0  0  0
   -9.5252  -17.8464    6.6788 C   0  0  0  0  0  0  0  0  0  0  0  0
   -9.8826  -17.6687    8.1774 C   0  0  0  0  0  0  0  0  0  0  0  0
   -9.1074  -18.5842    9.1143 C   0  0  0  0  0  0  0  0  0  0  0  0
   -8.9426  -20.0123    8.5632 C   0  0  0  0  0  0  0  0  0  0  0  0
   -8.6600  -21.1448    9.3934 C   0  0  0  0  0  0  0  0  0  0  0  0
   -8.5138  -22.4353    8.8173 C   0  0  0  0  0  0  0  0  0  0  0  0
   -8.6594  -22.6064    7.4251 C   0  0  0  0  0  0  0  0  0  0  0  0
   -8.9469  -21.4781    6.6261 C   0  0  0  0  0  0  0  0  0  0  0  0
   -9.1511  -21.2737    5.2217 C   0  0  0  0  0  0  0  0  0  0  0  0
  -10.8187  -18.8250    3.4146 O   0  0  0  0  0  0  0  0  0  0  0  0
   -9.6574  -19.2074    3.7137 C   0  0  0  0  0  0  0  0  0  0  0  0
   -8.7341  -19.0111    2.8997 O   0  0  0  0  0  0  0  0  0  0  0  0
  -11.5262  -18.9634    4.0132 H   0  0  0  0  0  0  0  0  0  0  0  0
   -9.1230  -22.3335    4.1270 C   0  0  0  0  0  0  0  0  0  0  0  0
   -7.7776  -22.3281    3.3999 C   0  0  0  0  0  0  0  0  0  0  0  0
   -7.9303  -22.0491    1.9054 C   0  0  0  0  0  0  0  0  0  0  0  0
   -6.6331  -21.9406    1.3837 O   0  0  0  0  0  0  0  0  0  0  0  0
   -6.3661  -20.8016    0.6026 C   0  0  0  0  0  0  0  0  0  0  0  0
   -6.7276  -20.8158   -0.7534 C   0  0  0  0  0  0  0  0  0  0  0  0
   -7.3395  -21.9630   -1.2944 C   0  0  0  0  0  0  0  0  0  0  0  0
   -7.7099  -22.0014   -2.6382 C   0  0  0  0  0  0  0  0  0  0  0  0
   -7.4731  -20.8973   -3.4399 C   0  0  0  0  0  0  0  0  0  0  0  0
   -6.8699  -19.7654   -2.9032 C   0  0  0  0  0  0  0  0  0  0  0  0
   -6.4941  -19.7195   -1.5496 C   0  0  0  0  0  0  0  0  0  0  0  0
   -5.8847  -18.5666   -1.0123 C   0  0  0  0  0  0  0  0  0  0  0  0
   -5.5180  -18.5540    0.3258 C   0  0  0  0  0  0  0  0  0  0  0  0
   -5.7622  -19.6659    1.1320 C   0  0  0  0  0  0  0  0  0  0  0  0
 26 25  2  0  0  0
 26 27  1  0  0  0
 28 27  2  0  0  0
 28 29  1  0  0  0
 25 24  1  0  0  0
 27 22  1  0  0  0
 29 30  2  0  0  0
 24 23  2  0  0  0
 22 23  1  0  0  0
 22 21  2  0  0  0
 30 21  1  0  0  0
 21 20  1  0  0  0
 20 19  1  0  0  0
 19 18  1  0  0  0
 18 17  1  0  0  0
 17 12  1  0  0  0
 15 14  2  0  0  0
 12 11  1  0  0  0
 12  1  2  0  0  0
 10 11  2  0  0  0
 10  9  1  0  0  0
 11  3  1  0  0  0
 14  1  1  0  0  0
 14 13  1  0  0  0
  9  8  2  0  0  0
  1  2  1  0  0  0
  3  2  1  0  0  0
  3  7  2  0  0  0
  2  4  1  0  0  0
  8  7  1  0  0  0
  7  6  1  0  0  0
  4  5  1  0  0  0
  5  6  1  0  0  0
 13 16  1  0  0  0
M  END
> <minimizedAffinity>
-9.06610

$$$$
4ZBI_4M6_A_400


 30 34  0  0  0  0  0  0  0  0999 V2000
   -8.1815  -20.5365    9.5313 C   0  0  0  0  0  0  0  0  0  0  0  0
   -8.4964  -19.2095    9.6859 N   0  0  0  0  0  0  0  0  0  0  0  0
   -9.5034  -18.9105    8.8591 C   0  0  0  0  0  0  0  0  0  0  0  0
   -7.9038  -18.1465   10.5665 C   0  0  0  0  0  0  0  0  0  0  0  0
   -8.1958  -16.7054   10.0736 C   0  0  0  0  0  0  0  0  0  0  0  0
   -9.6100  -16.5024    9.5484 C   0  0  0  0  0  0  0  0  0  0  0  0
  -10.1147  -17.6845    8.7010 C   0  0  0  0  0  0  0  0  0  0  0  0
  -11.1858  -17.5708    7.7568 C   0  0  0  0  0  0  0  0  0  0  0  0
  -11.6058  -18.7051    7.0115 C   0  0  0  0  0  0  0  0  0  0  0  0
  -10.9591  -19.9454    7.1910 C   0  0  0  0  0  0  0  0  0  0  0  0
   -9.8994  -20.0334    8.1202 C   0  0  0  0  0  0  0  0  0  0  0  0
   -9.0397  -21.0939    8.5583 C   0  0  0  0  0  0  0  0  0  0  0  0
   -5.8812  -21.0240   10.0990 O   0  0  0  0  0  0  0  0  0  0  0  0
   -7.0957  -21.2976   10.2844 C   0  0  0  0  0  0  0  0  0  0  0  0
   -7.3898  -22.1970   11.0956 O   0  0  0  0  0  0  0  0  0  0  0  0
   -5.6397  -20.3511    9.4933 H   0  0  0  0  0  0  0  0  0  0  0  0
   -9.0418  -22.5374    8.0698 C   0  0  0  0  0  0  0  0  0  0  0  0
   -7.9557  -22.7558    7.0155 C   0  0  0  0  0  0  0  0  0  0  0  0
   -8.1944  -24.0223    6.1947 C   0  0  0  0  0  0  0  0  0  0  0  0
   -8.6270  -23.6031    4.9282 O   0  0  0  0  0  0  0  0  0  0  0  0
   -7.7980  -22.6872    4.2555 C   0  0  0  0  0  0  0  0  0  0  0  0
   -8.3468  -21.4659    3.8350 C   0  0  0  0  0  0  0  0  0  0  0  0
   -9.7043  -21.1926    4.0913 C   0  0  0  0  0  0  0  0  0  0  0  0
  -10.2729  -19.9857    3.6855 C   0  0  0  0  0  0  0  0  0  0  0  0
   -9.4888  -19.0525    3.0280 C   0  0  0  0  0  0  0  0  0  0  0  0
   -8.1485  -19.3241    2.7772 C   0  0  0  0  0  0  0  0  0  0  0  0
   -7.5686  -20.5384    3.1835 C   0  0  0  0  0  0  0  0  0  0  0  0
   -6.2076  -20.8053    2.9272 C   0  0  0  0  0  0  0  0  0  0  0  0
   -5.6655  -22.0160    3.3338 C   0  0  0  0  0  0  0  0  0  0  0  0
   -6.4565  -22.9520    4.0001 C   0  0  0  0  0  0  0  0  0  0  0  0
 26 25  2  0  0  0
 26 27  1  0  0  0
 28 27  2  0  0  0
 28 29  1  0  0  0
 25 24  1  0  0  0
 27 22  1  0  0  0
 29 30  2  0  0  0
 24 23  2  0  0  0
 22 23  1  0  0  0
 22 21  2  0  0  0
 30 21  1  0  0  0
 21 20  1  0  0  0
 20 19  1  0  0  0
 19 18  1  0  0  0
 18 17  1  0  0  0
 17 12  1  0  0  0
 15 14  2  0  0  0
 12 11  1  0  0  0
 12  1  2  0  0  0
 10 11  2  0  0  0
 10  9  1  0  0  0
 11  3  1  0  0  0
 14  1  1  0  0  0
 14 13  1  0  0  0
  9  8  2  0  0  0
  1  2  1  0  0  0
  3  2  1  0  0  0
  3  7  2  0  0  0
  2  4  1  0  0  0
  8  7  1  0  0  0
  7  6  1  0  0  0
  4  5  1  0  0  0
  5  6  1  0  0  0
 13 16  1  0  0  0
M  END
> <minimizedAffinity>
-8.82991

$$$$
