4KYK_IMN_B_300


 26 28  0  0  0  0  0  0  0  0999 V2000
   20.3429   13.5068   60.8170 C   0  0  0  0  0  0  0  0  0  0  0  0
   20.5031   14.6628   60.0397 C   0  0  0  0  0  0  0  0  0  0  0  0
   20.6142   14.5386   58.6579 C   0  0  0  0  0  0  0  0  0  0  0  0
   20.5675   13.2757   58.0816 C   0  0  0  0  0  0  0  0  0  0  0  0
   20.4189   12.1362   58.8603 C   0  0  0  0  0  0  0  0  0  0  0  0
   20.3064   12.2464   60.2342 C   0  0  0  0  0  0  0  0  0  0  0  0
   20.4967   15.7843   60.9381 C   0  0  0  0  0  0  0  0  0  0  0  0
   20.3201   15.3220   62.1973 C   0  0  0  0  0  0  0  0  0  0  0  0
   20.1116   13.0543   63.3035 C   0  0  0  0  0  0  0  0  0  0  0  0
   20.2028   16.1074   63.4580 C   0  0  0  0  0  0  0  0  0  0  0  0
   20.2315   13.9220   62.1695 N   0  0  0  0  0  0  0  0  0  0  0  0
   20.7885   13.2459   64.2954 O   0  0  0  0  0  0  0  0  0  0  0  0
   19.1603   11.8992   63.2537 C   0  0  0  0  0  0  0  0  0  0  0  0
   19.6323   10.6366   63.5897 C   0  0  0  0  0  0  0  0  0  0  0  0
   18.7997    9.5359   63.5527 C   0  0  0  0  0  0  0  0  0  0  0  0
   17.4880    9.6951   63.1624 C   0  0  0  0  0  0  0  0  0  0  0  0
   16.9870   10.9394   62.8426 C   0  0  0  0  0  0  0  0  0  0  0  0
   17.8235   12.0382   62.8910 C   0  0  0  0  0  0  0  0  0  0  0  0
   16.4683    8.2913   63.0049 Cl  0  0  0  0  0  0  0  0  0  0  0  0
   20.6031   11.8756   56.1492 C   0  0  0  0  0  0  0  0  0  0  0  0
   20.6667   13.1784   56.7186 O   0  0  0  0  0  0  0  0  0  0  0  0
   20.6979   17.2197   60.5301 C   0  0  0  0  0  0  0  0  0  0  0  0
   19.4160   17.8164   60.0144 C   0  0  0  0  0  0  0  0  0  0  0  0
   18.4017   17.8935   60.6620 O   0  0  0  0  0  0  0  0  0  0  0  0
   19.5109   18.2542   58.8068 O   0  0  0  0  0  0  0  0  0  0  0  0
   20.3200   18.1728   58.3413 H   0  0  0  0  0  0  0  0  0  0  0  0
  1  2  2  0  0  0
  1  6  1  0  0  0
  1 11  1  0  0  0
  2  3  1  0  0  0
  2  7  1  0  0  0
  3  4  2  0  0  0
  4  5  1  0  0  0
  4 21  1  0  0  0
  5  6  2  0  0  0
 20 21  1  0  0  0
  7  8  2  0  0  0
  7 22  1  0  0  0
  8 10  1  0  0  0
  8 11  1  0  0  0
  9 13  1  0  0  0
  9 11  1  0  0  0
  9 12  2  0  0  0
 13 14  2  0  0  0
 13 18  1  0  0  0
 14 15  1  0  0  0
 15 16  2  0  0  0
 16 17  1  0  0  0
 16 19  1  0  0  0
 17 18  2  0  0  0
 22 23  1  0  0  0
 23 24  2  0  0  0
 23 25  1  0  0  0
 25 26  1  0  0  0
M  END
> <minimizedAffinity>
-8.17066

$$$$
4KYK_IMN_B_300


 26 28  0  0  0  0  0  0  0  0999 V2000
   19.8848   11.7742   62.2194 C   0  0  0  0  0  0  0  0  0  0  0  0
   20.0070   10.7610   63.1810 C   0  0  0  0  0  0  0  0  0  0  0  0
   18.9237    9.9201   63.4187 C   0  0  0  0  0  0  0  0  0  0  0  0
   17.7480   10.1049   62.7027 C   0  0  0  0  0  0  0  0  0  0  0  0
   17.6330   11.1173   61.7600 C   0  0  0  0  0  0  0  0  0  0  0  0
   18.7024   11.9587   61.5139 C   0  0  0  0  0  0  0  0  0  0  0  0
   21.3383   10.8400   63.7161 C   0  0  0  0  0  0  0  0  0  0  0  0
   21.9922   11.8442   63.0880 C   0  0  0  0  0  0  0  0  0  0  0  0
   21.4228   13.5973   61.3524 C   0  0  0  0  0  0  0  0  0  0  0  0
   23.4057   12.2782   63.2712 C   0  0  0  0  0  0  0  0  0  0  0  0
   21.1293   12.4541   62.1649 N   0  0  0  0  0  0  0  0  0  0  0  0
   22.0021   14.5545   61.8287 O   0  0  0  0  0  0  0  0  0  0  0  0
   20.9965   13.6139   59.9173 C   0  0  0  0  0  0  0  0  0  0  0  0
   20.4941   14.7961   59.3885 C   0  0  0  0  0  0  0  0  0  0  0  0
   20.0790   14.8642   58.0736 C   0  0  0  0  0  0  0  0  0  0  0  0
   20.1526   13.7377   57.2837 C   0  0  0  0  0  0  0  0  0  0  0  0
   20.6655   12.5561   57.7760 C   0  0  0  0  0  0  0  0  0  0  0  0
   21.0879   12.4978   59.0904 C   0  0  0  0  0  0  0  0  0  0  0  0
   19.5232   13.7914   55.6601 Cl  0  0  0  0  0  0  0  0  0  0  0  0
   17.0062    7.9621   63.4471 C   0  0  0  0  0  0  0  0  0  0  0  0
   16.6987    9.2577   62.9447 O   0  0  0  0  0  0  0  0  0  0  0  0
   21.8792    9.9702   64.8198 C   0  0  0  0  0  0  0  0  0  0  0  0
   21.4165   10.4602   66.1656 C   0  0  0  0  0  0  0  0  0  0  0  0
   21.8532   11.4438   66.7097 O   0  0  0  0  0  0  0  0  0  0  0  0
   20.4896    9.7286   66.6797 O   0  0  0  0  0  0  0  0  0  0  0  0
   20.1807    8.9725   66.2205 H   0  0  0  0  0  0  0  0  0  0  0  0
  1  2  2  0  0  0
  1  6  1  0  0  0
  1 11  1  0  0  0
  2  3  1  0  0  0
  2  7  1  0  0  0
  3  4  2  0  0  0
  4  5  1  0  0  0
  4 21  1  0  0  0
  5  6  2  0  0  0
 20 21  1  0  0  0
  7  8  2  0  0  0
  7 22  1  0  0  0
  8 10  1  0  0  0
  8 11  1  0  0  0
  9 13  1  0  0  0
  9 11  1  0  0  0
  9 12  2  0  0  0
 13 14  2  0  0  0
 13 18  1  0  0  0
 14 15  1  0  0  0
 15 16  2  0  0  0
 16 17  1  0  0  0
 16 19  1  0  0  0
 17 18  2  0  0  0
 22 23  1  0  0  0
 23 24  2  0  0  0
 23 25  1  0  0  0
 25 26  1  0  0  0
M  END
> <minimizedAffinity>
-8.08410

$$$$
4KYK_IMN_B_300


 26 28  0  0  0  0  0  0  0  0999 V2000
   22.5042   13.3419   63.1799 C   0  0  0  0  0  0  0  0  0  0  0  0
   22.8201   12.4537   64.2179 C   0  0  0  0  0  0  0  0  0  0  0  0
   23.7900   12.8174   65.1475 C   0  0  0  0  0  0  0  0  0  0  0  0
   24.4241   14.0470   65.0245 C   0  0  0  0  0  0  0  0  0  0  0  0
   24.1120   14.9153   63.9875 C   0  0  0  0  0  0  0  0  0  0  0  0
   23.1494   14.5661   63.0581 C   0  0  0  0  0  0  0  0  0  0  0  0
   21.9816   11.2975   64.0590 C   0  0  0  0  0  0  0  0  0  0  0  0
   21.1837   11.4930   62.9841 C   0  0  0  0  0  0  0  0  0  0  0  0
   20.9024   13.2795   61.2123 C   0  0  0  0  0  0  0  0  0  0  0  0
   20.1210   10.5947   62.4514 C   0  0  0  0  0  0  0  0  0  0  0  0
   21.4804   12.7364   62.4057 N   0  0  0  0  0  0  0  0  0  0  0  0
   20.7444   12.5757   60.2334 O   0  0  0  0  0  0  0  0  0  0  0  0
   20.5097   14.7238   61.1717 C   0  0  0  0  0  0  0  0  0  0  0  0
   20.8227   15.4643   60.0389 C   0  0  0  0  0  0  0  0  0  0  0  0
   20.4911   16.8017   59.9526 C   0  0  0  0  0  0  0  0  0  0  0  0
   19.8542   17.4086   61.0130 C   0  0  0  0  0  0  0  0  0  0  0  0
   19.5134   16.6936   62.1418 C   0  0  0  0  0  0  0  0  0  0  0  0
   19.8400   15.3530   62.2174 C   0  0  0  0  0  0  0  0  0  0  0  0
   19.5384   19.1209   60.9521 Cl  0  0  0  0  0  0  0  0  0  0  0  0
   25.4127   13.6196   67.1543 C   0  0  0  0  0  0  0  0  0  0  0  0
   25.3670   14.3891   65.9580 O   0  0  0  0  0  0  0  0  0  0  0  0
   22.0302   10.0687   64.9279 C   0  0  0  0  0  0  0  0  0  0  0  0
   20.9783   10.1289   66.0027 C   0  0  0  0  0  0  0  0  0  0  0  0
   19.9159    9.5622   65.9365 O   0  0  0  0  0  0  0  0  0  0  0  0
   21.3308   10.8398   67.0172 O   0  0  0  0  0  0  0  0  0  0  0  0
   22.1670   11.2626   67.0251 H   0  0  0  0  0  0  0  0  0  0  0  0
  1  2  2  0  0  0
  1  6  1  0  0  0
  1 11  1  0  0  0
  2  3  1  0  0  0
  2  7  1  0  0  0
  3  4  2  0  0  0
  4  5  1  0  0  0
  4 21  1  0  0  0
  5  6  2  0  0  0
 20 21  1  0  0  0
  7  8  2  0  0  0
  7 22  1  0  0  0
  8 10  1  0  0  0
  8 11  1  0  0  0
  9 13  1  0  0  0
  9 11  1  0  0  0
  9 12  2  0  0  0
 13 14  2  0  0  0
 13 18  1  0  0  0
 14 15  1  0  0  0
 15 16  2  0  0  0
 16 17  1  0  0  0
 16 19  1  0  0  0
 17 18  2  0  0  0
 22 23  1  0  0  0
 23 24  2  0  0  0
 23 25  1  0  0  0
 25 26  1  0  0  0
M  END
> <minimizedAffinity>
-6.96777

$$$$
4KYK_IMN_B_300


 26 28  0  0  0  0  0  0  0  0999 V2000
   20.7307   12.9031   63.2332 C   0  0  0  0  0  0  0  0  0  0  0  0
   20.9787   11.5376   63.4325 C   0  0  0  0  0  0  0  0  0  0  0  0
   19.9583   10.6225   63.1903 C   0  0  0  0  0  0  0  0  0  0  0  0
   18.7196   11.0814   62.7612 C   0  0  0  0  0  0  0  0  0  0  0  0
   18.4803   12.4362   62.5767 C   0  0  0  0  0  0  0  0  0  0  0  0
   19.4862   13.3553   62.8128 C   0  0  0  0  0  0  0  0  0  0  0  0
   22.3452   11.4106   63.8584 C   0  0  0  0  0  0  0  0  0  0  0  0
   22.8981   12.6450   63.8935 C   0  0  0  0  0  0  0  0  0  0  0  0
   22.1066   15.0183   63.5054 C   0  0  0  0  0  0  0  0  0  0  0  0
   24.3009   13.0157   64.2322 C   0  0  0  0  0  0  0  0  0  0  0  0
   21.9342   13.5959   63.5258 N   0  0  0  0  0  0  0  0  0  0  0  0
   22.6799   15.5788   64.4196 O   0  0  0  0  0  0  0  0  0  0  0  0
   21.5612   15.8131   62.3597 C   0  0  0  0  0  0  0  0  0  0  0  0
   20.6381   16.8157   62.6283 C   0  0  0  0  0  0  0  0  0  0  0  0
   20.0975   17.5729   61.6082 C   0  0  0  0  0  0  0  0  0  0  0  0
   20.4711   17.3169   60.3071 C   0  0  0  0  0  0  0  0  0  0  0  0
   21.4003   16.3414   60.0126 C   0  0  0  0  0  0  0  0  0  0  0  0
   21.9443   15.5936   61.0395 C   0  0  0  0  0  0  0  0  0  0  0  0
   19.7047   18.1933   59.0110 Cl  0  0  0  0  0  0  0  0  0  0  0  0
   17.4645    9.2053   63.5366 C   0  0  0  0  0  0  0  0  0  0  0  0
   17.7337   10.1617   62.5175 O   0  0  0  0  0  0  0  0  0  0  0  0
   23.0155   10.1169   64.2384 C   0  0  0  0  0  0  0  0  0  0  0  0
   23.0982    9.9739   65.7344 C   0  0  0  0  0  0  0  0  0  0  0  0
   22.1762   10.1853   66.4822 O   0  0  0  0  0  0  0  0  0  0  0  0
   24.2566    9.5863   66.1428 O   0  0  0  0  0  0  0  0  0  0  0  0
   24.9444    9.4340   65.5250 H   0  0  0  0  0  0  0  0  0  0  0  0
  1  2  2  0  0  0
  1  6  1  0  0  0
  1 11  1  0  0  0
  2  3  1  0  0  0
  2  7  1  0  0  0
  3  4  2  0  0  0
  4  5  1  0  0  0
  4 21  1  0  0  0
  5  6  2  0  0  0
 20 21  1  0  0  0
  7  8  2  0  0  0
  7 22  1  0  0  0
  8 10  1  0  0  0
  8 11  1  0  0  0
  9 13  1  0  0  0
  9 11  1  0  0  0
  9 12  2  0  0  0
 13 14  2  0  0  0
 13 18  1  0  0  0
 14 15  1  0  0  0
 15 16  2  0  0  0
 16 17  1  0  0  0
 16 19  1  0  0  0
 17 18  2  0  0  0
 22 23  1  0  0  0
 23 24  2  0  0  0
 23 25  1  0  0  0
 25 26  1  0  0  0
M  END
> <minimizedAffinity>
-6.81364

$$$$
4KYK_IMN_B_300


 26 28  0  0  0  0  0  0  0  0999 V2000
   21.4702   12.7724   63.4484 C   0  0  0  0  0  0  0  0  0  0  0  0
   20.4705   11.8194   63.2070 C   0  0  0  0  0  0  0  0  0  0  0  0
   20.1789   10.8807   64.1925 C   0  0  0  0  0  0  0  0  0  0  0  0
   20.8851   10.9067   65.3882 C   0  0  0  0  0  0  0  0  0  0  0  0
   21.8803   11.8477   65.6139 C   0  0  0  0  0  0  0  0  0  0  0  0
   22.1787   12.7863   64.6432 C   0  0  0  0  0  0  0  0  0  0  0  0
   19.9402   12.0808   61.8973 C   0  0  0  0  0  0  0  0  0  0  0  0
   20.5805   13.1565   61.3841 C   0  0  0  0  0  0  0  0  0  0  0  0
   22.4694   14.6801   62.1054 C   0  0  0  0  0  0  0  0  0  0  0  0
   20.3465   13.8287   60.0751 C   0  0  0  0  0  0  0  0  0  0  0  0
   21.5398   13.6077   62.3031 N   0  0  0  0  0  0  0  0  0  0  0  0
   23.0591   14.7921   61.0479 O   0  0  0  0  0  0  0  0  0  0  0  0
   22.7238   15.6525   63.2151 C   0  0  0  0  0  0  0  0  0  0  0  0
   21.7311   16.5707   63.5326 C   0  0  0  0  0  0  0  0  0  0  0  0
   21.9169   17.4948   64.5414 C   0  0  0  0  0  0  0  0  0  0  0  0
   23.1105   17.5115   65.2294 C   0  0  0  0  0  0  0  0  0  0  0  0
   24.1059   16.5992   64.9493 C   0  0  0  0  0  0  0  0  0  0  0  0
   23.9093   15.6710   63.9447 C   0  0  0  0  0  0  0  0  0  0  0  0
   23.3900   18.7494   66.4232 Cl  0  0  0  0  0  0  0  0  0  0  0  0
   19.4321    9.1608   66.1207 C   0  0  0  0  0  0  0  0  0  0  0  0
   20.5728    9.9807   66.3485 O   0  0  0  0  0  0  0  0  0  0  0  0
   18.8812   11.2573   61.2134 C   0  0  0  0  0  0  0  0  0  0  0  0
   17.6277   11.1970   62.0443 C   0  0  0  0  0  0  0  0  0  0  0  0
   17.1377   12.1527   62.5927 O   0  0  0  0  0  0  0  0  0  0  0  0
   17.1150   10.0169   62.1026 O   0  0  0  0  0  0  0  0  0  0  0  0
   17.5307    9.3031   61.6603 H   0  0  0  0  0  0  0  0  0  0  0  0
  1  2  2  0  0  0
  1  6  1  0  0  0
  1 11  1  0  0  0
  2  3  1  0  0  0
  2  7  1  0  0  0
  3  4  2  0  0  0
  4  5  1  0  0  0
  4 21  1  0  0  0
  5  6  2  0  0  0
 20 21  1  0  0  0
  7  8  2  0  0  0
  7 22  1  0  0  0
  8 10  1  0  0  0
  8 11  1  0  0  0
  9 13  1  0  0  0
  9 11  1  0  0  0
  9 12  2  0  0  0
 13 14  2  0  0  0
 13 18  1  0  0  0
 14 15  1  0  0  0
 15 16  2  0  0  0
 16 17  1  0  0  0
 16 19  1  0  0  0
 17 18  2  0  0  0
 22 23  1  0  0  0
 23 24  2  0  0  0
 23 25  1  0  0  0
 25 26  1  0  0  0
M  END
> <minimizedAffinity>
-6.49714

$$$$
4KYK_IMN_B_300


 26 28  0  0  0  0  0  0  0  0999 V2000
   20.5280   12.7683   63.1387 C   0  0  0  0  0  0  0  0  0  0  0  0
   20.9336   11.9507   64.2031 C   0  0  0  0  0  0  0  0  0  0  0  0
   20.1450   10.8595   64.5562 C   0  0  0  0  0  0  0  0  0  0  0  0
   18.9755   10.6075   63.8506 C   0  0  0  0  0  0  0  0  0  0  0  0
   18.5769   11.4287   62.8049 C   0  0  0  0  0  0  0  0  0  0  0  0
   19.3521   12.5154   62.4437 C   0  0  0  0  0  0  0  0  0  0  0  0
   22.1758   12.4786   64.6964 C   0  0  0  0  0  0  0  0  0  0  0  0
   22.5103   13.5542   63.9471 C   0  0  0  0  0  0  0  0  0  0  0  0
   21.4675   14.8554   62.0420 C   0  0  0  0  0  0  0  0  0  0  0  0
   23.7299   14.4040   64.0498 C   0  0  0  0  0  0  0  0  0  0  0  0
   21.5162   13.7749   62.9819 N   0  0  0  0  0  0  0  0  0  0  0  0
   21.7321   15.9879   62.3969 O   0  0  0  0  0  0  0  0  0  0  0  0
   21.0717   14.5847   60.6236 C   0  0  0  0  0  0  0  0  0  0  0  0
   21.4723   13.3894   60.0401 C   0  0  0  0  0  0  0  0  0  0  0  0
   21.1417   13.0933   58.7328 C   0  0  0  0  0  0  0  0  0  0  0  0
   20.4171   14.0054   57.9971 C   0  0  0  0  0  0  0  0  0  0  0  0
   19.9890   15.1910   58.5563 C   0  0  0  0  0  0  0  0  0  0  0  0
   20.3155   15.4766   59.8683 C   0  0  0  0  0  0  0  0  0  0  0  0
   20.0982   13.6839   56.3147 Cl  0  0  0  0  0  0  0  0  0  0  0  0
   17.7270    9.4774   65.5417 C   0  0  0  0  0  0  0  0  0  0  0  0
   18.2213    9.5209   64.2078 O   0  0  0  0  0  0  0  0  0  0  0  0
   22.9372   11.9365   65.8770 C   0  0  0  0  0  0  0  0  0  0  0  0
   23.7071   10.7001   65.4979 C   0  0  0  0  0  0  0  0  0  0  0  0
   23.3341    9.5775   65.7320 O   0  0  0  0  0  0  0  0  0  0  0  0
   24.8075   10.9581   64.8804 O   0  0  0  0  0  0  0  0  0  0  0  0
   25.0575   11.8468   64.7201 H   0  0  0  0  0  0  0  0  0  0  0  0
  1  2  2  0  0  0
  1  6  1  0  0  0
  1 11  1  0  0  0
  2  3  1  0  0  0
  2  7  1  0  0  0
  3  4  2  0  0  0
  4  5  1  0  0  0
  4 21  1  0  0  0
  5  6  2  0  0  0
 20 21  1  0  0  0
  7  8  2  0  0  0
  7 22  1  0  0  0
  8 10  1  0  0  0
  8 11  1  0  0  0
  9 13  1  0  0  0
  9 11  1  0  0  0
  9 12  2  0  0  0
 13 14  2  0  0  0
 13 18  1  0  0  0
 14 15  1  0  0  0
 15 16  2  0  0  0
 16 17  1  0  0  0
 16 19  1  0  0  0
 17 18  2  0  0  0
 22 23  1  0  0  0
 23 24  2  0  0  0
 23 25  1  0  0  0
 25 26  1  0  0  0
M  END
> <minimizedAffinity>
-6.49680

$$$$
4KYK_IMN_B_300


 26 28  0  0  0  0  0  0  0  0999 V2000
   20.8483   12.6514   61.1180 C   0  0  0  0  0  0  0  0  0  0  0  0
   21.6348   13.7299   60.6887 C   0  0  0  0  0  0  0  0  0  0  0  0
   21.5989   14.1017   59.3479 C   0  0  0  0  0  0  0  0  0  0  0  0
   20.7897   13.3959   58.4669 C   0  0  0  0  0  0  0  0  0  0  0  0
   20.0224   12.3229   58.8992 C   0  0  0  0  0  0  0  0  0  0  0  0
   20.0486   11.9444   60.2290 C   0  0  0  0  0  0  0  0  0  0  0  0
   22.3294   14.2356   61.8406 C   0  0  0  0  0  0  0  0  0  0  0  0
   21.9596   13.5046   62.9173 C   0  0  0  0  0  0  0  0  0  0  0  0
   20.4862   11.4908   63.3458 C   0  0  0  0  0  0  0  0  0  0  0  0
   22.3789   13.6795   64.3364 C   0  0  0  0  0  0  0  0  0  0  0  0
   21.0558   12.5098   62.5148 N   0  0  0  0  0  0  0  0  0  0  0  0
   21.1808   10.8937   64.1455 O   0  0  0  0  0  0  0  0  0  0  0  0
   19.0337   11.1531   63.2115 C   0  0  0  0  0  0  0  0  0  0  0  0
   18.6540    9.8188   63.2820 C   0  0  0  0  0  0  0  0  0  0  0  0
   17.3291    9.4515   63.1562 C   0  0  0  0  0  0  0  0  0  0  0  0
   16.3767   10.4241   62.9435 C   0  0  0  0  0  0  0  0  0  0  0  0
   16.7221   11.7581   62.8891 C   0  0  0  0  0  0  0  0  0  0  0  0
   18.0489   12.1192   63.0253 C   0  0  0  0  0  0  0  0  0  0  0  0
   14.7219    9.9527   62.6703 Cl  0  0  0  0  0  0  0  0  0  0  0  0
   20.2471   12.8587   56.2057 C   0  0  0  0  0  0  0  0  0  0  0  0
   20.7609   13.7871   57.1541 O   0  0  0  0  0  0  0  0  0  0  0  0
   23.3285   15.3620   61.8219 C   0  0  0  0  0  0  0  0  0  0  0  0
   22.6336   16.6969   61.8395 C   0  0  0  0  0  0  0  0  0  0  0  0
   21.8444   17.0331   62.6869 O   0  0  0  0  0  0  0  0  0  0  0  0
   22.9768   17.4594   60.8599 O   0  0  0  0  0  0  0  0  0  0  0  0
   23.5944   17.1559   60.2240 H   0  0  0  0  0  0  0  0  0  0  0  0
  1  2  2  0  0  0
  1  6  1  0  0  0
  1 11  1  0  0  0
  2  3  1  0  0  0
  2  7  1  0  0  0
  3  4  2  0  0  0
  4  5  1  0  0  0
  4 21  1  0  0  0
  5  6  2  0  0  0
 20 21  1  0  0  0
  7  8  2  0  0  0
  7 22  1  0  0  0
  8 10  1  0  0  0
  8 11  1  0  0  0
  9 13  1  0  0  0
  9 11  1  0  0  0
  9 12  2  0  0  0
 13 14  2  0  0  0
 13 18  1  0  0  0
 14 15  1  0  0  0
 15 16  2  0  0  0
 16 17  1  0  0  0
 16 19  1  0  0  0
 17 18  2  0  0  0
 22 23  1  0  0  0
 23 24  2  0  0  0
 23 25  1  0  0  0
 25 26  1  0  0  0
M  END
> <minimizedAffinity>
-6.41503

$$$$
4KYK_IMN_B_300


 26 28  0  0  0  0  0  0  0  0999 V2000
   21.3747   12.2216   62.7328 C   0  0  0  0  0  0  0  0  0  0  0  0
   21.0278   11.1573   63.5772 C   0  0  0  0  0  0  0  0  0  0  0  0
   21.8973   10.7961   64.6022 C   0  0  0  0  0  0  0  0  0  0  0  0
   23.0875   11.4937   64.7632 C   0  0  0  0  0  0  0  0  0  0  0  0
   23.4272   12.5394   63.9159 C   0  0  0  0  0  0  0  0  0  0  0  0
   22.5713   12.9086   62.8944 C   0  0  0  0  0  0  0  0  0  0  0  0
   19.7449   10.6733   63.1472 C   0  0  0  0  0  0  0  0  0  0  0  0
   19.3317   11.4280   62.1030 C   0  0  0  0  0  0  0  0  0  0  0  0
   20.2814   13.3303   60.7287 C   0  0  0  0  0  0  0  0  0  0  0  0
   18.0485   11.3353   61.3514 C   0  0  0  0  0  0  0  0  0  0  0  0
   20.3117   12.3876   61.8074 N   0  0  0  0  0  0  0  0  0  0  0  0
   19.9264   12.9805   59.6195 O   0  0  0  0  0  0  0  0  0  0  0  0
   20.7063   14.7454   60.9710 C   0  0  0  0  0  0  0  0  0  0  0  0
   20.0477   15.4768   61.9513 C   0  0  0  0  0  0  0  0  0  0  0  0
   20.3940   16.7881   62.2097 C   0  0  0  0  0  0  0  0  0  0  0  0
   21.3970   17.3788   61.4726 C   0  0  0  0  0  0  0  0  0  0  0  0
   22.0814   16.6710   60.5070 C   0  0  0  0  0  0  0  0  0  0  0  0
   21.7358   15.3560   60.2602 C   0  0  0  0  0  0  0  0  0  0  0  0
   21.7565   19.0656   61.7186 Cl  0  0  0  0  0  0  0  0  0  0  0  0
   24.6546    9.9178   65.6331 C   0  0  0  0  0  0  0  0  0  0  0  0
   23.9224   11.1286   65.7864 O   0  0  0  0  0  0  0  0  0  0  0  0
   19.0208    9.4959   63.7445 C   0  0  0  0  0  0  0  0  0  0  0  0
   18.2758    9.8983   64.9888 C   0  0  0  0  0  0  0  0  0  0  0  0
   17.2452   10.5243   64.9828 O   0  0  0  0  0  0  0  0  0  0  0  0
   18.8432    9.4935   66.0719 O   0  0  0  0  0  0  0  0  0  0  0  0
   19.6443    9.0095   66.0285 H   0  0  0  0  0  0  0  0  0  0  0  0
  1  2  2  0  0  0
  1  6  1  0  0  0
  1 11  1  0  0  0
  2  3  1  0  0  0
  2  7  1  0  0  0
  3  4  2  0  0  0
  4  5  1  0  0  0
  4 21  1  0  0  0
  5  6  2  0  0  0
 20 21  1  0  0  0
  7  8  2  0  0  0
  7 22  1  0  0  0
  8 10  1  0  0  0
  8 11  1  0  0  0
  9 13  1  0  0  0
  9 11  1  0  0  0
  9 12  2  0  0  0
 13 14  2  0  0  0
 13 18  1  0  0  0
 14 15  1  0  0  0
 15 16  2  0  0  0
 16 17  1  0  0  0
 16 19  1  0  0  0
 17 18  2  0  0  0
 22 23  1  0  0  0
 23 24  2  0  0  0
 23 25  1  0  0  0
 25 26  1  0  0  0
M  END
> <minimizedAffinity>
-6.41318

$$$$
4KYK_IMN_B_300


 26 28  0  0  0  0  0  0  0  0999 V2000
   21.0182   13.4027   63.2126 C   0  0  0  0  0  0  0  0  0  0  0  0
   22.1769   14.0579   63.6531 C   0  0  0  0  0  0  0  0  0  0  0  0
   22.2084   15.4494   63.6530 C   0  0  0  0  0  0  0  0  0  0  0  0
   21.0959   16.1559   63.2146 C   0  0  0  0  0  0  0  0  0  0  0  0
   19.9569   15.4982   62.7705 C   0  0  0  0  0  0  0  0  0  0  0  0
   19.9128   14.1161   62.7667 C   0  0  0  0  0  0  0  0  0  0  0  0
   23.1177   13.0439   64.0426 C   0  0  0  0  0  0  0  0  0  0  0  0
   22.5403   11.8337   63.8622 C   0  0  0  0  0  0  0  0  0  0  0  0
   20.3422   10.9706   62.9495 C   0  0  0  0  0  0  0  0  0  0  0  0
   23.1066   10.4895   64.1661 C   0  0  0  0  0  0  0  0  0  0  0  0
   21.2492   12.0084   63.3414 N   0  0  0  0  0  0  0  0  0  0  0  0
   20.7437   10.0134   62.3161 O   0  0  0  0  0  0  0  0  0  0  0  0
   18.8930   11.0801   63.3094 C   0  0  0  0  0  0  0  0  0  0  0  0
   18.0040   11.5422   62.3473 C   0  0  0  0  0  0  0  0  0  0  0  0
   16.6584   11.6702   62.6290 C   0  0  0  0  0  0  0  0  0  0  0  0
   16.1990   11.3478   63.8872 C   0  0  0  0  0  0  0  0  0  0  0  0
   17.0552   10.8677   64.8558 C   0  0  0  0  0  0  0  0  0  0  0  0
   18.3992   10.7332   64.5639 C   0  0  0  0  0  0  0  0  0  0  0  0
   14.5229   11.6174   64.2786 Cl  0  0  0  0  0  0  0  0  0  0  0  0
   21.9674   18.1359   64.2224 C   0  0  0  0  0  0  0  0  0  0  0  0
   21.1450   17.5250   63.2346 O   0  0  0  0  0  0  0  0  0  0  0  0
   24.5196   13.3053   64.5259 C   0  0  0  0  0  0  0  0  0  0  0  0
   24.5320   13.6068   66.0004 C   0  0  0  0  0  0  0  0  0  0  0  0
   24.5959   12.7625   66.8590 O   0  0  0  0  0  0  0  0  0  0  0  0
   24.4816   14.8674   66.2600 O   0  0  0  0  0  0  0  0  0  0  0  0
   24.4326   15.4883   65.5600 H   0  0  0  0  0  0  0  0  0  0  0  0
  1  2  2  0  0  0
  1  6  1  0  0  0
  1 11  1  0  0  0
  2  3  1  0  0  0
  2  7  1  0  0  0
  3  4  2  0  0  0
  4  5  1  0  0  0
  4 21  1  0  0  0
  5  6  2  0  0  0
 20 21  1  0  0  0
  7  8  2  0  0  0
  7 22  1  0  0  0
  8 10  1  0  0  0
  8 11  1  0  0  0
  9 13  1  0  0  0
  9 11  1  0  0  0
  9 12  2  0  0  0
 13 14  2  0  0  0
 13 18  1  0  0  0
 14 15  1  0  0  0
 15 16  2  0  0  0
 16 17  1  0  0  0
 16 19  1  0  0  0
 17 18  2  0  0  0
 22 23  1  0  0  0
 23 24  2  0  0  0
 23 25  1  0  0  0
 25 26  1  0  0  0
M  END
> <minimizedAffinity>
-6.34226

$$$$
4KYK_IMN_B_300


 26 28  0  0  0  0  0  0  0  0999 V2000
   20.3636   14.3367   62.0250 C   0  0  0  0  0  0  0  0  0  0  0  0
   21.2573   15.2775   61.4937 C   0  0  0  0  0  0  0  0  0  0  0  0
   21.5417   16.4276   62.2242 C   0  0  0  0  0  0  0  0  0  0  0  0
   20.9331   16.6189   63.4580 C   0  0  0  0  0  0  0  0  0  0  0  0
   20.0417   15.6866   63.9710 C   0  0  0  0  0  0  0  0  0  0  0  0
   19.7516   14.5394   63.2554 C   0  0  0  0  0  0  0  0  0  0  0  0
   21.7070   14.7698   60.2269 C   0  0  0  0  0  0  0  0  0  0  0  0
   21.1236   13.5672   60.0173 C   0  0  0  0  0  0  0  0  0  0  0  0
   19.4316   12.1177   61.2196 C   0  0  0  0  0  0  0  0  0  0  0  0
   21.3141   12.6401   58.8665 C   0  0  0  0  0  0  0  0  0  0  0  0
   20.2787   13.2668   61.0964 N   0  0  0  0  0  0  0  0  0  0  0  0
   18.7751   11.7363   60.2698 O   0  0  0  0  0  0  0  0  0  0  0  0
   19.3459   11.3991   62.5304 C   0  0  0  0  0  0  0  0  0  0  0  0
   20.5154   10.9026   63.0920 C   0  0  0  0  0  0  0  0  0  0  0  0
   20.4918   10.2250   64.2946 C   0  0  0  0  0  0  0  0  0  0  0  0
   19.2878   10.0288   64.9349 C   0  0  0  0  0  0  0  0  0  0  0  0
   18.1138   10.5278   64.4109 C   0  0  0  0  0  0  0  0  0  0  0  0
   18.1461   11.2132   63.2115 C   0  0  0  0  0  0  0  0  0  0  0  0
   19.2419    9.0758   66.3927 Cl  0  0  0  0  0  0  0  0  0  0  0  0
   22.5264   17.8243   64.7633 C   0  0  0  0  0  0  0  0  0  0  0  0
   21.2372   17.7525   64.1648 O   0  0  0  0  0  0  0  0  0  0  0  0
   22.6371   15.4910   59.2876 C   0  0  0  0  0  0  0  0  0  0  0  0
   21.8885   16.5025   58.4619 C   0  0  0  0  0  0  0  0  0  0  0  0
   21.2544   16.2274   57.4739 O   0  0  0  0  0  0  0  0  0  0  0  0
   21.9795   17.7010   58.9246 O   0  0  0  0  0  0  0  0  0  0  0  0
   22.4839   17.8683   59.6964 H   0  0  0  0  0  0  0  0  0  0  0  0
  1  2  2  0  0  0
  1  6  1  0  0  0
  1 11  1  0  0  0
  2  3  1  0  0  0
  2  7  1  0  0  0
  3  4  2  0  0  0
  4  5  1  0  0  0
  4 21  1  0  0  0
  5  6  2  0  0  0
 20 21  1  0  0  0
  7  8  2  0  0  0
  7 22  1  0  0  0
  8 10  1  0  0  0
  8 11  1  0  0  0
  9 13  1  0  0  0
  9 11  1  0  0  0
  9 12  2  0  0  0
 13 14  2  0  0  0
 13 18  1  0  0  0
 14 15  1  0  0  0
 15 16  2  0  0  0
 16 17  1  0  0  0
 16 19  1  0  0  0
 17 18  2  0  0  0
 22 23  1  0  0  0
 23 24  2  0  0  0
 23 25  1  0  0  0
 25 26  1  0  0  0
M  END
> <minimizedAffinity>
-6.11633

$$$$
