5NKD_91K_A_1001


 37 40  0  0  0  0  0  0  0  0999 V2000
  -86.5803  -15.4137    5.2871 N   0  0  0  0  0  0  0  0  0  0  0  0
  -86.7524  -14.8735    4.4822 H   0  0  0  0  0  0  0  0  0  0  0  0
  -82.9426  -15.5881    4.8503 C   0  0  0  0  0  0  0  0  0  0  0  0
  -84.3282  -15.4317    4.6368 C   0  0  0  0  0  0  0  0  0  0  0  0
  -82.4958  -15.8882    6.1300 C   0  0  0  0  0  0  0  0  0  0  0  0
  -83.4332  -16.0503    7.1405 C   0  0  0  0  0  0  0  0  0  0  0  0
  -84.8082  -15.8906    6.9236 C   0  0  0  0  0  0  0  0  0  0  0  0
  -85.2817  -15.5980    5.6429 C   0  0  0  0  0  0  0  0  0  0  0  0
  -79.3123  -13.0780    3.0642 C   0  0  0  0  0  0  0  0  0  0  0  0
  -80.3778  -14.0487    2.5402 C   0  0  0  0  0  0  0  0  0  0  0  0
  -79.7192  -12.7974    4.5066 C   0  0  0  0  0  0  0  0  0  0  0  0
  -81.2126  -12.9897    4.4963 C   0  0  0  0  0  0  0  0  0  0  0  0
  -81.3160  -14.2126    3.6887 N   0  0  0  0  0  0  0  0  0  0  0  0
  -82.0288  -15.3441    3.8033 C   0  0  0  0  0  0  0  0  0  0  0  0
  -81.9169  -16.2057    2.9197 O   0  0  0  0  0  0  0  0  0  0  0  0
  -79.3077  -11.7844    2.2509 C   0  0  0  0  0  0  0  0  0  0  0  0
  -79.0413   -9.6732    3.3628 O   0  0  0  0  0  0  0  0  0  0  0  0
  -78.4618  -10.7204    2.9789 C   0  0  0  0  0  0  0  0  0  0  0  0
  -77.2454  -10.9830    3.1338 O   0  0  0  0  0  0  0  0  0  0  0  0
  -76.8964  -11.7917    2.8142 H   0  0  0  0  0  0  0  0  0  0  0  0
  -87.6589  -15.9070    5.9416 C   0  0  0  0  0  0  0  0  0  0  0  0
  -87.7540  -16.6639    7.4470 S   0  0  0  0  0  0  0  0  0  0  0  0
  -88.8911  -15.8610    5.3941 N   0  0  0  0  0  0  0  0  0  0  0  0
  -89.8738  -16.4161    6.1548 C   0  0  0  0  0  0  0  0  0  0  0  0
  -89.4524  -16.9069    7.3430 C   0  0  0  0  0  0  0  0  0  0  0  0
  -90.1530  -17.5484    8.3266 C   0  0  0  0  0  0  0  0  0  0  0  0
  -89.5873  -17.8024    9.3854 O   0  0  0  0  0  0  0  0  0  0  0  0
  -91.4414  -17.9348    8.1204 N   0  0  0  0  0  0  0  0  0  0  0  0
  -91.8770  -17.7438    7.2584 H   0  0  0  0  0  0  0  0  0  0  0  0
  -92.1424  -18.5933    9.1121 C   0  0  0  0  0  0  0  0  0  0  0  0
  -92.8416  -17.8669   10.0687 C   0  0  0  0  0  0  0  0  0  0  0  0
  -92.7971  -16.1273   10.0282 Cl  0  0  0  0  0  0  0  0  0  0  0  0
  -93.5800  -18.5179   11.0614 C   0  0  0  0  0  0  0  0  0  0  0  0
  -93.6119  -19.9134   11.0774 C   0  0  0  0  0  0  0  0  0  0  0  0
  -92.9268  -20.6462   10.1084 C   0  0  0  0  0  0  0  0  0  0  0  0
  -92.1895  -19.9902    9.1294 C   0  0  0  0  0  0  0  0  0  0  0  0
  -91.5134  -20.7505    8.1683 C   0  0  0  0  0  0  0  0  0  0  0  0
 17 18  2  0  0  0
 18 19  1  0  0  0
 18 16  1  0  0  0
  9 16  1  0  0  0
  9 11  1  0  0  0
  9 10  1  0  0  0
 11 12  1  0  0  0
 10 13  1  0  0  0
 13 12  1  0  0  0
 13 14  1  0  0  0
 15 14  2  0  0  0
 14  3  1  0  0  0
  4  3  2  0  0  0
  4  8  1  0  0  0
  3  5  1  0  0  0
  1  8  1  0  0  0
  1 21  1  0  0  0
 23 21  2  0  0  0
 23 24  1  0  0  0
  8  7  2  0  0  0
 21 22  1  0  0  0
 24 25  2  0  0  0
  5  6  2  0  0  0
  7  6  1  0  0  0
 25 22  1  0  0  0
 25 26  1  0  0  0
 37 36  1  0  0  0
 28 26  1  0  0  0
 28 30  1  0  0  0
 26 27  2  0  0  0
 36 30  2  0  0  0
 36 35  1  0  0  0
 30 31  1  0  0  0
 35 34  2  0  0  0
 31 32  1  0  0  0
 31 33  2  0  0  0
 34 33  1  0  0  0
 19 20  1  0  0  0
  1  2  1  0  0  0
 28 29  1  0  0  0
M  END
> <minimizedAffinity>
-10.65706

$$$$
5NKD_91K_A_1001


 37 40  0  0  0  0  0  0  0  0999 V2000
  -86.4021  -15.5086    5.2510 N   0  0  0  0  0  0  0  0  0  0  0  0
  -86.5497  -15.0985    4.3683 H   0  0  0  0  0  0  0  0  0  0  0  0
  -83.6144  -15.1226    7.6035 C   0  0  0  0  0  0  0  0  0  0  0  0
  -84.8888  -15.1202    6.9987 C   0  0  0  0  0  0  0  0  0  0  0  0
  -82.5386  -15.6298    6.8874 C   0  0  0  0  0  0  0  0  0  0  0  0
  -82.7563  -16.0871    5.5952 C   0  0  0  0  0  0  0  0  0  0  0  0
  -84.0249  -16.0853    5.0006 C   0  0  0  0  0  0  0  0  0  0  0  0
  -85.1202  -15.5714    5.6979 C   0  0  0  0  0  0  0  0  0  0  0  0
  -83.9043  -16.0830   12.2579 C   0  0  0  0  0  0  0  0  0  0  0  0
  -83.7873  -14.8391   11.3683 C   0  0  0  0  0  0  0  0  0  0  0  0
  -84.1419  -17.2337   11.2862 C   0  0  0  0  0  0  0  0  0  0  0  0
  -84.8208  -16.5732   10.1155 C   0  0  0  0  0  0  0  0  0  0  0  0
  -84.0036  -15.3591    9.9867 N   0  0  0  0  0  0  0  0  0  0  0  0
  -83.4616  -14.7104    8.9442 C   0  0  0  0  0  0  0  0  0  0  0  0
  -82.8304  -13.6661    9.1606 O   0  0  0  0  0  0  0  0  0  0  0  0
  -85.0799  -15.9514   13.2251 C   0  0  0  0  0  0  0  0  0  0  0  0
  -83.7535  -15.0583   15.0159 O   0  0  0  0  0  0  0  0  0  0  0  0
  -84.7590  -14.8773   14.2839 C   0  0  0  0  0  0  0  0  0  0  0  0
  -85.5350  -13.8937   14.3355 O   0  0  0  0  0  0  0  0  0  0  0  0
  -86.2634  -13.8402   13.7485 H   0  0  0  0  0  0  0  0  0  0  0  0
  -87.4947  -15.9602    5.9122 C   0  0  0  0  0  0  0  0  0  0  0  0
  -87.6073  -16.7344    7.4075 S   0  0  0  0  0  0  0  0  0  0  0  0
  -88.7301  -15.8477    5.3815 N   0  0  0  0  0  0  0  0  0  0  0  0
  -89.7285  -16.3670    6.1467 C   0  0  0  0  0  0  0  0  0  0  0  0
  -89.3164  -16.8952    7.3220 C   0  0  0  0  0  0  0  0  0  0  0  0
  -90.0346  -17.5175    8.3053 C   0  0  0  0  0  0  0  0  0  0  0  0
  -89.4833  -17.7648    9.3732 O   0  0  0  0  0  0  0  0  0  0  0  0
  -91.3246  -17.8930    8.0893 N   0  0  0  0  0  0  0  0  0  0  0  0
  -91.7486  -17.7077    7.2203 H   0  0  0  0  0  0  0  0  0  0  0  0
  -92.0435  -18.5322    9.0807 C   0  0  0  0  0  0  0  0  0  0  0  0
  -92.7500  -17.7874   10.0175 C   0  0  0  0  0  0  0  0  0  0  0  0
  -92.6924  -16.0489    9.9530 Cl  0  0  0  0  0  0  0  0  0  0  0  0
  -93.5062  -18.4189   11.0094 C   0  0  0  0  0  0  0  0  0  0  0  0
  -93.5484  -19.8138   11.0447 C   0  0  0  0  0  0  0  0  0  0  0  0
  -92.8559  -20.5652   10.0955 C   0  0  0  0  0  0  0  0  0  0  0  0
  -92.1009  -19.9284    9.1172 C   0  0  0  0  0  0  0  0  0  0  0  0
  -91.4176  -20.7071    8.1760 C   0  0  0  0  0  0  0  0  0  0  0  0
 17 18  2  0  0  0
 18 19  1  0  0  0
 18 16  1  0  0  0
  9 16  1  0  0  0
  9 11  1  0  0  0
  9 10  1  0  0  0
 11 12  1  0  0  0
 10 13  1  0  0  0
 13 12  1  0  0  0
 13 14  1  0  0  0
 15 14  2  0  0  0
 14  3  1  0  0  0
  4  3  2  0  0  0
  4  8  1  0  0  0
  3  5  1  0  0  0
  1  8  1  0  0  0
  1 21  1  0  0  0
 23 21  2  0  0  0
 23 24  1  0  0  0
  8  7  2  0  0  0
 21 22  1  0  0  0
 24 25  2  0  0  0
  5  6  2  0  0  0
  7  6  1  0  0  0
 25 22  1  0  0  0
 25 26  1  0  0  0
 37 36  1  0  0  0
 28 26  1  0  0  0
 28 30  1  0  0  0
 26 27  2  0  0  0
 36 30  2  0  0  0
 36 35  1  0  0  0
 30 31  1  0  0  0
 35 34  2  0  0  0
 31 32  1  0  0  0
 31 33  2  0  0  0
 34 33  1  0  0  0
 19 20  1  0  0  0
  1  2  1  0  0  0
 28 29  1  0  0  0
M  END
> <minimizedAffinity>
-10.43113

$$$$
5NKD_91K_A_1001


 37 40  0  0  0  0  0  0  0  0999 V2000
  -86.3331  -15.7470    5.1375 N   0  0  0  0  0  0  0  0  0  0  0  0
  -86.4560  -15.5099    4.1898 H   0  0  0  0  0  0  0  0  0  0  0  0
  -83.6808  -15.0514    7.5737 C   0  0  0  0  0  0  0  0  0  0  0  0
  -84.9266  -15.1765    6.9239 C   0  0  0  0  0  0  0  0  0  0  0  0
  -82.5393  -15.4870    6.9145 C   0  0  0  0  0  0  0  0  0  0  0  0
  -82.6677  -16.0013    5.6319 C   0  0  0  0  0  0  0  0  0  0  0  0
  -83.9080  -16.1263    4.9924 C   0  0  0  0  0  0  0  0  0  0  0  0
  -85.0688  -15.6862    5.6320 C   0  0  0  0  0  0  0  0  0  0  0  0
  -84.4824  -15.7448   12.2155 C   0  0  0  0  0  0  0  0  0  0  0  0
  -84.1723  -14.5625   11.2891 C   0  0  0  0  0  0  0  0  0  0  0  0
  -84.7327  -16.9188   11.2755 C   0  0  0  0  0  0  0  0  0  0  0  0
  -85.2387  -16.2630   10.0180 C   0  0  0  0  0  0  0  0  0  0  0  0
  -84.3070  -15.1318    9.9165 N   0  0  0  0  0  0  0  0  0  0  0  0
  -83.6151  -14.5860    8.9041 C   0  0  0  0  0  0  0  0  0  0  0  0
  -82.9147  -13.5901    9.1353 O   0  0  0  0  0  0  0  0  0  0  0  0
  -85.7251  -15.4636   13.0590 C   0  0  0  0  0  0  0  0  0  0  0  0
  -84.1600  -14.4684   14.5835 O   0  0  0  0  0  0  0  0  0  0  0  0
  -85.3602  -14.5073   14.2123 C   0  0  0  0  0  0  0  0  0  0  0  0
  -86.2994  -13.8337   14.6986 O   0  0  0  0  0  0  0  0  0  0  0  0
  -87.1676  -13.9266   14.3586 H   0  0  0  0  0  0  0  0  0  0  0  0
  -87.4394  -16.1048    5.8325 C   0  0  0  0  0  0  0  0  0  0  0  0
  -87.5730  -16.9495    7.2874 S   0  0  0  0  0  0  0  0  0  0  0  0
  -88.6760  -15.8143    5.3778 N   0  0  0  0  0  0  0  0  0  0  0  0
  -89.6922  -16.2568    6.1677 C   0  0  0  0  0  0  0  0  0  0  0  0
  -89.2911  -16.9005    7.2879 C   0  0  0  0  0  0  0  0  0  0  0  0
  -90.0314  -17.4917    8.2741 C   0  0  0  0  0  0  0  0  0  0  0  0
  -89.4753  -17.8087    9.3209 O   0  0  0  0  0  0  0  0  0  0  0  0
  -91.3515  -17.7611    8.0827 N   0  0  0  0  0  0  0  0  0  0  0  0
  -91.7807  -17.5210    7.2298 H   0  0  0  0  0  0  0  0  0  0  0  0
  -92.0935  -18.3693    9.0766 C   0  0  0  0  0  0  0  0  0  0  0  0
  -92.1325  -19.7557    9.1657 C   0  0  0  0  0  0  0  0  0  0  0  0
  -91.2711  -20.7160    7.9970 Cl  0  0  0  0  0  0  0  0  0  0  0  0
  -92.8547  -20.3863   10.1831 C   0  0  0  0  0  0  0  0  0  0  0  0
  -93.5351  -19.6032   11.1171 C   0  0  0  0  0  0  0  0  0  0  0  0
  -93.4837  -18.2114   11.0426 C   0  0  0  0  0  0  0  0  0  0  0  0
  -92.7687  -17.5933   10.0231 C   0  0  0  0  0  0  0  0  0  0  0  0
  -92.7325  -16.1950    9.9736 C   0  0  0  0  0  0  0  0  0  0  0  0
 17 18  2  0  0  0
 18 19  1  0  0  0
 18 16  1  0  0  0
  9 16  1  0  0  0
  9 11  1  0  0  0
  9 10  1  0  0  0
 11 12  1  0  0  0
 10 13  1  0  0  0
 13 12  1  0  0  0
 13 14  1  0  0  0
 15 14  2  0  0  0
 14  3  1  0  0  0
  4  3  2  0  0  0
  4  8  1  0  0  0
  3  5  1  0  0  0
  1  8  1  0  0  0
  1 21  1  0  0  0
 23 21  2  0  0  0
 23 24  1  0  0  0
  8  7  2  0  0  0
 21 22  1  0  0  0
 24 25  2  0  0  0
  5  6  2  0  0  0
  7  6  1  0  0  0
 25 22  1  0  0  0
 25 26  1  0  0  0
 37 36  1  0  0  0
 28 26  1  0  0  0
 28 30  1  0  0  0
 26 27  2  0  0  0
 36 30  2  0  0  0
 36 35  1  0  0  0
 30 31  1  0  0  0
 35 34  2  0  0  0
 31 32  1  0  0  0
 31 33  2  0  0  0
 34 33  1  0  0  0
 19 20  1  0  0  0
  1  2  1  0  0  0
 28 29  1  0  0  0
M  END
> <minimizedAffinity>
-10.20203

$$$$
5NKD_91K_A_1001


 37 40  0  0  0  0  0  0  0  0999 V2000
  -86.5494  -15.4854    5.2011 N   0  0  0  0  0  0  0  0  0  0  0  0
  -86.7198  -14.9987    4.3625 H   0  0  0  0  0  0  0  0  0  0  0  0
  -83.6853  -15.6656    7.4855 C   0  0  0  0  0  0  0  0  0  0  0  0
  -84.9800  -15.5318    6.9419 C   0  0  0  0  0  0  0  0  0  0  0  0
  -82.6298  -15.9498    6.6295 C   0  0  0  0  0  0  0  0  0  0  0  0
  -82.8879  -16.0623    5.2705 C   0  0  0  0  0  0  0  0  0  0  0  0
  -84.1765  -15.9318    4.7363 C   0  0  0  0  0  0  0  0  0  0  0  0
  -85.2521  -15.6365    5.5765 C   0  0  0  0  0  0  0  0  0  0  0  0
  -81.6053  -13.6583   11.2689 C   0  0  0  0  0  0  0  0  0  0  0  0
  -82.3522  -14.9596   10.9509 C   0  0  0  0  0  0  0  0  0  0  0  0
  -81.3967  -12.9900    9.9145 C   0  0  0  0  0  0  0  0  0  0  0  0
  -81.3585  -14.1470    8.9516 C   0  0  0  0  0  0  0  0  0  0  0  0
  -82.4741  -14.9541    9.4639 N   0  0  0  0  0  0  0  0  0  0  0  0
  -83.4900  -15.6103    8.8818 C   0  0  0  0  0  0  0  0  0  0  0  0
  -84.2758  -16.2424    9.6019 O   0  0  0  0  0  0  0  0  0  0  0  0
  -80.2598  -13.9512   11.9312 C   0  0  0  0  0  0  0  0  0  0  0  0
  -78.7205  -12.5799   13.1618 O   0  0  0  0  0  0  0  0  0  0  0  0
  -79.9316  -12.8383   12.9468 C   0  0  0  0  0  0  0  0  0  0  0  0
  -80.9091  -12.2693   13.4881 O   0  0  0  0  0  0  0  0  0  0  0  0
  -81.7825  -12.5271   13.2673 H   0  0  0  0  0  0  0  0  0  0  0  0
  -87.6289  -15.9449    5.8783 C   0  0  0  0  0  0  0  0  0  0  0  0
  -87.7106  -16.7529    7.3576 S   0  0  0  0  0  0  0  0  0  0  0  0
  -88.8759  -15.8120    5.3807 N   0  0  0  0  0  0  0  0  0  0  0  0
  -89.8592  -16.3423    6.1579 C   0  0  0  0  0  0  0  0  0  0  0  0
  -89.4224  -16.9003    7.3103 C   0  0  0  0  0  0  0  0  0  0  0  0
  -90.1209  -17.5406    8.2963 C   0  0  0  0  0  0  0  0  0  0  0  0
  -89.5560  -17.7843    9.3578 O   0  0  0  0  0  0  0  0  0  0  0  0
  -91.4062  -17.9371    8.0894 N   0  0  0  0  0  0  0  0  0  0  0  0
  -91.8410  -17.7543    7.2253 H   0  0  0  0  0  0  0  0  0  0  0  0
  -92.1050  -18.5943    9.0835 C   0  0  0  0  0  0  0  0  0  0  0  0
  -92.8109  -17.8669   10.0344 C   0  0  0  0  0  0  0  0  0  0  0  0
  -92.7776  -16.1273    9.9839 Cl  0  0  0  0  0  0  0  0  0  0  0  0
  -93.5472  -18.5169   11.0294 C   0  0  0  0  0  0  0  0  0  0  0  0
  -93.5700  -19.9125   11.0534 C   0  0  0  0  0  0  0  0  0  0  0  0
  -92.8782  -20.6465   10.0901 C   0  0  0  0  0  0  0  0  0  0  0  0
  -92.1431  -19.9913    9.1088 C   0  0  0  0  0  0  0  0  0  0  0  0
  -91.4600  -20.7528    8.1535 C   0  0  0  0  0  0  0  0  0  0  0  0
 17 18  2  0  0  0
 18 19  1  0  0  0
 18 16  1  0  0  0
  9 16  1  0  0  0
  9 11  1  0  0  0
  9 10  1  0  0  0
 11 12  1  0  0  0
 10 13  1  0  0  0
 13 12  1  0  0  0
 13 14  1  0  0  0
 15 14  2  0  0  0
 14  3  1  0  0  0
  4  3  2  0  0  0
  4  8  1  0  0  0
  3  5  1  0  0  0
  1  8  1  0  0  0
  1 21  1  0  0  0
 23 21  2  0  0  0
 23 24  1  0  0  0
  8  7  2  0  0  0
 21 22  1  0  0  0
 24 25  2  0  0  0
  5  6  2  0  0  0
  7  6  1  0  0  0
 25 22  1  0  0  0
 25 26  1  0  0  0
 37 36  1  0  0  0
 28 26  1  0  0  0
 28 30  1  0  0  0
 26 27  2  0  0  0
 36 30  2  0  0  0
 36 35  1  0  0  0
 30 31  1  0  0  0
 35 34  2  0  0  0
 31 32  1  0  0  0
 31 33  2  0  0  0
 34 33  1  0  0  0
 19 20  1  0  0  0
  1  2  1  0  0  0
 28 29  1  0  0  0
M  END
> <minimizedAffinity>
-10.12715

$$$$
5NKD_91K_A_1001


 37 40  0  0  0  0  0  0  0  0999 V2000
  -85.9017  -15.8813    6.0161 N   0  0  0  0  0  0  0  0  0  0  0  0
  -85.6849  -15.8012    5.0592 H   0  0  0  0  0  0  0  0  0  0  0  0
  -84.1920  -15.9306    9.2608 C   0  0  0  0  0  0  0  0  0  0  0  0
  -85.1488  -16.0415    8.2304 C   0  0  0  0  0  0  0  0  0  0  0  0
  -82.9070  -15.5181    8.9348 C   0  0  0  0  0  0  0  0  0  0  0  0
  -82.6249  -15.2044    7.6126 C   0  0  0  0  0  0  0  0  0  0  0  0
  -83.5783  -15.3195    6.5924 C   0  0  0  0  0  0  0  0  0  0  0  0
  -84.8798  -15.7232    6.8979 C   0  0  0  0  0  0  0  0  0  0  0  0
  -87.3217  -16.1473   12.8425 C   0  0  0  0  0  0  0  0  0  0  0  0
  -85.8102  -16.3264   12.6533 C   0  0  0  0  0  0  0  0  0  0  0  0
  -87.8182  -15.6061   11.5063 C   0  0  0  0  0  0  0  0  0  0  0  0
  -86.6213  -14.8791   10.9527 C   0  0  0  0  0  0  0  0  0  0  0  0
  -85.5585  -15.8445   11.2639 N   0  0  0  0  0  0  0  0  0  0  0  0
  -84.5125  -16.3284   10.5761 C   0  0  0  0  0  0  0  0  0  0  0  0
  -83.7568  -17.1340   11.1378 O   0  0  0  0  0  0  0  0  0  0  0  0
  -87.6154  -15.1507   13.9630 C   0  0  0  0  0  0  0  0  0  0  0  0
  -89.9563  -15.6731   14.0681 O   0  0  0  0  0  0  0  0  0  0  0  0
  -89.1061  -14.7583   13.9266 C   0  0  0  0  0  0  0  0  0  0  0  0
  -89.3603  -13.5423   13.7558 O   0  0  0  0  0  0  0  0  0  0  0  0
  -88.6607  -12.9266   13.6590 H   0  0  0  0  0  0  0  0  0  0  0  0
  -87.1923  -16.1393    6.3370 C   0  0  0  0  0  0  0  0  0  0  0  0
  -87.8289  -16.9813    7.6537 S   0  0  0  0  0  0  0  0  0  0  0  0
  -88.2056  -15.7287    5.5464 N   0  0  0  0  0  0  0  0  0  0  0  0
  -89.4463  -16.0805    5.9813 C   0  0  0  0  0  0  0  0  0  0  0  0
  -89.4571  -16.7699    7.1452 C   0  0  0  0  0  0  0  0  0  0  0  0
  -90.5075  -17.2977    7.8439 C   0  0  0  0  0  0  0  0  0  0  0  0
  -91.6441  -16.9204    7.5768 O   0  0  0  0  0  0  0  0  0  0  0  0
  -90.2934  -18.1941    8.8451 N   0  0  0  0  0  0  0  0  0  0  0  0
  -89.3747  -18.4725    9.0637 H   0  0  0  0  0  0  0  0  0  0  0  0
  -91.3560  -18.7163    9.5568 C   0  0  0  0  0  0  0  0  0  0  0  0
  -91.9578  -17.9648   10.5592 C   0  0  0  0  0  0  0  0  0  0  0  0
  -91.3406  -16.3808   10.9332 Cl  0  0  0  0  0  0  0  0  0  0  0  0
  -93.0527  -18.4668   11.2689 C   0  0  0  0  0  0  0  0  0  0  0  0
  -93.5409  -19.7360   10.9535 C   0  0  0  0  0  0  0  0  0  0  0  0
  -92.9518  -20.4861    9.9358 C   0  0  0  0  0  0  0  0  0  0  0  0
  -91.8590  -19.9815    9.2404 C   0  0  0  0  0  0  0  0  0  0  0  0
  -91.2887  -20.7549    8.2227 C   0  0  0  0  0  0  0  0  0  0  0  0
 17 18  2  0  0  0
 18 19  1  0  0  0
 18 16  1  0  0  0
  9 16  1  0  0  0
  9 11  1  0  0  0
  9 10  1  0  0  0
 11 12  1  0  0  0
 10 13  1  0  0  0
 13 12  1  0  0  0
 13 14  1  0  0  0
 15 14  2  0  0  0
 14  3  1  0  0  0
  4  3  2  0  0  0
  4  8  1  0  0  0
  3  5  1  0  0  0
  1  8  1  0  0  0
  1 21  1  0  0  0
 23 21  2  0  0  0
 23 24  1  0  0  0
  8  7  2  0  0  0
 21 22  1  0  0  0
 24 25  2  0  0  0
  5  6  2  0  0  0
  7  6  1  0  0  0
 25 22  1  0  0  0
 25 26  1  0  0  0
 37 36  1  0  0  0
 28 26  1  0  0  0
 28 30  1  0  0  0
 26 27  2  0  0  0
 36 30  2  0  0  0
 36 35  1  0  0  0
 30 31  1  0  0  0
 35 34  2  0  0  0
 31 32  1  0  0  0
 31 33  2  0  0  0
 34 33  1  0  0  0
 19 20  1  0  0  0
  1  2  1  0  0  0
 28 29  1  0  0  0
M  END
> <minimizedAffinity>
-10.09891

$$$$
5NKD_91K_A_1001


 37 40  0  0  0  0  0  0  0  0999 V2000
  -86.4401  -15.2842    5.2308 N   0  0  0  0  0  0  0  0  0  0  0  0
  -86.6212  -14.6879    4.4687 H   0  0  0  0  0  0  0  0  0  0  0  0
  -82.8080  -15.3997    4.7328 C   0  0  0  0  0  0  0  0  0  0  0  0
  -84.1960  -15.2218    4.5558 C   0  0  0  0  0  0  0  0  0  0  0  0
  -82.3455  -15.8474    5.9629 C   0  0  0  0  0  0  0  0  0  0  0  0
  -83.2705  -16.1288    6.9585 C   0  0  0  0  0  0  0  0  0  0  0  0
  -84.6481  -15.9471    6.7785 C   0  0  0  0  0  0  0  0  0  0  0  0
  -85.1373  -15.5069    5.5468 C   0  0  0  0  0  0  0  0  0  0  0  0
  -80.0803  -16.6171    1.0250 C   0  0  0  0  0  0  0  0  0  0  0  0
  -80.2215  -15.4230    1.9770 C   0  0  0  0  0  0  0  0  0  0  0  0
  -80.9868  -17.6921    1.6143 C   0  0  0  0  0  0  0  0  0  0  0  0
  -81.0022  -17.3737    3.0860 C   0  0  0  0  0  0  0  0  0  0  0  0
  -81.1484  -15.9127    3.0387 N   0  0  0  0  0  0  0  0  0  0  0  0
  -81.9069  -15.0327    3.7108 C   0  0  0  0  0  0  0  0  0  0  0  0
  -81.7798  -13.8265    3.4565 O   0  0  0  0  0  0  0  0  0  0  0  0
  -78.6338  -17.1073    0.9781 C   0  0  0  0  0  0  0  0  0  0  0  0
  -78.7060  -17.1776   -1.4206 O   0  0  0  0  0  0  0  0  0  0  0  0
  -78.3644  -17.7904   -0.3778 C   0  0  0  0  0  0  0  0  0  0  0  0
  -77.8194  -18.9190   -0.3369 O   0  0  0  0  0  0  0  0  0  0  0  0
  -77.5978  -19.3026    0.4888 H   0  0  0  0  0  0  0  0  0  0  0  0
  -87.5118  -15.8099    5.8712 C   0  0  0  0  0  0  0  0  0  0  0  0
  -87.6281  -16.4606    7.4240 S   0  0  0  0  0  0  0  0  0  0  0  0
  -88.7145  -15.8984    5.2664 N   0  0  0  0  0  0  0  0  0  0  0  0
  -89.6916  -16.4704    6.0217 C   0  0  0  0  0  0  0  0  0  0  0  0
  -89.2967  -16.8399    7.2617 C   0  0  0  0  0  0  0  0  0  0  0  0
  -89.9979  -17.4601    8.2586 C   0  0  0  0  0  0  0  0  0  0  0  0
  -89.4223  -17.7249    9.3093 O   0  0  0  0  0  0  0  0  0  0  0  0
  -91.2988  -17.8142    8.0739 N   0  0  0  0  0  0  0  0  0  0  0  0
  -91.7428  -17.6151    7.2181 H   0  0  0  0  0  0  0  0  0  0  0  0
  -92.0007  -18.4513    9.0788 C   0  0  0  0  0  0  0  0  0  0  0  0
  -92.7182  -17.7054   10.0064 C   0  0  0  0  0  0  0  0  0  0  0  0
  -92.6956  -15.9674    9.9131 Cl  0  0  0  0  0  0  0  0  0  0  0  0
  -93.4576  -18.3355   11.0117 C   0  0  0  0  0  0  0  0  0  0  0  0
  -93.4718  -19.7301   11.0701 C   0  0  0  0  0  0  0  0  0  0  0  0
  -92.7682  -20.4831   10.1302 C   0  0  0  0  0  0  0  0  0  0  0  0
  -92.0301  -19.8475    9.1383 C   0  0  0  0  0  0  0  0  0  0  0  0
  -91.3352  -20.6279    8.2071 C   0  0  0  0  0  0  0  0  0  0  0  0
 17 18  2  0  0  0
 18 19  1  0  0  0
 18 16  1  0  0  0
  9 16  1  0  0  0
  9 11  1  0  0  0
  9 10  1  0  0  0
 11 12  1  0  0  0
 10 13  1  0  0  0
 13 12  1  0  0  0
 13 14  1  0  0  0
 15 14  2  0  0  0
 14  3  1  0  0  0
  4  3  2  0  0  0
  4  8  1  0  0  0
  3  5  1  0  0  0
  1  8  1  0  0  0
  1 21  1  0  0  0
 23 21  2  0  0  0
 23 24  1  0  0  0
  8  7  2  0  0  0
 21 22  1  0  0  0
 24 25  2  0  0  0
  5  6  2  0  0  0
  7  6  1  0  0  0
 25 22  1  0  0  0
 25 26  1  0  0  0
 37 36  1  0  0  0
 28 26  1  0  0  0
 28 30  1  0  0  0
 26 27  2  0  0  0
 36 30  2  0  0  0
 36 35  1  0  0  0
 30 31  1  0  0  0
 35 34  2  0  0  0
 31 32  1  0  0  0
 31 33  2  0  0  0
 34 33  1  0  0  0
 19 20  1  0  0  0
  1  2  1  0  0  0
 28 29  1  0  0  0
M  END
> <minimizedAffinity>
-9.94807

$$$$
5NKD_91K_A_1001


 37 40  0  0  0  0  0  0  0  0999 V2000
  -86.0104  -15.8241    5.9128 N   0  0  0  0  0  0  0  0  0  0  0  0
  -85.8023  -15.7271    4.9554 H   0  0  0  0  0  0  0  0  0  0  0  0
  -84.3571  -15.4069    9.1603 C   0  0  0  0  0  0  0  0  0  0  0  0
  -85.3147  -15.5519    8.1348 C   0  0  0  0  0  0  0  0  0  0  0  0
  -83.0107  -15.4399    8.8236 C   0  0  0  0  0  0  0  0  0  0  0  0
  -82.6628  -15.5856    7.4879 C   0  0  0  0  0  0  0  0  0  0  0  0
  -83.6181  -15.7326    6.4736 C   0  0  0  0  0  0  0  0  0  0  0  0
  -84.9784  -15.6929    6.7871 C   0  0  0  0  0  0  0  0  0  0  0  0
  -85.9361  -17.5572   13.1041 C   0  0  0  0  0  0  0  0  0  0  0  0
  -85.8360  -16.1254   12.5634 C   0  0  0  0  0  0  0  0  0  0  0  0
  -85.5495  -18.4444   11.9259 C   0  0  0  0  0  0  0  0  0  0  0  0
  -85.9392  -17.6255   10.7239 C   0  0  0  0  0  0  0  0  0  0  0  0
  -85.4471  -16.3034   11.1340 N   0  0  0  0  0  0  0  0  0  0  0  0
  -84.7642  -15.3314   10.5092 C   0  0  0  0  0  0  0  0  0  0  0  0
  -84.5149  -14.2894   11.1318 O   0  0  0  0  0  0  0  0  0  0  0  0
  -87.3610  -17.8682   13.5599 C   0  0  0  0  0  0  0  0  0  0  0  0
  -86.2138  -19.1076   15.2664 O   0  0  0  0  0  0  0  0  0  0  0  0
  -87.3218  -18.8894   14.7146 C   0  0  0  0  0  0  0  0  0  0  0  0
  -88.4107  -19.4319   15.0184 O   0  0  0  0  0  0  0  0  0  0  0  0
  -89.1918  -19.2085   14.5516 H   0  0  0  0  0  0  0  0  0  0  0  0
  -87.3001  -16.0765    6.2414 C   0  0  0  0  0  0  0  0  0  0  0  0
  -87.9335  -16.8889    7.5781 S   0  0  0  0  0  0  0  0  0  0  0  0
  -88.3151  -15.6856    5.4431 N   0  0  0  0  0  0  0  0  0  0  0  0
  -89.5547  -16.0290    5.8879 C   0  0  0  0  0  0  0  0  0  0  0  0
  -89.5628  -16.6915    7.0674 C   0  0  0  0  0  0  0  0  0  0  0  0
  -90.6114  -17.2045    7.7796 C   0  0  0  0  0  0  0  0  0  0  0  0
  -91.7533  -16.8877    7.4613 O   0  0  0  0  0  0  0  0  0  0  0  0
  -90.3915  -18.0187    8.8475 N   0  0  0  0  0  0  0  0  0  0  0  0
  -89.4695  -18.2482    9.1056 H   0  0  0  0  0  0  0  0  0  0  0  0
  -91.4528  -18.5257    9.5721 C   0  0  0  0  0  0  0  0  0  0  0  0
  -91.9084  -19.8158    9.3279 C   0  0  0  0  0  0  0  0  0  0  0  0
  -91.1568  -20.7705    8.0815 Cl  0  0  0  0  0  0  0  0  0  0  0  0
  -92.9620  -20.3544   10.0723 C   0  0  0  0  0  0  0  0  0  0  0  0
  -93.5506  -19.5795   11.0731 C   0  0  0  0  0  0  0  0  0  0  0  0
  -93.0846  -18.2910   11.3341 C   0  0  0  0  0  0  0  0  0  0  0  0
  -92.0409  -17.7614   10.5839 C   0  0  0  0  0  0  0  0  0  0  0  0
  -91.5920  -16.4666   10.8687 C   0  0  0  0  0  0  0  0  0  0  0  0
 17 18  2  0  0  0
 18 19  1  0  0  0
 18 16  1  0  0  0
  9 16  1  0  0  0
  9 11  1  0  0  0
  9 10  1  0  0  0
 11 12  1  0  0  0
 10 13  1  0  0  0
 13 12  1  0  0  0
 13 14  1  0  0  0
 15 14  2  0  0  0
 14  3  1  0  0  0
  4  3  2  0  0  0
  4  8  1  0  0  0
  3  5  1  0  0  0
  1  8  1  0  0  0
  1 21  1  0  0  0
 23 21  2  0  0  0
 23 24  1  0  0  0
  8  7  2  0  0  0
 21 22  1  0  0  0
 24 25  2  0  0  0
  5  6  2  0  0  0
  7  6  1  0  0  0
 25 22  1  0  0  0
 25 26  1  0  0  0
 37 36  1  0  0  0
 28 26  1  0  0  0
 28 30  1  0  0  0
 26 27  2  0  0  0
 36 30  2  0  0  0
 36 35  1  0  0  0
 30 31  1  0  0  0
 35 34  2  0  0  0
 31 32  1  0  0  0
 31 33  2  0  0  0
 34 33  1  0  0  0
 19 20  1  0  0  0
  1  2  1  0  0  0
 28 29  1  0  0  0
M  END
> <minimizedAffinity>
-9.51941

$$$$
5NKD_91K_A_1001


 37 40  0  0  0  0  0  0  0  0999 V2000
  -86.7076  -15.5119    5.5546 N   0  0  0  0  0  0  0  0  0  0  0  0
  -86.8351  -15.1513    4.6475 H   0  0  0  0  0  0  0  0  0  0  0  0
  -83.0552  -15.8481    5.5742 C   0  0  0  0  0  0  0  0  0  0  0  0
  -84.4138  -15.8347    5.1950 C   0  0  0  0  0  0  0  0  0  0  0  0
  -82.7196  -15.4551    6.8627 C   0  0  0  0  0  0  0  0  0  0  0  0
  -83.7376  -15.0926    7.7336 C   0  0  0  0  0  0  0  0  0  0  0  0
  -85.0853  -15.0780    7.3507 C   0  0  0  0  0  0  0  0  0  0  0  0
  -85.4477  -15.4783    6.0628 C   0  0  0  0  0  0  0  0  0  0  0  0
  -78.7197  -17.5495    4.5849 C   0  0  0  0  0  0  0  0  0  0  0  0
  -79.7898  -16.7091    3.8771 C   0  0  0  0  0  0  0  0  0  0  0  0
  -79.2145  -17.6773    6.0214 C   0  0  0  0  0  0  0  0  0  0  0  0
  -80.0376  -16.4327    6.2238 C   0  0  0  0  0  0  0  0  0  0  0  0
  -80.7739  -16.3933    4.9531 N   0  0  0  0  0  0  0  0  0  0  0  0
  -82.0549  -16.1585    4.6286 C   0  0  0  0  0  0  0  0  0  0  0  0
  -82.3731  -16.1679    3.4310 O   0  0  0  0  0  0  0  0  0  0  0  0
  -77.3638  -16.8458    4.5493 C   0  0  0  0  0  0  0  0  0  0  0  0
  -75.8064  -17.1325    6.3539 O   0  0  0  0  0  0  0  0  0  0  0  0
  -76.3338  -17.6701    5.3476 C   0  0  0  0  0  0  0  0  0  0  0  0
  -76.0969  -18.8274    4.9270 O   0  0  0  0  0  0  0  0  0  0  0  0
  -76.5381  -19.1485    4.1653 H   0  0  0  0  0  0  0  0  0  0  0  0
  -87.8037  -15.9976    6.1853 C   0  0  0  0  0  0  0  0  0  0  0  0
  -87.9246  -16.8446    7.6399 S   0  0  0  0  0  0  0  0  0  0  0  0
  -89.0357  -15.8614    5.6523 N   0  0  0  0  0  0  0  0  0  0  0  0
  -90.0381  -16.4197    6.3842 C   0  0  0  0  0  0  0  0  0  0  0  0
  -89.6328  -17.0042    7.5350 C   0  0  0  0  0  0  0  0  0  0  0  0
  -90.3561  -17.6756    8.4815 C   0  0  0  0  0  0  0  0  0  0  0  0
  -89.7926  -18.0365    9.5099 O   0  0  0  0  0  0  0  0  0  0  0  0
  -91.6667  -17.9743    8.2693 N   0  0  0  0  0  0  0  0  0  0  0  0
  -92.1015  -17.6976    7.4304 H   0  0  0  0  0  0  0  0  0  0  0  0
  -92.3914  -18.6632    9.2226 C   0  0  0  0  0  0  0  0  0  0  0  0
  -92.3453  -20.0517    9.2619 C   0  0  0  0  0  0  0  0  0  0  0  0
  -91.3992  -20.9134    8.0820 Cl  0  0  0  0  0  0  0  0  0  0  0  0
  -93.0492  -20.7626   10.2384 C   0  0  0  0  0  0  0  0  0  0  0  0
  -93.7983  -20.0577   11.1822 C   0  0  0  0  0  0  0  0  0  0  0  0
  -93.8327  -18.6636   11.1578 C   0  0  0  0  0  0  0  0  0  0  0  0
  -93.1351  -17.9656   10.1787 C   0  0  0  0  0  0  0  0  0  0  0  0
  -93.1856  -16.5669   10.1791 C   0  0  0  0  0  0  0  0  0  0  0  0
 17 18  2  0  0  0
 18 19  1  0  0  0
 18 16  1  0  0  0
  9 16  1  0  0  0
  9 11  1  0  0  0
  9 10  1  0  0  0
 11 12  1  0  0  0
 10 13  1  0  0  0
 13 12  1  0  0  0
 13 14  1  0  0  0
 15 14  2  0  0  0
 14  3  1  0  0  0
  4  3  2  0  0  0
  4  8  1  0  0  0
  3  5  1  0  0  0
  1  8  1  0  0  0
  1 21  1  0  0  0
 23 21  2  0  0  0
 23 24  1  0  0  0
  8  7  2  0  0  0
 21 22  1  0  0  0
 24 25  2  0  0  0
  5  6  2  0  0  0
  7  6  1  0  0  0
 25 22  1  0  0  0
 25 26  1  0  0  0
 37 36  1  0  0  0
 28 26  1  0  0  0
 28 30  1  0  0  0
 26 27  2  0  0  0
 36 30  2  0  0  0
 36 35  1  0  0  0
 30 31  1  0  0  0
 35 34  2  0  0  0
 31 32  1  0  0  0
 31 33  2  0  0  0
 34 33  1  0  0  0
 19 20  1  0  0  0
  1  2  1  0  0  0
 28 29  1  0  0  0
M  END
> <minimizedAffinity>
-9.51168

$$$$
5NKD_91K_A_1001


 37 40  0  0  0  0  0  0  0  0999 V2000
  -85.7112  -15.7964    6.3610 N   0  0  0  0  0  0  0  0  0  0  0  0
  -85.6016  -15.7551    5.3835 H   0  0  0  0  0  0  0  0  0  0  0  0
  -82.2016  -15.0802    7.1507 C   0  0  0  0  0  0  0  0  0  0  0  0
  -83.3981  -15.4409    6.4964 C   0  0  0  0  0  0  0  0  0  0  0  0
  -82.2670  -14.6522    8.4698 C   0  0  0  0  0  0  0  0  0  0  0  0
  -83.5037  -14.6243    9.0991 C   0  0  0  0  0  0  0  0  0  0  0  0
  -84.6895  -14.9805    8.4434 C   0  0  0  0  0  0  0  0  0  0  0  0
  -84.6473  -15.4232    7.1196 C   0  0  0  0  0  0  0  0  0  0  0  0
  -78.6712  -12.6213    5.1112 C   0  0  0  0  0  0  0  0  0  0  0  0
  -79.2050  -14.0590    5.0863 C   0  0  0  0  0  0  0  0  0  0  0  0
  -79.7132  -11.8343    5.8981 C   0  0  0  0  0  0  0  0  0  0  0  0
  -80.9889  -12.5970    5.6565 C   0  0  0  0  0  0  0  0  0  0  0  0
  -80.5060  -13.9757    5.8120 N   0  0  0  0  0  0  0  0  0  0  0  0
  -80.9810  -15.0608    6.4433 C   0  0  0  0  0  0  0  0  0  0  0  0
  -80.3400  -16.1185    6.3653 O   0  0  0  0  0  0  0  0  0  0  0  0
  -78.5417  -12.0646    3.6940 C   0  0  0  0  0  0  0  0  0  0  0  0
  -76.9571  -13.2736    2.3556 O   0  0  0  0  0  0  0  0  0  0  0  0
  -77.1168  -12.3259    3.1654 C   0  0  0  0  0  0  0  0  0  0  0  0
  -76.2149  -11.5647    3.5892 O   0  0  0  0  0  0  0  0  0  0  0  0
  -76.4250  -10.8809    4.1944 H   0  0  0  0  0  0  0  0  0  0  0  0
  -86.9092  -16.2203    6.8303 C   0  0  0  0  0  0  0  0  0  0  0  0
  -87.2801  -17.0362    8.2602 S   0  0  0  0  0  0  0  0  0  0  0  0
  -88.0429  -16.0366    6.1223 N   0  0  0  0  0  0  0  0  0  0  0  0
  -89.1665  -16.5356    6.7061 C   0  0  0  0  0  0  0  0  0  0  0  0
  -88.9608  -17.1187    7.9093 C   0  0  0  0  0  0  0  0  0  0  0  0
  -89.8451  -17.7399    8.7472 C   0  0  0  0  0  0  0  0  0  0  0  0
  -89.4443  -18.1463    9.8333 O   0  0  0  0  0  0  0  0  0  0  0  0
  -91.1361  -17.9407    8.3667 N   0  0  0  0  0  0  0  0  0  0  0  0
  -91.4396  -17.6286    7.4837 H   0  0  0  0  0  0  0  0  0  0  0  0
  -92.0239  -18.5792    9.2109 C   0  0  0  0  0  0  0  0  0  0  0  0
  -92.0774  -19.9677    9.2421 C   0  0  0  0  0  0  0  0  0  0  0  0
  -91.0462  -20.8910    8.1867 Cl  0  0  0  0  0  0  0  0  0  0  0  0
  -92.9492  -20.6297   10.1117 C   0  0  0  0  0  0  0  0  0  0  0  0
  -93.7655  -19.8762   10.9571 C   0  0  0  0  0  0  0  0  0  0  0  0
  -93.7018  -18.4830   10.9422 C   0  0  0  0  0  0  0  0  0  0  0  0
  -92.8369  -17.8334   10.0691 C   0  0  0  0  0  0  0  0  0  0  0  0
  -92.7922  -16.4345   10.0768 C   0  0  0  0  0  0  0  0  0  0  0  0
 17 18  2  0  0  0
 18 19  1  0  0  0
 18 16  1  0  0  0
  9 16  1  0  0  0
  9 11  1  0  0  0
  9 10  1  0  0  0
 11 12  1  0  0  0
 10 13  1  0  0  0
 13 12  1  0  0  0
 13 14  1  0  0  0
 15 14  2  0  0  0
 14  3  1  0  0  0
  4  3  2  0  0  0
  4  8  1  0  0  0
  3  5  1  0  0  0
  1  8  1  0  0  0
  1 21  1  0  0  0
 23 21  2  0  0  0
 23 24  1  0  0  0
  8  7  2  0  0  0
 21 22  1  0  0  0
 24 25  2  0  0  0
  5  6  2  0  0  0
  7  6  1  0  0  0
 25 22  1  0  0  0
 25 26  1  0  0  0
 37 36  1  0  0  0
 28 26  1  0  0  0
 28 30  1  0  0  0
 26 27  2  0  0  0
 36 30  2  0  0  0
 36 35  1  0  0  0
 30 31  1  0  0  0
 35 34  2  0  0  0
 31 32  1  0  0  0
 31 33  2  0  0  0
 34 33  1  0  0  0
 19 20  1  0  0  0
  1  2  1  0  0  0
 28 29  1  0  0  0
M  END
> <minimizedAffinity>
-9.22639

$$$$
5NKD_91K_A_1001


 37 40  0  0  0  0  0  0  0  0999 V2000
  -85.3753  -15.9769    6.6667 N   0  0  0  0  0  0  0  0  0  0  0  0
  -85.1969  -16.0914    5.7053 H   0  0  0  0  0  0  0  0  0  0  0  0
  -81.9888  -14.8257    7.4793 C   0  0  0  0  0  0  0  0  0  0  0  0
  -83.1203  -15.3562    6.8251 C   0  0  0  0  0  0  0  0  0  0  0  0
  -82.1357  -14.3317    8.7684 C   0  0  0  0  0  0  0  0  0  0  0  0
  -83.3838  -14.4063    9.3708 C   0  0  0  0  0  0  0  0  0  0  0  0
  -84.5052  -14.9313    8.7151 C   0  0  0  0  0  0  0  0  0  0  0  0
  -84.3795  -15.4428    7.4217 C   0  0  0  0  0  0  0  0  0  0  0  0
  -78.8887  -12.1845    5.0129 C   0  0  0  0  0  0  0  0  0  0  0  0
  -79.1392  -13.6739    5.2799 C   0  0  0  0  0  0  0  0  0  0  0  0
  -80.0990  -11.4746    5.6096 C   0  0  0  0  0  0  0  0  0  0  0  0
  -81.1937  -12.5045    5.5174 C   0  0  0  0  0  0  0  0  0  0  0  0
  -80.4673  -13.7026    5.9591 N   0  0  0  0  0  0  0  0  0  0  0  0
  -80.7598  -14.7105    6.7958 C   0  0  0  0  0  0  0  0  0  0  0  0
  -79.9273  -15.6164    6.9445 O   0  0  0  0  0  0  0  0  0  0  0  0
  -78.7957  -11.9088    3.5128 C   0  0  0  0  0  0  0  0  0  0  0  0
  -78.4473   -9.5425    3.3036 O   0  0  0  0  0  0  0  0  0  0  0  0
  -79.2849  -10.4760    3.2204 C   0  0  0  0  0  0  0  0  0  0  0  0
  -80.4955  -10.3490    2.9191 O   0  0  0  0  0  0  0  0  0  0  0  0
  -81.0503  -11.1031    2.8807 H   0  0  0  0  0  0  0  0  0  0  0  0
  -86.5914  -16.3656    7.1194 C   0  0  0  0  0  0  0  0  0  0  0  0
  -86.9941  -17.2848    8.4762 S   0  0  0  0  0  0  0  0  0  0  0  0
  -87.7208  -16.0461    6.4540 N   0  0  0  0  0  0  0  0  0  0  0  0
  -88.8660  -16.5248    7.0124 C   0  0  0  0  0  0  0  0  0  0  0  0
  -88.6813  -17.2281    8.1531 C   0  0  0  0  0  0  0  0  0  0  0  0
  -89.5920  -17.8668    8.9485 C   0  0  0  0  0  0  0  0  0  0  0  0
  -89.2178  -18.3295   10.0216 O   0  0  0  0  0  0  0  0  0  0  0  0
  -90.8805  -18.0228    8.5394 N   0  0  0  0  0  0  0  0  0  0  0  0
  -91.1629  -17.6655    7.6666 H   0  0  0  0  0  0  0  0  0  0  0  0
  -91.7951  -18.6790    9.3403 C   0  0  0  0  0  0  0  0  0  0  0  0
  -92.5436  -17.9659   10.2692 C   0  0  0  0  0  0  0  0  0  0  0  0
  -92.2942  -16.2517   10.4393 Cl  0  0  0  0  0  0  0  0  0  0  0  0
  -93.4942  -18.6101   11.0667 C   0  0  0  0  0  0  0  0  0  0  0  0
  -93.6880  -19.9841   10.9145 C   0  0  0  0  0  0  0  0  0  0  0  0
  -92.9521  -20.7005    9.9708 C   0  0  0  0  0  0  0  0  0  0  0  0
  -92.0042  -20.0526    9.1871 C   0  0  0  0  0  0  0  0  0  0  0  0
  -91.2815  -20.7957    8.2466 C   0  0  0  0  0  0  0  0  0  0  0  0
 17 18  2  0  0  0
 18 19  1  0  0  0
 18 16  1  0  0  0
  9 16  1  0  0  0
  9 11  1  0  0  0
  9 10  1  0  0  0
 11 12  1  0  0  0
 10 13  1  0  0  0
 13 12  1  0  0  0
 13 14  1  0  0  0
 15 14  2  0  0  0
 14  3  1  0  0  0
  4  3  2  0  0  0
  4  8  1  0  0  0
  3  5  1  0  0  0
  1  8  1  0  0  0
  1 21  1  0  0  0
 23 21  2  0  0  0
 23 24  1  0  0  0
  8  7  2  0  0  0
 21 22  1  0  0  0
 24 25  2  0  0  0
  5  6  2  0  0  0
  7  6  1  0  0  0
 25 22  1  0  0  0
 25 26  1  0  0  0
 37 36  1  0  0  0
 28 26  1  0  0  0
 28 30  1  0  0  0
 26 27  2  0  0  0
 36 30  2  0  0  0
 36 35  1  0  0  0
 30 31  1  0  0  0
 35 34  2  0  0  0
 31 32  1  0  0  0
 31 33  2  0  0  0
 34 33  1  0  0  0
 19 20  1  0  0  0
  1  2  1  0  0  0
 28 29  1  0  0  0
M  END
> <minimizedAffinity>
-9.05565

$$$$
