5FNT_0PL_A_1615


 35 38  0  0  0  0  0  0  0  0999 V2000
   15.8139   65.1617   30.1147 C   0  0  0  0  0  0  0  0  0  0  0  0
   15.8208   65.0287   28.7299 C   0  0  0  0  0  0  0  0  0  0  0  0
   16.8172   64.3163   28.0710 C   0  0  0  0  0  0  0  0  0  0  0  0
   17.8253   63.7286   28.8299 C   0  0  0  0  0  0  0  0  0  0  0  0
   17.8344   63.8500   30.2065 C   0  0  0  0  0  0  0  0  0  0  0  0
   16.8352   64.5620   30.8425 C   0  0  0  0  0  0  0  0  0  0  0  0
   16.8716   64.6979   32.5702 Cl  0  0  0  0  0  0  0  0  0  0  0  0
   14.7135   65.9435   30.7936 C   0  0  0  0  0  0  0  0  0  0  0  0
   13.1053   64.0903   30.5570 C   0  0  0  0  0  0  0  0  0  0  0  0
   13.7317   65.0727   31.4539 N   0  0  0  0  0  0  0  0  0  0  0  0
   12.7716   65.7324   32.5943 S   0  0  0  0  0  0  0  0  0  0  0  0
   12.1240   64.6492   33.2673 O   0  0  0  0  0  0  0  0  0  0  0  0
   13.5618   66.6676   33.3347 O   0  0  0  0  0  0  0  0  0  0  0  0
   11.5564   66.6296   31.6857 C   0  0  0  0  0  0  0  0  0  0  0  0
   11.6440   68.0074   31.5891 C   0  0  0  0  0  0  0  0  0  0  0  0
   10.6875   68.7051   30.8748 C   0  0  0  0  0  0  0  0  0  0  0  0
    9.6528   68.0286   30.2619 C   0  0  0  0  0  0  0  0  0  0  0  0
    9.5678   66.6550   30.3598 C   0  0  0  0  0  0  0  0  0  0  0  0
   10.5181   65.9509   31.0704 C   0  0  0  0  0  0  0  0  0  0  0  0
   16.8235   64.1701   26.5571 C   0  0  0  0  0  0  0  0  0  0  0  0
   15.4819   63.6445   26.0592 C   0  0  0  0  0  0  0  0  0  0  0  0
   14.7049   64.3167   25.1087 C   0  0  0  0  0  0  0  0  0  0  0  0
   13.4838   63.8017   24.6779 C   0  0  0  0  0  0  0  0  0  0  0  0
   13.0142   62.5902   25.2014 C   0  0  0  0  0  0  0  0  0  0  0  0
   11.9015   61.8353   25.0028 N   0  0  0  0  0  0  0  0  0  0  0  0
   10.7666   62.0702   24.1204 C   0  0  0  0  0  0  0  0  0  0  0  0
   11.9454   60.7228   25.7853 N   0  0  0  0  0  0  0  0  0  0  0  0
   13.0757   60.7727   26.4717 N   0  0  0  0  0  0  0  0  0  0  0  0
   13.7676   61.9020   26.1470 C   0  0  0  0  0  0  0  0  0  0  0  0
   15.0064   62.4315   26.5788 C   0  0  0  0  0  0  0  0  0  0  0  0
   17.3124   65.4391   25.8622 C   0  0  0  0  0  0  0  0  0  0  0  0
   17.8675   65.1939   24.4654 C   0  0  0  0  0  0  0  0  0  0  0  0
   17.7397   66.1189   23.6309 O   0  0  0  0  0  0  0  0  0  0  0  0
   18.4156   64.0936   24.2279 O   0  0  0  0  0  0  0  0  0  0  0  0
   18.4765   63.4454   24.9018 H   0  0  0  0  0  0  0  0  0  0  0  0
  9 10  1  0  0  0
  8 10  1  0  0  0
 10 11  1  0  0  0
  1  8  1  0  0  0
  2  1  2  0  0  0
  1  6  1  0  0  0
  3  2  1  0  0  0
 20  3  1  0  0  0
  3  4  2  0  0  0
  4  5  1  0  0  0
  5  6  2  0  0  0
  6  7  1  0  0  0
 31 20  1  0  0  0
 21 20  1  0  0  0
 32 31  1  0  0  0
 33 32  2  0  0  0
 34 32  1  0  0  0
 22 21  2  0  0  0
 21 30  1  0  0  0
 23 22  1  0  0  0
 23 24  2  0  0  0
 25 24  1  0  0  0
 24 29  1  0  0  0
 26 25  1  0  0  0
 25 27  1  0  0  0
 27 28  2  0  0  0
 29 28  1  0  0  0
 29 30  2  0  0  0
 14 11  1  0  0  0
 11 12  2  0  0  0
 11 13  2  0  0  0
 19 14  2  0  0  0
 15 14  1  0  0  0
 16 15  2  0  0  0
 17 16  1  0  0  0
 17 18  2  0  0  0
 18 19  1  0  0  0
 34 35  1  0  0  0
M  END
> <minimizedAffinity>
-10.97849

$$$$
5FNT_0PL_A_1615


 35 38  0  0  0  0  0  0  0  0999 V2000
   15.7191   64.7877   30.2058 C   0  0  0  0  0  0  0  0  0  0  0  0
   15.7177   64.6580   28.8207 C   0  0  0  0  0  0  0  0  0  0  0  0
   16.8645   64.2973   28.1211 C   0  0  0  0  0  0  0  0  0  0  0  0
   18.0340   64.0644   28.8390 C   0  0  0  0  0  0  0  0  0  0  0  0
   18.0541   64.1882   30.2153 C   0  0  0  0  0  0  0  0  0  0  0  0
   16.9040   64.5475   30.8920 C   0  0  0  0  0  0  0  0  0  0  0  0
   16.9580   64.6952   32.6183 Cl  0  0  0  0  0  0  0  0  0  0  0  0
   14.4526   65.1812   30.9297 C   0  0  0  0  0  0  0  0  0  0  0  0
   14.2634   67.3411   32.1027 C   0  0  0  0  0  0  0  0  0  0  0  0
   14.1703   66.6192   30.8252 N   0  0  0  0  0  0  0  0  0  0  0  0
   12.9892   67.0929   29.8064 S   0  0  0  0  0  0  0  0  0  0  0  0
   12.2259   68.0892   30.4923 O   0  0  0  0  0  0  0  0  0  0  0  0
   13.6006   67.3969   28.5490 O   0  0  0  0  0  0  0  0  0  0  0  0
   11.9805   65.6619   29.6013 C   0  0  0  0  0  0  0  0  0  0  0  0
   11.0538   65.3251   30.5724 C   0  0  0  0  0  0  0  0  0  0  0  0
   10.2657   64.2014   30.4052 C   0  0  0  0  0  0  0  0  0  0  0  0
   10.4040   63.4223   29.2748 C   0  0  0  0  0  0  0  0  0  0  0  0
   11.3286   63.7603   28.3082 C   0  0  0  0  0  0  0  0  0  0  0  0
   12.1190   64.8800   28.4669 C   0  0  0  0  0  0  0  0  0  0  0  0
   16.8619   64.1544   26.6069 C   0  0  0  0  0  0  0  0  0  0  0  0
   15.5101   63.6509   26.1137 C   0  0  0  0  0  0  0  0  0  0  0  0
   14.7130   64.3655   25.2121 C   0  0  0  0  0  0  0  0  0  0  0  0
   13.4831   63.8697   24.7839 C   0  0  0  0  0  0  0  0  0  0  0  0
   13.0249   62.6347   25.2606 C   0  0  0  0  0  0  0  0  0  0  0  0
   11.9083   61.8885   25.0508 N   0  0  0  0  0  0  0  0  0  0  0  0
   10.7549   62.1627   24.2044 C   0  0  0  0  0  0  0  0  0  0  0  0
   11.9690   60.7410   25.7798 N   0  0  0  0  0  0  0  0  0  0  0  0
   13.1135   60.7604   26.4437 N   0  0  0  0  0  0  0  0  0  0  0  0
   13.7983   61.9043   26.1571 C   0  0  0  0  0  0  0  0  0  0  0  0
   15.0459   62.4146   26.5865 C   0  0  0  0  0  0  0  0  0  0  0  0
   17.3675   65.4171   25.9126 C   0  0  0  0  0  0  0  0  0  0  0  0
   17.8688   65.1742   24.4952 C   0  0  0  0  0  0  0  0  0  0  0  0
   17.7099   66.1009   23.6680 O   0  0  0  0  0  0  0  0  0  0  0  0
   18.4066   64.0741   24.2349 O   0  0  0  0  0  0  0  0  0  0  0  0
   18.4926   63.4245   24.9047 H   0  0  0  0  0  0  0  0  0  0  0  0
  9 10  1  0  0  0
  8 10  1  0  0  0
 10 11  1  0  0  0
  1  8  1  0  0  0
  2  1  2  0  0  0
  1  6  1  0  0  0
  3  2  1  0  0  0
 20  3  1  0  0  0
  3  4  2  0  0  0
  4  5  1  0  0  0
  5  6  2  0  0  0
  6  7  1  0  0  0
 31 20  1  0  0  0
 21 20  1  0  0  0
 32 31  1  0  0  0
 33 32  2  0  0  0
 34 32  1  0  0  0
 22 21  2  0  0  0
 21 30  1  0  0  0
 23 22  1  0  0  0
 23 24  2  0  0  0
 25 24  1  0  0  0
 24 29  1  0  0  0
 26 25  1  0  0  0
 25 27  1  0  0  0
 27 28  2  0  0  0
 29 28  1  0  0  0
 29 30  2  0  0  0
 14 11  1  0  0  0
 11 12  2  0  0  0
 11 13  2  0  0  0
 19 14  2  0  0  0
 15 14  1  0  0  0
 16 15  2  0  0  0
 17 16  1  0  0  0
 17 18  2  0  0  0
 18 19  1  0  0  0
 34 35  1  0  0  0
M  END
> <minimizedAffinity>
-10.54193

$$$$
5FNT_0PL_A_1615


 35 38  0  0  0  0  0  0  0  0999 V2000
   12.4695   64.9615   27.9009 C   0  0  0  0  0  0  0  0  0  0  0  0
   13.1708   65.6851   28.8600 C   0  0  0  0  0  0  0  0  0  0  0  0
   13.3173   65.2187   30.1622 C   0  0  0  0  0  0  0  0  0  0  0  0
   12.7418   63.9967   30.4981 C   0  0  0  0  0  0  0  0  0  0  0  0
   12.0419   63.2639   29.5583 C   0  0  0  0  0  0  0  0  0  0  0  0
   11.9076   63.7446   28.2697 C   0  0  0  0  0  0  0  0  0  0  0  0
   11.0246   62.8047   27.1115 Cl  0  0  0  0  0  0  0  0  0  0  0  0
   12.3327   65.5020   26.4966 C   0  0  0  0  0  0  0  0  0  0  0  0
   13.8209   67.0664   25.3073 C   0  0  0  0  0  0  0  0  0  0  0  0
   13.6335   65.7116   25.8468 N   0  0  0  0  0  0  0  0  0  0  0  0
   14.2539   64.4865   24.9684 S   0  0  0  0  0  0  0  0  0  0  0  0
   13.1558   63.6533   24.5868 O   0  0  0  0  0  0  0  0  0  0  0  0
   15.1016   65.0593   23.9681 O   0  0  0  0  0  0  0  0  0  0  0  0
   15.2625   63.5928   26.1047 C   0  0  0  0  0  0  0  0  0  0  0  0
   14.7666   62.4592   26.7247 C   0  0  0  0  0  0  0  0  0  0  0  0
   15.5631   61.7628   27.6150 C   0  0  0  0  0  0  0  0  0  0  0  0
   16.8453   62.1975   27.8812 C   0  0  0  0  0  0  0  0  0  0  0  0
   17.3372   63.3279   27.2619 C   0  0  0  0  0  0  0  0  0  0  0  0
   16.5493   64.0287   26.3720 C   0  0  0  0  0  0  0  0  0  0  0  0
   14.0853   66.0097   31.2100 C   0  0  0  0  0  0  0  0  0  0  0  0
   15.4197   65.3415   31.5211 C   0  0  0  0  0  0  0  0  0  0  0  0
   16.2823   64.8624   30.5285 C   0  0  0  0  0  0  0  0  0  0  0  0
   17.4952   64.2587   30.8543 C   0  0  0  0  0  0  0  0  0  0  0  0
   17.8671   64.1213   32.1979 C   0  0  0  0  0  0  0  0  0  0  0  0
   18.9459   63.5979   32.8380 N   0  0  0  0  0  0  0  0  0  0  0  0
   20.1376   62.9688   32.2848 C   0  0  0  0  0  0  0  0  0  0  0  0
   18.7983   63.7263   34.1847 N   0  0  0  0  0  0  0  0  0  0  0  0
   17.6376   64.3261   34.3947 N   0  0  0  0  0  0  0  0  0  0  0  0
   17.0279   64.5896   33.2037 C   0  0  0  0  0  0  0  0  0  0  0  0
   15.7984   65.2016   32.8644 C   0  0  0  0  0  0  0  0  0  0  0  0
   14.1785   67.4916   30.8529 C   0  0  0  0  0  0  0  0  0  0  0  0
   13.9474   68.4199   32.0378 C   0  0  0  0  0  0  0  0  0  0  0  0
   12.7683   68.7790   32.2589 O   0  0  0  0  0  0  0  0  0  0  0  0
   14.9367   68.7710   32.7200 O   0  0  0  0  0  0  0  0  0  0  0  0
   15.7930   68.4630   32.4966 H   0  0  0  0  0  0  0  0  0  0  0  0
  9 10  1  0  0  0
  8 10  1  0  0  0
 10 11  1  0  0  0
  1  8  1  0  0  0
  2  1  2  0  0  0
  1  6  1  0  0  0
  3  2  1  0  0  0
 20  3  1  0  0  0
  3  4  2  0  0  0
  4  5  1  0  0  0
  5  6  2  0  0  0
  6  7  1  0  0  0
 31 20  1  0  0  0
 21 20  1  0  0  0
 32 31  1  0  0  0
 33 32  2  0  0  0
 34 32  1  0  0  0
 22 21  2  0  0  0
 21 30  1  0  0  0
 23 22  1  0  0  0
 23 24  2  0  0  0
 25 24  1  0  0  0
 24 29  1  0  0  0
 26 25  1  0  0  0
 25 27  1  0  0  0
 27 28  2  0  0  0
 29 28  1  0  0  0
 29 30  2  0  0  0
 14 11  1  0  0  0
 11 12  2  0  0  0
 11 13  2  0  0  0
 19 14  2  0  0  0
 15 14  1  0  0  0
 16 15  2  0  0  0
 17 16  1  0  0  0
 17 18  2  0  0  0
 18 19  1  0  0  0
 34 35  1  0  0  0
M  END
> <minimizedAffinity>
-10.04949

$$$$
5FNT_0PL_A_1615


 35 38  0  0  0  0  0  0  0  0999 V2000
   17.0513   64.3377   30.5980 C   0  0  0  0  0  0  0  0  0  0  0  0
   16.0392   65.2458   30.3040 C   0  0  0  0  0  0  0  0  0  0  0  0
   15.3562   65.9260   31.3068 C   0  0  0  0  0  0  0  0  0  0  0  0
   15.7054   65.6805   32.6316 C   0  0  0  0  0  0  0  0  0  0  0  0
   16.7085   64.7821   32.9424 C   0  0  0  0  0  0  0  0  0  0  0  0
   17.3753   64.1164   31.9316 C   0  0  0  0  0  0  0  0  0  0  0  0
   18.6292   62.9952   32.3503 Cl  0  0  0  0  0  0  0  0  0  0  0  0
   17.7701   63.6188   29.4802 C   0  0  0  0  0  0  0  0  0  0  0  0
   16.4129   61.7395   28.6417 C   0  0  0  0  0  0  0  0  0  0  0  0
   16.8499   63.1295   28.4447 N   0  0  0  0  0  0  0  0  0  0  0  0
   17.1142   63.5978   26.9058 S   0  0  0  0  0  0  0  0  0  0  0  0
   18.0880   64.6442   26.9531 O   0  0  0  0  0  0  0  0  0  0  0  0
   17.3638   62.4195   26.1334 O   0  0  0  0  0  0  0  0  0  0  0  0
   15.5791   64.2889   26.3831 C   0  0  0  0  0  0  0  0  0  0  0  0
   14.6794   63.5143   25.6720 C   0  0  0  0  0  0  0  0  0  0  0  0
   13.4770   64.0627   25.2651 C   0  0  0  0  0  0  0  0  0  0  0  0
   13.1781   65.3751   25.5685 C   0  0  0  0  0  0  0  0  0  0  0  0
   14.0769   66.1452   26.2775 C   0  0  0  0  0  0  0  0  0  0  0  0
   15.2789   65.6060   26.6876 C   0  0  0  0  0  0  0  0  0  0  0  0
   14.2506   66.9196   30.9847 C   0  0  0  0  0  0  0  0  0  0  0  0
   13.0490   66.2108   30.3701 C   0  0  0  0  0  0  0  0  0  0  0  0
   12.2941   66.7566   29.3256 C   0  0  0  0  0  0  0  0  0  0  0  0
   11.2027   66.0756   28.7896 C   0  0  0  0  0  0  0  0  0  0  0  0
   10.8441   64.8215   29.3001 C   0  0  0  0  0  0  0  0  0  0  0  0
    9.8669   63.9213   29.0134 N   0  0  0  0  0  0  0  0  0  0  0  0
    8.8094   63.9870   28.0138 C   0  0  0  0  0  0  0  0  0  0  0  0
    9.9745   62.8383   29.8304 N   0  0  0  0  0  0  0  0  0  0  0  0
   11.0105   63.0507   30.6258 N   0  0  0  0  0  0  0  0  0  0  0  0
   11.5784   64.2566   30.3380 C   0  0  0  0  0  0  0  0  0  0  0  0
   12.6851   64.9543   30.8762 C   0  0  0  0  0  0  0  0  0  0  0  0
   13.9245   67.8180   32.1757 C   0  0  0  0  0  0  0  0  0  0  0  0
   14.1907   69.2949   31.9162 C   0  0  0  0  0  0  0  0  0  0  0  0
   14.3383   69.6463   30.7233 O   0  0  0  0  0  0  0  0  0  0  0  0
   14.2475   70.0703   32.8974 O   0  0  0  0  0  0  0  0  0  0  0  0
   14.1273   69.7376   33.7651 H   0  0  0  0  0  0  0  0  0  0  0  0
  9 10  1  0  0  0
  8 10  1  0  0  0
 10 11  1  0  0  0
  1  8  1  0  0  0
  2  1  2  0  0  0
  1  6  1  0  0  0
  3  2  1  0  0  0
 20  3  1  0  0  0
  3  4  2  0  0  0
  4  5  1  0  0  0
  5  6  2  0  0  0
  6  7  1  0  0  0
 31 20  1  0  0  0
 21 20  1  0  0  0
 32 31  1  0  0  0
 33 32  2  0  0  0
 34 32  1  0  0  0
 22 21  2  0  0  0
 21 30  1  0  0  0
 23 22  1  0  0  0
 23 24  2  0  0  0
 25 24  1  0  0  0
 24 29  1  0  0  0
 26 25  1  0  0  0
 25 27  1  0  0  0
 27 28  2  0  0  0
 29 28  1  0  0  0
 29 30  2  0  0  0
 14 11  1  0  0  0
 11 12  2  0  0  0
 11 13  2  0  0  0
 19 14  2  0  0  0
 15 14  1  0  0  0
 16 15  2  0  0  0
 17 16  1  0  0  0
 17 18  2  0  0  0
 18 19  1  0  0  0
 34 35  1  0  0  0
M  END
> <minimizedAffinity>
-9.91062

$$$$
5FNT_0PL_A_1615


 35 38  0  0  0  0  0  0  0  0999 V2000
   13.2272   63.6662   27.8808 C   0  0  0  0  0  0  0  0  0  0  0  0
   14.2850   64.4675   28.2982 C   0  0  0  0  0  0  0  0  0  0  0  0
   15.6001   64.0163   28.2611 C   0  0  0  0  0  0  0  0  0  0  0  0
   15.8471   62.7291   27.7927 C   0  0  0  0  0  0  0  0  0  0  0  0
   14.8088   61.9191   27.3735 C   0  0  0  0  0  0  0  0  0  0  0  0
   13.5089   62.3859   27.4182 C   0  0  0  0  0  0  0  0  0  0  0  0
   12.2262   61.3485   26.8862 Cl  0  0  0  0  0  0  0  0  0  0  0  0
   11.8120   64.1928   27.9363 C   0  0  0  0  0  0  0  0  0  0  0  0
   10.5617   63.0923   29.7535 C   0  0  0  0  0  0  0  0  0  0  0  0
   11.3006   64.2837   29.3105 N   0  0  0  0  0  0  0  0  0  0  0  0
   10.7307   65.7239   29.8190 S   0  0  0  0  0  0  0  0  0  0  0  0
   10.7059   66.5855   28.6777 O   0  0  0  0  0  0  0  0  0  0  0  0
    9.5304   65.4762   30.5574 O   0  0  0  0  0  0  0  0  0  0  0  0
   11.9578   66.3162   30.9373 C   0  0  0  0  0  0  0  0  0  0  0  0
   12.8480   67.2948   30.5309 C   0  0  0  0  0  0  0  0  0  0  0  0
   13.8080   67.7551   31.4132 C   0  0  0  0  0  0  0  0  0  0  0  0
   13.8753   67.2403   32.6916 C   0  0  0  0  0  0  0  0  0  0  0  0
   12.9866   66.2647   33.0942 C   0  0  0  0  0  0  0  0  0  0  0  0
   12.0254   65.7999   32.2204 C   0  0  0  0  0  0  0  0  0  0  0  0
   16.7563   64.8934   28.7165 C   0  0  0  0  0  0  0  0  0  0  0  0
   17.0921   64.6285   30.1797 C   0  0  0  0  0  0  0  0  0  0  0  0
   16.2652   65.0275   31.2361 C   0  0  0  0  0  0  0  0  0  0  0  0
   16.6072   64.7647   32.5612 C   0  0  0  0  0  0  0  0  0  0  0  0
   17.8003   64.0912   32.8530 C   0  0  0  0  0  0  0  0  0  0  0  0
   18.4110   63.6903   33.9993 N   0  0  0  0  0  0  0  0  0  0  0  0
   17.9839   63.8504   35.3827 C   0  0  0  0  0  0  0  0  0  0  0  0
   19.5817   63.0600   33.7096 N   0  0  0  0  0  0  0  0  0  0  0  0
   19.7102   63.0611   32.3925 N   0  0  0  0  0  0  0  0  0  0  0  0
   18.6397   63.6834   31.8212 C   0  0  0  0  0  0  0  0  0  0  0  0
   18.2849   63.9538   30.4787 C   0  0  0  0  0  0  0  0  0  0  0  0
   17.9453   64.8133   27.7615 C   0  0  0  0  0  0  0  0  0  0  0  0
   17.5818   65.0975   26.3102 C   0  0  0  0  0  0  0  0  0  0  0  0
   18.0129   64.2985   25.4477 O   0  0  0  0  0  0  0  0  0  0  0  0
   16.8797   66.1031   26.0589 O   0  0  0  0  0  0  0  0  0  0  0  0
   16.5912   66.6591   26.7558 H   0  0  0  0  0  0  0  0  0  0  0  0
  9 10  1  0  0  0
  8 10  1  0  0  0
 10 11  1  0  0  0
  1  8  1  0  0  0
  2  1  2  0  0  0
  1  6  1  0  0  0
  3  2  1  0  0  0
 20  3  1  0  0  0
  3  4  2  0  0  0
  4  5  1  0  0  0
  5  6  2  0  0  0
  6  7  1  0  0  0
 31 20  1  0  0  0
 21 20  1  0  0  0
 32 31  1  0  0  0
 33 32  2  0  0  0
 34 32  1  0  0  0
 22 21  2  0  0  0
 21 30  1  0  0  0
 23 22  1  0  0  0
 23 24  2  0  0  0
 25 24  1  0  0  0
 24 29  1  0  0  0
 26 25  1  0  0  0
 25 27  1  0  0  0
 27 28  2  0  0  0
 29 28  1  0  0  0
 29 30  2  0  0  0
 14 11  1  0  0  0
 11 12  2  0  0  0
 11 13  2  0  0  0
 19 14  2  0  0  0
 15 14  1  0  0  0
 16 15  2  0  0  0
 17 16  1  0  0  0
 17 18  2  0  0  0
 18 19  1  0  0  0
 34 35  1  0  0  0
M  END
> <minimizedAffinity>
-9.90136

$$$$
5FNT_0PL_A_1615


 35 38  0  0  0  0  0  0  0  0999 V2000
   13.2072   63.6756   25.3004 C   0  0  0  0  0  0  0  0  0  0  0  0
   14.3062   64.4294   25.6994 C   0  0  0  0  0  0  0  0  0  0  0  0
   15.2948   63.8984   26.5211 C   0  0  0  0  0  0  0  0  0  0  0  0
   15.1665   62.5793   26.9464 C   0  0  0  0  0  0  0  0  0  0  0  0
   14.0817   61.8153   26.5598 C   0  0  0  0  0  0  0  0  0  0  0  0
   13.1101   62.3613   25.7428 C   0  0  0  0  0  0  0  0  0  0  0  0
   11.7604   61.3801   25.2733 Cl  0  0  0  0  0  0  0  0  0  0  0  0
   12.1542   64.2884   24.4067 C   0  0  0  0  0  0  0  0  0  0  0  0
    9.7164   64.0524   24.1278 C   0  0  0  0  0  0  0  0  0  0  0  0
   10.8316   64.3300   25.0448 N   0  0  0  0  0  0  0  0  0  0  0  0
   10.5701   65.4647   26.1857 S   0  0  0  0  0  0  0  0  0  0  0  0
   11.6063   66.4403   26.0443 O   0  0  0  0  0  0  0  0  0  0  0  0
    9.1972   65.8578   26.0961 O   0  0  0  0  0  0  0  0  0  0  0  0
   10.8063   64.6189   27.7142 C   0  0  0  0  0  0  0  0  0  0  0  0
    9.8628   63.7058   28.1513 C   0  0  0  0  0  0  0  0  0  0  0  0
   10.0543   63.0458   29.3511 C   0  0  0  0  0  0  0  0  0  0  0  0
   11.1814   63.2976   30.1061 C   0  0  0  0  0  0  0  0  0  0  0  0
   12.1205   64.2085   29.6681 C   0  0  0  0  0  0  0  0  0  0  0  0
   11.9375   64.8714   28.4719 C   0  0  0  0  0  0  0  0  0  0  0  0
   16.4968   64.7228   26.9560 C   0  0  0  0  0  0  0  0  0  0  0  0
   16.6653   64.6757   28.4704 C   0  0  0  0  0  0  0  0  0  0  0  0
   17.8086   64.1642   29.0948 C   0  0  0  0  0  0  0  0  0  0  0  0
   17.9249   64.1405   30.4833 C   0  0  0  0  0  0  0  0  0  0  0  0
   16.8825   64.6331   31.2789 C   0  0  0  0  0  0  0  0  0  0  0  0
   16.6823   64.7530   32.6179 N   0  0  0  0  0  0  0  0  0  0  0  0
   17.5530   64.3765   33.7234 C   0  0  0  0  0  0  0  0  0  0  0  0
   15.4668   65.3147   32.8605 N   0  0  0  0  0  0  0  0  0  0  0  0
   14.9036   65.5489   31.6862 N   0  0  0  0  0  0  0  0  0  0  0  0
   15.7354   65.1474   30.6830 C   0  0  0  0  0  0  0  0  0  0  0  0
   15.6255   65.1682   29.2728 C   0  0  0  0  0  0  0  0  0  0  0  0
   17.7512   64.3684   26.1604 C   0  0  0  0  0  0  0  0  0  0  0  0
   17.8829   65.1402   24.8542 C   0  0  0  0  0  0  0  0  0  0  0  0
   17.4984   66.3320   24.8552 O   0  0  0  0  0  0  0  0  0  0  0  0
   18.3628   64.5494   23.8601 O   0  0  0  0  0  0  0  0  0  0  0  0
   18.6307   63.6544   23.9313 H   0  0  0  0  0  0  0  0  0  0  0  0
  9 10  1  0  0  0
  8 10  1  0  0  0
 10 11  1  0  0  0
  1  8  1  0  0  0
  2  1  2  0  0  0
  1  6  1  0  0  0
  3  2  1  0  0  0
 20  3  1  0  0  0
  3  4  2  0  0  0
  4  5  1  0  0  0
  5  6  2  0  0  0
  6  7  1  0  0  0
 31 20  1  0  0  0
 21 20  1  0  0  0
 32 31  1  0  0  0
 33 32  2  0  0  0
 34 32  1  0  0  0
 22 21  2  0  0  0
 21 30  1  0  0  0
 23 22  1  0  0  0
 23 24  2  0  0  0
 25 24  1  0  0  0
 24 29  1  0  0  0
 26 25  1  0  0  0
 25 27  1  0  0  0
 27 28  2  0  0  0
 29 28  1  0  0  0
 29 30  2  0  0  0
 14 11  1  0  0  0
 11 12  2  0  0  0
 11 13  2  0  0  0
 19 14  2  0  0  0
 15 14  1  0  0  0
 16 15  2  0  0  0
 17 16  1  0  0  0
 17 18  2  0  0  0
 18 19  1  0  0  0
 34 35  1  0  0  0
M  END
> <minimizedAffinity>
-9.68645

$$$$
5FNT_0PL_A_1615


 35 38  0  0  0  0  0  0  0  0999 V2000
   13.0506   65.4994   31.4217 C   0  0  0  0  0  0  0  0  0  0  0  0
   14.2220   64.8859   30.9894 C   0  0  0  0  0  0  0  0  0  0  0  0
   15.4665   65.4790   31.1739 C   0  0  0  0  0  0  0  0  0  0  0  0
   15.5242   66.7169   31.8077 C   0  0  0  0  0  0  0  0  0  0  0  0
   14.3710   67.3410   32.2441 C   0  0  0  0  0  0  0  0  0  0  0  0
   13.1440   66.7352   32.0514 C   0  0  0  0  0  0  0  0  0  0  0  0
   11.7140   67.5407   32.6090 Cl  0  0  0  0  0  0  0  0  0  0  0  0
   11.7175   64.8226   31.2030 C   0  0  0  0  0  0  0  0  0  0  0  0
   10.4385   65.7789   29.3251 C   0  0  0  0  0  0  0  0  0  0  0  0
   11.3622   64.7295   29.7805 N   0  0  0  0  0  0  0  0  0  0  0  0
   11.1473   63.2446   29.1433 S   0  0  0  0  0  0  0  0  0  0  0  0
   11.4994   62.3027   30.1604 O   0  0  0  0  0  0  0  0  0  0  0  0
    9.8431   63.2122   28.5556 O   0  0  0  0  0  0  0  0  0  0  0  0
   12.3410   63.1402   27.8504 C   0  0  0  0  0  0  0  0  0  0  0  0
   12.5108   61.9521   27.1614 C   0  0  0  0  0  0  0  0  0  0  0  0
   13.4489   61.8770   26.1483 C   0  0  0  0  0  0  0  0  0  0  0  0
   14.2096   62.9826   25.8276 C   0  0  0  0  0  0  0  0  0  0  0  0
   14.0384   64.1658   26.5162 C   0  0  0  0  0  0  0  0  0  0  0  0
   13.1045   64.2496   27.5283 C   0  0  0  0  0  0  0  0  0  0  0  0
   16.7469   64.8071   30.7022 C   0  0  0  0  0  0  0  0  0  0  0  0
   17.5439   64.2712   31.8860 C   0  0  0  0  0  0  0  0  0  0  0  0
   17.0782   64.3229   33.2048 C   0  0  0  0  0  0  0  0  0  0  0  0
   17.8370   63.8201   34.2600 C   0  0  0  0  0  0  0  0  0  0  0  0
   19.0924   63.2521   34.0074 C   0  0  0  0  0  0  0  0  0  0  0  0
   20.0552   62.6881   34.7835 N   0  0  0  0  0  0  0  0  0  0  0  0
   20.0839   62.4863   36.2259 C   0  0  0  0  0  0  0  0  0  0  0  0
   21.1020   62.2868   34.0121 N   0  0  0  0  0  0  0  0  0  0  0  0
   20.8039   62.5929   32.7597 N   0  0  0  0  0  0  0  0  0  0  0  0
   19.5781   63.1879   32.7054 C   0  0  0  0  0  0  0  0  0  0  0  0
   18.8013   63.7004   31.6399 C   0  0  0  0  0  0  0  0  0  0  0  0
   16.4840   63.7903   29.5936 C   0  0  0  0  0  0  0  0  0  0  0  0
   17.3268   64.0175   28.3457 C   0  0  0  0  0  0  0  0  0  0  0  0
   17.1792   65.1086   27.7491 O   0  0  0  0  0  0  0  0  0  0  0  0
   18.1133   63.1121   27.9862 O   0  0  0  0  0  0  0  0  0  0  0  0
   18.1725   62.3190   28.4817 H   0  0  0  0  0  0  0  0  0  0  0  0
  9 10  1  0  0  0
  8 10  1  0  0  0
 10 11  1  0  0  0
  1  8  1  0  0  0
  2  1  2  0  0  0
  1  6  1  0  0  0
  3  2  1  0  0  0
 20  3  1  0  0  0
  3  4  2  0  0  0
  4  5  1  0  0  0
  5  6  2  0  0  0
  6  7  1  0  0  0
 31 20  1  0  0  0
 21 20  1  0  0  0
 32 31  1  0  0  0
 33 32  2  0  0  0
 34 32  1  0  0  0
 22 21  2  0  0  0
 21 30  1  0  0  0
 23 22  1  0  0  0
 23 24  2  0  0  0
 25 24  1  0  0  0
 24 29  1  0  0  0
 26 25  1  0  0  0
 25 27  1  0  0  0
 27 28  2  0  0  0
 29 28  1  0  0  0
 29 30  2  0  0  0
 14 11  1  0  0  0
 11 12  2  0  0  0
 11 13  2  0  0  0
 19 14  2  0  0  0
 15 14  1  0  0  0
 16 15  2  0  0  0
 17 16  1  0  0  0
 17 18  2  0  0  0
 18 19  1  0  0  0
 34 35  1  0  0  0
M  END
> <minimizedAffinity>
-9.58135

$$$$
5FNT_0PL_A_1615


 35 38  0  0  0  0  0  0  0  0999 V2000
   16.8838   64.3521   30.1936 C   0  0  0  0  0  0  0  0  0  0  0  0
   15.5383   64.6674   30.0335 C   0  0  0  0  0  0  0  0  0  0  0  0
   14.7628   65.1145   31.0980 C   0  0  0  0  0  0  0  0  0  0  0  0
   15.3623   65.2439   32.3475 C   0  0  0  0  0  0  0  0  0  0  0  0
   16.6977   64.9357   32.5251 C   0  0  0  0  0  0  0  0  0  0  0  0
   17.4513   64.4929   31.4547 C   0  0  0  0  0  0  0  0  0  0  0  0
   19.1239   64.1136   31.7062 Cl  0  0  0  0  0  0  0  0  0  0  0  0
   17.6930   63.8696   29.0123 C   0  0  0  0  0  0  0  0  0  0  0  0
   16.6966   62.1430   27.5621 C   0  0  0  0  0  0  0  0  0  0  0  0
   16.8561   63.5779   27.8405 N   0  0  0  0  0  0  0  0  0  0  0  0
   16.9868   64.5600   26.5460 S   0  0  0  0  0  0  0  0  0  0  0  0
   17.3787   65.8442   27.0386 O   0  0  0  0  0  0  0  0  0  0  0  0
   17.7933   63.8874   25.5742 O   0  0  0  0  0  0  0  0  0  0  0  0
   15.3452   64.6828   25.9155 C   0  0  0  0  0  0  0  0  0  0  0  0
   15.0948   64.4068   24.5827 C   0  0  0  0  0  0  0  0  0  0  0  0
   13.8048   64.5049   24.0946 C   0  0  0  0  0  0  0  0  0  0  0  0
   12.7745   64.8755   24.9343 C   0  0  0  0  0  0  0  0  0  0  0  0
   13.0269   65.1502   26.2626 C   0  0  0  0  0  0  0  0  0  0  0  0
   14.3111   65.0545   26.7580 C   0  0  0  0  0  0  0  0  0  0  0  0
   13.2921   65.4603   30.9221 C   0  0  0  0  0  0  0  0  0  0  0  0
   13.1287   66.8957   30.4355 C   0  0  0  0  0  0  0  0  0  0  0  0
   12.4715   67.2271   29.2450 C   0  0  0  0  0  0  0  0  0  0  0  0
   12.3415   68.5527   28.8356 C   0  0  0  0  0  0  0  0  0  0  0  0
   12.8773   69.5810   29.6215 C   0  0  0  0  0  0  0  0  0  0  0  0
   12.9237   70.9353   29.5142 N   0  0  0  0  0  0  0  0  0  0  0  0
   12.3935   71.8017   28.4702 C   0  0  0  0  0  0  0  0  0  0  0  0
   13.5801   71.4666   30.5814 N   0  0  0  0  0  0  0  0  0  0  0  0
   13.9446   70.4584   31.3570 N   0  0  0  0  0  0  0  0  0  0  0  0
   13.5349   69.2785   30.8096 C   0  0  0  0  0  0  0  0  0  0  0  0
   13.6622   67.9302   31.2182 C   0  0  0  0  0  0  0  0  0  0  0  0
   12.5543   64.4137   30.0901 C   0  0  0  0  0  0  0  0  0  0  0  0
   11.3074   63.8632   30.7694 C   0  0  0  0  0  0  0  0  0  0  0  0
   11.1110   62.6291   30.6864 O   0  0  0  0  0  0  0  0  0  0  0  0
   10.5535   64.6638   31.3676 O   0  0  0  0  0  0  0  0  0  0  0  0
   10.7626   65.5769   31.3896 H   0  0  0  0  0  0  0  0  0  0  0  0
  9 10  1  0  0  0
  8 10  1  0  0  0
 10 11  1  0  0  0
  1  8  1  0  0  0
  2  1  2  0  0  0
  1  6  1  0  0  0
  3  2  1  0  0  0
 20  3  1  0  0  0
  3  4  2  0  0  0
  4  5  1  0  0  0
  5  6  2  0  0  0
  6  7  1  0  0  0
 31 20  1  0  0  0
 21 20  1  0  0  0
 32 31  1  0  0  0
 33 32  2  0  0  0
 34 32  1  0  0  0
 22 21  2  0  0  0
 21 30  1  0  0  0
 23 22  1  0  0  0
 23 24  2  0  0  0
 25 24  1  0  0  0
 24 29  1  0  0  0
 26 25  1  0  0  0
 25 27  1  0  0  0
 27 28  2  0  0  0
 29 28  1  0  0  0
 29 30  2  0  0  0
 14 11  1  0  0  0
 11 12  2  0  0  0
 11 13  2  0  0  0
 19 14  2  0  0  0
 15 14  1  0  0  0
 16 15  2  0  0  0
 17 16  1  0  0  0
 17 18  2  0  0  0
 18 19  1  0  0  0
 34 35  1  0  0  0
M  END
> <minimizedAffinity>
-9.53160

$$$$
5FNT_0PL_A_1615


 35 38  0  0  0  0  0  0  0  0999 V2000
   15.3798   65.4131   30.9211 C   0  0  0  0  0  0  0  0  0  0  0  0
   14.6434   65.1429   29.7722 C   0  0  0  0  0  0  0  0  0  0  0  0
   15.0822   64.2246   28.8242 C   0  0  0  0  0  0  0  0  0  0  0  0
   16.2899   63.5688   29.0449 C   0  0  0  0  0  0  0  0  0  0  0  0
   17.0347   63.8242   30.1807 C   0  0  0  0  0  0  0  0  0  0  0  0
   16.5813   64.7402   31.1108 C   0  0  0  0  0  0  0  0  0  0  0  0
   17.5358   65.0410   32.5262 Cl  0  0  0  0  0  0  0  0  0  0  0  0
   14.8690   66.4175   31.9277 C   0  0  0  0  0  0  0  0  0  0  0  0
   14.0018   68.4357   30.8091 C   0  0  0  0  0  0  0  0  0  0  0  0
   13.6891   67.1468   31.4436 N   0  0  0  0  0  0  0  0  0  0  0  0
   12.3335   67.0907   32.3472 S   0  0  0  0  0  0  0  0  0  0  0  0
   12.6041   66.2153   33.4454 O   0  0  0  0  0  0  0  0  0  0  0  0
   11.9205   68.4390   32.5892 O   0  0  0  0  0  0  0  0  0  0  0  0
   11.1375   66.3227   31.3046 C   0  0  0  0  0  0  0  0  0  0  0  0
   11.2073   64.9627   31.0585 C   0  0  0  0  0  0  0  0  0  0  0  0
   10.2658   64.3666   30.2398 C   0  0  0  0  0  0  0  0  0  0  0  0
    9.2628   65.1260   29.6732 C   0  0  0  0  0  0  0  0  0  0  0  0
    9.1955   66.4817   29.9201 C   0  0  0  0  0  0  0  0  0  0  0  0
   10.1306   67.0846   30.7360 C   0  0  0  0  0  0  0  0  0  0  0  0
   14.2760   63.9287   27.5689 C   0  0  0  0  0  0  0  0  0  0  0  0
   14.5459   64.9753   26.4938 C   0  0  0  0  0  0  0  0  0  0  0  0
   13.6070   65.9433   26.1193 C   0  0  0  0  0  0  0  0  0  0  0  0
   13.8930   66.8845   25.1323 C   0  0  0  0  0  0  0  0  0  0  0  0
   15.1402   66.8692   24.4947 C   0  0  0  0  0  0  0  0  0  0  0  0
   15.7214   67.6208   23.5226 N   0  0  0  0  0  0  0  0  0  0  0  0
   15.1874   68.7584   22.7860 C   0  0  0  0  0  0  0  0  0  0  0  0
   16.9797   67.1678   23.2708 N   0  0  0  0  0  0  0  0  0  0  0  0
   17.1930   66.1400   24.0765 N   0  0  0  0  0  0  0  0  0  0  0  0
   16.0914   65.9178   24.8489 C   0  0  0  0  0  0  0  0  0  0  0  0
   15.7930   64.9660   25.8520 C   0  0  0  0  0  0  0  0  0  0  0  0
   14.4423   62.4815   27.1105 C   0  0  0  0  0  0  0  0  0  0  0  0
   13.1557   61.6695   27.1763 C   0  0  0  0  0  0  0  0  0  0  0  0
   12.9085   60.9138   26.2088 O   0  0  0  0  0  0  0  0  0  0  0  0
   12.4216   61.7989   28.1822 O   0  0  0  0  0  0  0  0  0  0  0  0
   12.6692   62.3841   28.8707 H   0  0  0  0  0  0  0  0  0  0  0  0
  9 10  1  0  0  0
  8 10  1  0  0  0
 10 11  1  0  0  0
  1  8  1  0  0  0
  2  1  2  0  0  0
  1  6  1  0  0  0
  3  2  1  0  0  0
 20  3  1  0  0  0
  3  4  2  0  0  0
  4  5  1  0  0  0
  5  6  2  0  0  0
  6  7  1  0  0  0
 31 20  1  0  0  0
 21 20  1  0  0  0
 32 31  1  0  0  0
 33 32  2  0  0  0
 34 32  1  0  0  0
 22 21  2  0  0  0
 21 30  1  0  0  0
 23 22  1  0  0  0
 23 24  2  0  0  0
 25 24  1  0  0  0
 24 29  1  0  0  0
 26 25  1  0  0  0
 25 27  1  0  0  0
 27 28  2  0  0  0
 29 28  1  0  0  0
 29 30  2  0  0  0
 14 11  1  0  0  0
 11 12  2  0  0  0
 11 13  2  0  0  0
 19 14  2  0  0  0
 15 14  1  0  0  0
 16 15  2  0  0  0
 17 16  1  0  0  0
 17 18  2  0  0  0
 18 19  1  0  0  0
 34 35  1  0  0  0
M  END
> <minimizedAffinity>
-9.53158

$$$$
5FNT_0PL_A_1615


 35 38  0  0  0  0  0  0  0  0999 V2000
   13.9553   65.2730   30.5576 C   0  0  0  0  0  0  0  0  0  0  0  0
   15.2644   64.9030   30.2667 C   0  0  0  0  0  0  0  0  0  0  0  0
   16.2512   64.8825   31.2468 C   0  0  0  0  0  0  0  0  0  0  0  0
   15.9043   65.2442   32.5453 C   0  0  0  0  0  0  0  0  0  0  0  0
   14.6087   65.6142   32.8529 C   0  0  0  0  0  0  0  0  0  0  0  0
   13.6427   65.6281   31.8648 C   0  0  0  0  0  0  0  0  0  0  0  0
   12.0259   66.0962   32.2789 Cl  0  0  0  0  0  0  0  0  0  0  0  0
   12.9117   65.2824   29.4650 C   0  0  0  0  0  0  0  0  0  0  0  0
   12.1717   63.0289   30.1365 C   0  0  0  0  0  0  0  0  0  0  0  0
   12.5394   63.9284   29.0331 N   0  0  0  0  0  0  0  0  0  0  0  0
   13.3739   63.2642   27.8003 S   0  0  0  0  0  0  0  0  0  0  0  0
   14.2104   64.2933   27.2648 O   0  0  0  0  0  0  0  0  0  0  0  0
   13.9520   62.0456   28.2781 O   0  0  0  0  0  0  0  0  0  0  0  0
   12.1469   62.8629   26.6000 C   0  0  0  0  0  0  0  0  0  0  0  0
   12.4095   61.9031   25.6382 C   0  0  0  0  0  0  0  0  0  0  0  0
   11.4426   61.5930   24.6997 C   0  0  0  0  0  0  0  0  0  0  0  0
   10.2231   62.2381   24.7247 C   0  0  0  0  0  0  0  0  0  0  0  0
    9.9640   63.1947   25.6846 C   0  0  0  0  0  0  0  0  0  0  0  0
   10.9230   63.5100   26.6251 C   0  0  0  0  0  0  0  0  0  0  0  0
   17.6819   64.4767   30.9283 C   0  0  0  0  0  0  0  0  0  0  0  0
   18.4472   64.1468   32.2048 C   0  0  0  0  0  0  0  0  0  0  0  0
   18.8506   65.1209   33.1252 C   0  0  0  0  0  0  0  0  0  0  0  0
   19.5476   64.7780   34.2822 C   0  0  0  0  0  0  0  0  0  0  0  0
   19.8578   63.4361   34.5376 C   0  0  0  0  0  0  0  0  0  0  0  0
   20.5047   62.7827   35.5386 N   0  0  0  0  0  0  0  0  0  0  0  0
   21.1241   63.3146   36.7450 C   0  0  0  0  0  0  0  0  0  0  0  0
   20.5257   61.4454   35.2871 N   0  0  0  0  0  0  0  0  0  0  0  0
   19.8972   61.2544   34.1384 N   0  0  0  0  0  0  0  0  0  0  0  0
   19.4677   62.4483   33.6389 C   0  0  0  0  0  0  0  0  0  0  0  0
   18.7602   62.8049   32.4669 C   0  0  0  0  0  0  0  0  0  0  0  0
   17.7436   63.3995   29.8476 C   0  0  0  0  0  0  0  0  0  0  0  0
   18.0556   63.9448   28.4603 C   0  0  0  0  0  0  0  0  0  0  0  0
   17.9384   63.1530   27.4972 O   0  0  0  0  0  0  0  0  0  0  0  0
   18.4086   65.1415   28.3573 O   0  0  0  0  0  0  0  0  0  0  0  0
   18.4753   65.6779   29.1226 H   0  0  0  0  0  0  0  0  0  0  0  0
  9 10  1  0  0  0
  8 10  1  0  0  0
 10 11  1  0  0  0
  1  8  1  0  0  0
  2  1  2  0  0  0
  1  6  1  0  0  0
  3  2  1  0  0  0
 20  3  1  0  0  0
  3  4  2  0  0  0
  4  5  1  0  0  0
  5  6  2  0  0  0
  6  7  1  0  0  0
 31 20  1  0  0  0
 21 20  1  0  0  0
 32 31  1  0  0  0
 33 32  2  0  0  0
 34 32  1  0  0  0
 22 21  2  0  0  0
 21 30  1  0  0  0
 23 22  1  0  0  0
 23 24  2  0  0  0
 25 24  1  0  0  0
 24 29  1  0  0  0
 26 25  1  0  0  0
 25 27  1  0  0  0
 27 28  2  0  0  0
 29 28  1  0  0  0
 29 30  2  0  0  0
 14 11  1  0  0  0
 11 12  2  0  0  0
 11 13  2  0  0  0
 19 14  2  0  0  0
 15 14  1  0  0  0
 16 15  2  0  0  0
 17 16  1  0  0  0
 17 18  2  0  0  0
 18 19  1  0  0  0
 34 35  1  0  0  0
M  END
> <minimizedAffinity>
-9.49477

$$$$
