5ORH_A4N_A_401


 18 19  0  0  0  0  0  0  0  0999 V2000
   15.4835  151.6286  381.1762 Cl  0  0  0  0  0  0  0  0  0  0  0  0
   16.8286  152.0781  382.1735 C   0  0  0  0  0  0  0  0  0  0  0  0
   17.2319  151.1999  383.1586 C   0  0  0  0  0  0  0  0  0  0  0  0
   18.3003  151.5150  383.9865 C   0  0  0  0  0  0  0  0  0  0  0  0
   18.9516  152.7211  383.7898 C   0  0  0  0  0  0  0  0  0  0  0  0
   18.5481  153.6012  382.8015 C   0  0  0  0  0  0  0  0  0  0  0  0
   17.4695  153.2991  381.9735 C   0  0  0  0  0  0  0  0  0  0  0  0
   17.0332  154.2881  380.9427 C   0  0  0  0  0  0  0  0  0  0  0  0
   17.6116  154.3299  379.6605 C   0  0  0  0  0  0  0  0  0  0  0  0
   18.6997  153.3776  379.2426 C   0  0  0  0  0  0  0  0  0  0  0  0
   16.0233  155.1900  381.2744 C   0  0  0  0  0  0  0  0  0  0  0  0
   15.5856  156.1274  380.3569 C   0  0  0  0  0  0  0  0  0  0  0  0
   16.1452  156.1756  379.1061 C   0  0  0  0  0  0  0  0  0  0  0  0
   17.1468  155.2881  378.7616 C   0  0  0  0  0  0  0  0  0  0  0  0
   18.7297  150.5716  385.0824 C   0  0  0  0  0  0  0  0  0  0  0  0
   19.2562  149.2996  384.6012 N   0  0  0  0  0  0  0  0  0  0  0  0
   18.5280  148.8023  384.0886 H   0  0  0  0  0  0  0  0  0  0  0  0
   19.5593  148.7350  385.3947 H   0  0  0  0  0  0  0  0  0  0  0  0
 14 13  2  0  0  0
 14  9  1  0  0  0
 10  9  1  0  0  0
 13 12  1  0  0  0
  9  8  2  0  0  0
 12 11  2  0  0  0
  8 11  1  0  0  0
  8  7  1  0  0  0
  1  2  1  0  0  0
  7  2  2  0  0  0
  7  6  1  0  0  0
  2  3  1  0  0  0
  6  5  2  0  0  0
  3  4  2  0  0  0
  5  4  1  0  0  0
  4 15  1  0  0  0
 16 15  1  0  0  0
 16 17  1  0  0  0
 16 18  1  0  0  0
M  END
> <minimizedAffinity>
-7.42840

$$$$
5ORH_A4N_A_401


 18 19  0  0  0  0  0  0  0  0999 V2000
   15.9905  155.9125  380.6628 Cl  0  0  0  0  0  0  0  0  0  0  0  0
   17.3583  155.3196  379.7776 C   0  0  0  0  0  0  0  0  0  0  0  0
   18.0321  156.1981  378.9538 C   0  0  0  0  0  0  0  0  0  0  0  0
   19.1304  155.7715  378.2203 C   0  0  0  0  0  0  0  0  0  0  0  0
   19.5341  154.4530  378.3465 C   0  0  0  0  0  0  0  0  0  0  0  0
   18.8593  153.5725  379.1733 C   0  0  0  0  0  0  0  0  0  0  0  0
   17.7489  153.9881  379.9042 C   0  0  0  0  0  0  0  0  0  0  0  0
   17.0179  153.0030  380.7564 C   0  0  0  0  0  0  0  0  0  0  0  0
   17.4365  152.6966  382.0646 C   0  0  0  0  0  0  0  0  0  0  0  0
   18.6409  153.3460  382.6916 C   0  0  0  0  0  0  0  0  0  0  0  0
   15.8904  152.3764  380.2277 C   0  0  0  0  0  0  0  0  0  0  0  0
   15.1804  151.4545  380.9747 C   0  0  0  0  0  0  0  0  0  0  0  0
   15.5827  151.1494  382.2494 C   0  0  0  0  0  0  0  0  0  0  0  0
   16.6978  151.7624  382.7883 C   0  0  0  0  0  0  0  0  0  0  0  0
   19.8555  156.7194  377.2976 C   0  0  0  0  0  0  0  0  0  0  0  0
   19.8430  156.3137  375.8968 N   0  0  0  0  0  0  0  0  0  0  0  0
   20.3250  155.4203  375.7973 H   0  0  0  0  0  0  0  0  0  0  0  0
   20.3168  157.0203  375.3340 H   0  0  0  0  0  0  0  0  0  0  0  0
 14 13  2  0  0  0
 14  9  1  0  0  0
 10  9  1  0  0  0
 13 12  1  0  0  0
  9  8  2  0  0  0
 12 11  2  0  0  0
  8 11  1  0  0  0
  8  7  1  0  0  0
  1  2  1  0  0  0
  7  2  2  0  0  0
  7  6  1  0  0  0
  2  3  1  0  0  0
  6  5  2  0  0  0
  3  4  2  0  0  0
  5  4  1  0  0  0
  4 15  1  0  0  0
 16 15  1  0  0  0
 16 17  1  0  0  0
 16 18  1  0  0  0
M  END
> <minimizedAffinity>
-7.07274

$$$$
5ORH_A4N_A_401


 18 19  0  0  0  0  0  0  0  0999 V2000
   19.6575  153.8616  378.4303 Cl  0  0  0  0  0  0  0  0  0  0  0  0
   18.3292  153.9948  379.5366 C   0  0  0  0  0  0  0  0  0  0  0  0
   17.3391  153.0349  379.4848 C   0  0  0  0  0  0  0  0  0  0  0  0
   16.2525  153.0992  380.3457 C   0  0  0  0  0  0  0  0  0  0  0  0
   16.1965  154.1394  381.2581 C   0  0  0  0  0  0  0  0  0  0  0  0
   17.1897  155.1012  381.3108 C   0  0  0  0  0  0  0  0  0  0  0  0
   18.2779  155.0518  380.4430 C   0  0  0  0  0  0  0  0  0  0  0  0
   19.3126  156.1277  380.4979 C   0  0  0  0  0  0  0  0  0  0  0  0
   20.4788  155.9990  381.2749 C   0  0  0  0  0  0  0  0  0  0  0  0
   20.7626  154.7680  382.0933 C   0  0  0  0  0  0  0  0  0  0  0  0
   19.1036  157.2875  379.7533 C   0  0  0  0  0  0  0  0  0  0  0  0
   20.0296  158.3144  379.7724 C   0  0  0  0  0  0  0  0  0  0  0  0
   21.1676  158.1972  380.5282 C   0  0  0  0  0  0  0  0  0  0  0  0
   21.3898  157.0536  381.2713 C   0  0  0  0  0  0  0  0  0  0  0  0
   15.1534  152.0683  380.2770 C   0  0  0  0  0  0  0  0  0  0  0  0
   15.2850  150.9911  381.2514 N   0  0  0  0  0  0  0  0  0  0  0  0
   16.1477  150.4764  381.0748 H   0  0  0  0  0  0  0  0  0  0  0  0
   14.4889  150.3588  381.1688 H   0  0  0  0  0  0  0  0  0  0  0  0
 14 13  2  0  0  0
 14  9  1  0  0  0
 10  9  1  0  0  0
 13 12  1  0  0  0
  9  8  2  0  0  0
 12 11  2  0  0  0
  8 11  1  0  0  0
  8  7  1  0  0  0
  1  2  1  0  0  0
  7  2  2  0  0  0
  7  6  1  0  0  0
  2  3  1  0  0  0
  6  5  2  0  0  0
  3  4  2  0  0  0
  5  4  1  0  0  0
  4 15  1  0  0  0
 16 15  1  0  0  0
 16 17  1  0  0  0
 16 18  1  0  0  0
M  END
> <minimizedAffinity>
-6.33191

$$$$
5ORH_A4N_A_401


 18 19  0  0  0  0  0  0  0  0999 V2000
   20.2091  154.4597  382.7527 Cl  0  0  0  0  0  0  0  0  0  0  0  0
   19.0157  153.2092  382.8870 C   0  0  0  0  0  0  0  0  0  0  0  0
   19.1408  152.2966  383.9146 C   0  0  0  0  0  0  0  0  0  0  0  0
   18.2144  151.2738  384.0625 C   0  0  0  0  0  0  0  0  0  0  0  0
   17.1634  151.2028  383.1637 C   0  0  0  0  0  0  0  0  0  0  0  0
   17.0373  152.1185  382.1342 C   0  0  0  0  0  0  0  0  0  0  0  0
   17.9685  153.1411  381.9703 C   0  0  0  0  0  0  0  0  0  0  0  0
   17.8268  154.0892  380.8249 C   0  0  0  0  0  0  0  0  0  0  0  0
   16.8533  155.1054  380.8167 C   0  0  0  0  0  0  0  0  0  0  0  0
   15.8987  155.3075  381.9628 C   0  0  0  0  0  0  0  0  0  0  0  0
   18.6902  153.9515  379.7391 C   0  0  0  0  0  0  0  0  0  0  0  0
   18.5982  154.8018  378.6525 C   0  0  0  0  0  0  0  0  0  0  0  0
   17.6513  155.7933  378.6362 C   0  0  0  0  0  0  0  0  0  0  0  0
   16.7884  155.9434  379.7051 C   0  0  0  0  0  0  0  0  0  0  0  0
   18.3595  150.2571  385.1674 C   0  0  0  0  0  0  0  0  0  0  0  0
   19.3394  149.2128  384.8913 N   0  0  0  0  0  0  0  0  0  0  0  0
   19.0466  148.6798  384.0724 H   0  0  0  0  0  0  0  0  0  0  0  0
   19.4080  148.5896  385.6958 H   0  0  0  0  0  0  0  0  0  0  0  0
 14 13  2  0  0  0
 14  9  1  0  0  0
 10  9  1  0  0  0
 13 12  1  0  0  0
  9  8  2  0  0  0
 12 11  2  0  0  0
  8 11  1  0  0  0
  8  7  1  0  0  0
  1  2  1  0  0  0
  7  2  2  0  0  0
  7  6  1  0  0  0
  2  3  1  0  0  0
  6  5  2  0  0  0
  3  4  2  0  0  0
  5  4  1  0  0  0
  4 15  1  0  0  0
 16 15  1  0  0  0
 16 17  1  0  0  0
 16 18  1  0  0  0
M  END
> <minimizedAffinity>
-6.32747

$$$$
5ORH_A4N_A_401


 18 19  0  0  0  0  0  0  0  0999 V2000
   20.2627  154.4697  382.2351 Cl  0  0  0  0  0  0  0  0  0  0  0  0
   19.9711  155.8637  381.2464 C   0  0  0  0  0  0  0  0  0  0  0  0
   20.9149  156.8705  381.2447 C   0  0  0  0  0  0  0  0  0  0  0  0
   20.7261  158.0092  380.4740 C   0  0  0  0  0  0  0  0  0  0  0  0
   19.5784  158.1002  379.7045 C   0  0  0  0  0  0  0  0  0  0  0  0
   18.6327  157.0903  379.7053 C   0  0  0  0  0  0  0  0  0  0  0  0
   18.8075  155.9492  380.4846 C   0  0  0  0  0  0  0  0  0  0  0  0
   17.7490  154.8954  380.4946 C   0  0  0  0  0  0  0  0  0  0  0  0
   17.8231  153.7590  379.6680 C   0  0  0  0  0  0  0  0  0  0  0  0
   18.9755  153.5280  378.7276 C   0  0  0  0  0  0  0  0  0  0  0  0
   16.6617  155.0556  381.3523 C   0  0  0  0  0  0  0  0  0  0  0  0
   15.6536  154.1102  381.3972 C   0  0  0  0  0  0  0  0  0  0  0  0
   15.7177  153.0010  380.5937 C   0  0  0  0  0  0  0  0  0  0  0  0
   16.7892  152.8272  379.7386 C   0  0  0  0  0  0  0  0  0  0  0  0
   21.7408  159.1253  380.4876 C   0  0  0  0  0  0  0  0  0  0  0  0
   21.3200  160.3041  381.2361 N   0  0  0  0  0  0  0  0  0  0  0  0
   20.4875  160.7030  380.8022 H   0  0  0  0  0  0  0  0  0  0  0  0
   22.0700  160.9953  381.2317 H   0  0  0  0  0  0  0  0  0  0  0  0
 14 13  2  0  0  0
 14  9  1  0  0  0
 10  9  1  0  0  0
 13 12  1  0  0  0
  9  8  2  0  0  0
 12 11  2  0  0  0
  8 11  1  0  0  0
  8  7  1  0  0  0
  1  2  1  0  0  0
  7  2  2  0  0  0
  7  6  1  0  0  0
  2  3  1  0  0  0
  6  5  2  0  0  0
  3  4  2  0  0  0
  5  4  1  0  0  0
  4 15  1  0  0  0
 16 15  1  0  0  0
 16 17  1  0  0  0
 16 18  1  0  0  0
M  END
> <minimizedAffinity>
-6.16680

$$$$
5ORH_A4N_A_401


 18 19  0  0  0  0  0  0  0  0999 V2000
   20.3441  153.8740  380.1872 Cl  0  0  0  0  0  0  0  0  0  0  0  0
   18.6719  154.1983  379.8642 C   0  0  0  0  0  0  0  0  0  0  0  0
   17.7580  153.1875  380.0821 C   0  0  0  0  0  0  0  0  0  0  0  0
   16.4083  153.3951  379.8342 C   0  0  0  0  0  0  0  0  0  0  0  0
   16.0071  154.6388  379.3764 C   0  0  0  0  0  0  0  0  0  0  0  0
   16.9231  155.6526  379.1590 C   0  0  0  0  0  0  0  0  0  0  0  0
   18.2810  155.4501  379.3934 C   0  0  0  0  0  0  0  0  0  0  0  0
   19.2491  156.5518  379.1103 C   0  0  0  0  0  0  0  0  0  0  0  0
   19.9515  156.6300  377.8933 C   0  0  0  0  0  0  0  0  0  0  0  0
   19.7672  155.6152  376.7970 C   0  0  0  0  0  0  0  0  0  0  0  0
   19.4533  157.5233  380.0890 C   0  0  0  0  0  0  0  0  0  0  0  0
   20.3412  158.5620  379.8772 C   0  0  0  0  0  0  0  0  0  0  0  0
   21.0305  158.6444  378.6948 C   0  0  0  0  0  0  0  0  0  0  0  0
   20.8388  157.6897  377.7144 C   0  0  0  0  0  0  0  0  0  0  0  0
   15.4072  152.2865  380.0451 C   0  0  0  0  0  0  0  0  0  0  0  0
   15.7547  151.3668  381.1222 N   0  0  0  0  0  0  0  0  0  0  0  0
   16.6323  150.8974  380.8986 H   0  0  0  0  0  0  0  0  0  0  0  0
   15.0152  150.6723  381.2282 H   0  0  0  0  0  0  0  0  0  0  0  0
 14 13  2  0  0  0
 14  9  1  0  0  0
 10  9  1  0  0  0
 13 12  1  0  0  0
  9  8  2  0  0  0
 12 11  2  0  0  0
  8 11  1  0  0  0
  8  7  1  0  0  0
  1  2  1  0  0  0
  7  2  2  0  0  0
  7  6  1  0  0  0
  2  3  1  0  0  0
  6  5  2  0  0  0
  3  4  2  0  0  0
  5  4  1  0  0  0
  4 15  1  0  0  0
 16 15  1  0  0  0
 16 17  1  0  0  0
 16 18  1  0  0  0
M  END
> <minimizedAffinity>
-6.00392

$$$$
5ORH_A4N_A_401


 18 19  0  0  0  0  0  0  0  0999 V2000
   16.2468  156.6002  379.0714 Cl  0  0  0  0  0  0  0  0  0  0  0  0
   17.0495  155.3471  379.9609 C   0  0  0  0  0  0  0  0  0  0  0  0
   16.2767  154.3608  380.5392 C   0  0  0  0  0  0  0  0  0  0  0  0
   16.8707  153.3381  381.2655 C   0  0  0  0  0  0  0  0  0  0  0  0
   18.2504  153.3299  381.3828 C   0  0  0  0  0  0  0  0  0  0  0  0
   19.0254  154.3180  380.8021 C   0  0  0  0  0  0  0  0  0  0  0  0
   18.4376  155.3549  380.0814 C   0  0  0  0  0  0  0  0  0  0  0  0
   19.2988  156.4285  379.5011 C   0  0  0  0  0  0  0  0  0  0  0  0
   19.8249  156.3374  378.1991 C   0  0  0  0  0  0  0  0  0  0  0  0
   19.5481  155.1583  377.3055 C   0  0  0  0  0  0  0  0  0  0  0  0
   19.5818  157.5472  380.2834 C   0  0  0  0  0  0  0  0  0  0  0  0
   20.3765  158.5674  379.7938 C   0  0  0  0  0  0  0  0  0  0  0  0
   20.8942  158.4854  378.5269 C   0  0  0  0  0  0  0  0  0  0  0  0
   20.6224  157.3834  377.7386 C   0  0  0  0  0  0  0  0  0  0  0  0
   16.0304  152.2715  381.9225 C   0  0  0  0  0  0  0  0  0  0  0  0
   15.4841  151.2878  380.9946 N   0  0  0  0  0  0  0  0  0  0  0  0
   14.8606  151.7526  380.3346 H   0  0  0  0  0  0  0  0  0  0  0  0
   14.9632  150.5820  381.5152 H   0  0  0  0  0  0  0  0  0  0  0  0
 14 13  2  0  0  0
 14  9  1  0  0  0
 10  9  1  0  0  0
 13 12  1  0  0  0
  9  8  2  0  0  0
 12 11  2  0  0  0
  8 11  1  0  0  0
  8  7  1  0  0  0
  1  2  1  0  0  0
  7  2  2  0  0  0
  7  6  1  0  0  0
  2  3  1  0  0  0
  6  5  2  0  0  0
  3  4  2  0  0  0
  5  4  1  0  0  0
  4 15  1  0  0  0
 16 15  1  0  0  0
 16 17  1  0  0  0
 16 18  1  0  0  0
M  END
> <minimizedAffinity>
-5.95690

$$$$
5ORH_A4N_A_401


 18 19  0  0  0  0  0  0  0  0999 V2000
   20.3678  154.2414  381.5995 Cl  0  0  0  0  0  0  0  0  0  0  0  0
   18.8466  153.5417  381.1496 C   0  0  0  0  0  0  0  0  0  0  0  0
   18.1418  152.8427  382.1083 C   0  0  0  0  0  0  0  0  0  0  0  0
   16.9213  152.2597  381.7972 C   0  0  0  0  0  0  0  0  0  0  0  0
   16.4300  152.4079  380.5111 C   0  0  0  0  0  0  0  0  0  0  0  0
   17.1361  153.1097  379.5502 C   0  0  0  0  0  0  0  0  0  0  0  0
   18.3673  153.6881  379.8495 C   0  0  0  0  0  0  0  0  0  0  0  0
   19.1236  154.4045  378.7791 C   0  0  0  0  0  0  0  0  0  0  0  0
   18.8750  155.7546  378.4694 C   0  0  0  0  0  0  0  0  0  0  0  0
   17.8385  156.5650  379.2004 C   0  0  0  0  0  0  0  0  0  0  0  0
   20.1007  153.7030  378.0744 C   0  0  0  0  0  0  0  0  0  0  0  0
   20.8267  154.3197  377.0720 C   0  0  0  0  0  0  0  0  0  0  0  0
   20.5893  155.6343  376.7631 C   0  0  0  0  0  0  0  0  0  0  0  0
   19.6246  156.3437  377.4529 C   0  0  0  0  0  0  0  0  0  0  0  0
   16.1580  151.4718  382.8327 C   0  0  0  0  0  0  0  0  0  0  0  0
   14.9465  150.8380  382.3254 N   0  0  0  0  0  0  0  0  0  0  0  0
   14.2977  151.5553  382.0013 H   0  0  0  0  0  0  0  0  0  0  0  0
   14.5092  150.2955  383.0703 H   0  0  0  0  0  0  0  0  0  0  0  0
 14 13  2  0  0  0
 14  9  1  0  0  0
 10  9  1  0  0  0
 13 12  1  0  0  0
  9  8  2  0  0  0
 12 11  2  0  0  0
  8 11  1  0  0  0
  8  7  1  0  0  0
  1  2  1  0  0  0
  7  2  2  0  0  0
  7  6  1  0  0  0
  2  3  1  0  0  0
  6  5  2  0  0  0
  3  4  2  0  0  0
  5  4  1  0  0  0
  4 15  1  0  0  0
 16 15  1  0  0  0
 16 17  1  0  0  0
 16 18  1  0  0  0
M  END
> <minimizedAffinity>
-5.93327

$$$$
5ORH_A4N_A_401


 18 19  0  0  0  0  0  0  0  0999 V2000
   19.4850  152.9780  378.2896 Cl  0  0  0  0  0  0  0  0  0  0  0  0
   19.2434  154.5916  378.8761 C   0  0  0  0  0  0  0  0  0  0  0  0
   20.0419  155.5961  378.3682 C   0  0  0  0  0  0  0  0  0  0  0  0
   19.8914  156.9036  378.8085 C   0  0  0  0  0  0  0  0  0  0  0  0
   18.9174  157.1709  379.7559 C   0  0  0  0  0  0  0  0  0  0  0  0
   18.1161  156.1641  380.2642 C   0  0  0  0  0  0  0  0  0  0  0  0
   18.2677  154.8470  379.8374 C   0  0  0  0  0  0  0  0  0  0  0  0
   17.4145  153.7767  380.4353 C   0  0  0  0  0  0  0  0  0  0  0  0
   17.6790  153.2394  381.7089 C   0  0  0  0  0  0  0  0  0  0  0  0
   18.8318  153.7131  382.5529 C   0  0  0  0  0  0  0  0  0  0  0  0
   16.3285  153.3054  379.6992 C   0  0  0  0  0  0  0  0  0  0  0  0
   15.5097  152.3133  380.2065 C   0  0  0  0  0  0  0  0  0  0  0  0
   15.7617  151.7837  381.4459 C   0  0  0  0  0  0  0  0  0  0  0  0
   16.8339  152.2405  382.1884 C   0  0  0  0  0  0  0  0  0  0  0  0
   20.7783  158.0021  378.2772 C   0  0  0  0  0  0  0  0  0  0  0  0
   20.3642  158.5279  376.9814 N   0  0  0  0  0  0  0  0  0  0  0  0
   20.4084  157.7855  376.2834 H   0  0  0  0  0  0  0  0  0  0  0  0
   20.9866  159.2886  376.7086 H   0  0  0  0  0  0  0  0  0  0  0  0
 14 13  2  0  0  0
 14  9  1  0  0  0
 10  9  1  0  0  0
 13 12  1  0  0  0
  9  8  2  0  0  0
 12 11  2  0  0  0
  8 11  1  0  0  0
  8  7  1  0  0  0
  1  2  1  0  0  0
  7  2  2  0  0  0
  7  6  1  0  0  0
  2  3  1  0  0  0
  6  5  2  0  0  0
  3  4  2  0  0  0
  5  4  1  0  0  0
  4 15  1  0  0  0
 16 15  1  0  0  0
 16 17  1  0  0  0
 16 18  1  0  0  0
M  END
> <minimizedAffinity>
-5.91459

$$$$
5ORH_A4N_A_401


 18 19  0  0  0  0  0  0  0  0999 V2000
   19.3239  153.2880  379.7755 Cl  0  0  0  0  0  0  0  0  0  0  0  0
   17.8704  154.0585  380.3228 C   0  0  0  0  0  0  0  0  0  0  0  0
   17.1574  154.8212  379.4204 C   0  0  0  0  0  0  0  0  0  0  0  0
   15.9899  155.4624  379.8103 C   0  0  0  0  0  0  0  0  0  0  0  0
   15.5587  155.3070  381.1170 C   0  0  0  0  0  0  0  0  0  0  0  0
   16.2729  154.5414  382.0215 C   0  0  0  0  0  0  0  0  0  0  0  0
   17.4519  153.9039  381.6429 C   0  0  0  0  0  0  0  0  0  0  0  0
   18.2211  153.1180  382.6537 C   0  0  0  0  0  0  0  0  0  0  0  0
   17.7826  151.8605  383.1085 C   0  0  0  0  0  0  0  0  0  0  0  0
   16.5168  151.2235  382.6012 C   0  0  0  0  0  0  0  0  0  0  0  0
   19.4055  153.6582  383.1526 C   0  0  0  0  0  0  0  0  0  0  0  0
   20.1528  152.9720  384.0921 C   0  0  0  0  0  0  0  0  0  0  0  0
   19.7315  151.7470  384.5415 C   0  0  0  0  0  0  0  0  0  0  0  0
   18.5601  151.1976  384.0563 C   0  0  0  0  0  0  0  0  0  0  0  0
   15.2196  156.3190  378.8364 C   0  0  0  0  0  0  0  0  0  0  0  0
   13.8201  156.5178  379.1953 N   0  0  0  0  0  0  0  0  0  0  0  0
   13.3394  155.6182  379.2005 H   0  0  0  0  0  0  0  0  0  0  0  0
   13.3788  157.1352  378.5138 H   0  0  0  0  0  0  0  0  0  0  0  0
 14 13  2  0  0  0
 14  9  1  0  0  0
 10  9  1  0  0  0
 13 12  1  0  0  0
  9  8  2  0  0  0
 12 11  2  0  0  0
  8 11  1  0  0  0
  8  7  1  0  0  0
  1  2  1  0  0  0
  7  2  2  0  0  0
  7  6  1  0  0  0
  2  3  1  0  0  0
  6  5  2  0  0  0
  3  4  2  0  0  0
  5  4  1  0  0  0
  4 15  1  0  0  0
 16 15  1  0  0  0
 16 17  1  0  0  0
 16 18  1  0  0  0
M  END
> <minimizedAffinity>
-5.87073

$$$$
