4IBB_1DK_A_401


 35 38  0  0  0  0  0  0  0  0999 V2000
    1.7185   20.2378    1.3634 C   0  0  0  0  0  0  0  0  0  0  0  0
    2.6967   19.3993    0.7699 C   0  0  0  0  0  0  0  0  0  0  0  0
    3.9436   19.9927    1.0083 C   0  0  0  0  0  0  0  0  0  0  0  0
    5.1136   19.5273    0.6356 O   0  0  0  0  0  0  0  0  0  0  0  0
    3.7388   21.2017    1.7418 C   0  0  0  0  0  0  0  0  0  0  0  0
    4.7096   22.0553    2.1576 O   0  0  0  0  0  0  0  0  0  0  0  0
    2.4169   21.3753    1.9552 N   0  0  0  0  0  0  0  0  0  0  0  0
    5.1671   18.7244    0.1554 H   0  0  0  0  0  0  0  0  0  0  0  0
   -1.0837   19.6465    1.8481 C   0  0  0  0  0  0  0  0  0  0  0  0
   -0.6741   20.3691    0.5936 C   0  0  0  0  0  0  0  0  0  0  0  0
   -1.6433   20.7522   -0.3273 C   0  0  0  0  0  0  0  0  0  0  0  0
   -1.2599   21.4184   -1.4819 C   0  0  0  0  0  0  0  0  0  0  0  0
   -2.2882   21.8414   -2.4980 C   0  0  0  0  0  0  0  0  0  0  0  0
    0.0940   21.7062   -1.7261 C   0  0  0  0  0  0  0  0  0  0  0  0
    0.4463   22.4029   -2.9467 C   0  0  0  0  0  0  0  0  0  0  0  0
    1.0654   21.3263   -0.8086 C   0  0  0  0  0  0  0  0  0  0  0  0
    0.6883   20.6529    0.3552 C   0  0  0  0  0  0  0  0  0  0  0  0
    1.8008   22.4050    2.7635 C   0  0  0  0  0  0  0  0  0  0  0  0
    1.7660   23.7260    2.2923 C   0  0  0  0  0  0  0  0  0  0  0  0
    1.1878   24.7250    3.0687 C   0  0  0  0  0  0  0  0  0  0  0  0
    1.2751   22.0843    4.0028 C   0  0  0  0  0  0  0  0  0  0  0  0
    0.6907   23.0816    4.7752 C   0  0  0  0  0  0  0  0  0  0  0  0
    0.6542   24.3927    4.3153 C   0  0  0  0  0  0  0  0  0  0  0  0
   -0.0054   25.4304    5.1792 C   0  0  0  0  0  0  0  0  0  0  0  0
   -1.4789   25.5970    4.8611 C   0  0  0  0  0  0  0  0  0  0  0  0
   -1.8539   26.4777    4.0483 O   0  0  0  0  0  0  0  0  0  0  0  0
   -2.3275   24.8793    5.4291 O   0  0  0  0  0  0  0  0  0  0  0  0
   -2.0530   24.2207    6.0364 H   0  0  0  0  0  0  0  0  0  0  0  0
    2.3007   18.1069    0.0472 C   0  0  0  0  0  0  0  0  0  0  0  0
    2.0261   17.1168    0.9014 O   0  0  0  0  0  0  0  0  0  0  0  0
    3.0357   17.6494   -1.1724 C   0  0  0  0  0  0  0  0  0  0  0  0
    2.6843   18.1208   -2.6292 C   0  0  0  0  0  0  0  0  0  0  0  0
    3.7265   17.2831   -3.5731 C   0  0  0  0  0  0  0  0  0  0  0  0
    4.6104   16.3377   -2.7108 C   0  0  0  0  0  0  0  0  0  0  0  0
    4.1992   16.5119   -1.0959 S   0  0  0  0  0  0  0  0  0  0  0  0
 15 14  1  0  0  0
 33 34  2  0  0  0
 33 32  1  0  0  0
 13 12  1  0  0  0
 34 35  1  0  0  0
 14 12  2  0  0  0
 14 16  1  0  0  0
 32 31  2  0  0  0
 12 11  1  0  0  0
 35 31  1  0  0  0
 31 29  1  0  0  0
 16 17  2  0  0  0
 11 10  2  0  0  0
 29 30  2  0  0  0
 29  2  1  0  0  0
 17 10  1  0  0  0
 17  1  1  0  0  0
 10  9  1  0  0  0
  2  1  1  0  0  0
  2  3  2  0  0  0
  1  7  1  0  0  0
 19 20  2  0  0  0
 19 18  1  0  0  0
  3  4  1  0  0  0
  3  5  1  0  0  0
  7 18  1  0  0  0
  7  5  1  0  0  0
 20 23  1  0  0  0
 18 21  2  0  0  0
  5  6  2  0  0  0
 23 22  2  0  0  0
 23 24  1  0  0  0
 21 22  1  0  0  0
 24 25  1  0  0  0
 25 26  2  0  0  0
 25 27  1  0  0  0
  4  8  1  0  0  0
 27 28  1  0  0  0
M  END
> <minimizedAffinity>
-6.89466

$$$$
4IBB_1DK_A_401


 35 38  0  0  0  0  0  0  0  0999 V2000
    2.4667   21.1347    0.7166 C   0  0  0  0  0  0  0  0  0  0  0  0
    3.6672   20.4222    0.9679 C   0  0  0  0  0  0  0  0  0  0  0  0
    3.4809   19.1216    0.4807 C   0  0  0  0  0  0  0  0  0  0  0  0
    4.3592   18.1457    0.5052 O   0  0  0  0  0  0  0  0  0  0  0  0
    2.1639   19.0249   -0.0650 C   0  0  0  0  0  0  0  0  0  0  0  0
    1.6153   17.9190   -0.6306 O   0  0  0  0  0  0  0  0  0  0  0  0
    1.5349   20.2114    0.0754 N   0  0  0  0  0  0  0  0  0  0  0  0
    5.2057   18.2865    0.8816 H   0  0  0  0  0  0  0  0  0  0  0  0
    2.2335   24.0181    0.9795 C   0  0  0  0  0  0  0  0  0  0  0  0
    1.8016   23.1230    2.1090 C   0  0  0  0  0  0  0  0  0  0  0  0
    1.2900   23.6840    3.2743 C   0  0  0  0  0  0  0  0  0  0  0  0
    0.8930   22.8540    4.3122 C   0  0  0  0  0  0  0  0  0  0  0  0
    0.3391   23.4349    5.5868 C   0  0  0  0  0  0  0  0  0  0  0  0
    1.0049   21.4578    4.1950 C   0  0  0  0  0  0  0  0  0  0  0  0
    0.5785   20.6317    5.3063 C   0  0  0  0  0  0  0  0  0  0  0  0
    1.5144   20.8930    3.0327 C   0  0  0  0  0  0  0  0  0  0  0  0
    1.9188   21.7216    1.9837 C   0  0  0  0  0  0  0  0  0  0  0  0
    0.2376   20.5690   -0.4560 C   0  0  0  0  0  0  0  0  0  0  0  0
   -0.9230   20.1175    0.1902 C   0  0  0  0  0  0  0  0  0  0  0  0
   -2.1744   20.4451   -0.3213 C   0  0  0  0  0  0  0  0  0  0  0  0
    0.1522   21.3297   -1.6089 C   0  0  0  0  0  0  0  0  0  0  0  0
   -1.0988   21.6631   -2.1156 C   0  0  0  0  0  0  0  0  0  0  0  0
   -2.2526   21.2180   -1.4814 C   0  0  0  0  0  0  0  0  0  0  0  0
   -3.5806   21.6212   -2.0577 C   0  0  0  0  0  0  0  0  0  0  0  0
   -4.7369   21.2918   -1.1332 C   0  0  0  0  0  0  0  0  0  0  0  0
   -5.2077   20.1282   -1.1008 O   0  0  0  0  0  0  0  0  0  0  0  0
   -5.2449   22.1837   -0.4231 O   0  0  0  0  0  0  0  0  0  0  0  0
   -4.8973   23.0536   -0.4436 H   0  0  0  0  0  0  0  0  0  0  0  0
    4.8640   21.0987    1.6457 C   0  0  0  0  0  0  0  0  0  0  0  0
    5.7328   21.5911    0.7579 O   0  0  0  0  0  0  0  0  0  0  0  0
    5.5225   20.4841    2.8396 C   0  0  0  0  0  0  0  0  0  0  0  0
    4.7696   19.5799    3.8807 C   0  0  0  0  0  0  0  0  0  0  0  0
    5.9136   19.2367    4.9997 C   0  0  0  0  0  0  0  0  0  0  0  0
    7.2540   19.9434    4.6498 C   0  0  0  0  0  0  0  0  0  0  0  0
    7.0706   20.8103    3.2277 S   0  0  0  0  0  0  0  0  0  0  0  0
 15 14  1  0  0  0
 33 34  2  0  0  0
 33 32  1  0  0  0
 13 12  1  0  0  0
 34 35  1  0  0  0
 14 12  2  0  0  0
 14 16  1  0  0  0
 32 31  2  0  0  0
 12 11  1  0  0  0
 35 31  1  0  0  0
 31 29  1  0  0  0
 16 17  2  0  0  0
 11 10  2  0  0  0
 29 30  2  0  0  0
 29  2  1  0  0  0
 17 10  1  0  0  0
 17  1  1  0  0  0
 10  9  1  0  0  0
  2  1  1  0  0  0
  2  3  2  0  0  0
  1  7  1  0  0  0
 19 20  2  0  0  0
 19 18  1  0  0  0
  3  4  1  0  0  0
  3  5  1  0  0  0
  7 18  1  0  0  0
  7  5  1  0  0  0
 20 23  1  0  0  0
 18 21  2  0  0  0
  5  6  2  0  0  0
 23 22  2  0  0  0
 23 24  1  0  0  0
 21 22  1  0  0  0
 24 25  1  0  0  0
 25 26  2  0  0  0
 25 27  1  0  0  0
  4  8  1  0  0  0
 27 28  1  0  0  0
M  END
> <minimizedAffinity>
-6.87442

$$$$
4IBB_1DK_A_401


 35 38  0  0  0  0  0  0  0  0999 V2000
    0.8436   20.1356    2.4280 C   0  0  0  0  0  0  0  0  0  0  0  0
    0.6010   19.6395    3.7345 C   0  0  0  0  0  0  0  0  0  0  0  0
   -0.6389   18.9874    3.7011 C   0  0  0  0  0  0  0  0  0  0  0  0
   -1.2270   18.3768    4.7040 O   0  0  0  0  0  0  0  0  0  0  0  0
   -1.1686   19.0856    2.3777 C   0  0  0  0  0  0  0  0  0  0  0  0
   -2.3540   18.5762    1.9544 O   0  0  0  0  0  0  0  0  0  0  0  0
   -0.3064   19.7775    1.6026 N   0  0  0  0  0  0  0  0  0  0  0  0
   -0.8153   18.3548    5.5455 H   0  0  0  0  0  0  0  0  0  0  0  0
    2.9272   21.2677    0.7506 C   0  0  0  0  0  0  0  0  0  0  0  0
    2.1065   22.1640    1.6376 C   0  0  0  0  0  0  0  0  0  0  0  0
    2.3505   23.5332    1.6468 C   0  0  0  0  0  0  0  0  0  0  0  0
    1.5906   24.3547    2.4662 C   0  0  0  0  0  0  0  0  0  0  0  0
    1.8361   25.8405    2.4987 C   0  0  0  0  0  0  0  0  0  0  0  0
    0.5822   23.8153    3.2833 C   0  0  0  0  0  0  0  0  0  0  0  0
   -0.1846   24.7129    4.1234 C   0  0  0  0  0  0  0  0  0  0  0  0
    0.3343   22.4485    3.2767 C   0  0  0  0  0  0  0  0  0  0  0  0
    1.0966   21.6139    2.4566 C   0  0  0  0  0  0  0  0  0  0  0  0
   -0.4081   19.9897    0.1750 C   0  0  0  0  0  0  0  0  0  0  0  0
    0.2917   19.1467   -0.7012 C   0  0  0  0  0  0  0  0  0  0  0  0
    0.2106   19.3517   -2.0747 C   0  0  0  0  0  0  0  0  0  0  0  0
   -1.1721   21.0356   -0.3124 C   0  0  0  0  0  0  0  0  0  0  0  0
   -1.2588   21.2357   -1.6854 C   0  0  0  0  0  0  0  0  0  0  0  0
   -0.5670   20.4053   -2.5592 C   0  0  0  0  0  0  0  0  0  0  0  0
   -0.7085   20.6512   -4.0349 C   0  0  0  0  0  0  0  0  0  0  0  0
    0.4658   21.4204   -4.6089 C   0  0  0  0  0  0  0  0  0  0  0  0
    0.7812   21.2829   -5.8165 O   0  0  0  0  0  0  0  0  0  0  0  0
    1.1422   22.1703   -3.8754 O   0  0  0  0  0  0  0  0  0  0  0  0
    0.9111   22.2764   -2.9736 H   0  0  0  0  0  0  0  0  0  0  0  0
    1.6156   19.8500    4.8640 C   0  0  0  0  0  0  0  0  0  0  0  0
    2.6597   19.0224    4.7630 O   0  0  0  0  0  0  0  0  0  0  0  0
    1.1658   20.0656    6.2740 C   0  0  0  0  0  0  0  0  0  0  0  0
    0.6688   21.4492    6.8279 C   0  0  0  0  0  0  0  0  0  0  0  0
    0.3719   21.1530    8.4099 C   0  0  0  0  0  0  0  0  0  0  0  0
    0.7216   19.6806    8.7683 C   0  0  0  0  0  0  0  0  0  0  0  0
    1.2742   18.8912    7.3976 S   0  0  0  0  0  0  0  0  0  0  0  0
 15 14  1  0  0  0
 33 34  2  0  0  0
 33 32  1  0  0  0
 13 12  1  0  0  0
 34 35  1  0  0  0
 14 12  2  0  0  0
 14 16  1  0  0  0
 32 31  2  0  0  0
 12 11  1  0  0  0
 35 31  1  0  0  0
 31 29  1  0  0  0
 16 17  2  0  0  0
 11 10  2  0  0  0
 29 30  2  0  0  0
 29  2  1  0  0  0
 17 10  1  0  0  0
 17  1  1  0  0  0
 10  9  1  0  0  0
  2  1  1  0  0  0
  2  3  2  0  0  0
  1  7  1  0  0  0
 19 20  2  0  0  0
 19 18  1  0  0  0
  3  4  1  0  0  0
  3  5  1  0  0  0
  7 18  1  0  0  0
  7  5  1  0  0  0
 20 23  1  0  0  0
 18 21  2  0  0  0
  5  6  2  0  0  0
 23 22  2  0  0  0
 23 24  1  0  0  0
 21 22  1  0  0  0
 24 25  1  0  0  0
 25 26  2  0  0  0
 25 27  1  0  0  0
  4  8  1  0  0  0
 27 28  1  0  0  0
M  END
> <minimizedAffinity>
-6.60471

$$$$
4IBB_1DK_A_401


 35 38  0  0  0  0  0  0  0  0999 V2000
    1.3747   19.8671    1.5972 C   0  0  0  0  0  0  0  0  0  0  0  0
    0.6562   19.6931    0.3866 C   0  0  0  0  0  0  0  0  0  0  0  0
    1.5637   19.2008   -0.5609 C   0  0  0  0  0  0  0  0  0  0  0  0
    1.2981   18.8921   -1.8093 O   0  0  0  0  0  0  0  0  0  0  0  0
    2.8453   19.0771    0.0586 C   0  0  0  0  0  0  0  0  0  0  0  0
    3.9803   18.6336   -0.5407 O   0  0  0  0  0  0  0  0  0  0  0  0
    2.7599   19.4806    1.3443 N   0  0  0  0  0  0  0  0  0  0  0  0
    0.4298   19.0012   -2.1444 H   0  0  0  0  0  0  0  0  0  0  0  0
   -0.1352   20.4060    4.0193 C   0  0  0  0  0  0  0  0  0  0  0  0
    0.5194   21.5374    3.2743 C   0  0  0  0  0  0  0  0  0  0  0  0
    0.3983   22.8375    3.7532 C   0  0  0  0  0  0  0  0  0  0  0  0
    1.0042   23.8766    3.0625 C   0  0  0  0  0  0  0  0  0  0  0  0
    0.8861   25.2947    3.5566 C   0  0  0  0  0  0  0  0  0  0  0  0
    1.7344   23.6256    1.8880 C   0  0  0  0  0  0  0  0  0  0  0  0
    2.3484   24.7434    1.2003 C   0  0  0  0  0  0  0  0  0  0  0  0
    1.8587   22.3286    1.4065 C   0  0  0  0  0  0  0  0  0  0  0  0
    1.2497   21.2768    2.0944 C   0  0  0  0  0  0  0  0  0  0  0  0
    3.7992   19.3944    2.3471 C   0  0  0  0  0  0  0  0  0  0  0  0
    4.7850   20.3907    2.4090 C   0  0  0  0  0  0  0  0  0  0  0  0
    5.7959   20.3090    3.3610 C   0  0  0  0  0  0  0  0  0  0  0  0
    3.8275   18.3194    3.2182 C   0  0  0  0  0  0  0  0  0  0  0  0
    4.8337   18.2419    4.1743 C   0  0  0  0  0  0  0  0  0  0  0  0
    5.8143   19.2246    4.2403 C   0  0  0  0  0  0  0  0  0  0  0  0
    6.8693   19.1053    5.3038 C   0  0  0  0  0  0  0  0  0  0  0  0
    7.5144   17.7329    5.3280 C   0  0  0  0  0  0  0  0  0  0  0  0
    7.3161   16.9589    6.2967 O   0  0  0  0  0  0  0  0  0  0  0  0
    8.2694   17.3792    4.3993 O   0  0  0  0  0  0  0  0  0  0  0  0
    8.4207   17.9529    3.6742 H   0  0  0  0  0  0  0  0  0  0  0  0
   -0.8393   20.0174    0.2982 C   0  0  0  0  0  0  0  0  0  0  0  0
   -1.5944   19.0631    0.8499 O   0  0  0  0  0  0  0  0  0  0  0  0
   -1.4309   20.5928   -0.9492 C   0  0  0  0  0  0  0  0  0  0  0  0
   -0.7661   21.7531   -1.7737 C   0  0  0  0  0  0  0  0  0  0  0  0
   -1.8381   22.0417   -2.9764 C   0  0  0  0  0  0  0  0  0  0  0  0
   -3.0857   21.1245   -2.8323 C   0  0  0  0  0  0  0  0  0  0  0  0
   -2.8976   20.1370   -1.4918 S   0  0  0  0  0  0  0  0  0  0  0  0
 15 14  1  0  0  0
 33 34  2  0  0  0
 33 32  1  0  0  0
 13 12  1  0  0  0
 34 35  1  0  0  0
 14 12  2  0  0  0
 14 16  1  0  0  0
 32 31  2  0  0  0
 12 11  1  0  0  0
 35 31  1  0  0  0
 31 29  1  0  0  0
 16 17  2  0  0  0
 11 10  2  0  0  0
 29 30  2  0  0  0
 29  2  1  0  0  0
 17 10  1  0  0  0
 17  1  1  0  0  0
 10  9  1  0  0  0
  2  1  1  0  0  0
  2  3  2  0  0  0
  1  7  1  0  0  0
 19 20  2  0  0  0
 19 18  1  0  0  0
  3  4  1  0  0  0
  3  5  1  0  0  0
  7 18  1  0  0  0
  7  5  1  0  0  0
 20 23  1  0  0  0
 18 21  2  0  0  0
  5  6  2  0  0  0
 23 22  2  0  0  0
 23 24  1  0  0  0
 21 22  1  0  0  0
 24 25  1  0  0  0
 25 26  2  0  0  0
 25 27  1  0  0  0
  4  8  1  0  0  0
 27 28  1  0  0  0
M  END
> <minimizedAffinity>
-6.56388

$$$$
4IBB_1DK_A_401


 35 38  0  0  0  0  0  0  0  0999 V2000
    1.4805   19.7479    1.1261 C   0  0  0  0  0  0  0  0  0  0  0  0
    1.2762   19.7397   -0.2776 C   0  0  0  0  0  0  0  0  0  0  0  0
    2.3915   19.1135   -0.8499 C   0  0  0  0  0  0  0  0  0  0  0  0
    2.5909   18.8907   -2.1286 O   0  0  0  0  0  0  0  0  0  0  0  0
    3.2903   18.7408    0.1964 C   0  0  0  0  0  0  0  0  0  0  0  0
    4.4830   18.1119    0.0356 O   0  0  0  0  0  0  0  0  0  0  0  0
    2.7733   19.1201    1.3846 N   0  0  0  0  0  0  0  0  0  0  0  0
    1.9528   19.1659   -2.7572 H   0  0  0  0  0  0  0  0  0  0  0  0
   -0.4522   20.3645    3.2049 C   0  0  0  0  0  0  0  0  0  0  0  0
    0.4601   21.4413    2.6834 C   0  0  0  0  0  0  0  0  0  0  0  0
    0.3728   22.7283    3.2034 C   0  0  0  0  0  0  0  0  0  0  0  0
    1.2166   23.7169    2.7191 C   0  0  0  0  0  0  0  0  0  0  0  0
    1.1410   25.1201    3.2616 C   0  0  0  0  0  0  0  0  0  0  0  0
    2.1529   23.4283    1.7113 C   0  0  0  0  0  0  0  0  0  0  0  0
    3.0120   24.4940    1.2363 C   0  0  0  0  0  0  0  0  0  0  0  0
    2.2442   22.1441    1.1896 C   0  0  0  0  0  0  0  0  0  0  0  0
    1.3967   21.1434    1.6698 C   0  0  0  0  0  0  0  0  0  0  0  0
    3.3083   18.8191    2.6946 C   0  0  0  0  0  0  0  0  0  0  0  0
    2.6878   17.8420    3.4875 C   0  0  0  0  0  0  0  0  0  0  0  0
    3.1872   17.5555    4.7538 C   0  0  0  0  0  0  0  0  0  0  0  0
    4.4093   19.5136    3.1645 C   0  0  0  0  0  0  0  0  0  0  0  0
    4.9125   19.2219    4.4271 C   0  0  0  0  0  0  0  0  0  0  0  0
    4.3019   18.2562    5.2185 C   0  0  0  0  0  0  0  0  0  0  0  0
    4.8954   17.9642    6.5678 C   0  0  0  0  0  0  0  0  0  0  0  0
    5.9029   16.8314    6.5244 C   0  0  0  0  0  0  0  0  0  0  0  0
    7.1029   17.0644    6.2372 O   0  0  0  0  0  0  0  0  0  0  0  0
    5.5368   15.6586    6.7441 O   0  0  0  0  0  0  0  0  0  0  0  0
    4.6426   15.4794    6.9588 H   0  0  0  0  0  0  0  0  0  0  0  0
    0.0073   20.3351   -0.8979 C   0  0  0  0  0  0  0  0  0  0  0  0
   -1.1035   19.8129   -0.3700 O   0  0  0  0  0  0  0  0  0  0  0  0
   -0.0925   20.5719   -2.3713 C   0  0  0  0  0  0  0  0  0  0  0  0
    0.3273   21.9160   -3.0680 C   0  0  0  0  0  0  0  0  0  0  0  0
   -0.0435   21.6720   -4.6433 C   0  0  0  0  0  0  0  0  0  0  0  0
   -0.6884   20.2713   -4.8455 C   0  0  0  0  0  0  0  0  0  0  0  0
   -0.7710   19.4795   -3.3712 S   0  0  0  0  0  0  0  0  0  0  0  0
 15 14  1  0  0  0
 33 34  2  0  0  0
 33 32  1  0  0  0
 13 12  1  0  0  0
 34 35  1  0  0  0
 14 12  2  0  0  0
 14 16  1  0  0  0
 32 31  2  0  0  0
 12 11  1  0  0  0
 35 31  1  0  0  0
 31 29  1  0  0  0
 16 17  2  0  0  0
 11 10  2  0  0  0
 29 30  2  0  0  0
 29  2  1  0  0  0
 17 10  1  0  0  0
 17  1  1  0  0  0
 10  9  1  0  0  0
  2  1  1  0  0  0
  2  3  2  0  0  0
  1  7  1  0  0  0
 19 20  2  0  0  0
 19 18  1  0  0  0
  3  4  1  0  0  0
  3  5  1  0  0  0
  7 18  1  0  0  0
  7  5  1  0  0  0
 20 23  1  0  0  0
 18 21  2  0  0  0
  5  6  2  0  0  0
 23 22  2  0  0  0
 23 24  1  0  0  0
 21 22  1  0  0  0
 24 25  1  0  0  0
 25 26  2  0  0  0
 25 27  1  0  0  0
  4  8  1  0  0  0
 27 28  1  0  0  0
M  END
> <minimizedAffinity>
-6.34396

$$$$
4IBB_1DK_A_401


 35 38  0  0  0  0  0  0  0  0999 V2000
    2.1737   22.4817    2.8586 C   0  0  0  0  0  0  0  0  0  0  0  0
    3.1583   22.6669    1.8544 C   0  0  0  0  0  0  0  0  0  0  0  0
    3.1263   24.0208    1.4946 C   0  0  0  0  0  0  0  0  0  0  0  0
    3.8912   24.6102    0.6047 O   0  0  0  0  0  0  0  0  0  0  0  0
    2.1178   24.6732    2.2686 C   0  0  0  0  0  0  0  0  0  0  0  0
    1.7889   25.9889    2.2015 O   0  0  0  0  0  0  0  0  0  0  0  0
    1.5271   23.7716    3.0818 N   0  0  0  0  0  0  0  0  0  0  0  0
    4.5324   24.1135    0.1354 H   0  0  0  0  0  0  0  0  0  0  0  0
    1.9686   20.0683    4.4620 C   0  0  0  0  0  0  0  0  0  0  0  0
    1.1002   20.2384    3.2452 C   0  0  0  0  0  0  0  0  0  0  0  0
    0.2008   19.2365    2.8965 C   0  0  0  0  0  0  0  0  0  0  0  0
   -0.5976   19.3988    1.7739 C   0  0  0  0  0  0  0  0  0  0  0  0
   -1.5775   18.3280    1.3711 C   0  0  0  0  0  0  0  0  0  0  0  0
   -0.5031   20.5619    0.9905 C   0  0  0  0  0  0  0  0  0  0  0  0
   -1.3567   20.6858   -0.1738 C   0  0  0  0  0  0  0  0  0  0  0  0
    0.3932   21.5656    1.3355 C   0  0  0  0  0  0  0  0  0  0  0  0
    1.2025   21.4091    2.4628 C   0  0  0  0  0  0  0  0  0  0  0  0
    0.5480   24.0481    4.1104 C   0  0  0  0  0  0  0  0  0  0  0  0
    0.4645   23.2067    5.2300 C   0  0  0  0  0  0  0  0  0  0  0  0
   -0.4828   23.4569    6.2174 C   0  0  0  0  0  0  0  0  0  0  0  0
   -0.3134   25.1220    3.9697 C   0  0  0  0  0  0  0  0  0  0  0  0
   -1.2552   25.3760    4.9603 C   0  0  0  0  0  0  0  0  0  0  0  0
   -1.3444   24.5458    6.0713 C   0  0  0  0  0  0  0  0  0  0  0  0
   -2.3662   24.8739    7.1232 C   0  0  0  0  0  0  0  0  0  0  0  0
   -2.3243   26.3327    7.5359 C   0  0  0  0  0  0  0  0  0  0  0  0
   -3.2289   27.1203    7.1641 O   0  0  0  0  0  0  0  0  0  0  0  0
   -1.3743   26.7628    8.2216 O   0  0  0  0  0  0  0  0  0  0  0  0
   -0.6968   26.1793    8.5016 H   0  0  0  0  0  0  0  0  0  0  0  0
    4.0263   21.5002    1.3698 C   0  0  0  0  0  0  0  0  0  0  0  0
    3.4467   20.8210    0.3758 O   0  0  0  0  0  0  0  0  0  0  0  0
    4.7519   20.6240    2.3407 C   0  0  0  0  0  0  0  0  0  0  0  0
    5.7119   21.1702    3.4580 C   0  0  0  0  0  0  0  0  0  0  0  0
    6.2841   19.8162    4.1777 C   0  0  0  0  0  0  0  0  0  0  0  0
    5.7189   18.5443    3.4838 C   0  0  0  0  0  0  0  0  0  0  0  0
    4.6984   18.9994    2.2353 S   0  0  0  0  0  0  0  0  0  0  0  0
 15 14  1  0  0  0
 33 34  2  0  0  0
 33 32  1  0  0  0
 13 12  1  0  0  0
 34 35  1  0  0  0
 14 12  2  0  0  0
 14 16  1  0  0  0
 32 31  2  0  0  0
 12 11  1  0  0  0
 35 31  1  0  0  0
 31 29  1  0  0  0
 16 17  2  0  0  0
 11 10  2  0  0  0
 29 30  2  0  0  0
 29  2  1  0  0  0
 17 10  1  0  0  0
 17  1  1  0  0  0
 10  9  1  0  0  0
  2  1  1  0  0  0
  2  3  2  0  0  0
  1  7  1  0  0  0
 19 20  2  0  0  0
 19 18  1  0  0  0
  3  4  1  0  0  0
  3  5  1  0  0  0
  7 18  1  0  0  0
  7  5  1  0  0  0
 20 23  1  0  0  0
 18 21  2  0  0  0
  5  6  2  0  0  0
 23 22  2  0  0  0
 23 24  1  0  0  0
 21 22  1  0  0  0
 24 25  1  0  0  0
 25 26  2  0  0  0
 25 27  1  0  0  0
  4  8  1  0  0  0
 27 28  1  0  0  0
M  END
> <minimizedAffinity>
-6.07458

$$$$
4IBB_1DK_A_401


 35 38  0  0  0  0  0  0  0  0999 V2000
    1.0598   19.8896    2.0969 C   0  0  0  0  0  0  0  0  0  0  0  0
    0.9645   19.3256    3.3949 C   0  0  0  0  0  0  0  0  0  0  0  0
   -0.2486   18.6263    3.4493 C   0  0  0  0  0  0  0  0  0  0  0  0
   -0.7133   17.9478    4.4731 O   0  0  0  0  0  0  0  0  0  0  0  0
   -0.9089   18.7629    2.1895 C   0  0  0  0  0  0  0  0  0  0  0  0
   -2.1112   18.2258    1.8579 O   0  0  0  0  0  0  0  0  0  0  0  0
   -0.1521   19.5232    1.3696 N   0  0  0  0  0  0  0  0  0  0  0  0
   -0.2205   17.9044    5.2689 H   0  0  0  0  0  0  0  0  0  0  0  0
    3.0128   21.1636    0.3648 C   0  0  0  0  0  0  0  0  0  0  0  0
    2.2078   21.9932    1.3279 C   0  0  0  0  0  0  0  0  0  0  0  0
    2.4034   23.3692    1.3808 C   0  0  0  0  0  0  0  0  0  0  0  0
    1.6582   24.1290    2.2703 C   0  0  0  0  0  0  0  0  0  0  0  0
    1.8524   25.6206    2.3513 C   0  0  0  0  0  0  0  0  0  0  0  0
    0.7131   23.5207    3.1143 C   0  0  0  0  0  0  0  0  0  0  0  0
   -0.0406   24.3556    4.0278 C   0  0  0  0  0  0  0  0  0  0  0  0
    0.5137   22.1469    3.0641 C   0  0  0  0  0  0  0  0  0  0  0  0
    1.2616   21.3741    2.1733 C   0  0  0  0  0  0  0  0  0  0  0  0
   -0.4009   19.7956   -0.0294 C   0  0  0  0  0  0  0  0  0  0  0  0
   -1.2276   20.8707   -0.3884 C   0  0  0  0  0  0  0  0  0  0  0  0
   -1.4834   21.1318   -1.7306 C   0  0  0  0  0  0  0  0  0  0  0  0
    0.1559   18.9800   -0.9988 C   0  0  0  0  0  0  0  0  0  0  0  0
   -0.0940   19.2456   -2.3403 C   0  0  0  0  0  0  0  0  0  0  0  0
   -0.9132   20.3082   -2.7031 C   0  0  0  0  0  0  0  0  0  0  0  0
   -1.1370   20.5652   -4.1666 C   0  0  0  0  0  0  0  0  0  0  0  0
    0.0728   21.1878   -4.8367 C   0  0  0  0  0  0  0  0  0  0  0  0
    0.7635   22.0407   -4.2265 O   0  0  0  0  0  0  0  0  0  0  0  0
    0.3688   20.8773   -6.0087 O   0  0  0  0  0  0  0  0  0  0  0  0
   -0.1433   20.2414   -6.4685 H   0  0  0  0  0  0  0  0  0  0  0  0
    2.0769   19.5255    4.4303 C   0  0  0  0  0  0  0  0  0  0  0  0
    1.8308   20.5596    5.2398 O   0  0  0  0  0  0  0  0  0  0  0  0
    3.5175   19.4037    4.0473 C   0  0  0  0  0  0  0  0  0  0  0  0
    4.4197   20.6271    3.6502 C   0  0  0  0  0  0  0  0  0  0  0  0
    5.8558   19.9442    3.2629 C   0  0  0  0  0  0  0  0  0  0  0  0
    5.7789   18.3958    3.3861 C   0  0  0  0  0  0  0  0  0  0  0  0
    4.2434   17.9539    3.8905 S   0  0  0  0  0  0  0  0  0  0  0  0
 15 14  1  0  0  0
 33 34  2  0  0  0
 33 32  1  0  0  0
 13 12  1  0  0  0
 34 35  1  0  0  0
 14 12  2  0  0  0
 14 16  1  0  0  0
 32 31  2  0  0  0
 12 11  1  0  0  0
 35 31  1  0  0  0
 31 29  1  0  0  0
 16 17  2  0  0  0
 11 10  2  0  0  0
 29 30  2  0  0  0
 29  2  1  0  0  0
 17 10  1  0  0  0
 17  1  1  0  0  0
 10  9  1  0  0  0
  2  1  1  0  0  0
  2  3  2  0  0  0
  1  7  1  0  0  0
 19 20  2  0  0  0
 19 18  1  0  0  0
  3  4  1  0  0  0
  3  5  1  0  0  0
  7 18  1  0  0  0
  7  5  1  0  0  0
 20 23  1  0  0  0
 18 21  2  0  0  0
  5  6  2  0  0  0
 23 22  2  0  0  0
 23 24  1  0  0  0
 21 22  1  0  0  0
 24 25  1  0  0  0
 25 26  2  0  0  0
 25 27  1  0  0  0
  4  8  1  0  0  0
 27 28  1  0  0  0
M  END
> <minimizedAffinity>
-6.06604

$$$$
4IBB_1DK_A_401


 35 38  0  0  0  0  0  0  0  0999 V2000
    2.4260   21.4737    3.3065 C   0  0  0  0  0  0  0  0  0  0  0  0
    1.3481   21.3364    4.2183 C   0  0  0  0  0  0  0  0  0  0  0  0
    1.6058   20.1938    4.9875 C   0  0  0  0  0  0  0  0  0  0  0  0
    0.8575   19.7208    5.9575 O   0  0  0  0  0  0  0  0  0  0  0  0
    2.8377   19.6184    4.5483 C   0  0  0  0  0  0  0  0  0  0  0  0
    3.4190   18.4998    5.0529 O   0  0  0  0  0  0  0  0  0  0  0  0
    3.3401   20.3587    3.5370 N   0  0  0  0  0  0  0  0  0  0  0  0
    0.0602   20.1553    6.1886 H   0  0  0  0  0  0  0  0  0  0  0  0
    3.1144   23.7421    1.6278 C   0  0  0  0  0  0  0  0  0  0  0  0
    2.2650   22.6293    1.0765 C   0  0  0  0  0  0  0  0  0  0  0  0
    1.8155   22.6937   -0.2381 C   0  0  0  0  0  0  0  0  0  0  0  0
    1.0330   21.6648   -0.7412 C   0  0  0  0  0  0  0  0  0  0  0  0
    0.5294   21.7106   -2.1601 C   0  0  0  0  0  0  0  0  0  0  0  0
    0.6926   20.5647    0.0647 C   0  0  0  0  0  0  0  0  0  0  0  0
   -0.1281   19.5150   -0.5045 C   0  0  0  0  0  0  0  0  0  0  0  0
    1.1401   20.4958    1.3780 C   0  0  0  0  0  0  0  0  0  0  0  0
    1.9262   21.5286    1.8932 C   0  0  0  0  0  0  0  0  0  0  0  0
    4.6280   20.1892    2.9000 C   0  0  0  0  0  0  0  0  0  0  0  0
    5.7160   20.9684    3.3214 C   0  0  0  0  0  0  0  0  0  0  0  0
    6.9546   20.8219    2.7055 C   0  0  0  0  0  0  0  0  0  0  0  0
    4.7698   19.2809    1.8656 C   0  0  0  0  0  0  0  0  0  0  0  0
    6.0097   19.1296    1.2553 C   0  0  0  0  0  0  0  0  0  0  0  0
    7.0914   19.8992    1.6667 C   0  0  0  0  0  0  0  0  0  0  0  0
    8.4150   19.6845    0.9882 C   0  0  0  0  0  0  0  0  0  0  0  0
    8.3415   19.9125   -0.5094 C   0  0  0  0  0  0  0  0  0  0  0  0
    8.3654   18.9361   -1.2986 O   0  0  0  0  0  0  0  0  0  0  0  0
    8.2878   21.0733   -0.9645 O   0  0  0  0  0  0  0  0  0  0  0  0
    8.2697   21.8054   -0.3799 H   0  0  0  0  0  0  0  0  0  0  0  0
    0.1947   22.3456    4.2408 C   0  0  0  0  0  0  0  0  0  0  0  0
    0.6263   23.5993    4.4058 O   0  0  0  0  0  0  0  0  0  0  0  0
   -1.0711   22.0532    4.9819 C   0  0  0  0  0  0  0  0  0  0  0  0
   -2.0983   20.9463    4.5487 C   0  0  0  0  0  0  0  0  0  0  0  0
   -3.3109   21.0904    5.6385 C   0  0  0  0  0  0  0  0  0  0  0  0
   -3.0232   22.2537    6.6299 C   0  0  0  0  0  0  0  0  0  0  0  0
   -1.5518   22.9582    6.2481 S   0  0  0  0  0  0  0  0  0  0  0  0
 15 14  1  0  0  0
 33 34  2  0  0  0
 33 32  1  0  0  0
 13 12  1  0  0  0
 34 35  1  0  0  0
 14 12  2  0  0  0
 14 16  1  0  0  0
 32 31  2  0  0  0
 12 11  1  0  0  0
 35 31  1  0  0  0
 31 29  1  0  0  0
 16 17  2  0  0  0
 11 10  2  0  0  0
 29 30  2  0  0  0
 29  2  1  0  0  0
 17 10  1  0  0  0
 17  1  1  0  0  0
 10  9  1  0  0  0
  2  1  1  0  0  0
  2  3  2  0  0  0
  1  7  1  0  0  0
 19 20  2  0  0  0
 19 18  1  0  0  0
  3  4  1  0  0  0
  3  5  1  0  0  0
  7 18  1  0  0  0
  7  5  1  0  0  0
 20 23  1  0  0  0
 18 21  2  0  0  0
  5  6  2  0  0  0
 23 22  2  0  0  0
 23 24  1  0  0  0
 21 22  1  0  0  0
 24 25  1  0  0  0
 25 26  2  0  0  0
 25 27  1  0  0  0
  4  8  1  0  0  0
 27 28  1  0  0  0
M  END
> <minimizedAffinity>
-5.85292

$$$$
4IBB_1DK_A_401


 35 38  0  0  0  0  0  0  0  0999 V2000
    0.0861   19.5816   -1.4976 C   0  0  0  0  0  0  0  0  0  0  0  0
    0.9789   20.4720   -0.8477 C   0  0  0  0  0  0  0  0  0  0  0  0
    0.8914   21.7002   -1.5167 C   0  0  0  0  0  0  0  0  0  0  0  0
    1.5480   22.7984   -1.2213 O   0  0  0  0  0  0  0  0  0  0  0  0
   -0.0483   21.5698   -2.5851 C   0  0  0  0  0  0  0  0  0  0  0  0
   -0.4010   22.5472   -3.4594 O   0  0  0  0  0  0  0  0  0  0  0  0
   -0.5335   20.3099   -2.6010 N   0  0  0  0  0  0  0  0  0  0  0  0
    2.1497   22.8057   -0.5031 H   0  0  0  0  0  0  0  0  0  0  0  0
   -1.1081   16.9766   -1.0233 C   0  0  0  0  0  0  0  0  0  0  0  0
    0.2191   17.0786   -1.7247 C   0  0  0  0  0  0  0  0  0  0  0  0
    0.8661   15.9213   -2.1444 C   0  0  0  0  0  0  0  0  0  0  0  0
    2.0892   16.0213   -2.7909 C   0  0  0  0  0  0  0  0  0  0  0  0
    2.8136   14.7840   -3.2526 C   0  0  0  0  0  0  0  0  0  0  0  0
    2.6759   17.2775   -3.0220 C   0  0  0  0  0  0  0  0  0  0  0  0
    3.9553   17.3317   -3.7000 C   0  0  0  0  0  0  0  0  0  0  0  0
    2.0328   18.4361   -2.6054 C   0  0  0  0  0  0  0  0  0  0  0  0
    0.8023   18.3442   -1.9515 C   0  0  0  0  0  0  0  0  0  0  0  0
   -1.5957   19.8044   -3.4433 C   0  0  0  0  0  0  0  0  0  0  0  0
   -2.9256   19.8882   -3.0045 C   0  0  0  0  0  0  0  0  0  0  0  0
   -3.9522   19.3925   -3.8016 C   0  0  0  0  0  0  0  0  0  0  0  0
   -1.2901   19.2203   -4.6601 C   0  0  0  0  0  0  0  0  0  0  0  0
   -2.3169   18.7315   -5.4597 C   0  0  0  0  0  0  0  0  0  0  0  0
   -3.6366   18.8100   -5.0306 C   0  0  0  0  0  0  0  0  0  0  0  0
   -4.7116   18.2848   -5.9398 C   0  0  0  0  0  0  0  0  0  0  0  0
   -4.8794   19.1309   -7.1872 C   0  0  0  0  0  0  0  0  0  0  0  0
   -5.7106   20.0719   -7.2049 O   0  0  0  0  0  0  0  0  0  0  0  0
   -4.2134   18.8758   -8.2115 O   0  0  0  0  0  0  0  0  0  0  0  0
   -3.5918   18.1747   -8.2036 H   0  0  0  0  0  0  0  0  0  0  0  0
    1.8071   20.0228    0.3613 C   0  0  0  0  0  0  0  0  0  0  0  0
    3.1117   19.9558    0.0805 O   0  0  0  0  0  0  0  0  0  0  0  0
    1.3358   18.9163    1.2505 C   0  0  0  0  0  0  0  0  0  0  0  0
    2.0533   17.5232    1.3625 C   0  0  0  0  0  0  0  0  0  0  0  0
    1.1073   16.6785    2.3971 C   0  0  0  0  0  0  0  0  0  0  0  0
   -0.1240   17.5238    2.8306 C   0  0  0  0  0  0  0  0  0  0  0  0
   -0.0528   19.0274    2.0948 S   0  0  0  0  0  0  0  0  0  0  0  0
 15 14  1  0  0  0
 33 34  2  0  0  0
 33 32  1  0  0  0
 13 12  1  0  0  0
 34 35  1  0  0  0
 14 12  2  0  0  0
 14 16  1  0  0  0
 32 31  2  0  0  0
 12 11  1  0  0  0
 35 31  1  0  0  0
 31 29  1  0  0  0
 16 17  2  0  0  0
 11 10  2  0  0  0
 29 30  2  0  0  0
 29  2  1  0  0  0
 17 10  1  0  0  0
 17  1  1  0  0  0
 10  9  1  0  0  0
  2  1  1  0  0  0
  2  3  2  0  0  0
  1  7  1  0  0  0
 19 20  2  0  0  0
 19 18  1  0  0  0
  3  4  1  0  0  0
  3  5  1  0  0  0
  7 18  1  0  0  0
  7  5  1  0  0  0
 20 23  1  0  0  0
 18 21  2  0  0  0
  5  6  2  0  0  0
 23 22  2  0  0  0
 23 24  1  0  0  0
 21 22  1  0  0  0
 24 25  1  0  0  0
 25 26  2  0  0  0
 25 27  1  0  0  0
  4  8  1  0  0  0
 27 28  1  0  0  0
M  END
> <minimizedAffinity>
-5.69279

$$$$
4IBB_1DK_A_401


 35 38  0  0  0  0  0  0  0  0999 V2000
    1.3527   19.6485    1.0694 C   0  0  0  0  0  0  0  0  0  0  0  0
    0.9076   19.6477   -0.2774 C   0  0  0  0  0  0  0  0  0  0  0  0
    1.9612   19.1513   -1.0565 C   0  0  0  0  0  0  0  0  0  0  0  0
    1.9544   18.9762   -2.3580 O   0  0  0  0  0  0  0  0  0  0  0  0
    3.0614   18.8519   -0.1954 C   0  0  0  0  0  0  0  0  0  0  0  0
    4.2632   18.3524   -0.5829 O   0  0  0  0  0  0  0  0  0  0  0  0
    2.7258   19.1519    1.0775 N   0  0  0  0  0  0  0  0  0  0  0  0
    1.1923   19.1969   -2.8564 H   0  0  0  0  0  0  0  0  0  0  0  0
   -0.4151   20.0644    3.3363 C   0  0  0  0  0  0  0  0  0  0  0  0
    0.3733   21.2172    2.7765 C   0  0  0  0  0  0  0  0  0  0  0  0
    0.2514   22.4776    3.3515 C   0  0  0  0  0  0  0  0  0  0  0  0
    0.9809   23.5366    2.8315 C   0  0  0  0  0  0  0  0  0  0  0  0
    0.8651   24.9130    3.4323 C   0  0  0  0  0  0  0  0  0  0  0  0
    1.8365   23.3452    1.7330 C   0  0  0  0  0  0  0  0  0  0  0  0
    2.5771   24.4817    1.2239 C   0  0  0  0  0  0  0  0  0  0  0  0
    1.9622   22.0878    1.1561 C   0  0  0  0  0  0  0  0  0  0  0  0
    1.2293   21.0167    1.6718 C   0  0  0  0  0  0  0  0  0  0  0  0
    3.5088   18.8811    2.2636 C   0  0  0  0  0  0  0  0  0  0  0  0
    4.5469   19.7544    2.6215 C   0  0  0  0  0  0  0  0  0  0  0  0
    5.3138   19.4946    3.7526 C   0  0  0  0  0  0  0  0  0  0  0  0
    3.2453   17.7519    3.0191 C   0  0  0  0  0  0  0  0  0  0  0  0
    4.0071   17.4965    4.1535 C   0  0  0  0  0  0  0  0  0  0  0  0
    5.0379   18.3566    4.5131 C   0  0  0  0  0  0  0  0  0  0  0  0
    5.8198   18.0469    5.7586 C   0  0  0  0  0  0  0  0  0  0  0  0
    7.2245   17.5627    5.4548 C   0  0  0  0  0  0  0  0  0  0  0  0
    7.4388   16.3453    5.2336 O   0  0  0  0  0  0  0  0  0  0  0  0
    8.1782   18.3678    5.4536 O   0  0  0  0  0  0  0  0  0  0  0  0
    8.0237   19.2772    5.6180 H   0  0  0  0  0  0  0  0  0  0  0  0
   -0.5024   20.1219   -0.6471 C   0  0  0  0  0  0  0  0  0  0  0  0
   -0.5848   21.4541   -0.7095 O   0  0  0  0  0  0  0  0  0  0  0  0
   -1.7132   19.4818   -0.0463 C   0  0  0  0  0  0  0  0  0  0  0  0
   -2.9753   20.2846    0.4340 C   0  0  0  0  0  0  0  0  0  0  0  0
   -3.9557   19.1334    1.0603 C   0  0  0  0  0  0  0  0  0  0  0  0
   -3.2779   17.7356    0.9880 C   0  0  0  0  0  0  0  0  0  0  0  0
   -1.7690   17.8859    0.2752 S   0  0  0  0  0  0  0  0  0  0  0  0
 15 14  1  0  0  0
 33 34  2  0  0  0
 33 32  1  0  0  0
 13 12  1  0  0  0
 34 35  1  0  0  0
 14 12  2  0  0  0
 14 16  1  0  0  0
 32 31  2  0  0  0
 12 11  1  0  0  0
 35 31  1  0  0  0
 31 29  1  0  0  0
 16 17  2  0  0  0
 11 10  2  0  0  0
 29 30  2  0  0  0
 29  2  1  0  0  0
 17 10  1  0  0  0
 17  1  1  0  0  0
 10  9  1  0  0  0
  2  1  1  0  0  0
  2  3  2  0  0  0
  1  7  1  0  0  0
 19 20  2  0  0  0
 19 18  1  0  0  0
  3  4  1  0  0  0
  3  5  1  0  0  0
  7 18  1  0  0  0
  7  5  1  0  0  0
 20 23  1  0  0  0
 18 21  2  0  0  0
  5  6  2  0  0  0
 23 22  2  0  0  0
 23 24  1  0  0  0
 21 22  1  0  0  0
 24 25  1  0  0  0
 25 26  2  0  0  0
 25 27  1  0  0  0
  4  8  1  0  0  0
 27 28  1  0  0  0
M  END
> <minimizedAffinity>
-5.62872

$$$$
