1OLU_TDP_A_601


 30 31  0  0  0  0  0  0  0  0999 V2000
   75.5490    2.2156    6.6264 N   0  0  0  0  0  0  0  0  0  0  0  0
   75.4784    3.4768    6.0521 C   0  0  0  0  0  0  0  0  0  0  0  0
   73.8004    3.8737    5.6422 S   0  0  0  0  0  0  0  0  0  0  0  0
   73.2540    2.3219    6.2584 C   0  0  0  0  0  0  0  0  0  0  0  0
   74.2365    1.5003    6.7531 C   0  0  0  0  0  0  0  0  0  0  0  0
   74.0928    0.0807    7.3504 C   0  0  0  0  0  0  0  0  0  0  0  0
   76.8136    1.6440    7.0813 C   0  0  0  0  0  0  0  0  0  0  0  0
   76.9002    0.7169   10.8209 N   0  0  0  0  0  0  0  0  0  0  0  0
   77.2556    1.9072   11.3989 C   0  0  0  0  0  0  0  0  0  0  0  0
   77.3998    1.9223   12.9351 C   0  0  0  0  0  0  0  0  0  0  0  0
   77.4700    3.0229   10.6952 N   0  0  0  0  0  0  0  0  0  0  0  0
   77.3236    2.9483    9.3123 C   0  0  0  0  0  0  0  0  0  0  0  0
   77.5507    4.1524    8.6285 N   0  0  0  0  0  0  0  0  0  0  0  0
   76.9623    1.7254    8.6129 C   0  0  0  0  0  0  0  0  0  0  0  0
   76.7582    0.6159    9.4703 C   0  0  0  0  0  0  0  0  0  0  0  0
   77.7940    4.9645    9.1292 H   0  0  0  0  0  0  0  0  0  0  0  0
   77.4667    4.1852    7.6482 H   0  0  0  0  0  0  0  0  0  0  0  0
   71.7569    2.1506    6.1623 C   0  0  0  0  0  0  0  0  0  0  0  0
   71.0789    2.6833    7.4585 C   0  0  0  0  0  0  0  0  0  0  0  0
   69.6586    2.5988    7.2989 O   0  0  0  0  0  0  0  0  0  0  0  0
   68.7595    3.7841    7.7554 P   0  0  0  0  0  0  0  0  0  0  0  0
   69.2446    4.2904    9.0879 O   0  0  0  0  0  0  0  0  0  0  0  0
   67.3761    3.2535    7.8540 O   0  0  0  0  0  0  0  0  0  0  0  0
   67.0892    2.9348    6.9839 H   0  0  0  0  0  0  0  0  0  0  0  0
   68.8016    4.9390    6.6838 O   0  0  0  0  0  0  0  0  0  0  0  0
   68.1974    5.1481    5.2008 P   0  0  0  0  0  0  0  0  0  0  0  0
   67.2170    6.3236    5.3352 O   0  0  0  0  0  0  0  0  0  0  0  0
   69.4027    5.5050    4.3660 O   0  0  0  0  0  0  0  0  0  0  0  0
   67.4919    3.9512    4.7036 O   0  0  0  0  0  0  0  0  0  0  0  0
   66.7286    3.7660    5.2728 H   0  0  0  0  0  0  0  0  0  0  0  0
  8  9  2  0  0  0
  8 15  1  0  0  0
  9 10  1  0  0  0
  9 11  1  0  0  0
 11 12  2  0  0  0
 12 13  1  0  0  0
 12 14  1  0  0  0
 14 15  2  0  0  0
 14  7  1  0  0  0
  7  1  1  0  0  0
  1  2  2  0  0  0
  1  5  1  0  0  0
  2  3  1  0  0  0
  3  4  1  0  0  0
  4  5  2  0  0  0
  4 18  1  0  0  0
  5  6  1  0  0  0
 18 19  1  0  0  0
 19 20  1  0  0  0
 20 21  1  0  0  0
 21 25  1  0  0  0
 21 22  2  0  0  0
 21 23  1  0  0  0
 25 26  1  0  0  0
 26 27  2  0  0  0
 26 28  1  0  0  0
 26 29  1  0  0  0
 13 16  1  0  0  0
 13 17  1  0  0  0
 23 24  1  0  0  0
 29 30  1  0  0  0
M  CHG 1   1   1
M  CHG 1  28  -1
M  END
> <minimizedAffinity>
-9.88710

$$$$
1OLU_TDP_A_601


 30 31  0  0  0  0  0  0  0  0999 V2000
   75.3869    2.2484    6.6225 N   0  0  0  0  0  0  0  0  0  0  0  0
   75.2885    3.5010    6.0334 C   0  0  0  0  0  0  0  0  0  0  0  0
   73.5928    3.8924    5.6981 S   0  0  0  0  0  0  0  0  0  0  0  0
   73.0768    2.3501    6.3628 C   0  0  0  0  0  0  0  0  0  0  0  0
   74.0821    1.5356    6.8223 C   0  0  0  0  0  0  0  0  0  0  0  0
   73.9675    0.1252    7.4469 C   0  0  0  0  0  0  0  0  0  0  0  0
   76.6719    1.6832    7.0250 C   0  0  0  0  0  0  0  0  0  0  0  0
   76.8695    0.7112   10.7490 N   0  0  0  0  0  0  0  0  0  0  0  0
   77.2620    1.8893   11.3280 C   0  0  0  0  0  0  0  0  0  0  0  0
   77.4576    1.8843   12.8585 C   0  0  0  0  0  0  0  0  0  0  0  0
   77.4695    3.0099   10.6300 N   0  0  0  0  0  0  0  0  0  0  0  0
   77.2758    2.9537    9.2521 C   0  0  0  0  0  0  0  0  0  0  0  0
   77.4981    4.1622    8.5746 N   0  0  0  0  0  0  0  0  0  0  0  0
   76.8729    1.7445    8.5516 C   0  0  0  0  0  0  0  0  0  0  0  0
   76.6808    0.6281    9.4029 C   0  0  0  0  0  0  0  0  0  0  0  0
   77.7703    4.9647    9.0759 H   0  0  0  0  0  0  0  0  0  0  0  0
   77.3819    4.2077    7.5981 H   0  0  0  0  0  0  0  0  0  0  0  0
   71.5769    2.1780    6.3408 C   0  0  0  0  0  0  0  0  0  0  0  0
   70.9415    3.1995    5.3527 C   0  0  0  0  0  0  0  0  0  0  0  0
   69.5854    3.4341    5.7478 O   0  0  0  0  0  0  0  0  0  0  0  0
   68.9803    4.8619    5.6177 P   0  0  0  0  0  0  0  0  0  0  0  0
   67.5456    4.7543    5.1735 O   0  0  0  0  0  0  0  0  0  0  0  0
   69.8017    5.5804    4.6107 O   0  0  0  0  0  0  0  0  0  0  0  0
   70.7190    5.6354    4.9212 H   0  0  0  0  0  0  0  0  0  0  0  0
   69.0696    5.6152    6.9992 O   0  0  0  0  0  0  0  0  0  0  0  0
   70.2244    5.8496    8.1035 P   0  0  0  0  0  0  0  0  0  0  0  0
   70.3552    4.5026    8.8312 O   0  0  0  0  0  0  0  0  0  0  0  0
   71.4486    6.1748    7.2835 O   0  0  0  0  0  0  0  0  0  0  0  0
   69.8802    6.9157    9.0641 O   0  0  0  0  0  0  0  0  0  0  0  0
   69.0896    6.6580    9.5635 H   0  0  0  0  0  0  0  0  0  0  0  0
  8  9  2  0  0  0
  8 15  1  0  0  0
  9 10  1  0  0  0
  9 11  1  0  0  0
 11 12  2  0  0  0
 12 13  1  0  0  0
 12 14  1  0  0  0
 14 15  2  0  0  0
 14  7  1  0  0  0
  7  1  1  0  0  0
  1  2  2  0  0  0
  1  5  1  0  0  0
  2  3  1  0  0  0
  3  4  1  0  0  0
  4  5  2  0  0  0
  4 18  1  0  0  0
  5  6  1  0  0  0
 18 19  1  0  0  0
 19 20  1  0  0  0
 20 21  1  0  0  0
 21 25  1  0  0  0
 21 22  2  0  0  0
 21 23  1  0  0  0
 25 26  1  0  0  0
 26 27  2  0  0  0
 26 28  1  0  0  0
 26 29  1  0  0  0
 13 16  1  0  0  0
 13 17  1  0  0  0
 23 24  1  0  0  0
 29 30  1  0  0  0
M  CHG 1   1   1
M  CHG 1  28  -1
M  END
> <minimizedAffinity>
-9.37346

$$$$
1OLU_TDP_A_601


 30 31  0  0  0  0  0  0  0  0999 V2000
   75.6622    2.2357    6.3359 N   0  0  0  0  0  0  0  0  0  0  0  0
   74.4301    1.8283    6.8275 C   0  0  0  0  0  0  0  0  0  0  0  0
   73.1218    2.6994    6.0086 S   0  0  0  0  0  0  0  0  0  0  0  0
   74.2845    3.5847    5.0334 C   0  0  0  0  0  0  0  0  0  0  0  0
   75.6044    3.2901    5.2703 C   0  0  0  0  0  0  0  0  0  0  0  0
   76.8603    3.8941    4.5990 C   0  0  0  0  0  0  0  0  0  0  0  0
   76.9148    1.6624    6.8206 C   0  0  0  0  0  0  0  0  0  0  0  0
   76.9297    0.6637   10.5428 N   0  0  0  0  0  0  0  0  0  0  0  0
   77.2187    1.8554   11.1538 C   0  0  0  0  0  0  0  0  0  0  0  0
   77.3170    1.8451   12.6937 C   0  0  0  0  0  0  0  0  0  0  0  0
   77.4075    2.9930   10.4784 N   0  0  0  0  0  0  0  0  0  0  0  0
   77.3050    2.9407    9.0906 C   0  0  0  0  0  0  0  0  0  0  0  0
   77.5023    4.1667    8.4371 N   0  0  0  0  0  0  0  0  0  0  0  0
   77.0150    1.7186    8.3573 C   0  0  0  0  0  0  0  0  0  0  0  0
   76.8317    0.5845    9.1868 C   0  0  0  0  0  0  0  0  0  0  0  0
   77.6972    4.9776    8.9603 H   0  0  0  0  0  0  0  0  0  0  0  0
   77.4458    4.2160    7.4555 H   0  0  0  0  0  0  0  0  0  0  0  0
   73.6269    4.5292    4.0561 C   0  0  0  0  0  0  0  0  0  0  0  0
   72.1205    4.6949    4.4121 C   0  0  0  0  0  0  0  0  0  0  0  0
   71.8856    6.0583    4.7809 O   0  0  0  0  0  0  0  0  0  0  0  0
   70.7871    6.3950    5.8305 P   0  0  0  0  0  0  0  0  0  0  0  0
   71.2083    7.6072    6.6182 O   0  0  0  0  0  0  0  0  0  0  0  0
   70.6587    5.2032    6.7070 O   0  0  0  0  0  0  0  0  0  0  0  0
   70.3870    4.4387    6.1754 H   0  0  0  0  0  0  0  0  0  0  0  0
   69.4125    6.6634    5.1078 O   0  0  0  0  0  0  0  0  0  0  0  0
   68.0596    5.8147    4.8678 P   0  0  0  0  0  0  0  0  0  0  0  0
   66.9179    6.8168    5.0985 O   0  0  0  0  0  0  0  0  0  0  0  0
   68.1548    5.3825    3.4252 O   0  0  0  0  0  0  0  0  0  0  0  0
   67.9336    4.6764    5.7984 O   0  0  0  0  0  0  0  0  0  0  0  0
   67.8763    5.0075    6.7083 H   0  0  0  0  0  0  0  0  0  0  0  0
  8  9  2  0  0  0
  8 15  1  0  0  0
  9 10  1  0  0  0
  9 11  1  0  0  0
 11 12  2  0  0  0
 12 13  1  0  0  0
 12 14  1  0  0  0
 14 15  2  0  0  0
 14  7  1  0  0  0
  7  1  1  0  0  0
  1  2  2  0  0  0
  1  5  1  0  0  0
  2  3  1  0  0  0
  3  4  1  0  0  0
  4  5  2  0  0  0
  4 18  1  0  0  0
  5  6  1  0  0  0
 18 19  1  0  0  0
 19 20  1  0  0  0
 20 21  1  0  0  0
 21 25  1  0  0  0
 21 22  2  0  0  0
 21 23  1  0  0  0
 25 26  1  0  0  0
 26 27  2  0  0  0
 26 28  1  0  0  0
 26 29  1  0  0  0
 13 16  1  0  0  0
 13 17  1  0  0  0
 23 24  1  0  0  0
 29 30  1  0  0  0
M  CHG 1   1   1
M  CHG 1  28  -1
M  END
> <minimizedAffinity>
-9.32135

$$$$
1OLU_TDP_A_601


 30 31  0  0  0  0  0  0  0  0999 V2000
   75.2939    2.3667    6.2265 N   0  0  0  0  0  0  0  0  0  0  0  0
   74.1348    1.8689    6.8048 C   0  0  0  0  0  0  0  0  0  0  0  0
   72.7101    2.6600    6.1080 S   0  0  0  0  0  0  0  0  0  0  0  0
   73.7298    3.6367    5.0625 C   0  0  0  0  0  0  0  0  0  0  0  0
   75.0811    3.4298    5.1897 C   0  0  0  0  0  0  0  0  0  0  0  0
   76.2364    4.1280    4.4343 C   0  0  0  0  0  0  0  0  0  0  0  0
   76.6167    1.8737    6.6004 C   0  0  0  0  0  0  0  0  0  0  0  0
   76.7974    0.7174   10.2723 N   0  0  0  0  0  0  0  0  0  0  0  0
   77.1923    1.8638   10.9103 C   0  0  0  0  0  0  0  0  0  0  0  0
   77.3824    1.7821   12.4394 C   0  0  0  0  0  0  0  0  0  0  0  0
   77.4065    3.0168   10.2695 N   0  0  0  0  0  0  0  0  0  0  0  0
   77.2175    3.0297    8.8899 C   0  0  0  0  0  0  0  0  0  0  0  0
   77.4467    4.2695    8.2739 N   0  0  0  0  0  0  0  0  0  0  0  0
   76.8125    1.8583    8.1289 C   0  0  0  0  0  0  0  0  0  0  0  0
   76.6132    0.7019    8.9231 C   0  0  0  0  0  0  0  0  0  0  0  0
   77.7201    5.0450    8.8152 H   0  0  0  0  0  0  0  0  0  0  0  0
   77.3341    4.3638    7.3004 H   0  0  0  0  0  0  0  0  0  0  0  0
   72.9348    4.5479    4.1583 C   0  0  0  0  0  0  0  0  0  0  0  0
   71.6879    5.0897    4.9167 C   0  0  0  0  0  0  0  0  0  0  0  0
   70.5131    4.5185    4.3308 O   0  0  0  0  0  0  0  0  0  0  0  0
   69.1122    5.0841    4.7041 P   0  0  0  0  0  0  0  0  0  0  0  0
   68.2874    5.2325    3.4531 O   0  0  0  0  0  0  0  0  0  0  0  0
   69.3450    6.3994    5.3528 O   0  0  0  0  0  0  0  0  0  0  0  0
   69.8773    6.2750    6.1541 H   0  0  0  0  0  0  0  0  0  0  0  0
   68.3928    4.1191    5.7216 O   0  0  0  0  0  0  0  0  0  0  0  0
   68.6110    3.7192    7.2709 P   0  0  0  0  0  0  0  0  0  0  0  0
   69.1547    4.9935    7.9356 O   0  0  0  0  0  0  0  0  0  0  0  0
   67.2240    3.3728    7.7540 O   0  0  0  0  0  0  0  0  0  0  0  0
   69.5685    2.6091    7.4390 O   0  0  0  0  0  0  0  0  0  0  0  0
   70.4408    2.8826    7.1146 H   0  0  0  0  0  0  0  0  0  0  0  0
  8  9  2  0  0  0
  8 15  1  0  0  0
  9 10  1  0  0  0
  9 11  1  0  0  0
 11 12  2  0  0  0
 12 13  1  0  0  0
 12 14  1  0  0  0
 14 15  2  0  0  0
 14  7  1  0  0  0
  7  1  1  0  0  0
  1  2  2  0  0  0
  1  5  1  0  0  0
  2  3  1  0  0  0
  3  4  1  0  0  0
  4  5  2  0  0  0
  4 18  1  0  0  0
  5  6  1  0  0  0
 18 19  1  0  0  0
 19 20  1  0  0  0
 20 21  1  0  0  0
 21 25  1  0  0  0
 21 22  2  0  0  0
 21 23  1  0  0  0
 25 26  1  0  0  0
 26 27  2  0  0  0
 26 28  1  0  0  0
 26 29  1  0  0  0
 13 16  1  0  0  0
 13 17  1  0  0  0
 23 24  1  0  0  0
 29 30  1  0  0  0
M  CHG 1   1   1
M  CHG 1  28  -1
M  END
> <minimizedAffinity>
-9.16655

$$$$
1OLU_TDP_A_601


 30 31  0  0  0  0  0  0  0  0999 V2000
   75.9103    2.3861    6.4028 N   0  0  0  0  0  0  0  0  0  0  0  0
   76.0236    3.5835    5.7105 C   0  0  0  0  0  0  0  0  0  0  0  0
   74.4228    4.1658    5.2212 S   0  0  0  0  0  0  0  0  0  0  0  0
   73.6574    2.7708    5.9662 C   0  0  0  0  0  0  0  0  0  0  0  0
   74.5093    1.8738    6.5617 C   0  0  0  0  0  0  0  0  0  0  0  0
   74.1615    0.5521    7.2860 C   0  0  0  0  0  0  0  0  0  0  0  0
   77.0768    1.6929    6.9424 C   0  0  0  0  0  0  0  0  0  0  0  0
   77.3100    3.1060   10.5203 N   0  0  0  0  0  0  0  0  0  0  0  0
   77.2677    1.9652   11.2779 C   0  0  0  0  0  0  0  0  0  0  0  0
   77.3334    2.1410   12.8094 C   0  0  0  0  0  0  0  0  0  0  0  0
   77.1790    0.7418   10.7474 N   0  0  0  0  0  0  0  0  0  0  0  0
   77.1244    0.6459    9.3592 C   0  0  0  0  0  0  0  0  0  0  0  0
   77.0428   -0.6630    8.8603 N   0  0  0  0  0  0  0  0  0  0  0  0
   77.1502    1.8026    8.4778 C   0  0  0  0  0  0  0  0  0  0  0  0
   77.2504    3.0397    9.1614 C   0  0  0  0  0  0  0  0  0  0  0  0
   77.0271   -1.4265    9.4816 H   0  0  0  0  0  0  0  0  0  0  0  0
   77.0012   -0.8179    7.8889 H   0  0  0  0  0  0  0  0  0  0  0  0
   72.1524    2.7985    5.8474 C   0  0  0  0  0  0  0  0  0  0  0  0
   71.7123    4.0146    4.9808 C   0  0  0  0  0  0  0  0  0  0  0  0
   70.5856    3.6261    4.1873 O   0  0  0  0  0  0  0  0  0  0  0  0
   69.1906    4.2559    4.4683 P   0  0  0  0  0  0  0  0  0  0  0  0
   68.3323    4.1300    3.2375 O   0  0  0  0  0  0  0  0  0  0  0  0
   69.4300    5.6804    4.8124 O   0  0  0  0  0  0  0  0  0  0  0  0
   69.9841    5.7324    5.6069 H   0  0  0  0  0  0  0  0  0  0  0  0
   68.5057    3.5310    5.6886 O   0  0  0  0  0  0  0  0  0  0  0  0
   68.5817    3.6737    7.2955 P   0  0  0  0  0  0  0  0  0  0  0  0
   69.1279    5.0887    7.5415 O   0  0  0  0  0  0  0  0  0  0  0  0
   67.1465    3.5325    7.7396 O   0  0  0  0  0  0  0  0  0  0  0  0
   69.4717    2.6704    7.9108 O   0  0  0  0  0  0  0  0  0  0  0  0
   70.3785    2.8046    7.5935 H   0  0  0  0  0  0  0  0  0  0  0  0
  8  9  2  0  0  0
  8 15  1  0  0  0
  9 10  1  0  0  0
  9 11  1  0  0  0
 11 12  2  0  0  0
 12 13  1  0  0  0
 12 14  1  0  0  0
 14 15  2  0  0  0
 14  7  1  0  0  0
  7  1  1  0  0  0
  1  2  2  0  0  0
  1  5  1  0  0  0
  2  3  1  0  0  0
  3  4  1  0  0  0
  4  5  2  0  0  0
  4 18  1  0  0  0
  5  6  1  0  0  0
 18 19  1  0  0  0
 19 20  1  0  0  0
 20 21  1  0  0  0
 21 25  1  0  0  0
 21 22  2  0  0  0
 21 23  1  0  0  0
 25 26  1  0  0  0
 26 27  2  0  0  0
 26 28  1  0  0  0
 26 29  1  0  0  0
 13 16  1  0  0  0
 13 17  1  0  0  0
 23 24  1  0  0  0
 29 30  1  0  0  0
M  CHG 1   1   1
M  CHG 1  28  -1
M  END
> <minimizedAffinity>
-8.70035

$$$$
1OLU_TDP_A_601


 30 31  0  0  0  0  0  0  0  0999 V2000
   75.0437    1.7804    7.0319 N   0  0  0  0  0  0  0  0  0  0  0  0
   74.2671    0.6452    7.2160 C   0  0  0  0  0  0  0  0  0  0  0  0
   72.5748    0.9849    6.8138 S   0  0  0  0  0  0  0  0  0  0  0  0
   72.9751    2.6481    6.4137 C   0  0  0  0  0  0  0  0  0  0  0  0
   74.2958    2.9930    6.5620 C   0  0  0  0  0  0  0  0  0  0  0  0
   74.9663    4.3637    6.3089 C   0  0  0  0  0  0  0  0  0  0  0  0
   76.4846    1.7771    7.2698 C   0  0  0  0  0  0  0  0  0  0  0  0
   77.3496    3.0196   10.8138 N   0  0  0  0  0  0  0  0  0  0  0  0
   77.4092    1.8458   11.5179 C   0  0  0  0  0  0  0  0  0  0  0  0
   77.7360    1.9496   13.0224 C   0  0  0  0  0  0  0  0  0  0  0  0
   77.2042    0.6498   10.9581 N   0  0  0  0  0  0  0  0  0  0  0  0
   76.9144    0.6190    9.5964 C   0  0  0  0  0  0  0  0  0  0  0  0
   76.7197   -0.6641    9.0628 N   0  0  0  0  0  0  0  0  0  0  0  0
   76.8180    1.8146    8.7738 C   0  0  0  0  0  0  0  0  0  0  0  0
   77.0604    3.0171    9.4830 C   0  0  0  0  0  0  0  0  0  0  0  0
   76.7914   -1.4551    9.6444 H   0  0  0  0  0  0  0  0  0  0  0  0
   76.5115   -0.7732    8.1067 H   0  0  0  0  0  0  0  0  0  0  0  0
   71.7789    3.4381    5.9395 C   0  0  0  0  0  0  0  0  0  0  0  0
   70.5158    2.5282    5.9250 C   0  0  0  0  0  0  0  0  0  0  0  0
   69.7796    2.7496    7.1328 O   0  0  0  0  0  0  0  0  0  0  0  0
   68.7006    3.8698    7.1839 P   0  0  0  0  0  0  0  0  0  0  0  0
   69.2495    5.0536    7.9355 O   0  0  0  0  0  0  0  0  0  0  0  0
   67.5222    3.2923    7.8787 O   0  0  0  0  0  0  0  0  0  0  0  0
   67.1895    2.5333    7.3744 H   0  0  0  0  0  0  0  0  0  0  0  0
   68.2905    4.2930    5.7222 O   0  0  0  0  0  0  0  0  0  0  0  0
   68.2566    5.6818    4.8987 P   0  0  0  0  0  0  0  0  0  0  0  0
   68.2053    5.2642    3.4208 O   0  0  0  0  0  0  0  0  0  0  0  0
   66.9750    6.3385    5.3494 O   0  0  0  0  0  0  0  0  0  0  0  0
   69.4464    6.5177    5.1504 O   0  0  0  0  0  0  0  0  0  0  0  0
   70.2398    6.0515    4.8437 H   0  0  0  0  0  0  0  0  0  0  0  0
  8  9  2  0  0  0
  8 15  1  0  0  0
  9 10  1  0  0  0
  9 11  1  0  0  0
 11 12  2  0  0  0
 12 13  1  0  0  0
 12 14  1  0  0  0
 14 15  2  0  0  0
 14  7  1  0  0  0
  7  1  1  0  0  0
  1  2  2  0  0  0
  1  5  1  0  0  0
  2  3  1  0  0  0
  3  4  1  0  0  0
  4  5  2  0  0  0
  4 18  1  0  0  0
  5  6  1  0  0  0
 18 19  1  0  0  0
 19 20  1  0  0  0
 20 21  1  0  0  0
 21 25  1  0  0  0
 21 22  2  0  0  0
 21 23  1  0  0  0
 25 26  1  0  0  0
 26 27  2  0  0  0
 26 28  1  0  0  0
 26 29  1  0  0  0
 13 16  1  0  0  0
 13 17  1  0  0  0
 23 24  1  0  0  0
 29 30  1  0  0  0
M  CHG 1   1   1
M  CHG 1  28  -1
M  END
> <minimizedAffinity>
-8.57943

$$$$
1OLU_TDP_A_601


 30 31  0  0  0  0  0  0  0  0999 V2000
   75.5995    2.0338    6.6394 N   0  0  0  0  0  0  0  0  0  0  0  0
   74.3438    1.6186    7.0593 C   0  0  0  0  0  0  0  0  0  0  0  0
   73.0804    2.5585    6.2459 S   0  0  0  0  0  0  0  0  0  0  0  0
   74.2923    3.4806    5.3697 C   0  0  0  0  0  0  0  0  0  0  0  0
   75.5978    3.1505    5.6376 C   0  0  0  0  0  0  0  0  0  0  0  0
   76.8870    3.7722    5.0511 C   0  0  0  0  0  0  0  0  0  0  0  0
   76.8242    1.4119    7.1353 C   0  0  0  0  0  0  0  0  0  0  0  0
   76.9080    0.6450   10.9112 N   0  0  0  0  0  0  0  0  0  0  0  0
   77.2446    1.8636   11.4395 C   0  0  0  0  0  0  0  0  0  0  0  0
   77.3821    1.9456   12.9741 C   0  0  0  0  0  0  0  0  0  0  0  0
   77.4466    2.9514   10.6899 N   0  0  0  0  0  0  0  0  0  0  0  0
   77.3069    2.8164    9.3109 C   0  0  0  0  0  0  0  0  0  0  0  0
   77.5203    3.9935    8.5776 N   0  0  0  0  0  0  0  0  0  0  0  0
   76.9654    1.5600    8.6626 C   0  0  0  0  0  0  0  0  0  0  0  0
   76.7730    0.4850    9.5655 C   0  0  0  0  0  0  0  0  0  0  0  0
   77.7503    4.8293    9.0443 H   0  0  0  0  0  0  0  0  0  0  0  0
   77.4399    3.9836    7.5964 H   0  0  0  0  0  0  0  0  0  0  0  0
   73.6864    4.4924    4.4269 C   0  0  0  0  0  0  0  0  0  0  0  0
   72.1695    4.6601    4.7342 C   0  0  0  0  0  0  0  0  0  0  0  0
   71.4193    4.0556    3.6751 O   0  0  0  0  0  0  0  0  0  0  0  0
   69.8779    3.8948    3.8162 P   0  0  0  0  0  0  0  0  0  0  0  0
   69.5805    2.8977    4.9047 O   0  0  0  0  0  0  0  0  0  0  0  0
   69.3791    3.4186    2.5011 O   0  0  0  0  0  0  0  0  0  0  0  0
   69.5833    4.0781    1.8198 H   0  0  0  0  0  0  0  0  0  0  0  0
   69.2176    5.2855    4.1537 O   0  0  0  0  0  0  0  0  0  0  0  0
   68.1177    5.8034    5.2167 P   0  0  0  0  0  0  0  0  0  0  0  0
   67.0500    4.6989    5.2511 O   0  0  0  0  0  0  0  0  0  0  0  0
   68.8833    5.8955    6.5138 O   0  0  0  0  0  0  0  0  0  0  0  0
   67.5088    7.0877    4.8200 O   0  0  0  0  0  0  0  0  0  0  0  0
   67.0306    6.9742    3.9837 H   0  0  0  0  0  0  0  0  0  0  0  0
  8  9  2  0  0  0
  8 15  1  0  0  0
  9 10  1  0  0  0
  9 11  1  0  0  0
 11 12  2  0  0  0
 12 13  1  0  0  0
 12 14  1  0  0  0
 14 15  2  0  0  0
 14  7  1  0  0  0
  7  1  1  0  0  0
  1  2  2  0  0  0
  1  5  1  0  0  0
  2  3  1  0  0  0
  3  4  1  0  0  0
  4  5  2  0  0  0
  4 18  1  0  0  0
  5  6  1  0  0  0
 18 19  1  0  0  0
 19 20  1  0  0  0
 20 21  1  0  0  0
 21 25  1  0  0  0
 21 22  2  0  0  0
 21 23  1  0  0  0
 25 26  1  0  0  0
 26 27  2  0  0  0
 26 28  1  0  0  0
 26 29  1  0  0  0
 13 16  1  0  0  0
 13 17  1  0  0  0
 23 24  1  0  0  0
 29 30  1  0  0  0
M  CHG 1   1   1
M  CHG 1  28  -1
M  END
> <minimizedAffinity>
-8.25895

$$$$
1OLU_TDP_A_601


 30 31  0  0  0  0  0  0  0  0999 V2000
   75.4598    1.4167    7.4972 N   0  0  0  0  0  0  0  0  0  0  0  0
   75.2250    0.0805    7.7887 C   0  0  0  0  0  0  0  0  0  0  0  0
   73.5405   -0.3405    7.4332 S   0  0  0  0  0  0  0  0  0  0  0  0
   73.2122    1.3029    6.9060 C   0  0  0  0  0  0  0  0  0  0  0  0
   74.2726    2.1722    6.9772 C   0  0  0  0  0  0  0  0  0  0  0  0
   74.3127    3.6731    6.6054 C   0  0  0  0  0  0  0  0  0  0  0  0
   76.7746    2.0266    7.6763 C   0  0  0  0  0  0  0  0  0  0  0  0
   77.7669    2.4429    3.9758 N   0  0  0  0  0  0  0  0  0  0  0  0
   78.3209    3.6960    3.9711 C   0  0  0  0  0  0  0  0  0  0  0  0
   78.8421    4.2243    2.6183 C   0  0  0  0  0  0  0  0  0  0  0  0
   78.4253    4.4500    5.0696 N   0  0  0  0  0  0  0  0  0  0  0  0
   77.9385    3.9194    6.2616 C   0  0  0  0  0  0  0  0  0  0  0  0
   78.0851    4.7516    7.3819 N   0  0  0  0  0  0  0  0  0  0  0  0
   77.3234    2.6050    6.3577 C   0  0  0  0  0  0  0  0  0  0  0  0
   77.2767    1.9047    5.1267 C   0  0  0  0  0  0  0  0  0  0  0  0
   78.5057    5.6365    7.2860 H   0  0  0  0  0  0  0  0  0  0  0  0
   77.7675    4.4504    8.2637 H   0  0  0  0  0  0  0  0  0  0  0  0
   71.7921    1.4895    6.4283 C   0  0  0  0  0  0  0  0  0  0  0  0
   70.9467    2.1800    7.5383 C   0  0  0  0  0  0  0  0  0  0  0  0
   70.3016    3.3269    6.9742 O   0  0  0  0  0  0  0  0  0  0  0  0
   68.9659    3.8394    7.5864 P   0  0  0  0  0  0  0  0  0  0  0  0
   69.1951    4.2273    9.0232 O   0  0  0  0  0  0  0  0  0  0  0  0
   67.9944    2.7213    7.4807 O   0  0  0  0  0  0  0  0  0  0  0  0
   67.8656    2.4921    6.5470 H   0  0  0  0  0  0  0  0  0  0  0  0
   68.4331    5.0746    6.7652 O   0  0  0  0  0  0  0  0  0  0  0  0
   68.0089    5.3314    5.2282 P   0  0  0  0  0  0  0  0  0  0  0  0
   66.9699    6.4617    5.2882 O   0  0  0  0  0  0  0  0  0  0  0  0
   69.2920    5.7722    4.5676 O   0  0  0  0  0  0  0  0  0  0  0  0
   67.4226    4.1340    4.5958 O   0  0  0  0  0  0  0  0  0  0  0  0
   66.6034    3.8935    5.0561 H   0  0  0  0  0  0  0  0  0  0  0  0
  8  9  2  0  0  0
  8 15  1  0  0  0
  9 10  1  0  0  0
  9 11  1  0  0  0
 11 12  2  0  0  0
 12 13  1  0  0  0
 12 14  1  0  0  0
 14 15  2  0  0  0
 14  7  1  0  0  0
  7  1  1  0  0  0
  1  2  2  0  0  0
  1  5  1  0  0  0
  2  3  1  0  0  0
  3  4  1  0  0  0
  4  5  2  0  0  0
  4 18  1  0  0  0
  5  6  1  0  0  0
 18 19  1  0  0  0
 19 20  1  0  0  0
 20 21  1  0  0  0
 21 25  1  0  0  0
 21 22  2  0  0  0
 21 23  1  0  0  0
 25 26  1  0  0  0
 26 27  2  0  0  0
 26 28  1  0  0  0
 26 29  1  0  0  0
 13 16  1  0  0  0
 13 17  1  0  0  0
 23 24  1  0  0  0
 29 30  1  0  0  0
M  CHG 1   1   1
M  CHG 1  28  -1
M  END
> <minimizedAffinity>
-8.25405

$$$$
1OLU_TDP_A_601


 30 31  0  0  0  0  0  0  0  0999 V2000
   75.2362    3.6636    4.5634 N   0  0  0  0  0  0  0  0  0  0  0  0
   75.1347    3.1508    3.2780 C   0  0  0  0  0  0  0  0  0  0  0  0
   73.4396    3.1130    2.7621 S   0  0  0  0  0  0  0  0  0  0  0  0
   72.9277    3.7886    4.3010 C   0  0  0  0  0  0  0  0  0  0  0  0
   73.9326    4.0439    5.2010 C   0  0  0  0  0  0  0  0  0  0  0  0
   73.8189    4.6199    6.6320 C   0  0  0  0  0  0  0  0  0  0  0  0
   76.5253    3.8274    5.2299 C   0  0  0  0  0  0  0  0  0  0  0  0
   76.1542    1.0197    7.8435 N   0  0  0  0  0  0  0  0  0  0  0  0
   76.7702    1.5687    8.9373 C   0  0  0  0  0  0  0  0  0  0  0  0
   76.8245    0.7054   10.2150 C   0  0  0  0  0  0  0  0  0  0  0  0
   77.3049    2.7934    8.9333 N   0  0  0  0  0  0  0  0  0  0  0  0
   77.2243    3.5258    7.7517 C   0  0  0  0  0  0  0  0  0  0  0  0
   77.7929    4.8073    7.8111 N   0  0  0  0  0  0  0  0  0  0  0  0
   76.6012    3.0186    6.5393 C   0  0  0  0  0  0  0  0  0  0  0  0
   76.0692    1.7122    6.6740 C   0  0  0  0  0  0  0  0  0  0  0  0
   78.2078    5.1235    8.6460 H   0  0  0  0  0  0  0  0  0  0  0  0
   77.7769    5.3902    7.0178 H   0  0  0  0  0  0  0  0  0  0  0  0
   71.4351    4.0043    4.3756 C   0  0  0  0  0  0  0  0  0  0  0  0
   70.7726    2.8475    5.1796 C   0  0  0  0  0  0  0  0  0  0  0  0
   70.5543    3.2917    6.5231 O   0  0  0  0  0  0  0  0  0  0  0  0
   69.1412    3.7815    6.9534 P   0  0  0  0  0  0  0  0  0  0  0  0
   69.2860    4.9228    7.9248 O   0  0  0  0  0  0  0  0  0  0  0  0
   68.4645    2.6208    7.5858 O   0  0  0  0  0  0  0  0  0  0  0  0
   68.3844    1.9018    6.9396 H   0  0  0  0  0  0  0  0  0  0  0  0
   68.3198    4.2408    5.6892 O   0  0  0  0  0  0  0  0  0  0  0  0
   68.0957    5.6403    4.9152 P   0  0  0  0  0  0  0  0  0  0  0  0
   68.1622    5.2820    3.4225 O   0  0  0  0  0  0  0  0  0  0  0  0
   66.7117    6.0692    5.3365 O   0  0  0  0  0  0  0  0  0  0  0  0
   69.1292    6.6407    5.2450 O   0  0  0  0  0  0  0  0  0  0  0  0
   69.9964    6.3175    4.9545 H   0  0  0  0  0  0  0  0  0  0  0  0
  8  9  2  0  0  0
  8 15  1  0  0  0
  9 10  1  0  0  0
  9 11  1  0  0  0
 11 12  2  0  0  0
 12 13  1  0  0  0
 12 14  1  0  0  0
 14 15  2  0  0  0
 14  7  1  0  0  0
  7  1  1  0  0  0
  1  2  2  0  0  0
  1  5  1  0  0  0
  2  3  1  0  0  0
  3  4  1  0  0  0
  4  5  2  0  0  0
  4 18  1  0  0  0
  5  6  1  0  0  0
 18 19  1  0  0  0
 19 20  1  0  0  0
 20 21  1  0  0  0
 21 25  1  0  0  0
 21 22  2  0  0  0
 21 23  1  0  0  0
 25 26  1  0  0  0
 26 27  2  0  0  0
 26 28  1  0  0  0
 26 29  1  0  0  0
 13 16  1  0  0  0
 13 17  1  0  0  0
 23 24  1  0  0  0
 29 30  1  0  0  0
M  CHG 1   1   1
M  CHG 1  28  -1
M  END
> <minimizedAffinity>
-8.17914

$$$$
1OLU_TDP_A_601


 30 31  0  0  0  0  0  0  0  0999 V2000
   75.8813    3.0603    5.3859 N   0  0  0  0  0  0  0  0  0  0  0  0
   75.1584    3.8037    4.4638 C   0  0  0  0  0  0  0  0  0  0  0  0
   73.4194    3.6190    4.7513 S   0  0  0  0  0  0  0  0  0  0  0  0
   73.7297    2.5425    6.1047 C   0  0  0  0  0  0  0  0  0  0  0  0
   75.0527    2.2904    6.3714 C   0  0  0  0  0  0  0  0  0  0  0  0
   75.6569    1.3876    7.4726 C   0  0  0  0  0  0  0  0  0  0  0  0
   77.3416    3.0475    5.3928 C   0  0  0  0  0  0  0  0  0  0  0  0
   78.4622    0.1931    3.0585 N   0  0  0  0  0  0  0  0  0  0  0  0
   78.9530    0.8846    1.9822 C   0  0  0  0  0  0  0  0  0  0  0  0
   79.5020    0.0493    0.8068 C   0  0  0  0  0  0  0  0  0  0  0  0
   78.9747    2.2195    1.9229 N   0  0  0  0  0  0  0  0  0  0  0  0
   78.4667    2.9194    3.0144 C   0  0  0  0  0  0  0  0  0  0  0  0
   78.5258    4.3166    2.8995 N   0  0  0  0  0  0  0  0  0  0  0  0
   77.9144    2.2693    4.1924 C   0  0  0  0  0  0  0  0  0  0  0  0
   77.9529    0.8540    4.1347 C   0  0  0  0  0  0  0  0  0  0  0  0
   78.9054    4.7283    2.0898 H   0  0  0  0  0  0  0  0  0  0  0  0
   78.1878    4.8852    3.6287 H   0  0  0  0  0  0  0  0  0  0  0  0
   72.4631    2.0783    6.7830 C   0  0  0  0  0  0  0  0  0  0  0  0
   71.3799    3.1934    6.7015 C   0  0  0  0  0  0  0  0  0  0  0  0
   70.0919    2.5924    6.8744 O   0  0  0  0  0  0  0  0  0  0  0  0
   68.9415    3.4096    7.5305 P   0  0  0  0  0  0  0  0  0  0  0  0
   69.2185    3.5630    9.0025 O   0  0  0  0  0  0  0  0  0  0  0  0
   67.6907    2.6442    7.2965 O   0  0  0  0  0  0  0  0  0  0  0  0
   67.5365    2.5604    6.3425 H   0  0  0  0  0  0  0  0  0  0  0  0
   68.8245    4.8245    6.8461 O   0  0  0  0  0  0  0  0  0  0  0  0
   67.9935    5.4293    5.6005 P   0  0  0  0  0  0  0  0  0  0  0  0
   67.6582    4.2145    4.7214 O   0  0  0  0  0  0  0  0  0  0  0  0
   66.7639    6.0251    6.2410 O   0  0  0  0  0  0  0  0  0  0  0  0
   68.7712    6.4173    4.8282 O   0  0  0  0  0  0  0  0  0  0  0  0
   69.5474    5.9850    4.4389 H   0  0  0  0  0  0  0  0  0  0  0  0
  8  9  2  0  0  0
  8 15  1  0  0  0
  9 10  1  0  0  0
  9 11  1  0  0  0
 11 12  2  0  0  0
 12 13  1  0  0  0
 12 14  1  0  0  0
 14 15  2  0  0  0
 14  7  1  0  0  0
  7  1  1  0  0  0
  1  2  2  0  0  0
  1  5  1  0  0  0
  2  3  1  0  0  0
  3  4  1  0  0  0
  4  5  2  0  0  0
  4 18  1  0  0  0
  5  6  1  0  0  0
 18 19  1  0  0  0
 19 20  1  0  0  0
 20 21  1  0  0  0
 21 25  1  0  0  0
 21 22  2  0  0  0
 21 23  1  0  0  0
 25 26  1  0  0  0
 26 27  2  0  0  0
 26 28  1  0  0  0
 26 29  1  0  0  0
 13 16  1  0  0  0
 13 17  1  0  0  0
 23 24  1  0  0  0
 29 30  1  0  0  0
M  CHG 1   1   1
M  CHG 1  28  -1
M  END
> <minimizedAffinity>
-8.12254

$$$$
