3BUH_AED_A_394


 19 20  0  0  0  0  0  0  0  0999 V2000
  -23.7891   42.0521   94.0441 C   0  0  0  0  0  0  0  0  0  0  0  0
  -22.8240   43.2580   91.7266 C   0  0  0  0  0  0  0  0  0  0  0  0
  -24.3679   43.2482   93.6048 C   0  0  0  0  0  0  0  0  0  0  0  0
  -24.2863   41.4787   95.1868 O   0  0  0  0  0  0  0  0  0  0  0  0
  -23.8745   43.8481   92.4444 C   0  0  0  0  0  0  0  0  0  0  0  0
  -22.2599   42.0583   92.1814 C   0  0  0  0  0  0  0  0  0  0  0  0
  -22.7332   41.4411   93.3457 C   0  0  0  0  0  0  0  0  0  0  0  0
  -24.9902   41.8895   95.6491 H   0  0  0  0  0  0  0  0  0  0  0  0
  -21.7114   39.2764   92.6343 C   0  0  0  0  0  0  0  0  0  0  0  0
  -20.9692   40.4376   94.8313 C   0  0  0  0  0  0  0  0  0  0  0  0
  -20.8993   38.0534   93.0698 C   0  0  0  0  0  0  0  0  0  0  0  0
  -22.1205   40.1479   93.8382 C   0  0  0  0  0  0  0  0  0  0  0  0
  -19.6112   38.5530   93.7290 C   0  0  0  0  0  0  0  0  0  0  0  0
  -19.9471   39.3038   95.0247 C   0  0  0  0  0  0  0  0  0  0  0  0
  -22.2842   43.9015   90.4701 C   0  0  0  0  0  0  0  0  0  0  0  0
  -21.9803   42.8839   89.3599 C   0  0  0  0  0  0  0  0  0  0  0  0
  -21.8657   43.5395   88.0345 N   0  0  0  0  0  0  0  0  0  0  0  0
  -22.7489   43.9938   87.8023 H   0  0  0  0  0  0  0  0  0  0  0  0
  -21.6474   42.8386   87.3263 H   0  0  0  0  0  0  0  0  0  0  0  0
  1  3  2  0  0  0
  1  4  1  0  0  0
  1  7  1  0  0  0
  9 11  1  0  0  0
  9 12  1  0  0  0
 10 12  1  0  0  0
 10 14  1  0  0  0
  2 15  1  0  0  0
  2  5  2  0  0  0
  2  6  1  0  0  0
  3  5  1  0  0  0
 11 13  1  0  0  0
 15 16  1  0  0  0
 16 17  1  0  0  0
  6  7  2  0  0  0
  7 12  1  0  0  0
 13 14  1  0  0  0
  4  8  1  0  0  0
 17 18  1  0  0  0
 17 19  1  0  0  0
M  END
> <minimizedAffinity>
-6.31643

$$$$
3BUH_AED_A_394


 19 20  0  0  0  0  0  0  0  0999 V2000
  -22.3300   40.7138   94.9512 C   0  0  0  0  0  0  0  0  0  0  0  0
  -19.7578   39.7349   94.5246 C   0  0  0  0  0  0  0  0  0  0  0  0
  -21.5725   40.2841   96.0467 C   0  0  0  0  0  0  0  0  0  0  0  0
  -23.5925   41.1941   95.1909 O   0  0  0  0  0  0  0  0  0  0  0  0
  -20.2856   39.7904   95.8228 C   0  0  0  0  0  0  0  0  0  0  0  0
  -20.5313   40.1729   93.4410 C   0  0  0  0  0  0  0  0  0  0  0  0
  -21.8268   40.6660   93.6395 C   0  0  0  0  0  0  0  0  0  0  0  0
  -23.9238   41.2241   96.0669 H   0  0  0  0  0  0  0  0  0  0  0  0
  -22.4234   42.6387   92.2294 C   0  0  0  0  0  0  0  0  0  0  0  0
  -22.4031   40.2467   91.2275 C   0  0  0  0  0  0  0  0  0  0  0  0
  -23.0806   43.1182   90.9321 C   0  0  0  0  0  0  0  0  0  0  0  0
  -22.6627   41.1348   92.4682 C   0  0  0  0  0  0  0  0  0  0  0  0
  -22.4330   42.3636   89.7683 C   0  0  0  0  0  0  0  0  0  0  0  0
  -22.7663   40.8687   89.8678 C   0  0  0  0  0  0  0  0  0  0  0  0
  -18.3661   39.2015   94.2742 C   0  0  0  0  0  0  0  0  0  0  0  0
  -18.0527   39.0251   92.7806 C   0  0  0  0  0  0  0  0  0  0  0  0
  -16.8238   39.7578   92.3899 N   0  0  0  0  0  0  0  0  0  0  0  0
  -16.9534   40.7549   92.5616 H   0  0  0  0  0  0  0  0  0  0  0  0
  -16.6374   39.6049   91.3989 H   0  0  0  0  0  0  0  0  0  0  0  0
  1  3  2  0  0  0
  1  4  1  0  0  0
  1  7  1  0  0  0
  9 11  1  0  0  0
  9 12  1  0  0  0
 10 12  1  0  0  0
 10 14  1  0  0  0
  2 15  1  0  0  0
  2  5  2  0  0  0
  2  6  1  0  0  0
  3  5  1  0  0  0
 11 13  1  0  0  0
 15 16  1  0  0  0
 16 17  1  0  0  0
  6  7  2  0  0  0
  7 12  1  0  0  0
 13 14  1  0  0  0
  4  8  1  0  0  0
 17 18  1  0  0  0
 17 19  1  0  0  0
M  END
> <minimizedAffinity>
-6.27729

$$$$
3BUH_AED_A_394


 19 20  0  0  0  0  0  0  0  0999 V2000
  -18.6311   41.8360   96.1509 C   0  0  0  0  0  0  0  0  0  0  0  0
  -16.4888   41.8028   94.3716 C   0  0  0  0  0  0  0  0  0  0  0  0
  -17.5486   42.6959   96.3692 C   0  0  0  0  0  0  0  0  0  0  0  0
  -19.6738   41.8758   97.0414 O   0  0  0  0  0  0  0  0  0  0  0  0
  -16.4768   42.6690   95.4745 C   0  0  0  0  0  0  0  0  0  0  0  0
  -17.5836   40.9516   94.1687 C   0  0  0  0  0  0  0  0  0  0  0  0
  -18.6672   40.9557   95.0555 C   0  0  0  0  0  0  0  0  0  0  0  0
  -19.6454   42.4642   97.7701 H   0  0  0  0  0  0  0  0  0  0  0  0
  -21.0063   40.8175   94.1921 C   0  0  0  0  0  0  0  0  0  0  0  0
  -19.4130   38.7764   94.0455 C   0  0  0  0  0  0  0  0  0  0  0  0
  -22.1458   39.8907   93.7593 C   0  0  0  0  0  0  0  0  0  0  0  0
  -19.8470   40.0331   94.8379 C   0  0  0  0  0  0  0  0  0  0  0  0
  -21.5976   38.9327   92.6986 C   0  0  0  0  0  0  0  0  0  0  0  0
  -20.5386   38.0146   93.3242 C   0  0  0  0  0  0  0  0  0  0  0  0
  -15.3323   41.7676   93.3992 C   0  0  0  0  0  0  0  0  0  0  0  0
  -15.4528   40.6361   92.3670 C   0  0  0  0  0  0  0  0  0  0  0  0
  -14.1811   39.8857   92.2281 N   0  0  0  0  0  0  0  0  0  0  0  0
  -13.4468   40.5173   91.9082 H   0  0  0  0  0  0  0  0  0  0  0  0
  -14.3023   39.1339   91.5495 H   0  0  0  0  0  0  0  0  0  0  0  0
  1  3  2  0  0  0
  1  4  1  0  0  0
  1  7  1  0  0  0
  9 11  1  0  0  0
  9 12  1  0  0  0
 10 12  1  0  0  0
 10 14  1  0  0  0
  2 15  1  0  0  0
  2  5  2  0  0  0
  2  6  1  0  0  0
  3  5  1  0  0  0
 11 13  1  0  0  0
 15 16  1  0  0  0
 16 17  1  0  0  0
  6  7  2  0  0  0
  7 12  1  0  0  0
 13 14  1  0  0  0
  4  8  1  0  0  0
 17 18  1  0  0  0
 17 19  1  0  0  0
M  END
> <minimizedAffinity>
-6.02017

$$$$
3BUH_AED_A_394


 19 20  0  0  0  0  0  0  0  0999 V2000
  -16.3581   38.7845   94.2060 C   0  0  0  0  0  0  0  0  0  0  0  0
  -15.9762   41.4998   93.7184 C   0  0  0  0  0  0  0  0  0  0  0  0
  -15.0639   39.2597   93.9656 C   0  0  0  0  0  0  0  0  0  0  0  0
  -16.5165   37.4432   94.4462 O   0  0  0  0  0  0  0  0  0  0  0  0
  -14.8825   40.6218   93.7175 C   0  0  0  0  0  0  0  0  0  0  0  0
  -17.2641   41.0047   93.9644 C   0  0  0  0  0  0  0  0  0  0  0  0
  -17.4721   39.6419   94.2094 C   0  0  0  0  0  0  0  0  0  0  0  0
  -15.7711   36.8755   94.4429 H   0  0  0  0  0  0  0  0  0  0  0  0
  -19.6594   40.1237   95.3138 C   0  0  0  0  0  0  0  0  0  0  0  0
  -19.5504   38.7114   93.1414 C   0  0  0  0  0  0  0  0  0  0  0  0
  -21.1349   39.7312   95.4308 C   0  0  0  0  0  0  0  0  0  0  0  0
  -18.8638   39.1077   94.4707 C   0  0  0  0  0  0  0  0  0  0  0  0
  -21.7373   39.7363   94.0235 C   0  0  0  0  0  0  0  0  0  0  0  0
  -21.0868   38.6351   93.1750 C   0  0  0  0  0  0  0  0  0  0  0  0
  -15.7879   42.9752   93.4502 C   0  0  0  0  0  0  0  0  0  0  0  0
  -14.4487   43.5129   93.9769 C   0  0  0  0  0  0  0  0  0  0  0  0
  -13.5779   43.9860   92.8734 N   0  0  0  0  0  0  0  0  0  0  0  0
  -13.3722   43.2089   92.2457 H   0  0  0  0  0  0  0  0  0  0  0  0
  -12.7072   44.3507   93.2598 H   0  0  0  0  0  0  0  0  0  0  0  0
  1  3  2  0  0  0
  1  4  1  0  0  0
  1  7  1  0  0  0
  9 11  1  0  0  0
  9 12  1  0  0  0
 10 12  1  0  0  0
 10 14  1  0  0  0
  2 15  1  0  0  0
  2  5  2  0  0  0
  2  6  1  0  0  0
  3  5  1  0  0  0
 11 13  1  0  0  0
 15 16  1  0  0  0
 16 17  1  0  0  0
  6  7  2  0  0  0
  7 12  1  0  0  0
 13 14  1  0  0  0
  4  8  1  0  0  0
 17 18  1  0  0  0
 17 19  1  0  0  0
M  END
> <minimizedAffinity>
-5.93735

$$$$
3BUH_AED_A_394


 19 20  0  0  0  0  0  0  0  0999 V2000
  -17.0952   42.5251   96.1155 C   0  0  0  0  0  0  0  0  0  0  0  0
  -15.7883   40.5305   94.6767 C   0  0  0  0  0  0  0  0  0  0  0  0
  -15.6971   42.4681   96.1427 C   0  0  0  0  0  0  0  0  0  0  0  0
  -17.7124   43.5197   96.8309 O   0  0  0  0  0  0  0  0  0  0  0  0
  -15.0506   41.4618   95.4221 C   0  0  0  0  0  0  0  0  0  0  0  0
  -17.1877   40.6065   94.6599 C   0  0  0  0  0  0  0  0  0  0  0  0
  -17.8590   41.6025   95.3796 C   0  0  0  0  0  0  0  0  0  0  0  0
  -17.1992   44.1324   97.3200 H   0  0  0  0  0  0  0  0  0  0  0  0
  -19.8972   41.2602   93.9779 C   0  0  0  0  0  0  0  0  0  0  0  0
  -19.9669   40.8723   96.5413 C   0  0  0  0  0  0  0  0  0  0  0  0
  -21.4221   41.1203   93.9698 C   0  0  0  0  0  0  0  0  0  0  0  0
  -19.3703   41.6810   95.3641 C   0  0  0  0  0  0  0  0  0  0  0  0
  -21.7993   40.0121   94.9561 C   0  0  0  0  0  0  0  0  0  0  0  0
  -21.4353   40.4404   96.3842 C   0  0  0  0  0  0  0  0  0  0  0  0
  -15.0958   39.4383   93.8947 C   0  0  0  0  0  0  0  0  0  0  0  0
  -14.3022   39.9739   92.6932 C   0  0  0  0  0  0  0  0  0  0  0  0
  -15.2001   40.4186   91.5998 N   0  0  0  0  0  0  0  0  0  0  0  0
  -15.7563   39.6282   91.2737 H   0  0  0  0  0  0  0  0  0  0  0  0
  -14.6415   40.7827   90.8279 H   0  0  0  0  0  0  0  0  0  0  0  0
  1  3  2  0  0  0
  1  4  1  0  0  0
  1  7  1  0  0  0
  9 11  1  0  0  0
  9 12  1  0  0  0
 10 12  1  0  0  0
 10 14  1  0  0  0
  2 15  1  0  0  0
  2  5  2  0  0  0
  2  6  1  0  0  0
  3  5  1  0  0  0
 11 13  1  0  0  0
 15 16  1  0  0  0
 16 17  1  0  0  0
  6  7  2  0  0  0
  7 12  1  0  0  0
 13 14  1  0  0  0
  4  8  1  0  0  0
 17 18  1  0  0  0
 17 19  1  0  0  0
M  END
> <minimizedAffinity>
-5.89232

$$$$
3BUH_AED_A_394


 19 20  0  0  0  0  0  0  0  0999 V2000
  -16.6737   40.1033   92.3235 C   0  0  0  0  0  0  0  0  0  0  0  0
  -18.8728   39.4914   93.9190 C   0  0  0  0  0  0  0  0  0  0  0  0
  -17.8789   39.7369   91.7137 C   0  0  0  0  0  0  0  0  0  0  0  0
  -15.6079   40.4023   91.5132 O   0  0  0  0  0  0  0  0  0  0  0  0
  -18.9749   39.4272   92.5217 C   0  0  0  0  0  0  0  0  0  0  0  0
  -17.6578   39.8635   94.5103 C   0  0  0  0  0  0  0  0  0  0  0  0
  -16.5430   40.1724   93.7214 C   0  0  0  0  0  0  0  0  0  0  0  0
  -15.6996   40.3549   90.5819 H   0  0  0  0  0  0  0  0  0  0  0  0
  -15.4999   41.4829   95.5736 C   0  0  0  0  0  0  0  0  0  0  0  0
  -14.3849   39.3154   94.6877 C   0  0  0  0  0  0  0  0  0  0  0  0
  -14.2251   41.7445   96.3806 C   0  0  0  0  0  0  0  0  0  0  0  0
  -15.2303   40.5700   94.3610 C   0  0  0  0  0  0  0  0  0  0  0  0
  -13.7263   40.4026   96.9227 C   0  0  0  0  0  0  0  0  0  0  0  0
  -13.2960   39.4989   95.7592 C   0  0  0  0  0  0  0  0  0  0  0  0
  -20.0544   39.1573   94.8002 C   0  0  0  0  0  0  0  0  0  0  0  0
  -21.3138   39.9612   94.4424 C   0  0  0  0  0  0  0  0  0  0  0  0
  -22.4029   39.0813   93.9533 N   0  0  0  0  0  0  0  0  0  0  0  0
  -22.0961   38.5978   93.1091 H   0  0  0  0  0  0  0  0  0  0  0  0
  -23.2263   39.6449   93.7420 H   0  0  0  0  0  0  0  0  0  0  0  0
  1  3  2  0  0  0
  1  4  1  0  0  0
  1  7  1  0  0  0
  9 11  1  0  0  0
  9 12  1  0  0  0
 10 12  1  0  0  0
 10 14  1  0  0  0
  2 15  1  0  0  0
  2  5  2  0  0  0
  2  6  1  0  0  0
  3  5  1  0  0  0
 11 13  1  0  0  0
 15 16  1  0  0  0
 16 17  1  0  0  0
  6  7  2  0  0  0
  7 12  1  0  0  0
 13 14  1  0  0  0
  4  8  1  0  0  0
 17 18  1  0  0  0
 17 19  1  0  0  0
M  END
> <minimizedAffinity>
-5.70471

$$$$
3BUH_AED_A_394


 19 20  0  0  0  0  0  0  0  0999 V2000
  -21.7847   41.9862   90.3486 C   0  0  0  0  0  0  0  0  0  0  0  0
  -23.3006   42.9453   92.4791 C   0  0  0  0  0  0  0  0  0  0  0  0
  -22.5743   43.1272   90.1658 C   0  0  0  0  0  0  0  0  0  0  0  0
  -21.0461   41.5379   89.2831 O   0  0  0  0  0  0  0  0  0  0  0  0
  -23.3346   43.5981   91.2382 C   0  0  0  0  0  0  0  0  0  0  0  0
  -22.5009   41.8060   92.6427 C   0  0  0  0  0  0  0  0  0  0  0  0
  -21.7346   41.3109   91.5804 C   0  0  0  0  0  0  0  0  0  0  0  0
  -21.0825   41.9912   88.4639 H   0  0  0  0  0  0  0  0  0  0  0  0
  -19.4829   40.4870   92.2779 C   0  0  0  0  0  0  0  0  0  0  0  0
  -21.6002   39.0336   92.6395 C   0  0  0  0  0  0  0  0  0  0  0  0
  -18.6445   39.2676   92.6720 C   0  0  0  0  0  0  0  0  0  0  0  0
  -20.8749   40.0780   91.7571 C   0  0  0  0  0  0  0  0  0  0  0  0
  -19.3655   38.5491   93.8153 C   0  0  0  0  0  0  0  0  0  0  0  0
  -20.7010   37.9828   93.3138 C   0  0  0  0  0  0  0  0  0  0  0  0
  -24.1210   43.4487   93.6442 C   0  0  0  0  0  0  0  0  0  0  0  0
  -23.9306   42.6095   94.9169 C   0  0  0  0  0  0  0  0  0  0  0  0
  -25.1352   41.8005   95.2232 N   0  0  0  0  0  0  0  0  0  0  0  0
  -25.9303   42.4201   95.3791 H   0  0  0  0  0  0  0  0  0  0  0  0
  -24.9675   41.2449   96.0620 H   0  0  0  0  0  0  0  0  0  0  0  0
  1  3  2  0  0  0
  1  4  1  0  0  0
  1  7  1  0  0  0
  9 11  1  0  0  0
  9 12  1  0  0  0
 10 12  1  0  0  0
 10 14  1  0  0  0
  2 15  1  0  0  0
  2  5  2  0  0  0
  2  6  1  0  0  0
  3  5  1  0  0  0
 11 13  1  0  0  0
 15 16  1  0  0  0
 16 17  1  0  0  0
  6  7  2  0  0  0
  7 12  1  0  0  0
 13 14  1  0  0  0
  4  8  1  0  0  0
 17 18  1  0  0  0
 17 19  1  0  0  0
M  END
> <minimizedAffinity>
-5.60649

$$$$
3BUH_AED_A_394


 19 20  0  0  0  0  0  0  0  0999 V2000
  -19.8656   38.7629   93.5946 C   0  0  0  0  0  0  0  0  0  0  0  0
  -21.1190   40.5206   91.8352 C   0  0  0  0  0  0  0  0  0  0  0  0
  -21.2187   38.5755   93.2905 C   0  0  0  0  0  0  0  0  0  0  0  0
  -19.2731   37.8804   94.4618 O   0  0  0  0  0  0  0  0  0  0  0  0
  -21.8401   39.4645   92.4110 C   0  0  0  0  0  0  0  0  0  0  0  0
  -19.7638   40.6894   92.1501 C   0  0  0  0  0  0  0  0  0  0  0  0
  -19.1203   39.8149   93.0343 C   0  0  0  0  0  0  0  0  0  0  0  0
  -19.7737   37.1807   94.8329 H   0  0  0  0  0  0  0  0  0  0  0  0
  -16.8585   40.2995   92.0934 C   0  0  0  0  0  0  0  0  0  0  0  0
  -17.4930   41.0649   94.4887 C   0  0  0  0  0  0  0  0  0  0  0  0
  -15.4143   40.7013   92.4058 C   0  0  0  0  0  0  0  0  0  0  0  0
  -17.6580   40.0007   93.3770 C   0  0  0  0  0  0  0  0  0  0  0  0
  -15.4512   41.9908   93.2299 C   0  0  0  0  0  0  0  0  0  0  0  0
  -16.1043   41.7193   94.5920 C   0  0  0  0  0  0  0  0  0  0  0  0
  -21.7847   41.4871   90.8828 C   0  0  0  0  0  0  0  0  0  0  0  0
  -21.9894   40.8981   89.4787 C   0  0  0  0  0  0  0  0  0  0  0  0
  -20.7647   41.0202   88.6512 N   0  0  0  0  0  0  0  0  0  0  0  0
  -20.5264   42.0057   88.5399 H   0  0  0  0  0  0  0  0  0  0  0  0
  -20.9310   40.6050   87.7345 H   0  0  0  0  0  0  0  0  0  0  0  0
  1  3  2  0  0  0
  1  4  1  0  0  0
  1  7  1  0  0  0
  9 11  1  0  0  0
  9 12  1  0  0  0
 10 12  1  0  0  0
 10 14  1  0  0  0
  2 15  1  0  0  0
  2  5  2  0  0  0
  2  6  1  0  0  0
  3  5  1  0  0  0
 11 13  1  0  0  0
 15 16  1  0  0  0
 16 17  1  0  0  0
  6  7  2  0  0  0
  7 12  1  0  0  0
 13 14  1  0  0  0
  4  8  1  0  0  0
 17 18  1  0  0  0
 17 19  1  0  0  0
M  END
> <minimizedAffinity>
-5.57435

$$$$
3BUH_AED_A_394


 19 20  0  0  0  0  0  0  0  0999 V2000
  -15.1801   40.5193   92.7509 C   0  0  0  0  0  0  0  0  0  0  0  0
  -16.9507   41.7485   94.5146 C   0  0  0  0  0  0  0  0  0  0  0  0
  -16.1335   41.4127   92.2494 C   0  0  0  0  0  0  0  0  0  0  0  0
  -14.3189   39.9307   91.8600 O   0  0  0  0  0  0  0  0  0  0  0  0
  -17.0201   42.0208   93.1405 C   0  0  0  0  0  0  0  0  0  0  0  0
  -15.9866   40.8531   94.9974 C   0  0  0  0  0  0  0  0  0  0  0  0
  -15.0907   40.2260   94.1228 C   0  0  0  0  0  0  0  0  0  0  0  0
  -14.3822   40.1292   90.9464 H   0  0  0  0  0  0  0  0  0  0  0  0
  -12.9802   40.0238   95.4421 C   0  0  0  0  0  0  0  0  0  0  0  0
  -14.7308   38.1104   95.4344 C   0  0  0  0  0  0  0  0  0  0  0  0
  -12.0234   39.0726   96.1664 C   0  0  0  0  0  0  0  0  0  0  0  0
  -14.0529   39.2560   94.6447 C   0  0  0  0  0  0  0  0  0  0  0  0
  -12.8405   38.2566   97.1713 C   0  0  0  0  0  0  0  0  0  0  0  0
  -13.8299   37.3516   96.4244 C   0  0  0  0  0  0  0  0  0  0  0  0
  -17.9070   42.4023   95.4852 C   0  0  0  0  0  0  0  0  0  0  0  0
  -19.2278   41.6319   95.6343 C   0  0  0  0  0  0  0  0  0  0  0  0
  -19.7950   41.7785   96.9968 N   0  0  0  0  0  0  0  0  0  0  0  0
  -19.1392   41.4006   97.6805 H   0  0  0  0  0  0  0  0  0  0  0  0
  -20.6772   41.2698   97.0544 H   0  0  0  0  0  0  0  0  0  0  0  0
  1  3  2  0  0  0
  1  4  1  0  0  0
  1  7  1  0  0  0
  9 11  1  0  0  0
  9 12  1  0  0  0
 10 12  1  0  0  0
 10 14  1  0  0  0
  2 15  1  0  0  0
  2  5  2  0  0  0
  2  6  1  0  0  0
  3  5  1  0  0  0
 11 13  1  0  0  0
 15 16  1  0  0  0
 16 17  1  0  0  0
  6  7  2  0  0  0
  7 12  1  0  0  0
 13 14  1  0  0  0
  4  8  1  0  0  0
 17 18  1  0  0  0
 17 19  1  0  0  0
M  END
> <minimizedAffinity>
-5.32791

$$$$
3BUH_AED_A_394


 19 20  0  0  0  0  0  0  0  0999 V2000
  -17.1946   42.3877   95.8774 C   0  0  0  0  0  0  0  0  0  0  0  0
  -14.8514   40.9623   95.3933 C   0  0  0  0  0  0  0  0  0  0  0  0
  -16.0252   42.7443   96.5587 C   0  0  0  0  0  0  0  0  0  0  0  0
  -18.3332   43.1089   96.1331 O   0  0  0  0  0  0  0  0  0  0  0  0
  -14.8563   42.0211   96.3131 C   0  0  0  0  0  0  0  0  0  0  0  0
  -16.0322   40.6228   94.7189 C   0  0  0  0  0  0  0  0  0  0  0  0
  -17.2184   41.3290   94.9530 C   0  0  0  0  0  0  0  0  0  0  0  0
  -18.3126   43.8138   96.7501 H   0  0  0  0  0  0  0  0  0  0  0  0
  -18.1560   40.4491   92.8123 C   0  0  0  0  0  0  0  0  0  0  0  0
  -19.3314   39.9702   95.0739 C   0  0  0  0  0  0  0  0  0  0  0  0
  -19.3862   39.8660   92.1112 C   0  0  0  0  0  0  0  0  0  0  0  0
  -18.4938   40.9587   94.2273 C   0  0  0  0  0  0  0  0  0  0  0  0
  -19.8673   38.6626   92.9259 C   0  0  0  0  0  0  0  0  0  0  0  0
  -20.3631   39.1300   94.3011 C   0  0  0  0  0  0  0  0  0  0  0  0
  -13.5904   40.1746   95.1225 C   0  0  0  0  0  0  0  0  0  0  0  0
  -12.5461   40.9721   94.3265 C   0  0  0  0  0  0  0  0  0  0  0  0
  -12.8075   40.9109   92.8679 N   0  0  0  0  0  0  0  0  0  0  0  0
  -12.7592   39.9415   92.5542 H   0  0  0  0  0  0  0  0  0  0  0  0
  -12.1071   41.4635   92.3735 H   0  0  0  0  0  0  0  0  0  0  0  0
  1  3  2  0  0  0
  1  4  1  0  0  0
  1  7  1  0  0  0
  9 11  1  0  0  0
  9 12  1  0  0  0
 10 12  1  0  0  0
 10 14  1  0  0  0
  2 15  1  0  0  0
  2  5  2  0  0  0
  2  6  1  0  0  0
  3  5  1  0  0  0
 11 13  1  0  0  0
 15 16  1  0  0  0
 16 17  1  0  0  0
  6  7  2  0  0  0
  7 12  1  0  0  0
 13 14  1  0  0  0
  4  8  1  0  0  0
 17 18  1  0  0  0
 17 19  1  0  0  0
M  END
> <minimizedAffinity>
-5.29359

$$$$
