5LLG_VD9_A_302


 16 16  0  0  0  0  0  0  0  0999 V2000
   -5.5803    2.5857   16.1135 C   0  0  0  0  0  0  0  0  0  0  0  0
   -6.4346    3.6234   15.7589 C   0  0  0  0  0  0  0  0  0  0  0  0
   -5.9408    4.5973   14.8551 C   0  0  0  0  0  0  0  0  0  0  0  0
   -4.6244    4.5281   14.3797 C   0  0  0  0  0  0  0  0  0  0  0  0
   -3.7634    3.4968   14.7586 C   0  0  0  0  0  0  0  0  0  0  0  0
   -4.2514    2.4929   15.6252 C   0  0  0  0  0  0  0  0  0  0  0  0
   -6.0607    1.8575   18.5196 O   0  0  0  0  0  0  0  0  0  0  0  0
   -6.2100    1.3452   17.1992 S   0  0  0  0  0  0  0  0  0  0  0  0
   -7.5587    1.1150   16.7321 O   0  0  0  0  0  0  0  0  0  0  0  0
   -5.3601   -0.0387   17.0255 N   0  0  0  0  0  0  0  0  0  0  0  0
   -5.7323   -0.7478   17.6571 H   0  0  0  0  0  0  0  0  0  0  0  0
   -4.3798    0.1341   17.2481 H   0  0  0  0  0  0  0  0  0  0  0  0
   -3.9353    5.7405   13.2915 S   0  0  0  0  0  0  0  0  0  0  0  0
   -2.3996    6.3761   14.1669 C   0  0  0  0  0  0  0  0  0  0  0  0
   -2.8099    7.4077   15.2098 C   0  0  0  0  0  0  0  0  0  0  0  0
   -1.6851    8.4334   15.0626 C   0  0  0  0  0  0  0  0  0  0  0  0
 16 15  1  0  0  0
  7  8  2  0  0  0
 15 14  1  0  0  0
  8  9  2  0  0  0
  8  1  1  0  0  0
  8 10  1  0  0  0
  2  1  2  0  0  0
  2  3  1  0  0  0
  1  6  1  0  0  0
 14 13  1  0  0  0
  3  4  2  0  0  0
  6  5  2  0  0  0
  4  5  1  0  0  0
  4 13  1  0  0  0
 10 11  1  0  0  0
 10 12  1  0  0  0
M  END
> <minimizedAffinity>
-6.18591

$$$$
5LLG_VD9_A_302


 16 16  0  0  0  0  0  0  0  0999 V2000
   -5.4623    2.5406   16.0838 C   0  0  0  0  0  0  0  0  0  0  0  0
   -4.1247    2.5128   15.7066 C   0  0  0  0  0  0  0  0  0  0  0  0
   -3.6514    3.5749   14.8959 C   0  0  0  0  0  0  0  0  0  0  0  0
   -4.5212    4.5844   14.4622 C   0  0  0  0  0  0  0  0  0  0  0  0
   -5.8692    4.5937   14.8244 C   0  0  0  0  0  0  0  0  0  0  0  0
   -6.3496    3.5665   15.6675 C   0  0  0  0  0  0  0  0  0  0  0  0
   -5.6816    1.6181   18.4610 O   0  0  0  0  0  0  0  0  0  0  0  0
   -6.0411    1.2461   17.1342 S   0  0  0  0  0  0  0  0  0  0  0  0
   -7.4529    1.1519   16.8376 O   0  0  0  0  0  0  0  0  0  0  0  0
   -5.3325   -0.1680   16.7271 N   0  0  0  0  0  0  0  0  0  0  0  0
   -5.6741   -0.9083   17.3400 H   0  0  0  0  0  0  0  0  0  0  0  0
   -4.3211   -0.0829   16.8277 H   0  0  0  0  0  0  0  0  0  0  0  0
   -4.0020    5.9068   13.4082 S   0  0  0  0  0  0  0  0  0  0  0  0
   -2.3910    6.5272   14.1488 C   0  0  0  0  0  0  0  0  0  0  0  0
   -2.7019    7.5316   15.2510 C   0  0  0  0  0  0  0  0  0  0  0  0
   -1.6838    8.6295   14.9398 C   0  0  0  0  0  0  0  0  0  0  0  0
 16 15  1  0  0  0
  7  8  2  0  0  0
 15 14  1  0  0  0
  8  9  2  0  0  0
  8  1  1  0  0  0
  8 10  1  0  0  0
  2  1  2  0  0  0
  2  3  1  0  0  0
  1  6  1  0  0  0
 14 13  1  0  0  0
  3  4  2  0  0  0
  6  5  2  0  0  0
  4  5  1  0  0  0
  4 13  1  0  0  0
 10 11  1  0  0  0
 10 12  1  0  0  0
M  END
> <minimizedAffinity>
-6.11985

$$$$
5LLG_VD9_A_302


 16 16  0  0  0  0  0  0  0  0999 V2000
   -5.6082    2.5381   16.1606 C   0  0  0  0  0  0  0  0  0  0  0  0
   -6.4535    3.5771   15.7888 C   0  0  0  0  0  0  0  0  0  0  0  0
   -5.9425    4.5461   14.8892 C   0  0  0  0  0  0  0  0  0  0  0  0
   -4.6191    4.4709   14.4347 C   0  0  0  0  0  0  0  0  0  0  0  0
   -3.7674    3.4383   14.8309 C   0  0  0  0  0  0  0  0  0  0  0  0
   -4.2721    2.4392   15.6935 C   0  0  0  0  0  0  0  0  0  0  0  0
   -6.1219    1.8175   18.5621 O   0  0  0  0  0  0  0  0  0  0  0  0
   -6.2587    1.3037   17.2410 S   0  0  0  0  0  0  0  0  0  0  0  0
   -7.6032    1.0813   16.7582 O   0  0  0  0  0  0  0  0  0  0  0  0
   -5.4159   -0.0859   17.0798 N   0  0  0  0  0  0  0  0  0  0  0  0
   -5.8001   -0.7915   17.7082 H   0  0  0  0  0  0  0  0  0  0  0  0
   -4.4372    0.0810   17.3138 H   0  0  0  0  0  0  0  0  0  0  0  0
   -3.9092    5.6770   13.3529 S   0  0  0  0  0  0  0  0  0  0  0  0
   -3.1203    4.6914   11.9619 C   0  0  0  0  0  0  0  0  0  0  0  0
   -4.1893    4.3245   10.9407 C   0  0  0  0  0  0  0  0  0  0  0  0
   -4.2265    2.8031   11.0923 C   0  0  0  0  0  0  0  0  0  0  0  0
 16 15  1  0  0  0
  7  8  2  0  0  0
 15 14  1  0  0  0
  8  9  2  0  0  0
  8  1  1  0  0  0
  8 10  1  0  0  0
  2  1  2  0  0  0
  2  3  1  0  0  0
  1  6  1  0  0  0
 14 13  1  0  0  0
  3  4  2  0  0  0
  6  5  2  0  0  0
  4  5  1  0  0  0
  4 13  1  0  0  0
 10 11  1  0  0  0
 10 12  1  0  0  0
M  END
> <minimizedAffinity>
-5.99441

$$$$
5LLG_VD9_A_302


 16 16  0  0  0  0  0  0  0  0999 V2000
   -5.4958    2.4749   16.1213 C   0  0  0  0  0  0  0  0  0  0  0  0
   -6.3830    3.5188   15.8858 C   0  0  0  0  0  0  0  0  0  0  0  0
   -5.9273    4.5965   15.0857 C   0  0  0  0  0  0  0  0  0  0  0  0
   -4.6151    4.6162   14.5942 C   0  0  0  0  0  0  0  0  0  0  0  0
   -3.7211    3.5763   14.8546 C   0  0  0  0  0  0  0  0  0  0  0  0
   -4.1706    2.4728   15.6145 C   0  0  0  0  0  0  0  0  0  0  0  0
   -5.6860    1.3661   18.4202 O   0  0  0  0  0  0  0  0  0  0  0  0
   -6.0776    1.1091   17.0754 S   0  0  0  0  0  0  0  0  0  0  0  0
   -7.4965    1.0627   16.8015 O   0  0  0  0  0  0  0  0  0  0  0  0
   -5.4030   -0.2788   16.5406 N   0  0  0  0  0  0  0  0  0  0  0  0
   -5.7461   -1.0607   17.0986 H   0  0  0  0  0  0  0  0  0  0  0  0
   -4.3884   -0.2189   16.6268 H   0  0  0  0  0  0  0  0  0  0  0  0
   -3.9731    5.9561   13.6343 S   0  0  0  0  0  0  0  0  0  0  0  0
   -4.8534    5.8455   11.9785 C   0  0  0  0  0  0  0  0  0  0  0  0
   -5.0035    7.2457   11.3979 C   0  0  0  0  0  0  0  0  0  0  0  0
   -6.5254    7.3572   11.2968 C   0  0  0  0  0  0  0  0  0  0  0  0
 16 15  1  0  0  0
  7  8  2  0  0  0
 15 14  1  0  0  0
  8  9  2  0  0  0
  8  1  1  0  0  0
  8 10  1  0  0  0
  2  1  2  0  0  0
  2  3  1  0  0  0
  1  6  1  0  0  0
 14 13  1  0  0  0
  3  4  2  0  0  0
  6  5  2  0  0  0
  4  5  1  0  0  0
  4 13  1  0  0  0
 10 11  1  0  0  0
 10 12  1  0  0  0
M  END
> <minimizedAffinity>
-5.94736

$$$$
5LLG_VD9_A_302


 16 16  0  0  0  0  0  0  0  0999 V2000
   -4.0486    0.6872   12.0989 C   0  0  0  0  0  0  0  0  0  0  0  0
   -4.2320    2.0643   12.0513 C   0  0  0  0  0  0  0  0  0  0  0  0
   -4.5081    2.7300   13.2719 C   0  0  0  0  0  0  0  0  0  0  0  0
   -4.6324    2.0084   14.4667 C   0  0  0  0  0  0  0  0  0  0  0  0
   -4.4712    0.6224   14.5040 C   0  0  0  0  0  0  0  0  0  0  0  0
   -4.1530   -0.0536   13.3045 C   0  0  0  0  0  0  0  0  0  0  0  0
   -2.5534    0.5681   10.0251 O   0  0  0  0  0  0  0  0  0  0  0  0
   -3.6553   -0.1364   10.5886 S   0  0  0  0  0  0  0  0  0  0  0  0
   -3.4265   -1.5089   10.9811 O   0  0  0  0  0  0  0  0  0  0  0  0
   -4.9358   -0.0958    9.5756 N   0  0  0  0  0  0  0  0  0  0  0  0
   -4.6973   -0.5742    8.7068 H   0  0  0  0  0  0  0  0  0  0  0  0
   -5.1791    0.8740    9.3739 H   0  0  0  0  0  0  0  0  0  0  0  0
   -5.0262    2.7757   16.0111 S   0  0  0  0  0  0  0  0  0  0  0  0
   -6.8711    2.5073   16.2414 C   0  0  0  0  0  0  0  0  0  0  0  0
   -7.0913    1.3165   17.1654 C   0  0  0  0  0  0  0  0  0  0  0  0
   -6.2286    1.7146   18.3638 C   0  0  0  0  0  0  0  0  0  0  0  0
 16 15  1  0  0  0
  7  8  2  0  0  0
 15 14  1  0  0  0
  8  9  2  0  0  0
  8  1  1  0  0  0
  8 10  1  0  0  0
  2  1  2  0  0  0
  2  3  1  0  0  0
  1  6  1  0  0  0
 14 13  1  0  0  0
  3  4  2  0  0  0
  6  5  2  0  0  0
  4  5  1  0  0  0
  4 13  1  0  0  0
 10 11  1  0  0  0
 10 12  1  0  0  0
M  END
> <minimizedAffinity>
-5.84511

$$$$
5LLG_VD9_A_302


 16 16  0  0  0  0  0  0  0  0999 V2000
   -5.6270    1.8245   15.7914 C   0  0  0  0  0  0  0  0  0  0  0  0
   -4.7725    1.0790   14.9875 C   0  0  0  0  0  0  0  0  0  0  0  0
   -4.1783    1.7347   13.8802 C   0  0  0  0  0  0  0  0  0  0  0  0
   -4.4844    3.0718   13.5935 C   0  0  0  0  0  0  0  0  0  0  0  0
   -5.3623    3.8081   14.3907 C   0  0  0  0  0  0  0  0  0  0  0  0
   -5.9312    3.1842   15.5239 C   0  0  0  0  0  0  0  0  0  0  0  0
   -7.7170    0.8722   16.9211 O   0  0  0  0  0  0  0  0  0  0  0  0
   -6.3285    1.0239   17.1991 S   0  0  0  0  0  0  0  0  0  0  0  0
   -5.5512   -0.1864   17.3439 O   0  0  0  0  0  0  0  0  0  0  0  0
   -6.1112    1.9399   18.5337 N   0  0  0  0  0  0  0  0  0  0  0  0
   -6.5201    1.4680   19.3402 H   0  0  0  0  0  0  0  0  0  0  0  0
   -6.5646    2.8442   18.4029 H   0  0  0  0  0  0  0  0  0  0  0  0
   -3.8152    3.9284   12.1980 S   0  0  0  0  0  0  0  0  0  0  0  0
   -3.3195    2.5843   10.9829 C   0  0  0  0  0  0  0  0  0  0  0  0
   -1.8157    2.3591   11.0729 C   0  0  0  0  0  0  0  0  0  0  0  0
   -1.7389    0.8399   10.9144 C   0  0  0  0  0  0  0  0  0  0  0  0
 16 15  1  0  0  0
  7  8  2  0  0  0
 15 14  1  0  0  0
  8  9  2  0  0  0
  8  1  1  0  0  0
  8 10  1  0  0  0
  2  1  2  0  0  0
  2  3  1  0  0  0
  1  6  1  0  0  0
 14 13  1  0  0  0
  3  4  2  0  0  0
  6  5  2  0  0  0
  4  5  1  0  0  0
  4 13  1  0  0  0
 10 11  1  0  0  0
 10 12  1  0  0  0
M  END
> <minimizedAffinity>
-5.81983

$$$$
5LLG_VD9_A_302


 16 16  0  0  0  0  0  0  0  0999 V2000
   -5.5384    1.6521   15.6358 C   0  0  0  0  0  0  0  0  0  0  0  0
   -5.7381    2.8775   15.0105 C   0  0  0  0  0  0  0  0  0  0  0  0
   -5.1700    3.0556   13.7241 C   0  0  0  0  0  0  0  0  0  0  0  0
   -4.4013    2.0420   13.1363 C   0  0  0  0  0  0  0  0  0  0  0  0
   -4.1841    0.8226   13.7798 C   0  0  0  0  0  0  0  0  0  0  0  0
   -4.7783    0.6103   15.0443 C   0  0  0  0  0  0  0  0  0  0  0  0
   -6.2806    2.6812   17.8586 O   0  0  0  0  0  0  0  0  0  0  0  0
   -6.2870    1.4105   17.2155 S   0  0  0  0  0  0  0  0  0  0  0  0
   -7.5776    0.8336   16.9129 O   0  0  0  0  0  0  0  0  0  0  0  0
   -5.4283    0.3273   18.0853 N   0  0  0  0  0  0  0  0  0  0  0  0
   -5.8696    0.1956   18.9954 H   0  0  0  0  0  0  0  0  0  0  0  0
   -4.4774    0.6728   18.2153 H   0  0  0  0  0  0  0  0  0  0  0  0
   -3.6247    2.2241   11.5574 S   0  0  0  0  0  0  0  0  0  0  0  0
   -2.6374    0.6459   11.3062 C   0  0  0  0  0  0  0  0  0  0  0  0
   -3.4415   -0.3138   10.4387 C   0  0  0  0  0  0  0  0  0  0  0  0
   -3.2186   -1.6327   11.1803 C   0  0  0  0  0  0  0  0  0  0  0  0
 16 15  1  0  0  0
  7  8  2  0  0  0
 15 14  1  0  0  0
  8  9  2  0  0  0
  8  1  1  0  0  0
  8 10  1  0  0  0
  2  1  2  0  0  0
  2  3  1  0  0  0
  1  6  1  0  0  0
 14 13  1  0  0  0
  3  4  2  0  0  0
  6  5  2  0  0  0
  4  5  1  0  0  0
  4 13  1  0  0  0
 10 11  1  0  0  0
 10 12  1  0  0  0
M  END
> <minimizedAffinity>
-5.67046

$$$$
5LLG_VD9_A_302


 16 16  0  0  0  0  0  0  0  0999 V2000
   -4.4323    1.9786   14.3105 C   0  0  0  0  0  0  0  0  0  0  0  0
   -4.3490    3.3058   14.7151 C   0  0  0  0  0  0  0  0  0  0  0  0
   -4.3296    4.2981   13.7031 C   0  0  0  0  0  0  0  0  0  0  0  0
   -4.3495    3.9377   12.3490 C   0  0  0  0  0  0  0  0  0  0  0  0
   -4.4086    2.6018   11.9487 C   0  0  0  0  0  0  0  0  0  0  0  0
   -4.4721    1.6002   12.9436 C   0  0  0  0  0  0  0  0  0  0  0  0
   -4.3880   -0.5100   14.9068 O   0  0  0  0  0  0  0  0  0  0  0  0
   -4.5071    0.7447   15.5699 S   0  0  0  0  0  0  0  0  0  0  0  0
   -3.4489    1.1069   16.4860 O   0  0  0  0  0  0  0  0  0  0  0  0
   -5.9314    0.8367   16.3639 N   0  0  0  0  0  0  0  0  0  0  0  0
   -5.9635    0.1197   17.0887 H   0  0  0  0  0  0  0  0  0  0  0  0
   -6.6973    0.6901   15.7064 H   0  0  0  0  0  0  0  0  0  0  0  0
   -4.2756    5.1268   11.0415 S   0  0  0  0  0  0  0  0  0  0  0  0
   -4.8377    6.7454   11.8115 C   0  0  0  0  0  0  0  0  0  0  0  0
   -5.6371    7.5365   10.7841 C   0  0  0  0  0  0  0  0  0  0  0  0
   -7.0292    7.5115   11.4167 C   0  0  0  0  0  0  0  0  0  0  0  0
 16 15  1  0  0  0
  7  8  2  0  0  0
 15 14  1  0  0  0
  8  9  2  0  0  0
  8  1  1  0  0  0
  8 10  1  0  0  0
  2  1  2  0  0  0
  2  3  1  0  0  0
  1  6  1  0  0  0
 14 13  1  0  0  0
  3  4  2  0  0  0
  6  5  2  0  0  0
  4  5  1  0  0  0
  4 13  1  0  0  0
 10 11  1  0  0  0
 10 12  1  0  0  0
M  END
> <minimizedAffinity>
-5.53848

$$$$
5LLG_VD9_A_302


 16 16  0  0  0  0  0  0  0  0999 V2000
   -3.5557    3.3021   12.1388 C   0  0  0  0  0  0  0  0  0  0  0  0
   -4.1355    2.0478   12.2899 C   0  0  0  0  0  0  0  0  0  0  0  0
   -4.5233    1.6597   13.5970 C   0  0  0  0  0  0  0  0  0  0  0  0
   -4.2845    2.5009   14.6921 C   0  0  0  0  0  0  0  0  0  0  0  0
   -3.6796    3.7492   14.5370 C   0  0  0  0  0  0  0  0  0  0  0  0
   -3.3251    4.1717   13.2359 C   0  0  0  0  0  0  0  0  0  0  0  0
   -4.2700    3.5870    9.6976 O   0  0  0  0  0  0  0  0  0  0  0  0
   -3.1181    3.8073   10.5055 S   0  0  0  0  0  0  0  0  0  0  0  0
   -2.6773    5.1752   10.6625 O   0  0  0  0  0  0  0  0  0  0  0  0
   -1.8609    2.9192    9.9596 N   0  0  0  0  0  0  0  0  0  0  0  0
   -1.6168    3.2194    9.0159 H   0  0  0  0  0  0  0  0  0  0  0  0
   -2.1217    1.9332    9.9459 H   0  0  0  0  0  0  0  0  0  0  0  0
   -4.6986    2.0511   16.3520 S   0  0  0  0  0  0  0  0  0  0  0  0
   -6.5312    2.4261   16.5242 C   0  0  0  0  0  0  0  0  0  0  0  0
   -7.2599    1.1642   16.9680 C   0  0  0  0  0  0  0  0  0  0  0  0
   -6.0865    0.2957   17.4239 C   0  0  0  0  0  0  0  0  0  0  0  0
 16 15  1  0  0  0
  7  8  2  0  0  0
 15 14  1  0  0  0
  8  9  2  0  0  0
  8  1  1  0  0  0
  8 10  1  0  0  0
  2  1  2  0  0  0
  2  3  1  0  0  0
  1  6  1  0  0  0
 14 13  1  0  0  0
  3  4  2  0  0  0
  6  5  2  0  0  0
  4  5  1  0  0  0
  4 13  1  0  0  0
 10 11  1  0  0  0
 10 12  1  0  0  0
M  END
> <minimizedAffinity>
-5.39204

$$$$
5LLG_VD9_A_302


 16 16  0  0  0  0  0  0  0  0999 V2000
   -4.3876    1.7158   14.1925 C   0  0  0  0  0  0  0  0  0  0  0  0
   -4.3701    1.1082   12.9424 C   0  0  0  0  0  0  0  0  0  0  0  0
   -4.2285    1.9478   11.8091 C   0  0  0  0  0  0  0  0  0  0  0  0
   -4.1545    3.3394   11.9560 C   0  0  0  0  0  0  0  0  0  0  0  0
   -4.1971    3.9453   13.2128 C   0  0  0  0  0  0  0  0  0  0  0  0
   -4.2947    3.1220   14.3571 C   0  0  0  0  0  0  0  0  0  0  0  0
   -4.3603   -0.6651   15.1312 O   0  0  0  0  0  0  0  0  0  0  0  0
   -4.5134    0.6684   15.6072 S   0  0  0  0  0  0  0  0  0  0  0  0
   -3.4981    1.1650   16.5088 O   0  0  0  0  0  0  0  0  0  0  0  0
   -5.9717    0.8558   16.3182 N   0  0  0  0  0  0  0  0  0  0  0  0
   -6.0332    0.2463   17.1337 H   0  0  0  0  0  0  0  0  0  0  0  0
   -6.7072    0.6116   15.6550 H   0  0  0  0  0  0  0  0  0  0  0  0
   -4.0289    4.4415   10.5781 S   0  0  0  0  0  0  0  0  0  0  0  0
   -2.3209    4.1399    9.8567 C   0  0  0  0  0  0  0  0  0  0  0  0
   -1.2729    4.3836   10.9350 C   0  0  0  0  0  0  0  0  0  0  0  0
   -0.6507    2.9917   11.0558 C   0  0  0  0  0  0  0  0  0  0  0  0
 16 15  1  0  0  0
  7  8  2  0  0  0
 15 14  1  0  0  0
  8  9  2  0  0  0
  8  1  1  0  0  0
  8 10  1  0  0  0
  2  1  2  0  0  0
  2  3  1  0  0  0
  1  6  1  0  0  0
 14 13  1  0  0  0
  3  4  2  0  0  0
  6  5  2  0  0  0
  4  5  1  0  0  0
  4 13  1  0  0  0
 10 11  1  0  0  0
 10 12  1  0  0  0
M  END
> <minimizedAffinity>
-5.37169

$$$$
