1DZK_PRZ_A_700


 12 12  0  0  0  0  0  0  0  0999 V2000
    1.7987   24.8091   11.5840 N   0  0  0  0  0  0  0  0  0  0  0  0
    1.2832   25.9916   11.9672 C   0  0  0  0  0  0  0  0  0  0  0  0
    0.5420   26.7829   11.0544 C   0  0  0  0  0  0  0  0  0  0  0  0
    0.3893   26.3661    9.7259 N   0  0  0  0  0  0  0  0  0  0  0  0
    1.0334   25.1432    9.3200 C   0  0  0  0  0  0  0  0  0  0  0  0
    1.6771   24.2996   10.3004 C   0  0  0  0  0  0  0  0  0  0  0  0
   -0.0412   27.7467   11.5698 O   0  0  0  0  0  0  0  0  0  0  0  0
   -1.4634   27.7403   11.6691 C   0  0  0  0  0  0  0  0  0  0  0  0
    1.6376   26.5922   13.3901 C   0  0  0  0  0  0  0  0  0  0  0  0
    0.4799   26.2400   14.5184 C   0  0  0  0  0  0  0  0  0  0  0  0
    0.2489   26.9233   15.7601 C   0  0  0  0  0  0  0  0  0  0  0  0
   -0.5789   25.1425   14.2544 C   0  0  0  0  0  0  0  0  0  0  0  0
  1  2  2  0  0  0
  1  6  1  0  0  0
  2  3  1  0  0  0
  2  9  1  0  0  0
  3  4  2  0  0  0
  3  7  1  0  0  0
  4  5  1  0  0  0
  5  6  2  0  0  0
  9 10  1  0  0  0
 10 11  1  0  0  0
 10 12  1  0  0  0
  7  8  1  0  0  0
M  END
> <minimizedAffinity>
-6.01705

$$$$
1DZK_PRZ_A_700


 12 12  0  0  0  0  0  0  0  0999 V2000
   -0.8301   25.9962   11.4384 N   0  0  0  0  0  0  0  0  0  0  0  0
    0.1492   25.7997   12.3402 C   0  0  0  0  0  0  0  0  0  0  0  0
    1.5039   26.0283   11.9922 C   0  0  0  0  0  0  0  0  0  0  0  0
    1.8400   26.4056   10.6859 N   0  0  0  0  0  0  0  0  0  0  0  0
    0.7795   26.5149    9.7170 C   0  0  0  0  0  0  0  0  0  0  0  0
   -0.5995   26.3954   10.1308 C   0  0  0  0  0  0  0  0  0  0  0  0
    2.2891   26.0022   12.9502 O   0  0  0  0  0  0  0  0  0  0  0  0
    3.1888   27.0890   13.1552 C   0  0  0  0  0  0  0  0  0  0  0  0
   -0.1818   25.1521   13.7481 C   0  0  0  0  0  0  0  0  0  0  0  0
   -0.5894   26.2923   14.8754 C   0  0  0  0  0  0  0  0  0  0  0  0
    0.3022   26.9890   15.7597 C   0  0  0  0  0  0  0  0  0  0  0  0
   -2.0447   26.8051   14.9968 C   0  0  0  0  0  0  0  0  0  0  0  0
  1  2  2  0  0  0
  1  6  1  0  0  0
  2  3  1  0  0  0
  2  9  1  0  0  0
  3  4  2  0  0  0
  3  7  1  0  0  0
  4  5  1  0  0  0
  5  6  2  0  0  0
  9 10  1  0  0  0
 10 11  1  0  0  0
 10 12  1  0  0  0
  7  8  1  0  0  0
M  END
> <minimizedAffinity>
-5.86754

$$$$
1DZK_PRZ_A_700


 12 12  0  0  0  0  0  0  0  0999 V2000
    0.2386   26.3765    9.6665 N   0  0  0  0  0  0  0  0  0  0  0  0
    0.6204   26.5763   10.9414 C   0  0  0  0  0  0  0  0  0  0  0  0
    1.5527   25.7049   11.5580 C   0  0  0  0  0  0  0  0  0  0  0  0
    2.0411   24.5919   10.8620 N   0  0  0  0  0  0  0  0  0  0  0  0
    1.5412   24.3496    9.5329 C   0  0  0  0  0  0  0  0  0  0  0  0
    0.6873   25.3205    8.8883 C   0  0  0  0  0  0  0  0  0  0  0  0
    1.9708   26.0979   12.6560 O   0  0  0  0  0  0  0  0  0  0  0  0
    3.3147   26.5584   12.7759 C   0  0  0  0  0  0  0  0  0  0  0  0
   -0.0902   27.6858   11.8218 C   0  0  0  0  0  0  0  0  0  0  0  0
   -1.6879   27.3433   12.0810 C   0  0  0  0  0  0  0  0  0  0  0  0
   -2.2366   26.1161   12.5860 C   0  0  0  0  0  0  0  0  0  0  0  0
   -2.7748   28.4279   11.8864 C   0  0  0  0  0  0  0  0  0  0  0  0
  1  2  2  0  0  0
  1  6  1  0  0  0
  2  3  1  0  0  0
  2  9  1  0  0  0
  3  4  2  0  0  0
  3  7  1  0  0  0
  4  5  1  0  0  0
  5  6  2  0  0  0
  9 10  1  0  0  0
 10 11  1  0  0  0
 10 12  1  0  0  0
  7  8  1  0  0  0
M  END
> <minimizedAffinity>
-5.77601

$$$$
1DZK_PRZ_A_700


 12 12  0  0  0  0  0  0  0  0999 V2000
    0.2572   27.1509   11.1318 N   0  0  0  0  0  0  0  0  0  0  0  0
   -0.3311   26.6496   12.2334 C   0  0  0  0  0  0  0  0  0  0  0  0
    0.4382   26.3438   13.3838 C   0  0  0  0  0  0  0  0  0  0  0  0
    1.8292   26.5068   13.3627 N   0  0  0  0  0  0  0  0  0  0  0  0
    2.4417   26.9539   12.1379 C   0  0  0  0  0  0  0  0  0  0  0  0
    1.6215   27.3730   11.0248 C   0  0  0  0  0  0  0  0  0  0  0  0
   -0.2321   26.0753   14.3904 O   0  0  0  0  0  0  0  0  0  0  0  0
   -0.0345   26.8206   15.5895 C   0  0  0  0  0  0  0  0  0  0  0  0
   -1.8613   26.2389   12.2032 C   0  0  0  0  0  0  0  0  0  0  0  0
   -2.8544   27.5195   12.5361 C   0  0  0  0  0  0  0  0  0  0  0  0
   -2.7238   28.8630   12.0462 C   0  0  0  0  0  0  0  0  0  0  0  0
   -4.1441   27.3290   13.3703 C   0  0  0  0  0  0  0  0  0  0  0  0
  1  2  2  0  0  0
  1  6  1  0  0  0
  2  3  1  0  0  0
  2  9  1  0  0  0
  3  4  2  0  0  0
  3  7  1  0  0  0
  4  5  1  0  0  0
  5  6  2  0  0  0
  9 10  1  0  0  0
 10 11  1  0  0  0
 10 12  1  0  0  0
  7  8  1  0  0  0
M  END
> <minimizedAffinity>
-5.77035

$$$$
1DZK_PRZ_A_700


 12 12  0  0  0  0  0  0  0  0999 V2000
    1.5286   25.1650   12.3691 N   0  0  0  0  0  0  0  0  0  0  0  0
    0.2418   25.5393   12.4922 C   0  0  0  0  0  0  0  0  0  0  0  0
   -0.3293   26.4618   11.5803 C   0  0  0  0  0  0  0  0  0  0  0  0
    0.4595   27.0372   10.5761 N   0  0  0  0  0  0  0  0  0  0  0  0
    1.8569   26.6905   10.5285 C   0  0  0  0  0  0  0  0  0  0  0  0
    2.3803   25.6575   11.3922 C   0  0  0  0  0  0  0  0  0  0  0  0
   -1.5589   26.5794   11.6751 O   0  0  0  0  0  0  0  0  0  0  0  0
   -2.1458   27.8787   11.6751 C   0  0  0  0  0  0  0  0  0  0  0  0
   -0.6037   25.0842   13.7527 C   0  0  0  0  0  0  0  0  0  0  0  0
   -0.6940   26.2717   14.9012 C   0  0  0  0  0  0  0  0  0  0  0  0
    0.3931   26.8209   15.6619 C   0  0  0  0  0  0  0  0  0  0  0  0
   -2.0284   27.0024   15.1854 C   0  0  0  0  0  0  0  0  0  0  0  0
  1  2  2  0  0  0
  1  6  1  0  0  0
  2  3  1  0  0  0
  2  9  1  0  0  0
  3  4  2  0  0  0
  3  7  1  0  0  0
  4  5  1  0  0  0
  5  6  2  0  0  0
  9 10  1  0  0  0
 10 11  1  0  0  0
 10 12  1  0  0  0
  7  8  1  0  0  0
M  END
> <minimizedAffinity>
-5.76827

$$$$
1DZK_PRZ_A_700


 12 12  0  0  0  0  0  0  0  0999 V2000
    1.2658   24.1711   12.0969 N   0  0  0  0  0  0  0  0  0  0  0  0
    1.5022   25.4957   12.0708 C   0  0  0  0  0  0  0  0  0  0  0  0
    1.7213   26.1631   10.8398 C   0  0  0  0  0  0  0  0  0  0  0  0
    1.7513   25.4372    9.6423 N   0  0  0  0  0  0  0  0  0  0  0  0
    1.5907   24.0072    9.7114 C   0  0  0  0  0  0  0  0  0  0  0  0
    1.2481   23.3730   10.9633 C   0  0  0  0  0  0  0  0  0  0  0  0
    1.7342   27.3991   10.9237 O   0  0  0  0  0  0  0  0  0  0  0  0
    2.8910   28.1226   10.5105 C   0  0  0  0  0  0  0  0  0  0  0  0
    1.7041   26.2963   13.4233 C   0  0  0  0  0  0  0  0  0  0  0  0
    0.3825   26.1868   14.4125 C   0  0  0  0  0  0  0  0  0  0  0  0
   -0.7555   25.3280   14.2406 C   0  0  0  0  0  0  0  0  0  0  0  0
    0.3174   26.9769   15.7418 C   0  0  0  0  0  0  0  0  0  0  0  0
  1  2  2  0  0  0
  1  6  1  0  0  0
  2  3  1  0  0  0
  2  9  1  0  0  0
  3  4  2  0  0  0
  3  7  1  0  0  0
  4  5  1  0  0  0
  5  6  2  0  0  0
  9 10  1  0  0  0
 10 11  1  0  0  0
 10 12  1  0  0  0
  7  8  1  0  0  0
M  END
> <minimizedAffinity>
-5.64444

$$$$
1DZK_PRZ_A_700


 12 12  0  0  0  0  0  0  0  0999 V2000
    0.7106   27.0362   12.8631 N   0  0  0  0  0  0  0  0  0  0  0  0
    0.4855   26.6598   11.5908 C   0  0  0  0  0  0  0  0  0  0  0  0
    1.5339   26.1209   10.8040 C   0  0  0  0  0  0  0  0  0  0  0  0
    2.8299   26.0297   11.3273 N   0  0  0  0  0  0  0  0  0  0  0  0
    3.0610   26.5293   12.6586 C   0  0  0  0  0  0  0  0  0  0  0  0
    1.9510   26.9587   13.4776 C   0  0  0  0  0  0  0  0  0  0  0  0
    1.1658   25.6353    9.7254 O   0  0  0  0  0  0  0  0  0  0  0  0
    1.5402   24.3019    9.3871 C   0  0  0  0  0  0  0  0  0  0  0  0
   -0.9086   26.9673   10.9033 C   0  0  0  0  0  0  0  0  0  0  0  0
   -2.0195   27.5462   11.9841 C   0  0  0  0  0  0  0  0  0  0  0  0
   -2.4301   28.9120   12.1516 C   0  0  0  0  0  0  0  0  0  0  0  0
   -2.8310   26.5821   12.8826 C   0  0  0  0  0  0  0  0  0  0  0  0
  1  2  2  0  0  0
  1  6  1  0  0  0
  2  3  1  0  0  0
  2  9  1  0  0  0
  3  4  2  0  0  0
  3  7  1  0  0  0
  4  5  1  0  0  0
  5  6  2  0  0  0
  9 10  1  0  0  0
 10 11  1  0  0  0
 10 12  1  0  0  0
  7  8  1  0  0  0
M  END
> <minimizedAffinity>
-5.63681

$$$$
1DZK_PRZ_A_700


 12 12  0  0  0  0  0  0  0  0999 V2000
   -1.6648   28.6607   11.9382 N   0  0  0  0  0  0  0  0  0  0  0  0
   -1.0022   27.5434   12.2900 C   0  0  0  0  0  0  0  0  0  0  0  0
   -1.6848   26.4679   12.9114 C   0  0  0  0  0  0  0  0  0  0  0  0
   -3.0466   26.5831   13.2180 N   0  0  0  0  0  0  0  0  0  0  0  0
   -3.7071   27.8274   12.9168 C   0  0  0  0  0  0  0  0  0  0  0  0
   -3.0168   28.8567   12.1744 C   0  0  0  0  0  0  0  0  0  0  0  0
   -1.0180   25.4285   13.0105 O   0  0  0  0  0  0  0  0  0  0  0  0
   -0.6002   24.9778   14.2969 C   0  0  0  0  0  0  0  0  0  0  0  0
    0.5763   27.4806   12.1668 C   0  0  0  0  0  0  0  0  0  0  0  0
    1.0639   27.0629   10.6420 C   0  0  0  0  0  0  0  0  0  0  0  0
    0.2653   26.4490    9.6185 C   0  0  0  0  0  0  0  0  0  0  0  0
    2.4811   27.4226   10.1345 C   0  0  0  0  0  0  0  0  0  0  0  0
  1  2  2  0  0  0
  1  6  1  0  0  0
  2  3  1  0  0  0
  2  9  1  0  0  0
  3  4  2  0  0  0
  3  7  1  0  0  0
  4  5  1  0  0  0
  5  6  2  0  0  0
  9 10  1  0  0  0
 10 11  1  0  0  0
 10 12  1  0  0  0
  7  8  1  0  0  0
M  END
> <minimizedAffinity>
-5.36820

$$$$
1DZK_PRZ_A_700


 12 12  0  0  0  0  0  0  0  0999 V2000
    1.8148   27.4231   12.1812 N   0  0  0  0  0  0  0  0  0  0  0  0
    1.6363   26.1097   12.4140 C   0  0  0  0  0  0  0  0  0  0  0  0
    2.1603   25.1429   11.5200 C   0  0  0  0  0  0  0  0  0  0  0  0
    2.8199   25.5493   10.3530 N   0  0  0  0  0  0  0  0  0  0  0  0
    2.9116   26.9612   10.0820 C   0  0  0  0  0  0  0  0  0  0  0  0
    2.4769   27.9216   11.0698 C   0  0  0  0  0  0  0  0  0  0  0  0
    2.1022   23.9775   11.9360 O   0  0  0  0  0  0  0  0  0  0  0  0
    1.4059   22.9912   11.1777 C   0  0  0  0  0  0  0  0  0  0  0  0
    0.6979   25.6303   13.5975 C   0  0  0  0  0  0  0  0  0  0  0  0
   -0.9000   25.6484   13.1689 C   0  0  0  0  0  0  0  0  0  0  0  0
   -1.4383   25.5595   11.8406 C   0  0  0  0  0  0  0  0  0  0  0  0
   -2.0115   25.6561   14.2460 C   0  0  0  0  0  0  0  0  0  0  0  0
  1  2  2  0  0  0
  1  6  1  0  0  0
  2  3  1  0  0  0
  2  9  1  0  0  0
  3  4  2  0  0  0
  3  7  1  0  0  0
  4  5  1  0  0  0
  5  6  2  0  0  0
  9 10  1  0  0  0
 10 11  1  0  0  0
 10 12  1  0  0  0
  7  8  1  0  0  0
M  END
> <minimizedAffinity>
-5.36542

$$$$
1DZK_PRZ_A_700


 12 12  0  0  0  0  0  0  0  0999 V2000
    0.8394   26.4137   13.1080 N   0  0  0  0  0  0  0  0  0  0  0  0
   -0.3739   25.8834   12.8674 C   0  0  0  0  0  0  0  0  0  0  0  0
   -1.4103   25.9936   13.8278 C   0  0  0  0  0  0  0  0  0  0  0  0
   -1.1621   26.6063   15.0625 N   0  0  0  0  0  0  0  0  0  0  0  0
    0.1723   27.0790   15.3296 C   0  0  0  0  0  0  0  0  0  0  0  0
    1.1724   27.0624   14.2871 C   0  0  0  0  0  0  0  0  0  0  0  0
   -2.5256   25.6420   13.4187 O   0  0  0  0  0  0  0  0  0  0  0  0
   -3.6520   26.4921   13.6213 C   0  0  0  0  0  0  0  0  0  0  0  0
   -0.6113   24.9864   11.5828 C   0  0  0  0  0  0  0  0  0  0  0  0
    0.4835   25.3135   10.3863 C   0  0  0  0  0  0  0  0  0  0  0  0
    1.6862   24.5853   10.0944 C   0  0  0  0  0  0  0  0  0  0  0  0
    0.2226   26.4393    9.3568 C   0  0  0  0  0  0  0  0  0  0  0  0
  1  2  2  0  0  0
  1  6  1  0  0  0
  2  3  1  0  0  0
  2  9  1  0  0  0
  3  4  2  0  0  0
  3  7  1  0  0  0
  4  5  1  0  0  0
  5  6  2  0  0  0
  9 10  1  0  0  0
 10 11  1  0  0  0
 10 12  1  0  0  0
  7  8  1  0  0  0
M  END
> <minimizedAffinity>
-5.34774

$$$$
