2ZFT_10U_A_501


 32 34  0  0  0  0  0  0  0  0999 V2000
  -26.9762    1.0296   13.9457 C   0  0  0  0  0  0  0  0  0  0  0  0
  -27.1745    1.6849   12.9350 O   0  0  0  0  0  0  0  0  0  0  0  0
  -25.7721    1.1062   14.4244 N   0  0  0  0  0  0  0  0  0  0  0  0
  -25.6148    0.5962   15.2517 H   0  0  0  0  0  0  0  0  0  0  0  0
  -28.1947    1.0622   16.8679 C   0  0  0  0  0  0  0  0  0  0  0  0
  -26.9765    0.9714   17.0453 O   0  0  0  0  0  0  0  0  0  0  0  0
  -28.7664    0.8217   15.6751 N   0  0  0  0  0  0  0  0  0  0  0  0
  -28.0501    0.2135   14.5696 C   0  0  0  0  0  0  0  0  0  0  0  0
  -29.1930   -0.0154   13.5906 C   0  0  0  0  0  0  0  0  0  0  0  0
  -30.3992    0.8431   13.8855 C   0  0  0  0  0  0  0  0  0  0  0  0
  -30.1838    1.1282   15.3676 C   0  0  0  0  0  0  0  0  0  0  0  0
  -29.1047    1.4425   17.9921 C   0  0  0  0  0  0  0  0  0  0  0  0
  -28.7334    0.7886   19.2141 N   0  0  0  0  0  0  0  0  0  0  0  0
  -28.8764    1.4508   19.9766 H   0  0  0  0  0  0  0  0  0  0  0  0
  -29.4617   -0.4295   19.5419 C   0  0  0  0  0  0  0  0  0  0  0  0
  -28.8301   -1.0013   20.8322 C   0  0  0  0  0  0  0  0  0  0  0  0
  -29.3343   -2.4509   20.9402 C   0  0  0  0  0  0  0  0  0  0  0  0
  -29.3892   -2.9310   19.4807 C   0  0  0  0  0  0  0  0  0  0  0  0
  -29.5407   -1.6718   18.5709 C   0  0  0  0  0  0  0  0  0  0  0  0
  -24.6576    1.8137   13.9316 C   0  0  0  0  0  0  0  0  0  0  0  0
  -23.4302    1.6801   14.7368 C   0  0  0  0  0  0  0  0  0  0  0  0
  -22.3263    1.0177   14.3275 C   0  0  0  0  0  0  0  0  0  0  0  0
  -21.1978    0.9278   15.1374 C   0  0  0  0  0  0  0  0  0  0  0  0
  -21.1383    1.5035   16.3919 C   0  0  0  0  0  0  0  0  0  0  0  0
  -22.2832    2.1901   16.8127 C   0  0  0  0  0  0  0  0  0  0  0  0
  -23.4240    2.2850   16.0042 C   0  0  0  0  0  0  0  0  0  0  0  0
  -19.8971    1.3833   17.2362 C   0  0  0  0  0  0  0  0  0  0  0  0
  -19.0622    0.3586   17.0653 N   0  0  0  0  0  0  0  0  0  0  0  0
  -19.6557    2.3172   18.1497 N   0  0  0  0  0  0  0  0  0  0  0  0
  -19.2553   -0.3254   16.3840 H   0  0  0  0  0  0  0  0  0  0  0  0
  -20.2823    3.0680   18.2637 H   0  0  0  0  0  0  0  0  0  0  0  0
  -18.8501    2.2585   18.7127 H   0  0  0  0  0  0  0  0  0  0  0  0
 10  9  1  0  0  0
 10 11  1  0  0  0
  9  8  1  0  0  0
 20  3  1  0  0  0
 20 21  1  0  0  0
  2  1  2  0  0  0
  1  3  1  0  0  0
  1  8  1  0  0  0
  8  7  1  0  0  0
 21 26  2  0  0  0
 21 22  1  0  0  0
 11  7  1  0  0  0
  7  5  1  0  0  0
 26 25  1  0  0  0
 22 23  2  0  0  0
  5 12  1  0  0  0
  5  6  2  0  0  0
 25 24  2  0  0  0
 23 24  1  0  0  0
 12 13  1  0  0  0
 24 27  1  0  0  0
 27 29  1  0  0  0
 27 28  2  0  0  0
 13 15  1  0  0  0
 16 15  1  0  0  0
 16 17  1  0  0  0
 15 19  1  0  0  0
 17 18  1  0  0  0
 19 18  1  0  0  0
 13 14  1  0  0  0
  3  4  1  0  0  0
 28 30  1  0  0  0
 29 31  1  0  0  0
 29 32  1  0  0  0
M  END
> <minimizedAffinity>
-9.10055

$$$$
2ZFT_10U_A_501


 32 34  0  0  0  0  0  0  0  0999 V2000
  -26.3679    2.3592   13.4226 C   0  0  0  0  0  0  0  0  0  0  0  0
  -26.2638    1.9999   12.2605 O   0  0  0  0  0  0  0  0  0  0  0  0
  -25.2448    2.5965   14.0285 N   0  0  0  0  0  0  0  0  0  0  0  0
  -25.3260    2.9074   14.9591 H   0  0  0  0  0  0  0  0  0  0  0  0
  -27.3939    1.5014   16.2925 C   0  0  0  0  0  0  0  0  0  0  0  0
  -26.8951    0.4733   15.8260 O   0  0  0  0  0  0  0  0  0  0  0  0
  -27.6992    2.5631   15.5262 N   0  0  0  0  0  0  0  0  0  0  0  0
  -27.6937    2.5120   14.0761 C   0  0  0  0  0  0  0  0  0  0  0  0
  -28.3051    3.8669   13.7483 C   0  0  0  0  0  0  0  0  0  0  0  0
  -28.2146    4.8445   14.8951 C   0  0  0  0  0  0  0  0  0  0  0  0
  -28.0923    3.8837   16.0725 C   0  0  0  0  0  0  0  0  0  0  0  0
  -27.6930    1.6111   17.7538 C   0  0  0  0  0  0  0  0  0  0  0  0
  -28.7790    0.7543   18.1345 N   0  0  0  0  0  0  0  0  0  0  0  0
  -29.1912    0.3773   17.2811 H   0  0  0  0  0  0  0  0  0  0  0  0
  -28.4430   -0.3692   18.9986 C   0  0  0  0  0  0  0  0  0  0  0  0
  -29.3379   -1.5546   18.5687 C   0  0  0  0  0  0  0  0  0  0  0  0
  -29.2551   -2.5800   19.7127 C   0  0  0  0  0  0  0  0  0  0  0  0
  -29.1766   -1.7125   20.9795 C   0  0  0  0  0  0  0  0  0  0  0  0
  -28.5974   -0.3223   20.5690 C   0  0  0  0  0  0  0  0  0  0  0  0
  -23.9261    2.4736   13.5472 C   0  0  0  0  0  0  0  0  0  0  0  0
  -22.9158    2.1604   14.5737 C   0  0  0  0  0  0  0  0  0  0  0  0
  -22.9987    2.5586   15.8619 C   0  0  0  0  0  0  0  0  0  0  0  0
  -22.0089    2.2292   16.7834 C   0  0  0  0  0  0  0  0  0  0  0  0
  -20.8968    1.4841   16.4418 C   0  0  0  0  0  0  0  0  0  0  0  0
  -20.8142    1.0720   15.1066 C   0  0  0  0  0  0  0  0  0  0  0  0
  -21.8057    1.3997   14.1719 C   0  0  0  0  0  0  0  0  0  0  0  0
  -19.8489    1.1487   17.4701 C   0  0  0  0  0  0  0  0  0  0  0  0
  -19.8902    1.7049   18.6807 N   0  0  0  0  0  0  0  0  0  0  0  0
  -18.8885    0.2907   17.1440 N   0  0  0  0  0  0  0  0  0  0  0  0
  -20.6085    2.3389   18.9069 H   0  0  0  0  0  0  0  0  0  0  0  0
  -18.8720   -0.1115   16.2456 H   0  0  0  0  0  0  0  0  0  0  0  0
  -18.1933    0.0571   17.8008 H   0  0  0  0  0  0  0  0  0  0  0  0
 10  9  1  0  0  0
 10 11  1  0  0  0
  9  8  1  0  0  0
 20  3  1  0  0  0
 20 21  1  0  0  0
  2  1  2  0  0  0
  1  3  1  0  0  0
  1  8  1  0  0  0
  8  7  1  0  0  0
 21 26  2  0  0  0
 21 22  1  0  0  0
 11  7  1  0  0  0
  7  5  1  0  0  0
 26 25  1  0  0  0
 22 23  2  0  0  0
  5 12  1  0  0  0
  5  6  2  0  0  0
 25 24  2  0  0  0
 23 24  1  0  0  0
 12 13  1  0  0  0
 24 27  1  0  0  0
 27 29  1  0  0  0
 27 28  2  0  0  0
 13 15  1  0  0  0
 16 15  1  0  0  0
 16 17  1  0  0  0
 15 19  1  0  0  0
 17 18  1  0  0  0
 19 18  1  0  0  0
 13 14  1  0  0  0
  3  4  1  0  0  0
 28 30  1  0  0  0
 29 31  1  0  0  0
 29 32  1  0  0  0
M  END
> <minimizedAffinity>
-8.61012

$$$$
2ZFT_10U_A_501


 32 34  0  0  0  0  0  0  0  0999 V2000
  -26.9658    1.0260   13.9090 C   0  0  0  0  0  0  0  0  0  0  0  0
  -27.1355    1.6831   12.8942 O   0  0  0  0  0  0  0  0  0  0  0  0
  -25.7684    1.0810   14.4070 N   0  0  0  0  0  0  0  0  0  0  0  0
  -25.6340    0.5696   15.2374 H   0  0  0  0  0  0  0  0  0  0  0  0
  -28.1964    1.0512   16.8261 C   0  0  0  0  0  0  0  0  0  0  0  0
  -26.9821    0.9243   17.0074 O   0  0  0  0  0  0  0  0  0  0  0  0
  -28.7691    0.8435   15.6276 N   0  0  0  0  0  0  0  0  0  0  0  0
  -28.0647    0.2313   14.5167 C   0  0  0  0  0  0  0  0  0  0  0  0
  -29.2089    0.0479   13.5297 C   0  0  0  0  0  0  0  0  0  0  0  0
  -30.3924    0.9352   13.8317 C   0  0  0  0  0  0  0  0  0  0  0  0
  -30.1760    1.1934   15.3186 C   0  0  0  0  0  0  0  0  0  0  0  0
  -29.1008    1.4408   17.9518 C   0  0  0  0  0  0  0  0  0  0  0  0
  -29.4923    0.3014   18.7309 N   0  0  0  0  0  0  0  0  0  0  0  0
  -28.8813   -0.4744   18.4754 H   0  0  0  0  0  0  0  0  0  0  0  0
  -29.4309    0.4564   20.1779 C   0  0  0  0  0  0  0  0  0  0  0  0
  -28.3706    1.5427   20.4723 C   0  0  0  0  0  0  0  0  0  0  0  0
  -28.0443    1.4162   21.9706 C   0  0  0  0  0  0  0  0  0  0  0  0
  -28.1189   -0.0961   22.2370 C   0  0  0  0  0  0  0  0  0  0  0  0
  -29.0507   -0.7247   21.1539 C   0  0  0  0  0  0  0  0  0  0  0  0
  -24.6330    1.7666   13.9311 C   0  0  0  0  0  0  0  0  0  0  0  0
  -23.4464    1.6845   14.8017 C   0  0  0  0  0  0  0  0  0  0  0  0
  -23.3514    2.2848   16.0081 C   0  0  0  0  0  0  0  0  0  0  0  0
  -22.2007    2.1684   16.7826 C   0  0  0  0  0  0  0  0  0  0  0  0
  -21.1008    1.4408   16.3708 C   0  0  0  0  0  0  0  0  0  0  0  0
  -21.2027    0.8190   15.1208 C   0  0  0  0  0  0  0  0  0  0  0  0
  -22.3571    0.9315   14.3341 C   0  0  0  0  0  0  0  0  0  0  0  0
  -19.8752    1.3393   17.2400 C   0  0  0  0  0  0  0  0  0  0  0  0
  -19.0099    0.3396   17.0711 N   0  0  0  0  0  0  0  0  0  0  0  0
  -19.6781    2.2641   18.1731 N   0  0  0  0  0  0  0  0  0  0  0  0
  -19.1703   -0.3379   16.3751 H   0  0  0  0  0  0  0  0  0  0  0  0
  -20.3267    2.9963   18.2852 H   0  0  0  0  0  0  0  0  0  0  0  0
  -18.8836    2.2173   18.7525 H   0  0  0  0  0  0  0  0  0  0  0  0
 10  9  1  0  0  0
 10 11  1  0  0  0
  9  8  1  0  0  0
 20  3  1  0  0  0
 20 21  1  0  0  0
  2  1  2  0  0  0
  1  3  1  0  0  0
  1  8  1  0  0  0
  8  7  1  0  0  0
 21 26  2  0  0  0
 21 22  1  0  0  0
 11  7  1  0  0  0
  7  5  1  0  0  0
 26 25  1  0  0  0
 22 23  2  0  0  0
  5 12  1  0  0  0
  5  6  2  0  0  0
 25 24  2  0  0  0
 23 24  1  0  0  0
 12 13  1  0  0  0
 24 27  1  0  0  0
 27 29  1  0  0  0
 27 28  2  0  0  0
 13 15  1  0  0  0
 16 15  1  0  0  0
 16 17  1  0  0  0
 15 19  1  0  0  0
 17 18  1  0  0  0
 19 18  1  0  0  0
 13 14  1  0  0  0
  3  4  1  0  0  0
 28 30  1  0  0  0
 29 31  1  0  0  0
 29 32  1  0  0  0
M  END
> <minimizedAffinity>
-8.31541

$$$$
2ZFT_10U_A_501


 32 34  0  0  0  0  0  0  0  0999 V2000
  -26.7864    1.9139   15.4072 C   0  0  0  0  0  0  0  0  0  0  0  0
  -26.7004    0.7014   15.5204 O   0  0  0  0  0  0  0  0  0  0  0  0
  -25.8504    2.4689   14.6997 N   0  0  0  0  0  0  0  0  0  0  0  0
  -25.9289    3.4439   14.5883 H   0  0  0  0  0  0  0  0  0  0  0  0
  -29.5725    0.9752   16.5825 C   0  0  0  0  0  0  0  0  0  0  0  0
  -29.5397    0.4897   15.4481 O   0  0  0  0  0  0  0  0  0  0  0  0
  -28.7349    1.9530   16.9695 N   0  0  0  0  0  0  0  0  0  0  0  0
  -27.8929    2.6797   16.0378 C   0  0  0  0  0  0  0  0  0  0  0  0
  -27.3456    3.7688   16.9496 C   0  0  0  0  0  0  0  0  0  0  0  0
  -27.4570    3.4191   18.4140 C   0  0  0  0  0  0  0  0  0  0  0  0
  -28.5966    2.4072   18.3737 C   0  0  0  0  0  0  0  0  0  0  0  0
  -30.5668    0.4948   17.5912 C   0  0  0  0  0  0  0  0  0  0  0  0
  -30.5317   -0.9331   17.7261 N   0  0  0  0  0  0  0  0  0  0  0  0
  -30.3100   -1.3262   16.8114 H   0  0  0  0  0  0  0  0  0  0  0  0
  -29.5729   -1.4681   18.6833 C   0  0  0  0  0  0  0  0  0  0  0  0
  -30.1020   -2.8507   19.1297 C   0  0  0  0  0  0  0  0  0  0  0  0
  -29.3084   -3.2153   20.3963 C   0  0  0  0  0  0  0  0  0  0  0  0
  -29.1188   -1.8681   21.1123 C   0  0  0  0  0  0  0  0  0  0  0  0
  -29.2121   -0.7405   20.0371 C   0  0  0  0  0  0  0  0  0  0  0  0
  -24.7380    1.8779   14.0679 C   0  0  0  0  0  0  0  0  0  0  0  0
  -23.5272    1.7811   14.9029 C   0  0  0  0  0  0  0  0  0  0  0  0
  -23.4012    2.3522   16.1205 C   0  0  0  0  0  0  0  0  0  0  0  0
  -22.2288    2.2232   16.8596 C   0  0  0  0  0  0  0  0  0  0  0  0
  -21.1374    1.5118   16.3995 C   0  0  0  0  0  0  0  0  0  0  0  0
  -21.2713    0.9201   15.1380 C   0  0  0  0  0  0  0  0  0  0  0  0
  -22.4478    1.0456   14.3868 C   0  0  0  0  0  0  0  0  0  0  0  0
  -19.8875    1.3958   17.2315 C   0  0  0  0  0  0  0  0  0  0  0  0
  -19.5978    2.3216   18.1455 N   0  0  0  0  0  0  0  0  0  0  0  0
  -19.0855    0.3553   17.0340 N   0  0  0  0  0  0  0  0  0  0  0  0
  -20.2025    3.0868   18.2798 H   0  0  0  0  0  0  0  0  0  0  0  0
  -19.3136   -0.3200   16.3549 H   0  0  0  0  0  0  0  0  0  0  0  0
  -18.2632    0.2595   17.5667 H   0  0  0  0  0  0  0  0  0  0  0  0
 10  9  1  0  0  0
 10 11  1  0  0  0
  9  8  1  0  0  0
 20  3  1  0  0  0
 20 21  1  0  0  0
  2  1  2  0  0  0
  1  3  1  0  0  0
  1  8  1  0  0  0
  8  7  1  0  0  0
 21 26  2  0  0  0
 21 22  1  0  0  0
 11  7  1  0  0  0
  7  5  1  0  0  0
 26 25  1  0  0  0
 22 23  2  0  0  0
  5 12  1  0  0  0
  5  6  2  0  0  0
 25 24  2  0  0  0
 23 24  1  0  0  0
 12 13  1  0  0  0
 24 27  1  0  0  0
 27 29  1  0  0  0
 27 28  2  0  0  0
 13 15  1  0  0  0
 16 15  1  0  0  0
 16 17  1  0  0  0
 15 19  1  0  0  0
 17 18  1  0  0  0
 19 18  1  0  0  0
 13 14  1  0  0  0
  3  4  1  0  0  0
 28 30  1  0  0  0
 29 31  1  0  0  0
 29 32  1  0  0  0
M  END
> <minimizedAffinity>
-8.22692

$$$$
2ZFT_10U_A_501


 32 34  0  0  0  0  0  0  0  0999 V2000
  -27.1087    1.4226   14.6815 C   0  0  0  0  0  0  0  0  0  0  0  0
  -27.3323    2.4284   14.0267 O   0  0  0  0  0  0  0  0  0  0  0  0
  -25.8639    1.0573   14.7222 N   0  0  0  0  0  0  0  0  0  0  0  0
  -25.6770    0.2590   15.2672 H   0  0  0  0  0  0  0  0  0  0  0  0
  -27.9139    1.2872   17.7407 C   0  0  0  0  0  0  0  0  0  0  0  0
  -26.7086    1.0216   17.7295 O   0  0  0  0  0  0  0  0  0  0  0  0
  -28.6664    1.2559   16.6270 N   0  0  0  0  0  0  0  0  0  0  0  0
  -28.1963    0.6872   15.3777 C   0  0  0  0  0  0  0  0  0  0  0  0
  -29.4792    0.7169   14.5590 C   0  0  0  0  0  0  0  0  0  0  0  0
  -30.5011    1.6852   15.1043 C   0  0  0  0  0  0  0  0  0  0  0  0
  -30.0535    1.7741   16.5589 C   0  0  0  0  0  0  0  0  0  0  0  0
  -28.6040    1.6542   19.0157 C   0  0  0  0  0  0  0  0  0  0  0  0
  -27.7408    2.4003   19.8856 N   0  0  0  0  0  0  0  0  0  0  0  0
  -28.0423    3.3744   19.8618 H   0  0  0  0  0  0  0  0  0  0  0  0
  -27.7087    1.9797   21.2798 C   0  0  0  0  0  0  0  0  0  0  0  0
  -27.9282    0.4491   21.2961 C   0  0  0  0  0  0  0  0  0  0  0  0
  -28.2764    0.0902   22.7512 C   0  0  0  0  0  0  0  0  0  0  0  0
  -29.1083    1.2884   23.2368 C   0  0  0  0  0  0  0  0  0  0  0  0
  -28.7180    2.5231   22.3653 C   0  0  0  0  0  0  0  0  0  0  0  0
  -24.7411    1.6377   14.0991 C   0  0  0  0  0  0  0  0  0  0  0  0
  -23.4873    1.5490   14.8689 C   0  0  0  0  0  0  0  0  0  0  0  0
  -22.3983    0.8606   14.4627 C   0  0  0  0  0  0  0  0  0  0  0  0
  -21.2431    0.8159   15.2380 C   0  0  0  0  0  0  0  0  0  0  0  0
  -21.1408    1.4650   16.4533 C   0  0  0  0  0  0  0  0  0  0  0  0
  -22.2704    2.1784   16.8710 C   0  0  0  0  0  0  0  0  0  0  0  0
  -23.4378    2.2281   16.0972 C   0  0  0  0  0  0  0  0  0  0  0  0
  -19.8717    1.3920   17.2609 C   0  0  0  0  0  0  0  0  0  0  0  0
  -19.6214    2.2974   18.2064 N   0  0  0  0  0  0  0  0  0  0  0  0
  -19.0131    0.4098   17.0100 N   0  0  0  0  0  0  0  0  0  0  0  0
  -20.2679    3.0192   18.3802 H   0  0  0  0  0  0  0  0  0  0  0  0
  -19.2127   -0.2512   16.3082 H   0  0  0  0  0  0  0  0  0  0  0  0
  -18.1773    0.3429   17.5259 H   0  0  0  0  0  0  0  0  0  0  0  0
 10  9  1  0  0  0
 10 11  1  0  0  0
  9  8  1  0  0  0
 20  3  1  0  0  0
 20 21  1  0  0  0
  2  1  2  0  0  0
  1  3  1  0  0  0
  1  8  1  0  0  0
  8  7  1  0  0  0
 21 26  2  0  0  0
 21 22  1  0  0  0
 11  7  1  0  0  0
  7  5  1  0  0  0
 26 25  1  0  0  0
 22 23  2  0  0  0
  5 12  1  0  0  0
  5  6  2  0  0  0
 25 24  2  0  0  0
 23 24  1  0  0  0
 12 13  1  0  0  0
 24 27  1  0  0  0
 27 29  1  0  0  0
 27 28  2  0  0  0
 13 15  1  0  0  0
 16 15  1  0  0  0
 16 17  1  0  0  0
 15 19  1  0  0  0
 17 18  1  0  0  0
 19 18  1  0  0  0
 13 14  1  0  0  0
  3  4  1  0  0  0
 28 30  1  0  0  0
 29 31  1  0  0  0
 29 32  1  0  0  0
M  END
> <minimizedAffinity>
-7.80929

$$$$
2ZFT_10U_A_501


 32 34  0  0  0  0  0  0  0  0999 V2000
  -28.6471    2.0318   17.0693 C   0  0  0  0  0  0  0  0  0  0  0  0
  -29.4850    2.6785   17.6776 O   0  0  0  0  0  0  0  0  0  0  0  0
  -27.9343    1.2291   17.7990 N   0  0  0  0  0  0  0  0  0  0  0  0
  -27.2724    0.6902   17.3084 H   0  0  0  0  0  0  0  0  0  0  0  0
  -26.0496    2.0030   15.2589 C   0  0  0  0  0  0  0  0  0  0  0  0
  -25.8077    2.8456   16.1279 O   0  0  0  0  0  0  0  0  0  0  0  0
  -27.2931    1.5476   15.0269 N   0  0  0  0  0  0  0  0  0  0  0  0
  -28.4747    2.1651   15.5993 C   0  0  0  0  0  0  0  0  0  0  0  0
  -29.5691    1.4120   14.8562 C   0  0  0  0  0  0  0  0  0  0  0  0
  -29.0873    0.1092   14.2647 C   0  0  0  0  0  0  0  0  0  0  0  0
  -27.5929    0.3892   14.1519 C   0  0  0  0  0  0  0  0  0  0  0  0
  -24.9536    1.4477   14.4063 C   0  0  0  0  0  0  0  0  0  0  0  0
  -24.1002    2.4859   13.9039 N   0  0  0  0  0  0  0  0  0  0  0  0
  -24.5057    3.3809   14.1774 H   0  0  0  0  0  0  0  0  0  0  0  0
  -22.7185    2.4656   14.3645 C   0  0  0  0  0  0  0  0  0  0  0  0
  -22.2096    1.0141   14.2061 C   0  0  0  0  0  0  0  0  0  0  0  0
  -20.9195    0.9278   15.0400 C   0  0  0  0  0  0  0  0  0  0  0  0
  -21.2050    1.8274   16.2535 C   0  0  0  0  0  0  0  0  0  0  0  0
  -22.2958    2.8616   15.8331 C   0  0  0  0  0  0  0  0  0  0  0  0
  -27.9706    1.0175   19.1917 C   0  0  0  0  0  0  0  0  0  0  0  0
  -28.5218   -0.2843   19.6089 C   0  0  0  0  0  0  0  0  0  0  0  0
  -28.8722   -1.2667   18.7505 C   0  0  0  0  0  0  0  0  0  0  0  0
  -29.3883   -2.4751   19.2097 C   0  0  0  0  0  0  0  0  0  0  0  0
  -29.5705   -2.7403   20.5533 C   0  0  0  0  0  0  0  0  0  0  0  0
  -29.2055   -1.7209   21.4404 C   0  0  0  0  0  0  0  0  0  0  0  0
  -28.6858   -0.5009   20.9868 C   0  0  0  0  0  0  0  0  0  0  0  0
  -30.1314   -4.0618   21.0082 C   0  0  0  0  0  0  0  0  0  0  0  0
  -29.3390   -5.1277   21.1202 N   0  0  0  0  0  0  0  0  0  0  0  0
  -31.4265   -4.1393   21.2936 N   0  0  0  0  0  0  0  0  0  0  0  0
  -28.3812   -5.0538   20.9048 H   0  0  0  0  0  0  0  0  0  0  0  0
  -31.9984   -3.3428   21.2059 H   0  0  0  0  0  0  0  0  0  0  0  0
  -31.8143   -4.9933   21.5929 H   0  0  0  0  0  0  0  0  0  0  0  0
 10  9  1  0  0  0
 10 11  1  0  0  0
  9  8  1  0  0  0
 20  3  1  0  0  0
 20 21  1  0  0  0
  2  1  2  0  0  0
  1  3  1  0  0  0
  1  8  1  0  0  0
  8  7  1  0  0  0
 21 26  2  0  0  0
 21 22  1  0  0  0
 11  7  1  0  0  0
  7  5  1  0  0  0
 26 25  1  0  0  0
 22 23  2  0  0  0
  5 12  1  0  0  0
  5  6  2  0  0  0
 25 24  2  0  0  0
 23 24  1  0  0  0
 12 13  1  0  0  0
 24 27  1  0  0  0
 27 29  1  0  0  0
 27 28  2  0  0  0
 13 15  1  0  0  0
 16 15  1  0  0  0
 16 17  1  0  0  0
 15 19  1  0  0  0
 17 18  1  0  0  0
 19 18  1  0  0  0
 13 14  1  0  0  0
  3  4  1  0  0  0
 28 30  1  0  0  0
 29 31  1  0  0  0
 29 32  1  0  0  0
M  END
> <minimizedAffinity>
-7.71121

$$$$
2ZFT_10U_A_501


 32 34  0  0  0  0  0  0  0  0999 V2000
  -28.5167    2.0657   14.3405 C   0  0  0  0  0  0  0  0  0  0  0  0
  -28.7134    1.2310   13.4717 O   0  0  0  0  0  0  0  0  0  0  0  0
  -29.2458    1.9338   15.4062 N   0  0  0  0  0  0  0  0  0  0  0  0
  -29.0743    2.5923   16.1178 H   0  0  0  0  0  0  0  0  0  0  0  0
  -25.3528    1.9724   14.2633 C   0  0  0  0  0  0  0  0  0  0  0  0
  -25.6514    1.3713   15.2991 O   0  0  0  0  0  0  0  0  0  0  0  0
  -26.2298    2.7525   13.6076 N   0  0  0  0  0  0  0  0  0  0  0  0
  -27.5076    3.1436   14.1726 C   0  0  0  0  0  0  0  0  0  0  0  0
  -27.9693    4.1598   13.1376 C   0  0  0  0  0  0  0  0  0  0  0  0
  -27.2602    4.0122   11.8131 C   0  0  0  0  0  0  0  0  0  0  0  0
  -25.9812    3.3115   12.2574 C   0  0  0  0  0  0  0  0  0  0  0  0
  -23.9773    1.8643   13.6861 C   0  0  0  0  0  0  0  0  0  0  0  0
  -23.1610    0.9550   14.4380 N   0  0  0  0  0  0  0  0  0  0  0  0
  -22.7863    0.2638   13.7881 H   0  0  0  0  0  0  0  0  0  0  0  0
  -22.0387    1.5398   15.1592 C   0  0  0  0  0  0  0  0  0  0  0  0
  -21.0113    0.4081   15.3926 C   0  0  0  0  0  0  0  0  0  0  0  0
  -20.0437    0.9341   16.4671 C   0  0  0  0  0  0  0  0  0  0  0  0
  -20.9436    1.7614   17.3994 C   0  0  0  0  0  0  0  0  0  0  0  0
  -22.1877    2.2202   16.5760 C   0  0  0  0  0  0  0  0  0  0  0  0
  -30.2474    0.9848   15.6923 C   0  0  0  0  0  0  0  0  0  0  0  0
  -29.9707    0.1188   16.8525 C   0  0  0  0  0  0  0  0  0  0  0  0
  -28.8072    0.1237   17.5387 C   0  0  0  0  0  0  0  0  0  0  0  0
  -28.6086   -0.7208   18.6272 C   0  0  0  0  0  0  0  0  0  0  0  0
  -29.5767   -1.6031   19.0668 C   0  0  0  0  0  0  0  0  0  0  0  0
  -30.7816   -1.6051   18.3545 C   0  0  0  0  0  0  0  0  0  0  0  0
  -30.9899   -0.7588   17.2570 C   0  0  0  0  0  0  0  0  0  0  0  0
  -29.3216   -2.4994   20.2499 C   0  0  0  0  0  0  0  0  0  0  0  0
  -29.1045   -1.9772   21.4568 N   0  0  0  0  0  0  0  0  0  0  0  0
  -29.3181   -3.8146   20.0630 N   0  0  0  0  0  0  0  0  0  0  0  0
  -29.1103   -1.0003   21.5787 H   0  0  0  0  0  0  0  0  0  0  0  0
  -29.4802   -4.1847   19.1652 H   0  0  0  0  0  0  0  0  0  0  0  0
  -29.1536   -4.4193   20.8224 H   0  0  0  0  0  0  0  0  0  0  0  0
 10  9  1  0  0  0
 10 11  1  0  0  0
  9  8  1  0  0  0
 20  3  1  0  0  0
 20 21  1  0  0  0
  2  1  2  0  0  0
  1  3  1  0  0  0
  1  8  1  0  0  0
  8  7  1  0  0  0
 21 26  2  0  0  0
 21 22  1  0  0  0
 11  7  1  0  0  0
  7  5  1  0  0  0
 26 25  1  0  0  0
 22 23  2  0  0  0
  5 12  1  0  0  0
  5  6  2  0  0  0
 25 24  2  0  0  0
 23 24  1  0  0  0
 12 13  1  0  0  0
 24 27  1  0  0  0
 27 29  1  0  0  0
 27 28  2  0  0  0
 13 15  1  0  0  0
 16 15  1  0  0  0
 16 17  1  0  0  0
 15 19  1  0  0  0
 17 18  1  0  0  0
 19 18  1  0  0  0
 13 14  1  0  0  0
  3  4  1  0  0  0
 28 30  1  0  0  0
 29 31  1  0  0  0
 29 32  1  0  0  0
M  END
> <minimizedAffinity>
-7.53086

$$$$
2ZFT_10U_A_501


 32 34  0  0  0  0  0  0  0  0999 V2000
  -26.8926    2.7697   14.2468 C   0  0  0  0  0  0  0  0  0  0  0  0
  -26.7989    3.3612   13.1830 O   0  0  0  0  0  0  0  0  0  0  0  0
  -25.8368    2.1030   14.6013 N   0  0  0  0  0  0  0  0  0  0  0  0
  -25.9014    1.6427   15.4691 H   0  0  0  0  0  0  0  0  0  0  0  0
  -29.5573    1.0644   14.1193 C   0  0  0  0  0  0  0  0  0  0  0  0
  -29.3950    1.4655   12.9632 O   0  0  0  0  0  0  0  0  0  0  0  0
  -28.8988    1.5973   15.1632 N   0  0  0  0  0  0  0  0  0  0  0  0
  -28.1327    2.8255   15.0639 C   0  0  0  0  0  0  0  0  0  0  0  0
  -27.8035    3.0667   16.5303 C   0  0  0  0  0  0  0  0  0  0  0  0
  -27.9322    1.8210   17.3733 C   0  0  0  0  0  0  0  0  0  0  0  0
  -28.9006    1.0067   16.5228 C   0  0  0  0  0  0  0  0  0  0  0  0
  -30.5150   -0.0453   14.4161 C   0  0  0  0  0  0  0  0  0  0  0  0
  -31.8353    0.4537   14.6739 N   0  0  0  0  0  0  0  0  0  0  0  0
  -31.7508    1.4367   14.9327 H   0  0  0  0  0  0  0  0  0  0  0  0
  -32.7856    0.3646   13.5736 C   0  0  0  0  0  0  0  0  0  0  0  0
  -32.4421   -0.9180   12.7813 C   0  0  0  0  0  0  0  0  0  0  0  0
  -33.1788   -0.7911   11.4366 C   0  0  0  0  0  0  0  0  0  0  0  0
  -33.1006    0.7101   11.1144 C   0  0  0  0  0  0  0  0  0  0  0  0
  -32.9206    1.4772   12.4618 C   0  0  0  0  0  0  0  0  0  0  0  0
  -24.6116    1.9428   13.9238 C   0  0  0  0  0  0  0  0  0  0  0  0
  -23.4301    1.8176   14.7962 C   0  0  0  0  0  0  0  0  0  0  0  0
  -23.3640    2.3067   16.0536 C   0  0  0  0  0  0  0  0  0  0  0  0
  -22.2165    2.1552   16.8267 C   0  0  0  0  0  0  0  0  0  0  0  0
  -21.0906    1.5032   16.3618 C   0  0  0  0  0  0  0  0  0  0  0  0
  -21.1625    0.9965   15.0589 C   0  0  0  0  0  0  0  0  0  0  0  0
  -22.3135    1.1452   14.2733 C   0  0  0  0  0  0  0  0  0  0  0  0
  -19.8694    1.3602   17.2314 C   0  0  0  0  0  0  0  0  0  0  0  0
  -19.0199    0.3512   17.0398 N   0  0  0  0  0  0  0  0  0  0  0  0
  -19.6603    2.2580   18.1879 N   0  0  0  0  0  0  0  0  0  0  0  0
  -19.1891   -0.3060   16.3265 H   0  0  0  0  0  0  0  0  0  0  0  0
  -20.2972    2.9976   18.3166 H   0  0  0  0  0  0  0  0  0  0  0  0
  -18.8683    2.1839   18.7680 H   0  0  0  0  0  0  0  0  0  0  0  0
 10  9  1  0  0  0
 10 11  1  0  0  0
  9  8  1  0  0  0
 20  3  1  0  0  0
 20 21  1  0  0  0
  2  1  2  0  0  0
  1  3  1  0  0  0
  1  8  1  0  0  0
  8  7  1  0  0  0
 21 26  2  0  0  0
 21 22  1  0  0  0
 11  7  1  0  0  0
  7  5  1  0  0  0
 26 25  1  0  0  0
 22 23  2  0  0  0
  5 12  1  0  0  0
  5  6  2  0  0  0
 25 24  2  0  0  0
 23 24  1  0  0  0
 12 13  1  0  0  0
 24 27  1  0  0  0
 27 29  1  0  0  0
 27 28  2  0  0  0
 13 15  1  0  0  0
 16 15  1  0  0  0
 16 17  1  0  0  0
 15 19  1  0  0  0
 17 18  1  0  0  0
 19 18  1  0  0  0
 13 14  1  0  0  0
  3  4  1  0  0  0
 28 30  1  0  0  0
 29 31  1  0  0  0
 29 32  1  0  0  0
M  END
> <minimizedAffinity>
-7.40025

$$$$
2ZFT_10U_A_501


 32 34  0  0  0  0  0  0  0  0999 V2000
  -26.7053    2.5693   14.1657 C   0  0  0  0  0  0  0  0  0  0  0  0
  -26.5372    3.3528   13.2447 O   0  0  0  0  0  0  0  0  0  0  0  0
  -25.7102    1.7683   14.3961 N   0  0  0  0  0  0  0  0  0  0  0  0
  -25.8339    1.1499   15.1521 H   0  0  0  0  0  0  0  0  0  0  0  0
  -29.3661    0.8876   13.8242 C   0  0  0  0  0  0  0  0  0  0  0  0
  -29.1779    1.3915   12.7133 O   0  0  0  0  0  0  0  0  0  0  0  0
  -28.7314    1.3224   14.9267 N   0  0  0  0  0  0  0  0  0  0  0  0
  -27.9635    2.5531   14.9564 C   0  0  0  0  0  0  0  0  0  0  0  0
  -27.6675    2.6598   16.4457 C   0  0  0  0  0  0  0  0  0  0  0  0
  -27.8149    1.3430   17.1692 C   0  0  0  0  0  0  0  0  0  0  0  0
  -28.7638    0.6110   16.2268 C   0  0  0  0  0  0  0  0  0  0  0  0
  -30.3301   -0.2427   13.9976 C   0  0  0  0  0  0  0  0  0  0  0  0
  -31.6432    0.1106   13.5400 N   0  0  0  0  0  0  0  0  0  0  0  0
  -32.0264   -0.6942   13.0441 H   0  0  0  0  0  0  0  0  0  0  0  0
  -32.6023    0.4974   14.5657 C   0  0  0  0  0  0  0  0  0  0  0  0
  -32.8295    2.0202   14.4220 C   0  0  0  0  0  0  0  0  0  0  0  0
  -33.5189    2.4667   15.7230 C   0  0  0  0  0  0  0  0  0  0  0  0
  -32.8707    1.5862   16.8038 C   0  0  0  0  0  0  0  0  0  0  0  0
  -32.3401    0.2932   16.1090 C   0  0  0  0  0  0  0  0  0  0  0  0
  -24.4786    1.6556   13.7208 C   0  0  0  0  0  0  0  0  0  0  0  0
  -23.2965    1.5541   14.5955 C   0  0  0  0  0  0  0  0  0  0  0  0
  -22.2061    0.8101   14.3089 C   0  0  0  0  0  0  0  0  0  0  0  0
  -21.1210    0.7564   15.1791 C   0  0  0  0  0  0  0  0  0  0  0  0
  -21.0930    1.4522   16.3723 C   0  0  0  0  0  0  0  0  0  0  0  0
  -22.2238    2.2232   16.6660 C   0  0  0  0  0  0  0  0  0  0  0  0
  -23.3210    2.2824   15.7960 C   0  0  0  0  0  0  0  0  0  0  0  0
  -19.8983    1.3674   17.2853 C   0  0  0  0  0  0  0  0  0  0  0  0
  -19.7234    2.2682   18.2520 N   0  0  0  0  0  0  0  0  0  0  0  0
  -19.0284    0.3796   17.1054 N   0  0  0  0  0  0  0  0  0  0  0  0
  -20.3772    2.9943   18.3723 H   0  0  0  0  0  0  0  0  0  0  0  0
  -19.1718   -0.2778   16.3868 H   0  0  0  0  0  0  0  0  0  0  0  0
  -18.2403    0.3050   17.6907 H   0  0  0  0  0  0  0  0  0  0  0  0
 10  9  1  0  0  0
 10 11  1  0  0  0
  9  8  1  0  0  0
 20  3  1  0  0  0
 20 21  1  0  0  0
  2  1  2  0  0  0
  1  3  1  0  0  0
  1  8  1  0  0  0
  8  7  1  0  0  0
 21 26  2  0  0  0
 21 22  1  0  0  0
 11  7  1  0  0  0
  7  5  1  0  0  0
 26 25  1  0  0  0
 22 23  2  0  0  0
  5 12  1  0  0  0
  5  6  2  0  0  0
 25 24  2  0  0  0
 23 24  1  0  0  0
 12 13  1  0  0  0
 24 27  1  0  0  0
 27 29  1  0  0  0
 27 28  2  0  0  0
 13 15  1  0  0  0
 16 15  1  0  0  0
 16 17  1  0  0  0
 15 19  1  0  0  0
 17 18  1  0  0  0
 19 18  1  0  0  0
 13 14  1  0  0  0
  3  4  1  0  0  0
 28 30  1  0  0  0
 29 31  1  0  0  0
 29 32  1  0  0  0
M  END
> <minimizedAffinity>
-7.09751

$$$$
2ZFT_10U_A_501


 32 34  0  0  0  0  0  0  0  0999 V2000
  -26.1005    1.9457   13.8567 C   0  0  0  0  0  0  0  0  0  0  0  0
  -25.9295    0.9042   13.2431 O   0  0  0  0  0  0  0  0  0  0  0  0
  -25.0689    2.7320   13.9055 N   0  0  0  0  0  0  0  0  0  0  0  0
  -25.2100    3.5824   14.3810 H   0  0  0  0  0  0  0  0  0  0  0  0
  -29.0672    1.7056   12.7769 C   0  0  0  0  0  0  0  0  0  0  0  0
  -28.4728    2.3393   11.9002 O   0  0  0  0  0  0  0  0  0  0  0  0
  -28.5600    1.5384   14.0108 N   0  0  0  0  0  0  0  0  0  0  0  0
  -27.4043    2.2727   14.4905 C   0  0  0  0  0  0  0  0  0  0  0  0
  -27.4083    1.8688   15.9581 C   0  0  0  0  0  0  0  0  0  0  0  0
  -28.1960    0.6073   16.2175 C   0  0  0  0  0  0  0  0  0  0  0  0
  -29.1331    0.6107   15.0149 C   0  0  0  0  0  0  0  0  0  0  0  0
  -30.4035    1.0919   12.5037 C   0  0  0  0  0  0  0  0  0  0  0  0
  -30.8023    1.2851   11.1392 N   0  0  0  0  0  0  0  0  0  0  0  0
  -31.0951    0.3804   10.7700 H   0  0  0  0  0  0  0  0  0  0  0  0
  -31.8875    2.2296   10.9110 C   0  0  0  0  0  0  0  0  0  0  0  0
  -31.3164    3.3740   10.0419 C   0  0  0  0  0  0  0  0  0  0  0  0
  -32.3347    4.5233   10.1388 C   0  0  0  0  0  0  0  0  0  0  0  0
  -32.8452    4.4416   11.5867 C   0  0  0  0  0  0  0  0  0  0  0  0
  -32.6383    2.9760   12.0821 C   0  0  0  0  0  0  0  0  0  0  0  0
  -23.7763    2.5446   13.3766 C   0  0  0  0  0  0  0  0  0  0  0  0
  -22.7612    2.1110   14.3535 C   0  0  0  0  0  0  0  0  0  0  0  0
  -22.1031    0.9332   14.2871 C   0  0  0  0  0  0  0  0  0  0  0  0
  -21.1543    0.5826   15.2434 C   0  0  0  0  0  0  0  0  0  0  0  0
  -20.8316    1.4071   16.3040 C   0  0  0  0  0  0  0  0  0  0  0  0
  -21.5143    2.6274   16.3694 C   0  0  0  0  0  0  0  0  0  0  0  0
  -22.4715    2.9881   15.4114 C   0  0  0  0  0  0  0  0  0  0  0  0
  -19.7980    0.9901   17.3168 C   0  0  0  0  0  0  0  0  0  0  0  0
  -19.5170    1.7760   18.3559 N   0  0  0  0  0  0  0  0  0  0  0  0
  -19.1770   -0.1725   17.1509 N   0  0  0  0  0  0  0  0  0  0  0  0
  -19.9861    2.6347   18.4647 H   0  0  0  0  0  0  0  0  0  0  0  0
  -19.3959   -0.7417   16.3780 H   0  0  0  0  0  0  0  0  0  0  0  0
  -18.4978   -0.4650   17.8009 H   0  0  0  0  0  0  0  0  0  0  0  0
 10  9  1  0  0  0
 10 11  1  0  0  0
  9  8  1  0  0  0
 20  3  1  0  0  0
 20 21  1  0  0  0
  2  1  2  0  0  0
  1  3  1  0  0  0
  1  8  1  0  0  0
  8  7  1  0  0  0
 21 26  2  0  0  0
 21 22  1  0  0  0
 11  7  1  0  0  0
  7  5  1  0  0  0
 26 25  1  0  0  0
 22 23  2  0  0  0
  5 12  1  0  0  0
  5  6  2  0  0  0
 25 24  2  0  0  0
 23 24  1  0  0  0
 12 13  1  0  0  0
 24 27  1  0  0  0
 27 29  1  0  0  0
 27 28  2  0  0  0
 13 15  1  0  0  0
 16 15  1  0  0  0
 16 17  1  0  0  0
 15 19  1  0  0  0
 17 18  1  0  0  0
 19 18  1  0  0  0
 13 14  1  0  0  0
  3  4  1  0  0  0
 28 30  1  0  0  0
 29 31  1  0  0  0
 29 32  1  0  0  0
M  END
> <minimizedAffinity>
-7.03960

$$$$
