4GJ2_0XH_A_1201


 26 28  0  0  0  0  0  0  0  0999 V2000
   -6.8553   -5.7696  -15.9964 C   0  0  0  0  0  0  0  0  0  0  0  0
   -6.6504   -4.9552  -14.8660 C   0  0  0  0  0  0  0  0  0  0  0  0
   -5.7189   -3.9250  -14.9364 C   0  0  0  0  0  0  0  0  0  0  0  0
   -5.0326   -3.6983  -16.0530 N   0  0  0  0  0  0  0  0  0  0  0  0
   -5.1985   -4.4364  -17.1490 C   0  0  0  0  0  0  0  0  0  0  0  0
   -6.0785   -5.5192  -17.1232 C   0  0  0  0  0  0  0  0  0  0  0  0
   -7.3375   -8.1994  -15.9512 C   0  0  0  0  0  0  0  0  0  0  0  0
   -6.1929   -8.5750  -15.7621 O   0  0  0  0  0  0  0  0  0  0  0  0
   -7.6760   -6.8996  -16.0547 N   0  0  0  0  0  0  0  0  0  0  0  0
   -8.6345   -6.7207  -16.1903 H   0  0  0  0  0  0  0  0  0  0  0  0
  -10.3663  -11.1661  -16.5217 C   0  0  0  0  0  0  0  0  0  0  0  0
  -10.1996  -10.5948  -15.2650 C   0  0  0  0  0  0  0  0  0  0  0  0
   -9.2284   -9.6214  -15.0604 C   0  0  0  0  0  0  0  0  0  0  0  0
   -8.4013   -9.2149  -16.1238 C   0  0  0  0  0  0  0  0  0  0  0  0
   -8.5860   -9.7905  -17.3950 C   0  0  0  0  0  0  0  0  0  0  0  0
   -9.5615  -10.7615  -17.5787 C   0  0  0  0  0  0  0  0  0  0  0  0
   -7.5974   -9.2898  -18.7347 Cl  0  0  0  0  0  0  0  0  0  0  0  0
   -9.0686   -8.9008  -13.4967 Cl  0  0  0  0  0  0  0  0  0  0  0  0
   -4.4012   -4.1852  -18.2711 N   0  0  0  0  0  0  0  0  0  0  0  0
   -3.1858   -4.7262  -18.5486 C   0  0  0  0  0  0  0  0  0  0  0  0
   -2.6379   -5.5375  -17.8216 O   0  0  0  0  0  0  0  0  0  0  0  0
   -4.7593   -3.5479  -18.9306 H   0  0  0  0  0  0  0  0  0  0  0  0
   -2.5131   -4.2534  -19.8127 C   0  0  0  0  0  0  0  0  0  0  0  0
   -1.9822   -5.2844  -20.8147 C   0  0  0  0  0  0  0  0  0  0  0  0
   -3.2244   -4.4572  -21.1467 C   0  0  0  0  0  0  0  0  0  0  0  0
   -4.4599   -5.1028  -21.1142 F   0  0  0  0  0  0  0  0  0  0  0  0
 24 25  1  0  0  0
 24 23  1  0  0  0
 25 23  1  0  0  0
 25 26  1  0  0  0
 23 20  1  0  0  0
 20 21  2  0  0  0
 20 19  1  0  0  0
 19  5  1  0  0  0
  5  6  2  0  0  0
  5  4  1  0  0  0
  6  1  1  0  0  0
  4  3  2  0  0  0
  9  1  1  0  0  0
  9  7  1  0  0  0
 11 12  2  0  0  0
 11 16  1  0  0  0
  1  2  2  0  0  0
 12 13  1  0  0  0
 16 15  2  0  0  0
 13 18  1  0  0  0
 13 14  2  0  0  0
 15 14  1  0  0  0
 15 17  1  0  0  0
 14  7  1  0  0  0
  7  8  2  0  0  0
  3  2  1  0  0  0
  9 10  1  0  0  0
 19 22  1  0  0  0
M  END
> <minimizedAffinity>
-8.25911

$$$$
4GJ2_0XH_A_1201


 26 28  0  0  0  0  0  0  0  0999 V2000
   -6.8779   -5.7474  -15.9955 C   0  0  0  0  0  0  0  0  0  0  0  0
   -6.7031   -4.9353  -14.8585 C   0  0  0  0  0  0  0  0  0  0  0  0
   -5.7812   -3.8953  -14.9072 C   0  0  0  0  0  0  0  0  0  0  0  0
   -5.0761   -3.6572  -16.0097 N   0  0  0  0  0  0  0  0  0  0  0  0
   -5.2133   -4.3927  -17.1114 C   0  0  0  0  0  0  0  0  0  0  0  0
   -6.0823   -5.4847  -17.1064 C   0  0  0  0  0  0  0  0  0  0  0  0
   -7.3399   -8.1810  -15.9415 C   0  0  0  0  0  0  0  0  0  0  0  0
   -6.2006   -8.5436  -15.7020 O   0  0  0  0  0  0  0  0  0  0  0  0
   -7.6854   -6.8856  -16.0737 N   0  0  0  0  0  0  0  0  0  0  0  0
   -8.6393   -6.7172  -16.2498 H   0  0  0  0  0  0  0  0  0  0  0  0
  -10.4118  -11.1126  -16.4605 C   0  0  0  0  0  0  0  0  0  0  0  0
   -9.5747  -10.8058  -17.5276 C   0  0  0  0  0  0  0  0  0  0  0  0
   -8.5634   -9.8639  -17.3773 C   0  0  0  0  0  0  0  0  0  0  0  0
   -8.3868   -9.2082  -16.1449 C   0  0  0  0  0  0  0  0  0  0  0  0
   -9.2315   -9.5346  -15.0673 C   0  0  0  0  0  0  0  0  0  0  0  0
  -10.2361  -10.4780  -15.2378 C   0  0  0  0  0  0  0  0  0  0  0  0
   -9.0213   -8.7607  -13.5245 Cl  0  0  0  0  0  0  0  0  0  0  0  0
   -7.5133   -9.5298  -18.7098 Cl  0  0  0  0  0  0  0  0  0  0  0  0
   -4.3975   -4.1288  -18.2171 N   0  0  0  0  0  0  0  0  0  0  0  0
   -3.2194   -4.7315  -18.5267 C   0  0  0  0  0  0  0  0  0  0  0  0
   -2.7286   -5.6187  -17.8492 O   0  0  0  0  0  0  0  0  0  0  0  0
   -4.7106   -3.4315  -18.8376 H   0  0  0  0  0  0  0  0  0  0  0  0
   -2.5128   -4.2305  -19.7610 C   0  0  0  0  0  0  0  0  0  0  0  0
   -2.0522   -5.2328  -20.8249 C   0  0  0  0  0  0  0  0  0  0  0  0
   -3.2334   -4.3031  -21.1036 C   0  0  0  0  0  0  0  0  0  0  0  0
   -4.5107   -4.8624  -21.1079 F   0  0  0  0  0  0  0  0  0  0  0  0
 24 25  1  0  0  0
 24 23  1  0  0  0
 25 23  1  0  0  0
 25 26  1  0  0  0
 23 20  1  0  0  0
 20 21  2  0  0  0
 20 19  1  0  0  0
 19  5  1  0  0  0
  5  6  2  0  0  0
  5  4  1  0  0  0
  6  1  1  0  0  0
  4  3  2  0  0  0
  9  1  1  0  0  0
  9  7  1  0  0  0
 11 12  2  0  0  0
 11 16  1  0  0  0
  1  2  2  0  0  0
 12 13  1  0  0  0
 16 15  2  0  0  0
 13 18  1  0  0  0
 13 14  2  0  0  0
 15 14  1  0  0  0
 15 17  1  0  0  0
 14  7  1  0  0  0
  7  8  2  0  0  0
  3  2  1  0  0  0
  9 10  1  0  0  0
 19 22  1  0  0  0
M  END
> <minimizedAffinity>
-8.25706

$$$$
4GJ2_0XH_A_1201


 26 28  0  0  0  0  0  0  0  0999 V2000
   -8.7431   -9.3562  -16.3461 C   0  0  0  0  0  0  0  0  0  0  0  0
   -9.5537   -9.7456  -15.2625 C   0  0  0  0  0  0  0  0  0  0  0  0
  -10.3362  -10.8890  -15.3818 C   0  0  0  0  0  0  0  0  0  0  0  0
  -10.3200  -11.6160  -16.4956 N   0  0  0  0  0  0  0  0  0  0  0  0
   -9.5635  -11.2919  -17.5426 C   0  0  0  0  0  0  0  0  0  0  0  0
   -8.7983  -10.1254  -17.5043 C   0  0  0  0  0  0  0  0  0  0  0  0
   -7.4885   -7.4304  -15.4211 C   0  0  0  0  0  0  0  0  0  0  0  0
   -7.6439   -7.7035  -14.2428 O   0  0  0  0  0  0  0  0  0  0  0  0
   -7.9808   -8.1870  -16.4211 N   0  0  0  0  0  0  0  0  0  0  0  0
   -7.7752   -7.8727  -17.3311 H   0  0  0  0  0  0  0  0  0  0  0  0
   -5.3425   -3.8859  -16.4848 C   0  0  0  0  0  0  0  0  0  0  0  0
   -6.7070   -3.8060  -16.2290 C   0  0  0  0  0  0  0  0  0  0  0  0
   -7.4213   -4.9438  -15.8715 C   0  0  0  0  0  0  0  0  0  0  0  0
   -6.7679   -6.1862  -15.7752 C   0  0  0  0  0  0  0  0  0  0  0  0
   -5.3842   -6.2545  -16.0242 C   0  0  0  0  0  0  0  0  0  0  0  0
   -4.6887   -5.1066  -16.3804 C   0  0  0  0  0  0  0  0  0  0  0  0
   -4.5437   -7.7704  -15.8874 Cl  0  0  0  0  0  0  0  0  0  0  0  0
   -9.1094   -4.8083  -15.5221 Cl  0  0  0  0  0  0  0  0  0  0  0  0
   -9.6385  -12.0640  -18.7070 N   0  0  0  0  0  0  0  0  0  0  0  0
   -8.6911  -12.1792  -19.6745 C   0  0  0  0  0  0  0  0  0  0  0  0
   -7.6165  -11.6050  -19.6240 O   0  0  0  0  0  0  0  0  0  0  0  0
  -10.4669  -12.5793  -18.8398 H   0  0  0  0  0  0  0  0  0  0  0  0
   -9.0395  -13.0496  -20.8555 C   0  0  0  0  0  0  0  0  0  0  0  0
   -8.4588  -12.7170  -22.2342 C   0  0  0  0  0  0  0  0  0  0  0  0
   -7.9570  -13.9373  -21.4618 C   0  0  0  0  0  0  0  0  0  0  0  0
   -6.6861  -13.8655  -20.8926 F   0  0  0  0  0  0  0  0  0  0  0  0
 24 25  1  0  0  0
 24 23  1  0  0  0
 25 23  1  0  0  0
 25 26  1  0  0  0
 23 20  1  0  0  0
 20 21  2  0  0  0
 20 19  1  0  0  0
 19  5  1  0  0  0
  5  6  2  0  0  0
  5  4  1  0  0  0
  6  1  1  0  0  0
  4  3  2  0  0  0
  9  1  1  0  0  0
  9  7  1  0  0  0
 11 12  2  0  0  0
 11 16  1  0  0  0
  1  2  2  0  0  0
 12 13  1  0  0  0
 16 15  2  0  0  0
 13 18  1  0  0  0
 13 14  2  0  0  0
 15 14  1  0  0  0
 15 17  1  0  0  0
 14  7  1  0  0  0
  7  8  2  0  0  0
  3  2  1  0  0  0
  9 10  1  0  0  0
 19 22  1  0  0  0
M  END
> <minimizedAffinity>
-8.17493

$$$$
4GJ2_0XH_A_1201


 26 28  0  0  0  0  0  0  0  0999 V2000
   -8.0625   -9.4602  -16.7936 C   0  0  0  0  0  0  0  0  0  0  0  0
   -9.3000  -10.1236  -16.9003 C   0  0  0  0  0  0  0  0  0  0  0  0
   -9.5307  -10.9496  -17.9950 C   0  0  0  0  0  0  0  0  0  0  0  0
   -8.5995  -11.1241  -18.9287 N   0  0  0  0  0  0  0  0  0  0  0  0
   -7.4119  -10.5247  -18.8660 C   0  0  0  0  0  0  0  0  0  0  0  0
   -7.1413   -9.6406  -17.8206 C   0  0  0  0  0  0  0  0  0  0  0  0
   -7.7663   -7.1800  -15.8708 C   0  0  0  0  0  0  0  0  0  0  0  0
   -8.1676   -6.5706  -16.8479 O   0  0  0  0  0  0  0  0  0  0  0  0
   -7.7155   -8.5250  -15.8144 N   0  0  0  0  0  0  0  0  0  0  0  0
   -7.3885   -8.9016  -14.9656 H   0  0  0  0  0  0  0  0  0  0  0  0
   -6.3594   -5.0210  -12.4562 C   0  0  0  0  0  0  0  0  0  0  0  0
   -5.6920   -4.8889  -13.6689 C   0  0  0  0  0  0  0  0  0  0  0  0
   -6.1388   -5.5733  -14.7935 C   0  0  0  0  0  0  0  0  0  0  0  0
   -7.2654   -6.4119  -14.7081 C   0  0  0  0  0  0  0  0  0  0  0  0
   -7.9414   -6.5295  -13.4790 C   0  0  0  0  0  0  0  0  0  0  0  0
   -7.4790   -5.8378  -12.3673 C   0  0  0  0  0  0  0  0  0  0  0  0
   -9.3521   -7.5373  -13.3485 Cl  0  0  0  0  0  0  0  0  0  0  0  0
   -5.3123   -5.3608  -16.2974 Cl  0  0  0  0  0  0  0  0  0  0  0  0
   -6.4994  -10.7015  -19.9118 N   0  0  0  0  0  0  0  0  0  0  0  0
   -6.4329   -9.9908  -21.0682 C   0  0  0  0  0  0  0  0  0  0  0  0
   -7.1891   -9.0697  -21.3266 O   0  0  0  0  0  0  0  0  0  0  0  0
   -5.8338  -11.4179  -19.7976 H   0  0  0  0  0  0  0  0  0  0  0  0
   -5.3741  -10.4124  -22.0557 C   0  0  0  0  0  0  0  0  0  0  0  0
   -5.2999  -11.8768  -22.5016 C   0  0  0  0  0  0  0  0  0  0  0  0
   -5.7973  -10.8022  -23.4686 C   0  0  0  0  0  0  0  0  0  0  0  0
   -7.1619  -10.7690  -23.7535 F   0  0  0  0  0  0  0  0  0  0  0  0
 24 25  1  0  0  0
 24 23  1  0  0  0
 25 23  1  0  0  0
 25 26  1  0  0  0
 23 20  1  0  0  0
 20 21  2  0  0  0
 20 19  1  0  0  0
 19  5  1  0  0  0
  5  6  2  0  0  0
  5  4  1  0  0  0
  6  1  1  0  0  0
  4  3  2  0  0  0
  9  1  1  0  0  0
  9  7  1  0  0  0
 11 12  2  0  0  0
 11 16  1  0  0  0
  1  2  2  0  0  0
 12 13  1  0  0  0
 16 15  2  0  0  0
 13 18  1  0  0  0
 13 14  2  0  0  0
 15 14  1  0  0  0
 15 17  1  0  0  0
 14  7  1  0  0  0
  7  8  2  0  0  0
  3  2  1  0  0  0
  9 10  1  0  0  0
 19 22  1  0  0  0
M  END
> <minimizedAffinity>
-7.48286

$$$$
4GJ2_0XH_A_1201


 26 28  0  0  0  0  0  0  0  0999 V2000
   -8.0532  -10.2507  -18.7112 C   0  0  0  0  0  0  0  0  0  0  0  0
   -8.8384  -11.4034  -18.5168 C   0  0  0  0  0  0  0  0  0  0  0  0
   -8.7079  -12.4662  -19.4041 C   0  0  0  0  0  0  0  0  0  0  0  0
   -7.8508  -12.4084  -20.4197 N   0  0  0  0  0  0  0  0  0  0  0  0
   -7.0819  -11.3432  -20.6383 C   0  0  0  0  0  0  0  0  0  0  0  0
   -7.2067  -10.2233  -19.8151 C   0  0  0  0  0  0  0  0  0  0  0  0
   -7.2715   -8.5668  -17.0703 C   0  0  0  0  0  0  0  0  0  0  0  0
   -6.2226   -9.1170  -16.7804 O   0  0  0  0  0  0  0  0  0  0  0  0
   -8.1380   -9.0670  -17.9726 N   0  0  0  0  0  0  0  0  0  0  0  0
   -8.9426   -8.5233  -18.1342 H   0  0  0  0  0  0  0  0  0  0  0  0
   -8.3341   -5.0001  -14.9609 C   0  0  0  0  0  0  0  0  0  0  0  0
   -7.6710   -4.9000  -16.1790 C   0  0  0  0  0  0  0  0  0  0  0  0
   -7.3259   -6.0462  -16.8859 C   0  0  0  0  0  0  0  0  0  0  0  0
   -7.6383   -7.3163  -16.3673 C   0  0  0  0  0  0  0  0  0  0  0  0
   -8.3205   -7.4068  -15.1394 C   0  0  0  0  0  0  0  0  0  0  0  0
   -8.6561   -6.2500  -14.4484 C   0  0  0  0  0  0  0  0  0  0  0  0
   -8.7438   -8.9612  -14.4855 Cl  0  0  0  0  0  0  0  0  0  0  0  0
   -6.5356   -5.8909  -18.4161 Cl  0  0  0  0  0  0  0  0  0  0  0  0
   -6.2456  -11.3209  -21.7599 N   0  0  0  0  0  0  0  0  0  0  0  0
   -6.3884  -10.5520  -22.8714 C   0  0  0  0  0  0  0  0  0  0  0  0
   -7.2968   -9.7509  -23.0131 O   0  0  0  0  0  0  0  0  0  0  0  0
   -5.4703  -11.9274  -21.7419 H   0  0  0  0  0  0  0  0  0  0  0  0
   -5.3655  -10.7507  -23.9614 C   0  0  0  0  0  0  0  0  0  0  0  0
   -5.2046  -12.1342  -24.6007 C   0  0  0  0  0  0  0  0  0  0  0  0
   -5.8467  -10.9922  -25.3887 C   0  0  0  0  0  0  0  0  0  0  0  0
   -7.2252  -11.0415  -25.5931 F   0  0  0  0  0  0  0  0  0  0  0  0
 24 25  1  0  0  0
 24 23  1  0  0  0
 25 23  1  0  0  0
 25 26  1  0  0  0
 23 20  1  0  0  0
 20 21  2  0  0  0
 20 19  1  0  0  0
 19  5  1  0  0  0
  5  6  2  0  0  0
  5  4  1  0  0  0
  6  1  1  0  0  0
  4  3  2  0  0  0
  9  1  1  0  0  0
  9  7  1  0  0  0
 11 12  2  0  0  0
 11 16  1  0  0  0
  1  2  2  0  0  0
 12 13  1  0  0  0
 16 15  2  0  0  0
 13 18  1  0  0  0
 13 14  2  0  0  0
 15 14  1  0  0  0
 15 17  1  0  0  0
 14  7  1  0  0  0
  7  8  2  0  0  0
  3  2  1  0  0  0
  9 10  1  0  0  0
 19 22  1  0  0  0
M  END
> <minimizedAffinity>
-7.36041

$$$$
4GJ2_0XH_A_1201


 26 28  0  0  0  0  0  0  0  0999 V2000
   -8.0619  -10.2596  -18.7071 C   0  0  0  0  0  0  0  0  0  0  0  0
   -8.8568  -11.4096  -18.5381 C   0  0  0  0  0  0  0  0  0  0  0  0
   -8.7184  -12.4633  -19.4351 C   0  0  0  0  0  0  0  0  0  0  0  0
   -7.8449  -12.3993  -20.4362 N   0  0  0  0  0  0  0  0  0  0  0  0
   -7.0664  -11.3365  -20.6307 C   0  0  0  0  0  0  0  0  0  0  0  0
   -7.1978  -10.2250  -19.7971 C   0  0  0  0  0  0  0  0  0  0  0  0
   -7.2808   -8.5822  -17.0593 C   0  0  0  0  0  0  0  0  0  0  0  0
   -6.2229   -9.1235  -16.7859 O   0  0  0  0  0  0  0  0  0  0  0  0
   -8.1515   -9.0837  -17.9567 N   0  0  0  0  0  0  0  0  0  0  0  0
   -8.9638   -8.5474  -18.1046 H   0  0  0  0  0  0  0  0  0  0  0  0
   -8.3545   -4.9546  -15.0623 C   0  0  0  0  0  0  0  0  0  0  0  0
   -8.6864   -6.1751  -14.4845 C   0  0  0  0  0  0  0  0  0  0  0  0
   -8.3376   -7.3658  -15.1115 C   0  0  0  0  0  0  0  0  0  0  0  0
   -7.6536   -7.3423  -16.3408 C   0  0  0  0  0  0  0  0  0  0  0  0
   -7.3113   -6.1019  -16.9116 C   0  0  0  0  0  0  0  0  0  0  0  0
   -7.6691   -4.9237  -16.2697 C   0  0  0  0  0  0  0  0  0  0  0  0
   -6.4429   -6.0405  -18.4166 Cl  0  0  0  0  0  0  0  0  0  0  0  0
   -8.7296   -8.8688  -14.3515 Cl  0  0  0  0  0  0  0  0  0  0  0  0
   -6.2123  -11.3067  -21.7385 N   0  0  0  0  0  0  0  0  0  0  0  0
   -6.3435  -10.5386  -22.8520 C   0  0  0  0  0  0  0  0  0  0  0  0
   -7.2560   -9.7451  -23.0082 O   0  0  0  0  0  0  0  0  0  0  0  0
   -5.4323  -11.9067  -21.7081 H   0  0  0  0  0  0  0  0  0  0  0  0
   -5.3014  -10.7283  -23.9253 C   0  0  0  0  0  0  0  0  0  0  0  0
   -5.0868  -12.1202  -24.5297 C   0  0  0  0  0  0  0  0  0  0  0  0
   -5.7570  -11.0191  -25.3518 C   0  0  0  0  0  0  0  0  0  0  0  0
   -7.1304  -11.1195  -25.5706 F   0  0  0  0  0  0  0  0  0  0  0  0
 24 25  1  0  0  0
 24 23  1  0  0  0
 25 23  1  0  0  0
 25 26  1  0  0  0
 23 20  1  0  0  0
 20 21  2  0  0  0
 20 19  1  0  0  0
 19  5  1  0  0  0
  5  6  2  0  0  0
  5  4  1  0  0  0
  6  1  1  0  0  0
  4  3  2  0  0  0
  9  1  1  0  0  0
  9  7  1  0  0  0
 11 12  2  0  0  0
 11 16  1  0  0  0
  1  2  2  0  0  0
 12 13  1  0  0  0
 16 15  2  0  0  0
 13 18  1  0  0  0
 13 14  2  0  0  0
 15 14  1  0  0  0
 15 17  1  0  0  0
 14  7  1  0  0  0
  7  8  2  0  0  0
  3  2  1  0  0  0
  9 10  1  0  0  0
 19 22  1  0  0  0
M  END
> <minimizedAffinity>
-7.33140

$$$$
4GJ2_0XH_A_1201


 26 28  0  0  0  0  0  0  0  0999 V2000
   -5.7876   -7.7376  -18.8707 C   0  0  0  0  0  0  0  0  0  0  0  0
   -5.0820   -6.7136  -19.5313 C   0  0  0  0  0  0  0  0  0  0  0  0
   -5.0204   -5.4523  -18.9488 C   0  0  0  0  0  0  0  0  0  0  0  0
   -5.6087   -5.2086  -17.7809 N   0  0  0  0  0  0  0  0  0  0  0  0
   -6.2795   -6.1473  -17.1157 C   0  0  0  0  0  0  0  0  0  0  0  0
   -6.4234   -7.4176  -17.6752 C   0  0  0  0  0  0  0  0  0  0  0  0
   -6.7729   -9.3970  -20.4245 C   0  0  0  0  0  0  0  0  0  0  0  0
   -7.3613   -8.6020  -21.1379 O   0  0  0  0  0  0  0  0  0  0  0  0
   -6.0254   -9.0220  -19.3683 N   0  0  0  0  0  0  0  0  0  0  0  0
   -5.5856   -9.7543  -18.8790 H   0  0  0  0  0  0  0  0  0  0  0  0
   -7.2868  -13.5763  -21.1791 C   0  0  0  0  0  0  0  0  0  0  0  0
   -6.3367  -12.8644  -21.9031 C   0  0  0  0  0  0  0  0  0  0  0  0
   -6.1462  -11.5079  -21.6662 C   0  0  0  0  0  0  0  0  0  0  0  0
   -6.9215  -10.8448  -20.6972 C   0  0  0  0  0  0  0  0  0  0  0  0
   -7.8722  -11.5768  -19.9612 C   0  0  0  0  0  0  0  0  0  0  0  0
   -8.0476  -12.9310  -20.2130 C   0  0  0  0  0  0  0  0  0  0  0  0
   -8.8269  -10.7912  -18.7387 Cl  0  0  0  0  0  0  0  0  0  0  0  0
   -4.9315  -10.6561  -22.5545 Cl  0  0  0  0  0  0  0  0  0  0  0  0
   -6.9273   -5.8102  -15.9222 N   0  0  0  0  0  0  0  0  0  0  0  0
   -7.2470   -6.6474  -14.9005 C   0  0  0  0  0  0  0  0  0  0  0  0
   -6.9798   -7.8371  -14.9078 O   0  0  0  0  0  0  0  0  0  0  0  0
   -7.1786   -4.8649  -15.8106 H   0  0  0  0  0  0  0  0  0  0  0  0
   -7.9855   -6.0354  -13.7369 C   0  0  0  0  0  0  0  0  0  0  0  0
   -7.7596   -6.5889  -12.3258 C   0  0  0  0  0  0  0  0  0  0  0  0
   -7.2019   -5.2193  -12.7136 C   0  0  0  0  0  0  0  0  0  0  0  0
   -5.8253   -5.1121  -12.9082 F   0  0  0  0  0  0  0  0  0  0  0  0
 24 25  1  0  0  0
 24 23  1  0  0  0
 25 23  1  0  0  0
 25 26  1  0  0  0
 23 20  1  0  0  0
 20 21  2  0  0  0
 20 19  1  0  0  0
 19  5  1  0  0  0
  5  6  2  0  0  0
  5  4  1  0  0  0
  6  1  1  0  0  0
  4  3  2  0  0  0
  9  1  1  0  0  0
  9  7  1  0  0  0
 11 12  2  0  0  0
 11 16  1  0  0  0
  1  2  2  0  0  0
 12 13  1  0  0  0
 16 15  2  0  0  0
 13 18  1  0  0  0
 13 14  2  0  0  0
 15 14  1  0  0  0
 15 17  1  0  0  0
 14  7  1  0  0  0
  7  8  2  0  0  0
  3  2  1  0  0  0
  9 10  1  0  0  0
 19 22  1  0  0  0
M  END
> <minimizedAffinity>
-7.32110

$$$$
4GJ2_0XH_A_1201


 26 28  0  0  0  0  0  0  0  0999 V2000
   -5.8803   -7.8973  -19.0263 C   0  0  0  0  0  0  0  0  0  0  0  0
   -5.2126   -6.8165  -19.6337 C   0  0  0  0  0  0  0  0  0  0  0  0
   -5.2540   -5.5681  -19.0223 C   0  0  0  0  0  0  0  0  0  0  0  0
   -5.9046   -5.3890  -17.8760 N   0  0  0  0  0  0  0  0  0  0  0  0
   -6.5431   -6.3826  -17.2607 C   0  0  0  0  0  0  0  0  0  0  0  0
   -6.5843   -7.6456  -17.8529 C   0  0  0  0  0  0  0  0  0  0  0  0
   -6.7023   -9.5774  -20.6513 C   0  0  0  0  0  0  0  0  0  0  0  0
   -7.3169   -8.8045  -21.3667 O   0  0  0  0  0  0  0  0  0  0  0  0
   -6.0169   -9.1815  -19.5611 N   0  0  0  0  0  0  0  0  0  0  0  0
   -5.5469   -9.8959  -19.0733 H   0  0  0  0  0  0  0  0  0  0  0  0
   -6.7448  -13.7535  -21.5779 C   0  0  0  0  0  0  0  0  0  0  0  0
   -7.6358  -13.2554  -20.6336 C   0  0  0  0  0  0  0  0  0  0  0  0
   -7.6459  -11.8999  -20.3254 C   0  0  0  0  0  0  0  0  0  0  0  0
   -6.7467  -11.0246  -20.9619 C   0  0  0  0  0  0  0  0  0  0  0  0
   -5.8570  -11.5364  -21.9251 C   0  0  0  0  0  0  0  0  0  0  0  0
   -5.8624  -12.8936  -22.2186 C   0  0  0  0  0  0  0  0  0  0  0  0
   -4.7522  -10.4755  -22.7478 Cl  0  0  0  0  0  0  0  0  0  0  0  0
   -8.7902  -11.3021  -19.1751 Cl  0  0  0  0  0  0  0  0  0  0  0  0
   -7.2600   -6.1145  -16.0894 N   0  0  0  0  0  0  0  0  0  0  0  0
   -6.7470   -5.8310  -14.8633 C   0  0  0  0  0  0  0  0  0  0  0  0
   -5.5495   -5.7636  -14.6433 O   0  0  0  0  0  0  0  0  0  0  0  0
   -8.2417   -6.1333  -16.1612 H   0  0  0  0  0  0  0  0  0  0  0  0
   -7.7431   -5.6204  -13.7509 C   0  0  0  0  0  0  0  0  0  0  0  0
   -7.8255   -6.6404  -12.6101 C   0  0  0  0  0  0  0  0  0  0  0  0
   -7.2300   -5.2544  -12.3616 C   0  0  0  0  0  0  0  0  0  0  0  0
   -5.8480   -5.1629  -12.2000 F   0  0  0  0  0  0  0  0  0  0  0  0
 24 25  1  0  0  0
 24 23  1  0  0  0
 25 23  1  0  0  0
 25 26  1  0  0  0
 23 20  1  0  0  0
 20 21  2  0  0  0
 20 19  1  0  0  0
 19  5  1  0  0  0
  5  6  2  0  0  0
  5  4  1  0  0  0
  6  1  1  0  0  0
  4  3  2  0  0  0
  9  1  1  0  0  0
  9  7  1  0  0  0
 11 12  2  0  0  0
 11 16  1  0  0  0
  1  2  2  0  0  0
 12 13  1  0  0  0
 16 15  2  0  0  0
 13 18  1  0  0  0
 13 14  2  0  0  0
 15 14  1  0  0  0
 15 17  1  0  0  0
 14  7  1  0  0  0
  7  8  2  0  0  0
  3  2  1  0  0  0
  9 10  1  0  0  0
 19 22  1  0  0  0
M  END
> <minimizedAffinity>
-7.31691

$$$$
4GJ2_0XH_A_1201


 26 28  0  0  0  0  0  0  0  0999 V2000
   -6.2766   -7.7393  -17.7668 C   0  0  0  0  0  0  0  0  0  0  0  0
   -5.6030   -6.9750  -18.7390 C   0  0  0  0  0  0  0  0  0  0  0  0
   -5.3771   -7.5280  -19.9948 C   0  0  0  0  0  0  0  0  0  0  0  0
   -5.7947   -8.7568  -20.2864 N   0  0  0  0  0  0  0  0  0  0  0  0
   -6.4428   -9.5134  -19.4027 C   0  0  0  0  0  0  0  0  0  0  0  0
   -6.6509   -9.0352  -18.1083 C   0  0  0  0  0  0  0  0  0  0  0  0
   -7.2797   -6.3927  -15.9450 C   0  0  0  0  0  0  0  0  0  0  0  0
   -7.9661   -5.6740  -16.6516 O   0  0  0  0  0  0  0  0  0  0  0  0
   -6.4913   -7.3683  -16.4364 N   0  0  0  0  0  0  0  0  0  0  0  0
   -5.9977   -7.8929  -15.7652 H   0  0  0  0  0  0  0  0  0  0  0  0
   -7.2782   -5.7969  -11.7088 C   0  0  0  0  0  0  0  0  0  0  0  0
   -6.5297   -4.9483  -12.5171 C   0  0  0  0  0  0  0  0  0  0  0  0
   -6.5246   -5.1178  -13.8969 C   0  0  0  0  0  0  0  0  0  0  0  0
   -7.2710   -6.1564  -14.4833 C   0  0  0  0  0  0  0  0  0  0  0  0
   -8.0351   -7.0026  -13.6576 C   0  0  0  0  0  0  0  0  0  0  0  0
   -8.0265   -6.8170  -12.2815 C   0  0  0  0  0  0  0  0  0  0  0  0
   -8.9886   -8.2784  -14.3548 Cl  0  0  0  0  0  0  0  0  0  0  0  0
   -5.6150   -4.0245  -14.8804 Cl  0  0  0  0  0  0  0  0  0  0  0  0
   -6.8010  -10.8201  -19.7522 N   0  0  0  0  0  0  0  0  0  0  0  0
   -7.9983  -11.4255  -19.5357 C   0  0  0  0  0  0  0  0  0  0  0  0
   -8.9392  -10.8650  -18.9996 O   0  0  0  0  0  0  0  0  0  0  0  0
   -6.1115  -11.3588  -20.2034 H   0  0  0  0  0  0  0  0  0  0  0  0
   -8.1129  -12.8635  -19.9752 C   0  0  0  0  0  0  0  0  0  0  0  0
   -9.0778  -13.2307  -21.1078 C   0  0  0  0  0  0  0  0  0  0  0  0
   -7.5675  -13.2618  -21.3431 C   0  0  0  0  0  0  0  0  0  0  0  0
   -7.0129  -12.2485  -22.1240 F   0  0  0  0  0  0  0  0  0  0  0  0
 24 25  1  0  0  0
 24 23  1  0  0  0
 25 23  1  0  0  0
 25 26  1  0  0  0
 23 20  1  0  0  0
 20 21  2  0  0  0
 20 19  1  0  0  0
 19  5  1  0  0  0
  5  6  2  0  0  0
  5  4  1  0  0  0
  6  1  1  0  0  0
  4  3  2  0  0  0
  9  1  1  0  0  0
  9  7  1  0  0  0
 11 12  2  0  0  0
 11 16  1  0  0  0
  1  2  2  0  0  0
 12 13  1  0  0  0
 16 15  2  0  0  0
 13 18  1  0  0  0
 13 14  2  0  0  0
 15 14  1  0  0  0
 15 17  1  0  0  0
 14  7  1  0  0  0
  7  8  2  0  0  0
  3  2  1  0  0  0
  9 10  1  0  0  0
 19 22  1  0  0  0
M  END
> <minimizedAffinity>
-7.28958

$$$$
4GJ2_0XH_A_1201


 26 28  0  0  0  0  0  0  0  0999 V2000
   -8.0278  -11.5521  -19.5266 C   0  0  0  0  0  0  0  0  0  0  0  0
   -8.8171  -12.6712  -19.8547 C   0  0  0  0  0  0  0  0  0  0  0  0
   -8.7642  -13.1783  -21.1486 C   0  0  0  0  0  0  0  0  0  0  0  0
   -7.9764  -12.6271  -22.0677 N   0  0  0  0  0  0  0  0  0  0  0  0
   -7.2064  -11.5737  -21.8016 C   0  0  0  0  0  0  0  0  0  0  0  0
   -7.2571  -10.9856  -20.5370 C   0  0  0  0  0  0  0  0  0  0  0  0
   -9.0302  -10.1304  -17.7623 C   0  0  0  0  0  0  0  0  0  0  0  0
  -10.1161   -9.9754  -18.2950 O   0  0  0  0  0  0  0  0  0  0  0  0
   -8.0432  -10.8670  -18.3084 N   0  0  0  0  0  0  0  0  0  0  0  0
   -7.2180  -10.9318  -17.7753 H   0  0  0  0  0  0  0  0  0  0  0  0
   -8.2763   -8.2144  -14.0125 C   0  0  0  0  0  0  0  0  0  0  0  0
   -7.6400   -7.7471  -15.1571 C   0  0  0  0  0  0  0  0  0  0  0  0
   -7.8789   -8.3485  -16.3875 C   0  0  0  0  0  0  0  0  0  0  0  0
   -8.7606   -9.4411  -16.4798 C   0  0  0  0  0  0  0  0  0  0  0  0
   -9.4092   -9.8991  -15.3174 C   0  0  0  0  0  0  0  0  0  0  0  0
   -9.1568   -9.2850  -14.0979 C   0  0  0  0  0  0  0  0  0  0  0  0
  -10.5244  -11.2302  -15.4039 Cl  0  0  0  0  0  0  0  0  0  0  0  0
   -7.1030   -7.7225  -17.8004 Cl  0  0  0  0  0  0  0  0  0  0  0  0
   -6.4471  -11.0033  -22.8292 N   0  0  0  0  0  0  0  0  0  0  0  0
   -5.2031  -11.3756  -23.2303 C   0  0  0  0  0  0  0  0  0  0  0  0
   -4.5897  -12.2991  -22.7225 O   0  0  0  0  0  0  0  0  0  0  0  0
   -6.8582  -10.2515  -23.3139 H   0  0  0  0  0  0  0  0  0  0  0  0
   -4.5852  -10.5651  -24.3417 C   0  0  0  0  0  0  0  0  0  0  0  0
   -3.8361  -11.2819  -25.4703 C   0  0  0  0  0  0  0  0  0  0  0  0
   -5.1978  -10.6399  -25.7369 C   0  0  0  0  0  0  0  0  0  0  0  0
   -6.2918  -11.4881  -25.9041 F   0  0  0  0  0  0  0  0  0  0  0  0
 24 25  1  0  0  0
 24 23  1  0  0  0
 25 23  1  0  0  0
 25 26  1  0  0  0
 23 20  1  0  0  0
 20 21  2  0  0  0
 20 19  1  0  0  0
 19  5  1  0  0  0
  5  6  2  0  0  0
  5  4  1  0  0  0
  6  1  1  0  0  0
  4  3  2  0  0  0
  9  1  1  0  0  0
  9  7  1  0  0  0
 11 12  2  0  0  0
 11 16  1  0  0  0
  1  2  2  0  0  0
 12 13  1  0  0  0
 16 15  2  0  0  0
 13 18  1  0  0  0
 13 14  2  0  0  0
 15 14  1  0  0  0
 15 17  1  0  0  0
 14  7  1  0  0  0
  7  8  2  0  0  0
  3  2  1  0  0  0
  9 10  1  0  0  0
 19 22  1  0  0  0
M  END
> <minimizedAffinity>
-7.27353

$$$$
