4HWO_409_A_702


 34 36  0  0  0  0  0  0  0  0999 V2000
  -14.4870  -37.4728   17.7675 C   0  0  0  0  0  0  0  0  0  0  0  0
  -14.4048  -37.0770   19.1076 C   0  0  0  0  0  0  0  0  0  0  0  0
  -15.5604  -36.9221   19.9069 C   0  0  0  0  0  0  0  0  0  0  0  0
  -16.8059  -37.1628   19.3159 C   0  0  0  0  0  0  0  0  0  0  0  0
  -16.8989  -37.6206   17.9994 C   0  0  0  0  0  0  0  0  0  0  0  0
  -15.7406  -37.7235   17.2228 C   0  0  0  0  0  0  0  0  0  0  0  0
  -18.2506  -37.8077   17.3768 C   0  0  0  0  0  0  0  0  0  0  0  0
  -18.3147  -38.1164   16.0139 C   0  0  0  0  0  0  0  0  0  0  0  0
  -19.5191  -38.2331   15.3454 C   0  0  0  0  0  0  0  0  0  0  0  0
  -20.7171  -38.0512   16.0610 C   0  0  0  0  0  0  0  0  0  0  0  0
  -20.6771  -37.7159   17.4859 C   0  0  0  0  0  0  0  0  0  0  0  0
  -19.4306  -37.6042   18.1087 C   0  0  0  0  0  0  0  0  0  0  0  0
  -22.0489  -38.1321   15.4126 C   0  0  0  0  0  0  0  0  0  0  0  0
  -22.1614  -38.4031   14.1051 N   0  0  0  0  0  0  0  0  0  0  0  0
  -23.1380  -37.9306   16.1701 N   0  0  0  0  0  0  0  0  0  0  0  0
  -23.0424  -37.6552   17.4904 C   0  0  0  0  0  0  0  0  0  0  0  0
  -21.8572  -37.5432   18.1409 N   0  0  0  0  0  0  0  0  0  0  0  0
  -21.3537  -38.5487   13.5613 H   0  0  0  0  0  0  0  0  0  0  0  0
  -23.0517  -38.4565   13.6882 H   0  0  0  0  0  0  0  0  0  0  0  0
  -13.1318  -37.6492   16.8638 S   0  0  0  0  0  0  0  0  0  0  0  0
  -12.6133  -38.9337   17.1833 O   0  0  0  0  0  0  0  0  0  0  0  0
  -13.4596  -37.5285   15.4975 O   0  0  0  0  0  0  0  0  0  0  0  0
  -13.0563  -34.9018   16.3072 O   0  0  0  0  0  0  0  0  0  0  0  0
  -12.0961  -35.3073   16.9474 C   0  0  0  0  0  0  0  0  0  0  0  0
  -11.9801  -36.5946   17.2612 N   0  0  0  0  0  0  0  0  0  0  0  0
  -11.1802  -36.9071   17.7426 H   0  0  0  0  0  0  0  0  0  0  0  0
  -10.9923  -34.3854   17.3950 C   0  0  0  0  0  0  0  0  0  0  0  0
  -11.1970  -33.0620   16.8362 N   0  0  0  0  0  0  0  0  0  0  0  0
  -12.0843  -32.6855   17.1700 H   0  0  0  0  0  0  0  0  0  0  0  0
  -11.2146  -33.1218   15.8181 H   0  0  0  0  0  0  0  0  0  0  0  0
  -10.9669  -34.2626   18.9289 C   0  0  0  0  0  0  0  0  0  0  0  0
  -12.3843  -34.0862   19.5219 C   0  0  0  0  0  0  0  0  0  0  0  0
  -10.3083  -35.4318   19.4767 O   0  0  0  0  0  0  0  0  0  0  0  0
  -10.8056  -36.2277   19.2315 H   0  0  0  0  0  0  0  0  0  0  0  0
 14 13  1  0  0  0
  9  8  2  0  0  0
  9 10  1  0  0  0
 13 10  2  0  0  0
 13 15  1  0  0  0
 22 20  2  0  0  0
  8  7  1  0  0  0
 10 11  1  0  0  0
 15 16  2  0  0  0
 23 24  2  0  0  0
 28 27  1  0  0  0
 20 21  2  0  0  0
 20 25  1  0  0  0
 20  1  1  0  0  0
 24 25  1  0  0  0
 24 27  1  0  0  0
  6  1  2  0  0  0
  6  5  1  0  0  0
  7  5  1  0  0  0
  7 12  2  0  0  0
 27 31  1  0  0  0
 11 12  1  0  0  0
 11 17  2  0  0  0
 16 17  1  0  0  0
  1  2  1  0  0  0
  5  4  2  0  0  0
 31 33  1  0  0  0
 31 32  1  0  0  0
  2  3  2  0  0  0
  4  3  1  0  0  0
 33 34  1  0  0  0
 28 29  1  0  0  0
 28 30  1  0  0  0
 25 26  1  0  0  0
 14 18  1  0  0  0
 14 19  1  0  0  0
M  END
> <minimizedAffinity>
-13.15539

$$$$
4HWO_409_A_702


 34 36  0  0  0  0  0  0  0  0999 V2000
  -14.4108  -37.5177   17.8410 C   0  0  0  0  0  0  0  0  0  0  0  0
  -14.3363  -36.9258   19.1073 C   0  0  0  0  0  0  0  0  0  0  0  0
  -15.4988  -36.5939   19.8399 C   0  0  0  0  0  0  0  0  0  0  0  0
  -16.7425  -36.8608   19.2563 C   0  0  0  0  0  0  0  0  0  0  0  0
  -16.8315  -37.5097   18.0225 C   0  0  0  0  0  0  0  0  0  0  0  0
  -15.6641  -37.7871   17.3045 C   0  0  0  0  0  0  0  0  0  0  0  0
  -18.1778  -37.7235   17.3965 C   0  0  0  0  0  0  0  0  0  0  0  0
  -18.2336  -38.0115   16.0286 C   0  0  0  0  0  0  0  0  0  0  0  0
  -19.4344  -38.1500   15.3580 C   0  0  0  0  0  0  0  0  0  0  0  0
  -20.6369  -38.0126   16.0760 C   0  0  0  0  0  0  0  0  0  0  0  0
  -20.6058  -37.6996   17.5062 C   0  0  0  0  0  0  0  0  0  0  0  0
  -19.3628  -37.5641   18.1312 C   0  0  0  0  0  0  0  0  0  0  0  0
  -21.9660  -38.1192   15.4259 C   0  0  0  0  0  0  0  0  0  0  0  0
  -22.0712  -38.3717   14.1141 N   0  0  0  0  0  0  0  0  0  0  0  0
  -23.0601  -37.9599   16.1862 N   0  0  0  0  0  0  0  0  0  0  0  0
  -22.9719  -37.7036   17.5109 C   0  0  0  0  0  0  0  0  0  0  0  0
  -21.7901  -37.5699   18.1635 N   0  0  0  0  0  0  0  0  0  0  0  0
  -21.2600  -38.4864   13.5683 H   0  0  0  0  0  0  0  0  0  0  0  0
  -22.9598  -38.4426   13.6962 H   0  0  0  0  0  0  0  0  0  0  0  0
  -13.0479  -37.8967   17.0145 S   0  0  0  0  0  0  0  0  0  0  0  0
  -12.2152  -36.7468   17.0852 O   0  0  0  0  0  0  0  0  0  0  0  0
  -12.4457  -39.0310   17.5972 O   0  0  0  0  0  0  0  0  0  0  0  0
  -11.3244  -39.0658   15.1365 O   0  0  0  0  0  0  0  0  0  0  0  0
  -12.4124  -38.7420   14.6808 C   0  0  0  0  0  0  0  0  0  0  0  0
  -13.3236  -38.1491   15.4470 N   0  0  0  0  0  0  0  0  0  0  0  0
  -14.1777  -37.8606   15.0514 H   0  0  0  0  0  0  0  0  0  0  0  0
  -12.7709  -38.9757   13.2367 C   0  0  0  0  0  0  0  0  0  0  0  0
  -11.5636  -39.0816   12.4389 N   0  0  0  0  0  0  0  0  0  0  0  0
  -11.0098  -39.8741   12.7639 H   0  0  0  0  0  0  0  0  0  0  0  0
  -11.0183  -38.2247   12.5319 H   0  0  0  0  0  0  0  0  0  0  0  0
  -13.5728  -40.2791   13.0736 C   0  0  0  0  0  0  0  0  0  0  0  0
  -13.0661  -41.1290   11.8850 C   0  0  0  0  0  0  0  0  0  0  0  0
  -13.5091  -41.0213   14.3170 O   0  0  0  0  0  0  0  0  0  0  0  0
  -12.5854  -41.2412   14.5153 H   0  0  0  0  0  0  0  0  0  0  0  0
 14 13  1  0  0  0
  9  8  2  0  0  0
  9 10  1  0  0  0
 13 10  2  0  0  0
 13 15  1  0  0  0
 22 20  2  0  0  0
  8  7  1  0  0  0
 10 11  1  0  0  0
 15 16  2  0  0  0
 23 24  2  0  0  0
 28 27  1  0  0  0
 20 21  2  0  0  0
 20 25  1  0  0  0
 20  1  1  0  0  0
 24 25  1  0  0  0
 24 27  1  0  0  0
  6  1  2  0  0  0
  6  5  1  0  0  0
  7  5  1  0  0  0
  7 12  2  0  0  0
 27 31  1  0  0  0
 11 12  1  0  0  0
 11 17  2  0  0  0
 16 17  1  0  0  0
  1  2  1  0  0  0
  5  4  2  0  0  0
 31 33  1  0  0  0
 31 32  1  0  0  0
  2  3  2  0  0  0
  4  3  1  0  0  0
 33 34  1  0  0  0
 28 29  1  0  0  0
 28 30  1  0  0  0
 25 26  1  0  0  0
 14 18  1  0  0  0
 14 19  1  0  0  0
M  END
> <minimizedAffinity>
-11.24593

$$$$
4HWO_409_A_702


 34 36  0  0  0  0  0  0  0  0999 V2000
  -14.2697  -37.9159   16.9795 C   0  0  0  0  0  0  0  0  0  0  0  0
  -13.7745  -37.3817   18.1749 C   0  0  0  0  0  0  0  0  0  0  0  0
  -14.6380  -36.9384   19.2025 C   0  0  0  0  0  0  0  0  0  0  0  0
  -16.0178  -37.0338   18.9888 C   0  0  0  0  0  0  0  0  0  0  0  0
  -16.5251  -37.6240   17.8287 C   0  0  0  0  0  0  0  0  0  0  0  0
  -15.6460  -38.0142   16.8137 C   0  0  0  0  0  0  0  0  0  0  0  0
  -18.0076  -37.6528   17.6029 C   0  0  0  0  0  0  0  0  0  0  0  0
  -18.8490  -37.5008   18.7101 C   0  0  0  0  0  0  0  0  0  0  0  0
  -20.2244  -37.5881   18.6021 C   0  0  0  0  0  0  0  0  0  0  0  0
  -20.7961  -37.8214   17.3375 C   0  0  0  0  0  0  0  0  0  0  0  0
  -19.9368  -37.9957   16.1646 C   0  0  0  0  0  0  0  0  0  0  0  0
  -18.5523  -37.9038   16.3341 C   0  0  0  0  0  0  0  0  0  0  0  0
  -22.2603  -37.9557   17.1411 C   0  0  0  0  0  0  0  0  0  0  0  0
  -23.1058  -37.8404   18.1743 N   0  0  0  0  0  0  0  0  0  0  0  0
  -22.7164  -38.1921   15.9014 N   0  0  0  0  0  0  0  0  0  0  0  0
  -21.8772  -38.3123   14.8481 C   0  0  0  0  0  0  0  0  0  0  0  0
  -20.5281  -38.2244   14.9606 N   0  0  0  0  0  0  0  0  0  0  0  0
  -22.7573  -37.6669   19.0786 H   0  0  0  0  0  0  0  0  0  0  0  0
  -24.0755  -37.9291   18.0291 H   0  0  0  0  0  0  0  0  0  0  0  0
  -13.2471  -38.4266   15.8057 S   0  0  0  0  0  0  0  0  0  0  0  0
  -13.2178  -37.3894   14.8342 O   0  0  0  0  0  0  0  0  0  0  0  0
  -11.9761  -38.6730   16.3650 O   0  0  0  0  0  0  0  0  0  0  0  0
  -12.1737  -39.6404   13.5169 O   0  0  0  0  0  0  0  0  0  0  0  0
  -13.1541  -40.2134   13.9718 C   0  0  0  0  0  0  0  0  0  0  0  0
  -13.7880  -39.7369   15.0396 N   0  0  0  0  0  0  0  0  0  0  0  0
  -14.5984  -40.1908   15.3661 H   0  0  0  0  0  0  0  0  0  0  0  0
  -13.7051  -41.4665   13.3436 C   0  0  0  0  0  0  0  0  0  0  0  0
  -14.1949  -42.3619   14.3750 N   0  0  0  0  0  0  0  0  0  0  0  0
  -14.9462  -41.9057   14.8926 H   0  0  0  0  0  0  0  0  0  0  0  0
  -13.4340  -42.5935   15.0136 H   0  0  0  0  0  0  0  0  0  0  0  0
  -14.8722  -41.1384   12.3956 C   0  0  0  0  0  0  0  0  0  0  0  0
  -16.1518  -41.9304   12.7524 C   0  0  0  0  0  0  0  0  0  0  0  0
  -15.1103  -39.7091   12.4305 O   0  0  0  0  0  0  0  0  0  0  0  0
  -15.3510  -39.4433   13.3318 H   0  0  0  0  0  0  0  0  0  0  0  0
 14 13  1  0  0  0
  9  8  2  0  0  0
  9 10  1  0  0  0
 13 10  2  0  0  0
 13 15  1  0  0  0
 22 20  2  0  0  0
  8  7  1  0  0  0
 10 11  1  0  0  0
 15 16  2  0  0  0
 23 24  2  0  0  0
 28 27  1  0  0  0
 20 21  2  0  0  0
 20 25  1  0  0  0
 20  1  1  0  0  0
 24 25  1  0  0  0
 24 27  1  0  0  0
  6  1  2  0  0  0
  6  5  1  0  0  0
  7  5  1  0  0  0
  7 12  2  0  0  0
 27 31  1  0  0  0
 11 12  1  0  0  0
 11 17  2  0  0  0
 16 17  1  0  0  0
  1  2  1  0  0  0
  5  4  2  0  0  0
 31 33  1  0  0  0
 31 32  1  0  0  0
  2  3  2  0  0  0
  4  3  1  0  0  0
 33 34  1  0  0  0
 28 29  1  0  0  0
 28 30  1  0  0  0
 25 26  1  0  0  0
 14 18  1  0  0  0
 14 19  1  0  0  0
M  END
> <minimizedAffinity>
-10.30738

$$$$
