1GYX_BEZ_A_1077


 10 10  0  0  0  0  0  0  0  0999 V2000
   11.9452    3.7247   24.1189 C   0  0  0  0  0  0  0  0  0  0  0  0
   11.9929    2.5129   23.4300 C   0  0  0  0  0  0  0  0  0  0  0  0
   12.6426    1.4042   23.9719 C   0  0  0  0  0  0  0  0  0  0  0  0
   13.2308    1.5295   25.2150 C   0  0  0  0  0  0  0  0  0  0  0  0
   13.1702    2.7153   25.9049 C   0  0  0  0  0  0  0  0  0  0  0  0
   12.5297    3.8331   25.3870 C   0  0  0  0  0  0  0  0  0  0  0  0
   11.2456    4.9108   23.5793 C   0  0  0  0  0  0  0  0  0  0  0  0
   10.8363    4.9131   22.4320 O   0  0  0  0  0  0  0  0  0  0  0  0
   11.0072    5.9641   24.3421 O   0  0  0  0  0  0  0  0  0  0  0  0
   11.3141    5.9806   25.2272 H   0  0  0  0  0  0  0  0  0  0  0  0
  7  8  2  0  0  0
  7  9  1  0  0  0
  7  1  1  0  0  0
  1  2  2  0  0  0
  1  6  1  0  0  0
  2  3  1  0  0  0
  3  4  2  0  0  0
  4  5  1  0  0  0
  5  6  2  0  0  0
  9 10  1  0  0  0
M  END
> <minimizedAffinity>
-6.18862

$$$$
1GYX_BEZ_A_1077


 10 10  0  0  0  0  0  0  0  0999 V2000
   11.9243    3.7298   24.1645 C   0  0  0  0  0  0  0  0  0  0  0  0
   12.5551    3.7578   25.4081 C   0  0  0  0  0  0  0  0  0  0  0  0
   13.2016    2.6290   25.9108 C   0  0  0  0  0  0  0  0  0  0  0  0
   13.2131    1.4814   25.1427 C   0  0  0  0  0  0  0  0  0  0  0  0
   12.6093    1.4549   23.9096 C   0  0  0  0  0  0  0  0  0  0  0  0
   11.9593    2.5651   23.3874 C   0  0  0  0  0  0  0  0  0  0  0  0
   11.2495    4.9168   23.5964 C   0  0  0  0  0  0  0  0  0  0  0  0
   10.8437    4.9015   22.4478 O   0  0  0  0  0  0  0  0  0  0  0  0
   11.0292    5.9912   24.3347 O   0  0  0  0  0  0  0  0  0  0  0  0
   11.3337    6.0216   25.2203 H   0  0  0  0  0  0  0  0  0  0  0  0
  7  8  2  0  0  0
  7  9  1  0  0  0
  7  1  1  0  0  0
  1  2  2  0  0  0
  1  6  1  0  0  0
  2  3  1  0  0  0
  3  4  2  0  0  0
  4  5  1  0  0  0
  5  6  2  0  0  0
  9 10  1  0  0  0
M  END
> <minimizedAffinity>
-6.18048

$$$$
1GYX_BEZ_A_1077


 10 10  0  0  0  0  0  0  0  0999 V2000
   12.4776    2.8925   24.1880 C   0  0  0  0  0  0  0  0  0  0  0  0
   12.8067    3.4545   25.4213 C   0  0  0  0  0  0  0  0  0  0  0  0
   12.3538    4.7251   25.7751 C   0  0  0  0  0  0  0  0  0  0  0  0
   11.5603    5.4133   24.8786 C   0  0  0  0  0  0  0  0  0  0  0  0
   11.2184    4.8563   23.6709 C   0  0  0  0  0  0  0  0  0  0  0  0
   11.6567    3.5935   23.2955 C   0  0  0  0  0  0  0  0  0  0  0  0
   12.9253    1.5392   23.7940 C   0  0  0  0  0  0  0  0  0  0  0  0
   12.5869    0.5667   24.4450 O   0  0  0  0  0  0  0  0  0  0  0  0
   13.6537    1.3545   22.7062 O   0  0  0  0  0  0  0  0  0  0  0  0
   13.9235    2.0903   22.1925 H   0  0  0  0  0  0  0  0  0  0  0  0
  7  8  2  0  0  0
  7  9  1  0  0  0
  7  1  1  0  0  0
  1  2  2  0  0  0
  1  6  1  0  0  0
  2  3  1  0  0  0
  3  4  2  0  0  0
  4  5  1  0  0  0
  5  6  2  0  0  0
  9 10  1  0  0  0
M  END
> <minimizedAffinity>
-5.98485

$$$$
1GYX_BEZ_A_1077


 10 10  0  0  0  0  0  0  0  0999 V2000
   12.1510    3.1738   24.1893 C   0  0  0  0  0  0  0  0  0  0  0  0
   12.6133    3.4422   25.4776 C   0  0  0  0  0  0  0  0  0  0  0  0
   13.2946    2.4722   26.2124 C   0  0  0  0  0  0  0  0  0  0  0  0
   13.5119    1.2389   25.6306 C   0  0  0  0  0  0  0  0  0  0  0  0
   13.0748    0.9765   24.3555 C   0  0  0  0  0  0  0  0  0  0  0  0
   12.3943    1.9249   23.6038 C   0  0  0  0  0  0  0  0  0  0  0  0
   11.4445    4.1888   23.3783 C   0  0  0  0  0  0  0  0  0  0  0  0
   11.4515    5.3590   23.7169 O   0  0  0  0  0  0  0  0  0  0  0  0
   10.8394    3.8563   22.2508 O   0  0  0  0  0  0  0  0  0  0  0  0
   10.8235    2.9613   21.9738 H   0  0  0  0  0  0  0  0  0  0  0  0
  7  8  2  0  0  0
  7  9  1  0  0  0
  7  1  1  0  0  0
  1  2  2  0  0  0
  1  6  1  0  0  0
  2  3  1  0  0  0
  3  4  2  0  0  0
  4  5  1  0  0  0
  5  6  2  0  0  0
  9 10  1  0  0  0
M  END
> <minimizedAffinity>
-5.68880

$$$$
1GYX_BEZ_A_1077


 10 10  0  0  0  0  0  0  0  0999 V2000
   13.5942    1.2492   24.9688 C   0  0  0  0  0  0  0  0  0  0  0  0
   12.8669    0.1422   25.4060 C   0  0  0  0  0  0  0  0  0  0  0  0
   13.1505   -0.4658   26.6286 C   0  0  0  0  0  0  0  0  0  0  0  0
   14.1640    0.0604   27.4050 C   0  0  0  0  0  0  0  0  0  0  0  0
   14.8702    1.1614   26.9870 C   0  0  0  0  0  0  0  0  0  0  0  0
   14.6072    1.7843   25.7743 C   0  0  0  0  0  0  0  0  0  0  0  0
   13.3023    1.9277   23.6875 C   0  0  0  0  0  0  0  0  0  0  0  0
   12.7499    3.0133   23.6794 O   0  0  0  0  0  0  0  0  0  0  0  0
   13.6789    1.3968   22.5366 O   0  0  0  0  0  0  0  0  0  0  0  0
   14.1052    0.5626   22.5227 H   0  0  0  0  0  0  0  0  0  0  0  0
  7  8  2  0  0  0
  7  9  1  0  0  0
  7  1  1  0  0  0
  1  2  2  0  0  0
  1  6  1  0  0  0
  2  3  1  0  0  0
  3  4  2  0  0  0
  4  5  1  0  0  0
  5  6  2  0  0  0
  9 10  1  0  0  0
M  END
> <minimizedAffinity>
-5.66296

$$$$
1GYX_BEZ_A_1077


 10 10  0  0  0  0  0  0  0  0999 V2000
   11.8587    4.7566   24.2794 C   0  0  0  0  0  0  0  0  0  0  0  0
   11.4371    3.9054   23.2581 C   0  0  0  0  0  0  0  0  0  0  0  0
   11.7741    2.5522   23.2663 C   0  0  0  0  0  0  0  0  0  0  0  0
   12.5283    2.0690   24.3173 C   0  0  0  0  0  0  0  0  0  0  0  0
   12.9298    2.8995   25.3345 C   0  0  0  0  0  0  0  0  0  0  0  0
   12.6074    4.2499   25.3491 C   0  0  0  0  0  0  0  0  0  0  0  0
   11.4991    6.1908   24.3087 C   0  0  0  0  0  0  0  0  0  0  0  0
   10.6075    6.5856   25.0390 O   0  0  0  0  0  0  0  0  0  0  0  0
   12.1677    7.0736   23.5864 O   0  0  0  0  0  0  0  0  0  0  0  0
   12.8568    6.7890   23.0189 H   0  0  0  0  0  0  0  0  0  0  0  0
  7  8  2  0  0  0
  7  9  1  0  0  0
  7  1  1  0  0  0
  1  2  2  0  0  0
  1  6  1  0  0  0
  2  3  1  0  0  0
  3  4  2  0  0  0
  4  5  1  0  0  0
  5  6  2  0  0  0
  9 10  1  0  0  0
M  END
> <minimizedAffinity>
-5.59270

$$$$
1GYX_BEZ_A_1077


 10 10  0  0  0  0  0  0  0  0999 V2000
   11.8955    3.9333   24.2932 C   0  0  0  0  0  0  0  0  0  0  0  0
   12.1157    4.8182   25.3486 C   0  0  0  0  0  0  0  0  0  0  0  0
   12.8524    4.4316   26.4678 C   0  0  0  0  0  0  0  0  0  0  0  0
   13.3702    3.1519   26.5040 C   0  0  0  0  0  0  0  0  0  0  0  0
   13.1716    2.2835   25.4590 C   0  0  0  0  0  0  0  0  0  0  0  0
   12.4420    2.6444   24.3342 C   0  0  0  0  0  0  0  0  0  0  0  0
   11.1369    4.3216   23.0845 C   0  0  0  0  0  0  0  0  0  0  0  0
   10.8397    5.4875   22.8942 O   0  0  0  0  0  0  0  0  0  0  0  0
   10.8135    3.4249   22.1683 O   0  0  0  0  0  0  0  0  0  0  0  0
   11.0336    2.5232   22.2970 H   0  0  0  0  0  0  0  0  0  0  0  0
  7  8  2  0  0  0
  7  9  1  0  0  0
  7  1  1  0  0  0
  1  2  2  0  0  0
  1  6  1  0  0  0
  2  3  1  0  0  0
  3  4  2  0  0  0
  4  5  1  0  0  0
  5  6  2  0  0  0
  9 10  1  0  0  0
M  END
> <minimizedAffinity>
-5.44220

$$$$
1GYX_BEZ_A_1077


 10 10  0  0  0  0  0  0  0  0999 V2000
   11.9313    3.7585   24.1432 C   0  0  0  0  0  0  0  0  0  0  0  0
   12.5718    2.5241   24.2503 C   0  0  0  0  0  0  0  0  0  0  0  0
   13.2839    2.1821   25.3996 C   0  0  0  0  0  0  0  0  0  0  0  0
   13.3324    3.0914   26.4378 C   0  0  0  0  0  0  0  0  0  0  0  0
   12.6878    4.3003   26.3440 C   0  0  0  0  0  0  0  0  0  0  0  0
   11.9728    4.6641   25.2108 C   0  0  0  0  0  0  0  0  0  0  0  0
   11.1514    4.1403   22.9461 C   0  0  0  0  0  0  0  0  0  0  0  0
   10.9533    5.3149   22.6911 O   0  0  0  0  0  0  0  0  0  0  0  0
   10.7012    3.2225   22.1075 O   0  0  0  0  0  0  0  0  0  0  0  0
   10.8439    2.3139   22.2867 H   0  0  0  0  0  0  0  0  0  0  0  0
  7  8  2  0  0  0
  7  9  1  0  0  0
  7  1  1  0  0  0
  1  2  2  0  0  0
  1  6  1  0  0  0
  2  3  1  0  0  0
  3  4  2  0  0  0
  4  5  1  0  0  0
  5  6  2  0  0  0
  9 10  1  0  0  0
M  END
> <minimizedAffinity>
-5.41427

$$$$
1GYX_BEZ_A_1077


 10 10  0  0  0  0  0  0  0  0999 V2000
   12.4673    3.8448   24.7510 C   0  0  0  0  0  0  0  0  0  0  0  0
   12.0487    3.0904   23.6551 C   0  0  0  0  0  0  0  0  0  0  0  0
   12.2527    1.7114   23.6126 C   0  0  0  0  0  0  0  0  0  0  0  0
   12.8711    1.1050   24.6882 C   0  0  0  0  0  0  0  0  0  0  0  0
   13.2682    1.8411   25.7773 C   0  0  0  0  0  0  0  0  0  0  0  0
   13.0766    3.2147   25.8435 C   0  0  0  0  0  0  0  0  0  0  0  0
   12.2456    5.3046   24.8336 C   0  0  0  0  0  0  0  0  0  0  0  0
   13.1101    6.0322   25.2890 O   0  0  0  0  0  0  0  0  0  0  0  0
   11.1337    5.8501   24.3708 O   0  0  0  0  0  0  0  0  0  0  0  0
   10.4575    5.3067   24.0168 H   0  0  0  0  0  0  0  0  0  0  0  0
  7  8  2  0  0  0
  7  9  1  0  0  0
  7  1  1  0  0  0
  1  2  2  0  0  0
  1  6  1  0  0  0
  2  3  1  0  0  0
  3  4  2  0  0  0
  4  5  1  0  0  0
  5  6  2  0  0  0
  9 10  1  0  0  0
M  END
> <minimizedAffinity>
-5.17749

$$$$
1GYX_BEZ_A_1077


 10 10  0  0  0  0  0  0  0  0999 V2000
   13.1659    2.4752   24.9018 C   0  0  0  0  0  0  0  0  0  0  0  0
   12.8041    3.7850   25.2166 C   0  0  0  0  0  0  0  0  0  0  0  0
   11.8917    4.4867   24.4292 C   0  0  0  0  0  0  0  0  0  0  0  0
   11.3438    3.8506   23.3328 C   0  0  0  0  0  0  0  0  0  0  0  0
   11.6830    2.5549   23.0298 C   0  0  0  0  0  0  0  0  0  0  0  0
   12.5887    1.8353   23.7977 C   0  0  0  0  0  0  0  0  0  0  0  0
   14.1141    1.6990   25.7297 C   0  0  0  0  0  0  0  0  0  0  0  0
   13.9135    0.5176   25.9488 O   0  0  0  0  0  0  0  0  0  0  0  0
   15.2166    2.2554   26.2020 O   0  0  0  0  0  0  0  0  0  0  0  0
   15.3883    3.1629   26.0437 H   0  0  0  0  0  0  0  0  0  0  0  0
  7  8  2  0  0  0
  7  9  1  0  0  0
  7  1  1  0  0  0
  1  2  2  0  0  0
  1  6  1  0  0  0
  2  3  1  0  0  0
  3  4  2  0  0  0
  4  5  1  0  0  0
  5  6  2  0  0  0
  9 10  1  0  0  0
M  END
> <minimizedAffinity>
-5.17496

$$$$
