1Y20_1AC_A_1001


 10 10  0  0  0  0  0  0  0  0999 V2000
   20.1526   33.2347    8.2036 C   0  0  0  0  0  0  0  0  0  0  0  0
   20.9406   33.4122    6.9347 C   0  0  0  0  0  0  0  0  0  0  0  0
   21.3890   32.4400    7.9993 C   0  0  0  0  0  0  0  0  0  0  0  0
   21.2641   31.0298    7.5574 N   0  0  0  0  0  0  0  0  0  0  0  0
   20.3755   30.9027    7.0730 H   0  0  0  0  0  0  0  0  0  0  0  0
   21.2993   30.4144    8.3701 H   0  0  0  0  0  0  0  0  0  0  0  0
   22.6746   32.7390    8.7311 C   0  0  0  0  0  0  0  0  0  0  0  0
   22.9370   33.9513    8.9696 O   0  0  0  0  0  0  0  0  0  0  0  0
   23.3008   31.7524    9.1554 O   0  0  0  0  0  0  0  0  0  0  0  0
   22.4029   34.6275    8.6015 H   0  0  0  0  0  0  0  0  0  0  0  0
  1  2  1  0  0  0
  1  3  1  0  0  0
  2  3  1  0  0  0
  3  7  1  0  0  0
  3  4  1  0  0  0
  7  8  1  0  0  0
  7  9  2  0  0  0
  8 10  1  0  0  0
  4  5  1  0  0  0
  4  6  1  0  0  0
M  END
> <minimizedAffinity>
-4.99416

$$$$
1Y20_1AC_A_1001


 10 10  0  0  0  0  0  0  0  0999 V2000
   20.7846   33.6025    6.9412 C   0  0  0  0  0  0  0  0  0  0  0  0
   20.1169   33.5126    8.2861 C   0  0  0  0  0  0  0  0  0  0  0  0
   21.5810   33.1831    8.1210 C   0  0  0  0  0  0  0  0  0  0  0  0
   22.4570   34.1818    8.7803 N   0  0  0  0  0  0  0  0  0  0  0  0
   22.1067   35.1204    8.5888 H   0  0  0  0  0  0  0  0  0  0  0  0
   23.4065   34.0929    8.4184 H   0  0  0  0  0  0  0  0  0  0  0  0
   22.0113   31.7534    8.3414 C   0  0  0  0  0  0  0  0  0  0  0  0
   21.4598   30.8663    7.6311 O   0  0  0  0  0  0  0  0  0  0  0  0
   22.9721   31.5875    9.1127 O   0  0  0  0  0  0  0  0  0  0  0  0
   20.7374   31.0910    7.0783 H   0  0  0  0  0  0  0  0  0  0  0  0
  1  2  1  0  0  0
  1  3  1  0  0  0
  2  3  1  0  0  0
  3  7  1  0  0  0
  3  4  1  0  0  0
  7  8  1  0  0  0
  7  9  2  0  0  0
  8 10  1  0  0  0
  4  5  1  0  0  0
  4  6  1  0  0  0
M  END
> <minimizedAffinity>
-4.51764

$$$$
1Y20_1AC_A_1001


 10 10  0  0  0  0  0  0  0  0999 V2000
   20.9788   34.4037    8.2681 C   0  0  0  0  0  0  0  0  0  0  0  0
   20.7094   33.9276    6.8669 C   0  0  0  0  0  0  0  0  0  0  0  0
   20.7404   32.9593    8.0249 C   0  0  0  0  0  0  0  0  0  0  0  0
   19.3997   32.3991    8.3217 N   0  0  0  0  0  0  0  0  0  0  0  0
   18.7034   33.1432    8.2799 H   0  0  0  0  0  0  0  0  0  0  0  0
   19.4021   31.9878    9.2551 H   0  0  0  0  0  0  0  0  0  0  0  0
   21.8507   31.9376    8.0604 C   0  0  0  0  0  0  0  0  0  0  0  0
   21.5648   30.7588    7.7083 O   0  0  0  0  0  0  0  0  0  0  0  0
   22.9871   32.3780    8.3063 O   0  0  0  0  0  0  0  0  0  0  0  0
   20.6731   30.5219    7.5448 H   0  0  0  0  0  0  0  0  0  0  0  0
  1  2  1  0  0  0
  1  3  1  0  0  0
  2  3  1  0  0  0
  3  7  1  0  0  0
  3  4  1  0  0  0
  7  8  1  0  0  0
  7  9  2  0  0  0
  8 10  1  0  0  0
  4  5  1  0  0  0
  4  6  1  0  0  0
M  END
> <minimizedAffinity>
-4.39454

$$$$
1Y20_1AC_A_1001


 10 10  0  0  0  0  0  0  0  0999 V2000
   21.4213   33.7535    8.4820 C   0  0  0  0  0  0  0  0  0  0  0  0
   20.0670   33.1281    8.2888 C   0  0  0  0  0  0  0  0  0  0  0  0
   21.0001   33.3393    7.1207 C   0  0  0  0  0  0  0  0  0  0  0  0
   21.5126   32.0589    6.5755 N   0  0  0  0  0  0  0  0  0  0  0  0
   21.7685   31.4399    7.3448 H   0  0  0  0  0  0  0  0  0  0  0  0
   22.3332   32.2397    5.9973 H   0  0  0  0  0  0  0  0  0  0  0  0
   20.5905   34.3336    6.0617 C   0  0  0  0  0  0  0  0  0  0  0  0
   19.6687   33.9896    5.2695 O   0  0  0  0  0  0  0  0  0  0  0  0
   21.1063   35.4616    6.1464 O   0  0  0  0  0  0  0  0  0  0  0  0
   19.3445   33.1106    5.2815 H   0  0  0  0  0  0  0  0  0  0  0  0
  1  2  1  0  0  0
  1  3  1  0  0  0
  2  3  1  0  0  0
  3  7  1  0  0  0
  3  4  1  0  0  0
  7  8  1  0  0  0
  7  9  2  0  0  0
  8 10  1  0  0  0
  4  5  1  0  0  0
  4  6  1  0  0  0
M  END
> <minimizedAffinity>
-4.15933

$$$$
1Y20_1AC_A_1001


 10 10  0  0  0  0  0  0  0  0999 V2000
   20.2187   32.3404    8.3639 C   0  0  0  0  0  0  0  0  0  0  0  0
   21.4381   31.9642    7.5675 C   0  0  0  0  0  0  0  0  0  0  0  0
   21.0499   33.4106    7.7590 C   0  0  0  0  0  0  0  0  0  0  0  0
   22.0119   34.1385    8.6218 N   0  0  0  0  0  0  0  0  0  0  0  0
   22.2635   33.5539    9.4189 H   0  0  0  0  0  0  0  0  0  0  0  0
   21.5836   35.0021    8.9552 H   0  0  0  0  0  0  0  0  0  0  0  0
   20.6093   34.1894    6.5436 C   0  0  0  0  0  0  0  0  0  0  0  0
   19.6460   33.7216    5.8737 O   0  0  0  0  0  0  0  0  0  0  0  0
   21.1482   35.2982    6.3836 O   0  0  0  0  0  0  0  0  0  0  0  0
   19.3073   32.8707    6.0715 H   0  0  0  0  0  0  0  0  0  0  0  0
  1  2  1  0  0  0
  1  3  1  0  0  0
  2  3  1  0  0  0
  3  7  1  0  0  0
  3  4  1  0  0  0
  7  8  1  0  0  0
  7  9  2  0  0  0
  8 10  1  0  0  0
  4  5  1  0  0  0
  4  6  1  0  0  0
M  END
> <minimizedAffinity>
-3.76052

$$$$
1Y20_1AC_A_1001


 10 10  0  0  0  0  0  0  0  0999 V2000
   23.2328   32.5716    8.1907 C   0  0  0  0  0  0  0  0  0  0  0  0
   22.5010   32.0534    9.3984 C   0  0  0  0  0  0  0  0  0  0  0  0
   21.7983   32.2108    8.0713 C   0  0  0  0  0  0  0  0  0  0  0  0
   21.4406   30.9035    7.4692 N   0  0  0  0  0  0  0  0  0  0  0  0
   22.2212   30.2556    7.5747 H   0  0  0  0  0  0  0  0  0  0  0  0
   21.2356   31.0304    6.4781 H   0  0  0  0  0  0  0  0  0  0  0  0
   20.7075   33.2489    7.9697 C   0  0  0  0  0  0  0  0  0  0  0  0
   21.0314   34.3888    7.5326 O   0  0  0  0  0  0  0  0  0  0  0  0
   19.5531   32.8489    8.2000 O   0  0  0  0  0  0  0  0  0  0  0  0
   21.9339   34.5970    7.3904 H   0  0  0  0  0  0  0  0  0  0  0  0
  1  2  1  0  0  0
  1  3  1  0  0  0
  2  3  1  0  0  0
  3  7  1  0  0  0
  3  4  1  0  0  0
  7  8  1  0  0  0
  7  9  2  0  0  0
  8 10  1  0  0  0
  4  5  1  0  0  0
  4  6  1  0  0  0
M  END
> <minimizedAffinity>
-2.53682

$$$$
1Y20_1AC_A_1001


 10 10  0  0  0  0  0  0  0  0999 V2000
   21.7348   32.0979    7.6886 C   0  0  0  0  0  0  0  0  0  0  0  0
   21.7959   33.3169    8.5679 C   0  0  0  0  0  0  0  0  0  0  0  0
   20.6251   33.0821    7.6439 C   0  0  0  0  0  0  0  0  0  0  0  0
   19.3772   32.7825    8.3872 N   0  0  0  0  0  0  0  0  0  0  0  0
   19.5819   32.1348    9.1481 H   0  0  0  0  0  0  0  0  0  0  0  0
   18.6977   32.3601    7.7545 H   0  0  0  0  0  0  0  0  0  0  0  0
   20.4347   34.0366    6.4903 C   0  0  0  0  0  0  0  0  0  0  0  0
   21.2907   34.9548    6.3507 O   0  0  0  0  0  0  0  0  0  0  0  0
   19.5218   33.7533    5.6954 O   0  0  0  0  0  0  0  0  0  0  0  0
   21.9434   35.0910    7.0091 H   0  0  0  0  0  0  0  0  0  0  0  0
  1  2  1  0  0  0
  1  3  1  0  0  0
  2  3  1  0  0  0
  3  7  1  0  0  0
  3  4  1  0  0  0
  7  8  1  0  0  0
  7  9  2  0  0  0
  8 10  1  0  0  0
  4  5  1  0  0  0
  4  6  1  0  0  0
M  END
> <minimizedAffinity>
-2.37112

$$$$
1Y20_1AC_A_1001


 10 10  0  0  0  0  0  0  0  0999 V2000
   20.7061   34.2576    8.7368 C   0  0  0  0  0  0  0  0  0  0  0  0
   22.0884   33.8102    8.3472 C   0  0  0  0  0  0  0  0  0  0  0  0
   20.8657   33.2319    7.6764 C   0  0  0  0  0  0  0  0  0  0  0  0
   20.7549   33.6509    6.2580 N   0  0  0  0  0  0  0  0  0  0  0  0
   20.9757   34.6435    6.1785 H   0  0  0  0  0  0  0  0  0  0  0  0
   19.8038   33.4866    5.9282 H   0  0  0  0  0  0  0  0  0  0  0  0
   20.5581   31.7726    7.9079 C   0  0  0  0  0  0  0  0  0  0  0  0
   21.4761   30.9408    7.6615 O   0  0  0  0  0  0  0  0  0  0  0  0
   19.4670   31.5264    8.4507 O   0  0  0  0  0  0  0  0  0  0  0  0
   22.2668   31.2249    7.2467 H   0  0  0  0  0  0  0  0  0  0  0  0
  1  2  1  0  0  0
  1  3  1  0  0  0
  2  3  1  0  0  0
  3  7  1  0  0  0
  3  4  1  0  0  0
  7  8  1  0  0  0
  7  9  2  0  0  0
  8 10  1  0  0  0
  4  5  1  0  0  0
  4  6  1  0  0  0
M  END
> <minimizedAffinity>
-2.11804

$$$$
