6FNI_DXH_A_1001


 39 43  0  0  0  0  0  0  0  0999 V2000
   20.8612   95.8946    3.7211 C   0  0  0  0  0  0  0  0  0  0  0  0
   20.0257   95.0930    2.7297 C   0  0  0  0  0  0  0  0  0  0  0  0
   18.6318   95.2325    2.7304 C   0  0  0  0  0  0  0  0  0  0  0  0
   17.8634   94.5173    1.8384 C   0  0  0  0  0  0  0  0  0  0  0  0
   18.4697   93.6442    0.9586 C   0  0  0  0  0  0  0  0  0  0  0  0
   19.8554   93.5098    0.9348 C   0  0  0  0  0  0  0  0  0  0  0  0
   20.6301   94.2403    1.8395 C   0  0  0  0  0  0  0  0  0  0  0  0
   17.5651   92.8819   -0.0456 C   0  0  0  0  0  0  0  0  0  0  0  0
   16.4077   92.8026    0.1483 O   0  0  0  0  0  0  0  0  0  0  0  0
   18.2277   92.3375   -1.2588 N   0  0  0  0  0  0  0  0  0  0  0  0
   19.2035   92.4423   -1.3374 H   0  0  0  0  0  0  0  0  0  0  0  0
   17.5291   91.6620   -2.3340 C   0  0  0  0  0  0  0  0  0  0  0  0
   18.0885   90.5390   -2.9279 C   0  0  0  0  0  0  0  0  0  0  0  0
   17.4243   89.9273   -3.9834 C   0  0  0  0  0  0  0  0  0  0  0  0
   16.2327   90.4390   -4.4456 C   0  0  0  0  0  0  0  0  0  0  0  0
   15.7031   91.5596   -3.8724 C   0  0  0  0  0  0  0  0  0  0  0  0
   16.3790   92.1873   -2.7985 C   0  0  0  0  0  0  0  0  0  0  0  0
   14.3855   92.1376   -4.3632 C   0  0  0  0  0  0  0  0  0  0  0  0
   14.5486   93.4670   -4.5722 F   0  0  0  0  0  0  0  0  0  0  0  0
   13.4165   91.9302   -3.4217 F   0  0  0  0  0  0  0  0  0  0  0  0
   14.0359   91.5000   -5.4953 F   0  0  0  0  0  0  0  0  0  0  0  0
   17.9550   96.1549    3.6686 N   0  0  0  0  0  0  0  0  0  0  0  0
   17.7050   97.0565    3.3622 H   0  0  0  0  0  0  0  0  0  0  0  0
   17.6458   95.7498    5.0592 C   0  0  0  0  0  0  0  0  0  0  0  0
   18.1663   94.6576    5.5726 N   0  0  0  0  0  0  0  0  0  0  0  0
   17.9026   94.2719    6.8178 C   0  0  0  0  0  0  0  0  0  0  0  0
   17.1047   94.9796    7.6201 N   0  0  0  0  0  0  0  0  0  0  0  0
   16.5203   96.1295    7.1785 C   0  0  0  0  0  0  0  0  0  0  0  0
   16.7721   96.5386    5.8969 C   0  0  0  0  0  0  0  0  0  0  0  0
   16.0427   97.7408    5.7212 C   0  0  0  0  0  0  0  0  0  0  0  0
   15.4001   98.0040    6.8566 N   0  0  0  0  0  0  0  0  0  0  0  0
   15.6796   97.0463    7.7296 N   0  0  0  0  0  0  0  0  0  0  0  0
   15.1484   97.0079    9.0726 C   0  0  0  0  0  0  0  0  0  0  0  0
   18.5803   92.9658    7.3165 C   0  0  0  0  0  0  0  0  0  0  0  0
   18.9280   91.9688    6.3826 C   0  0  0  0  0  0  0  0  0  0  0  0
   19.5105   90.8559    6.7651 N   0  0  0  0  0  0  0  0  0  0  0  0
   19.7875   90.6419    8.0381 C   0  0  0  0  0  0  0  0  0  0  0  0
   19.4724   91.5951    9.0371 C   0  0  0  0  0  0  0  0  0  0  0  0
   18.8605   92.7794    8.6678 C   0  0  0  0  0  0  0  0  0  0  0  0
 31 30  2  0  0  0
 31 32  1  0  0  0
 33 32  1  0  0  0
 30 29  1  0  0  0
 32 28  1  0  0  0
 29 28  2  0  0  0
 29 24  1  0  0  0
 28 27  1  0  0  0
 24 22  1  0  0  0
 24 25  2  0  0  0
 22  3  1  0  0  0
 27 26  2  0  0  0
  1  2  1  0  0  0
 25 26  1  0  0  0
 26 34  1  0  0  0
  3  2  2  0  0  0
  3  4  1  0  0  0
  2  7  1  0  0  0
  4  5  2  0  0  0
 34 39  2  0  0  0
 34 35  1  0  0  0
 39 38  1  0  0  0
  7  6  2  0  0  0
  5  6  1  0  0  0
  5  8  1  0  0  0
 35 36  2  0  0  0
 38 37  2  0  0  0
  9  8  2  0  0  0
  8 10  1  0  0  0
 21 18  1  0  0  0
 36 37  1  0  0  0
 10 12  1  0  0  0
 17 12  2  0  0  0
 17 16  1  0  0  0
 18 19  1  0  0  0
 18 20  1  0  0  0
 18 16  1  0  0  0
 12 13  1  0  0  0
 16 15  2  0  0  0
 13 14  2  0  0  0
 15 14  1  0  0  0
 10 11  1  0  0  0
 22 23  1  0  0  0
M  END
> <minimizedAffinity>
-15.02272

$$$$
6FNI_DXH_A_1001


 39 43  0  0  0  0  0  0  0  0999 V2000
   20.6809   96.0276    3.7777 C   0  0  0  0  0  0  0  0  0  0  0  0
   19.9143   95.1923    2.7588 C   0  0  0  0  0  0  0  0  0  0  0  0
   18.5163   95.2690    2.7151 C   0  0  0  0  0  0  0  0  0  0  0  0
   17.8097   94.5227    1.7978 C   0  0  0  0  0  0  0  0  0  0  0  0
   18.4823   93.6803    0.9365 C   0  0  0  0  0  0  0  0  0  0  0  0
   19.8727   93.6083    0.9569 C   0  0  0  0  0  0  0  0  0  0  0  0
   20.5846   94.3702    1.8870 C   0  0  0  0  0  0  0  0  0  0  0  0
   17.6455   92.8812   -0.0974 C   0  0  0  0  0  0  0  0  0  0  0  0
   16.4778   92.8061    0.0230 O   0  0  0  0  0  0  0  0  0  0  0  0
   18.3861   92.2962   -1.2448 N   0  0  0  0  0  0  0  0  0  0  0  0
   19.3649   92.4004   -1.2630 H   0  0  0  0  0  0  0  0  0  0  0  0
   17.7594   91.5818   -2.3390 C   0  0  0  0  0  0  0  0  0  0  0  0
   16.5273   91.9976   -2.8245 C   0  0  0  0  0  0  0  0  0  0  0  0
   15.9225   91.2778   -3.8470 C   0  0  0  0  0  0  0  0  0  0  0  0
   16.5312   90.1553   -4.3618 C   0  0  0  0  0  0  0  0  0  0  0  0
   17.7308   89.7385   -3.8599 C   0  0  0  0  0  0  0  0  0  0  0  0
   18.3484   90.4681   -2.8156 C   0  0  0  0  0  0  0  0  0  0  0  0
   18.4230   88.5054   -4.4179 C   0  0  0  0  0  0  0  0  0  0  0  0
   19.5589   88.2906   -3.7100 F   0  0  0  0  0  0  0  0  0  0  0  0
   18.7271   88.7087   -5.7350 F   0  0  0  0  0  0  0  0  0  0  0  0
   17.5781   87.4626   -4.3223 F   0  0  0  0  0  0  0  0  0  0  0  0
   17.7691   96.1573    3.6325 N   0  0  0  0  0  0  0  0  0  0  0  0
   17.4243   97.0165    3.2975 H   0  0  0  0  0  0  0  0  0  0  0  0
   17.5291   95.7805    5.0446 C   0  0  0  0  0  0  0  0  0  0  0  0
   18.0733   94.6977    5.5531 N   0  0  0  0  0  0  0  0  0  0  0  0
   17.8716   94.3374    6.8174 C   0  0  0  0  0  0  0  0  0  0  0  0
   17.1154   95.0626    7.6442 N   0  0  0  0  0  0  0  0  0  0  0  0
   16.5110   96.2046    7.2093 C   0  0  0  0  0  0  0  0  0  0  0  0
   16.6991   96.5877    5.9089 C   0  0  0  0  0  0  0  0  0  0  0  0
   15.9632   97.7877    5.7457 C   0  0  0  0  0  0  0  0  0  0  0  0
   15.3782   98.0748    6.9062 N   0  0  0  0  0  0  0  0  0  0  0  0
   15.6998   97.1340    7.7831 N   0  0  0  0  0  0  0  0  0  0  0  0
   15.2361   97.1234    9.1515 C   0  0  0  0  0  0  0  0  0  0  0  0
   18.5718   93.0400    7.3078 C   0  0  0  0  0  0  0  0  0  0  0  0
   18.9894   92.0816    6.3621 C   0  0  0  0  0  0  0  0  0  0  0  0
   19.5928   90.9776    6.7377 N   0  0  0  0  0  0  0  0  0  0  0  0
   19.8258   90.7365    8.0146 C   0  0  0  0  0  0  0  0  0  0  0  0
   19.4396   91.6503    9.0254 C   0  0  0  0  0  0  0  0  0  0  0  0
   18.8039   92.8244    8.6638 C   0  0  0  0  0  0  0  0  0  0  0  0
 31 30  2  0  0  0
 31 32  1  0  0  0
 33 32  1  0  0  0
 30 29  1  0  0  0
 32 28  1  0  0  0
 29 28  2  0  0  0
 29 24  1  0  0  0
 28 27  1  0  0  0
 24 22  1  0  0  0
 24 25  2  0  0  0
 22  3  1  0  0  0
 27 26  2  0  0  0
  1  2  1  0  0  0
 25 26  1  0  0  0
 26 34  1  0  0  0
  3  2  2  0  0  0
  3  4  1  0  0  0
  2  7  1  0  0  0
  4  5  2  0  0  0
 34 39  2  0  0  0
 34 35  1  0  0  0
 39 38  1  0  0  0
  7  6  2  0  0  0
  5  6  1  0  0  0
  5  8  1  0  0  0
 35 36  2  0  0  0
 38 37  2  0  0  0
  9  8  2  0  0  0
  8 10  1  0  0  0
 21 18  1  0  0  0
 36 37  1  0  0  0
 10 12  1  0  0  0
 17 12  2  0  0  0
 17 16  1  0  0  0
 18 19  1  0  0  0
 18 20  1  0  0  0
 18 16  1  0  0  0
 12 13  1  0  0  0
 16 15  2  0  0  0
 13 14  2  0  0  0
 15 14  1  0  0  0
 10 11  1  0  0  0
 22 23  1  0  0  0
M  END
> <minimizedAffinity>
-13.83749

$$$$
6FNI_DXH_A_1001


 39 43  0  0  0  0  0  0  0  0999 V2000
   21.2641   95.8400    3.3512 C   0  0  0  0  0  0  0  0  0  0  0  0
   20.3612   95.0447    2.4154 C   0  0  0  0  0  0  0  0  0  0  0  0
   18.9847   94.9863    2.6687 C   0  0  0  0  0  0  0  0  0  0  0  0
   18.1554   94.2744    1.8303 C   0  0  0  0  0  0  0  0  0  0  0  0
   18.6883   93.5985    0.7519 C   0  0  0  0  0  0  0  0  0  0  0  0
   20.0520   93.6633    0.4780 C   0  0  0  0  0  0  0  0  0  0  0  0
   20.8880   94.3898    1.3297 C   0  0  0  0  0  0  0  0  0  0  0  0
   17.7111   92.8336   -0.1796 C   0  0  0  0  0  0  0  0  0  0  0  0
   16.5691   92.7660    0.0941 O   0  0  0  0  0  0  0  0  0  0  0  0
   18.2845   92.2712   -1.4295 N   0  0  0  0  0  0  0  0  0  0  0  0
   19.2533   92.3669   -1.5760 H   0  0  0  0  0  0  0  0  0  0  0  0
   17.5085   91.5906   -2.4468 C   0  0  0  0  0  0  0  0  0  0  0  0
   18.0432   90.4955   -3.1113 C   0  0  0  0  0  0  0  0  0  0  0  0
   17.3014   89.8795   -4.1111 C   0  0  0  0  0  0  0  0  0  0  0  0
   16.0565   90.3600   -4.4499 C   0  0  0  0  0  0  0  0  0  0  0  0
   15.5495   91.4540   -3.8089 C   0  0  0  0  0  0  0  0  0  0  0  0
   16.3043   92.0861   -2.7916 C   0  0  0  0  0  0  0  0  0  0  0  0
   14.1745   91.9972   -4.1632 C   0  0  0  0  0  0  0  0  0  0  0  0
   13.2547   91.3928   -3.3718 F   0  0  0  0  0  0  0  0  0  0  0  0
   13.9034   91.7333   -5.4767 F   0  0  0  0  0  0  0  0  0  0  0  0
   14.1828   93.3301   -3.9798 F   0  0  0  0  0  0  0  0  0  0  0  0
   18.3878   95.6943    3.8227 N   0  0  0  0  0  0  0  0  0  0  0  0
   18.1184   96.6361    3.7238 H   0  0  0  0  0  0  0  0  0  0  0  0
   18.1872   95.0153    5.1236 C   0  0  0  0  0  0  0  0  0  0  0  0
   17.4456   95.5629    6.0603 N   0  0  0  0  0  0  0  0  0  0  0  0
   17.2519   94.9739    7.2369 C   0  0  0  0  0  0  0  0  0  0  0  0
   17.7895   93.7873    7.5274 N   0  0  0  0  0  0  0  0  0  0  0  0
   18.5717   93.1390    6.6183 C   0  0  0  0  0  0  0  0  0  0  0  0
   18.7904   93.7330    5.4047 C   0  0  0  0  0  0  0  0  0  0  0  0
   19.6248   92.8451    4.6810 C   0  0  0  0  0  0  0  0  0  0  0  0
   19.8726   91.7894    5.4526 N   0  0  0  0  0  0  0  0  0  0  0  0
   19.2485   91.9588    6.6099 N   0  0  0  0  0  0  0  0  0  0  0  0
   19.3000   91.0050    7.6939 C   0  0  0  0  0  0  0  0  0  0  0  0
   16.3513   95.7147    8.2636 C   0  0  0  0  0  0  0  0  0  0  0  0
   16.2061   95.1856    9.5621 C   0  0  0  0  0  0  0  0  0  0  0  0
   15.4612   95.7885   10.4597 N   0  0  0  0  0  0  0  0  0  0  0  0
   14.8279   96.9097   10.1687 C   0  0  0  0  0  0  0  0  0  0  0  0
   14.9246   97.5062    8.8878 C   0  0  0  0  0  0  0  0  0  0  0  0
   15.7032   96.8982    7.9196 C   0  0  0  0  0  0  0  0  0  0  0  0
 31 30  2  0  0  0
 31 32  1  0  0  0
 33 32  1  0  0  0
 30 29  1  0  0  0
 32 28  1  0  0  0
 29 28  2  0  0  0
 29 24  1  0  0  0
 28 27  1  0  0  0
 24 22  1  0  0  0
 24 25  2  0  0  0
 22  3  1  0  0  0
 27 26  2  0  0  0
  1  2  1  0  0  0
 25 26  1  0  0  0
 26 34  1  0  0  0
  3  2  2  0  0  0
  3  4  1  0  0  0
  2  7  1  0  0  0
  4  5  2  0  0  0
 34 39  2  0  0  0
 34 35  1  0  0  0
 39 38  1  0  0  0
  7  6  2  0  0  0
  5  6  1  0  0  0
  5  8  1  0  0  0
 35 36  2  0  0  0
 38 37  2  0  0  0
  9  8  2  0  0  0
  8 10  1  0  0  0
 21 18  1  0  0  0
 36 37  1  0  0  0
 10 12  1  0  0  0
 17 12  2  0  0  0
 17 16  1  0  0  0
 18 19  1  0  0  0
 18 20  1  0  0  0
 18 16  1  0  0  0
 12 13  1  0  0  0
 16 15  2  0  0  0
 13 14  2  0  0  0
 15 14  1  0  0  0
 10 11  1  0  0  0
 22 23  1  0  0  0
M  END
> <minimizedAffinity>
-13.31173

$$$$
