4DCS_GDP_A_501


 36 38  0  0  0  0  0  0  0  0999 V2000
  -18.6847  -10.0057  -36.5041 C   0  0  0  0  0  0  0  0  0  0  0  0
  -18.2777  -11.0563  -37.3924 O   0  0  0  0  0  0  0  0  0  0  0  0
  -19.7465  -10.5951  -35.5830 C   0  0  0  0  0  0  0  0  0  0  0  0
  -21.0348  -10.2444  -36.0797 O   0  0  0  0  0  0  0  0  0  0  0  0
  -19.5953  -12.0945  -35.7392 C   0  0  0  0  0  0  0  0  0  0  0  0
  -20.8335  -12.7804  -35.5452 O   0  0  0  0  0  0  0  0  0  0  0  0
  -19.0821  -12.2279  -37.1668 C   0  0  0  0  0  0  0  0  0  0  0  0
  -21.1242  -10.5551  -36.9942 H   0  0  0  0  0  0  0  0  0  0  0  0
  -21.4927  -12.4410  -36.1706 H   0  0  0  0  0  0  0  0  0  0  0  0
  -18.3161  -13.4875  -37.2968 N   0  0  0  0  0  0  0  0  0  0  0  0
  -17.2960  -13.8773  -36.5060 C   0  0  0  0  0  0  0  0  0  0  0  0
  -16.8230  -15.0889  -36.8928 N   0  0  0  0  0  0  0  0  0  0  0  0
  -17.5402  -15.4927  -37.9562 C   0  0  0  0  0  0  0  0  0  0  0  0
  -17.5522  -16.6711  -38.8536 C   0  0  0  0  0  0  0  0  0  0  0  0
  -16.7522  -17.6161  -38.7058 O   0  0  0  0  0  0  0  0  0  0  0  0
  -18.4681  -16.7015  -39.8320 N   0  0  0  0  0  0  0  0  0  0  0  0
  -19.3551  -15.7058  -40.0405 C   0  0  0  0  0  0  0  0  0  0  0  0
  -20.2322  -15.8251  -41.0738 N   0  0  0  0  0  0  0  0  0  0  0  0
  -19.3828  -14.5888  -39.2598 N   0  0  0  0  0  0  0  0  0  0  0  0
  -18.5276  -14.4354  -38.2190 C   0  0  0  0  0  0  0  0  0  0  0  0
  -18.4951  -17.4864  -40.4257 H   0  0  0  0  0  0  0  0  0  0  0  0
  -20.2175  -16.6292  -41.6416 H   0  0  0  0  0  0  0  0  0  0  0  0
  -20.8815  -15.1073  -41.2537 H   0  0  0  0  0  0  0  0  0  0  0  0
  -17.4877   -9.4833  -35.7162 C   0  0  0  0  0  0  0  0  0  0  0  0
  -17.4950  -10.0674  -34.4109 O   0  0  0  0  0  0  0  0  0  0  0  0
  -16.3198   -9.8387  -33.3316 P   0  0  0  0  0  0  0  0  0  0  0  0
  -15.7060  -11.2013  -33.1145 O   0  0  0  0  0  0  0  0  0  0  0  0
  -16.8858   -9.0990  -32.1366 O   0  0  0  0  0  0  0  0  0  0  0  0
  -16.1841   -8.9574  -31.4820 H   0  0  0  0  0  0  0  0  0  0  0  0
  -15.3617   -8.8534  -34.1663 O   0  0  0  0  0  0  0  0  0  0  0  0
  -13.8814   -8.4024  -33.7293 P   0  0  0  0  0  0  0  0  0  0  0  0
  -13.9126   -6.8973  -33.7125 O   0  0  0  0  0  0  0  0  0  0  0  0
  -13.0101   -8.9389  -34.8409 O   0  0  0  0  0  0  0  0  0  0  0  0
  -13.6439   -9.0460  -32.3879 O   0  0  0  0  0  0  0  0  0  0  0  0
  -12.0837   -8.7129  -34.6633 H   0  0  0  0  0  0  0  0  0  0  0  0
  -12.7593   -8.8096  -32.0679 H   0  0  0  0  0  0  0  0  0  0  0  0
 31 32  2  0  0  0
 31 33  1  0  0  0
 31 34  1  0  0  0
 31 30  1  0  0  0
 30 26  1  0  0  0
 26 27  2  0  0  0
 26 28  1  0  0  0
 26 25  1  0  0  0
 25 24  1  0  0  0
 24  1  1  0  0  0
  1  2  1  0  0  0
  1  3  1  0  0  0
  2  7  1  0  0  0
  3  4  1  0  0  0
  3  5  1  0  0  0
  5  6  1  0  0  0
  5  7  1  0  0  0
  7 10  1  0  0  0
 10 11  1  0  0  0
 10 20  1  0  0  0
 11 12  2  0  0  0
 12 13  1  0  0  0
 13 14  1  0  0  0
 13 20  2  0  0  0
 14 15  2  0  0  0
 14 16  1  0  0  0
 16 17  1  0  0  0
 17 18  1  0  0  0
 17 19  2  0  0  0
 19 20  1  0  0  0
 33 35  1  0  0  0
 34 36  1  0  0  0
 28 29  1  0  0  0
  4  8  1  0  0  0
  6  9  1  0  0  0
 16 21  1  0  0  0
 18 22  1  0  0  0
 18 23  1  0  0  0
M  END
> <minimizedAffinity>
-10.19728

$$$$
4DCS_GDP_A_501


 36 38  0  0  0  0  0  0  0  0999 V2000
  -19.8612  -10.5410  -35.8584 C   0  0  0  0  0  0  0  0  0  0  0  0
  -18.6924  -11.2646  -36.2692 O   0  0  0  0  0  0  0  0  0  0  0  0
  -20.9959  -10.9803  -36.7764 C   0  0  0  0  0  0  0  0  0  0  0  0
  -21.1500  -10.0163  -37.8138 O   0  0  0  0  0  0  0  0  0  0  0  0
  -20.4929  -12.2573  -37.4179 C   0  0  0  0  0  0  0  0  0  0  0  0
  -21.0328  -12.4473  -38.7271 O   0  0  0  0  0  0  0  0  0  0  0  0
  -18.9854  -12.0428  -37.4437 C   0  0  0  0  0  0  0  0  0  0  0  0
  -20.3096   -9.9135  -38.2871 H   0  0  0  0  0  0  0  0  0  0  0  0
  -20.8132  -11.6822  -39.2815 H   0  0  0  0  0  0  0  0  0  0  0  0
  -18.3032  -13.3561  -37.4506 N   0  0  0  0  0  0  0  0  0  0  0  0
  -17.4098  -13.7874  -36.5375 C   0  0  0  0  0  0  0  0  0  0  0  0
  -16.9856  -15.0417  -36.8344 N   0  0  0  0  0  0  0  0  0  0  0  0
  -17.6057  -15.4321  -37.9619 C   0  0  0  0  0  0  0  0  0  0  0  0
  -17.6021  -16.6376  -38.8225 C   0  0  0  0  0  0  0  0  0  0  0  0
  -16.8948  -17.6299  -38.5582 O   0  0  0  0  0  0  0  0  0  0  0  0
  -18.4017  -16.6391  -39.8985 N   0  0  0  0  0  0  0  0  0  0  0  0
  -19.1848  -15.5924  -40.2345 C   0  0  0  0  0  0  0  0  0  0  0  0
  -19.9461  -15.6870  -41.3581 N   0  0  0  0  0  0  0  0  0  0  0  0
  -19.2191  -14.4493  -39.4926 N   0  0  0  0  0  0  0  0  0  0  0  0
  -18.4778  -14.3189  -38.3650 C   0  0  0  0  0  0  0  0  0  0  0  0
  -18.4186  -17.4406  -40.4699 H   0  0  0  0  0  0  0  0  0  0  0  0
  -19.9261  -16.5097  -41.8985 H   0  0  0  0  0  0  0  0  0  0  0  0
  -20.5171  -14.9328  -41.6308 H   0  0  0  0  0  0  0  0  0  0  0  0
  -20.1794  -10.8332  -34.3956 C   0  0  0  0  0  0  0  0  0  0  0  0
  -18.9559  -11.0025  -33.6748 O   0  0  0  0  0  0  0  0  0  0  0  0
  -18.6003  -10.1882  -32.3299 P   0  0  0  0  0  0  0  0  0  0  0  0
  -18.1444  -11.2328  -31.3391 O   0  0  0  0  0  0  0  0  0  0  0  0
  -19.7755   -9.3047  -31.9637 O   0  0  0  0  0  0  0  0  0  0  0  0
  -19.5691   -8.8110  -31.1547 H   0  0  0  0  0  0  0  0  0  0  0  0
  -17.3912   -9.2749  -32.8678 O   0  0  0  0  0  0  0  0  0  0  0  0
  -15.9748   -9.8218  -33.3974 P   0  0  0  0  0  0  0  0  0  0  0  0
  -15.9995   -9.6126  -34.8880 O   0  0  0  0  0  0  0  0  0  0  0  0
  -16.0064  -11.2870  -33.0301 O   0  0  0  0  0  0  0  0  0  0  0  0
  -14.9329   -9.0193  -32.6622 O   0  0  0  0  0  0  0  0  0  0  0  0
  -15.1807  -11.7094  -33.3139 H   0  0  0  0  0  0  0  0  0  0  0  0
  -14.0488   -9.3049  -32.9408 H   0  0  0  0  0  0  0  0  0  0  0  0
 31 32  2  0  0  0
 31 33  1  0  0  0
 31 34  1  0  0  0
 31 30  1  0  0  0
 30 26  1  0  0  0
 26 27  2  0  0  0
 26 28  1  0  0  0
 26 25  1  0  0  0
 25 24  1  0  0  0
 24  1  1  0  0  0
  1  2  1  0  0  0
  1  3  1  0  0  0
  2  7  1  0  0  0
  3  4  1  0  0  0
  3  5  1  0  0  0
  5  6  1  0  0  0
  5  7  1  0  0  0
  7 10  1  0  0  0
 10 11  1  0  0  0
 10 20  1  0  0  0
 11 12  2  0  0  0
 12 13  1  0  0  0
 13 14  1  0  0  0
 13 20  2  0  0  0
 14 15  2  0  0  0
 14 16  1  0  0  0
 16 17  1  0  0  0
 17 18  1  0  0  0
 17 19  2  0  0  0
 19 20  1  0  0  0
 33 35  1  0  0  0
 34 36  1  0  0  0
 28 29  1  0  0  0
  4  8  1  0  0  0
  6  9  1  0  0  0
 16 21  1  0  0  0
 18 22  1  0  0  0
 18 23  1  0  0  0
M  END
> <minimizedAffinity>
-8.60516

$$$$
4DCS_GDP_A_501


 36 38  0  0  0  0  0  0  0  0999 V2000
  -19.5863  -10.0094  -36.3021 C   0  0  0  0  0  0  0  0  0  0  0  0
  -18.5268  -10.8162  -36.8361 O   0  0  0  0  0  0  0  0  0  0  0  0
  -20.8952  -10.6617  -36.7314 C   0  0  0  0  0  0  0  0  0  0  0  0
  -21.3901   -9.9884  -37.8850 O   0  0  0  0  0  0  0  0  0  0  0  0
  -20.5003  -12.0603  -37.1597 C   0  0  0  0  0  0  0  0  0  0  0  0
  -21.3613  -12.5710  -38.1792 O   0  0  0  0  0  0  0  0  0  0  0  0
  -19.0745  -11.8633  -37.6574 C   0  0  0  0  0  0  0  0  0  0  0  0
  -20.7187  -10.0099  -38.5848 H   0  0  0  0  0  0  0  0  0  0  0  0
  -21.3528  -11.9701  -38.9406 H   0  0  0  0  0  0  0  0  0  0  0  0
  -18.3327  -13.1382  -37.5375 N   0  0  0  0  0  0  0  0  0  0  0  0
  -17.4267  -13.4389  -36.5852 C   0  0  0  0  0  0  0  0  0  0  0  0
  -16.9433  -14.6947  -36.7602 N   0  0  0  0  0  0  0  0  0  0  0  0
  -17.5371  -15.2188  -37.8470 C   0  0  0  0  0  0  0  0  0  0  0  0
  -17.4722  -16.4993  -38.5888 C   0  0  0  0  0  0  0  0  0  0  0  0
  -16.7219  -17.4281  -38.2294 O   0  0  0  0  0  0  0  0  0  0  0  0
  -18.2634  -16.6400  -39.6617 N   0  0  0  0  0  0  0  0  0  0  0  0
  -19.0914  -15.6674  -40.0979 C   0  0  0  0  0  0  0  0  0  0  0  0
  -19.8398  -15.9036  -41.2093 N   0  0  0  0  0  0  0  0  0  0  0  0
  -19.1832  -14.4619  -39.4683 N   0  0  0  0  0  0  0  0  0  0  0  0
  -18.4565  -14.1906  -38.3565 C   0  0  0  0  0  0  0  0  0  0  0  0
  -18.2395  -17.4921  -40.1543 H   0  0  0  0  0  0  0  0  0  0  0  0
  -19.7782  -16.7721  -41.6688 H   0  0  0  0  0  0  0  0  0  0  0  0
  -20.4429  -15.2060  -41.5540 H   0  0  0  0  0  0  0  0  0  0  0  0
  -19.4748   -9.9245  -34.7832 C   0  0  0  0  0  0  0  0  0  0  0  0
  -18.3363  -10.6761  -34.3544 O   0  0  0  0  0  0  0  0  0  0  0  0
  -17.0646  -10.0145  -33.6173 P   0  0  0  0  0  0  0  0  0  0  0  0
  -16.4353   -9.1049  -34.6456 O   0  0  0  0  0  0  0  0  0  0  0  0
  -16.2201  -11.1155  -33.0088 O   0  0  0  0  0  0  0  0  0  0  0  0
  -15.4522  -10.7251  -32.5630 H   0  0  0  0  0  0  0  0  0  0  0  0
  -17.8109   -9.2034  -32.4467 O   0  0  0  0  0  0  0  0  0  0  0  0
  -18.6025   -9.8652  -31.2133 P   0  0  0  0  0  0  0  0  0  0  0  0
  -20.0323   -9.4223  -31.3743 O   0  0  0  0  0  0  0  0  0  0  0  0
  -17.9485   -9.2408  -30.0029 O   0  0  0  0  0  0  0  0  0  0  0  0
  -18.3809  -11.3498  -31.3428 O   0  0  0  0  0  0  0  0  0  0  0  0
  -18.3654   -9.5839  -29.1970 H   0  0  0  0  0  0  0  0  0  0  0  0
  -18.8377  -11.8091  -30.6208 H   0  0  0  0  0  0  0  0  0  0  0  0
 31 32  2  0  0  0
 31 33  1  0  0  0
 31 34  1  0  0  0
 31 30  1  0  0  0
 30 26  1  0  0  0
 26 27  2  0  0  0
 26 28  1  0  0  0
 26 25  1  0  0  0
 25 24  1  0  0  0
 24  1  1  0  0  0
  1  2  1  0  0  0
  1  3  1  0  0  0
  2  7  1  0  0  0
  3  4  1  0  0  0
  3  5  1  0  0  0
  5  6  1  0  0  0
  5  7  1  0  0  0
  7 10  1  0  0  0
 10 11  1  0  0  0
 10 20  1  0  0  0
 11 12  2  0  0  0
 12 13  1  0  0  0
 13 14  1  0  0  0
 13 20  2  0  0  0
 14 15  2  0  0  0
 14 16  1  0  0  0
 16 17  1  0  0  0
 17 18  1  0  0  0
 17 19  2  0  0  0
 19 20  1  0  0  0
 33 35  1  0  0  0
 34 36  1  0  0  0
 28 29  1  0  0  0
  4  8  1  0  0  0
  6  9  1  0  0  0
 16 21  1  0  0  0
 18 22  1  0  0  0
 18 23  1  0  0  0
M  END
> <minimizedAffinity>
-8.01857

$$$$
4DCS_GDP_A_501


 36 38  0  0  0  0  0  0  0  0999 V2000
  -20.2310  -10.6329  -39.4886 C   0  0  0  0  0  0  0  0  0  0  0  0
  -19.4873  -11.6685  -40.1466 O   0  0  0  0  0  0  0  0  0  0  0  0
  -21.6168  -11.1998  -39.2034 C   0  0  0  0  0  0  0  0  0  0  0  0
  -22.5132  -10.7616  -40.2200 O   0  0  0  0  0  0  0  0  0  0  0  0
  -21.4541  -12.6980  -39.3601 C   0  0  0  0  0  0  0  0  0  0  0  0
  -22.6593  -13.3235  -39.8048 O   0  0  0  0  0  0  0  0  0  0  0  0
  -20.3380  -12.8032  -40.3908 C   0  0  0  0  0  0  0  0  0  0  0  0
  -22.1744  -11.0312  -41.0880 H   0  0  0  0  0  0  0  0  0  0  0  0
  -22.9398  -12.9252  -40.6436 H   0  0  0  0  0  0  0  0  0  0  0  0
  -19.6371  -14.0960  -40.2244 N   0  0  0  0  0  0  0  0  0  0  0  0
  -19.6792  -15.1341  -41.0837 C   0  0  0  0  0  0  0  0  0  0  0  0
  -18.9152  -16.1618  -40.6348 N   0  0  0  0  0  0  0  0  0  0  0  0
  -18.3721  -15.7917  -39.4616 C   0  0  0  0  0  0  0  0  0  0  0  0
  -17.4757  -16.4076  -38.4560 C   0  0  0  0  0  0  0  0  0  0  0  0
  -17.0235  -17.5607  -38.5993 O   0  0  0  0  0  0  0  0  0  0  0  0
  -17.1473  -15.6765  -37.3814 N   0  0  0  0  0  0  0  0  0  0  0  0
  -17.6101  -14.4259  -37.1731 C   0  0  0  0  0  0  0  0  0  0  0  0
  -17.2315  -13.7751  -36.0397 N   0  0  0  0  0  0  0  0  0  0  0  0
  -18.4509  -13.8117  -38.0528 N   0  0  0  0  0  0  0  0  0  0  0  0
  -18.8474  -14.4261  -39.1944 C   0  0  0  0  0  0  0  0  0  0  0  0
  -16.5406  -16.0700  -36.7133 H   0  0  0  0  0  0  0  0  0  0  0  0
  -16.6245  -14.2130  -35.4002 H   0  0  0  0  0  0  0  0  0  0  0  0
  -17.5645  -12.8664  -35.8592 H   0  0  0  0  0  0  0  0  0  0  0  0
  -19.5256  -10.2063  -38.2053 C   0  0  0  0  0  0  0  0  0  0  0  0
  -19.6313  -11.2573  -37.2412 O   0  0  0  0  0  0  0  0  0  0  0  0
  -19.9231  -10.9984  -35.6772 P   0  0  0  0  0  0  0  0  0  0  0  0
  -19.6237  -12.3106  -34.9923 O   0  0  0  0  0  0  0  0  0  0  0  0
  -21.3071  -10.4006  -35.5268 O   0  0  0  0  0  0  0  0  0  0  0  0
  -21.4904  -10.2417  -34.5876 H   0  0  0  0  0  0  0  0  0  0  0  0
  -18.8173   -9.8724  -35.3693 O   0  0  0  0  0  0  0  0  0  0  0  0
  -17.2566  -10.1490  -35.0979 P   0  0  0  0  0  0  0  0  0  0  0  0
  -16.6754   -8.8126  -34.7200 O   0  0  0  0  0  0  0  0  0  0  0  0
  -16.7488  -10.6296  -36.4372 O   0  0  0  0  0  0  0  0  0  0  0  0
  -17.2155  -11.1886  -34.0082 O   0  0  0  0  0  0  0  0  0  0  0  0
  -15.8009  -10.8250  -36.3724 H   0  0  0  0  0  0  0  0  0  0  0  0
  -16.2925  -11.3999  -33.7976 H   0  0  0  0  0  0  0  0  0  0  0  0
 31 32  2  0  0  0
 31 33  1  0  0  0
 31 34  1  0  0  0
 31 30  1  0  0  0
 30 26  1  0  0  0
 26 27  2  0  0  0
 26 28  1  0  0  0
 26 25  1  0  0  0
 25 24  1  0  0  0
 24  1  1  0  0  0
  1  2  1  0  0  0
  1  3  1  0  0  0
  2  7  1  0  0  0
  3  4  1  0  0  0
  3  5  1  0  0  0
  5  6  1  0  0  0
  5  7  1  0  0  0
  7 10  1  0  0  0
 10 11  1  0  0  0
 10 20  1  0  0  0
 11 12  2  0  0  0
 12 13  1  0  0  0
 13 14  1  0  0  0
 13 20  2  0  0  0
 14 15  2  0  0  0
 14 16  1  0  0  0
 16 17  1  0  0  0
 17 18  1  0  0  0
 17 19  2  0  0  0
 19 20  1  0  0  0
 33 35  1  0  0  0
 34 36  1  0  0  0
 28 29  1  0  0  0
  4  8  1  0  0  0
  6  9  1  0  0  0
 16 21  1  0  0  0
 18 22  1  0  0  0
 18 23  1  0  0  0
M  END
> <minimizedAffinity>
-7.43508

$$$$
4DCS_GDP_A_501


 36 38  0  0  0  0  0  0  0  0999 V2000
  -18.3618   -9.4254  -36.6914 C   0  0  0  0  0  0  0  0  0  0  0  0
  -18.3368  -10.0170  -37.9982 O   0  0  0  0  0  0  0  0  0  0  0  0
  -19.7539   -9.6738  -36.1226 C   0  0  0  0  0  0  0  0  0  0  0  0
  -20.5482   -8.5080  -36.3200 O   0  0  0  0  0  0  0  0  0  0  0  0
  -20.3322  -10.7675  -36.9972 C   0  0  0  0  0  0  0  0  0  0  0  0
  -21.7542  -10.6746  -37.1003 O   0  0  0  0  0  0  0  0  0  0  0  0
  -19.6420  -10.5224  -38.3324 C   0  0  0  0  0  0  0  0  0  0  0  0
  -20.5682   -8.2865  -37.2642 H   0  0  0  0  0  0  0  0  0  0  0  0
  -21.9969   -9.8018  -37.4471 H   0  0  0  0  0  0  0  0  0  0  0  0
  -19.5920  -11.7879  -39.0981 N   0  0  0  0  0  0  0  0  0  0  0  0
  -20.0304  -11.9656  -40.3607 C   0  0  0  0  0  0  0  0  0  0  0  0
  -19.8253  -13.2443  -40.7660 N   0  0  0  0  0  0  0  0  0  0  0  0
  -19.2512  -13.9130  -39.7504 C   0  0  0  0  0  0  0  0  0  0  0  0
  -18.7825  -15.2975  -39.5103 C   0  0  0  0  0  0  0  0  0  0  0  0
  -18.8741  -16.1817  -40.3847 O   0  0  0  0  0  0  0  0  0  0  0  0
  -18.2360  -15.5737  -38.3178 N   0  0  0  0  0  0  0  0  0  0  0  0
  -18.1151  -14.6576  -37.3340 C   0  0  0  0  0  0  0  0  0  0  0  0
  -17.5627  -15.0446  -36.1524 N   0  0  0  0  0  0  0  0  0  0  0  0
  -18.5429  -13.3726  -37.4881 N   0  0  0  0  0  0  0  0  0  0  0  0
  -19.0949  -12.9486  -38.6515 C   0  0  0  0  0  0  0  0  0  0  0  0
  -17.9077  -16.4869  -38.1520 H   0  0  0  0  0  0  0  0  0  0  0  0
  -17.2517  -15.9713  -36.0345 H   0  0  0  0  0  0  0  0  0  0  0  0
  -17.4739  -14.3981  -35.4154 H   0  0  0  0  0  0  0  0  0  0  0  0
  -17.2791  -10.0396  -35.8099 C   0  0  0  0  0  0  0  0  0  0  0  0
  -17.2766   -9.3785  -34.5418 O   0  0  0  0  0  0  0  0  0  0  0  0
  -16.4879   -9.9387  -33.2525 P   0  0  0  0  0  0  0  0  0  0  0  0
  -17.0061  -11.3420  -33.0456 O   0  0  0  0  0  0  0  0  0  0  0  0
  -16.6234   -8.9408  -32.1204 O   0  0  0  0  0  0  0  0  0  0  0  0
  -16.1510   -9.2709  -31.3401 H   0  0  0  0  0  0  0  0  0  0  0  0
  -14.9811   -9.9109  -33.8129 O   0  0  0  0  0  0  0  0  0  0  0  0
  -13.9891   -8.6465  -33.7559 P   0  0  0  0  0  0  0  0  0  0  0  0
  -13.5031   -8.5859  -32.3323 O   0  0  0  0  0  0  0  0  0  0  0  0
  -14.8880   -7.4814  -34.0982 O   0  0  0  0  0  0  0  0  0  0  0  0
  -12.9194   -8.9276  -34.7790 O   0  0  0  0  0  0  0  0  0  0  0  0
  -14.3711   -6.6606  -34.0888 H   0  0  0  0  0  0  0  0  0  0  0  0
  -12.2844   -8.1944  -34.7927 H   0  0  0  0  0  0  0  0  0  0  0  0
 31 32  2  0  0  0
 31 33  1  0  0  0
 31 34  1  0  0  0
 31 30  1  0  0  0
 30 26  1  0  0  0
 26 27  2  0  0  0
 26 28  1  0  0  0
 26 25  1  0  0  0
 25 24  1  0  0  0
 24  1  1  0  0  0
  1  2  1  0  0  0
  1  3  1  0  0  0
  2  7  1  0  0  0
  3  4  1  0  0  0
  3  5  1  0  0  0
  5  6  1  0  0  0
  5  7  1  0  0  0
  7 10  1  0  0  0
 10 11  1  0  0  0
 10 20  1  0  0  0
 11 12  2  0  0  0
 12 13  1  0  0  0
 13 14  1  0  0  0
 13 20  2  0  0  0
 14 15  2  0  0  0
 14 16  1  0  0  0
 16 17  1  0  0  0
 17 18  1  0  0  0
 17 19  2  0  0  0
 19 20  1  0  0  0
 33 35  1  0  0  0
 34 36  1  0  0  0
 28 29  1  0  0  0
  4  8  1  0  0  0
  6  9  1  0  0  0
 16 21  1  0  0  0
 18 22  1  0  0  0
 18 23  1  0  0  0
M  END
> <minimizedAffinity>
-7.40129

$$$$
4DCS_GDP_A_501


 36 38  0  0  0  0  0  0  0  0999 V2000
  -19.7529  -10.3622  -38.3258 C   0  0  0  0  0  0  0  0  0  0  0  0
  -19.7631  -11.7969  -38.3382 O   0  0  0  0  0  0  0  0  0  0  0  0
  -19.0941   -9.9381  -37.0185 C   0  0  0  0  0  0  0  0  0  0  0  0
  -20.1096   -9.6244  -36.0701 O   0  0  0  0  0  0  0  0  0  0  0  0
  -18.3873  -11.1850  -36.5272 C   0  0  0  0  0  0  0  0  0  0  0  0
  -18.3082  -11.2286  -35.1013 O   0  0  0  0  0  0  0  0  0  0  0  0
  -19.2578  -12.3013  -37.0888 C   0  0  0  0  0  0  0  0  0  0  0  0
  -20.6952  -10.3896  -35.9584 H   0  0  0  0  0  0  0  0  0  0  0  0
  -19.2013  -11.1773  -34.7262 H   0  0  0  0  0  0  0  0  0  0  0  0
  -18.4423  -13.5259  -37.2485 N   0  0  0  0  0  0  0  0  0  0  0  0
  -17.3949  -13.8839  -36.4785 C   0  0  0  0  0  0  0  0  0  0  0  0
  -16.8781  -15.0692  -36.8900 N   0  0  0  0  0  0  0  0  0  0  0  0
  -17.5940  -15.4875  -37.9487 C   0  0  0  0  0  0  0  0  0  0  0  0
  -17.5708  -16.6525  -38.8631 C   0  0  0  0  0  0  0  0  0  0  0  0
  -16.7303  -17.5654  -38.7410 O   0  0  0  0  0  0  0  0  0  0  0  0
  -18.4996  -16.7073  -39.8283 N   0  0  0  0  0  0  0  0  0  0  0  0
  -19.4301  -15.7465  -40.0091 C   0  0  0  0  0  0  0  0  0  0  0  0
  -20.3172  -15.8877  -41.0311 N   0  0  0  0  0  0  0  0  0  0  0  0
  -19.4922  -14.6428  -39.2116 N   0  0  0  0  0  0  0  0  0  0  0  0
  -18.6284  -14.4686  -38.1814 C   0  0  0  0  0  0  0  0  0  0  0  0
  -18.5030  -17.4841  -40.4330 H   0  0  0  0  0  0  0  0  0  0  0  0
  -20.2779  -16.6824  -41.6108 H   0  0  0  0  0  0  0  0  0  0  0  0
  -20.9984  -15.1951  -41.1908 H   0  0  0  0  0  0  0  0  0  0  0  0
  -18.9934   -9.8264  -39.5352 C   0  0  0  0  0  0  0  0  0  0  0  0
  -19.5360  -10.4071  -40.7240 O   0  0  0  0  0  0  0  0  0  0  0  0
  -19.7245   -9.5918  -42.1017 P   0  0  0  0  0  0  0  0  0  0  0  0
  -20.4293   -8.3131  -41.7160 O   0  0  0  0  0  0  0  0  0  0  0  0
  -20.3760  -10.4990  -43.1256 O   0  0  0  0  0  0  0  0  0  0  0  0
  -20.4930  -10.0152  -43.9582 H   0  0  0  0  0  0  0  0  0  0  0  0
  -18.1846   -9.3550  -42.4992 O   0  0  0  0  0  0  0  0  0  0  0  0
  -17.5229   -7.9338  -42.8573 P   0  0  0  0  0  0  0  0  0  0  0  0
  -16.1163   -8.2480  -43.2924 O   0  0  0  0  0  0  0  0  0  0  0  0
  -17.5569   -7.1912  -41.5420 O   0  0  0  0  0  0  0  0  0  0  0  0
  -18.3998   -7.3401  -43.9290 O   0  0  0  0  0  0  0  0  0  0  0  0
  -17.1725   -6.3083  -41.6592 H   0  0  0  0  0  0  0  0  0  0  0  0
  -18.0498   -6.4738  -44.1900 H   0  0  0  0  0  0  0  0  0  0  0  0
 31 32  2  0  0  0
 31 33  1  0  0  0
 31 34  1  0  0  0
 31 30  1  0  0  0
 30 26  1  0  0  0
 26 27  2  0  0  0
 26 28  1  0  0  0
 26 25  1  0  0  0
 25 24  1  0  0  0
 24  1  1  0  0  0
  1  2  1  0  0  0
  1  3  1  0  0  0
  2  7  1  0  0  0
  3  4  1  0  0  0
  3  5  1  0  0  0
  5  6  1  0  0  0
  5  7  1  0  0  0
  7 10  1  0  0  0
 10 11  1  0  0  0
 10 20  1  0  0  0
 11 12  2  0  0  0
 12 13  1  0  0  0
 13 14  1  0  0  0
 13 20  2  0  0  0
 14 15  2  0  0  0
 14 16  1  0  0  0
 16 17  1  0  0  0
 17 18  1  0  0  0
 17 19  2  0  0  0
 19 20  1  0  0  0
 33 35  1  0  0  0
 34 36  1  0  0  0
 28 29  1  0  0  0
  4  8  1  0  0  0
  6  9  1  0  0  0
 16 21  1  0  0  0
 18 22  1  0  0  0
 18 23  1  0  0  0
M  END
> <minimizedAffinity>
-7.33965

$$$$
