1AI7_IPH_B_559


  8  8  0  0  0  0  0  0  0  0999 V2000
   10.4987   36.3389   32.3026 C   0  0  0  0  0  0  0  0  0  0  0  0
   11.6374   36.4589   33.0957 C   0  0  0  0  0  0  0  0  0  0  0  0
   11.6016   35.7114   34.2574 C   0  0  0  0  0  0  0  0  0  0  0  0
   10.5107   34.9428   34.6144 C   0  0  0  0  0  0  0  0  0  0  0  0
    9.4089   34.8795   33.7838 C   0  0  0  0  0  0  0  0  0  0  0  0
    9.3531   35.5967   32.6161 C   0  0  0  0  0  0  0  0  0  0  0  0
   10.4906   37.0166   31.1019 O   0  0  0  0  0  0  0  0  0  0  0  0
   11.2337   37.5272   30.8472 H   0  0  0  0  0  0  0  0  0  0  0  0
  1  2  2  0  0  0
  1  6  1  0  0  0
  1  7  1  0  0  0
  2  3  1  0  0  0
  3  4  2  0  0  0
  4  5  1  0  0  0
  5  6  2  0  0  0
  7  8  1  0  0  0
M  END
> <minimizedAffinity>
-5.68545

$$$$
1AI7_IPH_B_559


  8  8  0  0  0  0  0  0  0  0999 V2000
   10.5075   36.3279   32.2969 C   0  0  0  0  0  0  0  0  0  0  0  0
    9.3786   35.5541   32.5560 C   0  0  0  0  0  0  0  0  0  0  0  0
    9.4168   34.8802   33.7618 C   0  0  0  0  0  0  0  0  0  0  0  0
   10.5012   34.9426   34.6152 C   0  0  0  0  0  0  0  0  0  0  0  0
   11.5935   35.7223   34.2882 C   0  0  0  0  0  0  0  0  0  0  0  0
   11.6465   36.4171   33.1070 C   0  0  0  0  0  0  0  0  0  0  0  0
   10.5120   37.0696   31.1347 O   0  0  0  0  0  0  0  0  0  0  0  0
    9.7729   37.0434   30.5593 H   0  0  0  0  0  0  0  0  0  0  0  0
  1  2  2  0  0  0
  1  6  1  0  0  0
  1  7  1  0  0  0
  2  3  1  0  0  0
  3  4  2  0  0  0
  4  5  1  0  0  0
  5  6  2  0  0  0
  7  8  1  0  0  0
M  END
> <minimizedAffinity>
-5.66368

$$$$
1AI7_IPH_B_559


  8  8  0  0  0  0  0  0  0  0999 V2000
    9.7537   35.0156   32.8047 C   0  0  0  0  0  0  0  0  0  0  0  0
   10.1539   35.9811   31.8840 C   0  0  0  0  0  0  0  0  0  0  0  0
   11.2545   36.7186   32.2769 C   0  0  0  0  0  0  0  0  0  0  0  0
   11.8767   36.5348   33.4965 C   0  0  0  0  0  0  0  0  0  0  0  0
   11.4182   35.5649   34.3665 C   0  0  0  0  0  0  0  0  0  0  0  0
   10.3254   34.7934   34.0638 C   0  0  0  0  0  0  0  0  0  0  0  0
    8.6939   34.2072   32.4522 O   0  0  0  0  0  0  0  0  0  0  0  0
    8.2775   34.3169   31.6199 H   0  0  0  0  0  0  0  0  0  0  0  0
  1  2  2  0  0  0
  1  6  1  0  0  0
  1  7  1  0  0  0
  2  3  1  0  0  0
  3  4  2  0  0  0
  4  5  1  0  0  0
  5  6  2  0  0  0
  7  8  1  0  0  0
M  END
> <minimizedAffinity>
-5.48683

$$$$
1AI7_IPH_B_559


  8  8  0  0  0  0  0  0  0  0999 V2000
   11.4032   36.4854   33.3513 C   0  0  0  0  0  0  0  0  0  0  0  0
   11.0751   35.2009   33.7787 C   0  0  0  0  0  0  0  0  0  0  0  0
   10.4577   34.4232   32.8178 C   0  0  0  0  0  0  0  0  0  0  0  0
   10.1596   34.8976   31.5551 C   0  0  0  0  0  0  0  0  0  0  0  0
   10.5043   36.1880   31.2030 C   0  0  0  0  0  0  0  0  0  0  0  0
   11.1104   37.0339   32.0964 C   0  0  0  0  0  0  0  0  0  0  0  0
   12.0705   37.2972   34.2438 O   0  0  0  0  0  0  0  0  0  0  0  0
   12.2890   36.9758   35.0964 H   0  0  0  0  0  0  0  0  0  0  0  0
  1  2  2  0  0  0
  1  6  1  0  0  0
  1  7  1  0  0  0
  2  3  1  0  0  0
  3  4  2  0  0  0
  4  5  1  0  0  0
  5  6  2  0  0  0
  7  8  1  0  0  0
M  END
> <minimizedAffinity>
-5.45930

$$$$
1AI7_IPH_B_559


  8  8  0  0  0  0  0  0  0  0999 V2000
   11.7956   36.2965   33.6522 C   0  0  0  0  0  0  0  0  0  0  0  0
   11.3160   36.7094   32.4114 C   0  0  0  0  0  0  0  0  0  0  0  0
   10.0853   36.1798   32.0735 C   0  0  0  0  0  0  0  0  0  0  0  0
    9.4109   35.2877   32.8845 C   0  0  0  0  0  0  0  0  0  0  0  0
    9.9523   34.9127   34.0986 C   0  0  0  0  0  0  0  0  0  0  0  0
   11.1741   35.3805   34.5103 C   0  0  0  0  0  0  0  0  0  0  0  0
   12.9945   36.8296   34.0755 O   0  0  0  0  0  0  0  0  0  0  0  0
   13.4491   37.4468   33.5367 H   0  0  0  0  0  0  0  0  0  0  0  0
  1  2  2  0  0  0
  1  6  1  0  0  0
  1  7  1  0  0  0
  2  3  1  0  0  0
  3  4  2  0  0  0
  4  5  1  0  0  0
  5  6  2  0  0  0
  7  8  1  0  0  0
M  END
> <minimizedAffinity>
-5.41472

$$$$
1AI7_IPH_B_559


  8  8  0  0  0  0  0  0  0  0999 V2000
   10.4159   35.2095   34.1228 C   0  0  0  0  0  0  0  0  0  0  0  0
   11.6728   35.7902   34.2749 C   0  0  0  0  0  0  0  0  0  0  0  0
   12.0587   36.5934   33.2187 C   0  0  0  0  0  0  0  0  0  0  0  0
   11.2766   36.7706   32.0940 C   0  0  0  0  0  0  0  0  0  0  0  0
   10.0439   36.1537   32.0057 C   0  0  0  0  0  0  0  0  0  0  0  0
    9.5848   35.3305   33.0020 C   0  0  0  0  0  0  0  0  0  0  0  0
    9.9457   34.4385   35.1646 O   0  0  0  0  0  0  0  0  0  0  0  0
   10.4651   34.3271   35.9365 H   0  0  0  0  0  0  0  0  0  0  0  0
  1  2  2  0  0  0
  1  6  1  0  0  0
  1  7  1  0  0  0
  2  3  1  0  0  0
  3  4  2  0  0  0
  4  5  1  0  0  0
  5  6  2  0  0  0
  7  8  1  0  0  0
M  END
> <minimizedAffinity>
-4.89678

$$$$
1AI7_IPH_B_559


  8  8  0  0  0  0  0  0  0  0999 V2000
   10.3753   35.2219   34.1243 C   0  0  0  0  0  0  0  0  0  0  0  0
    9.5241   35.4105   33.0381 C   0  0  0  0  0  0  0  0  0  0  0  0
   10.0515   36.1995   32.0337 C   0  0  0  0  0  0  0  0  0  0  0  0
   11.3019   36.7800   32.1224 C   0  0  0  0  0  0  0  0  0  0  0  0
   12.0885   36.5589   33.2360 C   0  0  0  0  0  0  0  0  0  0  0  0
   11.6418   35.7978   34.2858 C   0  0  0  0  0  0  0  0  0  0  0  0
    9.9325   34.4002   35.1390 O   0  0  0  0  0  0  0  0  0  0  0  0
    9.0916   33.9914   35.0775 H   0  0  0  0  0  0  0  0  0  0  0  0
  1  2  2  0  0  0
  1  6  1  0  0  0
  1  7  1  0  0  0
  2  3  1  0  0  0
  3  4  2  0  0  0
  4  5  1  0  0  0
  5  6  2  0  0  0
  7  8  1  0  0  0
M  END
> <minimizedAffinity>
-4.87998

$$$$
1AI7_IPH_B_559


  8  8  0  0  0  0  0  0  0  0999 V2000
   11.4114   35.9474   33.4132 C   0  0  0  0  0  0  0  0  0  0  0  0
   11.2870   36.9859   32.4933 C   0  0  0  0  0  0  0  0  0  0  0  0
   10.6486   36.6316   31.3201 C   0  0  0  0  0  0  0  0  0  0  0  0
   10.2079   35.3462   31.0714 C   0  0  0  0  0  0  0  0  0  0  0  0
   10.3752   34.3620   32.0260 C   0  0  0  0  0  0  0  0  0  0  0  0
   11.0073   34.6211   33.2152 C   0  0  0  0  0  0  0  0  0  0  0  0
   11.9912   36.2455   34.6280 O   0  0  0  0  0  0  0  0  0  0  0  0
   12.2783   37.1191   34.8084 H   0  0  0  0  0  0  0  0  0  0  0  0
  1  2  2  0  0  0
  1  6  1  0  0  0
  1  7  1  0  0  0
  2  3  1  0  0  0
  3  4  2  0  0  0
  4  5  1  0  0  0
  5  6  2  0  0  0
  7  8  1  0  0  0
M  END
> <minimizedAffinity>
-4.71735

$$$$
