3H30_RFZ_A_336


 23 25  0  0  0  0  0  0  0  0999 V2000
   15.7104    0.0135    5.2761 C   0  0  0  0  0  0  0  0  0  0  0  0
   16.4919    1.2318    5.2854 O   0  0  0  0  0  0  0  0  0  0  0  0
   15.6297    2.3008    5.7713 C   0  0  0  0  0  0  0  0  0  0  0  0
   14.3806    1.5905    6.3633 C   0  0  0  0  0  0  0  0  0  0  0  0
   13.2904    1.6876    5.4320 O   0  0  0  0  0  0  0  0  0  0  0  0
   14.8222    0.1316    6.4991 C   0  0  0  0  0  0  0  0  0  0  0  0
   13.7053   -0.7484    6.3671 O   0  0  0  0  0  0  0  0  0  0  0  0
   13.5592    1.3113    4.5793 H   0  0  0  0  0  0  0  0  0  0  0  0
   13.2490   -0.5685    5.5302 H   0  0  0  0  0  0  0  0  0  0  0  0
   17.1493   -1.7903    4.3368 C   0  0  0  0  0  0  0  0  0  0  0  0
   17.0735   -1.5856    2.9616 C   0  0  0  0  0  0  0  0  0  0  0  0
   17.7704   -2.4210    2.0950 C   0  0  0  0  0  0  0  0  0  0  0  0
   17.6676   -2.1546    0.3884 Cl  0  0  0  0  0  0  0  0  0  0  0  0
   18.5461   -3.4600    2.6106 C   0  0  0  0  0  0  0  0  0  0  0  0
   19.4215   -4.5017    1.5503 Cl  0  0  0  0  0  0  0  0  0  0  0  0
   18.6219   -3.6636    3.9867 C   0  0  0  0  0  0  0  0  0  0  0  0
   17.9189   -2.8258    4.8485 C   0  0  0  0  0  0  0  0  0  0  0  0
   17.8049   -2.7809    6.1723 N   0  0  0  0  0  0  0  0  0  0  0  0
   17.0018   -1.7667    6.4885 C   0  0  0  0  0  0  0  0  0  0  0  0
   16.5991   -1.1632    5.3690 N   0  0  0  0  0  0  0  0  0  0  0  0
   16.3962    3.0655    6.8542 C   0  0  0  0  0  0  0  0  0  0  0  0
   17.7809    2.7105    6.7975 O   0  0  0  0  0  0  0  0  0  0  0  0
   17.8764    1.7566    6.9453 H   0  0  0  0  0  0  0  0  0  0  0  0
  5  4  1  0  0  0
  4  3  1  0  0  0
  4  6  1  0  0  0
  3 21  1  0  0  0
  3  2  1  0  0  0
 21 22  1  0  0  0
  7  6  1  0  0  0
  6  1  1  0  0  0
  2  1  1  0  0  0
  1 20  1  0  0  0
 20 19  1  0  0  0
 20 10  1  0  0  0
 19 18  2  0  0  0
 11 10  2  0  0  0
 11 12  1  0  0  0
 10 17  1  0  0  0
 13 12  1  0  0  0
 12 14  2  0  0  0
 18 17  1  0  0  0
 17 16  2  0  0  0
 14 16  1  0  0  0
 14 15  1  0  0  0
 22 23  1  0  0  0
  5  8  1  0  0  0
  7  9  1  0  0  0
M  END
> <minimizedAffinity>
-8.20176

$$$$
3H30_RFZ_A_336


 23 25  0  0  0  0  0  0  0  0999 V2000
   18.6538   -1.9836    7.7095 C   0  0  0  0  0  0  0  0  0  0  0  0
   17.8863   -2.8232    8.6046 O   0  0  0  0  0  0  0  0  0  0  0  0
   18.0404   -2.2845    9.9494 C   0  0  0  0  0  0  0  0  0  0  0  0
   18.6800   -0.8803    9.7637 C   0  0  0  0  0  0  0  0  0  0  0  0
   20.0821   -0.9504   10.0708 O   0  0  0  0  0  0  0  0  0  0  0  0
   18.4863   -0.5866    8.2744 C   0  0  0  0  0  0  0  0  0  0  0  0
   19.5305    0.2562    7.7859 O   0  0  0  0  0  0  0  0  0  0  0  0
   20.5020   -1.6237    9.5129 H   0  0  0  0  0  0  0  0  0  0  0  0
   20.3904   -0.1475    7.9824 H   0  0  0  0  0  0  0  0  0  0  0  0
   18.5466   -2.9124    5.4004 C   0  0  0  0  0  0  0  0  0  0  0  0
   19.5539   -3.8737    5.3880 C   0  0  0  0  0  0  0  0  0  0  0  0
   19.7905   -4.6178    4.2370 C   0  0  0  0  0  0  0  0  0  0  0  0
   21.0451   -5.8096    4.2361 Cl  0  0  0  0  0  0  0  0  0  0  0  0
   19.0129   -4.3981    3.0995 C   0  0  0  0  0  0  0  0  0  0  0  0
   19.2892   -5.3161    1.6655 Cl  0  0  0  0  0  0  0  0  0  0  0  0
   18.0049   -3.4365    3.1130 C   0  0  0  0  0  0  0  0  0  0  0  0
   17.7755   -2.6927    4.2675 C   0  0  0  0  0  0  0  0  0  0  0  0
   16.9059   -1.7324    4.5663 N   0  0  0  0  0  0  0  0  0  0  0  0
   17.1130   -1.3585    5.8275 C   0  0  0  0  0  0  0  0  0  0  0  0
   18.1157   -2.0762    6.3366 N   0  0  0  0  0  0  0  0  0  0  0  0
   16.6465   -2.1790   10.5745 C   0  0  0  0  0  0  0  0  0  0  0  0
   16.6887   -2.6710   11.9172 O   0  0  0  0  0  0  0  0  0  0  0  0
   16.9725   -3.5985   11.9129 H   0  0  0  0  0  0  0  0  0  0  0  0
  5  4  1  0  0  0
  4  3  1  0  0  0
  4  6  1  0  0  0
  3 21  1  0  0  0
  3  2  1  0  0  0
 21 22  1  0  0  0
  7  6  1  0  0  0
  6  1  1  0  0  0
  2  1  1  0  0  0
  1 20  1  0  0  0
 20 19  1  0  0  0
 20 10  1  0  0  0
 19 18  2  0  0  0
 11 10  2  0  0  0
 11 12  1  0  0  0
 10 17  1  0  0  0
 13 12  1  0  0  0
 12 14  2  0  0  0
 18 17  1  0  0  0
 17 16  2  0  0  0
 14 16  1  0  0  0
 14 15  1  0  0  0
 22 23  1  0  0  0
  5  8  1  0  0  0
  7  9  1  0  0  0
M  END
> <minimizedAffinity>
-8.06070

$$$$
3H30_RFZ_A_336


 23 25  0  0  0  0  0  0  0  0999 V2000
   17.0457   -1.3180    7.0474 C   0  0  0  0  0  0  0  0  0  0  0  0
   17.8767   -0.1608    7.3033 O   0  0  0  0  0  0  0  0  0  0  0  0
   17.1305    0.7274    8.1846 C   0  0  0  0  0  0  0  0  0  0  0  0
   15.9333   -0.1150    8.7066 C   0  0  0  0  0  0  0  0  0  0  0  0
   14.7419    0.2567    7.9940 O   0  0  0  0  0  0  0  0  0  0  0  0
   16.3217   -1.5536    8.3585 C   0  0  0  0  0  0  0  0  0  0  0  0
   15.1584   -2.3490    8.1273 O   0  0  0  0  0  0  0  0  0  0  0  0
   14.8859    0.1424    7.0416 H   0  0  0  0  0  0  0  0  0  0  0  0
   14.6108   -1.9302    7.4449 H   0  0  0  0  0  0  0  0  0  0  0  0
   18.0920   -2.9120    5.4441 C   0  0  0  0  0  0  0  0  0  0  0  0
   17.6276   -2.4803    4.2044 C   0  0  0  0  0  0  0  0  0  0  0  0
   18.0164   -3.1454    3.0464 C   0  0  0  0  0  0  0  0  0  0  0  0
   17.4322   -2.5975    1.5125 Cl  0  0  0  0  0  0  0  0  0  0  0  0
   18.8743   -4.2424    3.1339 C   0  0  0  0  0  0  0  0  0  0  0  0
   19.3710   -5.0750    1.7071 Cl  0  0  0  0  0  0  0  0  0  0  0  0
   19.3389   -4.6732    4.3746 C   0  0  0  0  0  0  0  0  0  0  0  0
   18.9430   -4.0050    5.5303 C   0  0  0  0  0  0  0  0  0  0  0  0
   19.2189   -4.1856    6.8182 N   0  0  0  0  0  0  0  0  0  0  0  0
   18.5749   -3.2536    7.5183 C   0  0  0  0  0  0  0  0  0  0  0  0
   17.8849   -2.4775    6.6809 N   0  0  0  0  0  0  0  0  0  0  0  0
   18.0588    1.1386    9.3309 C   0  0  0  0  0  0  0  0  0  0  0  0
   19.2828    1.6475    8.7926 O   0  0  0  0  0  0  0  0  0  0  0  0
   19.7117    0.9603    8.2590 H   0  0  0  0  0  0  0  0  0  0  0  0
  5  4  1  0  0  0
  4  3  1  0  0  0
  4  6  1  0  0  0
  3 21  1  0  0  0
  3  2  1  0  0  0
 21 22  1  0  0  0
  7  6  1  0  0  0
  6  1  1  0  0  0
  2  1  1  0  0  0
  1 20  1  0  0  0
 20 19  1  0  0  0
 20 10  1  0  0  0
 19 18  2  0  0  0
 11 10  2  0  0  0
 11 12  1  0  0  0
 10 17  1  0  0  0
 13 12  1  0  0  0
 12 14  2  0  0  0
 18 17  1  0  0  0
 17 16  2  0  0  0
 14 16  1  0  0  0
 14 15  1  0  0  0
 22 23  1  0  0  0
  5  8  1  0  0  0
  7  9  1  0  0  0
M  END
> <minimizedAffinity>
-8.04429

$$$$
3H30_RFZ_A_336


 23 25  0  0  0  0  0  0  0  0999 V2000
   16.1872   -0.8950    6.0513 C   0  0  0  0  0  0  0  0  0  0  0  0
   16.7061    0.3586    5.5470 O   0  0  0  0  0  0  0  0  0  0  0  0
   15.7432    1.3982    5.8851 C   0  0  0  0  0  0  0  0  0  0  0  0
   14.7717    0.7476    6.9090 C   0  0  0  0  0  0  0  0  0  0  0  0
   13.5457    0.3964    6.2465 O   0  0  0  0  0  0  0  0  0  0  0  0
   15.5062   -0.5193    7.3528 C   0  0  0  0  0  0  0  0  0  0  0  0
   14.5768   -1.5397    7.7193 O   0  0  0  0  0  0  0  0  0  0  0  0
   13.7391   -0.1893    5.4978 H   0  0  0  0  0  0  0  0  0  0  0  0
   13.9630   -1.6970    6.9849 H   0  0  0  0  0  0  0  0  0  0  0  0
   17.8794   -2.5785    5.3382 C   0  0  0  0  0  0  0  0  0  0  0  0
   17.6689   -2.6922    3.9665 C   0  0  0  0  0  0  0  0  0  0  0  0
   18.4522   -3.5598    3.2126 C   0  0  0  0  0  0  0  0  0  0  0  0
   18.1800   -3.6906    1.5088 Cl  0  0  0  0  0  0  0  0  0  0  0  0
   19.4491   -4.3106    3.8367 C   0  0  0  0  0  0  0  0  0  0  0  0
   20.4335   -5.3869    2.9157 Cl  0  0  0  0  0  0  0  0  0  0  0  0
   19.6595   -4.1956    5.2090 C   0  0  0  0  0  0  0  0  0  0  0  0
   18.8694   -3.3278    5.9585 C   0  0  0  0  0  0  0  0  0  0  0  0
   18.8421   -3.0187    7.2512 N   0  0  0  0  0  0  0  0  0  0  0  0
   17.8816   -2.1169    7.4452 C   0  0  0  0  0  0  0  0  0  0  0  0
   17.2918   -1.8495    6.2788 N   0  0  0  0  0  0  0  0  0  0  0  0
   16.5127    2.5625    6.5156 C   0  0  0  0  0  0  0  0  0  0  0  0
   17.9151    2.2832    6.4752 O   0  0  0  0  0  0  0  0  0  0  0  0
   18.0970    1.4689    6.9700 H   0  0  0  0  0  0  0  0  0  0  0  0
  5  4  1  0  0  0
  4  3  1  0  0  0
  4  6  1  0  0  0
  3 21  1  0  0  0
  3  2  1  0  0  0
 21 22  1  0  0  0
  7  6  1  0  0  0
  6  1  1  0  0  0
  2  1  1  0  0  0
  1 20  1  0  0  0
 20 19  1  0  0  0
 20 10  1  0  0  0
 19 18  2  0  0  0
 11 10  2  0  0  0
 11 12  1  0  0  0
 10 17  1  0  0  0
 13 12  1  0  0  0
 12 14  2  0  0  0
 18 17  1  0  0  0
 17 16  2  0  0  0
 14 16  1  0  0  0
 14 15  1  0  0  0
 22 23  1  0  0  0
  5  8  1  0  0  0
  7  9  1  0  0  0
M  END
> <minimizedAffinity>
-7.92460

$$$$
3H30_RFZ_A_336


 23 25  0  0  0  0  0  0  0  0999 V2000
   15.9365   -0.5690    5.2065 C   0  0  0  0  0  0  0  0  0  0  0  0
   14.5721   -0.1240    5.0180 O   0  0  0  0  0  0  0  0  0  0  0  0
   14.2295    0.7277    6.1491 C   0  0  0  0  0  0  0  0  0  0  0  0
   15.5763    1.0329    6.8623 C   0  0  0  0  0  0  0  0  0  0  0  0
   15.6905    0.2130    8.0369 O   0  0  0  0  0  0  0  0  0  0  0  0
   16.6331    0.6221    5.8346 C   0  0  0  0  0  0  0  0  0  0  0  0
   17.8287    0.1900    6.4850 O   0  0  0  0  0  0  0  0  0  0  0  0
   15.6081   -0.7211    7.7885 H   0  0  0  0  0  0  0  0  0  0  0  0
   17.6173   -0.5186    7.1128 H   0  0  0  0  0  0  0  0  0  0  0  0
   17.3326   -1.9651    3.6872 C   0  0  0  0  0  0  0  0  0  0  0  0
   17.8205   -2.9676    4.5214 C   0  0  0  0  0  0  0  0  0  0  0  0
   18.6536   -3.9555    4.0070 C   0  0  0  0  0  0  0  0  0  0  0  0
   19.2521   -5.1956    5.0550 Cl  0  0  0  0  0  0  0  0  0  0  0  0
   18.9936   -3.9379    2.6539 C   0  0  0  0  0  0  0  0  0  0  0  0
   20.0209   -5.1589    1.9985 Cl  0  0  0  0  0  0  0  0  0  0  0  0
   18.5044   -2.9349    1.8200 C   0  0  0  0  0  0  0  0  0  0  0  0
   17.6737   -1.9468    2.3420 C   0  0  0  0  0  0  0  0  0  0  0  0
   17.0722   -0.8923    1.8001 N   0  0  0  0  0  0  0  0  0  0  0  0
   16.3820   -0.2691    2.7533 C   0  0  0  0  0  0  0  0  0  0  0  0
   16.5423   -0.9215    3.9059 N   0  0  0  0  0  0  0  0  0  0  0  0
   13.5937    2.0067    5.5971 C   0  0  0  0  0  0  0  0  0  0  0  0
   12.1702    1.8651    5.5887 O   0  0  0  0  0  0  0  0  0  0  0  0
   11.9234    1.1127    5.0284 H   0  0  0  0  0  0  0  0  0  0  0  0
  5  4  1  0  0  0
  4  3  1  0  0  0
  4  6  1  0  0  0
  3 21  1  0  0  0
  3  2  1  0  0  0
 21 22  1  0  0  0
  7  6  1  0  0  0
  6  1  1  0  0  0
  2  1  1  0  0  0
  1 20  1  0  0  0
 20 19  1  0  0  0
 20 10  1  0  0  0
 19 18  2  0  0  0
 11 10  2  0  0  0
 11 12  1  0  0  0
 10 17  1  0  0  0
 13 12  1  0  0  0
 12 14  2  0  0  0
 18 17  1  0  0  0
 17 16  2  0  0  0
 14 16  1  0  0  0
 14 15  1  0  0  0
 22 23  1  0  0  0
  5  8  1  0  0  0
  7  9  1  0  0  0
M  END
> <minimizedAffinity>
-7.83334

$$$$
3H30_RFZ_A_336


 23 25  0  0  0  0  0  0  0  0999 V2000
   17.6211   -2.7524    7.6388 C   0  0  0  0  0  0  0  0  0  0  0  0
   18.5976   -1.8758    8.2496 O   0  0  0  0  0  0  0  0  0  0  0  0
   18.1085   -1.5347    9.5788 C   0  0  0  0  0  0  0  0  0  0  0  0
   16.9389   -2.5197    9.8565 C   0  0  0  0  0  0  0  0  0  0  0  0
   15.6872   -1.8396    9.6662 O   0  0  0  0  0  0  0  0  0  0  0  0
   17.1126   -3.6010    8.7877 C   0  0  0  0  0  0  0  0  0  0  0  0
   15.8518   -4.1737    8.4391 O   0  0  0  0  0  0  0  0  0  0  0  0
   15.6531   -1.4698    8.7701 H   0  0  0  0  0  0  0  0  0  0  0  0
   15.2409   -3.4704    8.1686 H   0  0  0  0  0  0  0  0  0  0  0  0
   18.2512   -3.3246    5.2975 C   0  0  0  0  0  0  0  0  0  0  0  0
   17.6816   -2.2998    4.5463 C   0  0  0  0  0  0  0  0  0  0  0  0
   17.8330   -2.2846    3.1638 C   0  0  0  0  0  0  0  0  0  0  0  0
   17.1203   -1.0047    2.2429 Cl  0  0  0  0  0  0  0  0  0  0  0  0
   18.5595   -3.2974    2.5365 C   0  0  0  0  0  0  0  0  0  0  0  0
   18.7618   -3.2906    0.8234 Cl  0  0  0  0  0  0  0  0  0  0  0  0
   19.1295   -4.3219    3.2890 C   0  0  0  0  0  0  0  0  0  0  0  0
   18.9713   -4.3330    4.6723 C   0  0  0  0  0  0  0  0  0  0  0  0
   19.3914   -5.1614    5.6236 N   0  0  0  0  0  0  0  0  0  0  0  0
   18.9599   -4.7033    6.7972 C   0  0  0  0  0  0  0  0  0  0  0  0
   18.2618   -3.5838    6.5991 N   0  0  0  0  0  0  0  0  0  0  0  0
   19.2569   -1.7465   10.5693 C   0  0  0  0  0  0  0  0  0  0  0  0
   20.2864   -2.5199    9.9459 O   0  0  0  0  0  0  0  0  0  0  0  0
   19.9271   -3.3801    9.6776 H   0  0  0  0  0  0  0  0  0  0  0  0
  5  4  1  0  0  0
  4  3  1  0  0  0
  4  6  1  0  0  0
  3 21  1  0  0  0
  3  2  1  0  0  0
 21 22  1  0  0  0
  7  6  1  0  0  0
  6  1  1  0  0  0
  2  1  1  0  0  0
  1 20  1  0  0  0
 20 19  1  0  0  0
 20 10  1  0  0  0
 19 18  2  0  0  0
 11 10  2  0  0  0
 11 12  1  0  0  0
 10 17  1  0  0  0
 13 12  1  0  0  0
 12 14  2  0  0  0
 18 17  1  0  0  0
 17 16  2  0  0  0
 14 16  1  0  0  0
 14 15  1  0  0  0
 22 23  1  0  0  0
  5  8  1  0  0  0
  7  9  1  0  0  0
M  END
> <minimizedAffinity>
-7.73185

$$$$
3H30_RFZ_A_336


 23 25  0  0  0  0  0  0  0  0999 V2000
   16.9235   -1.0000    6.8069 C   0  0  0  0  0  0  0  0  0  0  0  0
   15.6697   -1.1051    6.0911 O   0  0  0  0  0  0  0  0  0  0  0  0
   15.1644    0.2469    5.8932 C   0  0  0  0  0  0  0  0  0  0  0  0
   16.3497    1.1889    6.2441 C   0  0  0  0  0  0  0  0  0  0  0  0
   16.1471    1.7424    7.5548 O   0  0  0  0  0  0  0  0  0  0  0  0
   17.5639    0.2577    6.2532 C   0  0  0  0  0  0  0  0  0  0  0  0
   18.5565    0.7310    7.1642 O   0  0  0  0  0  0  0  0  0  0  0  0
   16.0450    1.0230    8.1974 H   0  0  0  0  0  0  0  0  0  0  0  0
   18.1613    0.8444    8.0428 H   0  0  0  0  0  0  0  0  0  0  0  0
   17.9955   -2.7124    5.3492 C   0  0  0  0  0  0  0  0  0  0  0  0
   17.5672   -2.3667    4.0702 C   0  0  0  0  0  0  0  0  0  0  0  0
   17.9793   -3.1157    2.9730 C   0  0  0  0  0  0  0  0  0  0  0  0
   17.4398   -2.6743    1.3892 Cl  0  0  0  0  0  0  0  0  0  0  0  0
   18.8243   -4.2101    3.1609 C   0  0  0  0  0  0  0  0  0  0  0  0
   19.3495   -5.1462    1.8106 Cl  0  0  0  0  0  0  0  0  0  0  0  0
   19.2528   -4.5547    4.4409 C   0  0  0  0  0  0  0  0  0  0  0  0
   18.8337   -3.8028    5.5353 C   0  0  0  0  0  0  0  0  0  0  0  0
   19.0747   -3.8930    6.8396 N   0  0  0  0  0  0  0  0  0  0  0  0
   18.4218   -2.9086    7.4544 C   0  0  0  0  0  0  0  0  0  0  0  0
   17.7608   -2.1891    6.5461 N   0  0  0  0  0  0  0  0  0  0  0  0
   14.7638    0.3867    4.4219 C   0  0  0  0  0  0  0  0  0  0  0  0
   13.7468    1.3853    4.2985 O   0  0  0  0  0  0  0  0  0  0  0  0
   12.9727    1.1248    4.8218 H   0  0  0  0  0  0  0  0  0  0  0  0
  5  4  1  0  0  0
  4  3  1  0  0  0
  4  6  1  0  0  0
  3 21  1  0  0  0
  3  2  1  0  0  0
 21 22  1  0  0  0
  7  6  1  0  0  0
  6  1  1  0  0  0
  2  1  1  0  0  0
  1 20  1  0  0  0
 20 19  1  0  0  0
 20 10  1  0  0  0
 19 18  2  0  0  0
 11 10  2  0  0  0
 11 12  1  0  0  0
 10 17  1  0  0  0
 13 12  1  0  0  0
 12 14  2  0  0  0
 18 17  1  0  0  0
 17 16  2  0  0  0
 14 16  1  0  0  0
 14 15  1  0  0  0
 22 23  1  0  0  0
  5  8  1  0  0  0
  7  9  1  0  0  0
M  END
> <minimizedAffinity>
-7.49558

$$$$
3H30_RFZ_A_336


 23 25  0  0  0  0  0  0  0  0999 V2000
   16.7106   -1.9477    6.9791 C   0  0  0  0  0  0  0  0  0  0  0  0
   15.4866   -1.7044    7.7125 O   0  0  0  0  0  0  0  0  0  0  0  0
   15.8148   -1.7288    9.1317 C   0  0  0  0  0  0  0  0  0  0  0  0
   17.3665   -1.6757    9.2002 C   0  0  0  0  0  0  0  0  0  0  0  0
   17.8770   -2.9904    9.4762 O   0  0  0  0  0  0  0  0  0  0  0  0
   17.7781   -1.2415    7.7918 C   0  0  0  0  0  0  0  0  0  0  0  0
   19.0624   -1.7678    7.4561 O   0  0  0  0  0  0  0  0  0  0  0  0
   17.5586   -3.6093    8.8005 H   0  0  0  0  0  0  0  0  0  0  0  0
   19.0561   -2.7314    7.5672 H   0  0  0  0  0  0  0  0  0  0  0  0
   17.1705   -1.8997    4.5312 C   0  0  0  0  0  0  0  0  0  0  0  0
   17.9705   -3.0209    4.3272 C   0  0  0  0  0  0  0  0  0  0  0  0
   18.4284   -3.3250    3.0495 C   0  0  0  0  0  0  0  0  0  0  0  0
   19.4213   -4.7219    2.8106 Cl  0  0  0  0  0  0  0  0  0  0  0  0
   18.0797   -2.5042    1.9764 C   0  0  0  0  0  0  0  0  0  0  0  0
   18.6342   -2.8701    0.3845 Cl  0  0  0  0  0  0  0  0  0  0  0  0
   17.2787   -1.3830    2.1814 C   0  0  0  0  0  0  0  0  0  0  0  0
   16.8265   -1.0823    3.4636 C   0  0  0  0  0  0  0  0  0  0  0  0
   16.0681   -0.1038    3.9483 N   0  0  0  0  0  0  0  0  0  0  0  0
   15.9357   -0.2886    5.2605 C   0  0  0  0  0  0  0  0  0  0  0  0
   16.6102   -1.3828    5.6176 N   0  0  0  0  0  0  0  0  0  0  0  0
   15.1900   -0.4895    9.7785 C   0  0  0  0  0  0  0  0  0  0  0  0
   14.1378   -0.8923   10.6602 O   0  0  0  0  0  0  0  0  0  0  0  0
   13.4607   -1.3717   10.1578 H   0  0  0  0  0  0  0  0  0  0  0  0
  5  4  1  0  0  0
  4  3  1  0  0  0
  4  6  1  0  0  0
  3 21  1  0  0  0
  3  2  1  0  0  0
 21 22  1  0  0  0
  7  6  1  0  0  0
  6  1  1  0  0  0
  2  1  1  0  0  0
  1 20  1  0  0  0
 20 19  1  0  0  0
 20 10  1  0  0  0
 19 18  2  0  0  0
 11 10  2  0  0  0
 11 12  1  0  0  0
 10 17  1  0  0  0
 13 12  1  0  0  0
 12 14  2  0  0  0
 18 17  1  0  0  0
 17 16  2  0  0  0
 14 16  1  0  0  0
 14 15  1  0  0  0
 22 23  1  0  0  0
  5  8  1  0  0  0
  7  9  1  0  0  0
M  END
> <minimizedAffinity>
-7.36500

$$$$
3H30_RFZ_A_336


 23 25  0  0  0  0  0  0  0  0999 V2000
   16.9101   -2.6772    8.4777 C   0  0  0  0  0  0  0  0  0  0  0  0
   15.5599   -2.1922    8.6706 O   0  0  0  0  0  0  0  0  0  0  0  0
   15.4427   -1.7650   10.0584 C   0  0  0  0  0  0  0  0  0  0  0  0
   16.8977   -1.7171   10.6027 C   0  0  0  0  0  0  0  0  0  0  0  0
   17.1443   -2.8815   11.4080 O   0  0  0  0  0  0  0  0  0  0  0  0
   17.7601   -1.7643    9.3395 C   0  0  0  0  0  0  0  0  0  0  0  0
   19.0151   -2.3906    9.6080 O   0  0  0  0  0  0  0  0  0  0  0  0
   16.9727   -3.6794   10.8838 H   0  0  0  0  0  0  0  0  0  0  0  0
   18.8629   -3.2673    9.9941 H   0  0  0  0  0  0  0  0  0  0  0  0
   18.1252   -3.3945    6.4246 C   0  0  0  0  0  0  0  0  0  0  0  0
   18.8632   -4.4959    6.8500 C   0  0  0  0  0  0  0  0  0  0  0  0
   19.6790   -5.1752    5.9513 C   0  0  0  0  0  0  0  0  0  0  0  0
   20.5900   -6.5427    6.4936 Cl  0  0  0  0  0  0  0  0  0  0  0  0
   19.7507   -4.7495    4.6244 C   0  0  0  0  0  0  0  0  0  0  0  0
   20.7529   -5.5840    3.4954 Cl  0  0  0  0  0  0  0  0  0  0  0  0
   19.0114   -3.6478    4.1996 C   0  0  0  0  0  0  0  0  0  0  0  0
   18.1993   -2.9701    5.1052 C   0  0  0  0  0  0  0  0  0  0  0  0
   17.4010   -1.9135    4.9886 N   0  0  0  0  0  0  0  0  0  0  0  0
   16.8457   -1.6760    6.1755 C   0  0  0  0  0  0  0  0  0  0  0  0
   17.2890   -2.5777    7.0531 N   0  0  0  0  0  0  0  0  0  0  0  0
   14.8026   -0.3740   10.0681 C   0  0  0  0  0  0  0  0  0  0  0  0
   14.5765    0.0551    8.7222 O   0  0  0  0  0  0  0  0  0  0  0  0
   15.4219    0.0908    8.2479 H   0  0  0  0  0  0  0  0  0  0  0  0
  5  4  1  0  0  0
  4  3  1  0  0  0
  4  6  1  0  0  0
  3 21  1  0  0  0
  3  2  1  0  0  0
 21 22  1  0  0  0
  7  6  1  0  0  0
  6  1  1  0  0  0
  2  1  1  0  0  0
  1 20  1  0  0  0
 20 19  1  0  0  0
 20 10  1  0  0  0
 19 18  2  0  0  0
 11 10  2  0  0  0
 11 12  1  0  0  0
 10 17  1  0  0  0
 13 12  1  0  0  0
 12 14  2  0  0  0
 18 17  1  0  0  0
 17 16  2  0  0  0
 14 16  1  0  0  0
 14 15  1  0  0  0
 22 23  1  0  0  0
  5  8  1  0  0  0
  7  9  1  0  0  0
M  END
> <minimizedAffinity>
-7.32425

$$$$
3H30_RFZ_A_336


 23 25  0  0  0  0  0  0  0  0999 V2000
   19.8180   -3.8669    5.2258 C   0  0  0  0  0  0  0  0  0  0  0  0
   20.3950   -3.9471    3.9008 O   0  0  0  0  0  0  0  0  0  0  0  0
   21.1215   -5.2070    3.8155 C   0  0  0  0  0  0  0  0  0  0  0  0
   20.6742   -6.0292    5.0562 C   0  0  0  0  0  0  0  0  0  0  0  0
   21.7009   -5.9744    6.0602 O   0  0  0  0  0  0  0  0  0  0  0  0
   19.4245   -5.2953    5.5475 C   0  0  0  0  0  0  0  0  0  0  0  0
   19.2738   -5.4444    6.9597 O   0  0  0  0  0  0  0  0  0  0  0  0
   21.8894   -5.0486    6.2797 H   0  0  0  0  0  0  0  0  0  0  0  0
   20.0840   -5.1496    7.4043 H   0  0  0  0  0  0  0  0  0  0  0  0
   18.2527   -2.2080    6.2279 C   0  0  0  0  0  0  0  0  0  0  0  0
   18.7587   -2.0152    7.5108 C   0  0  0  0  0  0  0  0  0  0  0  0
   18.1293   -1.1309    8.3806 C   0  0  0  0  0  0  0  0  0  0  0  0
   18.7695   -0.9005    9.9716 Cl  0  0  0  0  0  0  0  0  0  0  0  0
   16.9934   -0.4381    7.9602 C   0  0  0  0  0  0  0  0  0  0  0  0
   16.2041    0.6666    9.0242 Cl  0  0  0  0  0  0  0  0  0  0  0  0
   16.4883   -0.6312    6.6763 C   0  0  0  0  0  0  0  0  0  0  0  0
   17.1212   -1.5205    5.8117 C   0  0  0  0  0  0  0  0  0  0  0  0
   16.8719   -1.8977    4.5615 N   0  0  0  0  0  0  0  0  0  0  0  0
   17.7990   -2.7824    4.1990 C   0  0  0  0  0  0  0  0  0  0  0  0
   18.6406   -2.9744    5.2162 N   0  0  0  0  0  0  0  0  0  0  0  0
   20.7071   -5.8997    2.5142 C   0  0  0  0  0  0  0  0  0  0  0  0
   19.5811   -5.2202    1.9512 O   0  0  0  0  0  0  0  0  0  0  0  0
   18.8425   -5.2428    2.5796 H   0  0  0  0  0  0  0  0  0  0  0  0
  5  4  1  0  0  0
  4  3  1  0  0  0
  4  6  1  0  0  0
  3 21  1  0  0  0
  3  2  1  0  0  0
 21 22  1  0  0  0
  7  6  1  0  0  0
  6  1  1  0  0  0
  2  1  1  0  0  0
  1 20  1  0  0  0
 20 19  1  0  0  0
 20 10  1  0  0  0
 19 18  2  0  0  0
 11 10  2  0  0  0
 11 12  1  0  0  0
 10 17  1  0  0  0
 13 12  1  0  0  0
 12 14  2  0  0  0
 18 17  1  0  0  0
 17 16  2  0  0  0
 14 16  1  0  0  0
 14 15  1  0  0  0
 22 23  1  0  0  0
  5  8  1  0  0  0
  7  9  1  0  0  0
M  END
> <minimizedAffinity>
-7.26399

$$$$
