6GW4_CHO_A_600


 36 39  0  0  0  0  0  0  0  0999 V2000
   59.7484   -1.9387  -12.7066 C   0  0  0  0  0  0  0  0  0  0  0  0
   60.9299   -1.3429  -11.9363 C   0  0  0  0  0  0  0  0  0  0  0  0
   61.7316   -2.4512  -11.2868 C   0  0  0  0  0  0  0  0  0  0  0  0
   62.8579   -1.8876  -10.6107 O   0  0  0  0  0  0  0  0  0  0  0  0
   60.8487   -3.1908  -10.3152 C   0  0  0  0  0  0  0  0  0  0  0  0
   59.6341   -3.8120  -11.0109 C   0  0  0  0  0  0  0  0  0  0  0  0
   58.7874   -4.6194  -10.0215 C   0  0  0  0  0  0  0  0  0  0  0  0
   57.8219   -3.8124   -9.1660 C   0  0  0  0  0  0  0  0  0  0  0  0
   58.5200   -3.1281   -8.1223 O   0  0  0  0  0  0  0  0  0  0  0  0
   57.0217   -2.8031   -9.9976 C   0  0  0  0  0  0  0  0  0  0  0  0
   57.9076   -1.9415  -10.9072 C   0  0  0  0  0  0  0  0  0  0  0  0
   58.7947   -2.8109  -11.8584 C   0  0  0  0  0  0  0  0  0  0  0  0
   57.0727   -0.8763  -11.6353 C   0  0  0  0  0  0  0  0  0  0  0  0
   56.1128   -0.1001  -10.7363 C   0  0  0  0  0  0  0  0  0  0  0  0
   55.2165   -1.0003   -9.8597 C   0  0  0  0  0  0  0  0  0  0  0  0
   56.1689   -1.9056   -9.0991 C   0  0  0  0  0  0  0  0  0  0  0  0
   55.3025   -2.5685   -8.0151 C   0  0  0  0  0  0  0  0  0  0  0  0
   54.2443   -1.5042   -7.6861 C   0  0  0  0  0  0  0  0  0  0  0  0
   54.4663   -0.3376   -8.6702 C   0  0  0  0  0  0  0  0  0  0  0  0
   54.2344   -1.7942  -10.7461 C   0  0  0  0  0  0  0  0  0  0  0  0
   57.9133   -3.5994  -12.8458 C   0  0  0  0  0  0  0  0  0  0  0  0
   62.5502   -1.2642   -9.9342 H   0  0  0  0  0  0  0  0  0  0  0  0
   59.1452   -2.4968   -8.5114 H   0  0  0  0  0  0  0  0  0  0  0  0
   53.1675    0.4583   -8.9226 C   0  0  0  0  0  0  0  0  0  0  0  0
   53.4169    1.8396   -9.5121 C   0  0  0  0  0  0  0  0  0  0  0  0
   52.3309    0.5754   -7.6312 C   0  0  0  0  0  0  0  0  0  0  0  0
   52.5622    1.8479   -6.8262 C   0  0  0  0  0  0  0  0  0  0  0  0
   51.2869    2.5977   -6.4946 C   0  0  0  0  0  0  0  0  0  0  0  0
   50.6976    3.2877   -7.3286 O   0  0  0  0  0  0  0  0  0  0  0  0
   50.8393    2.4747   -5.2517 N   0  0  0  0  0  0  0  0  0  0  0  0
   50.0123    2.9465   -5.0014 H   0  0  0  0  0  0  0  0  0  0  0  0
   51.5131    1.6768   -4.2445 C   0  0  0  0  0  0  0  0  0  0  0  0
   50.6922    0.4374   -3.9653 C   0  0  0  0  0  0  0  0  0  0  0  0
   50.7752   -0.5336   -4.7569 O   0  0  0  0  0  0  0  0  0  0  0  0
   49.9675    0.4244   -2.9451 O   0  0  0  0  0  0  0  0  0  0  0  0
   49.9371    1.1730   -2.3825 H   0  0  0  0  0  0  0  0  0  0  0  0
  1  2  1  0  0  0
  1 12  1  0  0  0
  2  3  1  0  0  0
  3  4  1  0  0  0
  3  5  1  0  0  0
  5  6  1  0  0  0
  6  7  1  0  0  0
  6 12  1  0  0  0
  7  8  1  0  0  0
  8  9  1  0  0  0
  8 10  1  0  0  0
 10 11  1  0  0  0
 10 16  1  0  0  0
 11 12  1  0  0  0
 11 13  1  0  0  0
 12 21  1  0  0  0
 13 14  1  0  0  0
 14 15  1  0  0  0
 15 16  1  0  0  0
 15 19  1  0  0  0
 15 20  1  0  0  0
 16 17  1  0  0  0
 17 18  1  0  0  0
 18 19  1  0  0  0
 19 24  1  0  0  0
 24 25  1  0  0  0
 24 26  1  0  0  0
 26 27  1  0  0  0
 27 28  1  0  0  0
 28 29  2  0  0  0
 28 30  1  0  0  0
 30 32  1  0  0  0
 32 33  1  0  0  0
 33 34  2  0  0  0
 33 35  1  0  0  0
  4 22  1  0  0  0
  9 23  1  0  0  0
 30 31  1  0  0  0
 35 36  1  0  0  0
M  END
> <minimizedAffinity>
-8.64220

$$$$
6GW4_CHO_A_600


 36 39  0  0  0  0  0  0  0  0999 V2000
   59.7175   -1.8386  -12.8365 C   0  0  0  0  0  0  0  0  0  0  0  0
   60.8995   -1.1989  -12.1030 C   0  0  0  0  0  0  0  0  0  0  0  0
   61.7458   -2.2745  -11.4553 C   0  0  0  0  0  0  0  0  0  0  0  0
   62.8713   -1.6699  -10.8142 O   0  0  0  0  0  0  0  0  0  0  0  0
   60.9058   -3.0220  -10.4522 C   0  0  0  0  0  0  0  0  0  0  0  0
   59.6932   -3.6869  -11.1099 C   0  0  0  0  0  0  0  0  0  0  0  0
   58.8916   -4.5009  -10.0889 C   0  0  0  0  0  0  0  0  0  0  0  0
   57.9241   -3.7067   -9.2238 C   0  0  0  0  0  0  0  0  0  0  0  0
   58.6267   -2.9871   -8.2072 O   0  0  0  0  0  0  0  0  0  0  0  0
   57.0779   -2.7328  -10.0521 C   0  0  0  0  0  0  0  0  0  0  0  0
   57.9189   -1.8623  -10.9952 C   0  0  0  0  0  0  0  0  0  0  0  0
   58.8077   -2.7226  -11.9531 C   0  0  0  0  0  0  0  0  0  0  0  0
   57.0389   -0.8319  -11.7200 C   0  0  0  0  0  0  0  0  0  0  0  0
   56.0787   -0.0676  -10.8112 C   0  0  0  0  0  0  0  0  0  0  0  0
   55.2276   -0.9775   -9.9003 C   0  0  0  0  0  0  0  0  0  0  0  0
   56.2214   -1.8443   -9.1481 C   0  0  0  0  0  0  0  0  0  0  0  0
   55.3983   -2.5130   -8.0342 C   0  0  0  0  0  0  0  0  0  0  0  0
   54.3192   -1.4725   -7.6972 C   0  0  0  0  0  0  0  0  0  0  0  0
   54.4868   -0.3163   -8.7041 C   0  0  0  0  0  0  0  0  0  0  0  0
   54.2477   -1.8117  -10.7513 C   0  0  0  0  0  0  0  0  0  0  0  0
   57.9260   -3.5503  -12.9075 C   0  0  0  0  0  0  0  0  0  0  0  0
   62.5621   -1.0443  -10.1405 H   0  0  0  0  0  0  0  0  0  0  0  0
   59.2254   -2.3455   -8.6203 H   0  0  0  0  0  0  0  0  0  0  0  0
   53.1612    0.4401   -8.9386 C   0  0  0  0  0  0  0  0  0  0  0  0
   53.3652    1.8776   -9.3963 C   0  0  0  0  0  0  0  0  0  0  0  0
   52.2741    0.4056   -7.6763 C   0  0  0  0  0  0  0  0  0  0  0  0
   52.4478    1.5896   -6.7336 C   0  0  0  0  0  0  0  0  0  0  0  0
   51.2244    1.8758   -5.8853 C   0  0  0  0  0  0  0  0  0  0  0  0
   50.8440    1.1035   -5.0034 O   0  0  0  0  0  0  0  0  0  0  0  0
   50.5791    3.0052   -6.1470 N   0  0  0  0  0  0  0  0  0  0  0  0
   49.7808    3.2245   -5.6141 H   0  0  0  0  0  0  0  0  0  0  0  0
   50.9961    3.9318   -7.1827 C   0  0  0  0  0  0  0  0  0  0  0  0
   49.9037    4.9554   -7.3992 C   0  0  0  0  0  0  0  0  0  0  0  0
   50.2164    6.1700   -7.4574 O   0  0  0  0  0  0  0  0  0  0  0  0
   48.7269    4.5484   -7.5236 O   0  0  0  0  0  0  0  0  0  0  0  0
   48.5404    3.6315   -7.4730 H   0  0  0  0  0  0  0  0  0  0  0  0
  1  2  1  0  0  0
  1 12  1  0  0  0
  2  3  1  0  0  0
  3  4  1  0  0  0
  3  5  1  0  0  0
  5  6  1  0  0  0
  6  7  1  0  0  0
  6 12  1  0  0  0
  7  8  1  0  0  0
  8  9  1  0  0  0
  8 10  1  0  0  0
 10 11  1  0  0  0
 10 16  1  0  0  0
 11 12  1  0  0  0
 11 13  1  0  0  0
 12 21  1  0  0  0
 13 14  1  0  0  0
 14 15  1  0  0  0
 15 16  1  0  0  0
 15 19  1  0  0  0
 15 20  1  0  0  0
 16 17  1  0  0  0
 17 18  1  0  0  0
 18 19  1  0  0  0
 19 24  1  0  0  0
 24 25  1  0  0  0
 24 26  1  0  0  0
 26 27  1  0  0  0
 27 28  1  0  0  0
 28 29  2  0  0  0
 28 30  1  0  0  0
 30 32  1  0  0  0
 32 33  1  0  0  0
 33 34  2  0  0  0
 33 35  1  0  0  0
  4 22  1  0  0  0
  9 23  1  0  0  0
 30 31  1  0  0  0
 35 36  1  0  0  0
M  END
> <minimizedAffinity>
-8.63924

$$$$
6GW4_CHO_A_600


 36 39  0  0  0  0  0  0  0  0999 V2000
   52.2681    4.7523   -8.0257 C   0  0  0  0  0  0  0  0  0  0  0  0
   50.7745    4.6351   -8.3413 C   0  0  0  0  0  0  0  0  0  0  0  0
   49.9713    4.7004   -7.0593 C   0  0  0  0  0  0  0  0  0  0  0  0
   48.5775    4.6378   -7.3697 O   0  0  0  0  0  0  0  0  0  0  0  0
   50.3669    3.5475   -6.1733 C   0  0  0  0  0  0  0  0  0  0  0  0
   51.8558    3.5895   -5.8176 C   0  0  0  0  0  0  0  0  0  0  0  0
   52.2242    2.4522   -4.8592 C   0  0  0  0  0  0  0  0  0  0  0  0
   52.4678    1.0963   -5.5054 C   0  0  0  0  0  0  0  0  0  0  0  0
   51.2308    0.4815   -5.8753 O   0  0  0  0  0  0  0  0  0  0  0  0
   53.3786    1.1999   -6.7343 C   0  0  0  0  0  0  0  0  0  0  0  0
   52.9275    2.2824   -7.7238 C   0  0  0  0  0  0  0  0  0  0  0  0
   52.8093    3.6870   -7.0449 C   0  0  0  0  0  0  0  0  0  0  0  0
   53.8058    2.2722   -8.9848 C   0  0  0  0  0  0  0  0  0  0  0  0
   54.0286    0.8882   -9.5906 C   0  0  0  0  0  0  0  0  0  0  0  0
   54.5121   -0.1659   -8.5722 C   0  0  0  0  0  0  0  0  0  0  0  0
   53.4890   -0.1473   -7.4506 C   0  0  0  0  0  0  0  0  0  0  0  0
   53.8006   -1.3978   -6.6112 C   0  0  0  0  0  0  0  0  0  0  0  0
   54.3394   -2.4064   -7.6373 C   0  0  0  0  0  0  0  0  0  0  0  0
   54.4324   -1.6626   -8.9852 C   0  0  0  0  0  0  0  0  0  0  0  0
   55.9307    0.1861   -8.0783 C   0  0  0  0  0  0  0  0  0  0  0  0
   54.1922    4.1753   -6.5733 C   0  0  0  0  0  0  0  0  0  0  0  0
   48.3868    3.8086   -7.8354 H   0  0  0  0  0  0  0  0  0  0  0  0
   50.7817    1.0310   -6.5366 H   0  0  0  0  0  0  0  0  0  0  0  0
   55.5145   -2.2692   -9.9046 C   0  0  0  0  0  0  0  0  0  0  0  0
   55.0271   -2.5061  -11.3272 C   0  0  0  0  0  0  0  0  0  0  0  0
   56.0743   -3.5787   -9.3102 C   0  0  0  0  0  0  0  0  0  0  0  0
   57.5651   -3.8015   -9.5309 C   0  0  0  0  0  0  0  0  0  0  0  0
   58.4269   -2.6384   -9.0804 C   0  0  0  0  0  0  0  0  0  0  0  0
   58.5205   -2.3136   -7.8952 O   0  0  0  0  0  0  0  0  0  0  0  0
   59.0744   -1.9827  -10.0349 N   0  0  0  0  0  0  0  0  0  0  0  0
   59.6452   -1.2226   -9.7785 H   0  0  0  0  0  0  0  0  0  0  0  0
   58.9798   -2.3346  -11.4393 C   0  0  0  0  0  0  0  0  0  0  0  0
   58.5051   -1.1292  -12.2200 C   0  0  0  0  0  0  0  0  0  0  0  0
   58.7370    0.0169  -11.7626 O   0  0  0  0  0  0  0  0  0  0  0  0
   57.9068   -1.3223  -13.3020 O   0  0  0  0  0  0  0  0  0  0  0  0
   57.7558   -2.1962  -13.6043 H   0  0  0  0  0  0  0  0  0  0  0  0
  1  2  1  0  0  0
  1 12  1  0  0  0
  2  3  1  0  0  0
  3  4  1  0  0  0
  3  5  1  0  0  0
  5  6  1  0  0  0
  6  7  1  0  0  0
  6 12  1  0  0  0
  7  8  1  0  0  0
  8  9  1  0  0  0
  8 10  1  0  0  0
 10 11  1  0  0  0
 10 16  1  0  0  0
 11 12  1  0  0  0
 11 13  1  0  0  0
 12 21  1  0  0  0
 13 14  1  0  0  0
 14 15  1  0  0  0
 15 16  1  0  0  0
 15 19  1  0  0  0
 15 20  1  0  0  0
 16 17  1  0  0  0
 17 18  1  0  0  0
 18 19  1  0  0  0
 19 24  1  0  0  0
 24 25  1  0  0  0
 24 26  1  0  0  0
 26 27  1  0  0  0
 27 28  1  0  0  0
 28 29  2  0  0  0
 28 30  1  0  0  0
 30 32  1  0  0  0
 32 33  1  0  0  0
 33 34  2  0  0  0
 33 35  1  0  0  0
  4 22  1  0  0  0
  9 23  1  0  0  0
 30 31  1  0  0  0
 35 36  1  0  0  0
M  END
> <minimizedAffinity>
-8.08089

$$$$
6GW4_CHO_A_600


 36 39  0  0  0  0  0  0  0  0999 V2000
   54.4694    2.7854   -5.5391 C   0  0  0  0  0  0  0  0  0  0  0  0
   55.0752    4.0119   -6.2268 C   0  0  0  0  0  0  0  0  0  0  0  0
   53.9922    4.7814   -6.9533 C   0  0  0  0  0  0  0  0  0  0  0  0
   54.5603    5.9488   -7.5513 O   0  0  0  0  0  0  0  0  0  0  0  0
   53.3815    3.8930   -8.0062 C   0  0  0  0  0  0  0  0  0  0  0  0
   52.7585    2.6344   -7.3958 C   0  0  0  0  0  0  0  0  0  0  0  0
   52.0802    1.7797   -8.4715 C   0  0  0  0  0  0  0  0  0  0  0  0
   53.0023    0.8736   -9.2741 C   0  0  0  0  0  0  0  0  0  0  0  0
   53.7422    1.6285  -10.2372 O   0  0  0  0  0  0  0  0  0  0  0  0
   53.9709    0.0965   -8.3749 C   0  0  0  0  0  0  0  0  0  0  0  0
   54.7082    0.9947   -7.3729 C   0  0  0  0  0  0  0  0  0  0  0  0
   53.7193    1.8174   -6.4824 C   0  0  0  0  0  0  0  0  0  0  0  0
   55.7430    0.1883   -6.5727 C   0  0  0  0  0  0  0  0  0  0  0  0
   56.6380   -0.7125   -7.4210 C   0  0  0  0  0  0  0  0  0  0  0  0
   55.8599   -1.6237   -8.3938 C   0  0  0  0  0  0  0  0  0  0  0  0
   54.9816   -0.6920   -9.2097 C   0  0  0  0  0  0  0  0  0  0  0  0
   54.4563   -1.5575  -10.3674 C   0  0  0  0  0  0  0  0  0  0  0  0
   55.5927   -2.5589  -10.6249 C   0  0  0  0  0  0  0  0  0  0  0  0
   56.6576   -2.3122   -9.5368 C   0  0  0  0  0  0  0  0  0  0  0  0
   55.0376   -2.6628   -7.6035 C   0  0  0  0  0  0  0  0  0  0  0  0
   52.8890    0.8763   -5.5888 C   0  0  0  0  0  0  0  0  0  0  0  0
   55.2537    5.6868   -8.1769 H   0  0  0  0  0  0  0  0  0  0  0  0
   54.3078    2.2702   -9.7798 H   0  0  0  0  0  0  0  0  0  0  0  0
   57.4873   -3.5813   -9.2445 C   0  0  0  0  0  0  0  0  0  0  0  0
   58.6859   -3.3183   -8.3435 C   0  0  0  0  0  0  0  0  0  0  0  0
   57.9457   -4.2560  -10.5545 C   0  0  0  0  0  0  0  0  0  0  0  0
   59.0165   -3.4988  -11.3294 C   0  0  0  0  0  0  0  0  0  0  0  0
   58.5695   -3.0548  -12.7084 C   0  0  0  0  0  0  0  0  0  0  0  0
   58.2827   -3.8616  -13.5949 O   0  0  0  0  0  0  0  0  0  0  0  0
   58.5075   -1.7453  -12.9126 N   0  0  0  0  0  0  0  0  0  0  0  0
   58.2191   -1.4208  -13.7962 H   0  0  0  0  0  0  0  0  0  0  0  0
   58.8452   -0.7698  -11.8932 C   0  0  0  0  0  0  0  0  0  0  0  0
   57.7373    0.2562  -11.8044 C   0  0  0  0  0  0  0  0  0  0  0  0
   57.8685    1.2205  -11.0113 O   0  0  0  0  0  0  0  0  0  0  0  0
   56.7334    0.1086  -12.5369 O   0  0  0  0  0  0  0  0  0  0  0  0
   56.6787   -0.6275  -13.1141 H   0  0  0  0  0  0  0  0  0  0  0  0
  1  2  1  0  0  0
  1 12  1  0  0  0
  2  3  1  0  0  0
  3  4  1  0  0  0
  3  5  1  0  0  0
  5  6  1  0  0  0
  6  7  1  0  0  0
  6 12  1  0  0  0
  7  8  1  0  0  0
  8  9  1  0  0  0
  8 10  1  0  0  0
 10 11  1  0  0  0
 10 16  1  0  0  0
 11 12  1  0  0  0
 11 13  1  0  0  0
 12 21  1  0  0  0
 13 14  1  0  0  0
 14 15  1  0  0  0
 15 16  1  0  0  0
 15 19  1  0  0  0
 15 20  1  0  0  0
 16 17  1  0  0  0
 17 18  1  0  0  0
 18 19  1  0  0  0
 19 24  1  0  0  0
 24 25  1  0  0  0
 24 26  1  0  0  0
 26 27  1  0  0  0
 27 28  1  0  0  0
 28 29  2  0  0  0
 28 30  1  0  0  0
 30 32  1  0  0  0
 32 33  1  0  0  0
 33 34  2  0  0  0
 33 35  1  0  0  0
  4 22  1  0  0  0
  9 23  1  0  0  0
 30 31  1  0  0  0
 35 36  1  0  0  0
M  END
> <minimizedAffinity>
-7.98674

$$$$
6GW4_CHO_A_600


 36 39  0  0  0  0  0  0  0  0999 V2000
   51.4469    3.6358   -5.5011 C   0  0  0  0  0  0  0  0  0  0  0  0
   50.0025    3.1627   -5.3166 C   0  0  0  0  0  0  0  0  0  0  0  0
   49.7791    2.7409   -3.8796 C   0  0  0  0  0  0  0  0  0  0  0  0
   48.4160    2.3465   -3.7080 O   0  0  0  0  0  0  0  0  0  0  0  0
   50.7044    1.5969   -3.5547 C   0  0  0  0  0  0  0  0  0  0  0  0
   52.1748    1.9901   -3.7237 C   0  0  0  0  0  0  0  0  0  0  0  0
   53.1016    0.8385   -3.3202 C   0  0  0  0  0  0  0  0  0  0  0  0
   53.3191   -0.2354   -4.3759 C   0  0  0  0  0  0  0  0  0  0  0  0
   52.1774   -1.0912   -4.4712 O   0  0  0  0  0  0  0  0  0  0  0  0
   53.6284    0.3650   -5.7523 C   0  0  0  0  0  0  0  0  0  0  0  0
   52.6253    1.4477   -6.1718 C   0  0  0  0  0  0  0  0  0  0  0  0
   52.5241    2.5966   -5.1147 C   0  0  0  0  0  0  0  0  0  0  0  0
   52.9140    1.9385   -7.5992 C   0  0  0  0  0  0  0  0  0  0  0  0
   53.1343    0.8242   -8.6199 C   0  0  0  0  0  0  0  0  0  0  0  0
   54.1726   -0.2284   -8.1771 C   0  0  0  0  0  0  0  0  0  0  0  0
   53.6968   -0.7250   -6.8235 C   0  0  0  0  0  0  0  0  0  0  0  0
   54.5466   -1.9753   -6.5406 C   0  0  0  0  0  0  0  0  0  0  0  0
   54.8125   -2.5641   -7.9346 C   0  0  0  0  0  0  0  0  0  0  0  0
   54.2193   -1.5728   -8.9564 C   0  0  0  0  0  0  0  0  0  0  0  0
   55.5763    0.4081   -8.1083 C   0  0  0  0  0  0  0  0  0  0  0  0
   53.8612    3.3553   -5.0141 C   0  0  0  0  0  0  0  0  0  0  0  0
   48.2161    1.6068   -4.3028 H   0  0  0  0  0  0  0  0  0  0  0  0
   51.4074   -0.5729   -4.7526 H   0  0  0  0  0  0  0  0  0  0  0  0
   54.9396   -1.6510  -10.3200 C   0  0  0  0  0  0  0  0  0  0  0  0
   54.0737   -2.2474  -11.4209 C   0  0  0  0  0  0  0  0  0  0  0  0
   56.2633   -2.4355  -10.2019 C   0  0  0  0  0  0  0  0  0  0  0  0
   57.5137   -1.6507  -10.5775 C   0  0  0  0  0  0  0  0  0  0  0  0
   57.4433   -1.0166  -11.9528 C   0  0  0  0  0  0  0  0  0  0  0  0
   56.8470    0.0428  -12.1554 O   0  0  0  0  0  0  0  0  0  0  0  0
   58.0567   -1.6682  -12.9323 N   0  0  0  0  0  0  0  0  0  0  0  0
   58.0331   -1.2845  -13.8387 H   0  0  0  0  0  0  0  0  0  0  0  0
   58.7606   -2.9205  -12.7287 C   0  0  0  0  0  0  0  0  0  0  0  0
   60.2383   -2.6373  -12.5736 C   0  0  0  0  0  0  0  0  0  0  0  0
   60.8573   -3.1630  -11.6161 O   0  0  0  0  0  0  0  0  0  0  0  0
   60.7908   -1.8953  -13.4164 O   0  0  0  0  0  0  0  0  0  0  0  0
   60.2884   -1.5245  -14.1150 H   0  0  0  0  0  0  0  0  0  0  0  0
  1  2  1  0  0  0
  1 12  1  0  0  0
  2  3  1  0  0  0
  3  4  1  0  0  0
  3  5  1  0  0  0
  5  6  1  0  0  0
  6  7  1  0  0  0
  6 12  1  0  0  0
  7  8  1  0  0  0
  8  9  1  0  0  0
  8 10  1  0  0  0
 10 11  1  0  0  0
 10 16  1  0  0  0
 11 12  1  0  0  0
 11 13  1  0  0  0
 12 21  1  0  0  0
 13 14  1  0  0  0
 14 15  1  0  0  0
 15 16  1  0  0  0
 15 19  1  0  0  0
 15 20  1  0  0  0
 16 17  1  0  0  0
 17 18  1  0  0  0
 18 19  1  0  0  0
 19 24  1  0  0  0
 24 25  1  0  0  0
 24 26  1  0  0  0
 26 27  1  0  0  0
 27 28  1  0  0  0
 28 29  2  0  0  0
 28 30  1  0  0  0
 30 32  1  0  0  0
 32 33  1  0  0  0
 33 34  2  0  0  0
 33 35  1  0  0  0
  4 22  1  0  0  0
  9 23  1  0  0  0
 30 31  1  0  0  0
 35 36  1  0  0  0
M  END
> <minimizedAffinity>
-7.81366

$$$$
6GW4_CHO_A_600


 36 39  0  0  0  0  0  0  0  0999 V2000
   53.0572    1.3124   -4.7832 C   0  0  0  0  0  0  0  0  0  0  0  0
   53.7850    2.6581   -4.7251 C   0  0  0  0  0  0  0  0  0  0  0  0
   52.9727    3.7136   -5.4454 C   0  0  0  0  0  0  0  0  0  0  0  0
   53.6380    4.9747   -5.3440 O   0  0  0  0  0  0  0  0  0  0  0  0
   52.8185    3.3129   -6.8898 C   0  0  0  0  0  0  0  0  0  0  0  0
   52.1030    1.9665   -7.0325 C   0  0  0  0  0  0  0  0  0  0  0  0
   51.8912    1.6102   -8.5076 C   0  0  0  0  0  0  0  0  0  0  0  0
   53.0878    0.9930   -9.2166 C   0  0  0  0  0  0  0  0  0  0  0  0
   54.0655    1.9907   -9.5227 O   0  0  0  0  0  0  0  0  0  0  0  0
   53.7340   -0.1239   -8.3887 C   0  0  0  0  0  0  0  0  0  0  0  0
   54.0238    0.2954   -6.9413 C   0  0  0  0  0  0  0  0  0  0  0  0
   52.7395    0.8079   -6.2094 C   0  0  0  0  0  0  0  0  0  0  0  0
   54.7680   -0.8178   -6.1872 C   0  0  0  0  0  0  0  0  0  0  0  0
   55.9545   -1.4114   -6.9432 C   0  0  0  0  0  0  0  0  0  0  0  0
   55.6173   -1.8505   -8.3839 C   0  0  0  0  0  0  0  0  0  0  0  0
   55.0174   -0.6264   -9.0524 C   0  0  0  0  0  0  0  0  0  0  0  0
   54.9778   -0.9740  -10.5501 C   0  0  0  0  0  0  0  0  0  0  0  0
   56.1934   -1.8924  -10.7483 C   0  0  0  0  0  0  0  0  0  0  0  0
   56.8010   -2.1333   -9.3513 C   0  0  0  0  0  0  0  0  0  0  0  0
   54.6397   -3.0438   -8.3591 C   0  0  0  0  0  0  0  0  0  0  0  0
   51.7127   -0.3312   -6.0622 C   0  0  0  0  0  0  0  0  0  0  0  0
   54.5193    4.9083   -5.7437 H   0  0  0  0  0  0  0  0  0  0  0  0
   54.3979    2.3811   -8.6992 H   0  0  0  0  0  0  0  0  0  0  0  0
   57.5567   -3.4777   -9.2756 C   0  0  0  0  0  0  0  0  0  0  0  0
   58.8656   -3.3859   -8.5037 C   0  0  0  0  0  0  0  0  0  0  0  0
   57.8111   -4.0491  -10.6864 C   0  0  0  0  0  0  0  0  0  0  0  0
   59.1381   -3.6450  -11.3160 C   0  0  0  0  0  0  0  0  0  0  0  0
   59.0165   -3.2080  -12.7627 C   0  0  0  0  0  0  0  0  0  0  0  0
   58.3146   -3.8157  -13.5732 O   0  0  0  0  0  0  0  0  0  0  0  0
   59.7129   -2.1343  -13.1126 N   0  0  0  0  0  0  0  0  0  0  0  0
   59.6563   -1.8206  -14.0441 H   0  0  0  0  0  0  0  0  0  0  0  0
   60.5541   -1.4011  -12.1852 C   0  0  0  0  0  0  0  0  0  0  0  0
   62.0048   -1.6277  -12.5487 C   0  0  0  0  0  0  0  0  0  0  0  0
   62.7958   -2.0260  -11.6588 O   0  0  0  0  0  0  0  0  0  0  0  0
   62.3588   -1.4188  -13.7308 O   0  0  0  0  0  0  0  0  0  0  0  0
   61.7330   -1.1216  -14.3617 H   0  0  0  0  0  0  0  0  0  0  0  0
  1  2  1  0  0  0
  1 12  1  0  0  0
  2  3  1  0  0  0
  3  4  1  0  0  0
  3  5  1  0  0  0
  5  6  1  0  0  0
  6  7  1  0  0  0
  6 12  1  0  0  0
  7  8  1  0  0  0
  8  9  1  0  0  0
  8 10  1  0  0  0
 10 11  1  0  0  0
 10 16  1  0  0  0
 11 12  1  0  0  0
 11 13  1  0  0  0
 12 21  1  0  0  0
 13 14  1  0  0  0
 14 15  1  0  0  0
 15 16  1  0  0  0
 15 19  1  0  0  0
 15 20  1  0  0  0
 16 17  1  0  0  0
 17 18  1  0  0  0
 18 19  1  0  0  0
 19 24  1  0  0  0
 24 25  1  0  0  0
 24 26  1  0  0  0
 26 27  1  0  0  0
 27 28  1  0  0  0
 28 29  2  0  0  0
 28 30  1  0  0  0
 30 32  1  0  0  0
 32 33  1  0  0  0
 33 34  2  0  0  0
 33 35  1  0  0  0
  4 22  1  0  0  0
  9 23  1  0  0  0
 30 31  1  0  0  0
 35 36  1  0  0  0
M  END
> <minimizedAffinity>
-7.64625

$$$$
6GW4_CHO_A_600


 36 39  0  0  0  0  0  0  0  0999 V2000
   54.2376   -2.7978   -8.5545 C   0  0  0  0  0  0  0  0  0  0  0  0
   54.2287   -2.1441   -7.1701 C   0  0  0  0  0  0  0  0  0  0  0  0
   53.4547   -0.8437   -7.2204 C   0  0  0  0  0  0  0  0  0  0  0  0
   53.4127   -0.2664   -5.9134 O   0  0  0  0  0  0  0  0  0  0  0  0
   54.1304    0.0921   -8.1891 C   0  0  0  0  0  0  0  0  0  0  0  0
   54.1862   -0.4961   -9.6019 C   0  0  0  0  0  0  0  0  0  0  0  0
   54.8108    0.4977  -10.5868 C   0  0  0  0  0  0  0  0  0  0  0  0
   56.3316    0.5466  -10.6008 C   0  0  0  0  0  0  0  0  0  0  0  0
   56.8266    1.2537   -9.4607 O   0  0  0  0  0  0  0  0  0  0  0  0
   56.9520   -0.8547  -10.6464 C   0  0  0  0  0  0  0  0  0  0  0  0
   56.3753   -1.7992   -9.5835 C   0  0  0  0  0  0  0  0  0  0  0  0
   54.8185   -1.9168   -9.6841 C   0  0  0  0  0  0  0  0  0  0  0  0
   57.1043   -3.1519   -9.5993 C   0  0  0  0  0  0  0  0  0  0  0  0
   58.6279   -3.0504   -9.6226 C   0  0  0  0  0  0  0  0  0  0  0  0
   59.1721   -2.1167  -10.7245 C   0  0  0  0  0  0  0  0  0  0  0  0
   58.4742   -0.7854  -10.5112 C   0  0  0  0  0  0  0  0  0  0  0  0
   59.2421    0.2095  -11.3976 C   0  0  0  0  0  0  0  0  0  0  0  0
   60.6811   -0.3290  -11.3961 C   0  0  0  0  0  0  0  0  0  0  0  0
   60.6556   -1.6630  -10.6225 C   0  0  0  0  0  0  0  0  0  0  0  0
   58.8820   -2.7148  -12.1168 C   0  0  0  0  0  0  0  0  0  0  0  0
   54.4130   -2.5743  -11.0170 C   0  0  0  0  0  0  0  0  0  0  0  0
   54.3169   -0.0994   -5.6045 H   0  0  0  0  0  0  0  0  0  0  0  0
   56.5683    0.7845   -8.6520 H   0  0  0  0  0  0  0  0  0  0  0  0
   61.7869   -2.6123  -11.0735 C   0  0  0  0  0  0  0  0  0  0  0  0
   62.6675   -3.0825   -9.9241 C   0  0  0  0  0  0  0  0  0  0  0  0
   62.6516   -1.9591  -12.1721 C   0  0  0  0  0  0  0  0  0  0  0  0
   64.0604   -1.5733  -11.7396 C   0  0  0  0  0  0  0  0  0  0  0  0
   64.4540   -0.1643  -12.1373 C   0  0  0  0  0  0  0  0  0  0  0  0
   63.9515    0.8295  -11.6093 O   0  0  0  0  0  0  0  0  0  0  0  0
   65.3693   -0.0573  -13.0919 N   0  0  0  0  0  0  0  0  0  0  0  0
   65.6506    0.8430  -13.3742 H   0  0  0  0  0  0  0  0  0  0  0  0
   65.9747   -1.2064  -13.7386 C   0  0  0  0  0  0  0  0  0  0  0  0
   65.4503   -1.3103  -15.1536 C   0  0  0  0  0  0  0  0  0  0  0  0
   65.9224   -0.5462  -16.0308 O   0  0  0  0  0  0  0  0  0  0  0  0
   64.5701   -2.1658  -15.3977 O   0  0  0  0  0  0  0  0  0  0  0  0
   64.2471   -2.7149  -14.7106 H   0  0  0  0  0  0  0  0  0  0  0  0
  1  2  1  0  0  0
  1 12  1  0  0  0
  2  3  1  0  0  0
  3  4  1  0  0  0
  3  5  1  0  0  0
  5  6  1  0  0  0
  6  7  1  0  0  0
  6 12  1  0  0  0
  7  8  1  0  0  0
  8  9  1  0  0  0
  8 10  1  0  0  0
 10 11  1  0  0  0
 10 16  1  0  0  0
 11 12  1  0  0  0
 11 13  1  0  0  0
 12 21  1  0  0  0
 13 14  1  0  0  0
 14 15  1  0  0  0
 15 16  1  0  0  0
 15 19  1  0  0  0
 15 20  1  0  0  0
 16 17  1  0  0  0
 17 18  1  0  0  0
 18 19  1  0  0  0
 19 24  1  0  0  0
 24 25  1  0  0  0
 24 26  1  0  0  0
 26 27  1  0  0  0
 27 28  1  0  0  0
 28 29  2  0  0  0
 28 30  1  0  0  0
 30 32  1  0  0  0
 32 33  1  0  0  0
 33 34  2  0  0  0
 33 35  1  0  0  0
  4 22  1  0  0  0
  9 23  1  0  0  0
 30 31  1  0  0  0
 35 36  1  0  0  0
M  END
> <minimizedAffinity>
-7.06360

$$$$
6GW4_CHO_A_600


 36 39  0  0  0  0  0  0  0  0999 V2000
   60.4602   -0.9231  -10.3617 C   0  0  0  0  0  0  0  0  0  0  0  0
   61.1693   -2.1325   -9.7464 C   0  0  0  0  0  0  0  0  0  0  0  0
   61.0593   -3.3216  -10.6775 C   0  0  0  0  0  0  0  0  0  0  0  0
   61.7647   -4.4305  -10.1154 O   0  0  0  0  0  0  0  0  0  0  0  0
   59.6040   -3.6632  -10.8671 C   0  0  0  0  0  0  0  0  0  0  0  0
   58.8209   -2.4956  -11.4741 C   0  0  0  0  0  0  0  0  0  0  0  0
   57.3606   -2.8851  -11.7262 C   0  0  0  0  0  0  0  0  0  0  0  0
   56.4388   -2.8102  -10.5178 C   0  0  0  0  0  0  0  0  0  0  0  0
   56.6595   -3.9191   -9.6424 O   0  0  0  0  0  0  0  0  0  0  0  0
   56.6126   -1.4994   -9.7419 C   0  0  0  0  0  0  0  0  0  0  0  0
   58.0794   -1.1855   -9.4187 C   0  0  0  0  0  0  0  0  0  0  0  0
   58.9701   -1.1500  -10.7045 C   0  0  0  0  0  0  0  0  0  0  0  0
   58.1908    0.0766   -8.5491 C   0  0  0  0  0  0  0  0  0  0  0  0
   57.2395    0.1092   -7.3549 C   0  0  0  0  0  0  0  0  0  0  0  0
   55.7688   -0.1797   -7.7234 C   0  0  0  0  0  0  0  0  0  0  0  0
   55.7863   -1.5102   -8.4545 C   0  0  0  0  0  0  0  0  0  0  0  0
   54.3104   -1.9348   -8.5370 C   0  0  0  0  0  0  0  0  0  0  0  0
   53.6864   -1.3513   -7.2601 C   0  0  0  0  0  0  0  0  0  0  0  0
   54.7856   -0.5196   -6.5681 C   0  0  0  0  0  0  0  0  0  0  0  0
   55.2070    0.9620   -8.5960 C   0  0  0  0  0  0  0  0  0  0  0  0
   58.5417    0.0089  -11.6247 C   0  0  0  0  0  0  0  0  0  0  0  0
   61.3827   -4.6524   -9.2518 H   0  0  0  0  0  0  0  0  0  0  0  0
   57.5682   -3.8884   -9.3045 H   0  0  0  0  0  0  0  0  0  0  0  0
   54.1921    0.6113   -5.7004 C   0  0  0  0  0  0  0  0  0  0  0  0
   54.3203    0.3495   -4.2063 C   0  0  0  0  0  0  0  0  0  0  0  0
   52.7167    0.8744   -6.0686 C   0  0  0  0  0  0  0  0  0  0  0  0
   52.4181    2.2820   -6.5687 C   0  0  0  0  0  0  0  0  0  0  0  0
   51.6809    2.3130   -7.8931 C   0  0  0  0  0  0  0  0  0  0  0  0
   51.6606    1.3436   -8.6538 O   0  0  0  0  0  0  0  0  0  0  0  0
   51.0595    3.4462   -8.1933 N   0  0  0  0  0  0  0  0  0  0  0  0
   50.5687    3.5016   -9.0450 H   0  0  0  0  0  0  0  0  0  0  0  0
   51.0702    4.6076   -7.3237 C   0  0  0  0  0  0  0  0  0  0  0  0
   49.6986    5.2454   -7.3340 C   0  0  0  0  0  0  0  0  0  0  0  0
   49.6006    6.4720   -7.0849 O   0  0  0  0  0  0  0  0  0  0  0  0
   48.7120    4.5240   -7.6028 O   0  0  0  0  0  0  0  0  0  0  0  0
   48.8332    3.6124   -7.7824 H   0  0  0  0  0  0  0  0  0  0  0  0
  1  2  1  0  0  0
  1 12  1  0  0  0
  2  3  1  0  0  0
  3  4  1  0  0  0
  3  5  1  0  0  0
  5  6  1  0  0  0
  6  7  1  0  0  0
  6 12  1  0  0  0
  7  8  1  0  0  0
  8  9  1  0  0  0
  8 10  1  0  0  0
 10 11  1  0  0  0
 10 16  1  0  0  0
 11 12  1  0  0  0
 11 13  1  0  0  0
 12 21  1  0  0  0
 13 14  1  0  0  0
 14 15  1  0  0  0
 15 16  1  0  0  0
 15 19  1  0  0  0
 15 20  1  0  0  0
 16 17  1  0  0  0
 17 18  1  0  0  0
 18 19  1  0  0  0
 19 24  1  0  0  0
 24 25  1  0  0  0
 24 26  1  0  0  0
 26 27  1  0  0  0
 27 28  1  0  0  0
 28 29  2  0  0  0
 28 30  1  0  0  0
 30 32  1  0  0  0
 32 33  1  0  0  0
 33 34  2  0  0  0
 33 35  1  0  0  0
  4 22  1  0  0  0
  9 23  1  0  0  0
 30 31  1  0  0  0
 35 36  1  0  0  0
M  END
> <minimizedAffinity>
-6.99236

$$$$
6GW4_CHO_A_600


 36 39  0  0  0  0  0  0  0  0999 V2000
   54.3911    1.2309   -5.0116 C   0  0  0  0  0  0  0  0  0  0  0  0
   54.3046    2.7592   -4.9814 C   0  0  0  0  0  0  0  0  0  0  0  0
   52.8980    3.2016   -5.3256 C   0  0  0  0  0  0  0  0  0  0  0  0
   52.8171    4.6266   -5.2481 O   0  0  0  0  0  0  0  0  0  0  0  0
   52.5617    2.7289   -6.7164 C   0  0  0  0  0  0  0  0  0  0  0  0
   52.6340    1.2035   -6.8308 C   0  0  0  0  0  0  0  0  0  0  0  0
   52.2194    0.7370   -8.2301 C   0  0  0  0  0  0  0  0  0  0  0  0
   53.2981    0.8186   -9.3003 C   0  0  0  0  0  0  0  0  0  0  0  0
   53.4871    2.1701   -9.7275 O   0  0  0  0  0  0  0  0  0  0  0  0
   54.6332    0.2402   -8.8169 C   0  0  0  0  0  0  0  0  0  0  0  0
   55.0703    0.8003   -7.4568 C   0  0  0  0  0  0  0  0  0  0  0  0
   53.9812    0.5845   -6.3546 C   0  0  0  0  0  0  0  0  0  0  0  0
   56.4613    0.2742   -7.0693 C   0  0  0  0  0  0  0  0  0  0  0  0
   57.5062    0.3687   -8.1789 C   0  0  0  0  0  0  0  0  0  0  0  0
   57.0428   -0.2329   -9.5225 C   0  0  0  0  0  0  0  0  0  0  0  0
   55.7362    0.4664   -9.8524 C   0  0  0  0  0  0  0  0  0  0  0  0
   55.4497    0.0973  -11.3177 C   0  0  0  0  0  0  0  0  0  0  0  0
   56.8462   -0.0487  -11.9414 C   0  0  0  0  0  0  0  0  0  0  0  0
   57.8646    0.1166  -10.7950 C   0  0  0  0  0  0  0  0  0  0  0  0
   56.8730   -1.7606   -9.3886 C   0  0  0  0  0  0  0  0  0  0  0  0
   53.7793   -0.9187   -6.0839 C   0  0  0  0  0  0  0  0  0  0  0  0
   53.4477    5.0206   -5.8710 H   0  0  0  0  0  0  0  0  0  0  0  0
   53.7931    2.7060   -8.9791 H   0  0  0  0  0  0  0  0  0  0  0  0
   59.1875   -0.6239  -11.0882 C   0  0  0  0  0  0  0  0  0  0  0  0
   60.4193    0.2456  -10.8783 C   0  0  0  0  0  0  0  0  0  0  0  0
   59.1883   -1.2101  -12.5157 C   0  0  0  0  0  0  0  0  0  0  0  0
   59.7375   -2.6263  -12.6309 C   0  0  0  0  0  0  0  0  0  0  0  0
   58.7392   -3.6990  -12.2423 C   0  0  0  0  0  0  0  0  0  0  0  0
   57.7858   -3.9983  -12.9637 O   0  0  0  0  0  0  0  0  0  0  0  0
   58.9447   -4.2983  -11.0765 N   0  0  0  0  0  0  0  0  0  0  0  0
   58.3169   -5.0016  -10.7927 H   0  0  0  0  0  0  0  0  0  0  0  0
   60.0523   -3.9644  -10.2008 C   0  0  0  0  0  0  0  0  0  0  0  0
   59.9115   -4.7383   -8.9088 C   0  0  0  0  0  0  0  0  0  0  0  0
   59.3891   -4.1708   -7.9181 O   0  0  0  0  0  0  0  0  0  0  0  0
   60.3131   -5.9232   -8.8813 O   0  0  0  0  0  0  0  0  0  0  0  0
   60.6970   -6.3056   -9.6458 H   0  0  0  0  0  0  0  0  0  0  0  0
  1  2  1  0  0  0
  1 12  1  0  0  0
  2  3  1  0  0  0
  3  4  1  0  0  0
  3  5  1  0  0  0
  5  6  1  0  0  0
  6  7  1  0  0  0
  6 12  1  0  0  0
  7  8  1  0  0  0
  8  9  1  0  0  0
  8 10  1  0  0  0
 10 11  1  0  0  0
 10 16  1  0  0  0
 11 12  1  0  0  0
 11 13  1  0  0  0
 12 21  1  0  0  0
 13 14  1  0  0  0
 14 15  1  0  0  0
 15 16  1  0  0  0
 15 19  1  0  0  0
 15 20  1  0  0  0
 16 17  1  0  0  0
 17 18  1  0  0  0
 18 19  1  0  0  0
 19 24  1  0  0  0
 24 25  1  0  0  0
 24 26  1  0  0  0
 26 27  1  0  0  0
 27 28  1  0  0  0
 28 29  2  0  0  0
 28 30  1  0  0  0
 30 32  1  0  0  0
 32 33  1  0  0  0
 33 34  2  0  0  0
 33 35  1  0  0  0
  4 22  1  0  0  0
  9 23  1  0  0  0
 30 31  1  0  0  0
 35 36  1  0  0  0
M  END
> <minimizedAffinity>
-6.84342

$$$$
6GW4_CHO_A_600


 36 39  0  0  0  0  0  0  0  0999 V2000
   52.2674   -0.6419   -6.1687 C   0  0  0  0  0  0  0  0  0  0  0  0
   52.9440   -1.0173   -4.8475 C   0  0  0  0  0  0  0  0  0  0  0  0
   53.2334    0.2334   -4.0445 C   0  0  0  0  0  0  0  0  0  0  0  0
   53.8213   -0.1320   -2.7938 O   0  0  0  0  0  0  0  0  0  0  0  0
   54.1695    1.1151   -4.8300 C   0  0  0  0  0  0  0  0  0  0  0  0
   53.5653    1.5290   -6.1749 C   0  0  0  0  0  0  0  0  0  0  0  0
   54.4997    2.4823   -6.9272 C   0  0  0  0  0  0  0  0  0  0  0  0
   55.6354    1.8237   -7.6966 C   0  0  0  0  0  0  0  0  0  0  0  0
   56.6696    1.3960   -6.8064 O   0  0  0  0  0  0  0  0  0  0  0  0
   55.1502    0.6331   -8.5317 C   0  0  0  0  0  0  0  0  0  0  0  0
   54.2973   -0.3553   -7.7254 C   0  0  0  0  0  0  0  0  0  0  0  0
   53.0692    0.3415   -7.0516 C   0  0  0  0  0  0  0  0  0  0  0  0
   53.9286   -1.5812   -8.5756 C   0  0  0  0  0  0  0  0  0  0  0  0
   55.0995   -2.2005   -9.3355 C   0  0  0  0  0  0  0  0  0  0  0  0
   55.9145   -1.1815  -10.1598 C   0  0  0  0  0  0  0  0  0  0  0  0
   56.3273   -0.1004   -9.1771 C   0  0  0  0  0  0  0  0  0  0  0  0
   57.3845    0.7298   -9.9245 C   0  0  0  0  0  0  0  0  0  0  0  0
   58.0744   -0.2910  -10.8424 C   0  0  0  0  0  0  0  0  0  0  0  0
   57.3121   -1.6219  -10.6793 C   0  0  0  0  0  0  0  0  0  0  0  0
   55.0559   -0.6271  -11.3156 C   0  0  0  0  0  0  0  0  0  0  0  0
   52.0981    0.8745   -8.1222 C   0  0  0  0  0  0  0  0  0  0  0  0
   54.6452   -0.6183   -2.9537 H   0  0  0  0  0  0  0  0  0  0  0  0
   56.3171    0.7269   -6.1990 H   0  0  0  0  0  0  0  0  0  0  0  0
   57.4245   -2.5083  -11.9386 C   0  0  0  0  0  0  0  0  0  0  0  0
   57.6014   -3.9857  -11.6167 C   0  0  0  0  0  0  0  0  0  0  0  0
   58.5676   -2.0241  -12.8553 C   0  0  0  0  0  0  0  0  0  0  0  0
   59.8221   -2.8879  -12.8328 C   0  0  0  0  0  0  0  0  0  0  0  0
   61.0762   -2.1286  -12.4467 C   0  0  0  0  0  0  0  0  0  0  0  0
   61.6764   -1.4069  -13.2453 O   0  0  0  0  0  0  0  0  0  0  0  0
   61.4980   -2.2866  -11.1987 N   0  0  0  0  0  0  0  0  0  0  0  0
   62.3086   -1.8068  -10.9124 H   0  0  0  0  0  0  0  0  0  0  0  0
   60.8191   -3.1342  -10.2365 C   0  0  0  0  0  0  0  0  0  0  0  0
   61.8456   -3.9648   -9.4987 C   0  0  0  0  0  0  0  0  0  0  0  0
   61.7589   -5.2164   -9.5478 O   0  0  0  0  0  0  0  0  0  0  0  0
   62.7518   -3.3689   -8.8743 O   0  0  0  0  0  0  0  0  0  0  0  0
   62.7766   -2.4323   -8.8653 H   0  0  0  0  0  0  0  0  0  0  0  0
  1  2  1  0  0  0
  1 12  1  0  0  0
  2  3  1  0  0  0
  3  4  1  0  0  0
  3  5  1  0  0  0
  5  6  1  0  0  0
  6  7  1  0  0  0
  6 12  1  0  0  0
  7  8  1  0  0  0
  8  9  1  0  0  0
  8 10  1  0  0  0
 10 11  1  0  0  0
 10 16  1  0  0  0
 11 12  1  0  0  0
 11 13  1  0  0  0
 12 21  1  0  0  0
 13 14  1  0  0  0
 14 15  1  0  0  0
 15 16  1  0  0  0
 15 19  1  0  0  0
 15 20  1  0  0  0
 16 17  1  0  0  0
 17 18  1  0  0  0
 18 19  1  0  0  0
 19 24  1  0  0  0
 24 25  1  0  0  0
 24 26  1  0  0  0
 26 27  1  0  0  0
 27 28  1  0  0  0
 28 29  2  0  0  0
 28 30  1  0  0  0
 30 32  1  0  0  0
 32 33  1  0  0  0
 33 34  2  0  0  0
 33 35  1  0  0  0
  4 22  1  0  0  0
  9 23  1  0  0  0
 30 31  1  0  0  0
 35 36  1  0  0  0
M  END
> <minimizedAffinity>
-6.66478

$$$$
