1I9P_IOE_A_555


 26 27  0  0  0  0  0  0  0  0999 V2000
   -4.1825    2.7493   12.7997 C   0  0  0  0  0  0  0  0  0  0  0  0
   -3.4214    3.7038   13.1050 O   0  0  0  0  0  0  0  0  0  0  0  0
   -4.4425    2.4908   11.3817 N   0  0  0  0  0  0  0  0  0  0  0  0
   -5.1960    2.9095   10.9062 H   0  0  0  0  0  0  0  0  0  0  0  0
   -4.0588    0.8928   14.5852 C   0  0  0  0  0  0  0  0  0  0  0  0
   -4.5968    0.1553   15.6637 C   0  0  0  0  0  0  0  0  0  0  0  0
   -5.9153    0.4862   16.1808 C   0  0  0  0  0  0  0  0  0  0  0  0
   -6.6012    1.5463   15.5790 C   0  0  0  0  0  0  0  0  0  0  0  0
   -6.0279    2.2660   14.4991 C   0  0  0  0  0  0  0  0  0  0  0  0
   -4.7732    1.9585   13.9875 C   0  0  0  0  0  0  0  0  0  0  0  0
   -6.5818   -0.4918   17.5677 S   0  0  0  0  0  0  0  0  0  0  0  0
   -5.6137   -1.8621   17.9769 N   0  0  0  0  0  0  0  0  0  0  0  0
   -7.9536   -0.7492   17.0638 O   0  0  0  0  0  0  0  0  0  0  0  0
   -6.7031    0.5629   18.6224 O   0  0  0  0  0  0  0  0  0  0  0  0
   -5.5989   -2.5142   17.1928 H   0  0  0  0  0  0  0  0  0  0  0  0
   -6.0080   -2.3244   18.7962 H   0  0  0  0  0  0  0  0  0  0  0  0
   -3.5227    1.5791   10.7149 C   0  0  0  0  0  0  0  0  0  0  0  0
   -3.4531    0.1985   11.0216 C   0  0  0  0  0  0  0  0  0  0  0  0
   -4.6942   -0.5774   11.2569 C   0  0  0  0  0  0  0  0  0  0  0  0
   -4.5647   -2.0167   11.5718 C   0  0  0  0  0  0  0  0  0  0  0  0
   -3.2433   -2.6606   11.6504 C   0  0  0  0  0  0  0  0  0  0  0  0
   -2.0364   -1.8663   11.4165 C   0  0  0  0  0  0  0  0  0  0  0  0
   -2.1290   -0.4527   11.1030 C   0  0  0  0  0  0  0  0  0  0  0  0
   -0.9902    0.2725   10.8846 F   0  0  0  0  0  0  0  0  0  0  0  0
   -3.1437   -3.9934   11.9441 F   0  0  0  0  0  0  0  0  0  0  0  0
   -5.9275    0.0067   11.1922 F   0  0  0  0  0  0  0  0  0  0  0  0
  5  6  2  0  0  0
  5 10  1  0  0  0
  6  7  1  0  0  0
  7  8  2  0  0  0
  7 11  1  0  0  0
  8  9  1  0  0  0
  9 10  2  0  0  0
 10  1  1  0  0  0
  1  2  2  0  0  0
  1  3  1  0  0  0
  3 17  1  0  0  0
 17 18  1  0  0  0
 11 12  1  0  0  0
 11 13  2  0  0  0
 11 14  2  0  0  0
 18 19  2  0  0  0
 18 23  1  0  0  0
 19 20  1  0  0  0
 19 26  1  0  0  0
 20 21  2  0  0  0
 21 22  1  0  0  0
 21 25  1  0  0  0
 22 23  2  0  0  0
 23 24  1  0  0  0
  3  4  1  0  0  0
 12 15  1  0  0  0
 12 16  1  0  0  0
M  END
> <minimizedAffinity>
-8.33167

$$$$
1I9P_IOE_A_555


 26 27  0  0  0  0  0  0  0  0999 V2000
   -4.2145    2.6995   12.7728 C   0  0  0  0  0  0  0  0  0  0  0  0
   -3.4848    3.6821   13.0656 O   0  0  0  0  0  0  0  0  0  0  0  0
   -4.4481    2.4015   11.3579 N   0  0  0  0  0  0  0  0  0  0  0  0
   -5.2067    2.7876   10.8633 H   0  0  0  0  0  0  0  0  0  0  0  0
   -4.0716    0.8733   14.5878 C   0  0  0  0  0  0  0  0  0  0  0  0
   -4.6032    0.1456   15.6760 C   0  0  0  0  0  0  0  0  0  0  0  0
   -5.9280    0.4663   16.1834 C   0  0  0  0  0  0  0  0  0  0  0  0
   -6.6262    1.5072   15.5626 C   0  0  0  0  0  0  0  0  0  0  0  0
   -6.0591    2.2176   14.4734 C   0  0  0  0  0  0  0  0  0  0  0  0
   -4.7985    1.9194   13.9710 C   0  0  0  0  0  0  0  0  0  0  0  0
   -6.5859   -0.4988   17.5834 S   0  0  0  0  0  0  0  0  0  0  0  0
   -5.6213   -1.8718   17.9919 N   0  0  0  0  0  0  0  0  0  0  0  0
   -7.9641   -0.7519   17.0950 O   0  0  0  0  0  0  0  0  0  0  0  0
   -6.6906    0.5635   18.6323 O   0  0  0  0  0  0  0  0  0  0  0  0
   -5.6180   -2.5292   17.2120 H   0  0  0  0  0  0  0  0  0  0  0  0
   -6.0098   -2.3265   18.8182 H   0  0  0  0  0  0  0  0  0  0  0  0
   -3.4941    1.5014   10.7242 C   0  0  0  0  0  0  0  0  0  0  0  0
   -3.4182    0.1217   11.0334 C   0  0  0  0  0  0  0  0  0  0  0  0
   -2.1001   -0.5488   11.1364 C   0  0  0  0  0  0  0  0  0  0  0  0
   -2.0777   -1.9910   11.4638 C   0  0  0  0  0  0  0  0  0  0  0  0
   -3.3266   -2.7396   11.6801 C   0  0  0  0  0  0  0  0  0  0  0  0
   -4.6125   -2.0496   11.5676 C   0  0  0  0  0  0  0  0  0  0  0  0
   -4.6689   -0.6350   11.2504 C   0  0  0  0  0  0  0  0  0  0  0  0
   -5.8798   -0.0067   11.1526 F   0  0  0  0  0  0  0  0  0  0  0  0
   -3.2856   -4.0739   11.9811 F   0  0  0  0  0  0  0  0  0  0  0  0
   -0.9325    0.1311   10.9338 F   0  0  0  0  0  0  0  0  0  0  0  0
  5  6  2  0  0  0
  5 10  1  0  0  0
  6  7  1  0  0  0
  7  8  2  0  0  0
  7 11  1  0  0  0
  8  9  1  0  0  0
  9 10  2  0  0  0
 10  1  1  0  0  0
  1  2  2  0  0  0
  1  3  1  0  0  0
  3 17  1  0  0  0
 17 18  1  0  0  0
 11 12  1  0  0  0
 11 13  2  0  0  0
 11 14  2  0  0  0
 18 19  2  0  0  0
 18 23  1  0  0  0
 19 20  1  0  0  0
 19 26  1  0  0  0
 20 21  2  0  0  0
 21 22  1  0  0  0
 21 25  1  0  0  0
 22 23  2  0  0  0
 23 24  1  0  0  0
  3  4  1  0  0  0
 12 15  1  0  0  0
 12 16  1  0  0  0
M  END
> <minimizedAffinity>
-8.25138

$$$$
1I9P_IOE_A_555


 26 27  0  0  0  0  0  0  0  0999 V2000
   -4.3806    2.2552   12.2497 C   0  0  0  0  0  0  0  0  0  0  0  0
   -4.8101    1.7841   11.1647 O   0  0  0  0  0  0  0  0  0  0  0  0
   -3.4174    3.3573   12.1986 N   0  0  0  0  0  0  0  0  0  0  0  0
   -2.4460    3.1988   12.1770 H   0  0  0  0  0  0  0  0  0  0  0  0
   -5.9976    2.1593   14.2561 C   0  0  0  0  0  0  0  0  0  0  0  0
   -6.4937    1.5622   15.4367 C   0  0  0  0  0  0  0  0  0  0  0  0
   -5.8969    0.3317   15.9317 C   0  0  0  0  0  0  0  0  0  0  0  0
   -4.8421   -0.2194   15.1968 C   0  0  0  0  0  0  0  0  0  0  0  0
   -4.3720    0.4074   14.0140 C   0  0  0  0  0  0  0  0  0  0  0  0
   -4.9252    1.5870   13.5312 C   0  0  0  0  0  0  0  0  0  0  0  0
   -6.5568   -0.4066   17.4626 S   0  0  0  0  0  0  0  0  0  0  0  0
   -5.6106   -1.7215   18.0610 N   0  0  0  0  0  0  0  0  0  0  0  0
   -7.9435   -0.7045   17.0263 O   0  0  0  0  0  0  0  0  0  0  0  0
   -6.6345    0.7994   18.3452 O   0  0  0  0  0  0  0  0  0  0  0  0
   -5.6252   -2.4859   17.3858 H   0  0  0  0  0  0  0  0  0  0  0  0
   -5.9984   -2.0436   18.9477 H   0  0  0  0  0  0  0  0  0  0  0  0
   -3.9784    4.7015   12.1817 C   0  0  0  0  0  0  0  0  0  0  0  0
   -4.9232    5.1512   13.1357 C   0  0  0  0  0  0  0  0  0  0  0  0
   -4.5258    5.3307   14.5526 C   0  0  0  0  0  0  0  0  0  0  0  0
   -5.5513    5.8045   15.5073 C   0  0  0  0  0  0  0  0  0  0  0  0
   -6.9263    6.0888   15.0650 C   0  0  0  0  0  0  0  0  0  0  0  0
   -7.2884    5.8980   13.6598 C   0  0  0  0  0  0  0  0  0  0  0  0
   -6.3053    5.4368   12.6975 C   0  0  0  0  0  0  0  0  0  0  0  0
   -6.6616    5.2675   11.3879 F   0  0  0  0  0  0  0  0  0  0  0  0
   -7.8615    6.5253   15.9635 F   0  0  0  0  0  0  0  0  0  0  0  0
   -3.2551    5.0666   14.9793 F   0  0  0  0  0  0  0  0  0  0  0  0
  5  6  2  0  0  0
  5 10  1  0  0  0
  6  7  1  0  0  0
  7  8  2  0  0  0
  7 11  1  0  0  0
  8  9  1  0  0  0
  9 10  2  0  0  0
 10  1  1  0  0  0
  1  2  2  0  0  0
  1  3  1  0  0  0
  3 17  1  0  0  0
 17 18  1  0  0  0
 11 12  1  0  0  0
 11 13  2  0  0  0
 11 14  2  0  0  0
 18 19  2  0  0  0
 18 23  1  0  0  0
 19 20  1  0  0  0
 19 26  1  0  0  0
 20 21  2  0  0  0
 21 22  1  0  0  0
 21 25  1  0  0  0
 22 23  2  0  0  0
 23 24  1  0  0  0
  3  4  1  0  0  0
 12 15  1  0  0  0
 12 16  1  0  0  0
M  END
> <minimizedAffinity>
-7.65282

$$$$
1I9P_IOE_A_555


 26 27  0  0  0  0  0  0  0  0999 V2000
   -4.3874    2.2487   12.2709 C   0  0  0  0  0  0  0  0  0  0  0  0
   -4.8066    1.7432   11.1975 O   0  0  0  0  0  0  0  0  0  0  0  0
   -3.4435    3.3659   12.1937 N   0  0  0  0  0  0  0  0  0  0  0  0
   -2.4695    3.2239   12.1774 H   0  0  0  0  0  0  0  0  0  0  0  0
   -4.3491    0.4178   14.0865 C   0  0  0  0  0  0  0  0  0  0  0  0
   -4.8406   -0.1868   15.2652 C   0  0  0  0  0  0  0  0  0  0  0  0
   -5.9629    0.4104   15.9715 C   0  0  0  0  0  0  0  0  0  0  0  0
   -6.5108    1.5846   15.4446 C   0  0  0  0  0  0  0  0  0  0  0  0
   -5.9890    2.1646   14.2596 C   0  0  0  0  0  0  0  0  0  0  0  0
   -4.9226    1.6033   13.5680 C   0  0  0  0  0  0  0  0  0  0  0  0
   -6.5764   -0.4013   17.4845 S   0  0  0  0  0  0  0  0  0  0  0  0
   -5.5941   -1.7212   18.0091 N   0  0  0  0  0  0  0  0  0  0  0  0
   -7.9666   -0.7074   17.0653 O   0  0  0  0  0  0  0  0  0  0  0  0
   -6.6568    0.7665   18.4170 O   0  0  0  0  0  0  0  0  0  0  0  0
   -5.6096   -2.4579   17.3038 H   0  0  0  0  0  0  0  0  0  0  0  0
   -5.9570   -2.0860   18.8898 H   0  0  0  0  0  0  0  0  0  0  0  0
   -4.0279    4.6992   12.1423 C   0  0  0  0  0  0  0  0  0  0  0  0
   -4.9905    5.1521   13.0769 C   0  0  0  0  0  0  0  0  0  0  0  0
   -6.3841    5.4150   12.6451 C   0  0  0  0  0  0  0  0  0  0  0  0
   -7.3498    5.8847   13.6621 C   0  0  0  0  0  0  0  0  0  0  0  0
   -6.9402    6.0864   15.0616 C   0  0  0  0  0  0  0  0  0  0  0  0
   -5.5558    5.8215   15.4557 C   0  0  0  0  0  0  0  0  0  0  0  0
   -4.5845    5.3574   14.4829 C   0  0  0  0  0  0  0  0  0  0  0  0
   -3.2961    5.1122   14.8706 F   0  0  0  0  0  0  0  0  0  0  0  0
   -7.8480    6.5226   15.9880 F   0  0  0  0  0  0  0  0  0  0  0  0
   -6.7783    5.2371   11.3492 F   0  0  0  0  0  0  0  0  0  0  0  0
  5  6  2  0  0  0
  5 10  1  0  0  0
  6  7  1  0  0  0
  7  8  2  0  0  0
  7 11  1  0  0  0
  8  9  1  0  0  0
  9 10  2  0  0  0
 10  1  1  0  0  0
  1  2  2  0  0  0
  1  3  1  0  0  0
  3 17  1  0  0  0
 17 18  1  0  0  0
 11 12  1  0  0  0
 11 13  2  0  0  0
 11 14  2  0  0  0
 18 19  2  0  0  0
 18 23  1  0  0  0
 19 20  1  0  0  0
 19 26  1  0  0  0
 20 21  2  0  0  0
 21 22  1  0  0  0
 21 25  1  0  0  0
 22 23  2  0  0  0
 23 24  1  0  0  0
  3  4  1  0  0  0
 12 15  1  0  0  0
 12 16  1  0  0  0
M  END
> <minimizedAffinity>
-7.65226

$$$$
1I9P_IOE_A_555


 26 27  0  0  0  0  0  0  0  0999 V2000
   -1.3247    3.1291   12.9573 C   0  0  0  0  0  0  0  0  0  0  0  0
   -0.2020    3.4140   12.4655 O   0  0  0  0  0  0  0  0  0  0  0  0
   -1.8920    4.0264   13.9664 N   0  0  0  0  0  0  0  0  0  0  0  0
   -1.7231    3.9008   14.9282 H   0  0  0  0  0  0  0  0  0  0  0  0
   -3.3393    1.5442   12.6756 C   0  0  0  0  0  0  0  0  0  0  0  0
   -3.9388    0.3520   12.2111 C   0  0  0  0  0  0  0  0  0  0  0  0
   -3.1468   -0.6145   11.4669 C   0  0  0  0  0  0  0  0  0  0  0  0
   -1.8018   -0.3095   11.2339 C   0  0  0  0  0  0  0  0  0  0  0  0
   -1.2347    0.8992   11.7138 C   0  0  0  0  0  0  0  0  0  0  0  0
   -1.9744    1.8298   12.4330 C   0  0  0  0  0  0  0  0  0  0  0  0
   -3.9510   -2.1457   10.8900 S   0  0  0  0  0  0  0  0  0  0  0  0
   -3.8669   -3.4427   12.0271 N   0  0  0  0  0  0  0  0  0  0  0  0
   -3.2548   -2.3275    9.5922 O   0  0  0  0  0  0  0  0  0  0  0  0
   -5.3235   -1.6401   10.5735 O   0  0  0  0  0  0  0  0  0  0  0  0
   -2.8922   -3.7079   12.1690 H   0  0  0  0  0  0  0  0  0  0  0  0
   -4.3883   -4.2430   11.6692 H   0  0  0  0  0  0  0  0  0  0  0  0
   -2.7202    5.1152   13.4662 C   0  0  0  0  0  0  0  0  0  0  0  0
   -3.9816    5.4384   14.0226 C   0  0  0  0  0  0  0  0  0  0  0  0
   -5.2279    4.9838   13.3610 C   0  0  0  0  0  0  0  0  0  0  0  0
   -6.5185    5.3473   13.9854 C   0  0  0  0  0  0  0  0  0  0  0  0
   -6.5653    6.1378   15.2263 C   0  0  0  0  0  0  0  0  0  0  0  0
   -5.3171    6.5748   15.8533 C   0  0  0  0  0  0  0  0  0  0  0  0
   -4.0345    6.2328   15.2676 C   0  0  0  0  0  0  0  0  0  0  0  0
   -2.8786    6.6475   15.8696 F   0  0  0  0  0  0  0  0  0  0  0  0
   -7.7692    6.4653   15.7884 F   0  0  0  0  0  0  0  0  0  0  0  0
   -5.2011    4.2537   12.2066 F   0  0  0  0  0  0  0  0  0  0  0  0
  5  6  2  0  0  0
  5 10  1  0  0  0
  6  7  1  0  0  0
  7  8  2  0  0  0
  7 11  1  0  0  0
  8  9  1  0  0  0
  9 10  2  0  0  0
 10  1  1  0  0  0
  1  2  2  0  0  0
  1  3  1  0  0  0
  3 17  1  0  0  0
 17 18  1  0  0  0
 11 12  1  0  0  0
 11 13  2  0  0  0
 11 14  2  0  0  0
 18 19  2  0  0  0
 18 23  1  0  0  0
 19 20  1  0  0  0
 19 26  1  0  0  0
 20 21  2  0  0  0
 21 22  1  0  0  0
 21 25  1  0  0  0
 22 23  2  0  0  0
 23 24  1  0  0  0
  3  4  1  0  0  0
 12 15  1  0  0  0
 12 16  1  0  0  0
M  END
> <minimizedAffinity>
-6.92226

$$$$
1I9P_IOE_A_555


 26 27  0  0  0  0  0  0  0  0999 V2000
   -1.2335    3.1051   12.8336 C   0  0  0  0  0  0  0  0  0  0  0  0
   -0.1321    3.3903   12.2958 O   0  0  0  0  0  0  0  0  0  0  0  0
   -1.7571    4.0004   13.8677 N   0  0  0  0  0  0  0  0  0  0  0  0
   -1.5481    3.8724   14.8212 H   0  0  0  0  0  0  0  0  0  0  0  0
   -3.2990    1.6032   12.4765 C   0  0  0  0  0  0  0  0  0  0  0  0
   -3.9206    0.4139   12.0342 C   0  0  0  0  0  0  0  0  0  0  0  0
   -3.1225   -0.6345   11.4184 C   0  0  0  0  0  0  0  0  0  0  0  0
   -1.7488   -0.4092   11.2826 C   0  0  0  0  0  0  0  0  0  0  0  0
   -1.1598    0.7991   11.7365 C   0  0  0  0  0  0  0  0  0  0  0  0
   -1.9058    1.8076   12.3340 C   0  0  0  0  0  0  0  0  0  0  0  0
   -3.9565   -2.1592   10.8671 S   0  0  0  0  0  0  0  0  0  0  0  0
   -3.8792   -3.4452   12.0171 N   0  0  0  0  0  0  0  0  0  0  0  0
   -3.2780   -2.3654    9.5636 O   0  0  0  0  0  0  0  0  0  0  0  0
   -5.3247   -1.6360   10.5606 O   0  0  0  0  0  0  0  0  0  0  0  0
   -2.9072   -3.7238   12.1509 H   0  0  0  0  0  0  0  0  0  0  0  0
   -4.4168   -4.2412   11.6737 H   0  0  0  0  0  0  0  0  0  0  0  0
   -2.6047    5.0911   13.4052 C   0  0  0  0  0  0  0  0  0  0  0  0
   -3.8371    5.4195   14.0202 C   0  0  0  0  0  0  0  0  0  0  0  0
   -3.8563    6.1336   15.3192 C   0  0  0  0  0  0  0  0  0  0  0  0
   -5.1708    6.4540   15.9168 C   0  0  0  0  0  0  0  0  0  0  0  0
   -6.4234    6.0747   15.2430 C   0  0  0  0  0  0  0  0  0  0  0  0
   -6.3710    5.3670   13.9630 C   0  0  0  0  0  0  0  0  0  0  0  0
   -5.0978    5.0400   13.3489 C   0  0  0  0  0  0  0  0  0  0  0  0
   -5.0688    4.3810   12.1508 F   0  0  0  0  0  0  0  0  0  0  0  0
   -7.6301    6.3789   15.8122 F   0  0  0  0  0  0  0  0  0  0  0  0
   -2.7024    6.4881   15.9591 F   0  0  0  0  0  0  0  0  0  0  0  0
  5  6  2  0  0  0
  5 10  1  0  0  0
  6  7  1  0  0  0
  7  8  2  0  0  0
  7 11  1  0  0  0
  8  9  1  0  0  0
  9 10  2  0  0  0
 10  1  1  0  0  0
  1  2  2  0  0  0
  1  3  1  0  0  0
  3 17  1  0  0  0
 17 18  1  0  0  0
 11 12  1  0  0  0
 11 13  2  0  0  0
 11 14  2  0  0  0
 18 19  2  0  0  0
 18 23  1  0  0  0
 19 20  1  0  0  0
 19 26  1  0  0  0
 20 21  2  0  0  0
 21 22  1  0  0  0
 21 25  1  0  0  0
 22 23  2  0  0  0
 23 24  1  0  0  0
  3  4  1  0  0  0
 12 15  1  0  0  0
 12 16  1  0  0  0
M  END
> <minimizedAffinity>
-6.90771

$$$$
1I9P_IOE_A_555


 26 27  0  0  0  0  0  0  0  0999 V2000
   -3.1267    3.9328   11.7810 C   0  0  0  0  0  0  0  0  0  0  0  0
   -3.0973    3.5877   10.5712 O   0  0  0  0  0  0  0  0  0  0  0  0
   -2.7582    5.3084   12.1230 N   0  0  0  0  0  0  0  0  0  0  0  0
   -1.8311    5.5607   12.3374 H   0  0  0  0  0  0  0  0  0  0  0  0
   -3.3910    3.0135   14.1758 C   0  0  0  0  0  0  0  0  0  0  0  0
   -3.7583    2.0070   15.0969 C   0  0  0  0  0  0  0  0  0  0  0  0
   -4.3061    0.7490   14.6145 C   0  0  0  0  0  0  0  0  0  0  0  0
   -4.4542    0.5932   13.2324 C   0  0  0  0  0  0  0  0  0  0  0  0
   -4.0766    1.6273   12.3376 C   0  0  0  0  0  0  0  0  0  0  0  0
   -3.5445    2.8320   12.7805 C   0  0  0  0  0  0  0  0  0  0  0  0
   -4.7613   -0.5306   15.8308 S   0  0  0  0  0  0  0  0  0  0  0  0
   -6.3196   -0.2925   16.5361 N   0  0  0  0  0  0  0  0  0  0  0  0
   -3.5844   -0.4581   16.7317 O   0  0  0  0  0  0  0  0  0  0  0  0
   -4.5969   -1.7705   15.0090 O   0  0  0  0  0  0  0  0  0  0  0  0
   -6.3215    0.5760   17.0711 H   0  0  0  0  0  0  0  0  0  0  0  0
   -6.5356   -1.0737   17.1552 H   0  0  0  0  0  0  0  0  0  0  0  0
   -3.8416    6.2821   12.1279 C   0  0  0  0  0  0  0  0  0  0  0  0
   -4.8871    6.2626   13.0826 C   0  0  0  0  0  0  0  0  0  0  0  0
   -6.2570    5.8624   12.6814 C   0  0  0  0  0  0  0  0  0  0  0  0
   -7.3114    5.8574   13.7186 C   0  0  0  0  0  0  0  0  0  0  0  0
   -7.0109    6.2393   15.1082 C   0  0  0  0  0  0  0  0  0  0  0  0
   -5.6490    6.6331   15.4719 C   0  0  0  0  0  0  0  0  0  0  0  0
   -4.5913    6.6462   14.4788 C   0  0  0  0  0  0  0  0  0  0  0  0
   -3.3241    7.0141   14.8383 F   0  0  0  0  0  0  0  0  0  0  0  0
   -8.0001    6.2296   16.0536 F   0  0  0  0  0  0  0  0  0  0  0  0
   -6.5527    5.5100   11.3950 F   0  0  0  0  0  0  0  0  0  0  0  0
  5  6  2  0  0  0
  5 10  1  0  0  0
  6  7  1  0  0  0
  7  8  2  0  0  0
  7 11  1  0  0  0
  8  9  1  0  0  0
  9 10  2  0  0  0
 10  1  1  0  0  0
  1  2  2  0  0  0
  1  3  1  0  0  0
  3 17  1  0  0  0
 17 18  1  0  0  0
 11 12  1  0  0  0
 11 13  2  0  0  0
 11 14  2  0  0  0
 18 19  2  0  0  0
 18 23  1  0  0  0
 19 20  1  0  0  0
 19 26  1  0  0  0
 20 21  2  0  0  0
 21 22  1  0  0  0
 21 25  1  0  0  0
 22 23  2  0  0  0
 23 24  1  0  0  0
  3  4  1  0  0  0
 12 15  1  0  0  0
 12 16  1  0  0  0
M  END
> <minimizedAffinity>
-6.77190

$$$$
1I9P_IOE_A_555


 26 27  0  0  0  0  0  0  0  0999 V2000
   -4.3201    3.6907   13.3893 C   0  0  0  0  0  0  0  0  0  0  0  0
   -3.4349    4.4651   13.8369 O   0  0  0  0  0  0  0  0  0  0  0  0
   -4.7562    3.8584   12.0012 N   0  0  0  0  0  0  0  0  0  0  0  0
   -5.5084    4.4458   11.7595 H   0  0  0  0  0  0  0  0  0  0  0  0
   -6.1861    2.7131   14.8765 C   0  0  0  0  0  0  0  0  0  0  0  0
   -6.6842    1.7669   15.8002 C   0  0  0  0  0  0  0  0  0  0  0  0
   -5.8246    0.6921   16.2704 C   0  0  0  0  0  0  0  0  0  0  0  0
   -4.5194    0.6391   15.7704 C   0  0  0  0  0  0  0  0  0  0  0  0
   -4.0547    1.6057   14.8416 C   0  0  0  0  0  0  0  0  0  0  0  0
   -4.8596    2.6434   14.3879 C   0  0  0  0  0  0  0  0  0  0  0  0
   -6.4977   -0.5060   17.4686 S   0  0  0  0  0  0  0  0  0  0  0  0
   -5.5605   -1.9500   17.6049 N   0  0  0  0  0  0  0  0  0  0  0  0
   -7.8825   -0.6354   16.9510 O   0  0  0  0  0  0  0  0  0  0  0  0
   -6.5772    0.3419   18.6992 O   0  0  0  0  0  0  0  0  0  0  0  0
   -5.5732   -2.4489   16.7153 H   0  0  0  0  0  0  0  0  0  0  0  0
   -5.9557   -2.5443   18.3336 H   0  0  0  0  0  0  0  0  0  0  0  0
   -4.0138    3.1065   10.9985 C   0  0  0  0  0  0  0  0  0  0  0  0
   -2.6348    2.8111   11.1258 C   0  0  0  0  0  0  0  0  0  0  0  0
   -1.6184    3.8465   10.8215 C   0  0  0  0  0  0  0  0  0  0  0  0
   -0.1920    3.4857   10.9727 C   0  0  0  0  0  0  0  0  0  0  0  0
    0.2077    2.1386   11.4114 C   0  0  0  0  0  0  0  0  0  0  0  0
   -0.8198    1.1373   11.7007 C   0  0  0  0  0  0  0  0  0  0  0  0
   -2.2278    1.4600   11.5646 C   0  0  0  0  0  0  0  0  0  0  0  0
   -3.1737    0.5120   11.8425 F   0  0  0  0  0  0  0  0  0  0  0  0
    1.5326    1.8233   11.5444 F   0  0  0  0  0  0  0  0  0  0  0  0
   -1.9734    5.0996   10.4088 F   0  0  0  0  0  0  0  0  0  0  0  0
  5  6  2  0  0  0
  5 10  1  0  0  0
  6  7  1  0  0  0
  7  8  2  0  0  0
  7 11  1  0  0  0
  8  9  1  0  0  0
  9 10  2  0  0  0
 10  1  1  0  0  0
  1  2  2  0  0  0
  1  3  1  0  0  0
  3 17  1  0  0  0
 17 18  1  0  0  0
 11 12  1  0  0  0
 11 13  2  0  0  0
 11 14  2  0  0  0
 18 19  2  0  0  0
 18 23  1  0  0  0
 19 20  1  0  0  0
 19 26  1  0  0  0
 20 21  2  0  0  0
 21 22  1  0  0  0
 21 25  1  0  0  0
 22 23  2  0  0  0
 23 24  1  0  0  0
  3  4  1  0  0  0
 12 15  1  0  0  0
 12 16  1  0  0  0
M  END
> <minimizedAffinity>
-6.66304

$$$$
1I9P_IOE_A_555


 26 27  0  0  0  0  0  0  0  0999 V2000
   -1.5807    3.3811   12.1196 C   0  0  0  0  0  0  0  0  0  0  0  0
   -1.5439    4.2076   11.1714 O   0  0  0  0  0  0  0  0  0  0  0  0
   -1.0418    3.7868   13.4196 N   0  0  0  0  0  0  0  0  0  0  0  0
   -0.0994    3.6366   13.6619 H   0  0  0  0  0  0  0  0  0  0  0  0
   -1.4041    0.8278   11.8045 C   0  0  0  0  0  0  0  0  0  0  0  0
   -1.9516   -0.4350   11.4850 C   0  0  0  0  0  0  0  0  0  0  0  0
   -3.3555   -0.5444   11.1212 C   0  0  0  0  0  0  0  0  0  0  0  0
   -4.1167    0.6290   11.1114 C   0  0  0  0  0  0  0  0  0  0  0  0
   -3.5329    1.8794   11.4405 C   0  0  0  0  0  0  0  0  0  0  0  0
   -2.1920    2.0034   11.7827 C   0  0  0  0  0  0  0  0  0  0  0  0
   -4.0263   -2.1883   10.7068 S   0  0  0  0  0  0  0  0  0  0  0  0
   -3.8819   -3.3380   11.9873 N   0  0  0  0  0  0  0  0  0  0  0  0
   -3.2788   -2.4619    9.4544 O   0  0  0  0  0  0  0  0  0  0  0  0
   -5.4219   -1.8287   10.3036 O   0  0  0  0  0  0  0  0  0  0  0  0
   -2.8952   -3.5097   12.1805 H   0  0  0  0  0  0  0  0  0  0  0  0
   -4.3316   -4.2113   11.7125 H   0  0  0  0  0  0  0  0  0  0  0  0
   -1.9793    4.4250   14.3337 C   0  0  0  0  0  0  0  0  0  0  0  0
   -3.3771    4.4463   14.1086 C   0  0  0  0  0  0  0  0  0  0  0  0
   -4.2326    3.3498   14.6219 C   0  0  0  0  0  0  0  0  0  0  0  0
   -5.6866    3.4223   14.3606 C   0  0  0  0  0  0  0  0  0  0  0  0
   -6.2679    4.5488   13.6124 C   0  0  0  0  0  0  0  0  0  0  0  0
   -5.3960    5.6142   13.1155 C   0  0  0  0  0  0  0  0  0  0  0  0
   -3.9659    5.5742   13.3570 C   0  0  0  0  0  0  0  0  0  0  0  0
   -3.1675    6.5806   12.8875 F   0  0  0  0  0  0  0  0  0  0  0  0
   -7.6155    4.5978   13.3796 F   0  0  0  0  0  0  0  0  0  0  0  0
   -3.7075    2.2952   15.3139 F   0  0  0  0  0  0  0  0  0  0  0  0
  5  6  2  0  0  0
  5 10  1  0  0  0
  6  7  1  0  0  0
  7  8  2  0  0  0
  7 11  1  0  0  0
  8  9  1  0  0  0
  9 10  2  0  0  0
 10  1  1  0  0  0
  1  2  2  0  0  0
  1  3  1  0  0  0
  3 17  1  0  0  0
 17 18  1  0  0  0
 11 12  1  0  0  0
 11 13  2  0  0  0
 11 14  2  0  0  0
 18 19  2  0  0  0
 18 23  1  0  0  0
 19 20  1  0  0  0
 19 26  1  0  0  0
 20 21  2  0  0  0
 21 22  1  0  0  0
 21 25  1  0  0  0
 22 23  2  0  0  0
 23 24  1  0  0  0
  3  4  1  0  0  0
 12 15  1  0  0  0
 12 16  1  0  0  0
M  END
> <minimizedAffinity>
-6.61769

$$$$
1I9P_IOE_A_555


 26 27  0  0  0  0  0  0  0  0999 V2000
   -1.5014    5.4658   13.7388 C   0  0  0  0  0  0  0  0  0  0  0  0
   -0.7497    5.8734   12.8156 O   0  0  0  0  0  0  0  0  0  0  0  0
   -1.6440    6.2934   14.9388 N   0  0  0  0  0  0  0  0  0  0  0  0
   -1.0525    6.1855   15.7184 H   0  0  0  0  0  0  0  0  0  0  0  0
   -2.8655    3.4262   14.5321 C   0  0  0  0  0  0  0  0  0  0  0  0
   -3.4834    2.1736   14.3185 C   0  0  0  0  0  0  0  0  0  0  0  0
   -3.4263    1.5527   13.0045 C   0  0  0  0  0  0  0  0  0  0  0  0
   -2.7546    2.2421   11.9896 C   0  0  0  0  0  0  0  0  0  0  0  0
   -2.1479    3.4998   12.2408 C   0  0  0  0  0  0  0  0  0  0  0  0
   -2.1860    4.1036   13.4916 C   0  0  0  0  0  0  0  0  0  0  0  0
   -4.2274   -0.0677   12.7670 S   0  0  0  0  0  0  0  0  0  0  0  0
   -5.5639   -0.0259   11.6741 N   0  0  0  0  0  0  0  0  0  0  0  0
   -4.5098   -0.4235   14.1797 O   0  0  0  0  0  0  0  0  0  0  0  0
   -3.0584   -0.8992   12.3405 O   0  0  0  0  0  0  0  0  0  0  0  0
   -6.3002    0.5652   12.0599 H   0  0  0  0  0  0  0  0  0  0  0  0
   -5.9225   -0.9712   11.5392 H   0  0  0  0  0  0  0  0  0  0  0  0
   -2.7106    7.2851   14.9131 C   0  0  0  0  0  0  0  0  0  0  0  0
   -4.0570    6.9571   14.6222 C   0  0  0  0  0  0  0  0  0  0  0  0
   -4.9014    6.2942   15.6445 C   0  0  0  0  0  0  0  0  0  0  0  0
   -6.3013    5.9755   15.2892 C   0  0  0  0  0  0  0  0  0  0  0  0
   -6.8409    6.3054   13.9600 C   0  0  0  0  0  0  0  0  0  0  0  0
   -5.9806    6.9565   12.9710 C   0  0  0  0  0  0  0  0  0  0  0  0
   -4.6035    7.2849   13.2889 C   0  0  0  0  0  0  0  0  0  0  0  0
   -3.8157    7.8962   12.3528 F   0  0  0  0  0  0  0  0  0  0  0  0
   -8.1385    6.0016   13.6494 F   0  0  0  0  0  0  0  0  0  0  0  0
   -4.4139    5.9774   16.8808 F   0  0  0  0  0  0  0  0  0  0  0  0
  5  6  2  0  0  0
  5 10  1  0  0  0
  6  7  1  0  0  0
  7  8  2  0  0  0
  7 11  1  0  0  0
  8  9  1  0  0  0
  9 10  2  0  0  0
 10  1  1  0  0  0
  1  2  2  0  0  0
  1  3  1  0  0  0
  3 17  1  0  0  0
 17 18  1  0  0  0
 11 12  1  0  0  0
 11 13  2  0  0  0
 11 14  2  0  0  0
 18 19  2  0  0  0
 18 23  1  0  0  0
 19 20  1  0  0  0
 19 26  1  0  0  0
 20 21  2  0  0  0
 21 22  1  0  0  0
 21 25  1  0  0  0
 22 23  2  0  0  0
 23 24  1  0  0  0
  3  4  1  0  0  0
 12 15  1  0  0  0
 12 16  1  0  0  0
M  END
> <minimizedAffinity>
-6.58735

$$$$
