1V2K_ZEN_T_1


 34 38  0  0  0  0  0  0  0  0999 V2000
   51.3366   74.2375  -28.3480 C   0  0  0  0  0  0  0  0  0  0  0  0
   51.6388   73.9134  -27.1769 O   0  0  0  0  0  0  0  0  0  0  0  0
   52.2580   74.2230  -29.3346 N   0  0  0  0  0  0  0  0  0  0  0  0
   51.9723   74.6134  -30.7647 C   0  0  0  0  0  0  0  0  0  0  0  0
   52.4888   73.4761  -31.6911 C   0  0  0  0  0  0  0  0  0  0  0  0
   54.0484   72.6016  -29.9529 C   0  0  0  0  0  0  0  0  0  0  0  0
   53.6697   73.8088  -29.0360 C   0  0  0  0  0  0  0  0  0  0  0  0
   53.9033   73.0930  -31.3624 N   0  0  0  0  0  0  0  0  0  0  0  0
   46.9359   74.3522  -28.1131 N   0  0  0  0  0  0  0  0  0  0  0  0
   47.6973   75.5316  -27.5550 C   0  0  0  0  0  0  0  0  0  0  0  0
   49.1780   75.1515  -27.2458 C   0  0  0  0  0  0  0  0  0  0  0  0
   49.0867   73.3433  -29.0216 C   0  0  0  0  0  0  0  0  0  0  0  0
   47.5831   73.6265  -29.2745 C   0  0  0  0  0  0  0  0  0  0  0  0
   49.8638   74.6348  -28.5537 C   0  0  0  0  0  0  0  0  0  0  0  0
   43.1568   73.1438  -26.5383 N   0  0  0  0  0  0  0  0  0  0  0  0
   43.5280   74.4648  -26.4152 C   0  0  0  0  0  0  0  0  0  0  0  0
   44.7842   74.8987  -26.9280 C   0  0  0  0  0  0  0  0  0  0  0  0
   45.2209   72.5774  -27.6774 C   0  0  0  0  0  0  0  0  0  0  0  0
   43.9592   72.2083  -27.1456 C   0  0  0  0  0  0  0  0  0  0  0  0
   45.6502   73.9402  -27.5734 C   0  0  0  0  0  0  0  0  0  0  0  0
   54.5218   72.0532  -32.4940 S   0  0  0  0  0  0  0  0  0  0  0  0
   55.9306   71.8419  -32.2160 O   0  0  0  0  0  0  0  0  0  0  0  0
   54.2354   72.6701  -33.7638 O   0  0  0  0  0  0  0  0  0  0  0  0
   53.6893   70.4656  -32.4902 C   0  0  0  0  0  0  0  0  0  0  0  0
   53.9604   69.4671  -31.4799 C   0  0  0  0  0  0  0  0  0  0  0  0
   52.6840   70.2070  -33.4845 C   0  0  0  0  0  0  0  0  0  0  0  0
   51.9680   68.9851  -33.5017 C   0  0  0  0  0  0  0  0  0  0  0  0
   53.2437   68.2262  -31.4880 C   0  0  0  0  0  0  0  0  0  0  0  0
   52.2337   67.9964  -32.5184 C   0  0  0  0  0  0  0  0  0  0  0  0
   51.5223   66.8025  -32.5349 C   0  0  0  0  0  0  0  0  0  0  0  0
   52.7527   65.9979  -30.5397 C   0  0  0  0  0  0  0  0  0  0  0  0
   53.4929   67.2143  -30.5045 C   0  0  0  0  0  0  0  0  0  0  0  0
   51.7652   65.8054  -31.5625 C   0  0  0  0  0  0  0  0  0  0  0  0
   50.8381   64.3638  -31.6482 Cl  0  0  0  0  0  0  0  0  0  0  0  0
 15 16  2  0  0  0
 15 19  1  0  0  0
 16 17  1  0  0  0
 17 20  2  0  0  0
 18 19  2  0  0  0
 18 20  1  0  0  0
 20  9  1  0  0  0
  9 10  1  0  0  0
  9 13  1  0  0  0
 10 11  1  0  0  0
 11 14  1  0  0  0
 12 13  1  0  0  0
 12 14  1  0  0  0
 14  1  1  0  0  0
  1  2  2  0  0  0
  1  3  1  0  0  0
  3  4  1  0  0  0
  3  7  1  0  0  0
  4  5  1  0  0  0
  5  8  1  0  0  0
  6  7  1  0  0  0
  6  8  1  0  0  0
  8 21  1  0  0  0
 21 22  2  0  0  0
 21 23  2  0  0  0
 21 24  1  0  0  0
 24 25  2  0  0  0
 24 26  1  0  0  0
 25 28  1  0  0  0
 26 27  2  0  0  0
 27 29  1  0  0  0
 28 29  2  0  0  0
 28 32  1  0  0  0
 29 30  1  0  0  0
 30 33  2  0  0  0
 31 32  2  0  0  0
 31 33  1  0  0  0
 33 34  1  0  0  0
M  END
> <minimizedAffinity>
-10.89678

$$$$
1V2K_ZEN_T_1


 34 38  0  0  0  0  0  0  0  0999 V2000
   50.8489   73.4656  -33.0471 C   0  0  0  0  0  0  0  0  0  0  0  0
   50.0239   73.4429  -33.9886 O   0  0  0  0  0  0  0  0  0  0  0  0
   50.8542   74.4742  -32.1498 N   0  0  0  0  0  0  0  0  0  0  0  0
   51.8255   74.5772  -30.9986 C   0  0  0  0  0  0  0  0  0  0  0  0
   51.0109   74.8168  -29.6957 C   0  0  0  0  0  0  0  0  0  0  0  0
   49.0316   75.6763  -30.9456 C   0  0  0  0  0  0  0  0  0  0  0  0
   49.8567   75.5897  -32.2696 C   0  0  0  0  0  0  0  0  0  0  0  0
   50.0275   75.9406  -29.8558 N   0  0  0  0  0  0  0  0  0  0  0  0
   52.6098   69.4964  -32.2858 N   0  0  0  0  0  0  0  0  0  0  0  0
   52.3648   69.8890  -33.7238 C   0  0  0  0  0  0  0  0  0  0  0  0
   51.3159   71.0389  -33.8235 C   0  0  0  0  0  0  0  0  0  0  0  0
   51.9518   71.8234  -31.4972 C   0  0  0  0  0  0  0  0  0  0  0  0
   52.9235   70.6267  -31.3274 C   0  0  0  0  0  0  0  0  0  0  0  0
   51.8207   72.2726  -33.0045 C   0  0  0  0  0  0  0  0  0  0  0  0
   52.4623   65.4289  -30.9992 N   0  0  0  0  0  0  0  0  0  0  0  0
   51.6937   65.8049  -32.0789 C   0  0  0  0  0  0  0  0  0  0  0  0
   51.7189   67.1556  -32.5308 C   0  0  0  0  0  0  0  0  0  0  0  0
   53.3378   67.6736  -30.7275 C   0  0  0  0  0  0  0  0  0  0  0  0
   53.2678   66.3153  -30.3260 C   0  0  0  0  0  0  0  0  0  0  0  0
   52.5565   68.1117  -31.8456 C   0  0  0  0  0  0  0  0  0  0  0  0
   49.3331   76.3414  -28.4062 S   0  0  0  0  0  0  0  0  0  0  0  0
   48.8552   77.7101  -28.4779 O   0  0  0  0  0  0  0  0  0  0  0  0
   50.3583   76.1030  -27.4226 O   0  0  0  0  0  0  0  0  0  0  0  0
   47.9565   75.2716  -27.9890 C   0  0  0  0  0  0  0  0  0  0  0  0
   46.7249   75.7955  -27.4415 C   0  0  0  0  0  0  0  0  0  0  0  0
   48.0632   73.8647  -28.2638 C   0  0  0  0  0  0  0  0  0  0  0  0
   46.9900   72.9816  -27.9909 C   0  0  0  0  0  0  0  0  0  0  0  0
   45.6327   74.9116  -27.1596 C   0  0  0  0  0  0  0  0  0  0  0  0
   45.7805   73.4865  -27.4458 C   0  0  0  0  0  0  0  0  0  0  0  0
   44.7275   72.6168  -27.1878 C   0  0  0  0  0  0  0  0  0  0  0  0
   43.3349   74.4899  -26.3545 C   0  0  0  0  0  0  0  0  0  0  0  0
   44.4014   75.3984  -26.6116 C   0  0  0  0  0  0  0  0  0  0  0  0
   43.5111   73.0972  -26.6507 C   0  0  0  0  0  0  0  0  0  0  0  0
   42.2578   71.9592  -26.3694 Cl  0  0  0  0  0  0  0  0  0  0  0  0
 15 16  2  0  0  0
 15 19  1  0  0  0
 16 17  1  0  0  0
 17 20  2  0  0  0
 18 19  2  0  0  0
 18 20  1  0  0  0
 20  9  1  0  0  0
  9 10  1  0  0  0
  9 13  1  0  0  0
 10 11  1  0  0  0
 11 14  1  0  0  0
 12 13  1  0  0  0
 12 14  1  0  0  0
 14  1  1  0  0  0
  1  2  2  0  0  0
  1  3  1  0  0  0
  3  4  1  0  0  0
  3  7  1  0  0  0
  4  5  1  0  0  0
  5  8  1  0  0  0
  6  7  1  0  0  0
  6  8  1  0  0  0
  8 21  1  0  0  0
 21 22  2  0  0  0
 21 23  2  0  0  0
 21 24  1  0  0  0
 24 25  2  0  0  0
 24 26  1  0  0  0
 25 28  1  0  0  0
 26 27  2  0  0  0
 27 29  1  0  0  0
 28 29  2  0  0  0
 28 32  1  0  0  0
 29 30  1  0  0  0
 30 33  2  0  0  0
 31 32  2  0  0  0
 31 33  1  0  0  0
 33 34  1  0  0  0
M  END
> <minimizedAffinity>
-9.91026

$$$$
1V2K_ZEN_T_1


 34 38  0  0  0  0  0  0  0  0999 V2000
   51.4831   72.5320  -31.3194 C   0  0  0  0  0  0  0  0  0  0  0  0
   51.2790   71.2993  -31.2383 O   0  0  0  0  0  0  0  0  0  0  0  0
   50.5188   73.4203  -30.9978 N   0  0  0  0  0  0  0  0  0  0  0  0
   50.6859   74.9183  -31.0838 C   0  0  0  0  0  0  0  0  0  0  0  0
   50.2485   75.5346  -29.7247 C   0  0  0  0  0  0  0  0  0  0  0  0
   48.8852   73.5367  -29.1177 C   0  0  0  0  0  0  0  0  0  0  0  0
   49.1777   72.9345  -30.5296 C   0  0  0  0  0  0  0  0  0  0  0  0
   48.9028   75.0260  -29.2931 N   0  0  0  0  0  0  0  0  0  0  0  0
   55.8574   73.0082  -31.5899 N   0  0  0  0  0  0  0  0  0  0  0  0
   55.1736   72.2001  -32.6676 C   0  0  0  0  0  0  0  0  0  0  0  0
   53.7745   71.6992  -32.1946 C   0  0  0  0  0  0  0  0  0  0  0  0
   53.6082   73.6636  -30.5993 C   0  0  0  0  0  0  0  0  0  0  0  0
   55.0416   74.1244  -30.9709 C   0  0  0  0  0  0  0  0  0  0  0  0
   52.8915   72.9283  -31.7978 C   0  0  0  0  0  0  0  0  0  0  0  0
   59.8717   72.2240  -30.3681 N   0  0  0  0  0  0  0  0  0  0  0  0
   59.6110   72.3724  -31.7128 C   0  0  0  0  0  0  0  0  0  0  0  0
   58.2813   72.6320  -32.1525 C   0  0  0  0  0  0  0  0  0  0  0  0
   57.5440   72.5755  -29.7873 C   0  0  0  0  0  0  0  0  0  0  0  0
   58.8875   72.3174  -29.4140 C   0  0  0  0  0  0  0  0  0  0  0  0
   57.2242   72.7375  -31.1744 C   0  0  0  0  0  0  0  0  0  0  0  0
   48.3429   75.8556  -27.9729 S   0  0  0  0  0  0  0  0  0  0  0  0
   48.3061   77.2714  -28.2901 O   0  0  0  0  0  0  0  0  0  0  0  0
   49.2324   75.4928  -26.8994 O   0  0  0  0  0  0  0  0  0  0  0  0
   46.6999   75.3318  -27.4833 C   0  0  0  0  0  0  0  0  0  0  0  0
   46.2765   73.9536  -27.5944 C   0  0  0  0  0  0  0  0  0  0  0  0
   45.8050   76.2999  -26.9105 C   0  0  0  0  0  0  0  0  0  0  0  0
   44.5106   75.9303  -26.4701 C   0  0  0  0  0  0  0  0  0  0  0  0
   44.9686   73.5679  -27.1538 C   0  0  0  0  0  0  0  0  0  0  0  0
   44.0841   74.5811  -26.5830 C   0  0  0  0  0  0  0  0  0  0  0  0
   42.8160   74.2223  -26.1415 C   0  0  0  0  0  0  0  0  0  0  0  0
   43.2134   71.8655  -26.7971 C   0  0  0  0  0  0  0  0  0  0  0  0
   44.5168   72.2118  -27.2554 C   0  0  0  0  0  0  0  0  0  0  0  0
   42.3713   72.8837  -26.2381 C   0  0  0  0  0  0  0  0  0  0  0  0
   40.7955   72.5224  -25.6625 Cl  0  0  0  0  0  0  0  0  0  0  0  0
 15 16  2  0  0  0
 15 19  1  0  0  0
 16 17  1  0  0  0
 17 20  2  0  0  0
 18 19  2  0  0  0
 18 20  1  0  0  0
 20  9  1  0  0  0
  9 10  1  0  0  0
  9 13  1  0  0  0
 10 11  1  0  0  0
 11 14  1  0  0  0
 12 13  1  0  0  0
 12 14  1  0  0  0
 14  1  1  0  0  0
  1  2  2  0  0  0
  1  3  1  0  0  0
  3  4  1  0  0  0
  3  7  1  0  0  0
  4  5  1  0  0  0
  5  8  1  0  0  0
  6  7  1  0  0  0
  6  8  1  0  0  0
  8 21  1  0  0  0
 21 22  2  0  0  0
 21 23  2  0  0  0
 21 24  1  0  0  0
 24 25  2  0  0  0
 24 26  1  0  0  0
 25 28  1  0  0  0
 26 27  2  0  0  0
 27 29  1  0  0  0
 28 29  2  0  0  0
 28 32  1  0  0  0
 29 30  1  0  0  0
 30 33  2  0  0  0
 31 32  2  0  0  0
 31 33  1  0  0  0
 33 34  1  0  0  0
M  END
> <minimizedAffinity>
-9.20953

$$$$
1V2K_ZEN_T_1


 34 38  0  0  0  0  0  0  0  0999 V2000
   50.3747   75.0160  -32.3168 C   0  0  0  0  0  0  0  0  0  0  0  0
   49.5253   74.9280  -33.2324 O   0  0  0  0  0  0  0  0  0  0  0  0
   50.2990   75.9927  -31.3879 N   0  0  0  0  0  0  0  0  0  0  0  0
   51.2922   76.1708  -30.2648 C   0  0  0  0  0  0  0  0  0  0  0  0
   50.5015   76.2801  -28.9301 C   0  0  0  0  0  0  0  0  0  0  0  0
   48.3970   76.9479  -30.0892 C   0  0  0  0  0  0  0  0  0  0  0  0
   49.1803   76.9923  -31.4404 C   0  0  0  0  0  0  0  0  0  0  0  0
   49.3945   77.2907  -29.0230 N   0  0  0  0  0  0  0  0  0  0  0  0
   52.4660   71.1351  -32.2954 N   0  0  0  0  0  0  0  0  0  0  0  0
   52.5585   71.9729  -33.5491 C   0  0  0  0  0  0  0  0  0  0  0  0
   51.4081   73.0241  -33.6109 C   0  0  0  0  0  0  0  0  0  0  0  0
   51.2634   73.0176  -31.0790 C   0  0  0  0  0  0  0  0  0  0  0  0
   52.3289   71.8941  -30.9917 C   0  0  0  0  0  0  0  0  0  0  0  0
   51.4740   73.9387  -32.3432 C   0  0  0  0  0  0  0  0  0  0  0  0
   52.5986   66.8698  -32.4036 N   0  0  0  0  0  0  0  0  0  0  0  0
   53.3697   67.5279  -31.4706 C   0  0  0  0  0  0  0  0  0  0  0  0
   53.3494   68.9510  -31.4111 C   0  0  0  0  0  0  0  0  0  0  0  0
   51.7301   68.9542  -33.2869 C   0  0  0  0  0  0  0  0  0  0  0  0
   51.7952   67.5376  -33.2961 C   0  0  0  0  0  0  0  0  0  0  0  0
   52.5141   69.6825  -32.3344 C   0  0  0  0  0  0  0  0  0  0  0  0
   48.7104   77.5695  -27.5402 S   0  0  0  0  0  0  0  0  0  0  0  0
   48.3767   78.9781  -27.4353 O   0  0  0  0  0  0  0  0  0  0  0  0
   49.6822   77.0991  -26.5865 O   0  0  0  0  0  0  0  0  0  0  0  0
   47.2222   76.6040  -27.2820 C   0  0  0  0  0  0  0  0  0  0  0  0
   47.1715   75.1901  -27.5812 C   0  0  0  0  0  0  0  0  0  0  0  0
   46.0711   77.2441  -26.7064 C   0  0  0  0  0  0  0  0  0  0  0  0
   44.8836   76.5179  -26.4442 C   0  0  0  0  0  0  0  0  0  0  0  0
   45.9751   74.4451  -27.3221 C   0  0  0  0  0  0  0  0  0  0  0  0
   44.8228   75.1314  -26.7426 C   0  0  0  0  0  0  0  0  0  0  0  0
   43.6580   74.4218  -26.4756 C   0  0  0  0  0  0  0  0  0  0  0  0
   44.6875   72.3361  -27.3314 C   0  0  0  0  0  0  0  0  0  0  0  0
   45.8908   73.0444  -27.6126 C   0  0  0  0  0  0  0  0  0  0  0  0
   43.5757   73.0390  -26.7586 C   0  0  0  0  0  0  0  0  0  0  0  0
   42.1047   72.2350  -26.3912 Cl  0  0  0  0  0  0  0  0  0  0  0  0
 15 16  2  0  0  0
 15 19  1  0  0  0
 16 17  1  0  0  0
 17 20  2  0  0  0
 18 19  2  0  0  0
 18 20  1  0  0  0
 20  9  1  0  0  0
  9 10  1  0  0  0
  9 13  1  0  0  0
 10 11  1  0  0  0
 11 14  1  0  0  0
 12 13  1  0  0  0
 12 14  1  0  0  0
 14  1  1  0  0  0
  1  2  2  0  0  0
  1  3  1  0  0  0
  3  4  1  0  0  0
  3  7  1  0  0  0
  4  5  1  0  0  0
  5  8  1  0  0  0
  6  7  1  0  0  0
  6  8  1  0  0  0
  8 21  1  0  0  0
 21 22  2  0  0  0
 21 23  2  0  0  0
 21 24  1  0  0  0
 24 25  2  0  0  0
 24 26  1  0  0  0
 25 28  1  0  0  0
 26 27  2  0  0  0
 27 29  1  0  0  0
 28 29  2  0  0  0
 28 32  1  0  0  0
 29 30  1  0  0  0
 30 33  2  0  0  0
 31 32  2  0  0  0
 31 33  1  0  0  0
 33 34  1  0  0  0
M  END
> <minimizedAffinity>
-9.15090

$$$$
1V2K_ZEN_T_1


 34 38  0  0  0  0  0  0  0  0999 V2000
   52.1458   73.2768  -32.7601 C   0  0  0  0  0  0  0  0  0  0  0  0
   51.3303   73.4080  -33.7011 O   0  0  0  0  0  0  0  0  0  0  0  0
   52.3752   74.2846  -31.8916 N   0  0  0  0  0  0  0  0  0  0  0  0
   53.3522   74.2057  -30.7433 C   0  0  0  0  0  0  0  0  0  0  0  0
   52.6164   74.6526  -29.4481 C   0  0  0  0  0  0  0  0  0  0  0  0
   50.8643   75.8870  -30.7227 C   0  0  0  0  0  0  0  0  0  0  0  0
   51.6434   75.5865  -32.0434 C   0  0  0  0  0  0  0  0  0  0  0  0
   51.8999   75.9584  -29.6404 N   0  0  0  0  0  0  0  0  0  0  0  0
   52.9127   68.9820  -32.1267 N   0  0  0  0  0  0  0  0  0  0  0  0
   53.0055   69.5084  -33.5396 C   0  0  0  0  0  0  0  0  0  0  0  0
   52.2428   70.8606  -33.6887 C   0  0  0  0  0  0  0  0  0  0  0  0
   52.6093   71.3413  -31.2258 C   0  0  0  0  0  0  0  0  0  0  0  0
   53.2758   69.9556  -31.0245 C   0  0  0  0  0  0  0  0  0  0  0  0
   52.8353   71.9027  -32.6834 C   0  0  0  0  0  0  0  0  0  0  0  0
   51.7115   64.9753  -31.2750 N   0  0  0  0  0  0  0  0  0  0  0  0
   52.7082   65.5395  -30.5093 C   0  0  0  0  0  0  0  0  0  0  0  0
   53.1332   66.8737  -30.7704 C   0  0  0  0  0  0  0  0  0  0  0  0
   51.4743   66.9868  -32.6078 C   0  0  0  0  0  0  0  0  0  0  0  0
   51.0971   65.6552  -32.2987 C   0  0  0  0  0  0  0  0  0  0  0  0
   52.5063   67.6160  -31.8387 C   0  0  0  0  0  0  0  0  0  0  0  0
   51.3173   76.5406  -28.2030 S   0  0  0  0  0  0  0  0  0  0  0  0
   51.4236   77.9881  -28.2060 O   0  0  0  0  0  0  0  0  0  0  0  0
   52.0923   75.8732  -27.1885 O   0  0  0  0  0  0  0  0  0  0  0  0
   49.6046   76.0891  -27.9269 C   0  0  0  0  0  0  0  0  0  0  0  0
   49.1317   74.7381  -28.1325 C   0  0  0  0  0  0  0  0  0  0  0  0
   48.6956   77.0860  -27.4309 C   0  0  0  0  0  0  0  0  0  0  0  0
   47.3418   76.7718  -27.1576 C   0  0  0  0  0  0  0  0  0  0  0  0
   47.7637   74.4085  -27.8612 C   0  0  0  0  0  0  0  0  0  0  0  0
   46.8675   75.4500  -27.3646 C   0  0  0  0  0  0  0  0  0  0  0  0
   45.5402   75.1451  -27.0868 C   0  0  0  0  0  0  0  0  0  0  0  0
   45.8989   72.7898  -27.7694 C   0  0  0  0  0  0  0  0  0  0  0  0
   47.2626   73.0808  -28.0601 C   0  0  0  0  0  0  0  0  0  0  0  0
   45.0464   73.8344  -27.2793 C   0  0  0  0  0  0  0  0  0  0  0  0
   43.3979   73.5392  -26.9046 Cl  0  0  0  0  0  0  0  0  0  0  0  0
 15 16  2  0  0  0
 15 19  1  0  0  0
 16 17  1  0  0  0
 17 20  2  0  0  0
 18 19  2  0  0  0
 18 20  1  0  0  0
 20  9  1  0  0  0
  9 10  1  0  0  0
  9 13  1  0  0  0
 10 11  1  0  0  0
 11 14  1  0  0  0
 12 13  1  0  0  0
 12 14  1  0  0  0
 14  1  1  0  0  0
  1  2  2  0  0  0
  1  3  1  0  0  0
  3  4  1  0  0  0
  3  7  1  0  0  0
  4  5  1  0  0  0
  5  8  1  0  0  0
  6  7  1  0  0  0
  6  8  1  0  0  0
  8 21  1  0  0  0
 21 22  2  0  0  0
 21 23  2  0  0  0
 21 24  1  0  0  0
 24 25  2  0  0  0
 24 26  1  0  0  0
 25 28  1  0  0  0
 26 27  2  0  0  0
 27 29  1  0  0  0
 28 29  2  0  0  0
 28 32  1  0  0  0
 29 30  1  0  0  0
 30 33  2  0  0  0
 31 32  2  0  0  0
 31 33  1  0  0  0
 33 34  1  0  0  0
M  END
> <minimizedAffinity>
-8.81995

$$$$
1V2K_ZEN_T_1


 34 38  0  0  0  0  0  0  0  0999 V2000
   50.7186   75.7301  -29.8911 C   0  0  0  0  0  0  0  0  0  0  0  0
   51.2001   76.8768  -29.7461 O   0  0  0  0  0  0  0  0  0  0  0  0
   50.9765   75.0012  -30.9979 N   0  0  0  0  0  0  0  0  0  0  0  0
   50.4214   73.6199  -31.2493 C   0  0  0  0  0  0  0  0  0  0  0  0
   51.6035   72.6829  -31.6277 C   0  0  0  0  0  0  0  0  0  0  0  0
   53.0594   74.5907  -32.3054 C   0  0  0  0  0  0  0  0  0  0  0  0
   51.8570   75.5620  -32.0767 C   0  0  0  0  0  0  0  0  0  0  0  0
   52.4577   73.2780  -32.7102 N   0  0  0  0  0  0  0  0  0  0  0  0
   47.2655   74.4066  -27.4914 N   0  0  0  0  0  0  0  0  0  0  0  0
   48.3732   73.4083  -27.7333 C   0  0  0  0  0  0  0  0  0  0  0  0
   49.2404   73.8157  -28.9639 C   0  0  0  0  0  0  0  0  0  0  0  0
   48.6327   76.2491  -28.5893 C   0  0  0  0  0  0  0  0  0  0  0  0
   47.6783   75.8627  -27.4296 C   0  0  0  0  0  0  0  0  0  0  0  0
   49.8395   75.2412  -28.7260 C   0  0  0  0  0  0  0  0  0  0  0  0
   43.2009   73.2005  -26.9949 N   0  0  0  0  0  0  0  0  0  0  0  0
   43.5553   74.4816  -26.6324 C   0  0  0  0  0  0  0  0  0  0  0  0
   44.9043   74.9133  -26.7834 C   0  0  0  0  0  0  0  0  0  0  0  0
   45.4657   72.6728  -27.6813 C   0  0  0  0  0  0  0  0  0  0  0  0
   44.1078   72.3036  -27.5055 C   0  0  0  0  0  0  0  0  0  0  0  0
   45.8817   73.9950  -27.3188 C   0  0  0  0  0  0  0  0  0  0  0  0
   53.5690   72.1832  -33.2677 S   0  0  0  0  0  0  0  0  0  0  0  0
   54.8348   72.4174  -32.5971 O   0  0  0  0  0  0  0  0  0  0  0  0
   53.5910   72.3681  -34.6961 O   0  0  0  0  0  0  0  0  0  0  0  0
   53.0656   70.4882  -32.9727 C   0  0  0  0  0  0  0  0  0  0  0  0
   53.5955   69.7186  -31.8690 C   0  0  0  0  0  0  0  0  0  0  0  0
   52.0645   69.9038  -33.8226 C   0  0  0  0  0  0  0  0  0  0  0  0
   51.6020   68.5824  -33.6083 C   0  0  0  0  0  0  0  0  0  0  0  0
   53.1368   68.3799  -31.6431 C   0  0  0  0  0  0  0  0  0  0  0  0
   52.1230   67.8172  -32.5321 C   0  0  0  0  0  0  0  0  0  0  0  0
   51.6596   66.5240  -32.3211 C   0  0  0  0  0  0  0  0  0  0  0  0
   53.1576   66.2660  -30.3637 C   0  0  0  0  0  0  0  0  0  0  0  0
   53.6460   67.5892  -30.5620 C   0  0  0  0  0  0  0  0  0  0  0  0
   52.1590   65.7449  -31.2523 C   0  0  0  0  0  0  0  0  0  0  0  0
   51.5283   64.1610  -31.0560 Cl  0  0  0  0  0  0  0  0  0  0  0  0
 15 16  2  0  0  0
 15 19  1  0  0  0
 16 17  1  0  0  0
 17 20  2  0  0  0
 18 19  2  0  0  0
 18 20  1  0  0  0
 20  9  1  0  0  0
  9 10  1  0  0  0
  9 13  1  0  0  0
 10 11  1  0  0  0
 11 14  1  0  0  0
 12 13  1  0  0  0
 12 14  1  0  0  0
 14  1  1  0  0  0
  1  2  2  0  0  0
  1  3  1  0  0  0
  3  4  1  0  0  0
  3  7  1  0  0  0
  4  5  1  0  0  0
  5  8  1  0  0  0
  6  7  1  0  0  0
  6  8  1  0  0  0
  8 21  1  0  0  0
 21 22  2  0  0  0
 21 23  2  0  0  0
 21 24  1  0  0  0
 24 25  2  0  0  0
 24 26  1  0  0  0
 25 28  1  0  0  0
 26 27  2  0  0  0
 27 29  1  0  0  0
 28 29  2  0  0  0
 28 32  1  0  0  0
 29 30  1  0  0  0
 30 33  2  0  0  0
 31 32  2  0  0  0
 31 33  1  0  0  0
 33 34  1  0  0  0
M  END
> <minimizedAffinity>
-8.81096

$$$$
1V2K_ZEN_T_1


 34 38  0  0  0  0  0  0  0  0999 V2000
   52.9327   74.3964  -29.7571 C   0  0  0  0  0  0  0  0  0  0  0  0
   53.9125   75.1593  -29.5965 O   0  0  0  0  0  0  0  0  0  0  0  0
   51.8129   74.5352  -29.0159 N   0  0  0  0  0  0  0  0  0  0  0  0
   50.5991   73.6464  -29.1425 C   0  0  0  0  0  0  0  0  0  0  0  0
   49.3472   74.5545  -29.3063 C   0  0  0  0  0  0  0  0  0  0  0  0
   50.4945   76.5267  -28.3000 C   0  0  0  0  0  0  0  0  0  0  0  0
   51.7275   75.6209  -27.9826 C   0  0  0  0  0  0  0  0  0  0  0  0
   49.2973   75.6245  -28.2536 N   0  0  0  0  0  0  0  0  0  0  0  0
   52.9828   70.5504  -31.9112 N   0  0  0  0  0  0  0  0  0  0  0  0
   52.0492   71.6243  -32.4184 C   0  0  0  0  0  0  0  0  0  0  0  0
   51.7634   72.6896  -31.3158 C   0  0  0  0  0  0  0  0  0  0  0  0
   53.9962   72.1696  -30.2316 C   0  0  0  0  0  0  0  0  0  0  0  0
   54.2586   71.0301  -31.2503 C   0  0  0  0  0  0  0  0  0  0  0  0
   53.1142   73.3247  -30.8470 C   0  0  0  0  0  0  0  0  0  0  0  0
   52.0858   66.3980  -32.3296 N   0  0  0  0  0  0  0  0  0  0  0  0
   52.9414   66.7874  -31.3223 C   0  0  0  0  0  0  0  0  0  0  0  0
   53.2626   68.1654  -31.1585 C   0  0  0  0  0  0  0  0  0  0  0  0
   51.7964   68.6827  -33.0881 C   0  0  0  0  0  0  0  0  0  0  0  0
   51.5174   67.2967  -33.1996 C   0  0  0  0  0  0  0  0  0  0  0  0
   52.6803   69.1356  -32.0557 C   0  0  0  0  0  0  0  0  0  0  0  0
   47.8537   76.4363  -28.2910 S   0  0  0  0  0  0  0  0  0  0  0  0
   47.6018   76.8821  -29.6491 O   0  0  0  0  0  0  0  0  0  0  0  0
   47.9925   77.4896  -27.3181 O   0  0  0  0  0  0  0  0  0  0  0  0
   46.4814   75.4147  -27.7559 C   0  0  0  0  0  0  0  0  0  0  0  0
   45.3746   75.9615  -27.0029 C   0  0  0  0  0  0  0  0  0  0  0  0
   46.4567   74.0296  -28.1393 C   0  0  0  0  0  0  0  0  0  0  0  0
   45.3763   73.1883  -27.7772 C   0  0  0  0  0  0  0  0  0  0  0  0
   44.2766   75.1199  -26.6291 C   0  0  0  0  0  0  0  0  0  0  0  0
   44.2898   73.7153  -27.0310 C   0  0  0  0  0  0  0  0  0  0  0  0
   43.2281   72.8875  -26.6855 C   0  0  0  0  0  0  0  0  0  0  0  0
   42.0900   74.7641  -25.5344 C   0  0  0  0  0  0  0  0  0  0  0  0
   43.1676   75.6297  -25.8783 C   0  0  0  0  0  0  0  0  0  0  0  0
   42.1320   73.3910  -25.9480 C   0  0  0  0  0  0  0  0  0  0  0  0
   40.8582   72.3052  -25.5693 Cl  0  0  0  0  0  0  0  0  0  0  0  0
 15 16  2  0  0  0
 15 19  1  0  0  0
 16 17  1  0  0  0
 17 20  2  0  0  0
 18 19  2  0  0  0
 18 20  1  0  0  0
 20  9  1  0  0  0
  9 10  1  0  0  0
  9 13  1  0  0  0
 10 11  1  0  0  0
 11 14  1  0  0  0
 12 13  1  0  0  0
 12 14  1  0  0  0
 14  1  1  0  0  0
  1  2  2  0  0  0
  1  3  1  0  0  0
  3  4  1  0  0  0
  3  7  1  0  0  0
  4  5  1  0  0  0
  5  8  1  0  0  0
  6  7  1  0  0  0
  6  8  1  0  0  0
  8 21  1  0  0  0
 21 22  2  0  0  0
 21 23  2  0  0  0
 21 24  1  0  0  0
 24 25  2  0  0  0
 24 26  1  0  0  0
 25 28  1  0  0  0
 26 27  2  0  0  0
 27 29  1  0  0  0
 28 29  2  0  0  0
 28 32  1  0  0  0
 29 30  1  0  0  0
 30 33  2  0  0  0
 31 32  2  0  0  0
 31 33  1  0  0  0
 33 34  1  0  0  0
M  END
> <minimizedAffinity>
-8.63263

$$$$
1V2K_ZEN_T_1


 34 38  0  0  0  0  0  0  0  0999 V2000
   53.2069   74.3909  -32.1701 C   0  0  0  0  0  0  0  0  0  0  0  0
   52.8019   74.8336  -33.2691 O   0  0  0  0  0  0  0  0  0  0  0  0
   53.1371   75.1398  -31.0490 N   0  0  0  0  0  0  0  0  0  0  0  0
   53.6173   74.6803  -29.6935 C   0  0  0  0  0  0  0  0  0  0  0  0
   52.4727   74.9154  -28.6673 C   0  0  0  0  0  0  0  0  0  0  0  0
   51.3626   76.6190  -30.1109 C   0  0  0  0  0  0  0  0  0  0  0  0
   52.5624   76.5254  -31.1075 C   0  0  0  0  0  0  0  0  0  0  0  0
   51.9273   76.3120  -28.7559 N   0  0  0  0  0  0  0  0  0  0  0  0
   53.5517   69.9995  -31.9937 N   0  0  0  0  0  0  0  0  0  0  0  0
   53.7870   70.6667  -33.3284 C   0  0  0  0  0  0  0  0  0  0  0  0
   53.1569   72.0929  -33.3645 C   0  0  0  0  0  0  0  0  0  0  0  0
   53.3936   72.2636  -30.8454 C   0  0  0  0  0  0  0  0  0  0  0  0
   53.9216   70.8075  -30.7670 C   0  0  0  0  0  0  0  0  0  0  0  0
   53.7673   72.9579  -32.2125 C   0  0  0  0  0  0  0  0  0  0  0  0
   51.9676   66.0469  -31.6938 N   0  0  0  0  0  0  0  0  0  0  0  0
   51.5500   66.8450  -32.7363 C   0  0  0  0  0  0  0  0  0  0  0  0
   52.0581   68.1698  -32.8622 C   0  0  0  0  0  0  0  0  0  0  0  0
   53.4134   67.7878  -30.8230 C   0  0  0  0  0  0  0  0  0  0  0  0
   52.8699   66.4798  -30.7524 C   0  0  0  0  0  0  0  0  0  0  0  0
   53.0092   68.6545  -31.8898 C   0  0  0  0  0  0  0  0  0  0  0  0
   50.8775   76.6262  -27.5135 S   0  0  0  0  0  0  0  0  0  0  0  0
   50.3965   77.9897  -27.6399 O   0  0  0  0  0  0  0  0  0  0  0  0
   51.6261   76.3511  -26.3138 O   0  0  0  0  0  0  0  0  0  0  0  0
   49.4698   75.5163  -27.5113 C   0  0  0  0  0  0  0  0  0  0  0  0
   48.1288   75.9894  -27.2490 C   0  0  0  0  0  0  0  0  0  0  0  0
   49.6772   74.1320  -27.8384 C   0  0  0  0  0  0  0  0  0  0  0  0
   48.5937   73.2213  -27.8904 C   0  0  0  0  0  0  0  0  0  0  0  0
   47.0247   75.0772  -27.2969 C   0  0  0  0  0  0  0  0  0  0  0  0
   47.2752   73.6759  -27.6262 C   0  0  0  0  0  0  0  0  0  0  0  0
   46.2145   72.7798  -27.6868 C   0  0  0  0  0  0  0  0  0  0  0  0
   44.6122   74.5783  -27.1036 C   0  0  0  0  0  0  0  0  0  0  0  0
   45.6847   75.5132  -27.0363 C   0  0  0  0  0  0  0  0  0  0  0  0
   44.8919   73.2104  -27.4335 C   0  0  0  0  0  0  0  0  0  0  0  0
   43.6385   72.0428  -27.5371 Cl  0  0  0  0  0  0  0  0  0  0  0  0
 15 16  2  0  0  0
 15 19  1  0  0  0
 16 17  1  0  0  0
 17 20  2  0  0  0
 18 19  2  0  0  0
 18 20  1  0  0  0
 20  9  1  0  0  0
  9 10  1  0  0  0
  9 13  1  0  0  0
 10 11  1  0  0  0
 11 14  1  0  0  0
 12 13  1  0  0  0
 12 14  1  0  0  0
 14  1  1  0  0  0
  1  2  2  0  0  0
  1  3  1  0  0  0
  3  4  1  0  0  0
  3  7  1  0  0  0
  4  5  1  0  0  0
  5  8  1  0  0  0
  6  7  1  0  0  0
  6  8  1  0  0  0
  8 21  1  0  0  0
 21 22  2  0  0  0
 21 23  2  0  0  0
 21 24  1  0  0  0
 24 25  2  0  0  0
 24 26  1  0  0  0
 25 28  1  0  0  0
 26 27  2  0  0  0
 27 29  1  0  0  0
 28 29  2  0  0  0
 28 32  1  0  0  0
 29 30  1  0  0  0
 30 33  2  0  0  0
 31 32  2  0  0  0
 31 33  1  0  0  0
 33 34  1  0  0  0
M  END
> <minimizedAffinity>
-8.32217

$$$$
1V2K_ZEN_T_1


 34 38  0  0  0  0  0  0  0  0999 V2000
   53.5026   75.7412  -25.7833 C   0  0  0  0  0  0  0  0  0  0  0  0
   53.3050   76.4650  -24.7809 O   0  0  0  0  0  0  0  0  0  0  0  0
   52.5078   74.9979  -26.3128 N   0  0  0  0  0  0  0  0  0  0  0  0
   52.6735   74.0922  -27.5093 C   0  0  0  0  0  0  0  0  0  0  0  0
   51.5524   74.4297  -28.5329 C   0  0  0  0  0  0  0  0  0  0  0  0
   50.1084   75.4782  -26.7911 C   0  0  0  0  0  0  0  0  0  0  0  0
   51.1371   75.0352  -25.7017 C   0  0  0  0  0  0  0  0  0  0  0  0
   50.1984   74.4547  -27.8836 N   0  0  0  0  0  0  0  0  0  0  0  0
   57.2417   74.6723  -27.8598 N   0  0  0  0  0  0  0  0  0  0  0  0
   56.4731   75.8671  -28.3733 C   0  0  0  0  0  0  0  0  0  0  0  0
   54.9860   75.8246  -27.9052 C   0  0  0  0  0  0  0  0  0  0  0  0
   55.6609   74.4575  -25.8787 C   0  0  0  0  0  0  0  0  0  0  0  0
   57.1285   74.3911  -26.3756 C   0  0  0  0  0  0  0  0  0  0  0  0
   54.9364   75.7808  -26.3420 C   0  0  0  0  0  0  0  0  0  0  0  0
   59.6116   72.2313  -30.4379 N   0  0  0  0  0  0  0  0  0  0  0  0
   59.4819   71.8601  -29.1175 C   0  0  0  0  0  0  0  0  0  0  0  0
   58.7000   72.6554  -28.2312 C   0  0  0  0  0  0  0  0  0  0  0  0
   58.2163   74.1882  -30.1174 C   0  0  0  0  0  0  0  0  0  0  0  0
   59.0087   73.3556  -30.9480 C   0  0  0  0  0  0  0  0  0  0  0  0
   58.0520   73.8426  -28.7368 C   0  0  0  0  0  0  0  0  0  0  0  0
   48.9935   74.5831  -29.0132 S   0  0  0  0  0  0  0  0  0  0  0  0
   49.1166   73.4870  -29.9566 O   0  0  0  0  0  0  0  0  0  0  0  0
   49.1521   75.8979  -29.5802 O   0  0  0  0  0  0  0  0  0  0  0  0
   47.3594   74.5300  -28.2781 C   0  0  0  0  0  0  0  0  0  0  0  0
   46.5830   73.3107  -28.2375 C   0  0  0  0  0  0  0  0  0  0  0  0
   46.8371   75.7187  -27.6614 C   0  0  0  0  0  0  0  0  0  0  0  0
   45.5687   75.7202  -27.0310 C   0  0  0  0  0  0  0  0  0  0  0  0
   45.2976   73.3002  -27.6042 C   0  0  0  0  0  0  0  0  0  0  0  0
   44.7967   74.5296  -26.9939 C   0  0  0  0  0  0  0  0  0  0  0  0
   43.5564   74.5344  -26.3667 C   0  0  0  0  0  0  0  0  0  0  0  0
   43.2329   72.1368  -26.9045 C   0  0  0  0  0  0  0  0  0  0  0  0
   44.5013   72.1100  -27.5520 C   0  0  0  0  0  0  0  0  0  0  0  0
   42.7720   73.3594  -26.3118 C   0  0  0  0  0  0  0  0  0  0  0  0
   41.2565   73.4477  -25.5116 Cl  0  0  0  0  0  0  0  0  0  0  0  0
 15 16  2  0  0  0
 15 19  1  0  0  0
 16 17  1  0  0  0
 17 20  2  0  0  0
 18 19  2  0  0  0
 18 20  1  0  0  0
 20  9  1  0  0  0
  9 10  1  0  0  0
  9 13  1  0  0  0
 10 11  1  0  0  0
 11 14  1  0  0  0
 12 13  1  0  0  0
 12 14  1  0  0  0
 14  1  1  0  0  0
  1  2  2  0  0  0
  1  3  1  0  0  0
  3  4  1  0  0  0
  3  7  1  0  0  0
  4  5  1  0  0  0
  5  8  1  0  0  0
  6  7  1  0  0  0
  6  8  1  0  0  0
  8 21  1  0  0  0
 21 22  2  0  0  0
 21 23  2  0  0  0
 21 24  1  0  0  0
 24 25  2  0  0  0
 24 26  1  0  0  0
 25 28  1  0  0  0
 26 27  2  0  0  0
 27 29  1  0  0  0
 28 29  2  0  0  0
 28 32  1  0  0  0
 29 30  1  0  0  0
 30 33  2  0  0  0
 31 32  2  0  0  0
 31 33  1  0  0  0
 33 34  1  0  0  0
M  END
> <minimizedAffinity>
-7.92460

$$$$
