1QXL_FR8_A_1001


 39 42  0  0  0  0  0  0  0  0999 V2000
   48.8192   56.5130   18.8177 N   0  0  0  0  0  0  0  0  0  0  0  0
   48.3602   57.6447   18.1943 C   0  0  0  0  0  0  0  0  0  0  0  0
   47.8377   57.3084   16.9458 C   0  0  0  0  0  0  0  0  0  0  0  0
   47.9811   55.8888   16.7952 C   0  0  0  0  0  0  0  0  0  0  0  0
   48.5857   55.4206   18.0018 C   0  0  0  0  0  0  0  0  0  0  0  0
   47.6605   55.0164   15.7987 C   0  0  0  0  0  0  0  0  0  0  0  0
   47.9357   53.6602   15.9509 C   0  0  0  0  0  0  0  0  0  0  0  0
   48.5343   53.1918   17.1526 C   0  0  0  0  0  0  0  0  0  0  0  0
   48.8419   54.0967   18.1594 C   0  0  0  0  0  0  0  0  0  0  0  0
   48.8929   51.9154   17.3936 N   0  0  0  0  0  0  0  0  0  0  0  0
   49.9930   51.3295   16.9244 C   0  0  0  0  0  0  0  0  0  0  0  0
   50.9243   51.8679   16.3641 O   0  0  0  0  0  0  0  0  0  0  0  0
   48.2960   51.3746   17.9598 H   0  0  0  0  0  0  0  0  0  0  0  0
   49.9620   49.8441   17.1446 C   0  0  0  0  0  0  0  0  0  0  0  0
   49.6585   49.0878   15.8557 C   0  0  0  0  0  0  0  0  0  0  0  0
   48.5255   48.1007   16.0761 C   0  0  0  0  0  0  0  0  0  0  0  0
   47.1837   48.7952   16.0257 C   0  0  0  0  0  0  0  0  0  0  0  0
   44.9725   47.9673   16.8094 C   0  0  0  0  0  0  0  0  0  0  0  0
   46.2888   48.3258   17.1016 C   0  0  0  0  0  0  0  0  0  0  0  0
   46.7792   48.1935   18.3864 C   0  0  0  0  0  0  0  0  0  0  0  0
   45.9805   47.5982   19.3426 C   0  0  0  0  0  0  0  0  0  0  0  0
   44.6883   47.1855   19.0313 C   0  0  0  0  0  0  0  0  0  0  0  0
   44.1581   47.3899   17.7709 C   0  0  0  0  0  0  0  0  0  0  0  0
   49.4798   56.4169   20.1505 C   0  0  0  0  0  0  0  0  0  0  0  0
   50.9276   56.9576   19.9872 C   0  0  0  0  0  0  0  0  0  0  0  0
   51.8051   56.7468   21.2378 C   0  0  0  0  0  0  0  0  0  0  0  0
   51.8004   54.1972   20.7451 C   0  0  0  0  0  0  0  0  0  0  0  0
   51.7428   55.3531   21.6417 N   0  0  0  0  0  0  0  0  0  0  0  0
   51.5110   54.9091   22.8732 C   0  0  0  0  0  0  0  0  0  0  0  0
   51.4741   53.5717   22.9021 N   0  0  0  0  0  0  0  0  0  0  0  0
   51.5906   53.1246   21.5065 C   0  0  0  0  0  0  0  0  0  0  0  0
   51.4765   51.7174   21.0375 C   0  0  0  0  0  0  0  0  0  0  0  0
   50.7503   51.4220   20.0993 O   0  0  0  0  0  0  0  0  0  0  0  0
   52.2037   50.8034   21.6311 N   0  0  0  0  0  0  0  0  0  0  0  0
   52.7854   51.0508   22.3858 H   0  0  0  0  0  0  0  0  0  0  0  0
   52.1684   49.8692   21.3224 H   0  0  0  0  0  0  0  0  0  0  0  0
   53.2756   57.2309   21.0254 C   0  0  0  0  0  0  0  0  0  0  0  0
   53.9530   57.3360   22.3472 O   0  0  0  0  0  0  0  0  0  0  0  0
   53.4772   57.9713   22.9048 H   0  0  0  0  0  0  0  0  0  0  0  0
 27 28  1  0  0  0
 27 31  2  0  0  0
 28 29  1  0  0  0
 28 26  1  0  0  0
 29 30  2  0  0  0
 30 31  1  0  0  0
 31 32  1  0  0  0
 32 33  2  0  0  0
 32 34  1  0  0  0
 26 37  1  0  0  0
 26 25  1  0  0  0
 37 38  1  0  0  0
 25 24  1  0  0  0
 24  1  1  0  0  0
  1  2  1  0  0  0
  1  5  1  0  0  0
  2  3  2  0  0  0
  3  4  1  0  0  0
  4  5  2  0  0  0
  4  6  1  0  0  0
  5  9  1  0  0  0
  6  7  2  0  0  0
  7  8  1  0  0  0
  8  9  2  0  0  0
  8 10  1  0  0  0
 10 11  1  0  0  0
 11 12  2  0  0  0
 11 14  1  0  0  0
 14 15  1  0  0  0
 15 16  1  0  0  0
 18 19  2  0  0  0
 18 23  1  0  0  0
 19 20  1  0  0  0
 19 17  1  0  0  0
 20 21  2  0  0  0
 21 22  1  0  0  0
 22 23  2  0  0  0
 16 17  1  0  0  0
 34 35  1  0  0  0
 34 36  1  0  0  0
 38 39  1  0  0  0
 10 13  1  0  0  0
M  END
> <minimizedAffinity>
-10.17298

$$$$
1QXL_FR8_A_1001


 39 42  0  0  0  0  0  0  0  0999 V2000
   50.1105   53.8200   20.4464 N   0  0  0  0  0  0  0  0  0  0  0  0
   50.7421   54.1197   21.6259 C   0  0  0  0  0  0  0  0  0  0  0  0
   51.6155   53.0856   21.9614 C   0  0  0  0  0  0  0  0  0  0  0  0
   51.5172   52.0959   20.9275 C   0  0  0  0  0  0  0  0  0  0  0  0
   50.5740   52.6023   19.9815 C   0  0  0  0  0  0  0  0  0  0  0  0
   52.1194   50.8902   20.7257 C   0  0  0  0  0  0  0  0  0  0  0  0
   51.8042   50.1394   19.5966 C   0  0  0  0  0  0  0  0  0  0  0  0
   50.8683   50.6434   18.6521 C   0  0  0  0  0  0  0  0  0  0  0  0
   50.2756   51.8793   18.8719 C   0  0  0  0  0  0  0  0  0  0  0  0
   50.4473   49.9879   17.5526 N   0  0  0  0  0  0  0  0  0  0  0  0
   50.6610   50.3834   16.2990 C   0  0  0  0  0  0  0  0  0  0  0  0
   51.3962   51.2749   15.9301 O   0  0  0  0  0  0  0  0  0  0  0  0
   49.9432   49.1529   17.6862 H   0  0  0  0  0  0  0  0  0  0  0  0
   49.8381   49.5909   15.3241 C   0  0  0  0  0  0  0  0  0  0  0  0
   48.6103   50.3666   14.8589 C   0  0  0  0  0  0  0  0  0  0  0  0
   47.4067   49.4451   14.7657 C   0  0  0  0  0  0  0  0  0  0  0  0
   47.6375   48.1711   15.5462 C   0  0  0  0  0  0  0  0  0  0  0  0
   45.3543   47.8169   16.4684 C   0  0  0  0  0  0  0  0  0  0  0  0
   46.7103   48.0594   16.6892 C   0  0  0  0  0  0  0  0  0  0  0  0
   47.2035   48.1428   17.9771 C   0  0  0  0  0  0  0  0  0  0  0  0
   46.3537   47.8714   19.0311 C   0  0  0  0  0  0  0  0  0  0  0  0
   45.0143   47.5693   18.8033 C   0  0  0  0  0  0  0  0  0  0  0  0
   44.4913   47.5659   17.5235 C   0  0  0  0  0  0  0  0  0  0  0  0
   49.0778   54.6301   19.7398 C   0  0  0  0  0  0  0  0  0  0  0  0
   49.8052   55.8431   19.0958 C   0  0  0  0  0  0  0  0  0  0  0  0
   49.0077   57.1594   19.1959 C   0  0  0  0  0  0  0  0  0  0  0  0
   48.3541   56.5719   16.7524 C   0  0  0  0  0  0  0  0  0  0  0  0
   48.2102   57.3332   17.9947 N   0  0  0  0  0  0  0  0  0  0  0  0
   47.3022   58.2832   17.7937 C   0  0  0  0  0  0  0  0  0  0  0  0
   46.7767   58.1929   16.5663 N   0  0  0  0  0  0  0  0  0  0  0  0
   47.5175   57.1265   15.8768 C   0  0  0  0  0  0  0  0  0  0  0  0
   47.3616   56.7523   14.4454 C   0  0  0  0  0  0  0  0  0  0  0  0
   46.4097   56.0844   14.0680 O   0  0  0  0  0  0  0  0  0  0  0  0
   48.2514   57.1885   13.5884 N   0  0  0  0  0  0  0  0  0  0  0  0
   49.0146   57.7257   13.9018 H   0  0  0  0  0  0  0  0  0  0  0  0
   48.1569   56.9790   12.6311 H   0  0  0  0  0  0  0  0  0  0  0  0
   48.1392   57.2354   20.4928 C   0  0  0  0  0  0  0  0  0  0  0  0
   49.0260   57.4828   21.6631 O   0  0  0  0  0  0  0  0  0  0  0  0
   49.6674   56.7594   21.7414 H   0  0  0  0  0  0  0  0  0  0  0  0
 27 28  1  0  0  0
 27 31  2  0  0  0
 28 29  1  0  0  0
 28 26  1  0  0  0
 29 30  2  0  0  0
 30 31  1  0  0  0
 31 32  1  0  0  0
 32 33  2  0  0  0
 32 34  1  0  0  0
 26 37  1  0  0  0
 26 25  1  0  0  0
 37 38  1  0  0  0
 25 24  1  0  0  0
 24  1  1  0  0  0
  1  2  1  0  0  0
  1  5  1  0  0  0
  2  3  2  0  0  0
  3  4  1  0  0  0
  4  5  2  0  0  0
  4  6  1  0  0  0
  5  9  1  0  0  0
  6  7  2  0  0  0
  7  8  1  0  0  0
  8  9  2  0  0  0
  8 10  1  0  0  0
 10 11  1  0  0  0
 11 12  2  0  0  0
 11 14  1  0  0  0
 14 15  1  0  0  0
 15 16  1  0  0  0
 18 19  2  0  0  0
 18 23  1  0  0  0
 19 20  1  0  0  0
 19 17  1  0  0  0
 20 21  2  0  0  0
 21 22  1  0  0  0
 22 23  2  0  0  0
 16 17  1  0  0  0
 34 35  1  0  0  0
 34 36  1  0  0  0
 38 39  1  0  0  0
 10 13  1  0  0  0
M  END
> <minimizedAffinity>
-9.38626

$$$$
1QXL_FR8_A_1001


 39 42  0  0  0  0  0  0  0  0999 V2000
   50.9954   51.1464   19.1386 N   0  0  0  0  0  0  0  0  0  0  0  0
   51.7636   50.2641   19.8539 C   0  0  0  0  0  0  0  0  0  0  0  0
   52.1304   50.8447   21.0676 C   0  0  0  0  0  0  0  0  0  0  0  0
   51.5519   52.1572   21.1011 C   0  0  0  0  0  0  0  0  0  0  0  0
   50.8289   52.3038   19.8778 C   0  0  0  0  0  0  0  0  0  0  0  0
   51.5750   53.1669   22.0159 C   0  0  0  0  0  0  0  0  0  0  0  0
   50.9005   54.3558   21.7518 C   0  0  0  0  0  0  0  0  0  0  0  0
   50.1775   54.5023   20.5362 C   0  0  0  0  0  0  0  0  0  0  0  0
   50.1579   53.4563   19.6238 C   0  0  0  0  0  0  0  0  0  0  0  0
   49.5312   55.6194   20.1486 N   0  0  0  0  0  0  0  0  0  0  0  0
   50.1110   56.7956   19.9161 C   0  0  0  0  0  0  0  0  0  0  0  0
   51.3005   57.0209   19.8418 O   0  0  0  0  0  0  0  0  0  0  0  0
   48.5558   55.5617   20.0280 H   0  0  0  0  0  0  0  0  0  0  0  0
   49.0940   57.8910   19.7694 C   0  0  0  0  0  0  0  0  0  0  0  0
   47.9781   57.7683   20.8014 C   0  0  0  0  0  0  0  0  0  0  0  0
   46.6214   57.8967   20.1309 C   0  0  0  0  0  0  0  0  0  0  0  0
   46.7532   58.5023   18.7520 C   0  0  0  0  0  0  0  0  0  0  0  0
   44.8218   60.0530   18.5195 C   0  0  0  0  0  0  0  0  0  0  0  0
   46.1923   59.8667   18.7025 C   0  0  0  0  0  0  0  0  0  0  0  0
   47.0249   60.9529   18.8922 C   0  0  0  0  0  0  0  0  0  0  0  0
   46.4609   62.2079   19.0085 C   0  0  0  0  0  0  0  0  0  0  0  0
   45.0854   62.3820   18.8863 C   0  0  0  0  0  0  0  0  0  0  0  0
   44.2524   61.3132   18.6125 C   0  0  0  0  0  0  0  0  0  0  0  0
   50.4167   50.9492   17.7791 C   0  0  0  0  0  0  0  0  0  0  0  0
   49.0360   50.2597   17.9618 C   0  0  0  0  0  0  0  0  0  0  0  0
   48.9011   48.9404   17.1746 C   0  0  0  0  0  0  0  0  0  0  0  0
   46.6693   47.7581   16.5713 C   0  0  0  0  0  0  0  0  0  0  0  0
   47.6448   48.2987   17.5197 N   0  0  0  0  0  0  0  0  0  0  0  0
   47.1300   48.2016   18.7416 C   0  0  0  0  0  0  0  0  0  0  0  0
   45.9394   47.5913   18.7137 N   0  0  0  0  0  0  0  0  0  0  0  0
   45.6194   47.3740   17.2954 C   0  0  0  0  0  0  0  0  0  0  0  0
   44.3361   46.8330   16.7722 C   0  0  0  0  0  0  0  0  0  0  0  0
   43.7896   47.3345   15.8002 O   0  0  0  0  0  0  0  0  0  0  0  0
   43.8217   45.7790   17.3561 N   0  0  0  0  0  0  0  0  0  0  0  0
   44.2689   45.3822   18.1382 H   0  0  0  0  0  0  0  0  0  0  0  0
   42.9879   45.3838   17.0127 H   0  0  0  0  0  0  0  0  0  0  0  0
   49.0509   49.1458   15.6328 C   0  0  0  0  0  0  0  0  0  0  0  0
   50.4364   48.7859   15.2224 O   0  0  0  0  0  0  0  0  0  0  0  0
   51.0696   49.3523   15.6905 H   0  0  0  0  0  0  0  0  0  0  0  0
 27 28  1  0  0  0
 27 31  2  0  0  0
 28 29  1  0  0  0
 28 26  1  0  0  0
 29 30  2  0  0  0
 30 31  1  0  0  0
 31 32  1  0  0  0
 32 33  2  0  0  0
 32 34  1  0  0  0
 26 37  1  0  0  0
 26 25  1  0  0  0
 37 38  1  0  0  0
 25 24  1  0  0  0
 24  1  1  0  0  0
  1  2  1  0  0  0
  1  5  1  0  0  0
  2  3  2  0  0  0
  3  4  1  0  0  0
  4  5  2  0  0  0
  4  6  1  0  0  0
  5  9  1  0  0  0
  6  7  2  0  0  0
  7  8  1  0  0  0
  8  9  2  0  0  0
  8 10  1  0  0  0
 10 11  1  0  0  0
 11 12  2  0  0  0
 11 14  1  0  0  0
 14 15  1  0  0  0
 15 16  1  0  0  0
 18 19  2  0  0  0
 18 23  1  0  0  0
 19 20  1  0  0  0
 19 17  1  0  0  0
 20 21  2  0  0  0
 21 22  1  0  0  0
 22 23  2  0  0  0
 16 17  1  0  0  0
 34 35  1  0  0  0
 34 36  1  0  0  0
 38 39  1  0  0  0
 10 13  1  0  0  0
M  END
> <minimizedAffinity>
-9.23465

$$$$
1QXL_FR8_A_1001


 39 42  0  0  0  0  0  0  0  0999 V2000
   48.6897   53.1437   16.9363 N   0  0  0  0  0  0  0  0  0  0  0  0
   47.8713   53.2279   15.8394 C   0  0  0  0  0  0  0  0  0  0  0  0
   47.4321   54.5427   15.6868 C   0  0  0  0  0  0  0  0  0  0  0  0
   48.0166   55.3104   16.7486 C   0  0  0  0  0  0  0  0  0  0  0  0
   48.8171   54.3991   17.5033 C   0  0  0  0  0  0  0  0  0  0  0  0
   47.9425   56.6237   17.1043 C   0  0  0  0  0  0  0  0  0  0  0  0
   48.6408   57.0794   18.2191 C   0  0  0  0  0  0  0  0  0  0  0  0
   49.4408   56.1746   18.9695 C   0  0  0  0  0  0  0  0  0  0  0  0
   49.5111   54.8434   18.5822 C   0  0  0  0  0  0  0  0  0  0  0  0
   50.1184   56.4864   20.0918 N   0  0  0  0  0  0  0  0  0  0  0  0
   51.4455   56.5138   20.2000 C   0  0  0  0  0  0  0  0  0  0  0  0
   52.2531   56.4395   19.2980 O   0  0  0  0  0  0  0  0  0  0  0  0
   49.5922   56.7111   20.8930 H   0  0  0  0  0  0  0  0  0  0  0  0
   51.8785   56.6280   21.6336 C   0  0  0  0  0  0  0  0  0  0  0  0
   51.1093   55.6678   22.5346 C   0  0  0  0  0  0  0  0  0  0  0  0
   51.6699   54.2618   22.4099 C   0  0  0  0  0  0  0  0  0  0  0  0
   50.6318   53.3112   21.8583 C   0  0  0  0  0  0  0  0  0  0  0  0
   52.0738   52.8732   19.8790 C   0  0  0  0  0  0  0  0  0  0  0  0
   51.2147   52.3877   20.8653 C   0  0  0  0  0  0  0  0  0  0  0  0
   50.9464   51.0353   20.9529 C   0  0  0  0  0  0  0  0  0  0  0  0
   51.6288   50.1690   20.1219 C   0  0  0  0  0  0  0  0  0  0  0  0
   52.5318   50.6529   19.1797 C   0  0  0  0  0  0  0  0  0  0  0  0
   52.7447   52.0103   19.0267 C   0  0  0  0  0  0  0  0  0  0  0  0
   49.3525   51.9248   17.4814 C   0  0  0  0  0  0  0  0  0  0  0  0
   48.3445   50.7504   17.3404 C   0  0  0  0  0  0  0  0  0  0  0  0
   48.9751   49.4682   16.7599 C   0  0  0  0  0  0  0  0  0  0  0  0
   46.5453   48.5566   16.8496 C   0  0  0  0  0  0  0  0  0  0  0  0
   47.9990   48.3933   16.7916 N   0  0  0  0  0  0  0  0  0  0  0  0
   48.2726   47.0958   16.8867 C   0  0  0  0  0  0  0  0  0  0  0  0
   47.1490   46.3706   16.9353 N   0  0  0  0  0  0  0  0  0  0  0  0
   46.0381   47.3323   16.9835 C   0  0  0  0  0  0  0  0  0  0  0  0
   44.6028   46.9861   17.1664 C   0  0  0  0  0  0  0  0  0  0  0  0
   43.7634   47.3204   16.3428 O   0  0  0  0  0  0  0  0  0  0  0  0
   44.2627   46.2793   18.2158 N   0  0  0  0  0  0  0  0  0  0  0  0
   44.9457   46.0149   18.8736 H   0  0  0  0  0  0  0  0  0  0  0  0
   43.3240   46.0127   18.3465 H   0  0  0  0  0  0  0  0  0  0  0  0
   49.5621   49.6856   15.3281 C   0  0  0  0  0  0  0  0  0  0  0  0
   51.0492   49.6567   15.3982 O   0  0  0  0  0  0  0  0  0  0  0  0
   51.3588   50.3613   15.9887 H   0  0  0  0  0  0  0  0  0  0  0  0
 27 28  1  0  0  0
 27 31  2  0  0  0
 28 29  1  0  0  0
 28 26  1  0  0  0
 29 30  2  0  0  0
 30 31  1  0  0  0
 31 32  1  0  0  0
 32 33  2  0  0  0
 32 34  1  0  0  0
 26 37  1  0  0  0
 26 25  1  0  0  0
 37 38  1  0  0  0
 25 24  1  0  0  0
 24  1  1  0  0  0
  1  2  1  0  0  0
  1  5  1  0  0  0
  2  3  2  0  0  0
  3  4  1  0  0  0
  4  5  2  0  0  0
  4  6  1  0  0  0
  5  9  1  0  0  0
  6  7  2  0  0  0
  7  8  1  0  0  0
  8  9  2  0  0  0
  8 10  1  0  0  0
 10 11  1  0  0  0
 11 12  2  0  0  0
 11 14  1  0  0  0
 14 15  1  0  0  0
 15 16  1  0  0  0
 18 19  2  0  0  0
 18 23  1  0  0  0
 19 20  1  0  0  0
 19 17  1  0  0  0
 20 21  2  0  0  0
 21 22  1  0  0  0
 22 23  2  0  0  0
 16 17  1  0  0  0
 34 35  1  0  0  0
 34 36  1  0  0  0
 38 39  1  0  0  0
 10 13  1  0  0  0
M  END
> <minimizedAffinity>
-9.08974

$$$$
1QXL_FR8_A_1001


 39 42  0  0  0  0  0  0  0  0999 V2000
   48.5794   57.1144   20.2889 N   0  0  0  0  0  0  0  0  0  0  0  0
   48.8633   58.0799   21.2203 C   0  0  0  0  0  0  0  0  0  0  0  0
   49.8664   57.6218   22.0739 C   0  0  0  0  0  0  0  0  0  0  0  0
   50.2211   56.3011   21.6402 C   0  0  0  0  0  0  0  0  0  0  0  0
   49.4030   56.0236   20.5024 C   0  0  0  0  0  0  0  0  0  0  0  0
   51.1189   55.3787   22.0877 C   0  0  0  0  0  0  0  0  0  0  0  0
   51.2313   54.1514   21.4403 C   0  0  0  0  0  0  0  0  0  0  0  0
   50.4202   53.8748   20.3055 C   0  0  0  0  0  0  0  0  0  0  0  0
   49.5206   54.8335   19.8599 C   0  0  0  0  0  0  0  0  0  0  0  0
   50.4035   52.7086   19.6305 N   0  0  0  0  0  0  0  0  0  0  0  0
   51.1411   52.4378   18.5553 C   0  0  0  0  0  0  0  0  0  0  0  0
   52.0552   53.1003   18.1115 O   0  0  0  0  0  0  0  0  0  0  0  0
   49.7998   52.0028   19.9572 H   0  0  0  0  0  0  0  0  0  0  0  0
   50.6937   51.1699   17.8861 C   0  0  0  0  0  0  0  0  0  0  0  0
   49.9002   50.2789   18.8359 C   0  0  0  0  0  0  0  0  0  0  0  0
   48.8552   49.4873   18.0693 C   0  0  0  0  0  0  0  0  0  0  0  0
   48.2127   48.4410   18.9513 C   0  0  0  0  0  0  0  0  0  0  0  0
   46.3782   48.5155   17.2726 C   0  0  0  0  0  0  0  0  0  0  0  0
   46.8151   48.1805   18.5546 C   0  0  0  0  0  0  0  0  0  0  0  0
   45.9603   47.5551   19.4418 C   0  0  0  0  0  0  0  0  0  0  0  0
   44.7104   47.1704   18.9985 C   0  0  0  0  0  0  0  0  0  0  0  0
   44.3006   47.4523   17.6986 C   0  0  0  0  0  0  0  0  0  0  0  0
   45.1164   48.1521   16.8291 C   0  0  0  0  0  0  0  0  0  0  0  0
   47.5549   57.1713   19.2076 C   0  0  0  0  0  0  0  0  0  0  0  0
   46.4576   58.1723   19.6650 C   0  0  0  0  0  0  0  0  0  0  0  0
   46.3021   59.3834   18.7229 C   0  0  0  0  0  0  0  0  0  0  0  0
   43.7425   59.0685   19.0266 C   0  0  0  0  0  0  0  0  0  0  0  0
   44.9391   59.8797   18.7958 N   0  0  0  0  0  0  0  0  0  0  0  0
   44.5511   61.1279   18.5531 C   0  0  0  0  0  0  0  0  0  0  0  0
   43.2229   61.2477   18.6637 N   0  0  0  0  0  0  0  0  0  0  0  0
   42.7038   59.8926   18.8994 C   0  0  0  0  0  0  0  0  0  0  0  0
   41.2657   59.5176   18.9662 C   0  0  0  0  0  0  0  0  0  0  0  0
   40.9189   58.4161   19.3676 O   0  0  0  0  0  0  0  0  0  0  0  0
   40.3733   60.4119   18.6191 N   0  0  0  0  0  0  0  0  0  0  0  0
   40.6622   61.2963   18.2970 H   0  0  0  0  0  0  0  0  0  0  0  0
   39.4139   60.1996   18.6803 H   0  0  0  0  0  0  0  0  0  0  0  0
   47.3511   60.5049   19.0122 C   0  0  0  0  0  0  0  0  0  0  0  0
   48.3648   60.5213   17.9216 O   0  0  0  0  0  0  0  0  0  0  0  0
   48.8098   59.6604   17.8809 H   0  0  0  0  0  0  0  0  0  0  0  0
 27 28  1  0  0  0
 27 31  2  0  0  0
 28 29  1  0  0  0
 28 26  1  0  0  0
 29 30  2  0  0  0
 30 31  1  0  0  0
 31 32  1  0  0  0
 32 33  2  0  0  0
 32 34  1  0  0  0
 26 37  1  0  0  0
 26 25  1  0  0  0
 37 38  1  0  0  0
 25 24  1  0  0  0
 24  1  1  0  0  0
  1  2  1  0  0  0
  1  5  1  0  0  0
  2  3  2  0  0  0
  3  4  1  0  0  0
  4  5  2  0  0  0
  4  6  1  0  0  0
  5  9  1  0  0  0
  6  7  2  0  0  0
  7  8  1  0  0  0
  8  9  2  0  0  0
  8 10  1  0  0  0
 10 11  1  0  0  0
 11 12  2  0  0  0
 11 14  1  0  0  0
 14 15  1  0  0  0
 15 16  1  0  0  0
 18 19  2  0  0  0
 18 23  1  0  0  0
 19 20  1  0  0  0
 19 17  1  0  0  0
 20 21  2  0  0  0
 21 22  1  0  0  0
 22 23  2  0  0  0
 16 17  1  0  0  0
 34 35  1  0  0  0
 34 36  1  0  0  0
 38 39  1  0  0  0
 10 13  1  0  0  0
M  END
> <minimizedAffinity>
-8.98283

$$$$
1QXL_FR8_A_1001


 39 42  0  0  0  0  0  0  0  0999 V2000
   48.4527   57.0878   20.4248 N   0  0  0  0  0  0  0  0  0  0  0  0
   48.7324   58.0601   21.3503 C   0  0  0  0  0  0  0  0  0  0  0  0
   49.8206   57.6635   22.1270 C   0  0  0  0  0  0  0  0  0  0  0  0
   50.2349   56.3757   21.6494 C   0  0  0  0  0  0  0  0  0  0  0  0
   49.3620   56.0547   20.5650 C   0  0  0  0  0  0  0  0  0  0  0  0
   51.2224   55.5132   22.0206 C   0  0  0  0  0  0  0  0  0  0  0  0
   51.3745   54.3041   21.3476 C   0  0  0  0  0  0  0  0  0  0  0  0
   50.5089   53.9844   20.2658 C   0  0  0  0  0  0  0  0  0  0  0  0
   49.5172   54.8830   19.8971 C   0  0  0  0  0  0  0  0  0  0  0  0
   50.5264   52.8275   19.5749 N   0  0  0  0  0  0  0  0  0  0  0  0
   51.2883   52.5855   18.5097 C   0  0  0  0  0  0  0  0  0  0  0  0
   52.1975   53.2710   18.0917 O   0  0  0  0  0  0  0  0  0  0  0  0
   49.9304   52.1062   19.8809 H   0  0  0  0  0  0  0  0  0  0  0  0
   50.8771   51.3188   17.8154 C   0  0  0  0  0  0  0  0  0  0  0  0
   50.2310   50.3297   18.7796 C   0  0  0  0  0  0  0  0  0  0  0  0
   49.2883   49.4023   18.0328 C   0  0  0  0  0  0  0  0  0  0  0  0
   48.4305   48.6119   18.9945 C   0  0  0  0  0  0  0  0  0  0  0  0
   46.1159   47.7175   19.1723 C   0  0  0  0  0  0  0  0  0  0  0  0
   47.1503   48.2127   18.3778 C   0  0  0  0  0  0  0  0  0  0  0  0
   46.9661   48.3835   17.0192 C   0  0  0  0  0  0  0  0  0  0  0  0
   45.7111   48.1620   16.4876 C   0  0  0  0  0  0  0  0  0  0  0  0
   44.6648   47.7263   17.2954 C   0  0  0  0  0  0  0  0  0  0  0  0
   44.8599   47.4716   18.6402 C   0  0  0  0  0  0  0  0  0  0  0  0
   47.3553   57.0853   19.4160 C   0  0  0  0  0  0  0  0  0  0  0  0
   46.8991   58.5589   19.2280 C   0  0  0  0  0  0  0  0  0  0  0  0
   47.5763   59.2624   18.0342 C   0  0  0  0  0  0  0  0  0  0  0  0
   47.6149   57.8599   15.8492 C   0  0  0  0  0  0  0  0  0  0  0  0
   46.9880   58.7846   16.7953 N   0  0  0  0  0  0  0  0  0  0  0  0
   45.8386   59.1969   16.2695 C   0  0  0  0  0  0  0  0  0  0  0  0
   45.6016   58.5917   15.0997 N   0  0  0  0  0  0  0  0  0  0  0  0
   46.7930   57.7829   14.8038 C   0  0  0  0  0  0  0  0  0  0  0  0
   47.0337   57.0274   13.5450 C   0  0  0  0  0  0  0  0  0  0  0  0
   46.1350   56.3989   13.0047 O   0  0  0  0  0  0  0  0  0  0  0  0
   48.2266   57.0819   13.0058 N   0  0  0  0  0  0  0  0  0  0  0  0
   48.9440   57.5905   13.4482 H   0  0  0  0  0  0  0  0  0  0  0  0
   48.4054   56.6141   12.1582 H   0  0  0  0  0  0  0  0  0  0  0  0
   47.5208   60.8199   18.1477 C   0  0  0  0  0  0  0  0  0  0  0  0
   46.3771   61.2077   19.0188 O   0  0  0  0  0  0  0  0  0  0  0  0
   45.5504   60.8786   18.6326 H   0  0  0  0  0  0  0  0  0  0  0  0
 27 28  1  0  0  0
 27 31  2  0  0  0
 28 29  1  0  0  0
 28 26  1  0  0  0
 29 30  2  0  0  0
 30 31  1  0  0  0
 31 32  1  0  0  0
 32 33  2  0  0  0
 32 34  1  0  0  0
 26 37  1  0  0  0
 26 25  1  0  0  0
 37 38  1  0  0  0
 25 24  1  0  0  0
 24  1  1  0  0  0
  1  2  1  0  0  0
  1  5  1  0  0  0
  2  3  2  0  0  0
  3  4  1  0  0  0
  4  5  2  0  0  0
  4  6  1  0  0  0
  5  9  1  0  0  0
  6  7  2  0  0  0
  7  8  1  0  0  0
  8  9  2  0  0  0
  8 10  1  0  0  0
 10 11  1  0  0  0
 11 12  2  0  0  0
 11 14  1  0  0  0
 14 15  1  0  0  0
 15 16  1  0  0  0
 18 19  2  0  0  0
 18 23  1  0  0  0
 19 20  1  0  0  0
 19 17  1  0  0  0
 20 21  2  0  0  0
 21 22  1  0  0  0
 22 23  2  0  0  0
 16 17  1  0  0  0
 34 35  1  0  0  0
 34 36  1  0  0  0
 38 39  1  0  0  0
 10 13  1  0  0  0
M  END
> <minimizedAffinity>
-8.89199

$$$$
1QXL_FR8_A_1001


 39 42  0  0  0  0  0  0  0  0999 V2000
   49.7824   51.5438   17.2140 N   0  0  0  0  0  0  0  0  0  0  0  0
   50.6977   50.8549   16.4605 C   0  0  0  0  0  0  0  0  0  0  0  0
   51.9858   51.2608   16.8079 C   0  0  0  0  0  0  0  0  0  0  0  0
   51.8544   52.2532   17.8356 C   0  0  0  0  0  0  0  0  0  0  0  0
   50.4533   52.3907   18.0780 C   0  0  0  0  0  0  0  0  0  0  0  0
   52.7542   52.9944   18.5413 C   0  0  0  0  0  0  0  0  0  0  0  0
   52.3055   53.9023   19.4964 C   0  0  0  0  0  0  0  0  0  0  0  0
   50.9114   54.0382   19.7415 C   0  0  0  0  0  0  0  0  0  0  0  0
   50.0132   53.2646   19.0191 C   0  0  0  0  0  0  0  0  0  0  0  0
   50.3574   54.9160   20.6008 N   0  0  0  0  0  0  0  0  0  0  0  0
   50.6398   56.2165   20.6520 C   0  0  0  0  0  0  0  0  0  0  0  0
   51.2886   56.8546   19.8502 O   0  0  0  0  0  0  0  0  0  0  0  0
   49.6931   54.5695   21.2395 H   0  0  0  0  0  0  0  0  0  0  0  0
   50.0657   56.8561   21.8837 C   0  0  0  0  0  0  0  0  0  0  0  0
   49.1394   58.0172   21.5384 C   0  0  0  0  0  0  0  0  0  0  0  0
   47.9958   57.5386   20.6612 C   0  0  0  0  0  0  0  0  0  0  0  0
   47.8285   58.4320   19.4532 C   0  0  0  0  0  0  0  0  0  0  0  0
   46.1785   60.0910   18.6079 C   0  0  0  0  0  0  0  0  0  0  0  0
   46.4439   58.9292   19.3335 C   0  0  0  0  0  0  0  0  0  0  0  0
   45.4098   58.2078   19.8983 C   0  0  0  0  0  0  0  0  0  0  0  0
   44.1107   58.5959   19.6365 C   0  0  0  0  0  0  0  0  0  0  0  0
   43.8487   59.7212   18.8606 C   0  0  0  0  0  0  0  0  0  0  0  0
   44.8771   60.4984   18.3606 C   0  0  0  0  0  0  0  0  0  0  0  0
   48.2965   51.4454   17.1487 C   0  0  0  0  0  0  0  0  0  0  0  0
   47.9519   50.0281   16.6122 C   0  0  0  0  0  0  0  0  0  0  0  0
   47.4530   49.0632   17.7071 C   0  0  0  0  0  0  0  0  0  0  0  0
   45.9748   47.8865   15.9257 C   0  0  0  0  0  0  0  0  0  0  0  0
   46.2268   48.4233   17.2643 N   0  0  0  0  0  0  0  0  0  0  0  0
   45.1024   48.3250   17.9668 C   0  0  0  0  0  0  0  0  0  0  0  0
   44.1446   47.7170   17.2570 N   0  0  0  0  0  0  0  0  0  0  0  0
   44.6992   47.5030   15.9124 C   0  0  0  0  0  0  0  0  0  0  0  0
   43.9509   46.9655   14.7444 C   0  0  0  0  0  0  0  0  0  0  0  0
   42.7287   46.9819   14.7164 O   0  0  0  0  0  0  0  0  0  0  0  0
   44.6349   46.5066   13.7256 N   0  0  0  0  0  0  0  0  0  0  0  0
   45.6188   46.4974   13.7573 H   0  0  0  0  0  0  0  0  0  0  0  0
   44.1650   46.1709   12.9283 H   0  0  0  0  0  0  0  0  0  0  0  0
   48.5397   48.0217   18.1269 C   0  0  0  0  0  0  0  0  0  0  0  0
   49.4626   48.6469   19.1142 O   0  0  0  0  0  0  0  0  0  0  0  0
   49.8891   49.4205   18.7134 H   0  0  0  0  0  0  0  0  0  0  0  0
 27 28  1  0  0  0
 27 31  2  0  0  0
 28 29  1  0  0  0
 28 26  1  0  0  0
 29 30  2  0  0  0
 30 31  1  0  0  0
 31 32  1  0  0  0
 32 33  2  0  0  0
 32 34  1  0  0  0
 26 37  1  0  0  0
 26 25  1  0  0  0
 37 38  1  0  0  0
 25 24  1  0  0  0
 24  1  1  0  0  0
  1  2  1  0  0  0
  1  5  1  0  0  0
  2  3  2  0  0  0
  3  4  1  0  0  0
  4  5  2  0  0  0
  4  6  1  0  0  0
  5  9  1  0  0  0
  6  7  2  0  0  0
  7  8  1  0  0  0
  8  9  2  0  0  0
  8 10  1  0  0  0
 10 11  1  0  0  0
 11 12  2  0  0  0
 11 14  1  0  0  0
 14 15  1  0  0  0
 15 16  1  0  0  0
 18 19  2  0  0  0
 18 23  1  0  0  0
 19 20  1  0  0  0
 19 17  1  0  0  0
 20 21  2  0  0  0
 21 22  1  0  0  0
 22 23  2  0  0  0
 16 17  1  0  0  0
 34 35  1  0  0  0
 34 36  1  0  0  0
 38 39  1  0  0  0
 10 13  1  0  0  0
M  END
> <minimizedAffinity>
-8.82341

$$$$
1QXL_FR8_A_1001


 39 42  0  0  0  0  0  0  0  0999 V2000
   49.5883   50.8675   17.3374 N   0  0  0  0  0  0  0  0  0  0  0  0
   49.2525   50.0007   16.3294 C   0  0  0  0  0  0  0  0  0  0  0  0
   48.4406   50.6558   15.4041 C   0  0  0  0  0  0  0  0  0  0  0  0
   48.2705   52.0026   15.8684 C   0  0  0  0  0  0  0  0  0  0  0  0
   49.0234   52.1035   17.0783 C   0  0  0  0  0  0  0  0  0  0  0  0
   47.5879   53.0793   15.3871 C   0  0  0  0  0  0  0  0  0  0  0  0
   47.6127   54.2833   16.0854 C   0  0  0  0  0  0  0  0  0  0  0  0
   48.3644   54.3867   17.2881 C   0  0  0  0  0  0  0  0  0  0  0  0
   49.0617   53.2804   17.7539 C   0  0  0  0  0  0  0  0  0  0  0  0
   48.4225   55.4795   18.0743 N   0  0  0  0  0  0  0  0  0  0  0  0
   48.5121   56.7332   17.6340 C   0  0  0  0  0  0  0  0  0  0  0  0
   48.3839   57.1161   16.4903 O   0  0  0  0  0  0  0  0  0  0  0  0
   48.3968   55.3405   19.0486 H   0  0  0  0  0  0  0  0  0  0  0  0
   48.8308   57.6868   18.7498 C   0  0  0  0  0  0  0  0  0  0  0  0
   48.2826   57.1970   20.0859 C   0  0  0  0  0  0  0  0  0  0  0  0
   47.1895   58.1273   20.5820 C   0  0  0  0  0  0  0  0  0  0  0  0
   45.8381   57.7086   20.0494 C   0  0  0  0  0  0  0  0  0  0  0  0
   45.8647   59.8462   18.7769 C   0  0  0  0  0  0  0  0  0  0  0  0
   45.1359   58.8355   19.4046 C   0  0  0  0  0  0  0  0  0  0  0  0
   43.7546   58.8535   19.3808 C   0  0  0  0  0  0  0  0  0  0  0  0
   43.1173   59.8236   18.6329 C   0  0  0  0  0  0  0  0  0  0  0  0
   43.8505   60.7948   17.9574 C   0  0  0  0  0  0  0  0  0  0  0  0
   45.2297   60.8359   18.0433 C   0  0  0  0  0  0  0  0  0  0  0  0
   50.4140   50.5783   18.5443 C   0  0  0  0  0  0  0  0  0  0  0  0
   51.7689   51.3177   18.3635 C   0  0  0  0  0  0  0  0  0  0  0  0
   52.5901   51.4189   19.6650 C   0  0  0  0  0  0  0  0  0  0  0  0
   52.0648   53.9210   20.1193 C   0  0  0  0  0  0  0  0  0  0  0  0
   52.0703   52.5023   20.4807 N   0  0  0  0  0  0  0  0  0  0  0  0
   51.6219   52.3922   21.7274 C   0  0  0  0  0  0  0  0  0  0  0  0
   51.2547   53.5842   22.2124 N   0  0  0  0  0  0  0  0  0  0  0  0
   51.6139   54.5757   21.1881 C   0  0  0  0  0  0  0  0  0  0  0  0
   51.5030   56.0517   21.3377 C   0  0  0  0  0  0  0  0  0  0  0  0
   51.8565   56.8050   20.4420 O   0  0  0  0  0  0  0  0  0  0  0  0
   50.9805   56.5271   22.4412 N   0  0  0  0  0  0  0  0  0  0  0  0
   50.6988   55.9127   23.1569 H   0  0  0  0  0  0  0  0  0  0  0  0
   50.8697   57.4988   22.5545 H   0  0  0  0  0  0  0  0  0  0  0  0
   52.6399   50.0672   20.4475 C   0  0  0  0  0  0  0  0  0  0  0  0
   53.5694   49.1331   19.7542 O   0  0  0  0  0  0  0  0  0  0  0  0
   53.2550   48.9759   18.8501 H   0  0  0  0  0  0  0  0  0  0  0  0
 27 28  1  0  0  0
 27 31  2  0  0  0
 28 29  1  0  0  0
 28 26  1  0  0  0
 29 30  2  0  0  0
 30 31  1  0  0  0
 31 32  1  0  0  0
 32 33  2  0  0  0
 32 34  1  0  0  0
 26 37  1  0  0  0
 26 25  1  0  0  0
 37 38  1  0  0  0
 25 24  1  0  0  0
 24  1  1  0  0  0
  1  2  1  0  0  0
  1  5  1  0  0  0
  2  3  2  0  0  0
  3  4  1  0  0  0
  4  5  2  0  0  0
  4  6  1  0  0  0
  5  9  1  0  0  0
  6  7  2  0  0  0
  7  8  1  0  0  0
  8  9  2  0  0  0
  8 10  1  0  0  0
 10 11  1  0  0  0
 11 12  2  0  0  0
 11 14  1  0  0  0
 14 15  1  0  0  0
 15 16  1  0  0  0
 18 19  2  0  0  0
 18 23  1  0  0  0
 19 20  1  0  0  0
 19 17  1  0  0  0
 20 21  2  0  0  0
 21 22  1  0  0  0
 22 23  2  0  0  0
 16 17  1  0  0  0
 34 35  1  0  0  0
 34 36  1  0  0  0
 38 39  1  0  0  0
 10 13  1  0  0  0
M  END
> <minimizedAffinity>
-8.81080

$$$$
1QXL_FR8_A_1001


 39 42  0  0  0  0  0  0  0  0999 V2000
   50.7797   54.0894   20.2236 N   0  0  0  0  0  0  0  0  0  0  0  0
   51.1785   54.1445   21.5343 C   0  0  0  0  0  0  0  0  0  0  0  0
   51.3610   52.8499   22.0196 C   0  0  0  0  0  0  0  0  0  0  0  0
   51.0601   51.9484   20.9448 C   0  0  0  0  0  0  0  0  0  0  0  0
   50.7165   52.7663   19.8250 C   0  0  0  0  0  0  0  0  0  0  0  0
   51.0585   50.5901   20.8354 C   0  0  0  0  0  0  0  0  0  0  0  0
   50.7068   49.9934   19.6277 C   0  0  0  0  0  0  0  0  0  0  0  0
   50.3679   50.8058   18.5110 C   0  0  0  0  0  0  0  0  0  0  0  0
   50.3875   52.1877   18.6417 C   0  0  0  0  0  0  0  0  0  0  0  0
   49.9635   50.3446   17.3112 N   0  0  0  0  0  0  0  0  0  0  0  0
   50.6172   50.5226   16.1646 C   0  0  0  0  0  0  0  0  0  0  0  0
   51.7394   50.9613   16.0247 O   0  0  0  0  0  0  0  0  0  0  0  0
   49.1204   49.8372   17.2798 H   0  0  0  0  0  0  0  0  0  0  0  0
   49.7758   50.1285   14.9846 C   0  0  0  0  0  0  0  0  0  0  0  0
   48.3042   49.9916   15.3601 C   0  0  0  0  0  0  0  0  0  0  0  0
   47.8993   48.5281   15.3871 C   0  0  0  0  0  0  0  0  0  0  0  0
   46.3946   48.3817   15.3869 C   0  0  0  0  0  0  0  0  0  0  0  0
   46.7207   47.9781   17.8200 C   0  0  0  0  0  0  0  0  0  0  0  0
   45.8936   47.9239   16.6977 C   0  0  0  0  0  0  0  0  0  0  0  0
   44.5861   47.4933   16.8147 C   0  0  0  0  0  0  0  0  0  0  0  0
   44.0861   47.2273   18.0741 C   0  0  0  0  0  0  0  0  0  0  0  0
   44.8980   47.3418   19.1988 C   0  0  0  0  0  0  0  0  0  0  0  0
   46.2309   47.6905   19.0842 C   0  0  0  0  0  0  0  0  0  0  0  0
   50.4448   55.2339   19.3291 C   0  0  0  0  0  0  0  0  0  0  0  0
   49.1366   55.8744   19.8708 C   0  0  0  0  0  0  0  0  0  0  0  0
   49.2141   57.4092   20.0007 C   0  0  0  0  0  0  0  0  0  0  0  0
   47.7852   59.3753   19.0865 C   0  0  0  0  0  0  0  0  0  0  0  0
   48.3387   58.0217   19.0169 N   0  0  0  0  0  0  0  0  0  0  0  0
   47.8120   57.4143   17.9581 C   0  0  0  0  0  0  0  0  0  0  0  0
   47.0149   58.2448   17.2756 N   0  0  0  0  0  0  0  0  0  0  0  0
   46.9487   59.4889   18.0561 C   0  0  0  0  0  0  0  0  0  0  0  0
   46.0821   60.6579   17.7469 C   0  0  0  0  0  0  0  0  0  0  0  0
   46.2472   61.3138   16.7284 O   0  0  0  0  0  0  0  0  0  0  0  0
   45.1096   60.9472   18.5757 N   0  0  0  0  0  0  0  0  0  0  0  0
   44.9844   60.4134   19.3934 H   0  0  0  0  0  0  0  0  0  0  0  0
   44.5039   61.6985   18.3809 H   0  0  0  0  0  0  0  0  0  0  0  0
   48.9039   57.9033   21.4504 C   0  0  0  0  0  0  0  0  0  0  0  0
   50.0032   57.4767   22.3596 O   0  0  0  0  0  0  0  0  0  0  0  0
   50.0721   56.5092   22.3519 H   0  0  0  0  0  0  0  0  0  0  0  0
 27 28  1  0  0  0
 27 31  2  0  0  0
 28 29  1  0  0  0
 28 26  1  0  0  0
 29 30  2  0  0  0
 30 31  1  0  0  0
 31 32  1  0  0  0
 32 33  2  0  0  0
 32 34  1  0  0  0
 26 37  1  0  0  0
 26 25  1  0  0  0
 37 38  1  0  0  0
 25 24  1  0  0  0
 24  1  1  0  0  0
  1  2  1  0  0  0
  1  5  1  0  0  0
  2  3  2  0  0  0
  3  4  1  0  0  0
  4  5  2  0  0  0
  4  6  1  0  0  0
  5  9  1  0  0  0
  6  7  2  0  0  0
  7  8  1  0  0  0
  8  9  2  0  0  0
  8 10  1  0  0  0
 10 11  1  0  0  0
 11 12  2  0  0  0
 11 14  1  0  0  0
 14 15  1  0  0  0
 15 16  1  0  0  0
 18 19  2  0  0  0
 18 23  1  0  0  0
 19 20  1  0  0  0
 19 17  1  0  0  0
 20 21  2  0  0  0
 21 22  1  0  0  0
 22 23  2  0  0  0
 16 17  1  0  0  0
 34 35  1  0  0  0
 34 36  1  0  0  0
 38 39  1  0  0  0
 10 13  1  0  0  0
M  END
> <minimizedAffinity>
-8.76953

$$$$
1QXL_FR8_A_1001


 39 42  0  0  0  0  0  0  0  0999 V2000
   49.1731   54.9564   18.7504 N   0  0  0  0  0  0  0  0  0  0  0  0
   50.0884   54.3375   19.5623 C   0  0  0  0  0  0  0  0  0  0  0  0
   50.2566   55.0850   20.7276 C   0  0  0  0  0  0  0  0  0  0  0  0
   49.3931   56.2262   20.6270 C   0  0  0  0  0  0  0  0  0  0  0  0
   48.7130   56.1007   19.3769 C   0  0  0  0  0  0  0  0  0  0  0  0
   49.1430   57.2857   21.4467 C   0  0  0  0  0  0  0  0  0  0  0  0
   48.2281   58.2605   21.0585 C   0  0  0  0  0  0  0  0  0  0  0  0
   47.5476   58.1354   19.8162 C   0  0  0  0  0  0  0  0  0  0  0  0
   47.8093   57.0419   19.0022 C   0  0  0  0  0  0  0  0  0  0  0  0
   46.6822   59.0370   19.3123 N   0  0  0  0  0  0  0  0  0  0  0  0
   45.3556   58.9490   19.3908 C   0  0  0  0  0  0  0  0  0  0  0  0
   44.7143   58.1645   20.0575 O   0  0  0  0  0  0  0  0  0  0  0  0
   47.0593   59.8206   18.8509 H   0  0  0  0  0  0  0  0  0  0  0  0
   44.6839   59.9576   18.5035 C   0  0  0  0  0  0  0  0  0  0  0  0
   43.6728   59.3032   17.5681 C   0  0  0  0  0  0  0  0  0  0  0  0
   43.8650   59.8049   16.1475 C   0  0  0  0  0  0  0  0  0  0  0  0
   45.3231   60.0860   15.8643 C   0  0  0  0  0  0  0  0  0  0  0  0
   46.7680   58.0717   15.6554 C   0  0  0  0  0  0  0  0  0  0  0  0
   45.9348   59.0151   15.0534 C   0  0  0  0  0  0  0  0  0  0  0  0
   45.6336   58.9226   13.7083 C   0  0  0  0  0  0  0  0  0  0  0  0
   46.0799   57.8223   13.0033 C   0  0  0  0  0  0  0  0  0  0  0  0
   46.8605   56.8510   13.6232 C   0  0  0  0  0  0  0  0  0  0  0  0
   47.2379   56.9768   14.9472 C   0  0  0  0  0  0  0  0  0  0  0  0
   48.7180   54.5196   17.3997 C   0  0  0  0  0  0  0  0  0  0  0  0
   48.3816   53.0054   17.4943 C   0  0  0  0  0  0  0  0  0  0  0  0
   49.3033   52.1181   16.6330 C   0  0  0  0  0  0  0  0  0  0  0  0
   50.0785   50.7129   18.6745 C   0  0  0  0  0  0  0  0  0  0  0  0
   50.3222   51.5186   17.4766 N   0  0  0  0  0  0  0  0  0  0  0  0
   51.6342   51.6993   17.3607 C   0  0  0  0  0  0  0  0  0  0  0  0
   52.2959   51.0417   18.3202 N   0  0  0  0  0  0  0  0  0  0  0  0
   51.2742   50.4664   19.2070 C   0  0  0  0  0  0  0  0  0  0  0  0
   51.5419   49.7495   20.4828 C   0  0  0  0  0  0  0  0  0  0  0  0
   51.0551   48.6497   20.7027 O   0  0  0  0  0  0  0  0  0  0  0  0
   52.3451   50.3090   21.3536 N   0  0  0  0  0  0  0  0  0  0  0  0
   52.7324   51.1949   21.1677 H   0  0  0  0  0  0  0  0  0  0  0  0
   52.5614   49.8437   22.1937 H   0  0  0  0  0  0  0  0  0  0  0  0
   48.5107   51.0458   15.8183 C   0  0  0  0  0  0  0  0  0  0  0  0
   49.4238   50.4061   14.8312 O   0  0  0  0  0  0  0  0  0  0  0  0
   49.7732   51.0815   14.2290 H   0  0  0  0  0  0  0  0  0  0  0  0
 27 28  1  0  0  0
 27 31  2  0  0  0
 28 29  1  0  0  0
 28 26  1  0  0  0
 29 30  2  0  0  0
 30 31  1  0  0  0
 31 32  1  0  0  0
 32 33  2  0  0  0
 32 34  1  0  0  0
 26 37  1  0  0  0
 26 25  1  0  0  0
 37 38  1  0  0  0
 25 24  1  0  0  0
 24  1  1  0  0  0
  1  2  1  0  0  0
  1  5  1  0  0  0
  2  3  2  0  0  0
  3  4  1  0  0  0
  4  5  2  0  0  0
  4  6  1  0  0  0
  5  9  1  0  0  0
  6  7  2  0  0  0
  7  8  1  0  0  0
  8  9  2  0  0  0
  8 10  1  0  0  0
 10 11  1  0  0  0
 11 12  2  0  0  0
 11 14  1  0  0  0
 14 15  1  0  0  0
 15 16  1  0  0  0
 18 19  2  0  0  0
 18 23  1  0  0  0
 19 20  1  0  0  0
 19 17  1  0  0  0
 20 21  2  0  0  0
 21 22  1  0  0  0
 22 23  2  0  0  0
 16 17  1  0  0  0
 34 35  1  0  0  0
 34 36  1  0  0  0
 38 39  1  0  0  0
 10 13  1  0  0  0
M  END
> <minimizedAffinity>
-8.71312

$$$$
