6G39_5ID_A_802


 25 27  0  0  0  0  0  0  0  0999 V2000
   65.5695   28.6160   12.7225 N   0  0  0  0  0  0  0  0  0  0  0  0
   66.2278   28.7207   11.5179 C   0  0  0  0  0  0  0  0  0  0  0  0
   67.2274   27.7908   11.4725 C   0  0  0  0  0  0  0  0  0  0  0  0
   67.2205   27.0690   12.6974 C   0  0  0  0  0  0  0  0  0  0  0  0
   67.9610   26.0260   13.3074 C   0  0  0  0  0  0  0  0  0  0  0  0
   67.6018   25.6092   14.5423 N   0  0  0  0  0  0  0  0  0  0  0  0
   66.5740   26.2148   15.1373 C   0  0  0  0  0  0  0  0  0  0  0  0
   65.8148   27.2123   14.6805 N   0  0  0  0  0  0  0  0  0  0  0  0
   66.1638   27.6151   13.4506 C   0  0  0  0  0  0  0  0  0  0  0  0
   69.0194   25.4561   12.7330 N   0  0  0  0  0  0  0  0  0  0  0  0
   68.5114   27.4216    9.8555 I   0  0  0  0  0  0  0  0  0  0  0  0
   69.3039   25.7397   11.8342 H   0  0  0  0  0  0  0  0  0  0  0  0
   69.5170   24.7514   13.2074 H   0  0  0  0  0  0  0  0  0  0  0  0
   64.0164   31.5139   12.1884 C   0  0  0  0  0  0  0  0  0  0  0  0
   63.8770   30.0856   12.0585 O   0  0  0  0  0  0  0  0  0  0  0  0
   64.4488   29.4300   13.1744 C   0  0  0  0  0  0  0  0  0  0  0  0
   64.8515   30.5094   14.1713 C   0  0  0  0  0  0  0  0  0  0  0  0
   63.7799   30.7367   15.0747 O   0  0  0  0  0  0  0  0  0  0  0  0
   65.1022   31.6955   13.2442 C   0  0  0  0  0  0  0  0  0  0  0  0
   64.9981   32.9364   13.9429 O   0  0  0  0  0  0  0  0  0  0  0  0
   62.9757   30.9487   14.5755 H   0  0  0  0  0  0  0  0  0  0  0  0
   64.1253   32.9996   14.3615 H   0  0  0  0  0  0  0  0  0  0  0  0
   63.4493   31.5822    9.8240 O   0  0  0  0  0  0  0  0  0  0  0  0
   64.3134   32.1058   10.8301 C   0  0  0  0  0  0  0  0  0  0  0  0
   63.6686   31.9835    8.9686 H   0  0  0  0  0  0  0  0  0  0  0  0
 23 24  1  0  0  0
 24 14  1  0  0  0
 14 15  1  0  0  0
 14 19  1  0  0  0
 15 16  1  0  0  0
 16  1  1  0  0  0
 16 17  1  0  0  0
  1  2  1  0  0  0
  1  9  1  0  0  0
  2  3  2  0  0  0
  3  4  1  0  0  0
  3 11  1  0  0  0
  4  5  2  0  0  0
  4  9  1  0  0  0
  5  6  1  0  0  0
  5 10  1  0  0  0
  6  7  2  0  0  0
  7  8  1  0  0  0
  8  9  2  0  0  0
 17 18  1  0  0  0
 17 19  1  0  0  0
 19 20  1  0  0  0
 23 25  1  0  0  0
 10 12  1  0  0  0
 10 13  1  0  0  0
 18 21  1  0  0  0
 20 22  1  0  0  0
M  END
> <minimizedAffinity>
-9.37394

$$$$
6G39_5ID_A_802


 25 27  0  0  0  0  0  0  0  0999 V2000
   65.8148   28.2391   12.5327 N   0  0  0  0  0  0  0  0  0  0  0  0
   65.7039   29.1424   11.4997 C   0  0  0  0  0  0  0  0  0  0  0  0
   66.7483   28.9654   10.6371 C   0  0  0  0  0  0  0  0  0  0  0  0
   67.5683   27.9181   11.1393 C   0  0  0  0  0  0  0  0  0  0  0  0
   68.7689   27.2577   10.7780 C   0  0  0  0  0  0  0  0  0  0  0  0
   69.2241   26.2580   11.5662 N   0  0  0  0  0  0  0  0  0  0  0  0
   68.5274   25.9519   12.6608 C   0  0  0  0  0  0  0  0  0  0  0  0
   67.4026   26.5063   13.1163 N   0  0  0  0  0  0  0  0  0  0  0  0
   66.9455   27.4881   12.3265 C   0  0  0  0  0  0  0  0  0  0  0  0
   69.4913   27.5981    9.7117 N   0  0  0  0  0  0  0  0  0  0  0  0
   67.0645   29.9956    8.8376 I   0  0  0  0  0  0  0  0  0  0  0  0
   69.1842   28.3225    9.1199 H   0  0  0  0  0  0  0  0  0  0  0  0
   70.3323   27.1253    9.5154 H   0  0  0  0  0  0  0  0  0  0  0  0
   63.7590   29.9648   14.5053 C   0  0  0  0  0  0  0  0  0  0  0  0
   63.8001   28.9556   13.4776 O   0  0  0  0  0  0  0  0  0  0  0  0
   64.9120   28.1016   13.6681 C   0  0  0  0  0  0  0  0  0  0  0  0
   65.5515   28.4868   14.9962 C   0  0  0  0  0  0  0  0  0  0  0  0
   64.9890   27.6974   16.0338 O   0  0  0  0  0  0  0  0  0  0  0  0
   65.1636   29.9592   15.1000 C   0  0  0  0  0  0  0  0  0  0  0  0
   65.1978   30.4148   16.4529 O   0  0  0  0  0  0  0  0  0  0  0  0
   64.0237   27.7919   16.0249 H   0  0  0  0  0  0  0  0  0  0  0  0
   64.6141   29.8616   16.9952 H   0  0  0  0  0  0  0  0  0  0  0  0
   62.3697   31.9490   14.7285 O   0  0  0  0  0  0  0  0  0  0  0  0
   63.3077   31.2715   13.8952 C   0  0  0  0  0  0  0  0  0  0  0  0
   62.1034   32.7805   14.3060 H   0  0  0  0  0  0  0  0  0  0  0  0
 23 24  1  0  0  0
 24 14  1  0  0  0
 14 15  1  0  0  0
 14 19  1  0  0  0
 15 16  1  0  0  0
 16  1  1  0  0  0
 16 17  1  0  0  0
  1  2  1  0  0  0
  1  9  1  0  0  0
  2  3  2  0  0  0
  3  4  1  0  0  0
  3 11  1  0  0  0
  4  5  2  0  0  0
  4  9  1  0  0  0
  5  6  1  0  0  0
  5 10  1  0  0  0
  6  7  2  0  0  0
  7  8  1  0  0  0
  8  9  2  0  0  0
 17 18  1  0  0  0
 17 19  1  0  0  0
 19 20  1  0  0  0
 23 25  1  0  0  0
 10 12  1  0  0  0
 10 13  1  0  0  0
 18 21  1  0  0  0
 20 22  1  0  0  0
M  END
> <minimizedAffinity>
-9.07372

$$$$
6G39_5ID_A_802


 25 27  0  0  0  0  0  0  0  0999 V2000
   65.9086   29.0886   11.3931 N   0  0  0  0  0  0  0  0  0  0  0  0
   66.4559   28.0275   12.0786 C   0  0  0  0  0  0  0  0  0  0  0  0
   67.5937   27.6221   11.4405 C   0  0  0  0  0  0  0  0  0  0  0  0
   67.7795   28.4444   10.2955 C   0  0  0  0  0  0  0  0  0  0  0  0
   68.6989   28.5622    9.2237 C   0  0  0  0  0  0  0  0  0  0  0  0
   68.5059   29.5348    8.3047 N   0  0  0  0  0  0  0  0  0  0  0  0
   67.4442   30.3293    8.4421 C   0  0  0  0  0  0  0  0  0  0  0  0
   66.5031   30.3088    9.3876 N   0  0  0  0  0  0  0  0  0  0  0  0
   66.7036   29.3525   10.3052 C   0  0  0  0  0  0  0  0  0  0  0  0
   69.7309   27.7358    9.0592 N   0  0  0  0  0  0  0  0  0  0  0  0
   68.8982   26.1036   12.0666 I   0  0  0  0  0  0  0  0  0  0  0  0
   69.8958   27.0181    9.7127 H   0  0  0  0  0  0  0  0  0  0  0  0
   70.3286   27.8427    8.2843 H   0  0  0  0  0  0  0  0  0  0  0  0
   64.6035   32.1468   11.5917 C   0  0  0  0  0  0  0  0  0  0  0  0
   64.5423   30.9083   10.8576 O   0  0  0  0  0  0  0  0  0  0  0  0
   64.6877   29.8070   11.7338 C   0  0  0  0  0  0  0  0  0  0  0  0
   64.6905   30.3601   13.1534 C   0  0  0  0  0  0  0  0  0  0  0  0
   63.3633   30.3627   13.6582 O   0  0  0  0  0  0  0  0  0  0  0  0
   65.2372   31.7667   12.9261 C   0  0  0  0  0  0  0  0  0  0  0  0
   64.8707   32.6480   13.9882 O   0  0  0  0  0  0  0  0  0  0  0  0
   62.7874   30.8530   13.0508 H   0  0  0  0  0  0  0  0  0  0  0  0
   63.9051   32.6600   14.0798 H   0  0  0  0  0  0  0  0  0  0  0  0
   66.3651   33.8233   11.5396 O   0  0  0  0  0  0  0  0  0  0  0  0
   65.3569   33.1688   10.7725 C   0  0  0  0  0  0  0  0  0  0  0  0
   66.8262   34.4700   10.9828 H   0  0  0  0  0  0  0  0  0  0  0  0
 23 24  1  0  0  0
 24 14  1  0  0  0
 14 15  1  0  0  0
 14 19  1  0  0  0
 15 16  1  0  0  0
 16  1  1  0  0  0
 16 17  1  0  0  0
  1  2  1  0  0  0
  1  9  1  0  0  0
  2  3  2  0  0  0
  3  4  1  0  0  0
  3 11  1  0  0  0
  4  5  2  0  0  0
  4  9  1  0  0  0
  5  6  1  0  0  0
  5 10  1  0  0  0
  6  7  2  0  0  0
  7  8  1  0  0  0
  8  9  2  0  0  0
 17 18  1  0  0  0
 17 19  1  0  0  0
 19 20  1  0  0  0
 23 25  1  0  0  0
 10 12  1  0  0  0
 10 13  1  0  0  0
 18 21  1  0  0  0
 20 22  1  0  0  0
M  END
> <minimizedAffinity>
-8.23154

$$$$
6G39_5ID_A_802


 25 27  0  0  0  0  0  0  0  0999 V2000
   65.0311   30.3766   11.8921 N   0  0  0  0  0  0  0  0  0  0  0  0
   64.6590   31.6288   12.3268 C   0  0  0  0  0  0  0  0  0  0  0  0
   65.1850   32.5683   11.4862 C   0  0  0  0  0  0  0  0  0  0  0  0
   65.9332   31.8974   10.4803 C   0  0  0  0  0  0  0  0  0  0  0  0
   66.7222   32.2382    9.3536 C   0  0  0  0  0  0  0  0  0  0  0  0
   67.2775   31.2449    8.6237 N   0  0  0  0  0  0  0  0  0  0  0  0
   67.0696   29.9865    9.0115 C   0  0  0  0  0  0  0  0  0  0  0  0
   66.3684   29.5396   10.0549 N   0  0  0  0  0  0  0  0  0  0  0  0
   65.8075   30.5252   10.7695 C   0  0  0  0  0  0  0  0  0  0  0  0
   66.9711   33.4974    8.9967 N   0  0  0  0  0  0  0  0  0  0  0  0
   64.8887   34.6419   11.5957 I   0  0  0  0  0  0  0  0  0  0  0  0
   66.5801   34.2410    9.5099 H   0  0  0  0  0  0  0  0  0  0  0  0
   67.5461   33.6842    8.2197 H   0  0  0  0  0  0  0  0  0  0  0  0
   63.9636   29.0224   14.7420 C   0  0  0  0  0  0  0  0  0  0  0  0
   63.5863   29.2956   13.3784 O   0  0  0  0  0  0  0  0  0  0  0  0
   64.6889   29.1036   12.5128 C   0  0  0  0  0  0  0  0  0  0  0  0
   65.8197   28.5181   13.3494 C   0  0  0  0  0  0  0  0  0  0  0  0
   65.7558   27.1006   13.2978 O   0  0  0  0  0  0  0  0  0  0  0  0
   65.4881   29.0729   14.7320 C   0  0  0  0  0  0  0  0  0  0  0  0
   66.0786   28.2856   15.7667 O   0  0  0  0  0  0  0  0  0  0  0  0
   64.8741   26.8064   13.5752 H   0  0  0  0  0  0  0  0  0  0  0  0
   65.7842   27.3653   15.6806 H   0  0  0  0  0  0  0  0  0  0  0  0
   64.0763   30.3287   16.7908 O   0  0  0  0  0  0  0  0  0  0  0  0
   63.2780   30.0154   15.6516 C   0  0  0  0  0  0  0  0  0  0  0  0
   63.6057   30.9666   17.3498 H   0  0  0  0  0  0  0  0  0  0  0  0
 23 24  1  0  0  0
 24 14  1  0  0  0
 14 15  1  0  0  0
 14 19  1  0  0  0
 15 16  1  0  0  0
 16  1  1  0  0  0
 16 17  1  0  0  0
  1  2  1  0  0  0
  1  9  1  0  0  0
  2  3  2  0  0  0
  3  4  1  0  0  0
  3 11  1  0  0  0
  4  5  2  0  0  0
  4  9  1  0  0  0
  5  6  1  0  0  0
  5 10  1  0  0  0
  6  7  2  0  0  0
  7  8  1  0  0  0
  8  9  2  0  0  0
 17 18  1  0  0  0
 17 19  1  0  0  0
 19 20  1  0  0  0
 23 25  1  0  0  0
 10 12  1  0  0  0
 10 13  1  0  0  0
 18 21  1  0  0  0
 20 22  1  0  0  0
M  END
> <minimizedAffinity>
-8.19305

$$$$
6G39_5ID_A_802


 25 27  0  0  0  0  0  0  0  0999 V2000
   65.2256   29.5471   11.8345 N   0  0  0  0  0  0  0  0  0  0  0  0
   66.1902   28.9037   11.0922 C   0  0  0  0  0  0  0  0  0  0  0  0
   66.7304   27.8955   11.8390 C   0  0  0  0  0  0  0  0  0  0  0  0
   66.0992   27.8972   13.1130 C   0  0  0  0  0  0  0  0  0  0  0  0
   66.1803   27.1718   14.3276 C   0  0  0  0  0  0  0  0  0  0  0  0
   65.3519   27.5068   15.3421 N   0  0  0  0  0  0  0  0  0  0  0  0
   64.5063   28.5205   15.1563 C   0  0  0  0  0  0  0  0  0  0  0  0
   64.3475   29.2876   14.0763 N   0  0  0  0  0  0  0  0  0  0  0  0
   65.1602   28.9453   13.0668 C   0  0  0  0  0  0  0  0  0  0  0  0
   67.0605   26.1924   14.5299 N   0  0  0  0  0  0  0  0  0  0  0  0
   68.1844   26.5213   11.2088 I   0  0  0  0  0  0  0  0  0  0  0  0
   67.6762   25.9272   13.8090 H   0  0  0  0  0  0  0  0  0  0  0  0
   67.0951   25.7337   15.4004 H   0  0  0  0  0  0  0  0  0  0  0  0
   65.3630   32.4039   10.1271 C   0  0  0  0  0  0  0  0  0  0  0  0
   64.8146   31.0715   10.1104 O   0  0  0  0  0  0  0  0  0  0  0  0
   64.4183   30.6841   11.4122 C   0  0  0  0  0  0  0  0  0  0  0  0
   64.5780   31.9035   12.3116 C   0  0  0  0  0  0  0  0  0  0  0  0
   63.3560   32.6257   12.3438 O   0  0  0  0  0  0  0  0  0  0  0  0
   65.6917   32.6614   11.5942 C   0  0  0  0  0  0  0  0  0  0  0  0
   65.6819   34.0487   11.9323 O   0  0  0  0  0  0  0  0  0  0  0  0
   63.0850   32.8432   11.4381 H   0  0  0  0  0  0  0  0  0  0  0  0
   64.8130   34.4261   11.7238 H   0  0  0  0  0  0  0  0  0  0  0  0
   67.1413   33.7569    9.1660 O   0  0  0  0  0  0  0  0  0  0  0  0
   66.5304   32.4685    9.1698 C   0  0  0  0  0  0  0  0  0  0  0  0
   67.8841   33.7607    8.5421 H   0  0  0  0  0  0  0  0  0  0  0  0
 23 24  1  0  0  0
 24 14  1  0  0  0
 14 15  1  0  0  0
 14 19  1  0  0  0
 15 16  1  0  0  0
 16  1  1  0  0  0
 16 17  1  0  0  0
  1  2  1  0  0  0
  1  9  1  0  0  0
  2  3  2  0  0  0
  3  4  1  0  0  0
  3 11  1  0  0  0
  4  5  2  0  0  0
  4  9  1  0  0  0
  5  6  1  0  0  0
  5 10  1  0  0  0
  6  7  2  0  0  0
  7  8  1  0  0  0
  8  9  2  0  0  0
 17 18  1  0  0  0
 17 19  1  0  0  0
 19 20  1  0  0  0
 23 25  1  0  0  0
 10 12  1  0  0  0
 10 13  1  0  0  0
 18 21  1  0  0  0
 20 22  1  0  0  0
M  END
> <minimizedAffinity>
-8.18569

$$$$
6G39_5ID_A_802


 25 27  0  0  0  0  0  0  0  0999 V2000
   66.4914   30.0722    9.8903 N   0  0  0  0  0  0  0  0  0  0  0  0
   65.9231   29.5346   11.0232 C   0  0  0  0  0  0  0  0  0  0  0  0
   65.3922   30.5418   11.7779 C   0  0  0  0  0  0  0  0  0  0  0  0
   65.6381   31.7742   11.1129 C   0  0  0  0  0  0  0  0  0  0  0  0
   65.3935   33.1530   11.3297 C   0  0  0  0  0  0  0  0  0  0  0  0
   65.8059   34.0414   10.3978 N   0  0  0  0  0  0  0  0  0  0  0  0
   66.4421   33.5766    9.3225 C   0  0  0  0  0  0  0  0  0  0  0  0
   66.7475   32.3150    9.0138 N   0  0  0  0  0  0  0  0  0  0  0  0
   66.3259   31.4345    9.9322 C   0  0  0  0  0  0  0  0  0  0  0  0
   64.8029   33.6208   12.4285 N   0  0  0  0  0  0  0  0  0  0  0  0
   64.3261   30.3241   13.5712 I   0  0  0  0  0  0  0  0  0  0  0  0
   64.4924   32.9970   13.1240 H   0  0  0  0  0  0  0  0  0  0  0  0
   64.6769   34.5902   12.5449 H   0  0  0  0  0  0  0  0  0  0  0  0
   67.7970   27.1020    9.1360 C   0  0  0  0  0  0  0  0  0  0  0  0
   66.7164   28.0032    8.8254 O   0  0  0  0  0  0  0  0  0  0  0  0
   67.1733   29.3423    8.8295 C   0  0  0  0  0  0  0  0  0  0  0  0
   68.6863   29.2998    9.0039 C   0  0  0  0  0  0  0  0  0  0  0  0
   69.3051   29.2766    7.7262 O   0  0  0  0  0  0  0  0  0  0  0  0
   68.8634   27.9907    9.7682 C   0  0  0  0  0  0  0  0  0  0  0  0
   70.1845   27.4707    9.6154 O   0  0  0  0  0  0  0  0  0  0  0  0
   68.9521   28.5355    7.2094 H   0  0  0  0  0  0  0  0  0  0  0  0
   70.3784   27.3527    8.6723 H   0  0  0  0  0  0  0  0  0  0  0  0
   66.5633   25.0085    9.2442 O   0  0  0  0  0  0  0  0  0  0  0  0
   67.2716   25.9837   10.0060 C   0  0  0  0  0  0  0  0  0  0  0  0
   66.2419   24.3086    9.8339 H   0  0  0  0  0  0  0  0  0  0  0  0
 23 24  1  0  0  0
 24 14  1  0  0  0
 14 15  1  0  0  0
 14 19  1  0  0  0
 15 16  1  0  0  0
 16  1  1  0  0  0
 16 17  1  0  0  0
  1  2  1  0  0  0
  1  9  1  0  0  0
  2  3  2  0  0  0
  3  4  1  0  0  0
  3 11  1  0  0  0
  4  5  2  0  0  0
  4  9  1  0  0  0
  5  6  1  0  0  0
  5 10  1  0  0  0
  6  7  2  0  0  0
  7  8  1  0  0  0
  8  9  2  0  0  0
 17 18  1  0  0  0
 17 19  1  0  0  0
 19 20  1  0  0  0
 23 25  1  0  0  0
 10 12  1  0  0  0
 10 13  1  0  0  0
 18 21  1  0  0  0
 20 22  1  0  0  0
M  END
> <minimizedAffinity>
-8.10288

$$$$
6G39_5ID_A_802


 25 27  0  0  0  0  0  0  0  0999 V2000
   66.1762   28.3635   11.6550 N   0  0  0  0  0  0  0  0  0  0  0  0
   65.8194   29.6215   11.2243 C   0  0  0  0  0  0  0  0  0  0  0  0
   65.3779   30.3509   12.2916 C   0  0  0  0  0  0  0  0  0  0  0  0
   65.4413   29.5289   13.4499 C   0  0  0  0  0  0  0  0  0  0  0  0
   65.1333   29.6304   14.8294 C   0  0  0  0  0  0  0  0  0  0  0  0
   65.3637   28.5639   15.6277 N   0  0  0  0  0  0  0  0  0  0  0  0
   65.8555   27.4561   15.0725 C   0  0  0  0  0  0  0  0  0  0  0  0
   66.1669   27.2302   13.7950 N   0  0  0  0  0  0  0  0  0  0  0  0
   65.9506   28.2930   13.0075 C   0  0  0  0  0  0  0  0  0  0  0  0
   64.5945   30.7204   15.3739 N   0  0  0  0  0  0  0  0  0  0  0  0
   64.7796   32.3611   12.2634 I   0  0  0  0  0  0  0  0  0  0  0  0
   64.4156   31.5120   14.8166 H   0  0  0  0  0  0  0  0  0  0  0  0
   64.3752   30.7342   16.3335 H   0  0  0  0  0  0  0  0  0  0  0  0
   68.6665   26.1638   11.4206 C   0  0  0  0  0  0  0  0  0  0  0  0
   67.2534   26.2888   11.6732 O   0  0  0  0  0  0  0  0  0  0  0  0
   66.6865   27.2750   10.8319 C   0  0  0  0  0  0  0  0  0  0  0  0
   67.7737   27.7140    9.8590 C   0  0  0  0  0  0  0  0  0  0  0  0
   67.7006   26.9197    8.6844 O   0  0  0  0  0  0  0  0  0  0  0  0
   69.0342   27.4432   10.6759 C   0  0  0  0  0  0  0  0  0  0  0  0
   70.1787   27.2898    9.8359 O   0  0  0  0  0  0  0  0  0  0  0  0
   67.7498   25.9813    8.9251 H   0  0  0  0  0  0  0  0  0  0  0  0
   70.0177   26.5779    9.1971 H   0  0  0  0  0  0  0  0  0  0  0  0
   68.5217   25.3655   13.7137 O   0  0  0  0  0  0  0  0  0  0  0  0
   69.3833   25.9358   12.7312 C   0  0  0  0  0  0  0  0  0  0  0  0
   69.0145   25.2338   14.5387 H   0  0  0  0  0  0  0  0  0  0  0  0
 23 24  1  0  0  0
 24 14  1  0  0  0
 14 15  1  0  0  0
 14 19  1  0  0  0
 15 16  1  0  0  0
 16  1  1  0  0  0
 16 17  1  0  0  0
  1  2  1  0  0  0
  1  9  1  0  0  0
  2  3  2  0  0  0
  3  4  1  0  0  0
  3 11  1  0  0  0
  4  5  2  0  0  0
  4  9  1  0  0  0
  5  6  1  0  0  0
  5 10  1  0  0  0
  6  7  2  0  0  0
  7  8  1  0  0  0
  8  9  2  0  0  0
 17 18  1  0  0  0
 17 19  1  0  0  0
 19 20  1  0  0  0
 23 25  1  0  0  0
 10 12  1  0  0  0
 10 13  1  0  0  0
 18 21  1  0  0  0
 20 22  1  0  0  0
M  END
> <minimizedAffinity>
-7.81328

$$$$
6G39_5ID_A_802


 25 27  0  0  0  0  0  0  0  0999 V2000
   66.0698   28.2752   12.0471 N   0  0  0  0  0  0  0  0  0  0  0  0
   65.8003   28.1023   13.3861 C   0  0  0  0  0  0  0  0  0  0  0  0
   65.4131   29.2976   13.9222 C   0  0  0  0  0  0  0  0  0  0  0  0
   65.4460   30.2787   12.8936 C   0  0  0  0  0  0  0  0  0  0  0  0
   65.1976   31.6671   12.7567 C   0  0  0  0  0  0  0  0  0  0  0  0
   65.3462   32.2378   11.5401 N   0  0  0  0  0  0  0  0  0  0  0  0
   65.7386   31.4663   10.5262 C   0  0  0  0  0  0  0  0  0  0  0  0
   66.0199   30.1621   10.5301 N   0  0  0  0  0  0  0  0  0  0  0  0
   65.8590   29.5953   11.7340 C   0  0  0  0  0  0  0  0  0  0  0  0
   64.8548   32.4470   13.7809 N   0  0  0  0  0  0  0  0  0  0  0  0
   64.7971   29.6341   15.8988 I   0  0  0  0  0  0  0  0  0  0  0  0
   64.7395   32.0588   14.6783 H   0  0  0  0  0  0  0  0  0  0  0  0
   64.7166   33.4116   13.6405 H   0  0  0  0  0  0  0  0  0  0  0  0
   68.5299   26.1006   11.4866 C   0  0  0  0  0  0  0  0  0  0  0  0
   67.1363   26.2055   11.8377 O   0  0  0  0  0  0  0  0  0  0  0  0
   66.5216   27.2532   11.1122 C   0  0  0  0  0  0  0  0  0  0  0  0
   67.5468   27.7658   10.1085 C   0  0  0  0  0  0  0  0  0  0  0  0
   67.3954   27.0639    8.8836 O   0  0  0  0  0  0  0  0  0  0  0  0
   68.8554   27.4334   10.8201 C   0  0  0  0  0  0  0  0  0  0  0  0
   69.9434   27.3452    9.8995 O   0  0  0  0  0  0  0  0  0  0  0  0
   67.4554   26.1098    9.0481 H   0  0  0  0  0  0  0  0  0  0  0  0
   69.7388   26.6843    9.2196 H   0  0  0  0  0  0  0  0  0  0  0  0
   68.4862   25.3778   13.8087 O   0  0  0  0  0  0  0  0  0  0  0  0
   69.3276   25.7729   12.7274 C   0  0  0  0  0  0  0  0  0  0  0  0
   69.0312   25.1760   14.5854 H   0  0  0  0  0  0  0  0  0  0  0  0
 23 24  1  0  0  0
 24 14  1  0  0  0
 14 15  1  0  0  0
 14 19  1  0  0  0
 15 16  1  0  0  0
 16  1  1  0  0  0
 16 17  1  0  0  0
  1  2  1  0  0  0
  1  9  1  0  0  0
  2  3  2  0  0  0
  3  4  1  0  0  0
  3 11  1  0  0  0
  4  5  2  0  0  0
  4  9  1  0  0  0
  5  6  1  0  0  0
  5 10  1  0  0  0
  6  7  2  0  0  0
  7  8  1  0  0  0
  8  9  2  0  0  0
 17 18  1  0  0  0
 17 19  1  0  0  0
 19 20  1  0  0  0
 23 25  1  0  0  0
 10 12  1  0  0  0
 10 13  1  0  0  0
 18 21  1  0  0  0
 20 22  1  0  0  0
M  END
> <minimizedAffinity>
-7.73528

$$$$
6G39_5ID_A_802


 25 27  0  0  0  0  0  0  0  0999 V2000
   65.4096   29.3310   11.7027 N   0  0  0  0  0  0  0  0  0  0  0  0
   65.3068   28.6902   12.9169 C   0  0  0  0  0  0  0  0  0  0  0  0
   66.2428   27.6972   12.9788 C   0  0  0  0  0  0  0  0  0  0  0  0
   66.9668   27.6903   11.7552 C   0  0  0  0  0  0  0  0  0  0  0  0
   68.0155   26.9473   11.1582 C   0  0  0  0  0  0  0  0  0  0  0  0
   68.4323   27.2906    9.9188 N   0  0  0  0  0  0  0  0  0  0  0  0
   67.8214   28.3056    9.3074 C   0  0  0  0  0  0  0  0  0  0  0  0
   66.8184   29.0653    9.7510 N   0  0  0  0  0  0  0  0  0  0  0  0
   66.4155   28.7322   10.9853 C   0  0  0  0  0  0  0  0  0  0  0  0
   68.5909   25.9012   11.7493 N   0  0  0  0  0  0  0  0  0  0  0  0
   66.6169   26.4398   14.6155 I   0  0  0  0  0  0  0  0  0  0  0  0
   68.3074   25.6284   12.6518 H   0  0  0  0  0  0  0  0  0  0  0  0
   69.2995   25.4010   11.2837 H   0  0  0  0  0  0  0  0  0  0  0  0
   65.5726   32.2713   10.1459 C   0  0  0  0  0  0  0  0  0  0  0  0
   65.1140   30.9124   10.0065 O   0  0  0  0  0  0  0  0  0  0  0  0
   64.5895   30.4398   11.2327 C   0  0  0  0  0  0  0  0  0  0  0  0
   64.5644   31.6207   12.1950 C   0  0  0  0  0  0  0  0  0  0  0  0
   63.3048   32.2702   12.1075 O   0  0  0  0  0  0  0  0  0  0  0  0
   65.7067   32.4747   11.6516 C   0  0  0  0  0  0  0  0  0  0  0  0
   65.5703   33.8410   12.0437 O   0  0  0  0  0  0  0  0  0  0  0  0
   63.1312   32.5161   11.1854 H   0  0  0  0  0  0  0  0  0  0  0  0
   64.7109   34.1785   11.7463 H   0  0  0  0  0  0  0  0  0  0  0  0
   67.2023   33.8225    9.2214 O   0  0  0  0  0  0  0  0  0  0  0  0
   66.8399   32.4487    9.3422 C   0  0  0  0  0  0  0  0  0  0  0  0
   68.0176   33.8972    8.7012 H   0  0  0  0  0  0  0  0  0  0  0  0
 23 24  1  0  0  0
 24 14  1  0  0  0
 14 15  1  0  0  0
 14 19  1  0  0  0
 15 16  1  0  0  0
 16  1  1  0  0  0
 16 17  1  0  0  0
  1  2  1  0  0  0
  1  9  1  0  0  0
  2  3  2  0  0  0
  3  4  1  0  0  0
  3 11  1  0  0  0
  4  5  2  0  0  0
  4  9  1  0  0  0
  5  6  1  0  0  0
  5 10  1  0  0  0
  6  7  2  0  0  0
  7  8  1  0  0  0
  8  9  2  0  0  0
 17 18  1  0  0  0
 17 19  1  0  0  0
 19 20  1  0  0  0
 23 25  1  0  0  0
 10 12  1  0  0  0
 10 13  1  0  0  0
 18 21  1  0  0  0
 20 22  1  0  0  0
M  END
> <minimizedAffinity>
-7.65474

$$$$
6G39_5ID_A_802


 25 27  0  0  0  0  0  0  0  0999 V2000
   65.5910   28.5290   12.4024 N   0  0  0  0  0  0  0  0  0  0  0  0
   66.6626   27.7566   12.0145 C   0  0  0  0  0  0  0  0  0  0  0  0
   67.2026   28.2814   10.8748 C   0  0  0  0  0  0  0  0  0  0  0  0
   66.4438   29.4266   10.5085 C   0  0  0  0  0  0  0  0  0  0  0  0
   66.4339   30.3943    9.4733 C   0  0  0  0  0  0  0  0  0  0  0  0
   65.5004   31.3717    9.5052 N   0  0  0  0  0  0  0  0  0  0  0  0
   64.6181   31.3676   10.5046 C   0  0  0  0  0  0  0  0  0  0  0  0
   64.5113   30.5090   11.5201 N   0  0  0  0  0  0  0  0  0  0  0  0
   65.4460   29.5486   11.4943 C   0  0  0  0  0  0  0  0  0  0  0  0
   67.2840   30.3681    8.4479 N   0  0  0  0  0  0  0  0  0  0  0  0
   68.9037   27.5815    9.8667 I   0  0  0  0  0  0  0  0  0  0  0  0
   67.9742   29.6678    8.3985 H   0  0  0  0  0  0  0  0  0  0  0  0
   67.2219   31.0489    7.7395 H   0  0  0  0  0  0  0  0  0  0  0  0
   63.6329   30.1068   14.5869 C   0  0  0  0  0  0  0  0  0  0  0  0
   63.6230   29.1812   13.4825 O   0  0  0  0  0  0  0  0  0  0  0  0
   64.7338   28.3082   13.5597 C   0  0  0  0  0  0  0  0  0  0  0  0
   65.4301   28.5840   14.8864 C   0  0  0  0  0  0  0  0  0  0  0  0
   64.9030   27.7189   15.8813 O   0  0  0  0  0  0  0  0  0  0  0  0
   65.0604   30.0460   15.1210 C   0  0  0  0  0  0  0  0  0  0  0  0
   65.1537   30.3937   16.5028 O   0  0  0  0  0  0  0  0  0  0  0  0
   63.9390   27.8197   15.9196 H   0  0  0  0  0  0  0  0  0  0  0  0
   64.5873   29.8031   17.0237 H   0  0  0  0  0  0  0  0  0  0  0  0
   62.1673   32.0138   14.9500 O   0  0  0  0  0  0  0  0  0  0  0  0
   63.1693   31.4601   14.1000 C   0  0  0  0  0  0  0  0  0  0  0  0
   61.8949   32.8795   14.6073 H   0  0  0  0  0  0  0  0  0  0  0  0
 23 24  1  0  0  0
 24 14  1  0  0  0
 14 15  1  0  0  0
 14 19  1  0  0  0
 15 16  1  0  0  0
 16  1  1  0  0  0
 16 17  1  0  0  0
  1  2  1  0  0  0
  1  9  1  0  0  0
  2  3  2  0  0  0
  3  4  1  0  0  0
  3 11  1  0  0  0
  4  5  2  0  0  0
  4  9  1  0  0  0
  5  6  1  0  0  0
  5 10  1  0  0  0
  6  7  2  0  0  0
  7  8  1  0  0  0
  8  9  2  0  0  0
 17 18  1  0  0  0
 17 19  1  0  0  0
 19 20  1  0  0  0
 23 25  1  0  0  0
 10 12  1  0  0  0
 10 13  1  0  0  0
 18 21  1  0  0  0
 20 22  1  0  0  0
M  END
> <minimizedAffinity>
-7.46660

$$$$
