2NND_PRZ_A_300


 12 12  0  0  0  0  0  0  0  0999 V2000
   51.1334   24.7937   39.5614 N   0  0  0  0  0  0  0  0  0  0  0  0
   50.5523   24.2427   40.6526 C   0  0  0  0  0  0  0  0  0  0  0  0
   51.2545   23.2833   41.3830 C   0  0  0  0  0  0  0  0  0  0  0  0
   52.4873   22.9205   40.9734 N   0  0  0  0  0  0  0  0  0  0  0  0
   53.0539   23.4837   39.9003 C   0  0  0  0  0  0  0  0  0  0  0  0
   52.3591   24.4364   39.1689 C   0  0  0  0  0  0  0  0  0  0  0  0
   50.6854   22.6825   42.4751 O   0  0  0  0  0  0  0  0  0  0  0  0
   51.4354   22.4312   43.6687 C   0  0  0  0  0  0  0  0  0  0  0  0
   49.1771   24.7328   41.0700 C   0  0  0  0  0  0  0  0  0  0  0  0
   48.2961   25.3026   39.9818 C   0  0  0  0  0  0  0  0  0  0  0  0
   47.4384   26.4537   40.4878 C   0  0  0  0  0  0  0  0  0  0  0  0
   47.4080   24.1721   39.4772 C   0  0  0  0  0  0  0  0  0  0  0  0
  1  2  2  0  0  0
  1  6  1  0  0  0
  2  3  1  0  0  0
  2  9  1  0  0  0
  3  4  2  0  0  0
  3  7  1  0  0  0
  4  5  1  0  0  0
  5  6  2  0  0  0
  9 10  1  0  0  0
 10 11  1  0  0  0
 10 12  1  0  0  0
  7  8  1  0  0  0
M  END
> <minimizedAffinity>
-5.95733

$$$$
2NND_PRZ_A_300


 12 12  0  0  0  0  0  0  0  0999 V2000
   50.3138   23.6110   41.7806 N   0  0  0  0  0  0  0  0  0  0  0  0
   50.5995   24.2236   40.6080 C   0  0  0  0  0  0  0  0  0  0  0  0
   51.8006   23.9265   39.9628 C   0  0  0  0  0  0  0  0  0  0  0  0
   52.6508   23.0481   40.5327 N   0  0  0  0  0  0  0  0  0  0  0  0
   52.3487   22.4407   41.6857 C   0  0  0  0  0  0  0  0  0  0  0  0
   51.1568   22.7342   42.3327 C   0  0  0  0  0  0  0  0  0  0  0  0
   52.1362   24.5503   38.7899 O   0  0  0  0  0  0  0  0  0  0  0  0
   53.0114   23.9360   37.8376 C   0  0  0  0  0  0  0  0  0  0  0  0
   49.5727   25.1709   40.0131 C   0  0  0  0  0  0  0  0  0  0  0  0
   48.1306   24.9507   40.4091 C   0  0  0  0  0  0  0  0  0  0  0  0
   47.4140   24.0103   39.4505 C   0  0  0  0  0  0  0  0  0  0  0  0
   47.4472   26.3124   40.4135 C   0  0  0  0  0  0  0  0  0  0  0  0
  1  2  2  0  0  0
  1  6  1  0  0  0
  2  3  1  0  0  0
  2  9  1  0  0  0
  3  4  2  0  0  0
  3  7  1  0  0  0
  4  5  1  0  0  0
  5  6  2  0  0  0
  9 10  1  0  0  0
 10 11  1  0  0  0
 10 12  1  0  0  0
  7  8  1  0  0  0
M  END
> <minimizedAffinity>
-5.89890

$$$$
2NND_PRZ_A_300


 12 12  0  0  0  0  0  0  0  0999 V2000
   49.8194   25.6540   39.6541 N   0  0  0  0  0  0  0  0  0  0  0  0
   48.7131   25.0284   40.1198 C   0  0  0  0  0  0  0  0  0  0  0  0
   48.8138   23.7054   40.5520 C   0  0  0  0  0  0  0  0  0  0  0  0
   50.0074   23.0815   40.4803 N   0  0  0  0  0  0  0  0  0  0  0  0
   51.0949   23.7172   40.0299 C   0  0  0  0  0  0  0  0  0  0  0  0
   51.0000   25.0320   39.5965 C   0  0  0  0  0  0  0  0  0  0  0  0
   47.7085   23.0315   41.0010 O   0  0  0  0  0  0  0  0  0  0  0  0
   47.2317   21.8516   40.3446 C   0  0  0  0  0  0  0  0  0  0  0  0
   47.4155   25.8122   40.2042 C   0  0  0  0  0  0  0  0  0  0  0  0
   47.3843   26.9797   41.1639 C   0  0  0  0  0  0  0  0  0  0  0  0
   47.7977   26.5717   42.5708 C   0  0  0  0  0  0  0  0  0  0  0  0
   45.9604   27.5218   41.1744 C   0  0  0  0  0  0  0  0  0  0  0  0
  1  2  2  0  0  0
  1  6  1  0  0  0
  2  3  1  0  0  0
  2  9  1  0  0  0
  3  4  2  0  0  0
  3  7  1  0  0  0
  4  5  1  0  0  0
  5  6  2  0  0  0
  9 10  1  0  0  0
 10 11  1  0  0  0
 10 12  1  0  0  0
  7  8  1  0  0  0
M  END
> <minimizedAffinity>
-5.69658

$$$$
2NND_PRZ_A_300


 12 12  0  0  0  0  0  0  0  0999 V2000
   49.3529   25.4230   39.1493 N   0  0  0  0  0  0  0  0  0  0  0  0
   50.3800   24.9300   39.8801 C   0  0  0  0  0  0  0  0  0  0  0  0
   50.1018   24.2310   41.0553 C   0  0  0  0  0  0  0  0  0  0  0  0
   48.8177   24.0783   41.4386 N   0  0  0  0  0  0  0  0  0  0  0  0
   47.8125   24.5600   40.6990 C   0  0  0  0  0  0  0  0  0  0  0  0
   48.0835   25.2581   39.5308 C   0  0  0  0  0  0  0  0  0  0  0  0
   51.1176   23.7444   41.8355 O   0  0  0  0  0  0  0  0  0  0  0  0
   51.1036   22.4020   42.3336 C   0  0  0  0  0  0  0  0  0  0  0  0
   51.7952   25.1111   39.3605 C   0  0  0  0  0  0  0  0  0  0  0  0
   52.4735   23.8882   38.7867 C   0  0  0  0  0  0  0  0  0  0  0  0
   53.7023   23.4883   39.5911 C   0  0  0  0  0  0  0  0  0  0  0  0
   52.8722   24.2194   37.3540 C   0  0  0  0  0  0  0  0  0  0  0  0
  1  2  2  0  0  0
  1  6  1  0  0  0
  2  3  1  0  0  0
  2  9  1  0  0  0
  3  4  2  0  0  0
  3  7  1  0  0  0
  4  5  1  0  0  0
  5  6  2  0  0  0
  9 10  1  0  0  0
 10 11  1  0  0  0
 10 12  1  0  0  0
  7  8  1  0  0  0
M  END
> <minimizedAffinity>
-5.68121

$$$$
2NND_PRZ_A_300


 12 12  0  0  0  0  0  0  0  0999 V2000
   48.8319   22.8332   41.0454 N   0  0  0  0  0  0  0  0  0  0  0  0
   49.8078   23.7441   40.8221 C   0  0  0  0  0  0  0  0  0  0  0  0
   49.5835   24.7652   39.8979 C   0  0  0  0  0  0  0  0  0  0  0  0
   48.4059   24.8082   39.2416 N   0  0  0  0  0  0  0  0  0  0  0  0
   47.4458   23.9084   39.4826 C   0  0  0  0  0  0  0  0  0  0  0  0
   47.6644   22.8894   40.3988 C   0  0  0  0  0  0  0  0  0  0  0  0
   50.5601   25.6866   39.6245 O   0  0  0  0  0  0  0  0  0  0  0  0
   51.3877   25.5794   38.4609 C   0  0  0  0  0  0  0  0  0  0  0  0
   51.0902   23.6490   41.6295 C   0  0  0  0  0  0  0  0  0  0  0  0
   51.3726   22.3286   42.3092 C   0  0  0  0  0  0  0  0  0  0  0  0
   51.4448   22.4712   43.8229 C   0  0  0  0  0  0  0  0  0  0  0  0
   52.7010   21.8141   41.7691 C   0  0  0  0  0  0  0  0  0  0  0  0
  1  2  2  0  0  0
  1  6  1  0  0  0
  2  3  1  0  0  0
  2  9  1  0  0  0
  3  4  2  0  0  0
  3  7  1  0  0  0
  4  5  1  0  0  0
  5  6  2  0  0  0
  9 10  1  0  0  0
 10 11  1  0  0  0
 10 12  1  0  0  0
  7  8  1  0  0  0
M  END
> <minimizedAffinity>
-5.54825

$$$$
2NND_PRZ_A_300


 12 12  0  0  0  0  0  0  0  0999 V2000
   51.5764   24.2844   39.8986 N   0  0  0  0  0  0  0  0  0  0  0  0
   50.4562   24.0109   40.6074 C   0  0  0  0  0  0  0  0  0  0  0  0
   49.2558   24.6200   40.2400 C   0  0  0  0  0  0  0  0  0  0  0  0
   49.2473   25.4761   39.1978 N   0  0  0  0  0  0  0  0  0  0  0  0
   50.3600   25.7265   38.4985 C   0  0  0  0  0  0  0  0  0  0  0  0
   51.5569   25.1254   38.8610 C   0  0  0  0  0  0  0  0  0  0  0  0
   48.1089   24.3898   40.9535 O   0  0  0  0  0  0  0  0  0  0  0  0
   47.3790   25.4590   41.5655 C   0  0  0  0  0  0  0  0  0  0  0  0
   50.5412   23.0066   41.7431 C   0  0  0  0  0  0  0  0  0  0  0  0
   51.8801   22.8647   42.4302 C   0  0  0  0  0  0  0  0  0  0  0  0
   52.7705   21.8430   41.7373 C   0  0  0  0  0  0  0  0  0  0  0  0
   51.6107   22.4340   43.8666 C   0  0  0  0  0  0  0  0  0  0  0  0
  1  2  2  0  0  0
  1  6  1  0  0  0
  2  3  1  0  0  0
  2  9  1  0  0  0
  3  4  2  0  0  0
  3  7  1  0  0  0
  4  5  1  0  0  0
  5  6  2  0  0  0
  9 10  1  0  0  0
 10 11  1  0  0  0
 10 12  1  0  0  0
  7  8  1  0  0  0
M  END
> <minimizedAffinity>
-5.47795

$$$$
2NND_PRZ_A_300


 12 12  0  0  0  0  0  0  0  0999 V2000
   52.5457   22.3261   41.3953 N   0  0  0  0  0  0  0  0  0  0  0  0
   51.5827   22.9712   40.6965 C   0  0  0  0  0  0  0  0  0  0  0  0
   50.4928   23.5092   41.3819 C   0  0  0  0  0  0  0  0  0  0  0  0
   50.4214   23.3589   42.7204 N   0  0  0  0  0  0  0  0  0  0  0  0
   51.3876   22.7301   43.3990 C   0  0  0  0  0  0  0  0  0  0  0  0
   52.4724   22.1910   42.7222 C   0  0  0  0  0  0  0  0  0  0  0  0
   49.4845   24.1421   40.7036 O   0  0  0  0  0  0  0  0  0  0  0  0
   48.2889   23.4525   40.3225 C   0  0  0  0  0  0  0  0  0  0  0  0
   51.7561   23.1312   39.1965 C   0  0  0  0  0  0  0  0  0  0  0  0
   52.4864   24.3666   38.7217 C   0  0  0  0  0  0  0  0  0  0  0  0
   51.5379   25.5332   38.4847 C   0  0  0  0  0  0  0  0  0  0  0  0
   53.2008   24.0027   37.4261 C   0  0  0  0  0  0  0  0  0  0  0  0
  1  2  2  0  0  0
  1  6  1  0  0  0
  2  3  1  0  0  0
  2  9  1  0  0  0
  3  4  2  0  0  0
  3  7  1  0  0  0
  4  5  1  0  0  0
  5  6  2  0  0  0
  9 10  1  0  0  0
 10 11  1  0  0  0
 10 12  1  0  0  0
  7  8  1  0  0  0
M  END
> <minimizedAffinity>
-5.46003

$$$$
2NND_PRZ_A_300


 12 12  0  0  0  0  0  0  0  0999 V2000
   49.9398   25.2445   41.0730 N   0  0  0  0  0  0  0  0  0  0  0  0
   49.7229   23.9961   40.5970 C   0  0  0  0  0  0  0  0  0  0  0  0
   48.4218   23.4921   40.5839 C   0  0  0  0  0  0  0  0  0  0  0  0
   47.4178   24.2571   41.0594 N   0  0  0  0  0  0  0  0  0  0  0  0
   47.6459   25.4942   41.5145 C   0  0  0  0  0  0  0  0  0  0  0  0
   48.9381   25.9994   41.5322 C   0  0  0  0  0  0  0  0  0  0  0  0
   48.1696   22.2215   40.1375 O   0  0  0  0  0  0  0  0  0  0  0  0
   47.0076   21.4966   40.5554 C   0  0  0  0  0  0  0  0  0  0  0  0
   50.9009   23.2136   40.0442 C   0  0  0  0  0  0  0  0  0  0  0  0
   52.2498   23.4740   40.6748 C   0  0  0  0  0  0  0  0  0  0  0  0
   53.3331   23.6997   39.6297 C   0  0  0  0  0  0  0  0  0  0  0  0
   52.5937   22.2609   41.5300 C   0  0  0  0  0  0  0  0  0  0  0  0
  1  2  2  0  0  0
  1  6  1  0  0  0
  2  3  1  0  0  0
  2  9  1  0  0  0
  3  4  2  0  0  0
  3  7  1  0  0  0
  4  5  1  0  0  0
  5  6  2  0  0  0
  9 10  1  0  0  0
 10 11  1  0  0  0
 10 12  1  0  0  0
  7  8  1  0  0  0
M  END
> <minimizedAffinity>
-5.44235

$$$$
2NND_PRZ_A_300


 12 12  0  0  0  0  0  0  0  0999 V2000
   49.3635   24.9643   42.5788 N   0  0  0  0  0  0  0  0  0  0  0  0
   49.6158   24.6439   41.2882 C   0  0  0  0  0  0  0  0  0  0  0  0
   49.1736   25.4993   40.2783 C   0  0  0  0  0  0  0  0  0  0  0  0
   48.4940   26.6146   40.6151 N   0  0  0  0  0  0  0  0  0  0  0  0
   48.2636   26.9247   41.8959 C   0  0  0  0  0  0  0  0  0  0  0  0
   48.6989   26.0764   42.9040 C   0  0  0  0  0  0  0  0  0  0  0  0
   49.3847   25.1913   38.9600 O   0  0  0  0  0  0  0  0  0  0  0  0
   50.5087   25.7089   38.2396 C   0  0  0  0  0  0  0  0  0  0  0  0
   50.4204   23.3903   40.9939 C   0  0  0  0  0  0  0  0  0  0  0  0
   51.9009   23.4429   41.2948 C   0  0  0  0  0  0  0  0  0  0  0  0
   52.7435   23.3013   40.0352 C   0  0  0  0  0  0  0  0  0  0  0  0
   52.2094   22.3054   42.2603 C   0  0  0  0  0  0  0  0  0  0  0  0
  1  2  2  0  0  0
  1  6  1  0  0  0
  2  3  1  0  0  0
  2  9  1  0  0  0
  3  4  2  0  0  0
  3  7  1  0  0  0
  4  5  1  0  0  0
  5  6  2  0  0  0
  9 10  1  0  0  0
 10 11  1  0  0  0
 10 12  1  0  0  0
  7  8  1  0  0  0
M  END
> <minimizedAffinity>
-5.25548

$$$$
2NND_PRZ_A_300


 12 12  0  0  0  0  0  0  0  0999 V2000
   49.3311   23.8174   41.1681 N   0  0  0  0  0  0  0  0  0  0  0  0
   50.6483   23.8954   40.8666 C   0  0  0  0  0  0  0  0  0  0  0  0
   51.0533   24.6996   39.8007 C   0  0  0  0  0  0  0  0  0  0  0  0
   50.1199   25.3658   39.0906 N   0  0  0  0  0  0  0  0  0  0  0  0
   48.8228   25.2891   39.4087 C   0  0  0  0  0  0  0  0  0  0  0  0
   48.4142   24.4889   40.4662 C   0  0  0  0  0  0  0  0  0  0  0  0
   52.3751   24.7785   39.4483 O   0  0  0  0  0  0  0  0  0  0  0  0
   52.8991   24.0476   38.3341 C   0  0  0  0  0  0  0  0  0  0  0  0
   51.6396   23.1452   41.7383 C   0  0  0  0  0  0  0  0  0  0  0  0
   51.0661   22.3041   42.8559 C   0  0  0  0  0  0  0  0  0  0  0  0
   51.3361   22.9142   44.2239 C   0  0  0  0  0  0  0  0  0  0  0  0
   51.7079   20.9255   42.7628 C   0  0  0  0  0  0  0  0  0  0  0  0
  1  2  2  0  0  0
  1  6  1  0  0  0
  2  3  1  0  0  0
  2  9  1  0  0  0
  3  4  2  0  0  0
  3  7  1  0  0  0
  4  5  1  0  0  0
  5  6  2  0  0  0
  9 10  1  0  0  0
 10 11  1  0  0  0
 10 12  1  0  0  0
  7  8  1  0  0  0
M  END
> <minimizedAffinity>
-5.25349

$$$$
