5VR8_UDX_A_501


 42 44  0  0  0  0  0  0  0  0999 V2000
   19.7846  -10.5573   23.7502 P   0  0  0  0  0  0  0  0  0  0  0  0
   19.8356   -9.3692   22.8242 O   0  0  0  0  0  0  0  0  0  0  0  0
   19.0867  -11.7494   23.1605 O   0  0  0  0  0  0  0  0  0  0  0  0
   18.1856  -11.5009   22.9014 H   0  0  0  0  0  0  0  0  0  0  0  0
   19.0646  -10.2615   25.1696 O   0  0  0  0  0  0  0  0  0  0  0  0
   18.1719   -8.9894   25.5690 P   0  0  0  0  0  0  0  0  0  0  0  0
   18.9332   -7.7933   26.1135 O   0  0  0  0  0  0  0  0  0  0  0  0
   17.3897   -8.5380   24.3645 O   0  0  0  0  0  0  0  0  0  0  0  0
   16.8480   -7.7687   24.6005 H   0  0  0  0  0  0  0  0  0  0  0  0
   17.1410   -9.5829   26.6485 O   0  0  0  0  0  0  0  0  0  0  0  0
   15.7524   -9.6236   26.2446 C   0  0  0  0  0  0  0  0  0  0  0  0
   14.7683   -9.6027   27.4227 C   0  0  0  0  0  0  0  0  0  0  0  0
   15.1068   -8.5699   28.3395 O   0  0  0  0  0  0  0  0  0  0  0  0
   14.7085  -10.9157   28.1957 C   0  0  0  0  0  0  0  0  0  0  0  0
   13.5700  -10.8405   29.0746 O   0  0  0  0  0  0  0  0  0  0  0  0
   14.6157  -12.0937   27.2192 C   0  0  0  0  0  0  0  0  0  0  0  0
   14.7332  -13.3500   27.8879 O   0  0  0  0  0  0  0  0  0  0  0  0
   15.7130  -11.9925   26.1665 C   0  0  0  0  0  0  0  0  0  0  0  0
   15.4984  -10.7834   25.4324 O   0  0  0  0  0  0  0  0  0  0  0  0
   15.9802   -8.7499   28.7213 H   0  0  0  0  0  0  0  0  0  0  0  0
   12.7661  -10.6975   28.5509 H   0  0  0  0  0  0  0  0  0  0  0  0
   15.6031  -13.4099   28.3130 H   0  0  0  0  0  0  0  0  0  0  0  0
   21.2799  -10.9857   24.1755 O   0  0  0  0  0  0  0  0  0  0  0  0
   21.6259  -11.1143   25.5523 C   0  0  0  0  0  0  0  0  0  0  0  0
   23.1508  -11.1114   25.6277 C   0  0  0  0  0  0  0  0  0  0  0  0
   23.6062  -11.7975   26.7947 O   0  0  0  0  0  0  0  0  0  0  0  0
   23.7335  -11.8545   24.4320 C   0  0  0  0  0  0  0  0  0  0  0  0
   24.5414  -10.9409   23.6803 O   0  0  0  0  0  0  0  0  0  0  0  0
   24.5349  -12.9993   25.0300 C   0  0  0  0  0  0  0  0  0  0  0  0
   25.7568  -13.2229   24.3247 O   0  0  0  0  0  0  0  0  0  0  0  0
   24.7848  -12.5236   26.4474 C   0  0  0  0  0  0  0  0  0  0  0  0
   25.2248  -10.5642   24.2564 H   0  0  0  0  0  0  0  0  0  0  0  0
   26.2832  -12.4081   24.3236 H   0  0  0  0  0  0  0  0  0  0  0  0
   24.9682  -13.5702   27.4426 N   0  0  0  0  0  0  0  0  0  0  0  0
   24.0604  -14.5292   27.6026 C   0  0  0  0  0  0  0  0  0  0  0  0
   26.0970  -13.5330   28.2756 C   0  0  0  0  0  0  0  0  0  0  0  0
   26.9450  -12.6309   28.1211 O   0  0  0  0  0  0  0  0  0  0  0  0
   26.2748  -14.4656   29.2136 N   0  0  0  0  0  0  0  0  0  0  0  0
   25.3876  -15.4464   29.3816 C   0  0  0  0  0  0  0  0  0  0  0  0
   25.5630  -16.3187   30.2687 O   0  0  0  0  0  0  0  0  0  0  0  0
   24.2552  -15.4933   28.5774 C   0  0  0  0  0  0  0  0  0  0  0  0
   27.0724  -14.4288   29.7896 H   0  0  0  0  0  0  0  0  0  0  0  0
 11 12  1  0  0  0
 11 19  1  0  0  0
 11 10  1  0  0  0
 12 13  1  0  0  0
 12 14  1  0  0  0
 14 15  1  0  0  0
 14 16  1  0  0  0
 16 17  1  0  0  0
 16 18  1  0  0  0
 18 19  1  0  0  0
  6  7  2  0  0  0
  6  8  1  0  0  0
  6 10  1  0  0  0
  6  5  1  0  0  0
  5  1  1  0  0  0
  1  2  2  0  0  0
  1  3  1  0  0  0
  1 23  1  0  0  0
 23 24  1  0  0  0
 24 25  1  0  0  0
 25 26  1  0  0  0
 25 27  1  0  0  0
 26 31  1  0  0  0
 27 28  1  0  0  0
 27 29  1  0  0  0
 29 30  1  0  0  0
 29 31  1  0  0  0
 31 34  1  0  0  0
 34 35  1  0  0  0
 34 36  1  0  0  0
 35 41  2  0  0  0
 36 37  2  0  0  0
 36 38  1  0  0  0
 38 39  1  0  0  0
 39 40  2  0  0  0
 39 41  1  0  0  0
 13 20  1  0  0  0
 15 21  1  0  0  0
 17 22  1  0  0  0
  8  9  1  0  0  0
  3  4  1  0  0  0
 28 32  1  0  0  0
 30 33  1  0  0  0
 38 42  1  0  0  0
M  END
> <minimizedAffinity>
-11.68660

$$$$
5VR8_UDX_A_501


 42 44  0  0  0  0  0  0  0  0999 V2000
   23.2928  -11.1916   24.6452 P   0  0  0  0  0  0  0  0  0  0  0  0
   22.6216  -11.5344   23.3400 O   0  0  0  0  0  0  0  0  0  0  0  0
   23.7065   -9.7515   24.7482 O   0  0  0  0  0  0  0  0  0  0  0  0
   24.2980   -9.5315   24.0116 H   0  0  0  0  0  0  0  0  0  0  0  0
   24.6144  -12.0711   24.9622 O   0  0  0  0  0  0  0  0  0  0  0  0
   24.9025  -13.5928   24.5427 P   0  0  0  0  0  0  0  0  0  0  0  0
   23.7845  -14.2932   23.7903 O   0  0  0  0  0  0  0  0  0  0  0  0
   26.1433  -13.6434   23.6917 O   0  0  0  0  0  0  0  0  0  0  0  0
   26.3222  -14.5616   23.4351 H   0  0  0  0  0  0  0  0  0  0  0  0
   25.2203  -14.3110   25.9440 O   0  0  0  0  0  0  0  0  0  0  0  0
   24.7379  -13.6339   27.1280 C   0  0  0  0  0  0  0  0  0  0  0  0
   25.8427  -13.3061   28.1422 C   0  0  0  0  0  0  0  0  0  0  0  0
   26.9492  -12.6901   27.4955 O   0  0  0  0  0  0  0  0  0  0  0  0
   26.3604  -14.5233   28.9008 C   0  0  0  0  0  0  0  0  0  0  0  0
   27.1727  -14.0351   29.9853 O   0  0  0  0  0  0  0  0  0  0  0  0
   25.1829  -15.3742   29.3900 C   0  0  0  0  0  0  0  0  0  0  0  0
   25.6185  -16.6124   29.9528 O   0  0  0  0  0  0  0  0  0  0  0  0
   24.2297  -15.6663   28.2375 C   0  0  0  0  0  0  0  0  0  0  0  0
   23.7159  -14.4144   27.7729 O   0  0  0  0  0  0  0  0  0  0  0  0
   27.3407  -13.3118   26.8623 H   0  0  0  0  0  0  0  0  0  0  0  0
   26.6390  -13.4595   30.5552 H   0  0  0  0  0  0  0  0  0  0  0  0
   26.0741  -17.1337   29.2734 H   0  0  0  0  0  0  0  0  0  0  0  0
   22.3108  -11.5418   25.8754 O   0  0  0  0  0  0  0  0  0  0  0  0
   21.3384  -10.5945   26.3101 C   0  0  0  0  0  0  0  0  0  0  0  0
   20.1526  -10.7072   25.3550 C   0  0  0  0  0  0  0  0  0  0  0  0
   18.9590  -11.0504   26.0603 O   0  0  0  0  0  0  0  0  0  0  0  0
   19.8912   -9.3628   24.6874 C   0  0  0  0  0  0  0  0  0  0  0  0
   20.0523   -9.5204   23.2726 O   0  0  0  0  0  0  0  0  0  0  0  0
   18.4709   -8.9938   25.0839 C   0  0  0  0  0  0  0  0  0  0  0  0
   17.7550   -8.3876   24.0068 O   0  0  0  0  0  0  0  0  0  0  0  0
   17.8758  -10.3339   25.4686 C   0  0  0  0  0  0  0  0  0  0  0  0
   19.4578  -10.2181   22.9552 H   0  0  0  0  0  0  0  0  0  0  0  0
   17.7464   -8.9886   23.2454 H   0  0  0  0  0  0  0  0  0  0  0  0
   16.7925  -10.2893   26.4401 N   0  0  0  0  0  0  0  0  0  0  0  0
   16.9160   -9.6013   27.5719 C   0  0  0  0  0  0  0  0  0  0  0  0
   15.6227  -11.0250   26.1958 C   0  0  0  0  0  0  0  0  0  0  0  0
   15.5126  -11.6687   25.1327 O   0  0  0  0  0  0  0  0  0  0  0  0
   14.6257  -11.0221   27.0831 N   0  0  0  0  0  0  0  0  0  0  0  0
   14.7192  -10.3266   28.2166 C   0  0  0  0  0  0  0  0  0  0  0  0
   13.7760  -10.3317   29.0466 O   0  0  0  0  0  0  0  0  0  0  0  0
   15.8750   -9.6032   28.4851 C   0  0  0  0  0  0  0  0  0  0  0  0
   13.8098  -11.5409   26.8980 H   0  0  0  0  0  0  0  0  0  0  0  0
 11 12  1  0  0  0
 11 19  1  0  0  0
 11 10  1  0  0  0
 12 13  1  0  0  0
 12 14  1  0  0  0
 14 15  1  0  0  0
 14 16  1  0  0  0
 16 17  1  0  0  0
 16 18  1  0  0  0
 18 19  1  0  0  0
  6  7  2  0  0  0
  6  8  1  0  0  0
  6 10  1  0  0  0
  6  5  1  0  0  0
  5  1  1  0  0  0
  1  2  2  0  0  0
  1  3  1  0  0  0
  1 23  1  0  0  0
 23 24  1  0  0  0
 24 25  1  0  0  0
 25 26  1  0  0  0
 25 27  1  0  0  0
 26 31  1  0  0  0
 27 28  1  0  0  0
 27 29  1  0  0  0
 29 30  1  0  0  0
 29 31  1  0  0  0
 31 34  1  0  0  0
 34 35  1  0  0  0
 34 36  1  0  0  0
 35 41  2  0  0  0
 36 37  2  0  0  0
 36 38  1  0  0  0
 38 39  1  0  0  0
 39 40  2  0  0  0
 39 41  1  0  0  0
 13 20  1  0  0  0
 15 21  1  0  0  0
 17 22  1  0  0  0
  8  9  1  0  0  0
  3  4  1  0  0  0
 28 32  1  0  0  0
 30 33  1  0  0  0
 38 42  1  0  0  0
M  END
> <minimizedAffinity>
-10.28185

$$$$
5VR8_UDX_A_501


 42 44  0  0  0  0  0  0  0  0999 V2000
   22.0438  -10.7797   24.7699 P   0  0  0  0  0  0  0  0  0  0  0  0
   23.1383   -9.8413   25.2093 O   0  0  0  0  0  0  0  0  0  0  0  0
   21.6189  -11.7486   25.8360 O   0  0  0  0  0  0  0  0  0  0  0  0
   22.3873  -12.2618   26.1313 H   0  0  0  0  0  0  0  0  0  0  0  0
   22.4140  -11.6664   23.4670 O   0  0  0  0  0  0  0  0  0  0  0  0
   23.7978  -12.4150   23.1523 P   0  0  0  0  0  0  0  0  0  0  0  0
   23.9854  -12.8809   21.7190 O   0  0  0  0  0  0  0  0  0  0  0  0
   24.9430  -11.5024   23.5019 O   0  0  0  0  0  0  0  0  0  0  0  0
   25.7825  -11.9503   23.3135 H   0  0  0  0  0  0  0  0  0  0  0  0
   23.7980  -13.6455   24.1849 O   0  0  0  0  0  0  0  0  0  0  0  0
   25.0865  -14.0201   24.7258 C   0  0  0  0  0  0  0  0  0  0  0  0
   25.2251  -15.5244   24.9991 C   0  0  0  0  0  0  0  0  0  0  0  0
   24.7929  -16.2795   23.8744 O   0  0  0  0  0  0  0  0  0  0  0  0
   24.4393  -16.0021   26.2154 C   0  0  0  0  0  0  0  0  0  0  0  0
   24.8769  -17.3433   26.5048 O   0  0  0  0  0  0  0  0  0  0  0  0
   24.6661  -15.0469   27.3926 C   0  0  0  0  0  0  0  0  0  0  0  0
   23.8161  -15.3536   28.4985 O   0  0  0  0  0  0  0  0  0  0  0  0
   24.4101  -13.6081   26.9601 C   0  0  0  0  0  0  0  0  0  0  0  0
   25.3562  -13.2895   25.9353 O   0  0  0  0  0  0  0  0  0  0  0  0
   23.8485  -16.1194   23.7211 H   0  0  0  0  0  0  0  0  0  0  0  0
   25.8320  -17.3422   26.6746 H   0  0  0  0  0  0  0  0  0  0  0  0
   22.8891  -15.2505   28.2321 H   0  0  0  0  0  0  0  0  0  0  0  0
   20.7570   -9.9349   24.2897 O   0  0  0  0  0  0  0  0  0  0  0  0
   19.4521  -10.5021   24.3770 C   0  0  0  0  0  0  0  0  0  0  0  0
   18.5895   -9.5104   25.1538 C   0  0  0  0  0  0  0  0  0  0  0  0
   17.3223  -10.0823   25.4813 O   0  0  0  0  0  0  0  0  0  0  0  0
   19.2613   -9.1582   26.4752 C   0  0  0  0  0  0  0  0  0  0  0  0
   19.5258   -7.7502   26.4880 O   0  0  0  0  0  0  0  0  0  0  0  0
   18.2723   -9.5844   27.5478 C   0  0  0  0  0  0  0  0  0  0  0  0
   18.2199   -8.6518   28.6286 O   0  0  0  0  0  0  0  0  0  0  0  0
   16.9616   -9.6360   26.7879 C   0  0  0  0  0  0  0  0  0  0  0  0
   18.6980   -7.2645   26.3476 H   0  0  0  0  0  0  0  0  0  0  0  0
   17.9885   -7.7739   28.2871 H   0  0  0  0  0  0  0  0  0  0  0  0
   15.9638  -10.5584   27.3102 N   0  0  0  0  0  0  0  0  0  0  0  0
   15.9344  -11.8290   26.9176 C   0  0  0  0  0  0  0  0  0  0  0  0
   14.9911  -10.0820   28.2027 C   0  0  0  0  0  0  0  0  0  0  0  0
   15.0234   -8.8892   28.5671 O   0  0  0  0  0  0  0  0  0  0  0  0
   14.0493  -10.9012   28.6750 N   0  0  0  0  0  0  0  0  0  0  0  0
   14.0096  -12.1827   28.3096 C   0  0  0  0  0  0  0  0  0  0  0  0
   13.1178  -12.9456   28.7584 O   0  0  0  0  0  0  0  0  0  0  0  0
   14.9543  -12.6713   27.4152 C   0  0  0  0  0  0  0  0  0  0  0  0
   13.3744  -10.5543   29.3022 H   0  0  0  0  0  0  0  0  0  0  0  0
 11 12  1  0  0  0
 11 19  1  0  0  0
 11 10  1  0  0  0
 12 13  1  0  0  0
 12 14  1  0  0  0
 14 15  1  0  0  0
 14 16  1  0  0  0
 16 17  1  0  0  0
 16 18  1  0  0  0
 18 19  1  0  0  0
  6  7  2  0  0  0
  6  8  1  0  0  0
  6 10  1  0  0  0
  6  5  1  0  0  0
  5  1  1  0  0  0
  1  2  2  0  0  0
  1  3  1  0  0  0
  1 23  1  0  0  0
 23 24  1  0  0  0
 24 25  1  0  0  0
 25 26  1  0  0  0
 25 27  1  0  0  0
 26 31  1  0  0  0
 27 28  1  0  0  0
 27 29  1  0  0  0
 29 30  1  0  0  0
 29 31  1  0  0  0
 31 34  1  0  0  0
 34 35  1  0  0  0
 34 36  1  0  0  0
 35 41  2  0  0  0
 36 37  2  0  0  0
 36 38  1  0  0  0
 38 39  1  0  0  0
 39 40  2  0  0  0
 39 41  1  0  0  0
 13 20  1  0  0  0
 15 21  1  0  0  0
 17 22  1  0  0  0
  8  9  1  0  0  0
  3  4  1  0  0  0
 28 32  1  0  0  0
 30 33  1  0  0  0
 38 42  1  0  0  0
M  END
> <minimizedAffinity>
-10.25558

$$$$
5VR8_UDX_A_501


 42 44  0  0  0  0  0  0  0  0999 V2000
   19.3466  -10.8536   21.5251 P   0  0  0  0  0  0  0  0  0  0  0  0
   18.5683  -10.4422   20.3017 O   0  0  0  0  0  0  0  0  0  0  0  0
   20.8338  -10.8644   21.3158 O   0  0  0  0  0  0  0  0  0  0  0  0
   21.0523  -11.4555   20.5783 H   0  0  0  0  0  0  0  0  0  0  0  0
   18.9548  -12.3155   22.0997 O   0  0  0  0  0  0  0  0  0  0  0  0
   19.7642  -13.6889   21.9177 P   0  0  0  0  0  0  0  0  0  0  0  0
   18.9959  -14.9568   22.2477 O   0  0  0  0  0  0  0  0  0  0  0  0
   20.2487  -13.7914   20.4960 O   0  0  0  0  0  0  0  0  0  0  0  0
   20.7390  -14.6203   20.3804 H   0  0  0  0  0  0  0  0  0  0  0  0
   21.0403  -13.4979   22.8746 O   0  0  0  0  0  0  0  0  0  0  0  0
   22.3267  -13.7972   22.2844 C   0  0  0  0  0  0  0  0  0  0  0  0
   23.1527  -14.8097   23.0903 C   0  0  0  0  0  0  0  0  0  0  0  0
   22.3617  -15.9401   23.4344 O   0  0  0  0  0  0  0  0  0  0  0  0
   23.7392  -14.2380   24.3765 C   0  0  0  0  0  0  0  0  0  0  0  0
   24.6939  -15.1961   24.8714 O   0  0  0  0  0  0  0  0  0  0  0  0
   24.3740  -12.8706   24.0991 C   0  0  0  0  0  0  0  0  0  0  0  0
   24.7809  -12.2186   25.3028 O   0  0  0  0  0  0  0  0  0  0  0  0
   23.3880  -11.9721   23.3624 C   0  0  0  0  0  0  0  0  0  0  0  0
   23.0919  -12.5919   22.1074 O   0  0  0  0  0  0  0  0  0  0  0  0
   21.6356  -15.6622   24.0145 H   0  0  0  0  0  0  0  0  0  0  0  0
   25.3795  -15.3450   24.2015 H   0  0  0  0  0  0  0  0  0  0  0  0
   24.0043  -12.0559   25.8607 H   0  0  0  0  0  0  0  0  0  0  0  0
   18.9996   -9.8677   22.7530 O   0  0  0  0  0  0  0  0  0  0  0  0
   19.2740  -10.2664   24.0938 C   0  0  0  0  0  0  0  0  0  0  0  0
   18.4854   -9.3287   25.0047 C   0  0  0  0  0  0  0  0  0  0  0  0
   17.2255   -9.9005   25.3592 O   0  0  0  0  0  0  0  0  0  0  0  0
   19.2437   -9.1075   26.3075 C   0  0  0  0  0  0  0  0  0  0  0  0
   19.5452   -7.7119   26.4251 O   0  0  0  0  0  0  0  0  0  0  0  0
   18.3096   -9.6052   27.3984 C   0  0  0  0  0  0  0  0  0  0  0  0
   18.3461   -8.7698   28.5566 O   0  0  0  0  0  0  0  0  0  0  0  0
   16.9551   -9.5628   26.7192 C   0  0  0  0  0  0  0  0  0  0  0  0
   18.7235   -7.1986   26.3783 H   0  0  0  0  0  0  0  0  0  0  0  0
   18.1178   -7.8608   28.3068 H   0  0  0  0  0  0  0  0  0  0  0  0
   15.9664  -10.5064   27.2206 N   0  0  0  0  0  0  0  0  0  0  0  0
   15.9273  -11.7587   26.7739 C   0  0  0  0  0  0  0  0  0  0  0  0
   15.0123  -10.0686   28.1520 C   0  0  0  0  0  0  0  0  0  0  0  0
   15.0537   -8.8927   28.5672 O   0  0  0  0  0  0  0  0  0  0  0  0
   14.0788  -10.9069   28.6070 N   0  0  0  0  0  0  0  0  0  0  0  0
   14.0299  -12.1712   28.1872 C   0  0  0  0  0  0  0  0  0  0  0  0
   13.1460  -12.9523   28.6201 O   0  0  0  0  0  0  0  0  0  0  0  0
   14.9559  -12.6212   27.2538 C   0  0  0  0  0  0  0  0  0  0  0  0
   13.4170  -10.5870   29.2620 H   0  0  0  0  0  0  0  0  0  0  0  0
 11 12  1  0  0  0
 11 19  1  0  0  0
 11 10  1  0  0  0
 12 13  1  0  0  0
 12 14  1  0  0  0
 14 15  1  0  0  0
 14 16  1  0  0  0
 16 17  1  0  0  0
 16 18  1  0  0  0
 18 19  1  0  0  0
  6  7  2  0  0  0
  6  8  1  0  0  0
  6 10  1  0  0  0
  6  5  1  0  0  0
  5  1  1  0  0  0
  1  2  2  0  0  0
  1  3  1  0  0  0
  1 23  1  0  0  0
 23 24  1  0  0  0
 24 25  1  0  0  0
 25 26  1  0  0  0
 25 27  1  0  0  0
 26 31  1  0  0  0
 27 28  1  0  0  0
 27 29  1  0  0  0
 29 30  1  0  0  0
 29 31  1  0  0  0
 31 34  1  0  0  0
 34 35  1  0  0  0
 34 36  1  0  0  0
 35 41  2  0  0  0
 36 37  2  0  0  0
 36 38  1  0  0  0
 38 39  1  0  0  0
 39 40  2  0  0  0
 39 41  1  0  0  0
 13 20  1  0  0  0
 15 21  1  0  0  0
 17 22  1  0  0  0
  8  9  1  0  0  0
  3  4  1  0  0  0
 28 32  1  0  0  0
 30 33  1  0  0  0
 38 42  1  0  0  0
M  END
> <minimizedAffinity>
-9.79814

$$$$
5VR8_UDX_A_501


 42 44  0  0  0  0  0  0  0  0999 V2000
   20.3300  -10.7637   24.9060 P   0  0  0  0  0  0  0  0  0  0  0  0
   20.9986  -11.1311   26.2058 O   0  0  0  0  0  0  0  0  0  0  0  0
   20.9500   -9.5769   24.2256 O   0  0  0  0  0  0  0  0  0  0  0  0
   20.9335   -8.8150   24.8257 H   0  0  0  0  0  0  0  0  0  0  0  0
   18.7498  -10.4393   25.0417 O   0  0  0  0  0  0  0  0  0  0  0  0
   18.0686   -9.0643   25.5108 P   0  0  0  0  0  0  0  0  0  0  0  0
   19.0216   -7.9911   26.0072 O   0  0  0  0  0  0  0  0  0  0  0  0
   17.2736   -8.4924   24.3674 O   0  0  0  0  0  0  0  0  0  0  0  0
   16.8594   -7.6607   24.6457 H   0  0  0  0  0  0  0  0  0  0  0  0
   17.0438   -9.5293   26.6571 O   0  0  0  0  0  0  0  0  0  0  0  0
   15.6504   -9.5961   26.2737 C   0  0  0  0  0  0  0  0  0  0  0  0
   14.6841   -9.6075   27.4666 C   0  0  0  0  0  0  0  0  0  0  0  0
   15.0144   -8.5763   28.3882 O   0  0  0  0  0  0  0  0  0  0  0  0
   14.6642  -10.9288   28.2276 C   0  0  0  0  0  0  0  0  0  0  0  0
   13.5379  -10.8864   29.1242 O   0  0  0  0  0  0  0  0  0  0  0  0
   14.5818  -12.0992   27.2412 C   0  0  0  0  0  0  0  0  0  0  0  0
   14.7364  -13.3589   27.8959 O   0  0  0  0  0  0  0  0  0  0  0  0
   15.6605  -11.9645   26.1732 C   0  0  0  0  0  0  0  0  0  0  0  0
   15.4089  -10.7535   25.4542 O   0  0  0  0  0  0  0  0  0  0  0  0
   15.8971   -8.7410   28.7550 H   0  0  0  0  0  0  0  0  0  0  0  0
   12.7233  -10.7558   28.6141 H   0  0  0  0  0  0  0  0  0  0  0  0
   15.6137  -13.4041   28.3073 H   0  0  0  0  0  0  0  0  0  0  0  0
   20.3648  -12.0209   23.8968 O   0  0  0  0  0  0  0  0  0  0  0  0
   21.5258  -12.2792   23.1112 C   0  0  0  0  0  0  0  0  0  0  0  0
   21.0391  -12.7781   21.7527 C   0  0  0  0  0  0  0  0  0  0  0  0
   19.9736  -13.7170   21.9049 O   0  0  0  0  0  0  0  0  0  0  0  0
   20.4814  -11.6164   20.9398 C   0  0  0  0  0  0  0  0  0  0  0  0
   21.2606  -11.4841   19.7449 O   0  0  0  0  0  0  0  0  0  0  0  0
   19.0330  -11.9858   20.6641 C   0  0  0  0  0  0  0  0  0  0  0  0
   18.6301  -11.6221   19.3428 O   0  0  0  0  0  0  0  0  0  0  0  0
   19.0325  -13.4895   20.8564 C   0  0  0  0  0  0  0  0  0  0  0  0
   21.2490  -12.3224   19.2569 H   0  0  0  0  0  0  0  0  0  0  0  0
   19.2150  -12.0490   18.6974 H   0  0  0  0  0  0  0  0  0  0  0  0
   17.7640  -14.0741   21.2667 N   0  0  0  0  0  0  0  0  0  0  0  0
   17.3484  -13.9918   22.5276 C   0  0  0  0  0  0  0  0  0  0  0  0
   16.9966  -14.7761   20.3244 C   0  0  0  0  0  0  0  0  0  0  0  0
   17.3916  -14.8504   19.1432 O   0  0  0  0  0  0  0  0  0  0  0  0
   15.8430  -15.3441   20.6817 N   0  0  0  0  0  0  0  0  0  0  0  0
   15.3973  -15.2606   21.9353 C   0  0  0  0  0  0  0  0  0  0  0  0
   14.3108  -15.8003   22.2623 O   0  0  0  0  0  0  0  0  0  0  0  0
   16.1490  -14.5829   22.8876 C   0  0  0  0  0  0  0  0  0  0  0  0
   15.3136  -15.8318   20.0099 H   0  0  0  0  0  0  0  0  0  0  0  0
 11 12  1  0  0  0
 11 19  1  0  0  0
 11 10  1  0  0  0
 12 13  1  0  0  0
 12 14  1  0  0  0
 14 15  1  0  0  0
 14 16  1  0  0  0
 16 17  1  0  0  0
 16 18  1  0  0  0
 18 19  1  0  0  0
  6  7  2  0  0  0
  6  8  1  0  0  0
  6 10  1  0  0  0
  6  5  1  0  0  0
  5  1  1  0  0  0
  1  2  2  0  0  0
  1  3  1  0  0  0
  1 23  1  0  0  0
 23 24  1  0  0  0
 24 25  1  0  0  0
 25 26  1  0  0  0
 25 27  1  0  0  0
 26 31  1  0  0  0
 27 28  1  0  0  0
 27 29  1  0  0  0
 29 30  1  0  0  0
 29 31  1  0  0  0
 31 34  1  0  0  0
 34 35  1  0  0  0
 34 36  1  0  0  0
 35 41  2  0  0  0
 36 37  2  0  0  0
 36 38  1  0  0  0
 38 39  1  0  0  0
 39 40  2  0  0  0
 39 41  1  0  0  0
 13 20  1  0  0  0
 15 21  1  0  0  0
 17 22  1  0  0  0
  8  9  1  0  0  0
  3  4  1  0  0  0
 28 32  1  0  0  0
 30 33  1  0  0  0
 38 42  1  0  0  0
M  END
> <minimizedAffinity>
-9.54448

$$$$
5VR8_UDX_A_501


 42 44  0  0  0  0  0  0  0  0999 V2000
   23.5738  -12.3084   26.4846 P   0  0  0  0  0  0  0  0  0  0  0  0
   24.3178  -11.0774   26.9349 O   0  0  0  0  0  0  0  0  0  0  0  0
   23.7944  -13.5014   27.3699 O   0  0  0  0  0  0  0  0  0  0  0  0
   24.7434  -13.6959   27.4198 H   0  0  0  0  0  0  0  0  0  0  0  0
   23.9292  -12.7842   24.9786 O   0  0  0  0  0  0  0  0  0  0  0  0
   24.0186  -11.8753   23.6593 P   0  0  0  0  0  0  0  0  0  0  0  0
   24.2908  -10.3993   23.8917 O   0  0  0  0  0  0  0  0  0  0  0  0
   25.0991  -12.4151   22.7607 O   0  0  0  0  0  0  0  0  0  0  0  0
   25.1575  -11.8690   21.9612 H   0  0  0  0  0  0  0  0  0  0  0  0
   22.5998  -12.1156   22.9455 O   0  0  0  0  0  0  0  0  0  0  0  0
   22.6484  -12.6162   21.5890 C   0  0  0  0  0  0  0  0  0  0  0  0
   21.3407  -12.4129   20.8111 C   0  0  0  0  0  0  0  0  0  0  0  0
   20.8773  -11.0760   20.9515 O   0  0  0  0  0  0  0  0  0  0  0  0
   20.2167  -13.3474   21.2452 C   0  0  0  0  0  0  0  0  0  0  0  0
   19.1677  -13.2355   20.2648 O   0  0  0  0  0  0  0  0  0  0  0  0
   20.7473  -14.7800   21.3719 C   0  0  0  0  0  0  0  0  0  0  0  0
   19.7770  -15.6585   21.9431 O   0  0  0  0  0  0  0  0  0  0  0  0
   22.0010  -14.8024   22.2380 C   0  0  0  0  0  0  0  0  0  0  0  0
   22.9958  -14.0122   21.5800 O   0  0  0  0  0  0  0  0  0  0  0  0
   20.6666  -10.9029   21.8824 H   0  0  0  0  0  0  0  0  0  0  0  0
   19.5145  -13.4757   19.3913 H   0  0  0  0  0  0  0  0  0  0  0  0
   19.5614  -15.3620   22.8411 H   0  0  0  0  0  0  0  0  0  0  0  0
   21.9931  -11.9978   26.4117 O   0  0  0  0  0  0  0  0  0  0  0  0
   21.5321  -10.6673   26.1900 C   0  0  0  0  0  0  0  0  0  0  0  0
   20.3280  -10.7658   25.2565 C   0  0  0  0  0  0  0  0  0  0  0  0
   19.1409  -11.0821   25.9852 O   0  0  0  0  0  0  0  0  0  0  0  0
   20.0789   -9.4220   24.5831 C   0  0  0  0  0  0  0  0  0  0  0  0
   20.2124   -9.5931   23.1670 O   0  0  0  0  0  0  0  0  0  0  0  0
   18.6727   -9.0245   25.0013 C   0  0  0  0  0  0  0  0  0  0  0  0
   17.9489   -8.4135   23.9320 O   0  0  0  0  0  0  0  0  0  0  0  0
   18.0605  -10.3507   25.4068 C   0  0  0  0  0  0  0  0  0  0  0  0
   19.6000  -10.2823   22.8654 H   0  0  0  0  0  0  0  0  0  0  0  0
   17.9163   -9.0200   23.1757 H   0  0  0  0  0  0  0  0  0  0  0  0
   16.9954  -10.2792   26.3966 N   0  0  0  0  0  0  0  0  0  0  0  0
   17.1344   -9.5496   27.5001 C   0  0  0  0  0  0  0  0  0  0  0  0
   15.8274  -11.0324   26.2016 C   0  0  0  0  0  0  0  0  0  0  0  0
   15.7028  -11.7152   25.1647 O   0  0  0  0  0  0  0  0  0  0  0  0
   14.8475  -11.0051   27.1071 N   0  0  0  0  0  0  0  0  0  0  0  0
   14.9564  -10.2681   28.2127 C   0  0  0  0  0  0  0  0  0  0  0  0
   14.0290  -10.2504   29.0602 O   0  0  0  0  0  0  0  0  0  0  0  0
   16.1109   -9.5264   28.4326 C   0  0  0  0  0  0  0  0  0  0  0  0
   14.0326  -11.5366   26.9566 H   0  0  0  0  0  0  0  0  0  0  0  0
 11 12  1  0  0  0
 11 19  1  0  0  0
 11 10  1  0  0  0
 12 13  1  0  0  0
 12 14  1  0  0  0
 14 15  1  0  0  0
 14 16  1  0  0  0
 16 17  1  0  0  0
 16 18  1  0  0  0
 18 19  1  0  0  0
  6  7  2  0  0  0
  6  8  1  0  0  0
  6 10  1  0  0  0
  6  5  1  0  0  0
  5  1  1  0  0  0
  1  2  2  0  0  0
  1  3  1  0  0  0
  1 23  1  0  0  0
 23 24  1  0  0  0
 24 25  1  0  0  0
 25 26  1  0  0  0
 25 27  1  0  0  0
 26 31  1  0  0  0
 27 28  1  0  0  0
 27 29  1  0  0  0
 29 30  1  0  0  0
 29 31  1  0  0  0
 31 34  1  0  0  0
 34 35  1  0  0  0
 34 36  1  0  0  0
 35 41  2  0  0  0
 36 37  2  0  0  0
 36 38  1  0  0  0
 38 39  1  0  0  0
 39 40  2  0  0  0
 39 41  1  0  0  0
 13 20  1  0  0  0
 15 21  1  0  0  0
 17 22  1  0  0  0
  8  9  1  0  0  0
  3  4  1  0  0  0
 28 32  1  0  0  0
 30 33  1  0  0  0
 38 42  1  0  0  0
M  END
> <minimizedAffinity>
-9.50944

$$$$
5VR8_UDX_A_501


 42 44  0  0  0  0  0  0  0  0999 V2000
   22.7725  -10.6289   25.7084 P   0  0  0  0  0  0  0  0  0  0  0  0
   23.6099   -9.6446   24.9328 O   0  0  0  0  0  0  0  0  0  0  0  0
   22.7502  -10.3652   27.1868 O   0  0  0  0  0  0  0  0  0  0  0  0
   23.6575  -10.3700   27.5298 H   0  0  0  0  0  0  0  0  0  0  0  0
   23.2243  -12.1727   25.5257 O   0  0  0  0  0  0  0  0  0  0  0  0
   23.7332  -12.8925   24.1850 P   0  0  0  0  0  0  0  0  0  0  0  0
   25.2053  -12.7134   23.8575 O   0  0  0  0  0  0  0  0  0  0  0  0
   23.4505  -14.3682   24.2797 O   0  0  0  0  0  0  0  0  0  0  0  0
   23.7564  -14.8085   23.4714 H   0  0  0  0  0  0  0  0  0  0  0  0
   22.7879  -12.2683   23.0461 O   0  0  0  0  0  0  0  0  0  0  0  0
   22.3075  -13.1931   22.0427 C   0  0  0  0  0  0  0  0  0  0  0  0
   22.1148  -12.5549   20.6599 C   0  0  0  0  0  0  0  0  0  0  0  0
   23.2619  -11.7988   20.2932 O   0  0  0  0  0  0  0  0  0  0  0  0
   20.8999  -11.6376   20.5712 C   0  0  0  0  0  0  0  0  0  0  0  0
   20.6923  -11.3399   19.1774 O   0  0  0  0  0  0  0  0  0  0  0  0
   19.6838  -12.3173   21.2106 C   0  0  0  0  0  0  0  0  0  0  0  0
   18.5686  -11.4307   21.3082 O   0  0  0  0  0  0  0  0  0  0  0  0
   20.0350  -12.8209   22.6055 C   0  0  0  0  0  0  0  0  0  0  0  0
   21.0718  -13.7966   22.4650 O   0  0  0  0  0  0  0  0  0  0  0  0
   23.3771  -11.0637   20.9154 H   0  0  0  0  0  0  0  0  0  0  0  0
   20.5530  -12.1655   18.6877 H   0  0  0  0  0  0  0  0  0  0  0  0
   18.8000  -10.6816   21.8794 H   0  0  0  0  0  0  0  0  0  0  0  0
   21.2585  -10.6178   25.1534 O   0  0  0  0  0  0  0  0  0  0  0  0
   20.2092  -10.0594   25.9403 C   0  0  0  0  0  0  0  0  0  0  0  0
   18.9267  -10.1854   25.1216 C   0  0  0  0  0  0  0  0  0  0  0  0
   17.9974  -11.0628   25.7592 O   0  0  0  0  0  0  0  0  0  0  0  0
   18.2406   -8.8292   25.0152 C   0  0  0  0  0  0  0  0  0  0  0  0
   18.1696   -8.4645   23.6316 O   0  0  0  0  0  0  0  0  0  0  0  0
   16.8720   -9.0276   25.6460 C   0  0  0  0  0  0  0  0  0  0  0  0
   15.8481   -8.3324   24.9329 O   0  0  0  0  0  0  0  0  0  0  0  0
   16.6870  -10.5303   25.5695 C   0  0  0  0  0  0  0  0  0  0  0  0
   17.7057   -9.1586   23.1377 H   0  0  0  0  0  0  0  0  0  0  0  0
   15.8391   -8.6287   24.0093 H   0  0  0  0  0  0  0  0  0  0  0  0
   15.8219  -11.1133   26.5849 N   0  0  0  0  0  0  0  0  0  0  0  0
   15.9419  -10.7714   27.8648 C   0  0  0  0  0  0  0  0  0  0  0  0
   14.8831  -12.0862   26.2085 C   0  0  0  0  0  0  0  0  0  0  0  0
   14.7753  -12.4032   25.0066 O   0  0  0  0  0  0  0  0  0  0  0  0
   14.0966  -12.6554   27.1243 N   0  0  0  0  0  0  0  0  0  0  0  0
   14.1865  -12.3168   28.4105 C   0  0  0  0  0  0  0  0  0  0  0  0
   13.4428  -12.8598   29.2655 O   0  0  0  0  0  0  0  0  0  0  0  0
   15.1197  -11.3665   28.8069 C   0  0  0  0  0  0  0  0  0  0  0  0
   13.4409  -13.3349   26.8459 H   0  0  0  0  0  0  0  0  0  0  0  0
 11 12  1  0  0  0
 11 19  1  0  0  0
 11 10  1  0  0  0
 12 13  1  0  0  0
 12 14  1  0  0  0
 14 15  1  0  0  0
 14 16  1  0  0  0
 16 17  1  0  0  0
 16 18  1  0  0  0
 18 19  1  0  0  0
  6  7  2  0  0  0
  6  8  1  0  0  0
  6 10  1  0  0  0
  6  5  1  0  0  0
  5  1  1  0  0  0
  1  2  2  0  0  0
  1  3  1  0  0  0
  1 23  1  0  0  0
 23 24  1  0  0  0
 24 25  1  0  0  0
 25 26  1  0  0  0
 25 27  1  0  0  0
 26 31  1  0  0  0
 27 28  1  0  0  0
 27 29  1  0  0  0
 29 30  1  0  0  0
 29 31  1  0  0  0
 31 34  1  0  0  0
 34 35  1  0  0  0
 34 36  1  0  0  0
 35 41  2  0  0  0
 36 37  2  0  0  0
 36 38  1  0  0  0
 38 39  1  0  0  0
 39 40  2  0  0  0
 39 41  1  0  0  0
 13 20  1  0  0  0
 15 21  1  0  0  0
 17 22  1  0  0  0
  8  9  1  0  0  0
  3  4  1  0  0  0
 28 32  1  0  0  0
 30 33  1  0  0  0
 38 42  1  0  0  0
M  END
> <minimizedAffinity>
-9.34456

$$$$
5VR8_UDX_A_501


 42 44  0  0  0  0  0  0  0  0999 V2000
   19.6987  -10.8174   21.6902 P   0  0  0  0  0  0  0  0  0  0  0  0
   19.8186   -9.5779   20.8412 O   0  0  0  0  0  0  0  0  0  0  0  0
   21.0161  -11.4791   21.9771 O   0  0  0  0  0  0  0  0  0  0  0  0
   21.4559  -11.6997   21.1412 H   0  0  0  0  0  0  0  0  0  0  0  0
   18.7394  -11.9606   21.0629 O   0  0  0  0  0  0  0  0  0  0  0  0
   18.7684  -13.5367   21.3625 P   0  0  0  0  0  0  0  0  0  0  0  0
   19.2899  -14.4132   20.2372 O   0  0  0  0  0  0  0  0  0  0  0  0
   19.6113  -13.7912   22.5836 O   0  0  0  0  0  0  0  0  0  0  0  0
   19.6322  -14.7430   22.7694 H   0  0  0  0  0  0  0  0  0  0  0  0
   17.2400  -13.8746   21.7232 O   0  0  0  0  0  0  0  0  0  0  0  0
   17.0356  -14.8072   22.8102 C   0  0  0  0  0  0  0  0  0  0  0  0
   16.5677  -16.1950   22.3503 C   0  0  0  0  0  0  0  0  0  0  0  0
   17.3804  -16.6695   21.2843 O   0  0  0  0  0  0  0  0  0  0  0  0
   15.1158  -16.2303   21.8854 C   0  0  0  0  0  0  0  0  0  0  0  0
   14.7453  -17.6157   21.7523 O   0  0  0  0  0  0  0  0  0  0  0  0
   14.2281  -15.4818   22.8861 C   0  0  0  0  0  0  0  0  0  0  0  0
   12.8906  -15.3375   22.4069 O   0  0  0  0  0  0  0  0  0  0  0  0
   14.8018  -14.0981   23.1666 C   0  0  0  0  0  0  0  0  0  0  0  0
   16.0923  -14.2765   23.7579 O   0  0  0  0  0  0  0  0  0  0  0  0
   17.2817  -16.0841   20.5172 H   0  0  0  0  0  0  0  0  0  0  0  0
   14.8582  -18.0640   22.6050 H   0  0  0  0  0  0  0  0  0  0  0  0
   12.8941  -14.8117   21.5918 H   0  0  0  0  0  0  0  0  0  0  0  0
   18.9802  -10.4571   23.0882 O   0  0  0  0  0  0  0  0  0  0  0  0
   19.7617  -10.2091   24.2543 C   0  0  0  0  0  0  0  0  0  0  0  0
   18.9655   -9.2377   25.1224 C   0  0  0  0  0  0  0  0  0  0  0  0
   17.5943   -9.6294   25.2019 O   0  0  0  0  0  0  0  0  0  0  0  0
   19.5040   -9.2505   26.5476 C   0  0  0  0  0  0  0  0  0  0  0  0
   19.9755   -7.9357   26.8658 O   0  0  0  0  0  0  0  0  0  0  0  0
   18.3297   -9.6831   27.4103 C   0  0  0  0  0  0  0  0  0  0  0  0
   18.2785   -8.9646   28.6439 O   0  0  0  0  0  0  0  0  0  0  0  0
   17.1375   -9.3685   26.5285 C   0  0  0  0  0  0  0  0  0  0  0  0
   19.2569   -7.2959   26.7427 H   0  0  0  0  0  0  0  0  0  0  0  0
   18.2300   -8.0130   28.4620 H   0  0  0  0  0  0  0  0  0  0  0  0
   15.9513  -10.1814   26.7552 N   0  0  0  0  0  0  0  0  0  0  0  0
   15.6765  -11.2236   25.9757 C   0  0  0  0  0  0  0  0  0  0  0  0
   15.0630   -9.8255   27.7818 C   0  0  0  0  0  0  0  0  0  0  0  0
   15.3257   -8.8468   28.5097 O   0  0  0  0  0  0  0  0  0  0  0  0
   13.9548  -10.5386   27.9930 N   0  0  0  0  0  0  0  0  0  0  0  0
   13.6666  -11.5974   27.2359 C   0  0  0  0  0  0  0  0  0  0  0  0
   12.6198  -12.2613   27.4413 O   0  0  0  0  0  0  0  0  0  0  0  0
   14.5250  -11.9581   26.2043 C   0  0  0  0  0  0  0  0  0  0  0  0
   13.3415  -10.2791   28.7181 H   0  0  0  0  0  0  0  0  0  0  0  0
 11 12  1  0  0  0
 11 19  1  0  0  0
 11 10  1  0  0  0
 12 13  1  0  0  0
 12 14  1  0  0  0
 14 15  1  0  0  0
 14 16  1  0  0  0
 16 17  1  0  0  0
 16 18  1  0  0  0
 18 19  1  0  0  0
  6  7  2  0  0  0
  6  8  1  0  0  0
  6 10  1  0  0  0
  6  5  1  0  0  0
  5  1  1  0  0  0
  1  2  2  0  0  0
  1  3  1  0  0  0
  1 23  1  0  0  0
 23 24  1  0  0  0
 24 25  1  0  0  0
 25 26  1  0  0  0
 25 27  1  0  0  0
 26 31  1  0  0  0
 27 28  1  0  0  0
 27 29  1  0  0  0
 29 30  1  0  0  0
 29 31  1  0  0  0
 31 34  1  0  0  0
 34 35  1  0  0  0
 34 36  1  0  0  0
 35 41  2  0  0  0
 36 37  2  0  0  0
 36 38  1  0  0  0
 38 39  1  0  0  0
 39 40  2  0  0  0
 39 41  1  0  0  0
 13 20  1  0  0  0
 15 21  1  0  0  0
 17 22  1  0  0  0
  8  9  1  0  0  0
  3  4  1  0  0  0
 28 32  1  0  0  0
 30 33  1  0  0  0
 38 42  1  0  0  0
M  END
> <minimizedAffinity>
-9.29230

$$$$
5VR8_UDX_A_501


 42 44  0  0  0  0  0  0  0  0999 V2000
   22.4679  -10.9463   25.4618 P   0  0  0  0  0  0  0  0  0  0  0  0
   23.1392   -9.6499   25.8364 O   0  0  0  0  0  0  0  0  0  0  0  0
   22.9198  -12.1174   26.2865 O   0  0  0  0  0  0  0  0  0  0  0  0
   23.8816  -12.2157   26.2087 H   0  0  0  0  0  0  0  0  0  0  0  0
   22.6677  -11.3731   23.9130 O   0  0  0  0  0  0  0  0  0  0  0  0
   22.9679  -12.8381   23.3314 P   0  0  0  0  0  0  0  0  0  0  0  0
   24.0225  -12.9122   22.2410 O   0  0  0  0  0  0  0  0  0  0  0  0
   23.3962  -13.7385   24.4594 O   0  0  0  0  0  0  0  0  0  0  0  0
   23.5791  -14.6259   24.1131 H   0  0  0  0  0  0  0  0  0  0  0  0
   21.5318  -13.3315   22.8075 O   0  0  0  0  0  0  0  0  0  0  0  0
   21.3668  -13.3929   21.3715 C   0  0  0  0  0  0  0  0  0  0  0  0
   20.4906  -12.2670   20.8044 C   0  0  0  0  0  0  0  0  0  0  0  0
   20.9012  -11.0062   21.3178 O   0  0  0  0  0  0  0  0  0  0  0  0
   19.0051  -12.4350   21.1047 C   0  0  0  0  0  0  0  0  0  0  0  0
   18.2963  -11.4789   20.2938 O   0  0  0  0  0  0  0  0  0  0  0  0
   18.5736  -13.8777   20.8181 C   0  0  0  0  0  0  0  0  0  0  0  0
   17.2353  -14.1285   21.2488 O   0  0  0  0  0  0  0  0  0  0  0  0
   19.5075  -14.8560   21.5204 C   0  0  0  0  0  0  0  0  0  0  0  0
   20.8191  -14.6647   20.9818 O   0  0  0  0  0  0  0  0  0  0  0  0
   20.7712  -10.9906   22.2790 H   0  0  0  0  0  0  0  0  0  0  0  0
   18.4919  -11.6408   19.3576 H   0  0  0  0  0  0  0  0  0  0  0  0
   17.1766  -14.0070   22.2094 H   0  0  0  0  0  0  0  0  0  0  0  0
   20.8685  -10.7960   25.6013 O   0  0  0  0  0  0  0  0  0  0  0  0
   20.1243  -10.0914   24.6105 C   0  0  0  0  0  0  0  0  0  0  0  0
   19.2097   -9.1193   25.3519 C   0  0  0  0  0  0  0  0  0  0  0  0
   17.8554   -9.5727   25.3281 O   0  0  0  0  0  0  0  0  0  0  0  0
   19.6146   -9.0378   26.8184 C   0  0  0  0  0  0  0  0  0  0  0  0
   19.9966   -7.6880   27.1088 O   0  0  0  0  0  0  0  0  0  0  0  0
   18.3859   -9.4850   27.5935 C   0  0  0  0  0  0  0  0  0  0  0  0
   18.1898   -8.7117   28.7784 O   0  0  0  0  0  0  0  0  0  0  0  0
   17.2673   -9.2711   26.5930 C   0  0  0  0  0  0  0  0  0  0  0  0
   19.2650   -7.0904   26.8885 H   0  0  0  0  0  0  0  0  0  0  0  0
   18.1166   -7.7734   28.5437 H   0  0  0  0  0  0  0  0  0  0  0  0
   16.1021  -10.1287   26.7543 N   0  0  0  0  0  0  0  0  0  0  0  0
   15.9738  -11.2489   26.0485 C   0  0  0  0  0  0  0  0  0  0  0  0
   15.0797   -9.7372   27.6323 C   0  0  0  0  0  0  0  0  0  0  0  0
   15.2054   -8.6853   28.2914 O   0  0  0  0  0  0  0  0  0  0  0  0
   13.9890  -10.4924   27.7780 N   0  0  0  0  0  0  0  0  0  0  0  0
   13.8454  -11.6279   27.0944 C   0  0  0  0  0  0  0  0  0  0  0  0
   12.8139  -12.3310   27.2370 O   0  0  0  0  0  0  0  0  0  0  0  0
   14.8391  -12.0264   26.2084 C   0  0  0  0  0  0  0  0  0  0  0  0
   13.2804  -10.2069   28.3990 H   0  0  0  0  0  0  0  0  0  0  0  0
 11 12  1  0  0  0
 11 19  1  0  0  0
 11 10  1  0  0  0
 12 13  1  0  0  0
 12 14  1  0  0  0
 14 15  1  0  0  0
 14 16  1  0  0  0
 16 17  1  0  0  0
 16 18  1  0  0  0
 18 19  1  0  0  0
  6  7  2  0  0  0
  6  8  1  0  0  0
  6 10  1  0  0  0
  6  5  1  0  0  0
  5  1  1  0  0  0
  1  2  2  0  0  0
  1  3  1  0  0  0
  1 23  1  0  0  0
 23 24  1  0  0  0
 24 25  1  0  0  0
 25 26  1  0  0  0
 25 27  1  0  0  0
 26 31  1  0  0  0
 27 28  1  0  0  0
 27 29  1  0  0  0
 29 30  1  0  0  0
 29 31  1  0  0  0
 31 34  1  0  0  0
 34 35  1  0  0  0
 34 36  1  0  0  0
 35 41  2  0  0  0
 36 37  2  0  0  0
 36 38  1  0  0  0
 38 39  1  0  0  0
 39 40  2  0  0  0
 39 41  1  0  0  0
 13 20  1  0  0  0
 15 21  1  0  0  0
 17 22  1  0  0  0
  8  9  1  0  0  0
  3  4  1  0  0  0
 28 32  1  0  0  0
 30 33  1  0  0  0
 38 42  1  0  0  0
M  END
> <minimizedAffinity>
-9.28489

$$$$
5VR8_UDX_A_501


 42 44  0  0  0  0  0  0  0  0999 V2000
   22.7658  -10.8598   25.7194 P   0  0  0  0  0  0  0  0  0  0  0  0
   23.6236   -9.6585   25.4149 O   0  0  0  0  0  0  0  0  0  0  0  0
   22.6517  -11.1605   27.1865 O   0  0  0  0  0  0  0  0  0  0  0  0
   23.5374  -11.2912   27.5596 H   0  0  0  0  0  0  0  0  0  0  0  0
   23.2634  -12.2269   25.0095 O   0  0  0  0  0  0  0  0  0  0  0  0
   23.8375  -12.4057   23.5219 P   0  0  0  0  0  0  0  0  0  0  0  0
   22.9342  -11.9179   22.4026 O   0  0  0  0  0  0  0  0  0  0  0  0
   25.1533  -11.6826   23.4107 O   0  0  0  0  0  0  0  0  0  0  0  0
   25.5050  -11.7875   22.5129 H   0  0  0  0  0  0  0  0  0  0  0  0
   24.1171  -13.9841   23.4184 O   0  0  0  0  0  0  0  0  0  0  0  0
   25.3697  -14.4448   23.9768 C   0  0  0  0  0  0  0  0  0  0  0  0
   26.1935  -15.3076   23.0106 C   0  0  0  0  0  0  0  0  0  0  0  0
   26.2867  -14.6829   21.7367 O   0  0  0  0  0  0  0  0  0  0  0  0
   25.6290  -16.7093   22.8060 C   0  0  0  0  0  0  0  0  0  0  0  0
   26.6326  -17.4752   22.1128 O   0  0  0  0  0  0  0  0  0  0  0  0
   25.2553  -17.3252   24.1590 C   0  0  0  0  0  0  0  0  0  0  0  0
   24.5624  -18.5646   24.0065 O   0  0  0  0  0  0  0  0  0  0  0  0
   24.3758  -16.3643   24.9500 C   0  0  0  0  0  0  0  0  0  0  0  0
   25.1391  -15.1788   25.1923 O   0  0  0  0  0  0  0  0  0  0  0  0
   25.4017  -14.6113   21.3462 H   0  0  0  0  0  0  0  0  0  0  0  0
   27.4474  -17.4916   22.6389 H   0  0  0  0  0  0  0  0  0  0  0  0
   23.7304  -18.4135   23.5312 H   0  0  0  0  0  0  0  0  0  0  0  0
   21.2867  -10.6451   25.1141 O   0  0  0  0  0  0  0  0  0  0  0  0
   20.2468  -10.1126   25.9308 C   0  0  0  0  0  0  0  0  0  0  0  0
   18.9562  -10.2052   25.1204 C   0  0  0  0  0  0  0  0  0  0  0  0
   18.0173  -11.0765   25.7524 O   0  0  0  0  0  0  0  0  0  0  0  0
   18.2919   -8.8364   25.0395 C   0  0  0  0  0  0  0  0  0  0  0  0
   18.2163   -8.4501   23.6620 O   0  0  0  0  0  0  0  0  0  0  0  0
   16.9251   -9.0216   25.6782 C   0  0  0  0  0  0  0  0  0  0  0  0
   15.9074   -8.2990   24.9834 O   0  0  0  0  0  0  0  0  0  0  0  0
   16.7145  -10.5197   25.5810 C   0  0  0  0  0  0  0  0  0  0  0  0
   17.7372   -9.1290   23.1616 H   0  0  0  0  0  0  0  0  0  0  0  0
   15.8864   -8.5813   24.0557 H   0  0  0  0  0  0  0  0  0  0  0  0
   15.8476  -11.1034   26.5945 N   0  0  0  0  0  0  0  0  0  0  0  0
   15.9797  -10.7787   27.8776 C   0  0  0  0  0  0  0  0  0  0  0  0
   14.8936  -12.0589   26.2120 C   0  0  0  0  0  0  0  0  0  0  0  0
   14.7744  -12.3598   25.0070 O   0  0  0  0  0  0  0  0  0  0  0  0
   14.1049  -12.6287   27.1256 N   0  0  0  0  0  0  0  0  0  0  0  0
   14.2069  -12.3070   28.4153 C   0  0  0  0  0  0  0  0  0  0  0  0
   13.4611  -12.8503   29.2681 O   0  0  0  0  0  0  0  0  0  0  0  0
   15.1552  -11.3741   28.8175 C   0  0  0  0  0  0  0  0  0  0  0  0
   13.4385  -13.2959   26.8431 H   0  0  0  0  0  0  0  0  0  0  0  0
 11 12  1  0  0  0
 11 19  1  0  0  0
 11 10  1  0  0  0
 12 13  1  0  0  0
 12 14  1  0  0  0
 14 15  1  0  0  0
 14 16  1  0  0  0
 16 17  1  0  0  0
 16 18  1  0  0  0
 18 19  1  0  0  0
  6  7  2  0  0  0
  6  8  1  0  0  0
  6 10  1  0  0  0
  6  5  1  0  0  0
  5  1  1  0  0  0
  1  2  2  0  0  0
  1  3  1  0  0  0
  1 23  1  0  0  0
 23 24  1  0  0  0
 24 25  1  0  0  0
 25 26  1  0  0  0
 25 27  1  0  0  0
 26 31  1  0  0  0
 27 28  1  0  0  0
 27 29  1  0  0  0
 29 30  1  0  0  0
 29 31  1  0  0  0
 31 34  1  0  0  0
 34 35  1  0  0  0
 34 36  1  0  0  0
 35 41  2  0  0  0
 36 37  2  0  0  0
 36 38  1  0  0  0
 38 39  1  0  0  0
 39 40  2  0  0  0
 39 41  1  0  0  0
 13 20  1  0  0  0
 15 21  1  0  0  0
 17 22  1  0  0  0
  8  9  1  0  0  0
  3  4  1  0  0  0
 28 32  1  0  0  0
 30 33  1  0  0  0
 38 42  1  0  0  0
M  END
> <minimizedAffinity>
-8.93251

$$$$
