3M1K_BEW_A_502


 10 10  0  0  0  0  0  0  0  0999 V2000
   16.0955    6.0501   15.1569 C   0  0  0  0  0  0  0  0  0  0  0  0
   14.8263    6.1613   15.7184 C   0  0  0  0  0  0  0  0  0  0  0  0
   14.3805    5.1033   16.5379 C   0  0  0  0  0  0  0  0  0  0  0  0
   16.4944    3.9410   16.1533 N   0  0  0  0  0  0  0  0  0  0  0  0
   17.3362    2.7323   16.4221 O   0  0  0  0  0  0  0  0  0  0  0  0
   16.9241    4.9380   15.3771 C   0  0  0  0  0  0  0  0  0  0  0  0
   15.2537    4.0415   16.7085 C   0  0  0  0  0  0  0  0  0  0  0  0
   14.8614    2.6221   17.7054 S   0  0  0  0  0  0  0  0  0  0  0  0
   18.1894    2.6615   16.0413 H   0  0  0  0  0  0  0  0  0  0  0  0
   13.6176    2.7701   18.2352 H   0  0  0  0  0  0  0  0  0  0  0  0
  1  2  2  0  0  0
  1  6  1  0  0  0
  2  3  1  0  0  0
  3  7  2  0  0  0
  4  5  1  0  0  0
  4  6  2  0  0  0
  4  7  1  0  0  0
  7  8  1  0  0  0
  5  9  1  0  0  0
  8 10  1  0  0  0
M  CHG 1   4   1
M  END
> <minimizedAffinity>
-5.21887

$$$$
3M1K_BEW_A_502


 10 10  0  0  0  0  0  0  0  0999 V2000
   14.5491    3.5838   17.9666 C   0  0  0  0  0  0  0  0  0  0  0  0
   14.2870    4.8076   17.3566 C   0  0  0  0  0  0  0  0  0  0  0  0
   14.8815    5.0510   16.1007 C   0  0  0  0  0  0  0  0  0  0  0  0
   15.9307    2.8470   16.1923 N   0  0  0  0  0  0  0  0  0  0  0  0
   16.8158    1.8426   15.5216 O   0  0  0  0  0  0  0  0  0  0  0  0
   15.3717    2.6084   17.3804 C   0  0  0  0  0  0  0  0  0  0  0  0
   15.6790    4.0418   15.5867 C   0  0  0  0  0  0  0  0  0  0  0  0
   16.5082    4.1731   14.0191 S   0  0  0  0  0  0  0  0  0  0  0  0
   16.9899    1.0206   15.9364 H   0  0  0  0  0  0  0  0  0  0  0  0
   16.2263    5.3789   13.4568 H   0  0  0  0  0  0  0  0  0  0  0  0
  1  2  2  0  0  0
  1  6  1  0  0  0
  2  3  1  0  0  0
  3  7  2  0  0  0
  4  5  1  0  0  0
  4  6  2  0  0  0
  4  7  1  0  0  0
  7  8  1  0  0  0
  5  9  1  0  0  0
  8 10  1  0  0  0
M  CHG 1   4   1
M  END
> <minimizedAffinity>
-5.07801

$$$$
3M1K_BEW_A_502


 10 10  0  0  0  0  0  0  0  0999 V2000
   18.3524    1.5466   11.0237 C   0  0  0  0  0  0  0  0  0  0  0  0
   19.4087    2.4537   11.0318 C   0  0  0  0  0  0  0  0  0  0  0  0
   19.0895    3.8259   11.1018 C   0  0  0  0  0  0  0  0  0  0  0  0
   16.7157    3.2514   11.1455 N   0  0  0  0  0  0  0  0  0  0  0  0
   15.3010    3.7382   11.2077 O   0  0  0  0  0  0  0  0  0  0  0  0
   17.0089    1.9511   11.0800 C   0  0  0  0  0  0  0  0  0  0  0  0
   17.7430    4.1469   11.1551 C   0  0  0  0  0  0  0  0  0  0  0  0
   17.1550    5.8228   11.2457 S   0  0  0  0  0  0  0  0  0  0  0  0
   14.5935    3.1240   11.2012 H   0  0  0  0  0  0  0  0  0  0  0  0
   18.2146    6.6753   11.2525 H   0  0  0  0  0  0  0  0  0  0  0  0
  1  2  2  0  0  0
  1  6  1  0  0  0
  2  3  1  0  0  0
  3  7  2  0  0  0
  4  5  1  0  0  0
  4  6  2  0  0  0
  4  7  1  0  0  0
  7  8  1  0  0  0
  5  9  1  0  0  0
  8 10  1  0  0  0
M  CHG 1   4   1
M  END
> <minimizedAffinity>
-4.48894

$$$$
3M1K_BEW_A_502


 10 10  0  0  0  0  0  0  0  0999 V2000
   18.9145    5.1343   10.7875 C   0  0  0  0  0  0  0  0  0  0  0  0
   19.8090    4.0759   10.9229 C   0  0  0  0  0  0  0  0  0  0  0  0
   19.2717    2.7957   11.1722 C   0  0  0  0  0  0  0  0  0  0  0  0
   17.0243    3.7519   11.1285 N   0  0  0  0  0  0  0  0  0  0  0  0
   15.5506    3.5158   11.2489 O   0  0  0  0  0  0  0  0  0  0  0  0
   17.5243    4.9665   10.8920 C   0  0  0  0  0  0  0  0  0  0  0  0
   17.8921    2.7093   11.2614 C   0  0  0  0  0  0  0  0  0  0  0  0
   17.0406    1.1792   11.5712 S   0  0  0  0  0  0  0  0  0  0  0  0
   14.9525    4.2314   11.1579 H   0  0  0  0  0  0  0  0  0  0  0  0
   17.9471    0.1731   11.6957 H   0  0  0  0  0  0  0  0  0  0  0  0
  1  2  2  0  0  0
  1  6  1  0  0  0
  2  3  1  0  0  0
  3  7  2  0  0  0
  4  5  1  0  0  0
  4  6  2  0  0  0
  4  7  1  0  0  0
  7  8  1  0  0  0
  5  9  1  0  0  0
  8 10  1  0  0  0
M  CHG 1   4   1
M  END
> <minimizedAffinity>
-4.43625

$$$$
3M1K_BEW_A_502


 10 10  0  0  0  0  0  0  0  0999 V2000
   14.9638    4.7964   16.7063 C   0  0  0  0  0  0  0  0  0  0  0  0
   14.8994    5.6520   15.6098 C   0  0  0  0  0  0  0  0  0  0  0  0
   15.4874    5.2136   14.4049 C   0  0  0  0  0  0  0  0  0  0  0  0
   16.1401    3.1320   15.5040 N   0  0  0  0  0  0  0  0  0  0  0  0
   16.8158    1.8010   15.3852 O   0  0  0  0  0  0  0  0  0  0  0  0
   15.5857    3.5388   16.6477 C   0  0  0  0  0  0  0  0  0  0  0  0
   16.0810    3.9621   14.4246 C   0  0  0  0  0  0  0  0  0  0  0  0
   16.8708    3.2479   13.0004 S   0  0  0  0  0  0  0  0  0  0  0  0
   16.8574    1.2289   16.1261 H   0  0  0  0  0  0  0  0  0  0  0  0
   16.7853    4.1119   11.9537 H   0  0  0  0  0  0  0  0  0  0  0  0
  1  2  2  0  0  0
  1  6  1  0  0  0
  2  3  1  0  0  0
  3  7  2  0  0  0
  4  5  1  0  0  0
  4  6  2  0  0  0
  4  7  1  0  0  0
  7  8  1  0  0  0
  5  9  1  0  0  0
  8 10  1  0  0  0
M  CHG 1   4   1
M  END
> <minimizedAffinity>
-4.38443

$$$$
3M1K_BEW_A_502


 10 10  0  0  0  0  0  0  0  0999 V2000
   14.5191    3.9106   17.7645 C   0  0  0  0  0  0  0  0  0  0  0  0
   15.3960    2.9103   17.3535 C   0  0  0  0  0  0  0  0  0  0  0  0
   16.0464    3.0820   16.1136 C   0  0  0  0  0  0  0  0  0  0  0  0
   14.8877    5.2128   15.8233 N   0  0  0  0  0  0  0  0  0  0  0  0
   14.6581    6.4167   14.9630 O   0  0  0  0  0  0  0  0  0  0  0  0
   14.2686    5.0584   16.9954 C   0  0  0  0  0  0  0  0  0  0  0  0
   15.7489    4.2394   15.4130 C   0  0  0  0  0  0  0  0  0  0  0  0
   16.4726    4.6229   13.8345 S   0  0  0  0  0  0  0  0  0  0  0  0
   14.0663    7.0869   15.2435 H   0  0  0  0  0  0  0  0  0  0  0  0
   17.3213    3.6245   13.4703 H   0  0  0  0  0  0  0  0  0  0  0  0
  1  2  2  0  0  0
  1  6  1  0  0  0
  2  3  1  0  0  0
  3  7  2  0  0  0
  4  5  1  0  0  0
  4  6  2  0  0  0
  4  7  1  0  0  0
  7  8  1  0  0  0
  5  9  1  0  0  0
  8 10  1  0  0  0
M  CHG 1   4   1
M  END
> <minimizedAffinity>
-4.27938

$$$$
3M1K_BEW_A_502


 10 10  0  0  0  0  0  0  0  0999 V2000
   17.8439    1.5613   10.5746 C   0  0  0  0  0  0  0  0  0  0  0  0
   16.5209    1.9427   10.7822 C   0  0  0  0  0  0  0  0  0  0  0  0
   16.2913    3.1676   11.4429 C   0  0  0  0  0  0  0  0  0  0  0  0
   18.7045    3.5009   11.6222 N   0  0  0  0  0  0  0  0  0  0  0  0
   19.8256    4.3743   12.0937 O   0  0  0  0  0  0  0  0  0  0  0  0
   18.9307    2.3436   10.9972 C   0  0  0  0  0  0  0  0  0  0  0  0
   17.4128    3.8833   11.8288 C   0  0  0  0  0  0  0  0  0  0  0  0
   17.3154    5.4457   12.6724 S   0  0  0  0  0  0  0  0  0  0  0  0
   20.7143    4.1131   11.9525 H   0  0  0  0  0  0  0  0  0  0  0  0
   16.0103    5.7822   12.8542 H   0  0  0  0  0  0  0  0  0  0  0  0
  1  2  2  0  0  0
  1  6  1  0  0  0
  2  3  1  0  0  0
  3  7  2  0  0  0
  4  5  1  0  0  0
  4  6  2  0  0  0
  4  7  1  0  0  0
  7  8  1  0  0  0
  5  9  1  0  0  0
  8 10  1  0  0  0
M  CHG 1   4   1
M  END
> <minimizedAffinity>
-4.15496

$$$$
3M1K_BEW_A_502


 10 10  0  0  0  0  0  0  0  0999 V2000
   16.8214    1.6760   11.1566 C   0  0  0  0  0  0  0  0  0  0  0  0
   18.1956    1.4779   11.0514 C   0  0  0  0  0  0  0  0  0  0  0  0
   19.0222    2.6208   11.0654 C   0  0  0  0  0  0  0  0  0  0  0  0
   17.0382    4.0291   11.2833 N   0  0  0  0  0  0  0  0  0  0  0  0
   16.4814    5.4138   11.4038 O   0  0  0  0  0  0  0  0  0  0  0  0
   16.2489    2.9530   11.2715 C   0  0  0  0  0  0  0  0  0  0  0  0
   18.3849    3.8452   11.1820 C   0  0  0  0  0  0  0  0  0  0  0  0
   19.2649    5.3901   11.2160 S   0  0  0  0  0  0  0  0  0  0  0  0
   15.5558    5.5422   11.4736 H   0  0  0  0  0  0  0  0  0  0  0  0
   20.6002    5.1535   11.1124 H   0  0  0  0  0  0  0  0  0  0  0  0
  1  2  2  0  0  0
  1  6  1  0  0  0
  2  3  1  0  0  0
  3  7  2  0  0  0
  4  5  1  0  0  0
  4  6  2  0  0  0
  4  7  1  0  0  0
  7  8  1  0  0  0
  5  9  1  0  0  0
  8 10  1  0  0  0
M  CHG 1   4   1
M  END
> <minimizedAffinity>
-4.12930

$$$$
3M1K_BEW_A_502


 10 10  0  0  0  0  0  0  0  0999 V2000
   15.3461    4.8946   16.0359 C   0  0  0  0  0  0  0  0  0  0  0  0
   14.6735    6.1019   15.8664 C   0  0  0  0  0  0  0  0  0  0  0  0
   15.3694    7.1529   15.2332 C   0  0  0  0  0  0  0  0  0  0  0  0
   17.3197    5.6994   15.0077 N   0  0  0  0  0  0  0  0  0  0  0  0
   18.7302    5.5464   14.5289 O   0  0  0  0  0  0  0  0  0  0  0  0
   16.6684    4.6996   15.6055 C   0  0  0  0  0  0  0  0  0  0  0  0
   16.6692    6.8847   14.8363 C   0  0  0  0  0  0  0  0  0  0  0  0
   17.6964    8.0883   14.0247 S   0  0  0  0  0  0  0  0  0  0  0  0
   19.1789    4.7322   14.6459 H   0  0  0  0  0  0  0  0  0  0  0  0
   17.0042    9.2496   13.8775 H   0  0  0  0  0  0  0  0  0  0  0  0
  1  2  2  0  0  0
  1  6  1  0  0  0
  2  3  1  0  0  0
  3  7  2  0  0  0
  4  5  1  0  0  0
  4  6  2  0  0  0
  4  7  1  0  0  0
  7  8  1  0  0  0
  5  9  1  0  0  0
  8 10  1  0  0  0
M  CHG 1   4   1
M  END
> <minimizedAffinity>
-4.09023

$$$$
3M1K_BEW_A_502


 10 10  0  0  0  0  0  0  0  0999 V2000
   15.0902    7.0258   15.4163 C   0  0  0  0  0  0  0  0  0  0  0  0
   16.2746    6.6643   14.7799 C   0  0  0  0  0  0  0  0  0  0  0  0
   16.7179    5.3340   14.9336 C   0  0  0  0  0  0  0  0  0  0  0  0
   14.7698    4.8672   16.3315 N   0  0  0  0  0  0  0  0  0  0  0  0
   14.0126    3.8640   17.1453 O   0  0  0  0  0  0  0  0  0  0  0  0
   14.3430    6.1238   16.1908 C   0  0  0  0  0  0  0  0  0  0  0  0
   15.9277    4.5035   15.7113 C   0  0  0  0  0  0  0  0  0  0  0  0
   16.3300    2.7982   16.0150 S   0  0  0  0  0  0  0  0  0  0  0  0
   13.2164    4.1122   17.5725 H   0  0  0  0  0  0  0  0  0  0  0  0
   17.4896    2.4854   15.3770 H   0  0  0  0  0  0  0  0  0  0  0  0
  1  2  2  0  0  0
  1  6  1  0  0  0
  2  3  1  0  0  0
  3  7  2  0  0  0
  4  5  1  0  0  0
  4  6  2  0  0  0
  4  7  1  0  0  0
  7  8  1  0  0  0
  5  9  1  0  0  0
  8 10  1  0  0  0
M  CHG 1   4   1
M  END
> <minimizedAffinity>
-3.85650

$$$$
