1CBX_BZS_A_500


 17 17  0  0  0  0  0  0  0  0999 V2000
   -2.4594   30.1675   -7.9912 C   0  0  0  0  0  0  0  0  0  0  0  0
   -1.0022   29.5060   -8.1218 C   0  0  0  0  0  0  0  0  0  0  0  0
   -0.8430   28.3639   -8.7632 O   0  0  0  0  0  0  0  0  0  0  0  0
   -0.0635   30.0819   -7.4907 O   0  0  0  0  0  0  0  0  0  0  0  0
   -0.2240   30.8928   -7.0496 H   0  0  0  0  0  0  0  0  0  0  0  0
   -2.6909   30.6067   -6.5144 C   0  0  0  0  0  0  0  0  0  0  0  0
   -2.8698   29.3359   -5.7001 C   0  0  0  0  0  0  0  0  0  0  0  0
   -1.8472   28.9103   -5.2893 O   0  0  0  0  0  0  0  0  0  0  0  0
   -3.9322   28.7999   -5.4613 O   0  0  0  0  0  0  0  0  0  0  0  0
   -4.7266   29.1619   -5.8017 H   0  0  0  0  0  0  0  0  0  0  0  0
   -2.4242   31.4578   -8.8671 C   0  0  0  0  0  0  0  0  0  0  0  0
   -2.5312   30.8130  -10.2963 C   0  0  0  0  0  0  0  0  0  0  0  0
   -1.4181   30.8147  -11.1491 C   0  0  0  0  0  0  0  0  0  0  0  0
   -3.7563   30.3292  -10.8009 C   0  0  0  0  0  0  0  0  0  0  0  0
   -1.5928   30.3145  -12.4674 C   0  0  0  0  0  0  0  0  0  0  0  0
   -3.8814   29.8358  -12.0412 C   0  0  0  0  0  0  0  0  0  0  0  0
   -2.8137   29.8659  -12.8786 C   0  0  0  0  0  0  0  0  0  0  0  0
  7  6  1  0  0  0
  7  8  2  0  0  0
  7  9  1  0  0  0
  6  1  1  0  0  0
  1  2  1  0  0  0
  1 11  1  0  0  0
  2  3  2  0  0  0
  2  4  1  0  0  0
 11 12  1  0  0  0
 12 13  2  0  0  0
 12 14  1  0  0  0
 13 15  1  0  0  0
 14 16  2  0  0  0
 15 17  2  0  0  0
 16 17  1  0  0  0
  9 10  1  0  0  0
  4  5  1  0  0  0
M  END
> <minimizedAffinity>
-8.16189

$$$$
1CBX_BZS_A_500


 17 17  0  0  0  0  0  0  0  0999 V2000
   -2.4908   30.2452   -8.0674 C   0  0  0  0  0  0  0  0  0  0  0  0
   -1.0356   29.5778   -8.1902 C   0  0  0  0  0  0  0  0  0  0  0  0
   -0.8772   28.4362   -8.8326 O   0  0  0  0  0  0  0  0  0  0  0  0
   -0.0984   30.1487   -7.5523 O   0  0  0  0  0  0  0  0  0  0  0  0
   -0.2583   30.9595   -7.1108 H   0  0  0  0  0  0  0  0  0  0  0  0
   -2.7486   30.6395   -6.5823 C   0  0  0  0  0  0  0  0  0  0  0  0
   -2.8878   29.3436   -5.8005 C   0  0  0  0  0  0  0  0  0  0  0  0
   -1.8451   28.8924   -5.4769 O   0  0  0  0  0  0  0  0  0  0  0  0
   -3.9383   28.8117   -5.5060 O   0  0  0  0  0  0  0  0  0  0  0  0
   -4.7494   29.1943   -5.7777 H   0  0  0  0  0  0  0  0  0  0  0  0
   -2.4300   31.5620   -8.9013 C   0  0  0  0  0  0  0  0  0  0  0  0
   -2.5688   30.9673  -10.3494 C   0  0  0  0  0  0  0  0  0  0  0  0
   -3.7773   30.3809  -10.7514 C   0  0  0  0  0  0  0  0  0  0  0  0
   -1.4694   30.8989  -11.2306 C   0  0  0  0  0  0  0  0  0  0  0  0
   -3.8214   29.7650  -12.0311 C   0  0  0  0  0  0  0  0  0  0  0  0
   -1.5518   30.3363  -12.4447 C   0  0  0  0  0  0  0  0  0  0  0  0
   -2.7109   29.7402  -12.8230 C   0  0  0  0  0  0  0  0  0  0  0  0
  7  6  1  0  0  0
  7  8  2  0  0  0
  7  9  1  0  0  0
  6  1  1  0  0  0
  1  2  1  0  0  0
  1 11  1  0  0  0
  2  3  2  0  0  0
  2  4  1  0  0  0
 11 12  1  0  0  0
 12 13  2  0  0  0
 12 14  1  0  0  0
 13 15  1  0  0  0
 14 16  2  0  0  0
 15 17  2  0  0  0
 16 17  1  0  0  0
  9 10  1  0  0  0
  4  5  1  0  0  0
M  END
> <minimizedAffinity>
-8.14994

$$$$
1CBX_BZS_A_500


 17 17  0  0  0  0  0  0  0  0999 V2000
   -2.0654   29.0534  -12.9577 C   0  0  0  0  0  0  0  0  0  0  0  0
   -2.5969   28.0330  -14.0778 C   0  0  0  0  0  0  0  0  0  0  0  0
   -3.4543   27.0815  -13.7606 O   0  0  0  0  0  0  0  0  0  0  0  0
   -2.0675   28.1325  -15.2271 O   0  0  0  0  0  0  0  0  0  0  0  0
   -1.4633   28.8258  -15.4062 H   0  0  0  0  0  0  0  0  0  0  0  0
   -0.9038   29.9048  -13.5519 C   0  0  0  0  0  0  0  0  0  0  0  0
    0.3527   29.5339  -12.7813 C   0  0  0  0  0  0  0  0  0  0  0  0
    0.1384   29.3085  -11.6417 O   0  0  0  0  0  0  0  0  0  0  0  0
    1.4668   29.4498  -13.2555 O   0  0  0  0  0  0  0  0  0  0  0  0
    1.6047   29.6352  -14.1636 H   0  0  0  0  0  0  0  0  0  0  0  0
   -3.2535   30.0193  -12.6596 C   0  0  0  0  0  0  0  0  0  0  0  0
   -3.0224   30.2602  -11.1238 C   0  0  0  0  0  0  0  0  0  0  0  0
   -2.6736   31.5371  -10.6613 C   0  0  0  0  0  0  0  0  0  0  0  0
   -3.0414   29.1977  -10.1963 C   0  0  0  0  0  0  0  0  0  0  0  0
   -2.3737   31.6823   -9.2801 C   0  0  0  0  0  0  0  0  0  0  0  0
   -2.7822   29.3732   -8.8927 C   0  0  0  0  0  0  0  0  0  0  0  0
   -2.4133   30.6015   -8.4486 C   0  0  0  0  0  0  0  0  0  0  0  0
  7  6  1  0  0  0
  7  8  2  0  0  0
  7  9  1  0  0  0
  6  1  1  0  0  0
  1  2  1  0  0  0
  1 11  1  0  0  0
  2  3  2  0  0  0
  2  4  1  0  0  0
 11 12  1  0  0  0
 12 13  2  0  0  0
 12 14  1  0  0  0
 13 15  1  0  0  0
 14 16  2  0  0  0
 15 17  2  0  0  0
 16 17  1  0  0  0
  9 10  1  0  0  0
  4  5  1  0  0  0
M  END
> <minimizedAffinity>
-7.48733

$$$$
1CBX_BZS_A_500


 17 17  0  0  0  0  0  0  0  0999 V2000
   -2.2979   30.1040  -11.4046 C   0  0  0  0  0  0  0  0  0  0  0  0
   -3.4953   29.3905  -12.2016 C   0  0  0  0  0  0  0  0  0  0  0  0
   -4.4856   30.1066  -12.6991 O   0  0  0  0  0  0  0  0  0  0  0  0
   -3.4805   28.1214  -12.2226 O   0  0  0  0  0  0  0  0  0  0  0  0
   -2.7547   27.6552  -11.8567 H   0  0  0  0  0  0  0  0  0  0  0  0
   -1.3765   30.8429  -12.4207 C   0  0  0  0  0  0  0  0  0  0  0  0
   -0.3888   29.8149  -12.9476 C   0  0  0  0  0  0  0  0  0  0  0  0
   -0.3034   29.8272  -14.1258 O   0  0  0  0  0  0  0  0  0  0  0  0
    0.2713   29.0613  -12.2625 O   0  0  0  0  0  0  0  0  0  0  0  0
    0.1809   29.0755  -11.3299 H   0  0  0  0  0  0  0  0  0  0  0  0
   -2.9683   31.1857  -10.5027 C   0  0  0  0  0  0  0  0  0  0  0  0
   -2.4786   30.6972   -9.0914 C   0  0  0  0  0  0  0  0  0  0  0  0
   -1.4866   29.7105   -8.9987 C   0  0  0  0  0  0  0  0  0  0  0  0
   -3.0916   31.1397   -7.9006 C   0  0  0  0  0  0  0  0  0  0  0  0
   -1.1515   29.2275   -7.7052 C   0  0  0  0  0  0  0  0  0  0  0  0
   -2.7318   30.6851   -6.6918 C   0  0  0  0  0  0  0  0  0  0  0  0
   -1.7947   29.7074   -6.6020 C   0  0  0  0  0  0  0  0  0  0  0  0
  7  6  1  0  0  0
  7  8  2  0  0  0
  7  9  1  0  0  0
  6  1  1  0  0  0
  1  2  1  0  0  0
  1 11  1  0  0  0
  2  3  2  0  0  0
  2  4  1  0  0  0
 11 12  1  0  0  0
 12 13  2  0  0  0
 12 14  1  0  0  0
 13 15  1  0  0  0
 14 16  2  0  0  0
 15 17  2  0  0  0
 16 17  1  0  0  0
  9 10  1  0  0  0
  4  5  1  0  0  0
M  END
> <minimizedAffinity>
-6.93008

$$$$
1CBX_BZS_A_500


 17 17  0  0  0  0  0  0  0  0999 V2000
   -2.7519   30.1688  -10.0504 C   0  0  0  0  0  0  0  0  0  0  0  0
   -3.1532   31.3699   -9.0632 C   0  0  0  0  0  0  0  0  0  0  0  0
   -2.3477   31.7222   -8.0792 O   0  0  0  0  0  0  0  0  0  0  0  0
   -4.3106   31.8664   -9.2214 O   0  0  0  0  0  0  0  0  0  0  0  0
   -4.8475   31.5848   -9.9359 H   0  0  0  0  0  0  0  0  0  0  0  0
   -2.9060   28.8142   -9.2962 C   0  0  0  0  0  0  0  0  0  0  0  0
   -1.8295   28.7825   -8.2237 C   0  0  0  0  0  0  0  0  0  0  0  0
   -0.7377   28.7627   -8.6744 O   0  0  0  0  0  0  0  0  0  0  0  0
   -2.0316   28.7946   -7.0270 O   0  0  0  0  0  0  0  0  0  0  0  0
   -2.9096   28.8102   -6.7002 H   0  0  0  0  0  0  0  0  0  0  0  0
   -3.8045   30.1903  -11.2013 C   0  0  0  0  0  0  0  0  0  0  0  0
   -2.8842   29.7935  -12.4119 C   0  0  0  0  0  0  0  0  0  0  0  0
   -3.3007   28.8011  -13.3107 C   0  0  0  0  0  0  0  0  0  0  0  0
   -1.5868   30.3262  -12.5618 C   0  0  0  0  0  0  0  0  0  0  0  0
   -2.3909   28.4039  -14.3271 C   0  0  0  0  0  0  0  0  0  0  0  0
   -0.7625   29.9511  -13.5504 C   0  0  0  0  0  0  0  0  0  0  0  0
   -1.1512   28.9683  -14.4020 C   0  0  0  0  0  0  0  0  0  0  0  0
  7  6  1  0  0  0
  7  8  2  0  0  0
  7  9  1  0  0  0
  6  1  1  0  0  0
  1  2  1  0  0  0
  1 11  1  0  0  0
  2  3  2  0  0  0
  2  4  1  0  0  0
 11 12  1  0  0  0
 12 13  2  0  0  0
 12 14  1  0  0  0
 13 15  1  0  0  0
 14 16  2  0  0  0
 15 17  2  0  0  0
 16 17  1  0  0  0
  9 10  1  0  0  0
  4  5  1  0  0  0
M  END
> <minimizedAffinity>
-6.80044

$$$$
1CBX_BZS_A_500


 17 17  0  0  0  0  0  0  0  0999 V2000
   -1.2842   29.7159  -13.6316 C   0  0  0  0  0  0  0  0  0  0  0  0
   -0.2888   30.4272  -14.6714 C   0  0  0  0  0  0  0  0  0  0  0  0
    0.2527   29.7358  -15.6563 O   0  0  0  0  0  0  0  0  0  0  0  0
    0.0180   31.6335  -14.4224 O   0  0  0  0  0  0  0  0  0  0  0  0
   -0.3935   32.0844  -13.7115 H   0  0  0  0  0  0  0  0  0  0  0  0
   -1.6850   28.3153  -14.1841 C   0  0  0  0  0  0  0  0  0  0  0  0
   -3.0844   28.0225  -13.6683 C   0  0  0  0  0  0  0  0  0  0  0  0
   -3.8890   28.7855  -14.0755 O   0  0  0  0  0  0  0  0  0  0  0  0
   -3.3827   27.1037  -12.9334 O   0  0  0  0  0  0  0  0  0  0  0  0
   -2.7213   26.5150  -12.6270 H   0  0  0  0  0  0  0  0  0  0  0  0
   -0.4545   29.4898  -12.3302 C   0  0  0  0  0  0  0  0  0  0  0  0
   -1.3449   30.2813  -11.3052 C   0  0  0  0  0  0  0  0  0  0  0  0
   -0.9524   30.3717   -9.9621 C   0  0  0  0  0  0  0  0  0  0  0  0
   -2.5995   30.8130  -11.6700 C   0  0  0  0  0  0  0  0  0  0  0  0
   -1.8406   31.0076   -9.0538 C   0  0  0  0  0  0  0  0  0  0  0  0
   -3.4023   31.4340  -10.7940 C   0  0  0  0  0  0  0  0  0  0  0  0
   -3.0389   31.4945   -9.4877 C   0  0  0  0  0  0  0  0  0  0  0  0
  7  6  1  0  0  0
  7  8  2  0  0  0
  7  9  1  0  0  0
  6  1  1  0  0  0
  1  2  1  0  0  0
  1 11  1  0  0  0
  2  3  2  0  0  0
  2  4  1  0  0  0
 11 12  1  0  0  0
 12 13  2  0  0  0
 12 14  1  0  0  0
 13 15  1  0  0  0
 14 16  2  0  0  0
 15 17  2  0  0  0
 16 17  1  0  0  0
  9 10  1  0  0  0
  4  5  1  0  0  0
M  END
> <minimizedAffinity>
-6.77900

$$$$
1CBX_BZS_A_500


 17 17  0  0  0  0  0  0  0  0999 V2000
   -2.5920   31.0789   -8.0623 C   0  0  0  0  0  0  0  0  0  0  0  0
   -3.0867   31.3884   -6.5663 C   0  0  0  0  0  0  0  0  0  0  0  0
   -2.2748   31.2019   -5.5431 O   0  0  0  0  0  0  0  0  0  0  0  0
   -4.3078   31.7079   -6.4316 O   0  0  0  0  0  0  0  0  0  0  0  0
   -4.8464   31.8298   -7.1885 H   0  0  0  0  0  0  0  0  0  0  0  0
   -2.4112   29.5409   -8.2329 C   0  0  0  0  0  0  0  0  0  0  0  0
   -0.9216   29.2583   -8.1272 C   0  0  0  0  0  0  0  0  0  0  0  0
   -0.5628   28.4189   -8.8770 O   0  0  0  0  0  0  0  0  0  0  0  0
   -0.1515   29.8260   -7.3804 O   0  0  0  0  0  0  0  0  0  0  0  0
   -0.4668   30.4878   -6.7969 H   0  0  0  0  0  0  0  0  0  0  0  0
   -3.7569   31.5238   -8.9994 C   0  0  0  0  0  0  0  0  0  0  0  0
   -3.1851   31.0432  -10.3822 C   0  0  0  0  0  0  0  0  0  0  0  0
   -3.9615   30.2221  -11.2124 C   0  0  0  0  0  0  0  0  0  0  0  0
   -1.8573   31.3183  -10.7706 C   0  0  0  0  0  0  0  0  0  0  0  0
   -3.3631   29.7290  -12.4030 C   0  0  0  0  0  0  0  0  0  0  0  0
   -1.3312   30.8617  -11.9161 C   0  0  0  0  0  0  0  0  0  0  0  0
   -2.0699   30.0409  -12.7052 C   0  0  0  0  0  0  0  0  0  0  0  0
  7  6  1  0  0  0
  7  8  2  0  0  0
  7  9  1  0  0  0
  6  1  1  0  0  0
  1  2  1  0  0  0
  1 11  1  0  0  0
  2  3  2  0  0  0
  2  4  1  0  0  0
 11 12  1  0  0  0
 12 13  2  0  0  0
 12 14  1  0  0  0
 13 15  1  0  0  0
 14 16  2  0  0  0
 15 17  2  0  0  0
 16 17  1  0  0  0
  9 10  1  0  0  0
  4  5  1  0  0  0
M  END
> <minimizedAffinity>
-6.55917

$$$$
1CBX_BZS_A_500


 17 17  0  0  0  0  0  0  0  0999 V2000
   -2.2199   30.4544  -10.0700 C   0  0  0  0  0  0  0  0  0  0  0  0
   -3.4442   29.5538  -10.5877 C   0  0  0  0  0  0  0  0  0  0  0  0
   -3.3879   28.2383  -10.5017 O   0  0  0  0  0  0  0  0  0  0  0  0
   -4.3906   30.1695  -11.1677 O   0  0  0  0  0  0  0  0  0  0  0  0
   -4.3878   31.1058  -11.2037 H   0  0  0  0  0  0  0  0  0  0  0  0
   -1.5530   31.1596  -11.2887 C   0  0  0  0  0  0  0  0  0  0  0  0
   -0.9433   30.0662  -12.1506 C   0  0  0  0  0  0  0  0  0  0  0  0
   -0.1115   29.4489  -11.5826 O   0  0  0  0  0  0  0  0  0  0  0  0
   -1.2640   29.8138  -13.2936 O   0  0  0  0  0  0  0  0  0  0  0  0
   -1.9276   30.3219  -13.7171 H   0  0  0  0  0  0  0  0  0  0  0  0
   -2.8524   31.5621   -9.1722 C   0  0  0  0  0  0  0  0  0  0  0  0
   -2.6964   30.8845   -7.7627 C   0  0  0  0  0  0  0  0  0  0  0  0
   -3.3181   31.4521   -6.6414 C   0  0  0  0  0  0  0  0  0  0  0  0
   -1.8473   29.7757   -7.5639 C   0  0  0  0  0  0  0  0  0  0  0  0
   -3.0631   30.8636   -5.3737 C   0  0  0  0  0  0  0  0  0  0  0  0
   -1.6505   29.2248   -6.3575 C   0  0  0  0  0  0  0  0  0  0  0  0
   -2.2258   29.7919   -5.2669 C   0  0  0  0  0  0  0  0  0  0  0  0
  7  6  1  0  0  0
  7  8  2  0  0  0
  7  9  1  0  0  0
  6  1  1  0  0  0
  1  2  1  0  0  0
  1 11  1  0  0  0
  2  3  2  0  0  0
  2  4  1  0  0  0
 11 12  1  0  0  0
 12 13  2  0  0  0
 12 14  1  0  0  0
 13 15  1  0  0  0
 14 16  2  0  0  0
 15 17  2  0  0  0
 16 17  1  0  0  0
  9 10  1  0  0  0
  4  5  1  0  0  0
M  END
> <minimizedAffinity>
-6.49352

$$$$
1CBX_BZS_A_500


 17 17  0  0  0  0  0  0  0  0999 V2000
   -3.0213   30.4565   -6.5183 C   0  0  0  0  0  0  0  0  0  0  0  0
   -3.0470   29.2736   -5.4328 C   0  0  0  0  0  0  0  0  0  0  0  0
   -1.9271   28.8578   -4.8725 O   0  0  0  0  0  0  0  0  0  0  0  0
   -4.1679   28.7100   -5.2402 O   0  0  0  0  0  0  0  0  0  0  0  0
   -4.9372   29.0413   -5.6602 H   0  0  0  0  0  0  0  0  0  0  0  0
   -2.7623   31.8106   -5.7926 C   0  0  0  0  0  0  0  0  0  0  0  0
   -3.8087   31.9301   -4.6968 C   0  0  0  0  0  0  0  0  0  0  0  0
   -3.3344   32.1317   -3.6338 O   0  0  0  0  0  0  0  0  0  0  0  0
   -5.0086   31.8516   -4.8616 O   0  0  0  0  0  0  0  0  0  0  0  0
   -5.3545   31.6907   -5.7174 H   0  0  0  0  0  0  0  0  0  0  0  0
   -1.7923   30.1701   -7.4351 C   0  0  0  0  0  0  0  0  0  0  0  0
   -2.4819   30.2677   -8.8440 C   0  0  0  0  0  0  0  0  0  0  0  0
   -2.9874   29.1121   -9.4565 C   0  0  0  0  0  0  0  0  0  0  0  0
   -2.5076   31.4744   -9.5740 C   0  0  0  0  0  0  0  0  0  0  0  0
   -3.5076   29.2337  -10.7730 C   0  0  0  0  0  0  0  0  0  0  0  0
   -3.0329   31.5623  -10.8044 C   0  0  0  0  0  0  0  0  0  0  0  0
   -3.4935   30.4391  -11.4114 C   0  0  0  0  0  0  0  0  0  0  0  0
  7  6  1  0  0  0
  7  8  2  0  0  0
  7  9  1  0  0  0
  6  1  1  0  0  0
  1  2  1  0  0  0
  1 11  1  0  0  0
  2  3  2  0  0  0
  2  4  1  0  0  0
 11 12  1  0  0  0
 12 13  2  0  0  0
 12 14  1  0  0  0
 13 15  1  0  0  0
 14 16  2  0  0  0
 15 17  2  0  0  0
 16 17  1  0  0  0
  9 10  1  0  0  0
  4  5  1  0  0  0
M  END
> <minimizedAffinity>
-6.37978

$$$$
1CBX_BZS_A_500


 17 17  0  0  0  0  0  0  0  0999 V2000
   -2.8076   30.7307   -4.5108 C   0  0  0  0  0  0  0  0  0  0  0  0
   -4.2066   31.3963   -4.0889 C   0  0  0  0  0  0  0  0  0  0  0  0
   -4.7687   32.3108   -4.8563 O   0  0  0  0  0  0  0  0  0  0  0  0
   -4.6631   31.0734   -2.9494 O   0  0  0  0  0  0  0  0  0  0  0  0
   -4.2295   30.4177   -2.4396 H   0  0  0  0  0  0  0  0  0  0  0  0
   -2.0963   30.1851   -3.2366 C   0  0  0  0  0  0  0  0  0  0  0  0
   -0.7550   30.8937   -3.1436 C   0  0  0  0  0  0  0  0  0  0  0  0
   -0.6987   31.8544   -3.8287 O   0  0  0  0  0  0  0  0  0  0  0  0
    0.1721   30.5502   -2.4395 O   0  0  0  0  0  0  0  0  0  0  0  0
    0.0968   29.7829   -1.9070 H   0  0  0  0  0  0  0  0  0  0  0  0
   -3.1687   29.5080   -5.4096 C   0  0  0  0  0  0  0  0  0  0  0  0
   -2.4960   29.9592   -6.7564 C   0  0  0  0  0  0  0  0  0  0  0  0
   -3.0159   31.0511   -7.4660 C   0  0  0  0  0  0  0  0  0  0  0  0
   -1.4449   29.2232   -7.3424 C   0  0  0  0  0  0  0  0  0  0  0  0
   -2.4394   31.3559   -8.7283 C   0  0  0  0  0  0  0  0  0  0  0  0
   -0.9025   29.5547   -8.5227 C   0  0  0  0  0  0  0  0  0  0  0  0
   -1.4250   30.5915   -9.2258 C   0  0  0  0  0  0  0  0  0  0  0  0
  7  6  1  0  0  0
  7  8  2  0  0  0
  7  9  1  0  0  0
  6  1  1  0  0  0
  1  2  1  0  0  0
  1 11  1  0  0  0
  2  3  2  0  0  0
  2  4  1  0  0  0
 11 12  1  0  0  0
 12 13  2  0  0  0
 12 14  1  0  0  0
 13 15  1  0  0  0
 14 16  2  0  0  0
 15 17  2  0  0  0
 16 17  1  0  0  0
  9 10  1  0  0  0
  4  5  1  0  0  0
M  END
> <minimizedAffinity>
-6.22116

$$$$
