5Y8Y_8PX_A_206


 26 28  0  0  0  0  0  0  0  0999 V2000
   10.5692    6.8874    1.6763 N   0  0  0  0  0  0  0  0  0  0  0  0
   10.5923    6.0233    2.1475 H   0  0  0  0  0  0  0  0  0  0  0  0
   11.1273    6.6176   -0.5906 C   0  0  0  0  0  0  0  0  0  0  0  0
   10.7653    6.7016   -1.9414 C   0  0  0  0  0  0  0  0  0  0  0  0
    9.5426    7.0560   -2.3209 C   0  0  0  0  0  0  0  0  0  0  0  0
    9.0519    7.1831   -3.5578 O   0  0  0  0  0  0  0  0  0  0  0  0
    7.6438    7.5606   -3.3640 N   0  0  0  0  0  0  0  0  0  0  0  0
    7.4679    7.6419   -2.0603 C   0  0  0  0  0  0  0  0  0  0  0  0
    6.1425    8.0360   -1.5200 C   0  0  0  0  0  0  0  0  0  0  0  0
    8.5783    7.3446   -1.3948 C   0  0  0  0  0  0  0  0  0  0  0  0
    8.8760    7.2578   -0.0810 C   0  0  0  0  0  0  0  0  0  0  0  0
   10.1576    6.9019    0.3630 C   0  0  0  0  0  0  0  0  0  0  0  0
   13.5553    6.6820   -0.8662 C   0  0  0  0  0  0  0  0  0  0  0  0
   12.3866    6.2727   -0.1200 O   0  0  0  0  0  0  0  0  0  0  0  0
   11.0329    8.2600    2.5158 S   0  0  0  0  0  0  0  0  0  0  0  0
    9.9222    9.2529    2.5984 O   0  0  0  0  0  0  0  0  0  0  0  0
   12.3738    8.7562    1.9507 O   0  0  0  0  0  0  0  0  0  0  0  0
   11.4311    7.5923    4.1399 C   0  0  0  0  0  0  0  0  0  0  0  0
   12.7082    7.8381    4.6228 C   0  0  0  0  0  0  0  0  0  0  0  0
   13.1169    7.3645    5.8519 C   0  0  0  0  0  0  0  0  0  0  0  0
   14.8766    7.7853    6.3285 Br  0  0  0  0  0  0  0  0  0  0  0  0
   12.2231    6.6769    6.6405 C   0  0  0  0  0  0  0  0  0  0  0  0
   10.9248    6.4248    6.1924 C   0  0  0  0  0  0  0  0  0  0  0  0
   10.5041    6.8798    4.9369 C   0  0  0  0  0  0  0  0  0  0  0  0
    9.2134    6.6551    4.4040 O   0  0  0  0  0  0  0  0  0  0  0  0
    8.6203    5.4117    4.4844 C   0  0  0  0  0  0  0  0  0  0  0  0
  9  8  1  0  0  0
  8  7  2  0  0  0
  8 10  1  0  0  0
  7  6  1  0  0  0
 10 11  2  0  0  0
 10  5  1  0  0  0
  6  5  1  0  0  0
 11 12  1  0  0  0
  5  4  2  0  0  0
 16 15  2  0  0  0
 12  1  1  0  0  0
 12  3  2  0  0  0
  4  3  1  0  0  0
  1 15  1  0  0  0
  3 14  1  0  0  0
 15 17  2  0  0  0
 15 18  1  0  0  0
 14 13  1  0  0  0
 18 19  1  0  0  0
 18 24  2  0  0  0
 19 20  2  0  0  0
 25 24  1  0  0  0
 25 26  1  0  0  0
 24 23  1  0  0  0
 20 21  1  0  0  0
 20 22  1  0  0  0
 23 22  2  0  0  0
  1  2  1  0  0  0
M  END
> <minimizedAffinity>
-6.81840

$$$$
5Y8Y_8PX_A_206


 26 28  0  0  0  0  0  0  0  0999 V2000
   10.1328    6.8416    0.8187 N   0  0  0  0  0  0  0  0  0  0  0  0
   10.0773    5.9621    1.2577 H   0  0  0  0  0  0  0  0  0  0  0  0
   10.1303    6.7398   -1.5292 C   0  0  0  0  0  0  0  0  0  0  0  0
    9.4874    6.9926   -2.7480 C   0  0  0  0  0  0  0  0  0  0  0  0
    8.2635    7.5059   -2.8040 C   0  0  0  0  0  0  0  0  0  0  0  0
    7.5269    7.8034   -3.8791 O   0  0  0  0  0  0  0  0  0  0  0  0
    6.2552    8.3022   -3.3342 N   0  0  0  0  0  0  0  0  0  0  0  0
    6.3878    8.2728   -2.0232 C   0  0  0  0  0  0  0  0  0  0  0  0
    5.2760    8.7457   -1.1606 C   0  0  0  0  0  0  0  0  0  0  0  0
    7.5744    7.7995   -1.6595 C   0  0  0  0  0  0  0  0  0  0  0  0
    8.1466    7.5541   -0.4617 C   0  0  0  0  0  0  0  0  0  0  0  0
    9.4417    7.0269   -0.3571 C   0  0  0  0  0  0  0  0  0  0  0  0
   11.6461    4.8294   -1.6962 C   0  0  0  0  0  0  0  0  0  0  0  0
   11.4112    6.2233   -1.3927 O   0  0  0  0  0  0  0  0  0  0  0  0
   11.0626    8.0310    1.5428 S   0  0  0  0  0  0  0  0  0  0  0  0
   10.5201    9.3936    1.2679 O   0  0  0  0  0  0  0  0  0  0  0  0
   12.5399    7.7835    1.1965 O   0  0  0  0  0  0  0  0  0  0  0  0
   10.9175    7.6128    3.2882 C   0  0  0  0  0  0  0  0  0  0  0  0
   10.0363    6.5931    3.6172 C   0  0  0  0  0  0  0  0  0  0  0  0
    9.8451    6.2008    4.9256 C   0  0  0  0  0  0  0  0  0  0  0  0
    8.6091    4.8187    5.1755 Br  0  0  0  0  0  0  0  0  0  0  0  0
   10.5820    6.7976    5.9227 C   0  0  0  0  0  0  0  0  0  0  0  0
   11.4893    7.8166    5.6257 C   0  0  0  0  0  0  0  0  0  0  0  0
   11.6760    8.2406    4.3044 C   0  0  0  0  0  0  0  0  0  0  0  0
   12.5632    9.2734    3.9212 O   0  0  0  0  0  0  0  0  0  0  0  0
   13.9232    9.1488    4.1191 C   0  0  0  0  0  0  0  0  0  0  0  0
  9  8  1  0  0  0
  8  7  2  0  0  0
  8 10  1  0  0  0
  7  6  1  0  0  0
 10 11  2  0  0  0
 10  5  1  0  0  0
  6  5  1  0  0  0
 11 12  1  0  0  0
  5  4  2  0  0  0
 16 15  2  0  0  0
 12  1  1  0  0  0
 12  3  2  0  0  0
  4  3  1  0  0  0
  1 15  1  0  0  0
  3 14  1  0  0  0
 15 17  2  0  0  0
 15 18  1  0  0  0
 14 13  1  0  0  0
 18 19  1  0  0  0
 18 24  2  0  0  0
 19 20  2  0  0  0
 25 24  1  0  0  0
 25 26  1  0  0  0
 24 23  1  0  0  0
 20 21  1  0  0  0
 20 22  1  0  0  0
 23 22  2  0  0  0
  1  2  1  0  0  0
M  END
> <minimizedAffinity>
-6.79077

$$$$
5Y8Y_8PX_A_206


 26 28  0  0  0  0  0  0  0  0999 V2000
   10.7872    8.7121    1.0809 N   0  0  0  0  0  0  0  0  0  0  0  0
   11.0309    9.6577    0.9550 H   0  0  0  0  0  0  0  0  0  0  0  0
   12.9621    7.8983    1.4418 C   0  0  0  0  0  0  0  0  0  0  0  0
   13.9785    6.9877    1.1250 C   0  0  0  0  0  0  0  0  0  0  0  0
   13.8013    6.0180    0.2346 C   0  0  0  0  0  0  0  0  0  0  0  0
   14.6668    5.0841   -0.1722 O   0  0  0  0  0  0  0  0  0  0  0  0
   13.9107    4.2675   -1.1337 N   0  0  0  0  0  0  0  0  0  0  0  0
   12.7142    4.8150   -1.2100 C   0  0  0  0  0  0  0  0  0  0  0  0
   11.6996    4.2404   -2.1288 C   0  0  0  0  0  0  0  0  0  0  0  0
   12.6017    5.8653   -0.4046 C   0  0  0  0  0  0  0  0  0  0  0  0
   11.5869    6.7074   -0.1165 C   0  0  0  0  0  0  0  0  0  0  0  0
   11.7355    7.7533    0.8056 C   0  0  0  0  0  0  0  0  0  0  0  0
   13.9321    8.7868    3.5021 C   0  0  0  0  0  0  0  0  0  0  0  0
   13.0793    8.9451    2.3455 O   0  0  0  0  0  0  0  0  0  0  0  0
    9.2415    8.3574    1.6182 S   0  0  0  0  0  0  0  0  0  0  0  0
    8.6261    7.2529    0.8258 O   0  0  0  0  0  0  0  0  0  0  0  0
    8.4437    9.6668    1.7295 O   0  0  0  0  0  0  0  0  0  0  0  0
    9.5410    7.8490    3.3195 C   0  0  0  0  0  0  0  0  0  0  0  0
    9.1112    6.5799    3.6793 C   0  0  0  0  0  0  0  0  0  0  0  0
    9.2848    6.0969    4.9594 C   0  0  0  0  0  0  0  0  0  0  0  0
    8.6302    4.3701    5.2602 Br  0  0  0  0  0  0  0  0  0  0  0  0
    9.9447    6.8692    5.8875 C   0  0  0  0  0  0  0  0  0  0  0  0
   10.4044    8.1453    5.5552 C   0  0  0  0  0  0  0  0  0  0  0  0
   10.2141    8.6571    4.2660 C   0  0  0  0  0  0  0  0  0  0  0  0
   10.6358    9.9425    3.8531 O   0  0  0  0  0  0  0  0  0  0  0  0
   10.8402   10.9505    4.7732 C   0  0  0  0  0  0  0  0  0  0  0  0
  9  8  1  0  0  0
  8  7  2  0  0  0
  8 10  1  0  0  0
  7  6  1  0  0  0
 10 11  2  0  0  0
 10  5  1  0  0  0
  6  5  1  0  0  0
 11 12  1  0  0  0
  5  4  2  0  0  0
 16 15  2  0  0  0
 12  1  1  0  0  0
 12  3  2  0  0  0
  4  3  1  0  0  0
  1 15  1  0  0  0
  3 14  1  0  0  0
 15 17  2  0  0  0
 15 18  1  0  0  0
 14 13  1  0  0  0
 18 19  1  0  0  0
 18 24  2  0  0  0
 19 20  2  0  0  0
 25 24  1  0  0  0
 25 26  1  0  0  0
 24 23  1  0  0  0
 20 21  1  0  0  0
 20 22  1  0  0  0
 23 22  2  0  0  0
  1  2  1  0  0  0
M  END
> <minimizedAffinity>
-6.74800

$$$$
5Y8Y_8PX_A_206


 26 28  0  0  0  0  0  0  0  0999 V2000
   10.9255    8.2602    1.0951 N   0  0  0  0  0  0  0  0  0  0  0  0
   10.9591    9.1952    0.7886 H   0  0  0  0  0  0  0  0  0  0  0  0
   13.1723    7.5956    1.2769 C   0  0  0  0  0  0  0  0  0  0  0  0
   14.2353    6.7985    0.8326 C   0  0  0  0  0  0  0  0  0  0  0  0
   14.0825    5.8950   -0.1292 C   0  0  0  0  0  0  0  0  0  0  0  0
   14.9920    5.0703   -0.6576 O   0  0  0  0  0  0  0  0  0  0  0  0
   14.2474    4.2785   -1.6484 N   0  0  0  0  0  0  0  0  0  0  0  0
   13.0106    4.7331   -1.6181 C   0  0  0  0  0  0  0  0  0  0  0  0
   11.9927    4.1575   -2.5325 C   0  0  0  0  0  0  0  0  0  0  0  0
   12.8642    5.7006   -0.7197 C   0  0  0  0  0  0  0  0  0  0  0  0
   11.8063    6.4321   -0.3100 C   0  0  0  0  0  0  0  0  0  0  0  0
   11.9266    7.4063    0.6913 C   0  0  0  0  0  0  0  0  0  0  0  0
   13.4922    8.1697    3.6312 C   0  0  0  0  0  0  0  0  0  0  0  0
   13.2602    8.5697    2.2614 O   0  0  0  0  0  0  0  0  0  0  0  0
    9.6535    7.7947    2.0795 S   0  0  0  0  0  0  0  0  0  0  0  0
   10.1394    7.2356    3.3748 O   0  0  0  0  0  0  0  0  0  0  0  0
    8.6871    6.9236    1.2605 O   0  0  0  0  0  0  0  0  0  0  0  0
    8.7806    9.3498    2.3286 C   0  0  0  0  0  0  0  0  0  0  0  0
    7.3970    9.3142    2.2334 C   0  0  0  0  0  0  0  0  0  0  0  0
    6.6342   10.4512    2.3994 C   0  0  0  0  0  0  0  0  0  0  0  0
    4.7872   10.2103    2.2229 Br  0  0  0  0  0  0  0  0  0  0  0  0
    7.2538   11.6380    2.7175 C   0  0  0  0  0  0  0  0  0  0  0  0
    8.6435   11.7068    2.8364 C   0  0  0  0  0  0  0  0  0  0  0  0
    9.4315   10.5650    2.6474 C   0  0  0  0  0  0  0  0  0  0  0  0
   10.8430   10.5525    2.7360 O   0  0  0  0  0  0  0  0  0  0  0  0
   11.5155   11.5100    3.4677 C   0  0  0  0  0  0  0  0  0  0  0  0
  9  8  1  0  0  0
  8  7  2  0  0  0
  8 10  1  0  0  0
  7  6  1  0  0  0
 10 11  2  0  0  0
 10  5  1  0  0  0
  6  5  1  0  0  0
 11 12  1  0  0  0
  5  4  2  0  0  0
 16 15  2  0  0  0
 12  1  1  0  0  0
 12  3  2  0  0  0
  4  3  1  0  0  0
  1 15  1  0  0  0
  3 14  1  0  0  0
 15 17  2  0  0  0
 15 18  1  0  0  0
 14 13  1  0  0  0
 18 19  1  0  0  0
 18 24  2  0  0  0
 19 20  2  0  0  0
 25 24  1  0  0  0
 25 26  1  0  0  0
 24 23  1  0  0  0
 20 21  1  0  0  0
 20 22  1  0  0  0
 23 22  2  0  0  0
  1  2  1  0  0  0
M  END
> <minimizedAffinity>
-6.56134

$$$$
5Y8Y_8PX_A_206


 26 28  0  0  0  0  0  0  0  0999 V2000
   12.0693    8.4140    0.8486 N   0  0  0  0  0  0  0  0  0  0  0  0
   11.8855    9.2991    0.4586 H   0  0  0  0  0  0  0  0  0  0  0  0
   10.8898    6.8825   -0.4878 C   0  0  0  0  0  0  0  0  0  0  0  0
   10.8831    5.7300   -1.2844 C   0  0  0  0  0  0  0  0  0  0  0  0
   11.9959    5.0584   -1.5584 C   0  0  0  0  0  0  0  0  0  0  0  0
   12.1486    3.9517   -2.2925 O   0  0  0  0  0  0  0  0  0  0  0  0
   13.5956    3.6893   -2.2760 N   0  0  0  0  0  0  0  0  0  0  0  0
   14.1254    4.6340   -1.5250 C   0  0  0  0  0  0  0  0  0  0  0  0
   15.5890    4.6426   -1.2772 C   0  0  0  0  0  0  0  0  0  0  0  0
   13.2045    5.4794   -1.0758 C   0  0  0  0  0  0  0  0  0  0  0  0
   13.2621    6.5964   -0.3200 C   0  0  0  0  0  0  0  0  0  0  0  0
   12.1103    7.3269    0.0054 C   0  0  0  0  0  0  0  0  0  0  0  0
    8.4853    7.2645   -0.7067 C   0  0  0  0  0  0  0  0  0  0  0  0
    9.7680    7.6241   -0.1448 O   0  0  0  0  0  0  0  0  0  0  0  0
   12.3154    8.3126    2.5017 S   0  0  0  0  0  0  0  0  0  0  0  0
   12.9537    9.5503    3.0375 O   0  0  0  0  0  0  0  0  0  0  0  0
   13.0065    6.9762    2.8180 O   0  0  0  0  0  0  0  0  0  0  0  0
   10.6354    8.1258    3.1224 C   0  0  0  0  0  0  0  0  0  0  0  0
   10.3809    7.0187    3.9187 C   0  0  0  0  0  0  0  0  0  0  0  0
    9.1261    6.7784    4.4381 C   0  0  0  0  0  0  0  0  0  0  0  0
    8.9717    5.2306    5.4778 Br  0  0  0  0  0  0  0  0  0  0  0  0
    8.1155    7.6829    4.2049 C   0  0  0  0  0  0  0  0  0  0  0  0
    8.3405    8.8161    3.4206 C   0  0  0  0  0  0  0  0  0  0  0  0
    9.6036    9.0600    2.8679 C   0  0  0  0  0  0  0  0  0  0  0  0
    9.9104   10.1742    2.0526 O   0  0  0  0  0  0  0  0  0  0  0  0
    9.9759   11.4455    2.5855 C   0  0  0  0  0  0  0  0  0  0  0  0
  9  8  1  0  0  0
  8  7  2  0  0  0
  8 10  1  0  0  0
  7  6  1  0  0  0
 10 11  2  0  0  0
 10  5  1  0  0  0
  6  5  1  0  0  0
 11 12  1  0  0  0
  5  4  2  0  0  0
 16 15  2  0  0  0
 12  1  1  0  0  0
 12  3  2  0  0  0
  4  3  1  0  0  0
  1 15  1  0  0  0
  3 14  1  0  0  0
 15 17  2  0  0  0
 15 18  1  0  0  0
 14 13  1  0  0  0
 18 19  1  0  0  0
 18 24  2  0  0  0
 19 20  2  0  0  0
 25 24  1  0  0  0
 25 26  1  0  0  0
 24 23  1  0  0  0
 20 21  1  0  0  0
 20 22  1  0  0  0
 23 22  2  0  0  0
  1  2  1  0  0  0
M  END
> <minimizedAffinity>
-6.52329

$$$$
5Y8Y_8PX_A_206


 26 28  0  0  0  0  0  0  0  0999 V2000
   13.3900    7.2311    2.5304 N   0  0  0  0  0  0  0  0  0  0  0  0
   13.9884    6.4775    2.7386 H   0  0  0  0  0  0  0  0  0  0  0  0
   12.8349    6.4233    0.3944 C   0  0  0  0  0  0  0  0  0  0  0  0
   11.9013    6.2928   -0.6420 C   0  0  0  0  0  0  0  0  0  0  0  0
   10.6626    6.7605   -0.5354 C   0  0  0  0  0  0  0  0  0  0  0  0
    9.6692    6.7157   -1.4287 O   0  0  0  0  0  0  0  0  0  0  0  0
    8.5289    7.3513   -0.7514 N   0  0  0  0  0  0  0  0  0  0  0  0
    8.9728    7.7207    0.4334 C   0  0  0  0  0  0  0  0  0  0  0  0
    8.0652    8.4282    1.3712 C   0  0  0  0  0  0  0  0  0  0  0  0
   10.2458    7.3842    0.6084 C   0  0  0  0  0  0  0  0  0  0  0  0
   11.1052    7.5150    1.6411 C   0  0  0  0  0  0  0  0  0  0  0  0
   12.4256    7.0492    1.5654 C   0  0  0  0  0  0  0  0  0  0  0  0
   14.5486    5.0682   -0.7018 C   0  0  0  0  0  0  0  0  0  0  0  0
   14.1483    5.9772    0.3487 O   0  0  0  0  0  0  0  0  0  0  0  0
   13.6006    8.6648    3.3694 S   0  0  0  0  0  0  0  0  0  0  0  0
   12.4434    9.5870    3.1772 O   0  0  0  0  0  0  0  0  0  0  0  0
   14.9985    9.2217    3.0543 O   0  0  0  0  0  0  0  0  0  0  0  0
   13.7009    8.0931    5.0740 C   0  0  0  0  0  0  0  0  0  0  0  0
   14.7931    8.5205    5.8151 C   0  0  0  0  0  0  0  0  0  0  0  0
   14.9686    8.1338    7.1273 C   0  0  0  0  0  0  0  0  0  0  0  0
   16.5057    8.7998    7.9605 Br  0  0  0  0  0  0  0  0  0  0  0  0
   14.0140    7.3487    7.7321 C   0  0  0  0  0  0  0  0  0  0  0  0
   12.8943    6.9130    7.0205 C   0  0  0  0  0  0  0  0  0  0  0  0
   12.7156    7.2790    5.6809 C   0  0  0  0  0  0  0  0  0  0  0  0
   11.6190    6.8697    4.8868 O   0  0  0  0  0  0  0  0  0  0  0  0
   10.3840    6.6297    5.4541 C   0  0  0  0  0  0  0  0  0  0  0  0
  9  8  1  0  0  0
  8  7  2  0  0  0
  8 10  1  0  0  0
  7  6  1  0  0  0
 10 11  2  0  0  0
 10  5  1  0  0  0
  6  5  1  0  0  0
 11 12  1  0  0  0
  5  4  2  0  0  0
 16 15  2  0  0  0
 12  1  1  0  0  0
 12  3  2  0  0  0
  4  3  1  0  0  0
  1 15  1  0  0  0
  3 14  1  0  0  0
 15 17  2  0  0  0
 15 18  1  0  0  0
 14 13  1  0  0  0
 18 19  1  0  0  0
 18 24  2  0  0  0
 19 20  2  0  0  0
 25 24  1  0  0  0
 25 26  1  0  0  0
 24 23  1  0  0  0
 20 21  1  0  0  0
 20 22  1  0  0  0
 23 22  2  0  0  0
  1  2  1  0  0  0
M  END
> <minimizedAffinity>
-6.40684

$$$$
5Y8Y_8PX_A_206


 26 28  0  0  0  0  0  0  0  0999 V2000
   11.9488    7.5534    3.9990 N   0  0  0  0  0  0  0  0  0  0  0  0
   12.2263    6.7489    4.4939 H   0  0  0  0  0  0  0  0  0  0  0  0
   10.0248    7.2280    2.6892 C   0  0  0  0  0  0  0  0  0  0  0  0
    9.4430    6.9798    1.4392 C   0  0  0  0  0  0  0  0  0  0  0  0
   10.1703    6.8834    0.3319 C   0  0  0  0  0  0  0  0  0  0  0  0
    9.7651    6.6493   -0.9203 O   0  0  0  0  0  0  0  0  0  0  0  0
   10.9956    6.6894   -1.7247 N   0  0  0  0  0  0  0  0  0  0  0  0
   11.9770    6.9093   -0.8728 C   0  0  0  0  0  0  0  0  0  0  0  0
   13.3760    6.9794   -1.3643 C   0  0  0  0  0  0  0  0  0  0  0  0
   11.5290    7.0356    0.3713 C   0  0  0  0  0  0  0  0  0  0  0  0
   12.1314    7.2958    1.5510 C   0  0  0  0  0  0  0  0  0  0  0  0
   11.4034    7.3910    2.7457 C   0  0  0  0  0  0  0  0  0  0  0  0
    8.2184    8.2388    3.9893 C   0  0  0  0  0  0  0  0  0  0  0  0
    9.3330    7.3236    3.8886 O   0  0  0  0  0  0  0  0  0  0  0  0
   12.1658    9.0454    4.7274 S   0  0  0  0  0  0  0  0  0  0  0  0
   11.3101    9.1923    5.9409 O   0  0  0  0  0  0  0  0  0  0  0  0
   12.0520   10.1409    3.6547 O   0  0  0  0  0  0  0  0  0  0  0  0
   13.9122    9.0016    5.1640 C   0  0  0  0  0  0  0  0  0  0  0  0
   14.6987   10.0496    4.7083 C   0  0  0  0  0  0  0  0  0  0  0  0
   16.0495   10.1074    4.9804 C   0  0  0  0  0  0  0  0  0  0  0  0
   16.9472   11.5886    4.2727 Br  0  0  0  0  0  0  0  0  0  0  0  0
   16.6215    9.1319    5.7646 C   0  0  0  0  0  0  0  0  0  0  0  0
   15.8563    8.0708    6.2530 C   0  0  0  0  0  0  0  0  0  0  0  0
   14.4887    7.9875    5.9648 C   0  0  0  0  0  0  0  0  0  0  0  0
   13.6475    6.9405    6.4083 O   0  0  0  0  0  0  0  0  0  0  0  0
   13.3181    6.8132    7.7424 C   0  0  0  0  0  0  0  0  0  0  0  0
  9  8  1  0  0  0
  8  7  2  0  0  0
  8 10  1  0  0  0
  7  6  1  0  0  0
 10 11  2  0  0  0
 10  5  1  0  0  0
  6  5  1  0  0  0
 11 12  1  0  0  0
  5  4  2  0  0  0
 16 15  2  0  0  0
 12  1  1  0  0  0
 12  3  2  0  0  0
  4  3  1  0  0  0
  1 15  1  0  0  0
  3 14  1  0  0  0
 15 17  2  0  0  0
 15 18  1  0  0  0
 14 13  1  0  0  0
 18 19  1  0  0  0
 18 24  2  0  0  0
 19 20  2  0  0  0
 25 24  1  0  0  0
 25 26  1  0  0  0
 24 23  1  0  0  0
 20 21  1  0  0  0
 20 22  1  0  0  0
 23 22  2  0  0  0
  1  2  1  0  0  0
M  END
> <minimizedAffinity>
-6.09733

$$$$
5Y8Y_8PX_A_206


 26 28  0  0  0  0  0  0  0  0999 V2000
   11.9339    7.2709    4.0776 N   0  0  0  0  0  0  0  0  0  0  0  0
   11.9769    6.4430    4.6086 H   0  0  0  0  0  0  0  0  0  0  0  0
   10.0256    7.0909    2.7178 C   0  0  0  0  0  0  0  0  0  0  0  0
    9.4599    6.9387    1.4453 C   0  0  0  0  0  0  0  0  0  0  0  0
   10.2047    6.8845    0.3467 C   0  0  0  0  0  0  0  0  0  0  0  0
    9.8160    6.7404   -0.9241 O   0  0  0  0  0  0  0  0  0  0  0  0
   11.0623    6.7870   -1.7035 N   0  0  0  0  0  0  0  0  0  0  0  0
   12.0339    6.9215   -0.8231 C   0  0  0  0  0  0  0  0  0  0  0  0
   13.4436    6.9734   -1.2855 C   0  0  0  0  0  0  0  0  0  0  0  0
   11.5667    6.9877    0.4185 C   0  0  0  0  0  0  0  0  0  0  0  0
   12.1546    7.1555    1.6220 C   0  0  0  0  0  0  0  0  0  0  0  0
   11.4075    7.2032    2.8077 C   0  0  0  0  0  0  0  0  0  0  0  0
    8.3585    8.2014    4.1188 C   0  0  0  0  0  0  0  0  0  0  0  0
    9.3146    7.1375    3.9088 O   0  0  0  0  0  0  0  0  0  0  0  0
   12.5050    8.6854    4.7682 S   0  0  0  0  0  0  0  0  0  0  0  0
   11.4347    9.7209    4.8608 O   0  0  0  0  0  0  0  0  0  0  0  0
   13.8095    9.0892    4.0620 O   0  0  0  0  0  0  0  0  0  0  0  0
   13.0143    8.1280    6.4030 C   0  0  0  0  0  0  0  0  0  0  0  0
   14.2652    8.5363    6.8428 C   0  0  0  0  0  0  0  0  0  0  0  0
   14.7536    8.1583    8.0760 C   0  0  0  0  0  0  0  0  0  0  0  0
   16.4633    8.7952    8.4906 Br  0  0  0  0  0  0  0  0  0  0  0  0
   13.9632    7.4024    8.9111 C   0  0  0  0  0  0  0  0  0  0  0  0
   12.6928    6.9868    8.5069 C   0  0  0  0  0  0  0  0  0  0  0  0
   12.1941    7.3440    7.2482 C   0  0  0  0  0  0  0  0  0  0  0  0
   10.9262    6.9534    6.7580 O   0  0  0  0  0  0  0  0  0  0  0  0
    9.7785    7.2058    7.4815 C   0  0  0  0  0  0  0  0  0  0  0  0
  9  8  1  0  0  0
  8  7  2  0  0  0
  8 10  1  0  0  0
  7  6  1  0  0  0
 10 11  2  0  0  0
 10  5  1  0  0  0
  6  5  1  0  0  0
 11 12  1  0  0  0
  5  4  2  0  0  0
 16 15  2  0  0  0
 12  1  1  0  0  0
 12  3  2  0  0  0
  4  3  1  0  0  0
  1 15  1  0  0  0
  3 14  1  0  0  0
 15 17  2  0  0  0
 15 18  1  0  0  0
 14 13  1  0  0  0
 18 19  1  0  0  0
 18 24  2  0  0  0
 19 20  2  0  0  0
 25 24  1  0  0  0
 25 26  1  0  0  0
 24 23  1  0  0  0
 20 21  1  0  0  0
 20 22  1  0  0  0
 23 22  2  0  0  0
  1  2  1  0  0  0
M  END
> <minimizedAffinity>
-6.05599

$$$$
5Y8Y_8PX_A_206


 26 28  0  0  0  0  0  0  0  0999 V2000
    9.0630    8.5243    1.9823 N   0  0  0  0  0  0  0  0  0  0  0  0
    8.6912    9.4149    1.7880 H   0  0  0  0  0  0  0  0  0  0  0  0
    9.0268    7.4571   -0.1112 C   0  0  0  0  0  0  0  0  0  0  0  0
    9.6906    6.7275   -1.1061 C   0  0  0  0  0  0  0  0  0  0  0  0
   10.9807    6.4246   -1.0133 C   0  0  0  0  0  0  0  0  0  0  0  0
   11.7454    5.7400   -1.8696 O   0  0  0  0  0  0  0  0  0  0  0  0
   13.0860    5.7518   -1.2649 N   0  0  0  0  0  0  0  0  0  0  0  0
   12.9627    6.4040   -0.1262 C   0  0  0  0  0  0  0  0  0  0  0  0
   14.1443    6.5727    0.7565 C   0  0  0  0  0  0  0  0  0  0  0  0
   11.7188    6.8288    0.0650 C   0  0  0  0  0  0  0  0  0  0  0  0
   11.1259    7.5514    1.0390 C   0  0  0  0  0  0  0  0  0  0  0  0
    9.7637    7.8803    0.9880 C   0  0  0  0  0  0  0  0  0  0  0  0
    6.9682    7.7824   -1.3884 C   0  0  0  0  0  0  0  0  0  0  0  0
    7.6807    7.7944   -0.1305 O   0  0  0  0  0  0  0  0  0  0  0  0
    8.8085    7.8747    3.5045 S   0  0  0  0  0  0  0  0  0  0  0  0
    8.7586    6.3840    3.4626 O   0  0  0  0  0  0  0  0  0  0  0  0
    7.6184    8.5961    4.1577 O   0  0  0  0  0  0  0  0  0  0  0  0
   10.2552    8.4522    4.4077 C   0  0  0  0  0  0  0  0  0  0  0  0
   10.8989    7.5276    5.2174 C   0  0  0  0  0  0  0  0  0  0  0  0
   12.0113    7.8696    5.9575 C   0  0  0  0  0  0  0  0  0  0  0  0
   12.7354    6.4940    6.9987 Br  0  0  0  0  0  0  0  0  0  0  0  0
   12.5261    9.1414    5.8521 C   0  0  0  0  0  0  0  0  0  0  0  0
   11.9126   10.0929    5.0346 C   0  0  0  0  0  0  0  0  0  0  0  0
   10.7691    9.7657    4.2959 C   0  0  0  0  0  0  0  0  0  0  0  0
   10.0809   10.6729    3.4570 O   0  0  0  0  0  0  0  0  0  0  0  0
   10.7652   11.4651    2.5578 C   0  0  0  0  0  0  0  0  0  0  0  0
  9  8  1  0  0  0
  8  7  2  0  0  0
  8 10  1  0  0  0
  7  6  1  0  0  0
 10 11  2  0  0  0
 10  5  1  0  0  0
  6  5  1  0  0  0
 11 12  1  0  0  0
  5  4  2  0  0  0
 16 15  2  0  0  0
 12  1  1  0  0  0
 12  3  2  0  0  0
  4  3  1  0  0  0
  1 15  1  0  0  0
  3 14  1  0  0  0
 15 17  2  0  0  0
 15 18  1  0  0  0
 14 13  1  0  0  0
 18 19  1  0  0  0
 18 24  2  0  0  0
 19 20  2  0  0  0
 25 24  1  0  0  0
 25 26  1  0  0  0
 24 23  1  0  0  0
 20 21  1  0  0  0
 20 22  1  0  0  0
 23 22  2  0  0  0
  1  2  1  0  0  0
M  END
> <minimizedAffinity>
-5.99419

$$$$
5Y8Y_8PX_A_206


 26 28  0  0  0  0  0  0  0  0999 V2000
   10.7315    8.6054    0.7977 N   0  0  0  0  0  0  0  0  0  0  0  0
   10.9601    9.5287    0.5436 H   0  0  0  0  0  0  0  0  0  0  0  0
   12.8352    7.7148    1.3494 C   0  0  0  0  0  0  0  0  0  0  0  0
   13.8498    6.7784    1.1119 C   0  0  0  0  0  0  0  0  0  0  0  0
   13.7313    5.8329    0.1864 C   0  0  0  0  0  0  0  0  0  0  0  0
   14.6039    4.8798   -0.1557 O   0  0  0  0  0  0  0  0  0  0  0  0
   13.9212    4.1074   -1.2046 N   0  0  0  0  0  0  0  0  0  0  0  0
   12.7549    4.6946   -1.3842 C   0  0  0  0  0  0  0  0  0  0  0  0
   11.8181    4.1714   -2.4101 C   0  0  0  0  0  0  0  0  0  0  0  0
   12.5959    5.7317   -0.5696 C   0  0  0  0  0  0  0  0  0  0  0  0
   11.5836    6.6002   -0.3621 C   0  0  0  0  0  0  0  0  0  0  0  0
   11.6728    7.6222    0.5939 C   0  0  0  0  0  0  0  0  0  0  0  0
   13.5119    8.4884    3.5672 C   0  0  0  0  0  0  0  0  0  0  0  0
   12.8949    8.7391    2.2840 O   0  0  0  0  0  0  0  0  0  0  0  0
    9.2186    8.3161    1.4544 S   0  0  0  0  0  0  0  0  0  0  0  0
    9.2311    7.1277    2.3565 O   0  0  0  0  0  0  0  0  0  0  0  0
    8.1782    8.3239    0.3225 O   0  0  0  0  0  0  0  0  0  0  0  0
    8.9124    9.8311    2.3781 C   0  0  0  0  0  0  0  0  0  0  0  0
   10.0233   10.5766    2.7455 C   0  0  0  0  0  0  0  0  0  0  0  0
    9.8992   11.7487    3.4617 C   0  0  0  0  0  0  0  0  0  0  0  0
   11.5081   12.6090    3.8762 Br  0  0  0  0  0  0  0  0  0  0  0  0
    8.6439   12.2174    3.7751 C   0  0  0  0  0  0  0  0  0  0  0  0
    7.5033   11.5005    3.4076 C   0  0  0  0  0  0  0  0  0  0  0  0
    7.6160   10.2972    2.7006 C   0  0  0  0  0  0  0  0  0  0  0  0
    6.5136    9.5050    2.3036 O   0  0  0  0  0  0  0  0  0  0  0  0
    5.4186   10.0735    1.6855 C   0  0  0  0  0  0  0  0  0  0  0  0
  9  8  1  0  0  0
  8  7  2  0  0  0
  8 10  1  0  0  0
  7  6  1  0  0  0
 10 11  2  0  0  0
 10  5  1  0  0  0
  6  5  1  0  0  0
 11 12  1  0  0  0
  5  4  2  0  0  0
 16 15  2  0  0  0
 12  1  1  0  0  0
 12  3  2  0  0  0
  4  3  1  0  0  0
  1 15  1  0  0  0
  3 14  1  0  0  0
 15 17  2  0  0  0
 15 18  1  0  0  0
 14 13  1  0  0  0
 18 19  1  0  0  0
 18 24  2  0  0  0
 19 20  2  0  0  0
 25 24  1  0  0  0
 25 26  1  0  0  0
 24 23  1  0  0  0
 20 21  1  0  0  0
 20 22  1  0  0  0
 23 22  2  0  0  0
  1  2  1  0  0  0
M  END
> <minimizedAffinity>
-5.99074

$$$$
