1M2Q_MNX_A_351


 22 24  0  0  0  0  0  0  0  0999 V2000
   23.6889    8.9539   15.3945 C   0  0  0  0  0  0  0  0  0  0  0  0
   24.3127    7.7243   15.7868 C   0  0  0  0  0  0  0  0  0  0  0  0
   24.8814    6.8662   14.7799 C   0  0  0  0  0  0  0  0  0  0  0  0
   24.7964    7.2217   13.4108 C   0  0  0  0  0  0  0  0  0  0  0  0
   24.1733    8.4352   13.0278 C   0  0  0  0  0  0  0  0  0  0  0  0
   23.6149    9.2961   14.0149 C   0  0  0  0  0  0  0  0  0  0  0  0
   25.4854    5.6685   15.1299 O   0  0  0  0  0  0  0  0  0  0  0  0
   25.6093    5.2248   16.4559 C   0  0  0  0  0  0  0  0  0  0  0  0
   25.0907    6.0152   17.5369 C   0  0  0  0  0  0  0  0  0  0  0  0
   24.4298    7.3132   17.2131 C   0  0  0  0  0  0  0  0  0  0  0  0
   25.2222    5.5446   18.8835 C   0  0  0  0  0  0  0  0  0  0  0  0
   25.8565    4.3113   19.1416 C   0  0  0  0  0  0  0  0  0  0  0  0
   26.3633    3.5290   18.0760 C   0  0  0  0  0  0  0  0  0  0  0  0
   26.2484    3.9742   16.7351 C   0  0  0  0  0  0  0  0  0  0  0  0
   23.9612    8.0319   18.1121 O   0  0  0  0  0  0  0  0  0  0  0  0
   23.1258    9.8169   16.3371 O   0  0  0  0  0  0  0  0  0  0  0  0
   24.7385    6.2705   19.9710 O   0  0  0  0  0  0  0  0  0  0  0  0
   23.1664    9.6055   17.2491 H   0  0  0  0  0  0  0  0  0  0  0  0
   24.3122    7.0934   19.8327 H   0  0  0  0  0  0  0  0  0  0  0  0
   26.7812    3.1349   15.6805 N   0  0  0  0  0  0  0  0  0  0  0  0
   26.1843    1.9533   15.3322 O   0  0  0  0  0  0  0  0  0  0  0  0
   27.9078    3.5262   15.0117 O   0  0  0  0  0  0  0  0  0  0  0  0
  1  2  2  0  0  0
  1  6  1  0  0  0
  1 16  1  0  0  0
  2  3  1  0  0  0
  2 10  1  0  0  0
  3  4  2  0  0  0
  3  7  1  0  0  0
  4  5  1  0  0  0
  5  6  2  0  0  0
  7  8  1  0  0  0
  8  9  2  0  0  0
  8 14  1  0  0  0
  9 10  1  0  0  0
  9 11  1  0  0  0
 10 15  2  0  0  0
 11 12  2  0  0  0
 11 17  1  0  0  0
 12 13  1  0  0  0
 13 14  2  0  0  0
 14 20  1  0  0  0
 20 21  1  0  0  0
 20 22  2  0  0  0
 16 18  1  0  0  0
 17 19  1  0  0  0
M  CHG 1  20   1
M  CHG 1  21  -1
M  END
> <minimizedAffinity>
-10.27885

$$$$
1M2Q_MNX_A_351


 22 24  0  0  0  0  0  0  0  0999 V2000
   24.7829    7.6621   13.3779 C   0  0  0  0  0  0  0  0  0  0  0  0
   24.9385    7.0052   14.6425 C   0  0  0  0  0  0  0  0  0  0  0  0
   24.3202    7.5695   15.8141 C   0  0  0  0  0  0  0  0  0  0  0  0
   23.5903    8.7805   15.7208 C   0  0  0  0  0  0  0  0  0  0  0  0
   23.4446    9.4291   14.4695 C   0  0  0  0  0  0  0  0  0  0  0  0
   24.0442    8.8764   13.3022 C   0  0  0  0  0  0  0  0  0  0  0  0
   24.4590    6.9589   17.0509 O   0  0  0  0  0  0  0  0  0  0  0  0
   25.1700    5.7646   17.2470 C   0  0  0  0  0  0  0  0  0  0  0  0
   25.8100    5.1112   16.1398 C   0  0  0  0  0  0  0  0  0  0  0  0
   25.6914    5.7288   14.7867 C   0  0  0  0  0  0  0  0  0  0  0  0
   26.5351    3.8953   16.3592 C   0  0  0  0  0  0  0  0  0  0  0  0
   26.6187    3.3474   17.6565 C   0  0  0  0  0  0  0  0  0  0  0  0
   25.9924    3.9938   18.7494 C   0  0  0  0  0  0  0  0  0  0  0  0
   25.2665    5.1962   18.5578 C   0  0  0  0  0  0  0  0  0  0  0  0
   26.2303    5.2047   13.7971 O   0  0  0  0  0  0  0  0  0  0  0  0
   25.3638    7.1497   12.2158 O   0  0  0  0  0  0  0  0  0  0  0  0
   27.1747    3.2184   15.3218 O   0  0  0  0  0  0  0  0  0  0  0  0
   25.8531    6.3513   12.2494 H   0  0  0  0  0  0  0  0  0  0  0  0
   27.1377    3.5566   14.4488 H   0  0  0  0  0  0  0  0  0  0  0  0
   24.6464    5.8198   19.7098 N   0  0  0  0  0  0  0  0  0  0  0  0
   24.7271    7.1689   19.9265 O   0  0  0  0  0  0  0  0  0  0  0  0
   23.9614    5.0480   20.6069 O   0  0  0  0  0  0  0  0  0  0  0  0
  1  2  2  0  0  0
  1  6  1  0  0  0
  1 16  1  0  0  0
  2  3  1  0  0  0
  2 10  1  0  0  0
  3  4  2  0  0  0
  3  7  1  0  0  0
  4  5  1  0  0  0
  5  6  2  0  0  0
  7  8  1  0  0  0
  8  9  2  0  0  0
  8 14  1  0  0  0
  9 10  1  0  0  0
  9 11  1  0  0  0
 10 15  2  0  0  0
 11 12  2  0  0  0
 11 17  1  0  0  0
 12 13  1  0  0  0
 13 14  2  0  0  0
 14 20  1  0  0  0
 20 21  1  0  0  0
 20 22  2  0  0  0
 16 18  1  0  0  0
 17 19  1  0  0  0
M  CHG 1  20   1
M  CHG 1  21  -1
M  END
> <minimizedAffinity>
-9.87975

$$$$
1M2Q_MNX_A_351


 22 24  0  0  0  0  0  0  0  0999 V2000
   24.8801    7.2984   13.6608 C   0  0  0  0  0  0  0  0  0  0  0  0
   24.8498    6.9910   15.0606 C   0  0  0  0  0  0  0  0  0  0  0  0
   24.1244    7.8515   15.9588 C   0  0  0  0  0  0  0  0  0  0  0  0
   23.4728    9.0090   15.4651 C   0  0  0  0  0  0  0  0  0  0  0  0
   23.5111    9.3118   14.0815 C   0  0  0  0  0  0  0  0  0  0  0  0
   24.2179    8.4638   13.1821 C   0  0  0  0  0  0  0  0  0  0  0  0
   24.0830    7.5818   17.3180 O   0  0  0  0  0  0  0  0  0  0  0  0
   24.7044    6.4675   17.9033 C   0  0  0  0  0  0  0  0  0  0  0  0
   25.4390    5.5373   17.0925 C   0  0  0  0  0  0  0  0  0  0  0  0
   25.5148    5.7832   15.6228 C   0  0  0  0  0  0  0  0  0  0  0  0
   26.0704    4.4080   17.7076 C   0  0  0  0  0  0  0  0  0  0  0  0
   25.9702    4.2156   19.1015 C   0  0  0  0  0  0  0  0  0  0  0  0
   25.2506    5.1351   19.9022 C   0  0  0  0  0  0  0  0  0  0  0  0
   24.6142    6.2586   19.3171 C   0  0  0  0  0  0  0  0  0  0  0  0
   26.1415    5.0102   14.8784 O   0  0  0  0  0  0  0  0  0  0  0  0
   25.5699    6.4911   12.7536 O   0  0  0  0  0  0  0  0  0  0  0  0
   26.7951    3.4733   16.9696 O   0  0  0  0  0  0  0  0  0  0  0  0
   26.0108    5.7205   13.0533 H   0  0  0  0  0  0  0  0  0  0  0  0
   26.8802    3.5731   16.0418 H   0  0  0  0  0  0  0  0  0  0  0  0
   23.8925    7.1713   20.1810 N   0  0  0  0  0  0  0  0  0  0  0  0
   24.1858    8.5078   20.2189 O   0  0  0  0  0  0  0  0  0  0  0  0
   22.8919    6.6933   20.9811 O   0  0  0  0  0  0  0  0  0  0  0  0
  1  2  2  0  0  0
  1  6  1  0  0  0
  1 16  1  0  0  0
  2  3  1  0  0  0
  2 10  1  0  0  0
  3  4  2  0  0  0
  3  7  1  0  0  0
  4  5  1  0  0  0
  5  6  2  0  0  0
  7  8  1  0  0  0
  8  9  2  0  0  0
  8 14  1  0  0  0
  9 10  1  0  0  0
  9 11  1  0  0  0
 10 15  2  0  0  0
 11 12  2  0  0  0
 11 17  1  0  0  0
 12 13  1  0  0  0
 13 14  2  0  0  0
 14 20  1  0  0  0
 20 21  1  0  0  0
 20 22  2  0  0  0
 16 18  1  0  0  0
 17 19  1  0  0  0
M  CHG 1  20   1
M  CHG 1  21  -1
M  END
> <minimizedAffinity>
-9.73894

$$$$
1M2Q_MNX_A_351


 22 24  0  0  0  0  0  0  0  0999 V2000
   25.8248    4.4568   18.2059 C   0  0  0  0  0  0  0  0  0  0  0  0
   25.4170    5.4063   17.2124 C   0  0  0  0  0  0  0  0  0  0  0  0
   25.6592    5.1237   15.8214 C   0  0  0  0  0  0  0  0  0  0  0  0
   26.3230    3.9305   15.4424 C   0  0  0  0  0  0  0  0  0  0  0  0
   26.7296    2.9981   16.4287 C   0  0  0  0  0  0  0  0  0  0  0  0
   26.4881    3.2624   17.8069 C   0  0  0  0  0  0  0  0  0  0  0  0
   25.2808    6.0264   14.8397 O   0  0  0  0  0  0  0  0  0  0  0  0
   24.6280    7.2382   15.1152 C   0  0  0  0  0  0  0  0  0  0  0  0
   24.3242    7.6070   16.4694 C   0  0  0  0  0  0  0  0  0  0  0  0
   24.7117    6.6698   17.5638 C   0  0  0  0  0  0  0  0  0  0  0  0
   23.6614    8.8495   16.7323 C   0  0  0  0  0  0  0  0  0  0  0  0
   23.3126    9.7033   15.6648 C   0  0  0  0  0  0  0  0  0  0  0  0
   23.6166    9.3428   14.3298 C   0  0  0  0  0  0  0  0  0  0  0  0
   24.2690    8.1173   14.0434 C   0  0  0  0  0  0  0  0  0  0  0  0
   24.4748    6.9445   18.7524 O   0  0  0  0  0  0  0  0  0  0  0  0
   25.6087    4.6891   19.5660 O   0  0  0  0  0  0  0  0  0  0  0  0
   23.3414    9.2576   18.0263 O   0  0  0  0  0  0  0  0  0  0  0  0
   25.1735    5.4708   19.8444 H   0  0  0  0  0  0  0  0  0  0  0  0
   23.5598    8.7129   18.7568 H   0  0  0  0  0  0  0  0  0  0  0  0
   24.5601    7.7965   12.6604 N   0  0  0  0  0  0  0  0  0  0  0  0
   25.7887    7.3332   12.2738 O   0  0  0  0  0  0  0  0  0  0  0  0
   23.5882    7.9574   11.7120 O   0  0  0  0  0  0  0  0  0  0  0  0
  1  2  2  0  0  0
  1  6  1  0  0  0
  1 16  1  0  0  0
  2  3  1  0  0  0
  2 10  1  0  0  0
  3  4  2  0  0  0
  3  7  1  0  0  0
  4  5  1  0  0  0
  5  6  2  0  0  0
  7  8  1  0  0  0
  8  9  2  0  0  0
  8 14  1  0  0  0
  9 10  1  0  0  0
  9 11  1  0  0  0
 10 15  2  0  0  0
 11 12  2  0  0  0
 11 17  1  0  0  0
 12 13  1  0  0  0
 13 14  2  0  0  0
 14 20  1  0  0  0
 20 21  1  0  0  0
 20 22  2  0  0  0
 16 18  1  0  0  0
 17 19  1  0  0  0
M  CHG 1  20   1
M  CHG 1  21  -1
M  END
> <minimizedAffinity>
-9.44759

$$$$
1M2Q_MNX_A_351


 22 24  0  0  0  0  0  0  0  0999 V2000
   26.6156    3.5723   16.4341 C   0  0  0  0  0  0  0  0  0  0  0  0
   25.9562    4.8250   16.2081 C   0  0  0  0  0  0  0  0  0  0  0  0
   25.3894    5.5379   17.3233 C   0  0  0  0  0  0  0  0  0  0  0  0
   25.4569    4.9889   18.6279 C   0  0  0  0  0  0  0  0  0  0  0  0
   26.1043    3.7474   18.8451 C   0  0  0  0  0  0  0  0  0  0  0  0
   26.6763    3.0371   17.7515 C   0  0  0  0  0  0  0  0  0  0  0  0
   24.7408    6.7483   17.1333 O   0  0  0  0  0  0  0  0  0  0  0  0
   24.6131    7.3675   15.8800 C   0  0  0  0  0  0  0  0  0  0  0  0
   25.1591    6.7474   14.7055 C   0  0  0  0  0  0  0  0  0  0  0  0
   25.8664    5.4422   14.8560 C   0  0  0  0  0  0  0  0  0  0  0  0
   25.0156    7.3916   13.4340 C   0  0  0  0  0  0  0  0  0  0  0  0
   24.3401    8.6265   13.3405 C   0  0  0  0  0  0  0  0  0  0  0  0
   23.7969    9.2359   14.4973 C   0  0  0  0  0  0  0  0  0  0  0  0
   23.9285    8.6201   15.7673 C   0  0  0  0  0  0  0  0  0  0  0  0
   26.3528    4.8631   13.8700 O   0  0  0  0  0  0  0  0  0  0  0  0
   27.1808    2.8477   15.3824 O   0  0  0  0  0  0  0  0  0  0  0  0
   25.5262    6.8360   12.2618 O   0  0  0  0  0  0  0  0  0  0  0  0
   27.1489    3.1868   14.5095 H   0  0  0  0  0  0  0  0  0  0  0  0
   25.9800    6.0167   12.2906 H   0  0  0  0  0  0  0  0  0  0  0  0
   23.3522    9.2837   16.9197 N   0  0  0  0  0  0  0  0  0  0  0  0
   23.5808    8.8384   18.1937 O   0  0  0  0  0  0  0  0  0  0  0  0
   22.5595   10.3830   16.7381 O   0  0  0  0  0  0  0  0  0  0  0  0
  1  2  2  0  0  0
  1  6  1  0  0  0
  1 16  1  0  0  0
  2  3  1  0  0  0
  2 10  1  0  0  0
  3  4  2  0  0  0
  3  7  1  0  0  0
  4  5  1  0  0  0
  5  6  2  0  0  0
  7  8  1  0  0  0
  8  9  2  0  0  0
  8 14  1  0  0  0
  9 10  1  0  0  0
  9 11  1  0  0  0
 10 15  2  0  0  0
 11 12  2  0  0  0
 11 17  1  0  0  0
 12 13  1  0  0  0
 13 14  2  0  0  0
 14 20  1  0  0  0
 20 21  1  0  0  0
 20 22  2  0  0  0
 16 18  1  0  0  0
 17 19  1  0  0  0
M  CHG 1  20   1
M  CHG 1  21  -1
M  END
> <minimizedAffinity>
-9.35685

$$$$
1M2Q_MNX_A_351


 22 24  0  0  0  0  0  0  0  0999 V2000
   23.9632    8.6260   16.0296 C   0  0  0  0  0  0  0  0  0  0  0  0
   24.5719    7.3586   16.3090 C   0  0  0  0  0  0  0  0  0  0  0  0
   25.1860    6.6168   15.2385 C   0  0  0  0  0  0  0  0  0  0  0  0
   25.1603    7.1232   13.9152 C   0  0  0  0  0  0  0  0  0  0  0  0
   24.5519    8.3735   13.6433 C   0  0  0  0  0  0  0  0  0  0  0  0
   23.9488    9.1204   14.6950 C   0  0  0  0  0  0  0  0  0  0  0  0
   25.7768    5.3859   15.4786 O   0  0  0  0  0  0  0  0  0  0  0  0
   25.8435    4.7965   16.7509 C   0  0  0  0  0  0  0  0  0  0  0  0
   25.2763    5.4627   17.8897 C   0  0  0  0  0  0  0  0  0  0  0  0
   24.6274    6.7905   17.6842 C   0  0  0  0  0  0  0  0  0  0  0  0
   25.3498    4.8443   19.1798 C   0  0  0  0  0  0  0  0  0  0  0  0
   25.9749    3.5882   19.3260 C   0  0  0  0  0  0  0  0  0  0  0  0
   26.5296    2.9284   18.2029 C   0  0  0  0  0  0  0  0  0  0  0  0
   26.4726    3.5209   16.9163 C   0  0  0  0  0  0  0  0  0  0  0  0
   24.1183    7.4056   18.6366 O   0  0  0  0  0  0  0  0  0  0  0  0
   23.3574    9.3799   17.0372 O   0  0  0  0  0  0  0  0  0  0  0  0
   24.8173    5.4455   20.3193 O   0  0  0  0  0  0  0  0  0  0  0  0
   23.3586    9.0678   17.9207 H   0  0  0  0  0  0  0  0  0  0  0  0
   24.3957    6.2799   20.2553 H   0  0  0  0  0  0  0  0  0  0  0  0
   27.0529    2.8031   15.7990 N   0  0  0  0  0  0  0  0  0  0  0  0
   27.9819    3.3827   14.9776 O   0  0  0  0  0  0  0  0  0  0  0  0
   26.6683    1.5142   15.5527 O   0  0  0  0  0  0  0  0  0  0  0  0
  1  2  2  0  0  0
  1  6  1  0  0  0
  1 16  1  0  0  0
  2  3  1  0  0  0
  2 10  1  0  0  0
  3  4  2  0  0  0
  3  7  1  0  0  0
  4  5  1  0  0  0
  5  6  2  0  0  0
  7  8  1  0  0  0
  8  9  2  0  0  0
  8 14  1  0  0  0
  9 10  1  0  0  0
  9 11  1  0  0  0
 10 15  2  0  0  0
 11 12  2  0  0  0
 11 17  1  0  0  0
 12 13  1  0  0  0
 13 14  2  0  0  0
 14 20  1  0  0  0
 20 21  1  0  0  0
 20 22  2  0  0  0
 16 18  1  0  0  0
 17 19  1  0  0  0
M  CHG 1  20   1
M  CHG 1  21  -1
M  END
> <minimizedAffinity>
-9.10629

$$$$
1M2Q_MNX_A_351


 22 24  0  0  0  0  0  0  0  0999 V2000
   25.8494    3.3853   19.1993 C   0  0  0  0  0  0  0  0  0  0  0  0
   25.5311    4.4397   18.2818 C   0  0  0  0  0  0  0  0  0  0  0  0
   24.7347    5.5522   18.7306 C   0  0  0  0  0  0  0  0  0  0  0  0
   24.2450    5.5869   20.0599 C   0  0  0  0  0  0  0  0  0  0  0  0
   24.5574    4.5391   20.9611 C   0  0  0  0  0  0  0  0  0  0  0  0
   25.3512    3.4379   20.5315 C   0  0  0  0  0  0  0  0  0  0  0  0
   24.4066    6.5829   17.8635 O   0  0  0  0  0  0  0  0  0  0  0  0
   24.8344    6.6337   16.5275 C   0  0  0  0  0  0  0  0  0  0  0  0
   25.6480    5.5816   15.9858 C   0  0  0  0  0  0  0  0  0  0  0  0
   26.0283    4.4479   16.8783 C   0  0  0  0  0  0  0  0  0  0  0  0
   26.0719    5.6479   14.6190 C   0  0  0  0  0  0  0  0  0  0  0  0
   25.6890    6.7407   13.8133 C   0  0  0  0  0  0  0  0  0  0  0  0
   24.8825    7.7757   14.3452 C   0  0  0  0  0  0  0  0  0  0  0  0
   24.4528    7.7348   15.6954 C   0  0  0  0  0  0  0  0  0  0  0  0
   26.7274    3.5111   16.4564 O   0  0  0  0  0  0  0  0  0  0  0  0
   26.6198    2.2882   18.8075 O   0  0  0  0  0  0  0  0  0  0  0  0
   26.8628    4.6558   14.0413 O   0  0  0  0  0  0  0  0  0  0  0  0
   26.9550    2.2391   17.9339 H   0  0  0  0  0  0  0  0  0  0  0  0
   27.1338    3.9172   14.5501 H   0  0  0  0  0  0  0  0  0  0  0  0
   23.6264    8.8176   16.1904 N   0  0  0  0  0  0  0  0  0  0  0  0
   22.8718    9.5883   15.3476 O   0  0  0  0  0  0  0  0  0  0  0  0
   23.5939    9.0821   17.5316 O   0  0  0  0  0  0  0  0  0  0  0  0
  1  2  2  0  0  0
  1  6  1  0  0  0
  1 16  1  0  0  0
  2  3  1  0  0  0
  2 10  1  0  0  0
  3  4  2  0  0  0
  3  7  1  0  0  0
  4  5  1  0  0  0
  5  6  2  0  0  0
  7  8  1  0  0  0
  8  9  2  0  0  0
  8 14  1  0  0  0
  9 10  1  0  0  0
  9 11  1  0  0  0
 10 15  2  0  0  0
 11 12  2  0  0  0
 11 17  1  0  0  0
 12 13  1  0  0  0
 13 14  2  0  0  0
 14 20  1  0  0  0
 20 21  1  0  0  0
 20 22  2  0  0  0
 16 18  1  0  0  0
 17 19  1  0  0  0
M  CHG 1  20   1
M  CHG 1  21  -1
M  END
> <minimizedAffinity>
-8.30417

$$$$
1M2Q_MNX_A_351


 22 24  0  0  0  0  0  0  0  0999 V2000
   24.9068    8.1959   14.5717 C   0  0  0  0  0  0  0  0  0  0  0  0
   24.7508    7.5213   15.8269 C   0  0  0  0  0  0  0  0  0  0  0  0
   23.8881    8.0862   16.8319 C   0  0  0  0  0  0  0  0  0  0  0  0
   23.2242    9.3148   16.5915 C   0  0  0  0  0  0  0  0  0  0  0  0
   23.3866    9.9809   15.3515 C   0  0  0  0  0  0  0  0  0  0  0  0
   24.2303    9.4278   14.3465 C   0  0  0  0  0  0  0  0  0  0  0  0
   23.7233    7.4585   18.0569 O   0  0  0  0  0  0  0  0  0  0  0  0
   24.3453    6.2459   18.3931 C   0  0  0  0  0  0  0  0  0  0  0  0
   25.2123    5.5906   17.4543 C   0  0  0  0  0  0  0  0  0  0  0  0
   25.4240    6.2262   16.1211 C   0  0  0  0  0  0  0  0  0  0  0  0
   25.8421    4.3558   17.8161 C   0  0  0  0  0  0  0  0  0  0  0  0
   25.6107    3.7914   19.0881 C   0  0  0  0  0  0  0  0  0  0  0  0
   24.7603    4.4396   20.0160 C   0  0  0  0  0  0  0  0  0  0  0  0
   24.1228    5.6606   19.6808 C   0  0  0  0  0  0  0  0  0  0  0  0
   26.1679    5.7011   15.2753 O   0  0  0  0  0  0  0  0  0  0  0  0
   25.7319    7.6836   13.5681 O   0  0  0  0  0  0  0  0  0  0  0  0
   26.6919    3.6762   16.9447 O   0  0  0  0  0  0  0  0  0  0  0  0
   26.1840    6.8737   13.7013 H   0  0  0  0  0  0  0  0  0  0  0  0
   26.8659    4.0251   16.0927 H   0  0  0  0  0  0  0  0  0  0  0  0
   23.2642    6.2851   20.6673 N   0  0  0  0  0  0  0  0  0  0  0  0
   22.4492    5.5456   21.4813 O   0  0  0  0  0  0  0  0  0  0  0  0
   23.2628    7.6465   20.7946 O   0  0  0  0  0  0  0  0  0  0  0  0
  1  2  2  0  0  0
  1  6  1  0  0  0
  1 16  1  0  0  0
  2  3  1  0  0  0
  2 10  1  0  0  0
  3  4  2  0  0  0
  3  7  1  0  0  0
  4  5  1  0  0  0
  5  6  2  0  0  0
  7  8  1  0  0  0
  8  9  2  0  0  0
  8 14  1  0  0  0
  9 10  1  0  0  0
  9 11  1  0  0  0
 10 15  2  0  0  0
 11 12  2  0  0  0
 11 17  1  0  0  0
 12 13  1  0  0  0
 13 14  2  0  0  0
 14 20  1  0  0  0
 20 21  1  0  0  0
 20 22  2  0  0  0
 16 18  1  0  0  0
 17 19  1  0  0  0
M  CHG 1  20   1
M  CHG 1  21  -1
M  END
> <minimizedAffinity>
-8.07107

$$$$
1M2Q_MNX_A_351


 22 24  0  0  0  0  0  0  0  0999 V2000
   25.1531    4.1257   20.1382 C   0  0  0  0  0  0  0  0  0  0  0  0
   25.1141    4.8798   18.9197 C   0  0  0  0  0  0  0  0  0  0  0  0
   25.6285    4.2951   17.7085 C   0  0  0  0  0  0  0  0  0  0  0  0
   26.1960    2.9969   17.7298 C   0  0  0  0  0  0  0  0  0  0  0  0
   26.2377    2.2580   18.9381 C   0  0  0  0  0  0  0  0  0  0  0  0
   25.7245    2.8221   20.1406 C   0  0  0  0  0  0  0  0  0  0  0  0
   25.6091    5.0036   16.5171 O   0  0  0  0  0  0  0  0  0  0  0  0
   25.0783    6.2976   16.3968 C   0  0  0  0  0  0  0  0  0  0  0  0
   24.5245    6.9639   17.5420 C   0  0  0  0  0  0  0  0  0  0  0  0
   24.5224    6.2443   18.8491 C   0  0  0  0  0  0  0  0  0  0  0  0
   23.9911    8.2860   17.4016 C   0  0  0  0  0  0  0  0  0  0  0  0
   24.0133    8.9264   16.1449 C   0  0  0  0  0  0  0  0  0  0  0  0
   24.5640    8.2722   15.0165 C   0  0  0  0  0  0  0  0  0  0  0  0
   25.0949    6.9627   15.1288 C   0  0  0  0  0  0  0  0  0  0  0  0
   24.0584    6.7789   19.8706 O   0  0  0  0  0  0  0  0  0  0  0  0
   24.6643    4.6527   21.3356 O   0  0  0  0  0  0  0  0  0  0  0  0
   23.4407    8.9795   18.4785 O   0  0  0  0  0  0  0  0  0  0  0  0
   24.2852    5.5094   21.3503 H   0  0  0  0  0  0  0  0  0  0  0  0
   23.4113    8.5815   19.3262 H   0  0  0  0  0  0  0  0  0  0  0  0
   25.6495    6.3382   13.9443 N   0  0  0  0  0  0  0  0  0  0  0  0
   25.3868    6.8181   12.6896 O   0  0  0  0  0  0  0  0  0  0  0  0
   26.4565    5.2422   14.0751 O   0  0  0  0  0  0  0  0  0  0  0  0
  1  2  2  0  0  0
  1  6  1  0  0  0
  1 16  1  0  0  0
  2  3  1  0  0  0
  2 10  1  0  0  0
  3  4  2  0  0  0
  3  7  1  0  0  0
  4  5  1  0  0  0
  5  6  2  0  0  0
  7  8  1  0  0  0
  8  9  2  0  0  0
  8 14  1  0  0  0
  9 10  1  0  0  0
  9 11  1  0  0  0
 10 15  2  0  0  0
 11 12  2  0  0  0
 11 17  1  0  0  0
 12 13  1  0  0  0
 13 14  2  0  0  0
 14 20  1  0  0  0
 20 21  1  0  0  0
 20 22  2  0  0  0
 16 18  1  0  0  0
 17 19  1  0  0  0
M  CHG 1  20   1
M  CHG 1  21  -1
M  END
> <minimizedAffinity>
-8.02326

$$$$
1M2Q_MNX_A_351


 22 24  0  0  0  0  0  0  0  0999 V2000
   26.1061    5.5167   14.7483 C   0  0  0  0  0  0  0  0  0  0  0  0
   25.6586    5.4291   16.1073 C   0  0  0  0  0  0  0  0  0  0  0  0
   24.7804    6.4433   16.6302 C   0  0  0  0  0  0  0  0  0  0  0  0
   24.3881    7.5345   15.8157 C   0  0  0  0  0  0  0  0  0  0  0  0
   24.8382    7.6198   14.4749 C   0  0  0  0  0  0  0  0  0  0  0  0
   25.7000    6.6185   13.9437 C   0  0  0  0  0  0  0  0  0  0  0  0
   24.3368    6.3871   17.9424 O   0  0  0  0  0  0  0  0  0  0  0  0
   24.6778    5.3537   18.8292 C   0  0  0  0  0  0  0  0  0  0  0  0
   25.5347    4.2838   18.4012 C   0  0  0  0  0  0  0  0  0  0  0  0
   26.0404    4.2982   16.9975 C   0  0  0  0  0  0  0  0  0  0  0  0
   25.8758    3.2398   19.3210 C   0  0  0  0  0  0  0  0  0  0  0  0
   25.3722    3.2673   20.6385 C   0  0  0  0  0  0  0  0  0  0  0  0
   24.5316    4.3247   21.0627 C   0  0  0  0  0  0  0  0  0  0  0  0
   24.1770    5.3677   20.1706 C   0  0  0  0  0  0  0  0  0  0  0  0
   26.7879    3.3976   16.5797 O   0  0  0  0  0  0  0  0  0  0  0  0
   26.9570    4.5550   14.1992 O   0  0  0  0  0  0  0  0  0  0  0  0
   26.7023    2.1769   18.9597 O   0  0  0  0  0  0  0  0  0  0  0  0
   27.2331    3.8239   14.7162 H   0  0  0  0  0  0  0  0  0  0  0  0
   27.0528    2.1299   18.0920 H   0  0  0  0  0  0  0  0  0  0  0  0
   23.3160    6.4281   20.6551 N   0  0  0  0  0  0  0  0  0  0  0  0
   22.2403    6.1683   21.4607 O   0  0  0  0  0  0  0  0  0  0  0  0
   23.5784    7.7231   20.3034 O   0  0  0  0  0  0  0  0  0  0  0  0
  1  2  2  0  0  0
  1  6  1  0  0  0
  1 16  1  0  0  0
  2  3  1  0  0  0
  2 10  1  0  0  0
  3  4  2  0  0  0
  3  7  1  0  0  0
  4  5  1  0  0  0
  5  6  2  0  0  0
  7  8  1  0  0  0
  8  9  2  0  0  0
  8 14  1  0  0  0
  9 10  1  0  0  0
  9 11  1  0  0  0
 10 15  2  0  0  0
 11 12  2  0  0  0
 11 17  1  0  0  0
 12 13  1  0  0  0
 13 14  2  0  0  0
 14 20  1  0  0  0
 20 21  1  0  0  0
 20 22  2  0  0  0
 16 18  1  0  0  0
 17 19  1  0  0  0
M  CHG 1  20   1
M  CHG 1  21  -1
M  END
> <minimizedAffinity>
-8.01961

$$$$
