4MGD_27N_A_601


 21 22  0  0  0  0  0  0  0  0999 V2000
   -4.5389   -4.0143   21.9067 C   0  0  0  0  0  0  0  0  0  0  0  0
   -3.4854   -3.5266   19.7095 C   0  0  0  0  0  0  0  0  0  0  0  0
   -2.3909   -3.0390   18.9833 C   0  0  0  0  0  0  0  0  0  0  0  0
   -1.2850   -2.5226   19.6568 C   0  0  0  0  0  0  0  0  0  0  0  0
   -0.2258   -2.0400   18.9692 O   0  0  0  0  0  0  0  0  0  0  0  0
   -1.2642   -2.4785   21.0420 C   0  0  0  0  0  0  0  0  0  0  0  0
   -2.3462   -2.9761   21.7584 C   0  0  0  0  0  0  0  0  0  0  0  0
   -3.4748   -3.4870   21.1111 C   0  0  0  0  0  0  0  0  0  0  0  0
   -0.2254   -2.0630   18.0325 H   0  0  0  0  0  0  0  0  0  0  0  0
   -5.2322   -5.0879   21.2597 C   0  0  0  0  0  0  0  0  0  0  0  0
   -4.9466   -6.3982   21.6518 C   0  0  0  0  0  0  0  0  0  0  0  0
   -5.6108   -7.4666   21.0456 C   0  0  0  0  0  0  0  0  0  0  0  0
   -6.5621   -7.2419   20.0475 C   0  0  0  0  0  0  0  0  0  0  0  0
   -7.2071   -8.2966   19.4617 O   0  0  0  0  0  0  0  0  0  0  0  0
   -6.8583   -5.9388   19.6544 C   0  0  0  0  0  0  0  0  0  0  0  0
   -6.1906   -4.8713   20.2560 C   0  0  0  0  0  0  0  0  0  0  0  0
   -7.0078   -9.1731   19.7262 H   0  0  0  0  0  0  0  0  0  0  0  0
   -5.4887   -2.9990   22.6126 C   0  0  0  0  0  0  0  0  0  0  0  0
   -6.2098   -1.8545   21.4970 Cl  0  0  0  0  0  0  0  0  0  0  0  0
   -6.7793   -3.9597   23.4256 Cl  0  0  0  0  0  0  0  0  0  0  0  0
   -4.6435   -2.0718   23.8560 Cl  0  0  0  0  0  0  0  0  0  0  0  0
 19 18  1  0  0  0
 20 18  1  0  0  0
 18 21  1  0  0  0
 18  1  1  0  0  0
 12 11  2  0  0  0
 12 13  1  0  0  0
 14 13  1  0  0  0
 11 10  1  0  0  0
 13 15  2  0  0  0
 10  1  1  0  0  0
 10 16  2  0  0  0
 15 16  1  0  0  0
  1  8  1  0  0  0
  8  2  2  0  0  0
  8  7  1  0  0  0
  2  3  1  0  0  0
  3  4  2  0  0  0
  7  6  2  0  0  0
  4  6  1  0  0  0
  4  5  1  0  0  0
  5  9  1  0  0  0
 14 17  1  0  0  0
M  END
> <minimizedAffinity>
-9.08885

$$$$
4MGD_27N_A_601


 21 22  0  0  0  0  0  0  0  0999 V2000
   -4.4711   -4.0135   21.9552 C   0  0  0  0  0  0  0  0  0  0  0  0
   -3.4344   -3.5062   19.7544 C   0  0  0  0  0  0  0  0  0  0  0  0
   -2.3454   -3.0122   19.0243 C   0  0  0  0  0  0  0  0  0  0  0  0
   -1.2343   -2.5021   19.6939 C   0  0  0  0  0  0  0  0  0  0  0  0
   -0.1802   -2.0135   19.0026 O   0  0  0  0  0  0  0  0  0  0  0  0
   -1.2029   -2.4704   21.0793 C   0  0  0  0  0  0  0  0  0  0  0  0
   -2.2795   -2.9743   21.7995 C   0  0  0  0  0  0  0  0  0  0  0  0
   -3.4131   -3.4793   21.1562 C   0  0  0  0  0  0  0  0  0  0  0  0
   -0.1870   -2.0281   18.0658 H   0  0  0  0  0  0  0  0  0  0  0  0
   -5.1714   -5.0793   21.3027 C   0  0  0  0  0  0  0  0  0  0  0  0
   -4.9295   -6.3903   21.7208 C   0  0  0  0  0  0  0  0  0  0  0  0
   -5.6017   -7.4510   21.1099 C   0  0  0  0  0  0  0  0  0  0  0  0
   -6.5179   -7.2177   20.0813 C   0  0  0  0  0  0  0  0  0  0  0  0
   -7.1712   -8.2649   19.4912 O   0  0  0  0  0  0  0  0  0  0  0  0
   -6.7705   -5.9136   19.6620 C   0  0  0  0  0  0  0  0  0  0  0  0
   -6.0947   -4.8540   20.2684 C   0  0  0  0  0  0  0  0  0  0  0  0
   -7.0012   -9.1421   19.7733 H   0  0  0  0  0  0  0  0  0  0  0  0
   -5.4135   -3.0044   22.6798 C   0  0  0  0  0  0  0  0  0  0  0  0
   -6.7790   -3.7857   23.4540 Cl  0  0  0  0  0  0  0  0  0  0  0  0
   -4.4189   -2.1440   23.9126 Cl  0  0  0  0  0  0  0  0  0  0  0  0
   -6.0537   -1.7940   21.5640 Cl  0  0  0  0  0  0  0  0  0  0  0  0
 19 18  1  0  0  0
 20 18  1  0  0  0
 18 21  1  0  0  0
 18  1  1  0  0  0
 12 11  2  0  0  0
 12 13  1  0  0  0
 14 13  1  0  0  0
 11 10  1  0  0  0
 13 15  2  0  0  0
 10  1  1  0  0  0
 10 16  2  0  0  0
 15 16  1  0  0  0
  1  8  1  0  0  0
  8  2  2  0  0  0
  8  7  1  0  0  0
  2  3  1  0  0  0
  3  4  2  0  0  0
  7  6  2  0  0  0
  4  6  1  0  0  0
  4  5  1  0  0  0
  5  9  1  0  0  0
 14 17  1  0  0  0
M  END
> <minimizedAffinity>
-9.03044

$$$$
4MGD_27N_A_601


 21 22  0  0  0  0  0  0  0  0999 V2000
   -4.9858   -3.4165   21.1799 C   0  0  0  0  0  0  0  0  0  0  0  0
   -4.7379   -5.8347   21.6962 C   0  0  0  0  0  0  0  0  0  0  0  0
   -5.2005   -7.1488   21.5476 C   0  0  0  0  0  0  0  0  0  0  0  0
   -6.3515   -7.3998   20.8022 C   0  0  0  0  0  0  0  0  0  0  0  0
   -6.8148   -8.6617   20.6581 O   0  0  0  0  0  0  0  0  0  0  0  0
   -7.0488   -6.3561   20.2143 C   0  0  0  0  0  0  0  0  0  0  0  0
   -6.5784   -5.0557   20.3527 C   0  0  0  0  0  0  0  0  0  0  0  0
   -5.4354   -4.7713   21.1055 C   0  0  0  0  0  0  0  0  0  0  0  0
   -6.3542   -9.3775   21.0497 H   0  0  0  0  0  0  0  0  0  0  0  0
   -3.5576   -3.3075   21.1697 C   0  0  0  0  0  0  0  0  0  0  0  0
   -2.9121   -3.1192   19.9450 C   0  0  0  0  0  0  0  0  0  0  0  0
   -1.5212   -3.0019   19.9019 C   0  0  0  0  0  0  0  0  0  0  0  0
   -0.7626   -3.0702   21.0730 C   0  0  0  0  0  0  0  0  0  0  0  0
    0.5994   -2.9528   21.0185 O   0  0  0  0  0  0  0  0  0  0  0  0
   -1.3976   -3.2513   22.2995 C   0  0  0  0  0  0  0  0  0  0  0  0
   -2.7869   -3.3742   22.3422 C   0  0  0  0  0  0  0  0  0  0  0  0
    1.0265   -2.8310   20.1934 H   0  0  0  0  0  0  0  0  0  0  0  0
   -5.6716   -2.4807   22.2218 C   0  0  0  0  0  0  0  0  0  0  0  0
   -4.5896   -1.2502   22.8457 Cl  0  0  0  0  0  0  0  0  0  0  0  0
   -7.0718   -1.7040   21.3938 Cl  0  0  0  0  0  0  0  0  0  0  0  0
   -6.2980   -3.3894   23.6010 Cl  0  0  0  0  0  0  0  0  0  0  0  0
 19 18  1  0  0  0
 20 18  1  0  0  0
 18 21  1  0  0  0
 18  1  1  0  0  0
 12 11  2  0  0  0
 12 13  1  0  0  0
 14 13  1  0  0  0
 11 10  1  0  0  0
 13 15  2  0  0  0
 10  1  1  0  0  0
 10 16  2  0  0  0
 15 16  1  0  0  0
  1  8  1  0  0  0
  8  2  2  0  0  0
  8  7  1  0  0  0
  2  3  1  0  0  0
  3  4  2  0  0  0
  7  6  2  0  0  0
  4  6  1  0  0  0
  4  5  1  0  0  0
  5  9  1  0  0  0
 14 17  1  0  0  0
M  END
> <minimizedAffinity>
-8.75000

$$$$
4MGD_27N_A_601


 21 22  0  0  0  0  0  0  0  0999 V2000
   -4.6539   -3.3356   21.1615 C   0  0  0  0  0  0  0  0  0  0  0  0
   -6.0620   -5.1856   20.2838 C   0  0  0  0  0  0  0  0  0  0  0  0
   -6.3870   -6.5484   20.2752 C   0  0  0  0  0  0  0  0  0  0  0  0
   -5.6594   -7.4409   21.0608 C   0  0  0  0  0  0  0  0  0  0  0  0
   -5.9555   -8.7600   21.0554 O   0  0  0  0  0  0  0  0  0  0  0  0
   -4.6082   -6.9910   21.8442 C   0  0  0  0  0  0  0  0  0  0  0  0
   -4.2983   -5.6362   21.8603 C   0  0  0  0  0  0  0  0  0  0  0  0
   -5.0007   -4.7195   21.0728 C   0  0  0  0  0  0  0  0  0  0  0  0
   -6.6633   -9.0791   20.5308 H   0  0  0  0  0  0  0  0  0  0  0  0
   -3.2386   -3.1177   21.1226 C   0  0  0  0  0  0  0  0  0  0  0  0
   -2.6143   -3.0114   19.8773 C   0  0  0  0  0  0  0  0  0  0  0  0
   -1.2371   -2.7915   19.8054 C   0  0  0  0  0  0  0  0  0  0  0  0
   -0.4713   -2.6754   20.9680 C   0  0  0  0  0  0  0  0  0  0  0  0
    0.8770   -2.4590   20.8850 O   0  0  0  0  0  0  0  0  0  0  0  0
   -1.0857   -2.7736   22.2143 C   0  0  0  0  0  0  0  0  0  0  0  0
   -2.4609   -2.9989   22.2863 C   0  0  0  0  0  0  0  0  0  0  0  0
    1.2902   -2.3930   20.0467 H   0  0  0  0  0  0  0  0  0  0  0  0
   -5.3851   -2.4717   22.2340 C   0  0  0  0  0  0  0  0  0  0  0  0
   -4.3904   -1.1643   22.8468 Cl  0  0  0  0  0  0  0  0  0  0  0  0
   -6.8659   -1.8024   21.4539 Cl  0  0  0  0  0  0  0  0  0  0  0  0
   -5.8975   -3.4451   23.6161 Cl  0  0  0  0  0  0  0  0  0  0  0  0
 19 18  1  0  0  0
 20 18  1  0  0  0
 18 21  1  0  0  0
 18  1  1  0  0  0
 12 11  2  0  0  0
 12 13  1  0  0  0
 14 13  1  0  0  0
 11 10  1  0  0  0
 13 15  2  0  0  0
 10  1  1  0  0  0
 10 16  2  0  0  0
 15 16  1  0  0  0
  1  8  1  0  0  0
  8  2  2  0  0  0
  8  7  1  0  0  0
  2  3  1  0  0  0
  3  4  2  0  0  0
  7  6  2  0  0  0
  4  6  1  0  0  0
  4  5  1  0  0  0
  5  9  1  0  0  0
 14 17  1  0  0  0
M  END
> <minimizedAffinity>
-8.70219

$$$$
4MGD_27N_A_601


 21 22  0  0  0  0  0  0  0  0999 V2000
   -5.0002   -3.4358   21.6032 C   0  0  0  0  0  0  0  0  0  0  0  0
   -6.7336   -4.5988   20.2546 C   0  0  0  0  0  0  0  0  0  0  0  0
   -7.2769   -5.7963   19.7712 C   0  0  0  0  0  0  0  0  0  0  0  0
   -6.6667   -7.0108   20.0810 C   0  0  0  0  0  0  0  0  0  0  0  0
   -7.1744   -8.1734   19.6138 O   0  0  0  0  0  0  0  0  0  0  0  0
   -5.5186   -7.0419   20.8568 C   0  0  0  0  0  0  0  0  0  0  0  0
   -4.9911   -5.8527   21.3458 C   0  0  0  0  0  0  0  0  0  0  0  0
   -5.5725   -4.6187   21.0406 C   0  0  0  0  0  0  0  0  0  0  0  0
   -7.9500   -8.1683   19.0880 H   0  0  0  0  0  0  0  0  0  0  0  0
   -3.7488   -3.0871   20.9996 C   0  0  0  0  0  0  0  0  0  0  0  0
   -3.5846   -3.3085   19.6299 C   0  0  0  0  0  0  0  0  0  0  0  0
   -2.3792   -2.9725   19.0100 C   0  0  0  0  0  0  0  0  0  0  0  0
   -1.3301   -2.4146   19.7446 C   0  0  0  0  0  0  0  0  0  0  0  0
   -0.1542   -2.0884   19.1261 O   0  0  0  0  0  0  0  0  0  0  0  0
   -1.4866   -2.1840   21.1094 C   0  0  0  0  0  0  0  0  0  0  0  0
   -2.6889   -2.5250   21.7302 C   0  0  0  0  0  0  0  0  0  0  0  0
   -0.0490   -2.2435   18.2080 H   0  0  0  0  0  0  0  0  0  0  0  0
   -4.9990   -3.2986   23.1565 C   0  0  0  0  0  0  0  0  0  0  0  0
   -5.2672   -1.6510   23.6932 Cl  0  0  0  0  0  0  0  0  0  0  0  0
   -6.3076   -4.3686   23.7827 Cl  0  0  0  0  0  0  0  0  0  0  0  0
   -3.4734   -3.8466   23.8580 Cl  0  0  0  0  0  0  0  0  0  0  0  0
 19 18  1  0  0  0
 20 18  1  0  0  0
 18 21  1  0  0  0
 18  1  1  0  0  0
 12 11  2  0  0  0
 12 13  1  0  0  0
 14 13  1  0  0  0
 11 10  1  0  0  0
 13 15  2  0  0  0
 10  1  1  0  0  0
 10 16  2  0  0  0
 15 16  1  0  0  0
  1  8  1  0  0  0
  8  2  2  0  0  0
  8  7  1  0  0  0
  2  3  1  0  0  0
  3  4  2  0  0  0
  7  6  2  0  0  0
  4  6  1  0  0  0
  4  5  1  0  0  0
  5  9  1  0  0  0
 14 17  1  0  0  0
M  END
> <minimizedAffinity>
-7.88452

$$$$
4MGD_27N_A_601


 21 22  0  0  0  0  0  0  0  0999 V2000
   -3.8062   -4.1816   21.5264 C   0  0  0  0  0  0  0  0  0  0  0  0
   -5.5802   -4.9878   19.9842 C   0  0  0  0  0  0  0  0  0  0  0  0
   -6.3986   -6.0327   19.5354 C   0  0  0  0  0  0  0  0  0  0  0  0
   -6.2782   -7.3011   20.1009 C   0  0  0  0  0  0  0  0  0  0  0  0
   -7.0548   -8.3211   19.6715 O   0  0  0  0  0  0  0  0  0  0  0  0
   -5.3461   -7.5395   21.0986 C   0  0  0  0  0  0  0  0  0  0  0  0
   -4.5459   -6.4967   21.5502 C   0  0  0  0  0  0  0  0  0  0  0  0
   -4.6339   -5.2177   20.9931 C   0  0  0  0  0  0  0  0  0  0  0  0
   -7.6894   -8.1753   18.9977 H   0  0  0  0  0  0  0  0  0  0  0  0
   -4.5581   -3.1688   22.2052 C   0  0  0  0  0  0  0  0  0  0  0  0
   -4.3740   -3.0112   23.5811 C   0  0  0  0  0  0  0  0  0  0  0  0
   -5.0866   -2.0280   24.2708 C   0  0  0  0  0  0  0  0  0  0  0  0
   -5.9855   -1.1952   23.5999 C   0  0  0  0  0  0  0  0  0  0  0  0
   -6.6772   -0.2347   24.2860 O   0  0  0  0  0  0  0  0  0  0  0  0
   -6.1712   -1.3404   22.2270 C   0  0  0  0  0  0  0  0  0  0  0  0
   -5.4634   -2.3266   21.5387 C   0  0  0  0  0  0  0  0  0  0  0  0
   -6.5523   -0.1371   25.2095 H   0  0  0  0  0  0  0  0  0  0  0  0
   -2.6801   -3.6097   20.6120 C   0  0  0  0  0  0  0  0  0  0  0  0
   -3.2678   -3.1253   19.0326 Cl  0  0  0  0  0  0  0  0  0  0  0  0
   -1.9758   -2.1877   21.4672 Cl  0  0  0  0  0  0  0  0  0  0  0  0
   -1.3843   -4.7838   20.3620 Cl  0  0  0  0  0  0  0  0  0  0  0  0
 19 18  1  0  0  0
 20 18  1  0  0  0
 18 21  1  0  0  0
 18  1  1  0  0  0
 12 11  2  0  0  0
 12 13  1  0  0  0
 14 13  1  0  0  0
 11 10  1  0  0  0
 13 15  2  0  0  0
 10  1  1  0  0  0
 10 16  2  0  0  0
 15 16  1  0  0  0
  1  8  1  0  0  0
  8  2  2  0  0  0
  8  7  1  0  0  0
  2  3  1  0  0  0
  3  4  2  0  0  0
  7  6  2  0  0  0
  4  6  1  0  0  0
  4  5  1  0  0  0
  5  9  1  0  0  0
 14 17  1  0  0  0
M  END
> <minimizedAffinity>
-7.81658

$$$$
4MGD_27N_A_601


 21 22  0  0  0  0  0  0  0  0999 V2000
   -3.7984   -3.6389   21.1322 C   0  0  0  0  0  0  0  0  0  0  0  0
   -4.2254   -2.5769   23.3380 C   0  0  0  0  0  0  0  0  0  0  0  0
   -5.0004   -1.7180   24.1284 C   0  0  0  0  0  0  0  0  0  0  0  0
   -6.0737   -1.0322   23.5618 C   0  0  0  0  0  0  0  0  0  0  0  0
   -6.8245   -0.1930   24.3100 O   0  0  0  0  0  0  0  0  0  0  0  0
   -6.3743   -1.1860   22.2175 C   0  0  0  0  0  0  0  0  0  0  0  0
   -5.6114   -2.0497   21.4406 C   0  0  0  0  0  0  0  0  0  0  0  0
   -4.5208   -2.7402   21.9770 C   0  0  0  0  0  0  0  0  0  0  0  0
   -6.6334   -0.0787   25.2201 H   0  0  0  0  0  0  0  0  0  0  0  0
   -4.4082   -4.9327   21.0534 C   0  0  0  0  0  0  0  0  0  0  0  0
   -5.2791   -5.1959   19.9930 C   0  0  0  0  0  0  0  0  0  0  0  0
   -5.8839   -6.4498   19.8837 C   0  0  0  0  0  0  0  0  0  0  0  0
   -5.6283   -7.4500   20.8249 C   0  0  0  0  0  0  0  0  0  0  0  0
   -6.2259   -8.6750   20.7067 O   0  0  0  0  0  0  0  0  0  0  0  0
   -4.7565   -7.1993   21.8820 C   0  0  0  0  0  0  0  0  0  0  0  0
   -4.1564   -5.9446   21.9946 C   0  0  0  0  0  0  0  0  0  0  0  0
   -6.8123   -8.8436   19.9956 H   0  0  0  0  0  0  0  0  0  0  0  0
   -2.2479   -3.6927   21.2878 C   0  0  0  0  0  0  0  0  0  0  0  0
   -1.4866   -4.7740   20.1365 Cl  0  0  0  0  0  0  0  0  0  0  0  0
   -1.6344   -2.0142   21.0514 Cl  0  0  0  0  0  0  0  0  0  0  0  0
   -1.7730   -4.2166   22.9064 Cl  0  0  0  0  0  0  0  0  0  0  0  0
 19 18  1  0  0  0
 20 18  1  0  0  0
 18 21  1  0  0  0
 18  1  1  0  0  0
 12 11  2  0  0  0
 12 13  1  0  0  0
 14 13  1  0  0  0
 11 10  1  0  0  0
 13 15  2  0  0  0
 10  1  1  0  0  0
 10 16  2  0  0  0
 15 16  1  0  0  0
  1  8  1  0  0  0
  8  2  2  0  0  0
  8  7  1  0  0  0
  2  3  1  0  0  0
  3  4  2  0  0  0
  7  6  2  0  0  0
  4  6  1  0  0  0
  4  5  1  0  0  0
  5  9  1  0  0  0
 14 17  1  0  0  0
M  END
> <minimizedAffinity>
-6.85313

$$$$
4MGD_27N_A_601


 21 22  0  0  0  0  0  0  0  0999 V2000
   -3.8388   -4.0415   21.9375 C   0  0  0  0  0  0  0  0  0  0  0  0
   -5.5786   -2.2792   21.7297 C   0  0  0  0  0  0  0  0  0  0  0  0
   -6.3587   -1.2837   22.3325 C   0  0  0  0  0  0  0  0  0  0  0  0
   -6.2492   -1.0498   23.7023 C   0  0  0  0  0  0  0  0  0  0  0  0
   -7.0024   -0.0989   24.2992 O   0  0  0  0  0  0  0  0  0  0  0  0
   -5.3800   -1.8030   24.4759 C   0  0  0  0  0  0  0  0  0  0  0  0
   -4.5980   -2.7800   23.8714 C   0  0  0  0  0  0  0  0  0  0  0  0
   -4.6959   -3.0470   22.5028 C   0  0  0  0  0  0  0  0  0  0  0  0
   -7.5945    0.4182   23.7893 H   0  0  0  0  0  0  0  0  0  0  0  0
   -2.8827   -3.4915   21.0236 C   0  0  0  0  0  0  0  0  0  0  0  0
   -1.7738   -2.8191   21.5434 C   0  0  0  0  0  0  0  0  0  0  0  0
   -0.8198   -2.2779   20.6791 C   0  0  0  0  0  0  0  0  0  0  0  0
   -0.9597   -2.4006   19.2946 C   0  0  0  0  0  0  0  0  0  0  0  0
   -0.0179   -1.8672   18.4578 O   0  0  0  0  0  0  0  0  0  0  0  0
   -2.0586   -3.0748   18.7670 C   0  0  0  0  0  0  0  0  0  0  0  0
   -3.0149   -3.6108   19.6303 C   0  0  0  0  0  0  0  0  0  0  0  0
    0.7212   -1.4137   18.8128 H   0  0  0  0  0  0  0  0  0  0  0  0
   -4.4958   -5.3608   21.4282 C   0  0  0  0  0  0  0  0  0  0  0  0
   -3.3670   -6.7010   21.3636 Cl  0  0  0  0  0  0  0  0  0  0  0  0
   -5.8458   -5.7494   22.5577 Cl  0  0  0  0  0  0  0  0  0  0  0  0
   -5.1841   -5.1648   19.8133 Cl  0  0  0  0  0  0  0  0  0  0  0  0
 19 18  1  0  0  0
 20 18  1  0  0  0
 18 21  1  0  0  0
 18  1  1  0  0  0
 12 11  2  0  0  0
 12 13  1  0  0  0
 14 13  1  0  0  0
 11 10  1  0  0  0
 13 15  2  0  0  0
 10  1  1  0  0  0
 10 16  2  0  0  0
 15 16  1  0  0  0
  1  8  1  0  0  0
  8  2  2  0  0  0
  8  7  1  0  0  0
  2  3  1  0  0  0
  3  4  2  0  0  0
  7  6  2  0  0  0
  4  6  1  0  0  0
  4  5  1  0  0  0
  5  9  1  0  0  0
 14 17  1  0  0  0
M  END
> <minimizedAffinity>
-6.61104

$$$$
4MGD_27N_A_601


 21 22  0  0  0  0  0  0  0  0999 V2000
   -4.9116   -3.1574   21.4468 C   0  0  0  0  0  0  0  0  0  0  0  0
   -5.8085   -4.8362   19.8490 C   0  0  0  0  0  0  0  0  0  0  0  0
   -6.2861   -6.1312   19.6088 C   0  0  0  0  0  0  0  0  0  0  0  0
   -6.3270   -7.0602   20.6473 C   0  0  0  0  0  0  0  0  0  0  0  0
   -6.7766   -8.3162   20.4281 O   0  0  0  0  0  0  0  0  0  0  0  0
   -5.8884   -6.7148   21.9159 C   0  0  0  0  0  0  0  0  0  0  0  0
   -5.4285   -5.4249   22.1530 C   0  0  0  0  0  0  0  0  0  0  0  0
   -5.3625   -4.4760   21.1287 C   0  0  0  0  0  0  0  0  0  0  0  0
   -7.0763   -8.5644   19.5757 H   0  0  0  0  0  0  0  0  0  0  0  0
   -3.6111   -2.8758   20.9164 C   0  0  0  0  0  0  0  0  0  0  0  0
   -2.6906   -2.2073   21.7274 C   0  0  0  0  0  0  0  0  0  0  0  0
   -1.4120   -1.9245   21.2424 C   0  0  0  0  0  0  0  0  0  0  0  0
   -1.0387   -2.3032   19.9506 C   0  0  0  0  0  0  0  0  0  0  0  0
    0.2172   -2.0217   19.4868 O   0  0  0  0  0  0  0  0  0  0  0  0
   -1.9473   -2.9758   19.1367 C   0  0  0  0  0  0  0  0  0  0  0  0
   -3.2269   -3.2535   19.6191 C   0  0  0  0  0  0  0  0  0  0  0  0
    0.8283   -1.5692   20.0344 H   0  0  0  0  0  0  0  0  0  0  0  0
   -5.1055   -2.6579   22.9111 C   0  0  0  0  0  0  0  0  0  0  0  0
   -6.5144   -3.3567   23.6864 Cl  0  0  0  0  0  0  0  0  0  0  0  0
   -3.6172   -3.1060   23.8240 Cl  0  0  0  0  0  0  0  0  0  0  0  0
   -5.2732   -0.9010   22.9836 Cl  0  0  0  0  0  0  0  0  0  0  0  0
 19 18  1  0  0  0
 20 18  1  0  0  0
 18 21  1  0  0  0
 18  1  1  0  0  0
 12 11  2  0  0  0
 12 13  1  0  0  0
 14 13  1  0  0  0
 11 10  1  0  0  0
 13 15  2  0  0  0
 10  1  1  0  0  0
 10 16  2  0  0  0
 15 16  1  0  0  0
  1  8  1  0  0  0
  8  2  2  0  0  0
  8  7  1  0  0  0
  2  3  1  0  0  0
  3  4  2  0  0  0
  7  6  2  0  0  0
  4  6  1  0  0  0
  4  5  1  0  0  0
  5  9  1  0  0  0
 14 17  1  0  0  0
M  END
> <minimizedAffinity>
-6.58559

$$$$
4MGD_27N_A_601


 21 22  0  0  0  0  0  0  0  0999 V2000
   -3.9871   -4.3479   22.4568 C   0  0  0  0  0  0  0  0  0  0  0  0
   -5.4609   -3.4021   24.2201 C   0  0  0  0  0  0  0  0  0  0  0  0
   -6.2600   -2.3472   24.6799 C   0  0  0  0  0  0  0  0  0  0  0  0
   -6.3824   -1.1857   23.9188 C   0  0  0  0  0  0  0  0  0  0  0  0
   -7.1426   -0.1560   24.3544 O   0  0  0  0  0  0  0  0  0  0  0  0
   -5.7101   -1.0623   22.7131 C   0  0  0  0  0  0  0  0  0  0  0  0
   -4.9296   -2.1167   22.2542 C   0  0  0  0  0  0  0  0  0  0  0  0
   -4.7764   -3.2880   23.0016 C   0  0  0  0  0  0  0  0  0  0  0  0
   -7.6030   -0.2247   25.1675 H   0  0  0  0  0  0  0  0  0  0  0  0
   -2.6976   -3.9058   22.0167 C   0  0  0  0  0  0  0  0  0  0  0  0
   -2.1579   -4.4719   20.8591 C   0  0  0  0  0  0  0  0  0  0  0  0
   -0.9061   -4.0571   20.3996 C   0  0  0  0  0  0  0  0  0  0  0  0
   -0.1825   -3.0784   21.0853 C   0  0  0  0  0  0  0  0  0  0  0  0
    1.0424   -2.6793   20.6250 O   0  0  0  0  0  0  0  0  0  0  0  0
   -0.7151   -2.5035   22.2369 C   0  0  0  0  0  0  0  0  0  0  0  0
   -1.9634   -2.9218   22.6994 C   0  0  0  0  0  0  0  0  0  0  0  0
    1.4006   -3.0661   19.8503 H   0  0  0  0  0  0  0  0  0  0  0  0
   -4.6785   -5.3302   21.4626 C   0  0  0  0  0  0  0  0  0  0  0  0
   -4.6186   -4.7702   19.8021 Cl  0  0  0  0  0  0  0  0  0  0  0  0
   -3.8290   -6.9136   21.6072 Cl  0  0  0  0  0  0  0  0  0  0  0  0
   -6.3757   -5.5898   21.8772 Cl  0  0  0  0  0  0  0  0  0  0  0  0
 19 18  1  0  0  0
 20 18  1  0  0  0
 18 21  1  0  0  0
 18  1  1  0  0  0
 12 11  2  0  0  0
 12 13  1  0  0  0
 14 13  1  0  0  0
 11 10  1  0  0  0
 13 15  2  0  0  0
 10  1  1  0  0  0
 10 16  2  0  0  0
 15 16  1  0  0  0
  1  8  1  0  0  0
  8  2  2  0  0  0
  8  7  1  0  0  0
  2  3  1  0  0  0
  3  4  2  0  0  0
  7  6  2  0  0  0
  4  6  1  0  0  0
  4  5  1  0  0  0
  5  9  1  0  0  0
 14 17  1  0  0  0
M  END
> <minimizedAffinity>
-6.24586

$$$$
