3NYD_3NY_A_317


 13 14  0  0  0  0  0  0  0  0999 V2000
   21.3984   -1.8658  -22.5884 N   0  0  0  0  0  0  0  0  0  0  0  0
   22.3195   -1.3766  -23.5564 N   0  0  0  0  0  0  0  0  0  0  0  0
   23.5761   -1.5563  -23.0316 N   0  0  0  0  0  0  0  0  0  0  0  0
   24.3643   -2.3165  -20.8633 C   0  0  0  0  0  0  0  0  0  0  0  0
   24.0179   -2.8363  -19.6046 C   0  0  0  0  0  0  0  0  0  0  0  0
   22.6744   -3.0957  -19.3164 C   0  0  0  0  0  0  0  0  0  0  0  0
   21.7035   -2.8045  -20.2632 C   0  0  0  0  0  0  0  0  0  0  0  0
   23.4107   -2.0384  -21.8205 C   0  0  0  0  0  0  0  0  0  0  0  0
   22.0527   -2.2178  -21.4910 C   0  0  0  0  0  0  0  0  0  0  0  0
   20.4243   -1.9326  -22.7145 H   0  0  0  0  0  0  0  0  0  0  0  0
   25.5455   -2.3278  -17.9915 O   0  0  0  0  0  0  0  0  0  0  0  0
   25.2423   -4.3841  -18.4080 O   0  0  0  0  0  0  0  0  0  0  0  0
   24.9935   -3.1913  -18.6452 N   0  0  0  0  0  0  0  0  0  0  0  0
  1  2  1  0  0  0
  1  9  1  0  0  0
  2  3  2  0  0  0
  3  8  1  0  0  0
  4  5  2  0  0  0
  5 13  1  0  0  0
  6  5  1  0  0  0
  7  6  2  0  0  0
  8  4  1  0  0  0
  9  7  1  0  0  0
  9  8  2  0  0  0
 13 11  2  0  0  0
 13 12  1  0  0  0
  1 10  1  0  0  0
M  CHG 1  12  -1
M  CHG 1  13   1
M  END
> <minimizedAffinity>
-6.48857

$$$$
3NYD_3NY_A_317


 13 14  0  0  0  0  0  0  0  0999 V2000
   24.7300   -2.9394  -18.8367 N   0  0  0  0  0  0  0  0  0  0  0  0
   23.5725   -3.4097  -18.1556 N   0  0  0  0  0  0  0  0  0  0  0  0
   22.5298   -3.3269  -19.0459 N   0  0  0  0  0  0  0  0  0  0  0  0
   22.3465   -2.4169  -21.2907 C   0  0  0  0  0  0  0  0  0  0  0  0
   23.0176   -1.8370  -22.3806 C   0  0  0  0  0  0  0  0  0  0  0  0
   24.3993   -1.6348  -22.3059 C   0  0  0  0  0  0  0  0  0  0  0  0
   25.0787   -1.9779  -21.1464 C   0  0  0  0  0  0  0  0  0  0  0  0
   23.0126   -2.7786  -20.1381 C   0  0  0  0  0  0  0  0  0  0  0  0
   24.3877   -2.4899  -20.0355 C   0  0  0  0  0  0  0  0  0  0  0  0
   25.6449   -2.9469  -18.4732 H   0  0  0  0  0  0  0  0  0  0  0  0
   22.7389   -0.5995  -24.2741 O   0  0  0  0  0  0  0  0  0  0  0  0
   21.4313   -2.2463  -24.0062 O   0  0  0  0  0  0  0  0  0  0  0  0
   22.3562   -1.5297  -23.5915 N   0  0  0  0  0  0  0  0  0  0  0  0
  1  2  1  0  0  0
  1  9  1  0  0  0
  2  3  2  0  0  0
  3  8  1  0  0  0
  4  5  2  0  0  0
  5 13  1  0  0  0
  6  5  1  0  0  0
  7  6  2  0  0  0
  8  4  1  0  0  0
  9  7  1  0  0  0
  9  8  2  0  0  0
 13 11  2  0  0  0
 13 12  1  0  0  0
  1 10  1  0  0  0
M  CHG 1  12  -1
M  CHG 1  13   1
M  END
> <minimizedAffinity>
-6.37758

$$$$
3NYD_3NY_A_317


 13 14  0  0  0  0  0  0  0  0999 V2000
   23.3778   -1.2355  -23.8232 N   0  0  0  0  0  0  0  0  0  0  0  0
   21.9892   -1.4917  -23.9993 N   0  0  0  0  0  0  0  0  0  0  0  0
   21.5282   -2.0020  -22.8102 N   0  0  0  0  0  0  0  0  0  0  0  0
   22.6419   -2.6437  -20.7490 C   0  0  0  0  0  0  0  0  0  0  0  0
   23.8492   -2.6867  -20.0314 C   0  0  0  0  0  0  0  0  0  0  0  0
   25.0098   -2.1645  -20.6107 C   0  0  0  0  0  0  0  0  0  0  0  0
   24.9581   -1.6441  -21.8954 C   0  0  0  0  0  0  0  0  0  0  0  0
   22.5726   -2.1135  -22.0206 C   0  0  0  0  0  0  0  0  0  0  0  0
   23.7622   -1.6715  -22.6322 C   0  0  0  0  0  0  0  0  0  0  0  0
   23.9633   -0.8009  -24.4848 H   0  0  0  0  0  0  0  0  0  0  0  0
   22.9419   -3.6843  -18.1940 O   0  0  0  0  0  0  0  0  0  0  0  0
   24.9812   -3.1198  -18.0673 O   0  0  0  0  0  0  0  0  0  0  0  0
   23.9151   -3.1621  -18.7017 N   0  0  0  0  0  0  0  0  0  0  0  0
  1  2  1  0  0  0
  1  9  1  0  0  0
  2  3  2  0  0  0
  3  8  1  0  0  0
  4  5  2  0  0  0
  5 13  1  0  0  0
  6  5  1  0  0  0
  7  6  2  0  0  0
  8  4  1  0  0  0
  9  7  1  0  0  0
  9  8  2  0  0  0
 13 11  2  0  0  0
 13 12  1  0  0  0
  1 10  1  0  0  0
M  CHG 1  12  -1
M  CHG 1  13   1
M  END
> <minimizedAffinity>
-6.28178

$$$$
3NYD_3NY_A_317


 13 14  0  0  0  0  0  0  0  0999 V2000
   23.2759   -3.2352  -18.4802 N   0  0  0  0  0  0  0  0  0  0  0  0
   24.6899   -3.1649  -18.3370 N   0  0  0  0  0  0  0  0  0  0  0  0
   25.1819   -2.6656  -19.5183 N   0  0  0  0  0  0  0  0  0  0  0  0
   24.1367   -2.1303  -21.6447 C   0  0  0  0  0  0  0  0  0  0  0  0
   22.9381   -2.0296  -22.3711 C   0  0  0  0  0  0  0  0  0  0  0  0
   21.7261   -2.3213  -21.7375 C   0  0  0  0  0  0  0  0  0  0  0  0
   21.7292   -2.7375  -20.4144 C   0  0  0  0  0  0  0  0  0  0  0  0
   24.1528   -2.5263  -20.3234 C   0  0  0  0  0  0  0  0  0  0  0  0
   22.9381   -2.9047  -19.7184 C   0  0  0  0  0  0  0  0  0  0  0  0
   22.6452   -3.4902  -17.7686 H   0  0  0  0  0  0  0  0  0  0  0  0
   22.5464   -2.2920  -24.6009 O   0  0  0  0  0  0  0  0  0  0  0  0
   23.1690   -0.3703  -23.9586 O   0  0  0  0  0  0  0  0  0  0  0  0
   22.9053   -1.5560  -23.7026 N   0  0  0  0  0  0  0  0  0  0  0  0
  1  2  1  0  0  0
  1  9  1  0  0  0
  2  3  2  0  0  0
  3  8  1  0  0  0
  4  5  2  0  0  0
  5 13  1  0  0  0
  6  5  1  0  0  0
  7  6  2  0  0  0
  8  4  1  0  0  0
  9  7  1  0  0  0
  9  8  2  0  0  0
 13 11  2  0  0  0
 13 12  1  0  0  0
  1 10  1  0  0  0
M  CHG 1  12  -1
M  CHG 1  13   1
M  END
> <minimizedAffinity>
-6.00312

$$$$
3NYD_3NY_A_317


 13 14  0  0  0  0  0  0  0  0999 V2000
   21.9679   -1.1347  -23.4504 N   0  0  0  0  0  0  0  0  0  0  0  0
   23.1745   -0.6855  -24.0563 N   0  0  0  0  0  0  0  0  0  0  0  0
   24.2021   -1.1006  -23.2447 N   0  0  0  0  0  0  0  0  0  0  0  0
   24.2519   -2.1921  -21.0752 C   0  0  0  0  0  0  0  0  0  0  0  0
   23.5065   -2.7858  -20.0425 C   0  0  0  0  0  0  0  0  0  0  0  0
   22.1164   -2.8757  -20.1650 C   0  0  0  0  0  0  0  0  0  0  0  0
   21.4933   -2.3479  -21.2863 C   0  0  0  0  0  0  0  0  0  0  0  0
   23.6468   -1.6786  -22.2035 C   0  0  0  0  0  0  0  0  0  0  0  0
   22.2400   -1.6920  -22.2792 C   0  0  0  0  0  0  0  0  0  0  0  0
   21.0688   -1.0452  -23.8413 H   0  0  0  0  0  0  0  0  0  0  0  0
   25.2864   -3.7271  -18.9748 O   0  0  0  0  0  0  0  0  0  0  0  0
   23.5120   -3.4803  -17.8416 O   0  0  0  0  0  0  0  0  0  0  0  0
   24.1234   -3.3783  -18.9171 N   0  0  0  0  0  0  0  0  0  0  0  0
  1  2  1  0  0  0
  1  9  1  0  0  0
  2  3  2  0  0  0
  3  8  1  0  0  0
  4  5  2  0  0  0
  5 13  1  0  0  0
  6  5  1  0  0  0
  7  6  2  0  0  0
  8  4  1  0  0  0
  9  7  1  0  0  0
  9  8  2  0  0  0
 13 11  2  0  0  0
 13 12  1  0  0  0
  1 10  1  0  0  0
M  CHG 1  12  -1
M  CHG 1  13   1
M  END
> <minimizedAffinity>
-5.21113

$$$$
