5NKG_8ZK_A_1001


 38 41  0  0  0  0  0  0  0  0999 V2000
  -83.6419  -14.2839    7.4510 C   0  0  0  0  0  0  0  0  0  0  0  0
  -84.9376  -14.2976    6.9242 C   0  0  0  0  0  0  0  0  0  0  0  0
  -82.5795  -14.6875    6.6560 C   0  0  0  0  0  0  0  0  0  0  0  0
  -82.7731  -15.1488    5.3693 C   0  0  0  0  0  0  0  0  0  0  0  0
  -84.0667  -15.1553    4.8601 C   0  0  0  0  0  0  0  0  0  0  0  0
  -85.1402  -14.7202    5.6130 C   0  0  0  0  0  0  0  0  0  0  0  0
  -83.7286  -14.1765    9.8671 N   0  0  0  0  0  0  0  0  0  0  0  0
  -83.2851  -13.7616    8.6975 C   0  0  0  0  0  0  0  0  0  0  0  0
  -82.4516  -12.8573    8.6976 O   0  0  0  0  0  0  0  0  0  0  0  0
  -83.3155  -13.6949   10.6199 H   0  0  0  0  0  0  0  0  0  0  0  0
  -85.8892  -14.2955   10.5170 C   0  0  0  0  0  0  0  0  0  0  0  0
  -85.5552  -13.2593   11.5894 C   0  0  0  0  0  0  0  0  0  0  0  0
  -85.3112  -13.9281   12.8753 N   0  0  0  0  0  0  0  0  0  0  0  0
  -84.1262  -14.7874   12.7113 C   0  0  0  0  0  0  0  0  0  0  0  0
  -84.2979  -15.8053   11.6041 C   0  0  0  0  0  0  0  0  0  0  0  0
  -84.6702  -15.1633   10.2981 C   0  0  0  0  0  0  0  0  0  0  0  0
  -86.1195  -14.4951   13.1314 H   0  0  0  0  0  0  0  0  0  0  0  0
  -81.6750  -15.5726    4.6126 C   0  0  0  0  0  0  0  0  0  0  0  0
  -80.4255  -15.9028    5.4177 C   0  0  0  0  0  0  0  0  0  0  0  0
  -86.3968  -14.7276    5.1596 N   0  0  0  0  0  0  0  0  0  0  0  0
  -86.5622  -14.3852    4.2515 H   0  0  0  0  0  0  0  0  0  0  0  0
  -87.4493  -15.1739    5.8670 C   0  0  0  0  0  0  0  0  0  0  0  0
  -87.3910  -16.1808    7.2796 S   0  0  0  0  0  0  0  0  0  0  0  0
  -88.6939  -14.8879    5.4682 N   0  0  0  0  0  0  0  0  0  0  0  0
  -89.6225  -15.4322    6.2967 C   0  0  0  0  0  0  0  0  0  0  0  0
  -89.1735  -16.1841    7.3513 C   0  0  0  0  0  0  0  0  0  0  0  0
  -89.8730  -16.8462    8.3812 C   0  0  0  0  0  0  0  0  0  0  0  0
  -89.2629  -17.0944    9.4289 O   0  0  0  0  0  0  0  0  0  0  0  0
  -91.1900  -17.1892    8.2325 N   0  0  0  0  0  0  0  0  0  0  0  0
  -91.6594  -16.9832    7.3920 H   0  0  0  0  0  0  0  0  0  0  0  0
  -91.8696  -17.8313    9.2720 C   0  0  0  0  0  0  0  0  0  0  0  0
  -92.5314  -17.0733   10.2395 C   0  0  0  0  0  0  0  0  0  0  0  0
  -92.5285  -15.3214   10.1638 Cl  0  0  0  0  0  0  0  0  0  0  0  0
  -93.2345  -17.7290   11.2584 C   0  0  0  0  0  0  0  0  0  0  0  0
  -93.2618  -19.1204   11.3297 C   0  0  0  0  0  0  0  0  0  0  0  0
  -92.6212  -19.8831   10.3574 C   0  0  0  0  0  0  0  0  0  0  0  0
  -91.9270  -19.2375    9.3202 C   0  0  0  0  0  0  0  0  0  0  0  0
  -91.2728  -20.0144    8.3584 C   0  0  0  0  0  0  0  0  0  0  0  0
 11 12  1  0  0  0
 11 16  1  0  0  0
 12 13  1  0  0  0
 16  7  1  0  0  0
 16 15  1  0  0  0
  7  8  1  0  0  0
 13 14  1  0  0  0
 15 14  1  0  0  0
  8  9  2  0  0  0
  8  1  1  0  0  0
  2  1  2  0  0  0
  2  6  1  0  0  0
  1  3  1  0  0  0
 20  6  1  0  0  0
 20 22  1  0  0  0
 24 22  2  0  0  0
 24 25  1  0  0  0
  6  5  2  0  0  0
 22 23  1  0  0  0
 25 26  2  0  0  0
  3  4  2  0  0  0
  5  4  1  0  0  0
 26 23  1  0  0  0
 26 27  1  0  0  0
  4 18  1  0  0  0
 38 37  1  0  0  0
 29 27  1  0  0  0
 29 31  1  0  0  0
 27 28  2  0  0  0
 18 19  1  0  0  0
 37 31  2  0  0  0
 37 36  1  0  0  0
 31 32  1  0  0  0
 36 35  2  0  0  0
 32 33  1  0  0  0
 32 34  2  0  0  0
 35 34  1  0  0  0
 13 17  1  0  0  0
  7 10  1  0  0  0
 20 21  1  0  0  0
 29 30  1  0  0  0
M  END
> <minimizedAffinity>
-10.47054

$$$$
5NKG_8ZK_A_1001


 38 41  0  0  0  0  0  0  0  0999 V2000
  -82.9052  -14.7704    4.9432 C   0  0  0  0  0  0  0  0  0  0  0  0
  -84.2537  -14.6840    4.5820 C   0  0  0  0  0  0  0  0  0  0  0  0
  -82.5672  -14.9349    6.2783 C   0  0  0  0  0  0  0  0  0  0  0  0
  -83.5281  -14.9685    7.2690 C   0  0  0  0  0  0  0  0  0  0  0  0
  -84.8639  -14.8824    6.8935 C   0  0  0  0  0  0  0  0  0  0  0  0
  -85.2340  -14.7600    5.5681 C   0  0  0  0  0  0  0  0  0  0  0  0
  -81.0937  -13.8292    3.6435 N   0  0  0  0  0  0  0  0  0  0  0  0
  -81.8346  -14.8415    4.0472 C   0  0  0  0  0  0  0  0  0  0  0  0
  -81.5386  -15.9601    3.6306 O   0  0  0  0  0  0  0  0  0  0  0  0
  -80.3667  -14.1099    3.0419 H   0  0  0  0  0  0  0  0  0  0  0  0
  -80.2041  -11.9555    2.7476 C   0  0  0  0  0  0  0  0  0  0  0  0
  -78.8304  -12.5998    2.9295 C   0  0  0  0  0  0  0  0  0  0  0  0
  -78.2015  -12.1022    4.1613 N   0  0  0  0  0  0  0  0  0  0  0  0
  -79.0407  -12.5314    5.2932 C   0  0  0  0  0  0  0  0  0  0  0  0
  -80.4648  -12.0304    5.1807 C   0  0  0  0  0  0  0  0  0  0  0  0
  -81.0993  -12.4177    3.8754 C   0  0  0  0  0  0  0  0  0  0  0  0
  -78.1450  -11.0841    4.1364 H   0  0  0  0  0  0  0  0  0  0  0  0
  -83.1400  -15.1078    8.6061 C   0  0  0  0  0  0  0  0  0  0  0  0
  -83.0283  -13.8040    9.3847 C   0  0  0  0  0  0  0  0  0  0  0  0
  -86.5067  -14.6596    5.1750 N   0  0  0  0  0  0  0  0  0  0  0  0
  -86.6914  -14.2123    4.3176 H   0  0  0  0  0  0  0  0  0  0  0  0
  -87.5508  -15.1319    5.8780 C   0  0  0  0  0  0  0  0  0  0  0  0
  -87.4733  -16.1272    7.2979 S   0  0  0  0  0  0  0  0  0  0  0  0
  -88.8003  -14.8851    5.4684 N   0  0  0  0  0  0  0  0  0  0  0  0
  -89.7186  -15.4509    6.2941 C   0  0  0  0  0  0  0  0  0  0  0  0
  -89.2554  -16.1823    7.3570 C   0  0  0  0  0  0  0  0  0  0  0  0
  -89.9427  -16.8576    8.3865 C   0  0  0  0  0  0  0  0  0  0  0  0
  -89.3242  -17.1070    9.4290 O   0  0  0  0  0  0  0  0  0  0  0  0
  -91.2572  -17.2121    8.2431 N   0  0  0  0  0  0  0  0  0  0  0  0
  -91.7334  -17.0051    7.4067 H   0  0  0  0  0  0  0  0  0  0  0  0
  -91.9247  -17.8674    9.2821 C   0  0  0  0  0  0  0  0  0  0  0  0
  -92.6004  -17.1225   10.2502 C   0  0  0  0  0  0  0  0  0  0  0  0
  -92.6300  -15.3708   10.1758 Cl  0  0  0  0  0  0  0  0  0  0  0  0
  -93.2911  -17.7919   11.2687 C   0  0  0  0  0  0  0  0  0  0  0  0
  -93.2926  -19.1836   11.3391 C   0  0  0  0  0  0  0  0  0  0  0  0
  -92.6380  -19.9336   10.3662 C   0  0  0  0  0  0  0  0  0  0  0  0
  -91.9561  -19.2745    9.3294 C   0  0  0  0  0  0  0  0  0  0  0  0
  -91.2877  -20.0385    8.3670 C   0  0  0  0  0  0  0  0  0  0  0  0
 11 12  1  0  0  0
 11 16  1  0  0  0
 12 13  1  0  0  0
 16  7  1  0  0  0
 16 15  1  0  0  0
  7  8  1  0  0  0
 13 14  1  0  0  0
 15 14  1  0  0  0
  8  9  2  0  0  0
  8  1  1  0  0  0
  2  1  2  0  0  0
  2  6  1  0  0  0
  1  3  1  0  0  0
 20  6  1  0  0  0
 20 22  1  0  0  0
 24 22  2  0  0  0
 24 25  1  0  0  0
  6  5  2  0  0  0
 22 23  1  0  0  0
 25 26  2  0  0  0
  3  4  2  0  0  0
  5  4  1  0  0  0
 26 23  1  0  0  0
 26 27  1  0  0  0
  4 18  1  0  0  0
 38 37  1  0  0  0
 29 27  1  0  0  0
 29 31  1  0  0  0
 27 28  2  0  0  0
 18 19  1  0  0  0
 37 31  2  0  0  0
 37 36  1  0  0  0
 31 32  1  0  0  0
 36 35  2  0  0  0
 32 33  1  0  0  0
 32 34  2  0  0  0
 35 34  1  0  0  0
 13 17  1  0  0  0
  7 10  1  0  0  0
 20 21  1  0  0  0
 29 30  1  0  0  0
M  END
> <minimizedAffinity>
-10.09448

$$$$
5NKG_8ZK_A_1001


 38 41  0  0  0  0  0  0  0  0999 V2000
  -84.0652  -14.4670    7.7662 C   0  0  0  0  0  0  0  0  0  0  0  0
  -85.2719  -14.5413    7.0628 C   0  0  0  0  0  0  0  0  0  0  0  0
  -82.8751  -14.7369    7.1069 C   0  0  0  0  0  0  0  0  0  0  0  0
  -82.8539  -15.1243    5.7820 C   0  0  0  0  0  0  0  0  0  0  0  0
  -84.0615  -15.1925    5.0967 C   0  0  0  0  0  0  0  0  0  0  0  0
  -85.2594  -14.8892    5.7145 C   0  0  0  0  0  0  0  0  0  0  0  0
  -84.5559  -14.4717   10.1360 N   0  0  0  0  0  0  0  0  0  0  0  0
  -83.9249  -14.0041    9.0777 C   0  0  0  0  0  0  0  0  0  0  0  0
  -83.1079  -13.1029    9.2592 O   0  0  0  0  0  0  0  0  0  0  0  0
  -84.2772  -14.0267   10.9688 H   0  0  0  0  0  0  0  0  0  0  0  0
  -86.7667  -14.6040   10.5823 C   0  0  0  0  0  0  0  0  0  0  0  0
  -86.5062  -13.7217   11.8026 C   0  0  0  0  0  0  0  0  0  0  0  0
  -86.3885  -14.5540   13.0082 N   0  0  0  0  0  0  0  0  0  0  0  0
  -85.2114  -15.4224   12.8354 C   0  0  0  0  0  0  0  0  0  0  0  0
  -85.3069  -16.2874   11.5967 C   0  0  0  0  0  0  0  0  0  0  0  0
  -85.5512  -15.4750   10.3569 C   0  0  0  0  0  0  0  0  0  0  0  0
  -87.2273  -15.1233   13.1213 H   0  0  0  0  0  0  0  0  0  0  0  0
  -81.6321  -15.4143    5.1644 C   0  0  0  0  0  0  0  0  0  0  0  0
  -80.5020  -15.7882    6.1139 C   0  0  0  0  0  0  0  0  0  0  0  0
  -86.4379  -14.9593    5.0896 N   0  0  0  0  0  0  0  0  0  0  0  0
  -86.4579  -14.7863    4.1206 H   0  0  0  0  0  0  0  0  0  0  0  0
  -87.5983  -15.2514    5.7023 C   0  0  0  0  0  0  0  0  0  0  0  0
  -87.7928  -16.1824    7.1542 S   0  0  0  0  0  0  0  0  0  0  0  0
  -88.7576  -14.8544    5.1652 N   0  0  0  0  0  0  0  0  0  0  0  0
  -89.8184  -15.2508    5.9153 C   0  0  0  0  0  0  0  0  0  0  0  0
  -89.5627  -15.9898    7.0412 C   0  0  0  0  0  0  0  0  0  0  0  0
  -90.4300  -16.5170    8.0200 C   0  0  0  0  0  0  0  0  0  0  0  0
  -91.5771  -16.0573    8.0855 O   0  0  0  0  0  0  0  0  0  0  0  0
  -90.0207  -17.5169    8.8608 N   0  0  0  0  0  0  0  0  0  0  0  0
  -89.1044  -17.8707    8.7940 H   0  0  0  0  0  0  0  0  0  0  0  0
  -90.9014  -18.0366    9.8142 C   0  0  0  0  0  0  0  0  0  0  0  0
  -91.6929  -19.1417    9.4968 C   0  0  0  0  0  0  0  0  0  0  0  0
  -91.5913  -19.8941    7.9161 Cl  0  0  0  0  0  0  0  0  0  0  0  0
  -92.5488  -19.6718   10.4709 C   0  0  0  0  0  0  0  0  0  0  0  0
  -92.6352  -19.0984   11.7380 C   0  0  0  0  0  0  0  0  0  0  0  0
  -91.8345  -18.0088   12.0685 C   0  0  0  0  0  0  0  0  0  0  0  0
  -90.9590  -17.4784   11.1059 C   0  0  0  0  0  0  0  0  0  0  0  0
  -90.1717  -16.3728   11.4440 C   0  0  0  0  0  0  0  0  0  0  0  0
 11 12  1  0  0  0
 11 16  1  0  0  0
 12 13  1  0  0  0
 16  7  1  0  0  0
 16 15  1  0  0  0
  7  8  1  0  0  0
 13 14  1  0  0  0
 15 14  1  0  0  0
  8  9  2  0  0  0
  8  1  1  0  0  0
  2  1  2  0  0  0
  2  6  1  0  0  0
  1  3  1  0  0  0
 20  6  1  0  0  0
 20 22  1  0  0  0
 24 22  2  0  0  0
 24 25  1  0  0  0
  6  5  2  0  0  0
 22 23  1  0  0  0
 25 26  2  0  0  0
  3  4  2  0  0  0
  5  4  1  0  0  0
 26 23  1  0  0  0
 26 27  1  0  0  0
  4 18  1  0  0  0
 38 37  1  0  0  0
 29 27  1  0  0  0
 29 31  1  0  0  0
 27 28  2  0  0  0
 18 19  1  0  0  0
 37 31  2  0  0  0
 37 36  1  0  0  0
 31 32  1  0  0  0
 36 35  2  0  0  0
 32 33  1  0  0  0
 32 34  2  0  0  0
 35 34  1  0  0  0
 13 17  1  0  0  0
  7 10  1  0  0  0
 20 21  1  0  0  0
 29 30  1  0  0  0
M  END
> <minimizedAffinity>
-9.86959

$$$$
5NKG_8ZK_A_1001


 38 41  0  0  0  0  0  0  0  0999 V2000
  -82.6309  -15.1793    5.1283 C   0  0  0  0  0  0  0  0  0  0  0  0
  -83.9656  -15.0489    4.7311 C   0  0  0  0  0  0  0  0  0  0  0  0
  -82.2817  -14.9057    6.4424 C   0  0  0  0  0  0  0  0  0  0  0  0
  -83.2119  -14.4608    7.3604 C   0  0  0  0  0  0  0  0  0  0  0  0
  -84.5345  -14.3373    6.9503 C   0  0  0  0  0  0  0  0  0  0  0  0
  -84.9206  -14.6423    5.6594 C   0  0  0  0  0  0  0  0  0  0  0  0
  -80.3596  -15.9096    4.7221 N   0  0  0  0  0  0  0  0  0  0  0  0
  -81.6031  -15.7023    4.3381 C   0  0  0  0  0  0  0  0  0  0  0  0
  -81.9032  -16.0324    3.1920 O   0  0  0  0  0  0  0  0  0  0  0  0
  -79.8110  -16.3235    4.0172 H   0  0  0  0  0  0  0  0  0  0  0  0
  -78.4325  -14.9226    5.3674 C   0  0  0  0  0  0  0  0  0  0  0  0
  -77.7106  -15.8331    4.3748 C   0  0  0  0  0  0  0  0  0  0  0  0
  -77.1487  -16.9958    5.0768 N   0  0  0  0  0  0  0  0  0  0  0  0
  -78.2743  -17.7629    5.6374 C   0  0  0  0  0  0  0  0  0  0  0  0
  -79.1294  -16.9358    6.5736 C   0  0  0  0  0  0  0  0  0  0  0  0
  -79.6211  -15.6736    5.9242 C   0  0  0  0  0  0  0  0  0  0  0  0
  -76.5318  -16.6845    5.8271 H   0  0  0  0  0  0  0  0  0  0  0  0
  -82.8098  -14.1696    8.6687 C   0  0  0  0  0  0  0  0  0  0  0  0
  -81.5926  -14.9434    9.1569 C   0  0  0  0  0  0  0  0  0  0  0  0
  -86.1793  -14.5202    5.2290 N   0  0  0  0  0  0  0  0  0  0  0  0
  -86.3342  -14.0377    4.3850 H   0  0  0  0  0  0  0  0  0  0  0  0
  -87.2477  -15.0155    5.8777 C   0  0  0  0  0  0  0  0  0  0  0  0
  -87.2356  -15.8484    7.4004 S   0  0  0  0  0  0  0  0  0  0  0  0
  -88.4637  -14.9323    5.3260 N   0  0  0  0  0  0  0  0  0  0  0  0
  -89.4123  -15.4957    6.1184 C   0  0  0  0  0  0  0  0  0  0  0  0
  -89.0029  -16.0669    7.2953 C   0  0  0  0  0  0  0  0  0  0  0  0
  -89.7348  -16.6960    8.3235 C   0  0  0  0  0  0  0  0  0  0  0  0
  -89.1466  -16.9466    9.3831 O   0  0  0  0  0  0  0  0  0  0  0  0
  -91.0584  -17.0052    8.1602 N   0  0  0  0  0  0  0  0  0  0  0  0
  -91.5101  -16.7980    7.3103 H   0  0  0  0  0  0  0  0  0  0  0  0
  -91.7700  -17.6147    9.1979 C   0  0  0  0  0  0  0  0  0  0  0  0
  -91.7287  -19.0022    9.3447 C   0  0  0  0  0  0  0  0  0  0  0  0
  -90.7870  -19.9933    8.2466 Cl  0  0  0  0  0  0  0  0  0  0  0  0
  -92.4210  -19.5980   10.4068 C   0  0  0  0  0  0  0  0  0  0  0  0
  -93.1643  -18.8283   11.2996 C   0  0  0  0  0  0  0  0  0  0  0  0
  -93.1939  -17.4426   11.1716 C   0  0  0  0  0  0  0  0  0  0  0  0
  -92.4894  -16.8313   10.1208 C   0  0  0  0  0  0  0  0  0  0  0  0
  -92.5405  -15.4393    9.9922 C   0  0  0  0  0  0  0  0  0  0  0  0
 11 12  1  0  0  0
 11 16  1  0  0  0
 12 13  1  0  0  0
 16  7  1  0  0  0
 16 15  1  0  0  0
  7  8  1  0  0  0
 13 14  1  0  0  0
 15 14  1  0  0  0
  8  9  2  0  0  0
  8  1  1  0  0  0
  2  1  2  0  0  0
  2  6  1  0  0  0
  1  3  1  0  0  0
 20  6  1  0  0  0
 20 22  1  0  0  0
 24 22  2  0  0  0
 24 25  1  0  0  0
  6  5  2  0  0  0
 22 23  1  0  0  0
 25 26  2  0  0  0
  3  4  2  0  0  0
  5  4  1  0  0  0
 26 23  1  0  0  0
 26 27  1  0  0  0
  4 18  1  0  0  0
 38 37  1  0  0  0
 29 27  1  0  0  0
 29 31  1  0  0  0
 27 28  2  0  0  0
 18 19  1  0  0  0
 37 31  2  0  0  0
 37 36  1  0  0  0
 31 32  1  0  0  0
 36 35  2  0  0  0
 32 33  1  0  0  0
 32 34  2  0  0  0
 35 34  1  0  0  0
 13 17  1  0  0  0
  7 10  1  0  0  0
 20 21  1  0  0  0
 29 30  1  0  0  0
M  END
> <minimizedAffinity>
-9.24470

$$$$
5NKG_8ZK_A_1001


 38 41  0  0  0  0  0  0  0  0999 V2000
  -84.0271  -14.4143    9.5960 C   0  0  0  0  0  0  0  0  0  0  0  0
  -84.9858  -14.5045    8.5817 C   0  0  0  0  0  0  0  0  0  0  0  0
  -82.6912  -14.6300    9.2914 C   0  0  0  0  0  0  0  0  0  0  0  0
  -82.2868  -14.9790    8.0184 C   0  0  0  0  0  0  0  0  0  0  0  0
  -83.2517  -15.0637    7.0212 C   0  0  0  0  0  0  0  0  0  0  0  0
  -84.5847  -14.8137    7.2845 C   0  0  0  0  0  0  0  0  0  0  0  0
  -85.3137  -14.3170   11.6435 N   0  0  0  0  0  0  0  0  0  0  0  0
  -84.2755  -13.9847   10.9029 C   0  0  0  0  0  0  0  0  0  0  0  0
  -83.4240  -13.2606   11.4158 O   0  0  0  0  0  0  0  0  0  0  0  0
  -85.2696  -13.9332   12.5490 H   0  0  0  0  0  0  0  0  0  0  0  0
  -87.5271  -14.0130   11.3077 C   0  0  0  0  0  0  0  0  0  0  0  0
  -87.5474  -13.2110   12.6083 C   0  0  0  0  0  0  0  0  0  0  0  0
  -88.0075  -14.0611   13.7155 N   0  0  0  0  0  0  0  0  0  0  0  0
  -87.0230  -15.1438   13.8830 C   0  0  0  0  0  0  0  0  0  0  0  0
  -86.8412  -15.9613   12.6219 C   0  0  0  0  0  0  0  0  0  0  0  0
  -86.4895  -15.1053   11.4386 C   0  0  0  0  0  0  0  0  0  0  0  0
  -88.9227  -14.4540   13.4954 H   0  0  0  0  0  0  0  0  0  0  0  0
  -80.9315  -15.2150    7.7623 C   0  0  0  0  0  0  0  0  0  0  0  0
  -80.6147  -15.6891    6.3505 C   0  0  0  0  0  0  0  0  0  0  0  0
  -85.5385  -14.9010    6.3534 N   0  0  0  0  0  0  0  0  0  0  0  0
  -85.2844  -14.7426    5.4155 H   0  0  0  0  0  0  0  0  0  0  0  0
  -86.8241  -15.1920    6.6181 C   0  0  0  0  0  0  0  0  0  0  0  0
  -87.4109  -16.1935    7.9086 S   0  0  0  0  0  0  0  0  0  0  0  0
  -87.7929  -14.7335    5.8174 N   0  0  0  0  0  0  0  0  0  0  0  0
  -89.0205  -15.1387    6.2344 C   0  0  0  0  0  0  0  0  0  0  0  0
  -89.0839  -15.9440    7.3419 C   0  0  0  0  0  0  0  0  0  0  0  0
  -90.1877  -16.4978    8.0227 C   0  0  0  0  0  0  0  0  0  0  0  0
  -91.3216  -16.1940    7.6309 O   0  0  0  0  0  0  0  0  0  0  0  0
  -90.0102  -17.3567    9.0738 N   0  0  0  0  0  0  0  0  0  0  0  0
  -89.1005  -17.5874    9.3715 H   0  0  0  0  0  0  0  0  0  0  0  0
  -91.1180  -17.9069    9.7254 C   0  0  0  0  0  0  0  0  0  0  0  0
  -91.7718  -17.1754   10.7184 C   0  0  0  0  0  0  0  0  0  0  0  0
  -91.2253  -15.5674   11.1552 Cl  0  0  0  0  0  0  0  0  0  0  0  0
  -92.8992  -17.7253   11.3421 C   0  0  0  0  0  0  0  0  0  0  0  0
  -93.3592  -18.9956   11.0007 C   0  0  0  0  0  0  0  0  0  0  0  0
  -92.7247  -19.7228    9.9976 C   0  0  0  0  0  0  0  0  0  0  0  0
  -91.6033  -19.1751    9.3521 C   0  0  0  0  0  0  0  0  0  0  0  0
  -90.9637  -19.9223    8.3574 C   0  0  0  0  0  0  0  0  0  0  0  0
 11 12  1  0  0  0
 11 16  1  0  0  0
 12 13  1  0  0  0
 16  7  1  0  0  0
 16 15  1  0  0  0
  7  8  1  0  0  0
 13 14  1  0  0  0
 15 14  1  0  0  0
  8  9  2  0  0  0
  8  1  1  0  0  0
  2  1  2  0  0  0
  2  6  1  0  0  0
  1  3  1  0  0  0
 20  6  1  0  0  0
 20 22  1  0  0  0
 24 22  2  0  0  0
 24 25  1  0  0  0
  6  5  2  0  0  0
 22 23  1  0  0  0
 25 26  2  0  0  0
  3  4  2  0  0  0
  5  4  1  0  0  0
 26 23  1  0  0  0
 26 27  1  0  0  0
  4 18  1  0  0  0
 38 37  1  0  0  0
 29 27  1  0  0  0
 29 31  1  0  0  0
 27 28  2  0  0  0
 18 19  1  0  0  0
 37 31  2  0  0  0
 37 36  1  0  0  0
 31 32  1  0  0  0
 36 35  2  0  0  0
 32 33  1  0  0  0
 32 34  2  0  0  0
 35 34  1  0  0  0
 13 17  1  0  0  0
  7 10  1  0  0  0
 20 21  1  0  0  0
 29 30  1  0  0  0
M  END
> <minimizedAffinity>
-9.15828

$$$$
5NKG_8ZK_A_1001


 38 41  0  0  0  0  0  0  0  0999 V2000
  -91.0567  -16.1974   10.9715 C   0  0  0  0  0  0  0  0  0  0  0  0
  -90.5790  -15.8322    9.7087 C   0  0  0  0  0  0  0  0  0  0  0  0
  -91.6492  -17.4398   11.1422 C   0  0  0  0  0  0  0  0  0  0  0  0
  -91.8230  -18.3097   10.0844 C   0  0  0  0  0  0  0  0  0  0  0  0
  -91.3419  -17.9324    8.8359 C   0  0  0  0  0  0  0  0  0  0  0  0
  -90.7099  -16.7191    8.6432 C   0  0  0  0  0  0  0  0  0  0  0  0
  -89.7153  -15.0564   12.6316 N   0  0  0  0  0  0  0  0  0  0  0  0
  -90.8713  -15.4623   12.1460 C   0  0  0  0  0  0  0  0  0  0  0  0
  -91.8871  -15.1354   12.7572 O   0  0  0  0  0  0  0  0  0  0  0  0
  -89.8177  -14.5179   13.4493 H   0  0  0  0  0  0  0  0  0  0  0  0
  -87.7040  -15.3882   13.6057 C   0  0  0  0  0  0  0  0  0  0  0  0
  -87.9662  -14.1255   14.4254 C   0  0  0  0  0  0  0  0  0  0  0  0
  -87.2858  -12.9771   13.8102 N   0  0  0  0  0  0  0  0  0  0  0  0
  -87.8820  -12.7680   12.4796 C   0  0  0  0  0  0  0  0  0  0  0  0
  -87.7690  -13.9919   11.5958 C   0  0  0  0  0  0  0  0  0  0  0  0
  -88.3467  -15.2158   12.2477 C   0  0  0  0  0  0  0  0  0  0  0  0
  -86.2888  -13.1717   13.7181 H   0  0  0  0  0  0  0  0  0  0  0  0
  -92.4515  -19.5418   10.2967 C   0  0  0  0  0  0  0  0  0  0  0  0
  -93.5480  -19.5331   11.3533 C   0  0  0  0  0  0  0  0  0  0  0  0
  -90.2499  -16.3197    7.4543 N   0  0  0  0  0  0  0  0  0  0  0  0
  -90.8876  -16.2676    6.7060 H   0  0  0  0  0  0  0  0  0  0  0  0
  -88.9698  -15.9846    7.2168 C   0  0  0  0  0  0  0  0  0  0  0  0
  -87.5985  -16.3836    8.2031 S   0  0  0  0  0  0  0  0  0  0  0  0
  -88.6612  -15.2293    6.1565 N   0  0  0  0  0  0  0  0  0  0  0  0
  -87.3269  -14.9843    6.0879 C   0  0  0  0  0  0  0  0  0  0  0  0
  -86.5330  -15.4946    7.0822 C   0  0  0  0  0  0  0  0  0  0  0  0
  -85.1373  -15.4363    7.2749 C   0  0  0  0  0  0  0  0  0  0  0  0
  -84.6243  -16.2576    8.0455 O   0  0  0  0  0  0  0  0  0  0  0  0
  -84.3722  -14.5104    6.6180 N   0  0  0  0  0  0  0  0  0  0  0  0
  -84.7976  -13.8650    6.0083 H   0  0  0  0  0  0  0  0  0  0  0  0
  -82.9879  -14.4796    6.8113 C   0  0  0  0  0  0  0  0  0  0  0  0
  -82.4641  -13.9363    7.9856 C   0  0  0  0  0  0  0  0  0  0  0  0
  -83.5228  -13.2974    9.2290 Cl  0  0  0  0  0  0  0  0  0  0  0  0
  -81.0769  -13.9393    8.1807 C   0  0  0  0  0  0  0  0  0  0  0  0
  -80.2179  -14.4546    7.2121 C   0  0  0  0  0  0  0  0  0  0  0  0
  -80.7336  -15.0161    6.0476 C   0  0  0  0  0  0  0  0  0  0  0  0
  -82.1243  -15.0351    5.8475 C   0  0  0  0  0  0  0  0  0  0  0  0
  -82.6300  -15.5866    4.6657 C   0  0  0  0  0  0  0  0  0  0  0  0
 11 12  1  0  0  0
 11 16  1  0  0  0
 12 13  1  0  0  0
 16  7  1  0  0  0
 16 15  1  0  0  0
  7  8  1  0  0  0
 13 14  1  0  0  0
 15 14  1  0  0  0
  8  9  2  0  0  0
  8  1  1  0  0  0
  2  1  2  0  0  0
  2  6  1  0  0  0
  1  3  1  0  0  0
 20  6  1  0  0  0
 20 22  1  0  0  0
 24 22  2  0  0  0
 24 25  1  0  0  0
  6  5  2  0  0  0
 22 23  1  0  0  0
 25 26  2  0  0  0
  3  4  2  0  0  0
  5  4  1  0  0  0
 26 23  1  0  0  0
 26 27  1  0  0  0
  4 18  1  0  0  0
 38 37  1  0  0  0
 29 27  1  0  0  0
 29 31  1  0  0  0
 27 28  2  0  0  0
 18 19  1  0  0  0
 37 31  2  0  0  0
 37 36  1  0  0  0
 31 32  1  0  0  0
 36 35  2  0  0  0
 32 33  1  0  0  0
 32 34  2  0  0  0
 35 34  1  0  0  0
 13 17  1  0  0  0
  7 10  1  0  0  0
 20 21  1  0  0  0
 29 30  1  0  0  0
M  END
> <minimizedAffinity>
-9.14292

$$$$
5NKG_8ZK_A_1001


 38 41  0  0  0  0  0  0  0  0999 V2000
  -89.6720  -16.5006    8.5443 C   0  0  0  0  0  0  0  0  0  0  0  0
  -88.7980  -16.7390    9.6100 C   0  0  0  0  0  0  0  0  0  0  0  0
  -89.1552  -16.1585    7.3034 C   0  0  0  0  0  0  0  0  0  0  0  0
  -87.7984  -16.0003    7.1035 C   0  0  0  0  0  0  0  0  0  0  0  0
  -86.9430  -16.2417    8.1724 C   0  0  0  0  0  0  0  0  0  0  0  0
  -87.4248  -16.6246    9.4094 C   0  0  0  0  0  0  0  0  0  0  0  0
  -91.6651  -17.7914    9.0111 N   0  0  0  0  0  0  0  0  0  0  0  0
  -91.0539  -16.7086    8.5744 C   0  0  0  0  0  0  0  0  0  0  0  0
  -91.7596  -15.7768    8.1919 O   0  0  0  0  0  0  0  0  0  0  0  0
  -92.6457  -17.7100    8.9796 H   0  0  0  0  0  0  0  0  0  0  0  0
  -92.5690  -19.7581    9.6590 C   0  0  0  0  0  0  0  0  0  0  0  0
  -93.4297  -18.9638   10.6407 C   0  0  0  0  0  0  0  0  0  0  0  0
  -92.8251  -18.9979   11.9800 N   0  0  0  0  0  0  0  0  0  0  0  0
  -91.5191  -18.3220   11.8952 C   0  0  0  0  0  0  0  0  0  0  0  0
  -90.6000  -18.9640   10.8779 C   0  0  0  0  0  0  0  0  0  0  0  0
  -91.2361  -19.0574    9.5203 C   0  0  0  0  0  0  0  0  0  0  0  0
  -92.6979  -19.9645   12.2799 H   0  0  0  0  0  0  0  0  0  0  0  0
  -87.3230  -15.6266    5.8416 C   0  0  0  0  0  0  0  0  0  0  0  0
  -86.6319  -14.2708    5.7880 C   0  0  0  0  0  0  0  0  0  0  0  0
  -86.6318  -16.8494   10.4606 N   0  0  0  0  0  0  0  0  0  0  0  0
  -86.6335  -17.7510   10.8560 H   0  0  0  0  0  0  0  0  0  0  0  0
  -85.8317  -15.9202   11.0119 C   0  0  0  0  0  0  0  0  0  0  0  0
  -84.1193  -16.0509   11.2634 S   0  0  0  0  0  0  0  0  0  0  0  0
  -86.3523  -14.7785   11.4758 N   0  0  0  0  0  0  0  0  0  0  0  0
  -85.3967  -13.9718   12.0062 C   0  0  0  0  0  0  0  0  0  0  0  0
  -84.1062  -14.4341   12.0171 C   0  0  0  0  0  0  0  0  0  0  0  0
  -82.9113  -13.8348   12.4659 C   0  0  0  0  0  0  0  0  0  0  0  0
  -81.9462  -14.5728   12.7014 O   0  0  0  0  0  0  0  0  0  0  0  0
  -82.8172  -12.4779   12.6209 N   0  0  0  0  0  0  0  0  0  0  0  0
  -83.5953  -11.9063   12.4282 H   0  0  0  0  0  0  0  0  0  0  0  0
  -81.6183  -11.9022   13.0521 C   0  0  0  0  0  0  0  0  0  0  0  0
  -80.5908  -11.6726   12.1356 C   0  0  0  0  0  0  0  0  0  0  0  0
  -80.7873  -12.0903   10.4439 Cl  0  0  0  0  0  0  0  0  0  0  0  0
  -79.4062  -11.0670   12.5743 C   0  0  0  0  0  0  0  0  0  0  0  0
  -79.2341  -10.7141   13.9113 C   0  0  0  0  0  0  0  0  0  0  0  0
  -80.2616  -10.9215   14.8271 C   0  0  0  0  0  0  0  0  0  0  0  0
  -81.4615  -11.5122   14.3962 C   0  0  0  0  0  0  0  0  0  0  0  0
  -82.4806  -11.7312   15.3290 C   0  0  0  0  0  0  0  0  0  0  0  0
 11 12  1  0  0  0
 11 16  1  0  0  0
 12 13  1  0  0  0
 16  7  1  0  0  0
 16 15  1  0  0  0
  7  8  1  0  0  0
 13 14  1  0  0  0
 15 14  1  0  0  0
  8  9  2  0  0  0
  8  1  1  0  0  0
  2  1  2  0  0  0
  2  6  1  0  0  0
  1  3  1  0  0  0
 20  6  1  0  0  0
 20 22  1  0  0  0
 24 22  2  0  0  0
 24 25  1  0  0  0
  6  5  2  0  0  0
 22 23  1  0  0  0
 25 26  2  0  0  0
  3  4  2  0  0  0
  5  4  1  0  0  0
 26 23  1  0  0  0
 26 27  1  0  0  0
  4 18  1  0  0  0
 38 37  1  0  0  0
 29 27  1  0  0  0
 29 31  1  0  0  0
 27 28  2  0  0  0
 18 19  1  0  0  0
 37 31  2  0  0  0
 37 36  1  0  0  0
 31 32  1  0  0  0
 36 35  2  0  0  0
 32 33  1  0  0  0
 32 34  2  0  0  0
 35 34  1  0  0  0
 13 17  1  0  0  0
  7 10  1  0  0  0
 20 21  1  0  0  0
 29 30  1  0  0  0
M  END
> <minimizedAffinity>
-8.82095

$$$$
5NKG_8ZK_A_1001


 38 41  0  0  0  0  0  0  0  0999 V2000
  -89.5740  -16.2943    9.2636 C   0  0  0  0  0  0  0  0  0  0  0  0
  -88.3294  -16.7273    8.7949 C   0  0  0  0  0  0  0  0  0  0  0  0
  -89.6296  -15.2992   10.2283 C   0  0  0  0  0  0  0  0  0  0  0  0
  -88.4838  -14.7562   10.7743 C   0  0  0  0  0  0  0  0  0  0  0  0
  -87.2546  -15.1966   10.2971 C   0  0  0  0  0  0  0  0  0  0  0  0
  -87.1672  -16.1564    9.3071 C   0  0  0  0  0  0  0  0  0  0  0  0
  -91.4181  -17.8335    8.9685 N   0  0  0  0  0  0  0  0  0  0  0  0
  -90.8110  -16.6856    8.7433 C   0  0  0  0  0  0  0  0  0  0  0  0
  -91.3986  -15.8635    8.0423 O   0  0  0  0  0  0  0  0  0  0  0  0
  -92.3005  -17.8851    8.5350 H   0  0  0  0  0  0  0  0  0  0  0  0
  -92.4546  -19.6789    9.7587 C   0  0  0  0  0  0  0  0  0  0  0  0
  -93.4055  -18.7447   10.5059 C   0  0  0  0  0  0  0  0  0  0  0  0
  -92.9725  -18.5999   11.9030 N   0  0  0  0  0  0  0  0  0  0  0  0
  -91.6462  -17.9594   11.8930 C   0  0  0  0  0  0  0  0  0  0  0  0
  -90.6282  -18.7486   11.0975 C   0  0  0  0  0  0  0  0  0  0  0  0
  -91.0940  -19.0218    9.6958 C   0  0  0  0  0  0  0  0  0  0  0  0
  -92.9128  -19.5169   12.3456 H   0  0  0  0  0  0  0  0  0  0  0  0
  -88.5869  -13.7742   11.7658 C   0  0  0  0  0  0  0  0  0  0  0  0
  -87.3003  -13.0137   12.0569 C   0  0  0  0  0  0  0  0  0  0  0  0
  -86.0028  -16.6123    8.8373 N   0  0  0  0  0  0  0  0  0  0  0  0
  -85.7091  -17.5081    9.1211 H   0  0  0  0  0  0  0  0  0  0  0  0
  -85.2073  -15.9231    8.0008 C   0  0  0  0  0  0  0  0  0  0  0  0
  -83.4819  -15.7697    8.1095 S   0  0  0  0  0  0  0  0  0  0  0  0
  -85.7412  -15.2259    6.9915 N   0  0  0  0  0  0  0  0  0  0  0  0
  -84.7877  -14.5872    6.2649 C   0  0  0  0  0  0  0  0  0  0  0  0
  -83.4843  -14.7175    6.6691 C   0  0  0  0  0  0  0  0  0  0  0  0
  -82.2890  -14.2084    6.1206 C   0  0  0  0  0  0  0  0  0  0  0  0
  -82.2636  -13.9726    4.9060 O   0  0  0  0  0  0  0  0  0  0  0  0
  -81.1966  -13.9680    6.9098 N   0  0  0  0  0  0  0  0  0  0  0  0
  -81.2353  -14.1613    7.8744 H   0  0  0  0  0  0  0  0  0  0  0  0
  -80.0262  -13.4484    6.3488 C   0  0  0  0  0  0  0  0  0  0  0  0
  -79.1138  -14.3058    5.7315 C   0  0  0  0  0  0  0  0  0  0  0  0
  -79.4208  -16.0300    5.6430 Cl  0  0  0  0  0  0  0  0  0  0  0  0
  -77.9598  -13.7691    5.1462 C   0  0  0  0  0  0  0  0  0  0  0  0
  -77.7026  -12.4003    5.1925 C   0  0  0  0  0  0  0  0  0  0  0  0
  -78.6173  -11.5369    5.7885 C   0  0  0  0  0  0  0  0  0  0  0  0
  -79.7872  -12.0607    6.3640 C   0  0  0  0  0  0  0  0  0  0  0  0
  -80.6908  -11.1851    6.9751 C   0  0  0  0  0  0  0  0  0  0  0  0
 11 12  1  0  0  0
 11 16  1  0  0  0
 12 13  1  0  0  0
 16  7  1  0  0  0
 16 15  1  0  0  0
  7  8  1  0  0  0
 13 14  1  0  0  0
 15 14  1  0  0  0
  8  9  2  0  0  0
  8  1  1  0  0  0
  2  1  2  0  0  0
  2  6  1  0  0  0
  1  3  1  0  0  0
 20  6  1  0  0  0
 20 22  1  0  0  0
 24 22  2  0  0  0
 24 25  1  0  0  0
  6  5  2  0  0  0
 22 23  1  0  0  0
 25 26  2  0  0  0
  3  4  2  0  0  0
  5  4  1  0  0  0
 26 23  1  0  0  0
 26 27  1  0  0  0
  4 18  1  0  0  0
 38 37  1  0  0  0
 29 27  1  0  0  0
 29 31  1  0  0  0
 27 28  2  0  0  0
 18 19  1  0  0  0
 37 31  2  0  0  0
 37 36  1  0  0  0
 31 32  1  0  0  0
 36 35  2  0  0  0
 32 33  1  0  0  0
 32 34  2  0  0  0
 35 34  1  0  0  0
 13 17  1  0  0  0
  7 10  1  0  0  0
 20 21  1  0  0  0
 29 30  1  0  0  0
M  END
> <minimizedAffinity>
-8.60940

$$$$
5NKG_8ZK_A_1001


 38 41  0  0  0  0  0  0  0  0999 V2000
  -87.4012  -16.3599    9.2072 C   0  0  0  0  0  0  0  0  0  0  0  0
  -86.0064  -16.3966    9.3049 C   0  0  0  0  0  0  0  0  0  0  0  0
  -87.9900  -15.9060    8.0362 C   0  0  0  0  0  0  0  0  0  0  0  0
  -87.2333  -15.4435    6.9782 C   0  0  0  0  0  0  0  0  0  0  0  0
  -85.8484  -15.4875    7.0905 C   0  0  0  0  0  0  0  0  0  0  0  0
  -85.2322  -15.9731    8.2277 C   0  0  0  0  0  0  0  0  0  0  0  0
  -89.4745  -17.3941    9.9062 N   0  0  0  0  0  0  0  0  0  0  0  0
  -88.2887  -16.8761   10.1558 C   0  0  0  0  0  0  0  0  0  0  0  0
  -87.9056  -16.8784   11.3244 O   0  0  0  0  0  0  0  0  0  0  0  0
  -89.9158  -17.7351   10.7176 H   0  0  0  0  0  0  0  0  0  0  0  0
  -91.3846  -16.5919    9.0049 C   0  0  0  0  0  0  0  0  0  0  0  0
  -92.0913  -17.0113   10.2933 C   0  0  0  0  0  0  0  0  0  0  0  0
  -92.7510  -18.3110   10.1040 N   0  0  0  0  0  0  0  0  0  0  0  0
  -91.7003  -19.3077    9.8356 C   0  0  0  0  0  0  0  0  0  0  0  0
  -90.8616  -18.9534    8.6261 C   0  0  0  0  0  0  0  0  0  0  0  0
  -90.2700  -17.5767    8.7315 C   0  0  0  0  0  0  0  0  0  0  0  0
  -93.3948  -18.2627    9.3144 H   0  0  0  0  0  0  0  0  0  0  0  0
  -87.8702  -14.9683    5.8264 C   0  0  0  0  0  0  0  0  0  0  0  0
  -89.3830  -15.1403    5.8081 C   0  0  0  0  0  0  0  0  0  0  0  0
  -83.9051  -16.0150    8.3739 N   0  0  0  0  0  0  0  0  0  0  0  0
  -83.5169  -16.7841    8.8504 H   0  0  0  0  0  0  0  0  0  0  0  0
  -83.0668  -15.0716    7.9104 C   0  0  0  0  0  0  0  0  0  0  0  0
  -82.1936  -15.1136    6.4110 S   0  0  0  0  0  0  0  0  0  0  0  0
  -82.8002  -13.9902    8.6516 N   0  0  0  0  0  0  0  0  0  0  0  0
  -81.9264  -13.1585    8.0272 C   0  0  0  0  0  0  0  0  0  0  0  0
  -81.4442  -13.5430    6.8030 C   0  0  0  0  0  0  0  0  0  0  0  0
  -80.5619  -12.8991    5.9111 C   0  0  0  0  0  0  0  0  0  0  0  0
  -79.3769  -13.2559    5.9102 O   0  0  0  0  0  0  0  0  0  0  0  0
  -81.0058  -11.9213    5.0620 N   0  0  0  0  0  0  0  0  0  0  0  0
  -81.9522  -11.6506    5.0763 H   0  0  0  0  0  0  0  0  0  0  0  0
  -80.1177  -11.3063    4.1744 C   0  0  0  0  0  0  0  0  0  0  0  0
  -79.8979  -11.8662    2.9148 C   0  0  0  0  0  0  0  0  0  0  0  0
  -80.7294  -13.3307    2.4262 Cl  0  0  0  0  0  0  0  0  0  0  0  0
  -79.0292  -11.2236    2.0233 C   0  0  0  0  0  0  0  0  0  0  0  0
  -78.3686  -10.0513    2.3855 C   0  0  0  0  0  0  0  0  0  0  0  0
  -78.5980   -9.4762    3.6321 C   0  0  0  0  0  0  0  0  0  0  0  0
  -79.4805  -10.1015    4.5290 C   0  0  0  0  0  0  0  0  0  0  0  0
  -79.6901   -9.5233    5.7853 C   0  0  0  0  0  0  0  0  0  0  0  0
 11 12  1  0  0  0
 11 16  1  0  0  0
 12 13  1  0  0  0
 16  7  1  0  0  0
 16 15  1  0  0  0
  7  8  1  0  0  0
 13 14  1  0  0  0
 15 14  1  0  0  0
  8  9  2  0  0  0
  8  1  1  0  0  0
  2  1  2  0  0  0
  2  6  1  0  0  0
  1  3  1  0  0  0
 20  6  1  0  0  0
 20 22  1  0  0  0
 24 22  2  0  0  0
 24 25  1  0  0  0
  6  5  2  0  0  0
 22 23  1  0  0  0
 25 26  2  0  0  0
  3  4  2  0  0  0
  5  4  1  0  0  0
 26 23  1  0  0  0
 26 27  1  0  0  0
  4 18  1  0  0  0
 38 37  1  0  0  0
 29 27  1  0  0  0
 29 31  1  0  0  0
 27 28  2  0  0  0
 18 19  1  0  0  0
 37 31  2  0  0  0
 37 36  1  0  0  0
 31 32  1  0  0  0
 36 35  2  0  0  0
 32 33  1  0  0  0
 32 34  2  0  0  0
 35 34  1  0  0  0
 13 17  1  0  0  0
  7 10  1  0  0  0
 20 21  1  0  0  0
 29 30  1  0  0  0
M  END
> <minimizedAffinity>
-8.60235

$$$$
5NKG_8ZK_A_1001


 38 41  0  0  0  0  0  0  0  0999 V2000
  -84.1359  -14.1491   10.2211 C   0  0  0  0  0  0  0  0  0  0  0  0
  -84.8985  -14.5829    9.1318 C   0  0  0  0  0  0  0  0  0  0  0  0
  -82.8774  -13.6098    9.9996 C   0  0  0  0  0  0  0  0  0  0  0  0
  -82.3363  -13.5328    8.7319 C   0  0  0  0  0  0  0  0  0  0  0  0
  -83.1072  -13.9672    7.6597 C   0  0  0  0  0  0  0  0  0  0  0  0
  -84.3805  -14.4706    7.8441 C   0  0  0  0  0  0  0  0  0  0  0  0
  -85.2193  -15.0364   12.1949 N   0  0  0  0  0  0  0  0  0  0  0  0
  -84.5855  -14.0824   11.5431 C   0  0  0  0  0  0  0  0  0  0  0  0
  -84.3294  -13.0500   12.1604 O   0  0  0  0  0  0  0  0  0  0  0  0
  -85.4083  -14.7932   13.1300 H   0  0  0  0  0  0  0  0  0  0  0  0
  -87.0603  -16.3067   12.5138 C   0  0  0  0  0  0  0  0  0  0  0  0
  -86.8690  -16.0907   14.0145 C   0  0  0  0  0  0  0  0  0  0  0  0
  -86.1797  -17.2471   14.6045 N   0  0  0  0  0  0  0  0  0  0  0  0
  -84.8396  -17.3225   13.9978 C   0  0  0  0  0  0  0  0  0  0  0  0
  -84.8928  -17.4449   12.4898 C   0  0  0  0  0  0  0  0  0  0  0  0
  -85.6967  -16.3427   11.8608 C   0  0  0  0  0  0  0  0  0  0  0  0
  -86.7004  -18.1013   14.4054 H   0  0  0  0  0  0  0  0  0  0  0  0
  -81.0512  -13.0071    8.5579 C   0  0  0  0  0  0  0  0  0  0  0  0
  -79.9181  -14.0157    8.6901 C   0  0  0  0  0  0  0  0  0  0  0  0
  -85.1412  -14.9102    6.8379 N   0  0  0  0  0  0  0  0  0  0  0  0
  -84.7213  -15.0170    5.9538 H   0  0  0  0  0  0  0  0  0  0  0  0
  -86.4449  -15.2159    6.9581 C   0  0  0  0  0  0  0  0  0  0  0  0
  -87.1759  -16.1336    8.2372 S   0  0  0  0  0  0  0  0  0  0  0  0
  -87.3099  -14.8456    6.0070 N   0  0  0  0  0  0  0  0  0  0  0  0
  -88.5738  -15.2521    6.2942 C   0  0  0  0  0  0  0  0  0  0  0  0
  -88.7657  -15.9736    7.4439 C   0  0  0  0  0  0  0  0  0  0  0  0
  -89.9383  -16.5050    8.0192 C   0  0  0  0  0  0  0  0  0  0  0  0
  -91.0083  -16.3249    7.4241 O   0  0  0  0  0  0  0  0  0  0  0  0
  -89.8920  -17.2114    9.1910 N   0  0  0  0  0  0  0  0  0  0  0  0
  -89.0316  -17.3452    9.6503 H   0  0  0  0  0  0  0  0  0  0  0  0
  -91.0642  -17.7433    9.7366 C   0  0  0  0  0  0  0  0  0  0  0  0
  -91.4516  -19.0443    9.4116 C   0  0  0  0  0  0  0  0  0  0  0  0
  -90.4805  -20.0264    8.3311 Cl  0  0  0  0  0  0  0  0  0  0  0  0
  -92.6118  -19.5765    9.9889 C   0  0  0  0  0  0  0  0  0  0  0  0
  -93.3909  -18.8187   10.8610 C   0  0  0  0  0  0  0  0  0  0  0  0
  -93.0004  -17.5279   11.2055 C   0  0  0  0  0  0  0  0  0  0  0  0
  -91.8293  -16.9887   10.6468 C   0  0  0  0  0  0  0  0  0  0  0  0
  -91.4560  -15.6844   10.9873 C   0  0  0  0  0  0  0  0  0  0  0  0
 11 12  1  0  0  0
 11 16  1  0  0  0
 12 13  1  0  0  0
 16  7  1  0  0  0
 16 15  1  0  0  0
  7  8  1  0  0  0
 13 14  1  0  0  0
 15 14  1  0  0  0
  8  9  2  0  0  0
  8  1  1  0  0  0
  2  1  2  0  0  0
  2  6  1  0  0  0
  1  3  1  0  0  0
 20  6  1  0  0  0
 20 22  1  0  0  0
 24 22  2  0  0  0
 24 25  1  0  0  0
  6  5  2  0  0  0
 22 23  1  0  0  0
 25 26  2  0  0  0
  3  4  2  0  0  0
  5  4  1  0  0  0
 26 23  1  0  0  0
 26 27  1  0  0  0
  4 18  1  0  0  0
 38 37  1  0  0  0
 29 27  1  0  0  0
 29 31  1  0  0  0
 27 28  2  0  0  0
 18 19  1  0  0  0
 37 31  2  0  0  0
 37 36  1  0  0  0
 31 32  1  0  0  0
 36 35  2  0  0  0
 32 33  1  0  0  0
 32 34  2  0  0  0
 35 34  1  0  0  0
 13 17  1  0  0  0
  7 10  1  0  0  0
 20 21  1  0  0  0
 29 30  1  0  0  0
M  END
> <minimizedAffinity>
-8.53744

$$$$
