4CFL_8DQ_A_1169


 24 27  0  0  0  0  0  0  0  0999 V2000
   21.9902   48.8154    0.0455 O   0  0  0  0  0  0  0  0  0  0  0  0
   22.9918   49.4968   -0.2022 C   0  0  0  0  0  0  0  0  0  0  0  0
   24.2991   49.2071    0.4199 C   0  0  0  0  0  0  0  0  0  0  0  0
   24.4569   48.1733    1.3442 C   0  0  0  0  0  0  0  0  0  0  0  0
   25.7003   47.9198    1.9039 C   0  0  0  0  0  0  0  0  0  0  0  0
   26.8014   48.6822    1.5494 C   0  0  0  0  0  0  0  0  0  0  0  0
   25.4162   49.9725    0.0767 C   0  0  0  0  0  0  0  0  0  0  0  0
   26.6796   49.7152    0.6243 C   0  0  0  0  0  0  0  0  0  0  0  0
   25.3202   51.0030   -0.8333 O   0  0  0  0  0  0  0  0  0  0  0  0
   24.0975   51.2769   -1.4237 C   0  0  0  0  0  0  0  0  0  0  0  0
   22.9445   50.5890   -1.1414 C   0  0  0  0  0  0  0  0  0  0  0  0
   24.2757   52.3044   -2.3731 N   0  0  0  0  0  0  0  0  0  0  0  0
   25.5800   52.9675   -2.4368 C   0  0  0  0  0  0  0  0  0  0  0  0
   26.0643   52.9260   -3.8623 C   0  0  0  0  0  0  0  0  0  0  0  0
   25.0092   53.3556   -4.7976 N   0  0  0  0  0  0  0  0  0  0  0  0
   23.8005   52.5234   -4.7112 C   0  0  0  0  0  0  0  0  0  0  0  0
   23.1948   52.5556   -3.3297 C   0  0  0  0  0  0  0  0  0  0  0  0
   24.7569   54.3205   -4.5839 H   0  0  0  0  0  0  0  0  0  0  0  0
   27.8980   50.4747    0.2193 C   0  0  0  0  0  0  0  0  0  0  0  0
   28.7485   51.0241    1.1763 C   0  0  0  0  0  0  0  0  0  0  0  0
   29.8805   51.7269    0.7966 C   0  0  0  0  0  0  0  0  0  0  0  0
   30.1800   51.8942   -0.5352 C   0  0  0  0  0  0  0  0  0  0  0  0
   29.3527   51.3556   -1.4952 C   0  0  0  0  0  0  0  0  0  0  0  0
   28.2209   50.6490   -1.1247 C   0  0  0  0  0  0  0  0  0  0  0  0
 15 16  1  0  0  0
 15 14  1  0  0  0
 16 17  1  0  0  0
 14 13  1  0  0  0
 17 12  1  0  0  0
 13 12  1  0  0  0
 12 10  1  0  0  0
 23 24  2  0  0  0
 23 22  1  0  0  0
 10 11  2  0  0  0
 10  9  1  0  0  0
 24 19  1  0  0  0
 11  2  1  0  0  0
  9  7  1  0  0  0
 22 21  2  0  0  0
  2  1  2  0  0  0
  2  3  1  0  0  0
  7  3  2  0  0  0
  7  8  1  0  0  0
 19  8  1  0  0  0
 19 20  2  0  0  0
  3  4  1  0  0  0
  8  6  2  0  0  0
 21 20  1  0  0  0
  4  5  2  0  0  0
  6  5  1  0  0  0
 15 18  1  0  0  0
M  END
> <minimizedAffinity>
-8.71160

$$$$
4CFL_8DQ_A_1169


 24 27  0  0  0  0  0  0  0  0999 V2000
   30.3781   52.3933   -2.1072 O   0  0  0  0  0  0  0  0  0  0  0  0
   29.2739   51.8409   -2.0410 C   0  0  0  0  0  0  0  0  0  0  0  0
   28.7234   51.3608   -0.7579 C   0  0  0  0  0  0  0  0  0  0  0  0
   29.4395   51.4757    0.4346 C   0  0  0  0  0  0  0  0  0  0  0  0
   28.8909   51.0240    1.6256 C   0  0  0  0  0  0  0  0  0  0  0  0
   27.6255   50.4606    1.6498 C   0  0  0  0  0  0  0  0  0  0  0  0
   27.4515   50.7844   -0.7203 C   0  0  0  0  0  0  0  0  0  0  0  0
   26.8817   50.3390    0.4794 C   0  0  0  0  0  0  0  0  0  0  0  0
   26.6975   50.6491   -1.8660 O   0  0  0  0  0  0  0  0  0  0  0  0
   27.2067   51.1015   -3.0721 C   0  0  0  0  0  0  0  0  0  0  0  0
   28.4481   51.6692   -3.2097 C   0  0  0  0  0  0  0  0  0  0  0  0
   26.2220   50.9344   -4.0678 N   0  0  0  0  0  0  0  0  0  0  0  0
   24.8155   51.0346   -3.6722 C   0  0  0  0  0  0  0  0  0  0  0  0
   24.1389   52.0332   -4.5739 C   0  0  0  0  0  0  0  0  0  0  0  0
   24.4556   51.7747   -5.9900 N   0  0  0  0  0  0  0  0  0  0  0  0
   25.8983   51.8263   -6.2678 C   0  0  0  0  0  0  0  0  0  0  0  0
   26.6620   50.8067   -5.4594 C   0  0  0  0  0  0  0  0  0  0  0  0
   24.1085   50.8481   -6.2380 H   0  0  0  0  0  0  0  0  0  0  0  0
   25.4986   49.7849    0.5522 C   0  0  0  0  0  0  0  0  0  0  0  0
   24.3889   50.6075    0.3715 C   0  0  0  0  0  0  0  0  0  0  0  0
   23.1058   50.0891    0.4375 C   0  0  0  0  0  0  0  0  0  0  0  0
   22.9094   48.7507    0.6851 C   0  0  0  0  0  0  0  0  0  0  0  0
   23.9943   47.9216    0.8632 C   0  0  0  0  0  0  0  0  0  0  0  0
   25.2803   48.4307    0.7958 C   0  0  0  0  0  0  0  0  0  0  0  0
 15 16  1  0  0  0
 15 14  1  0  0  0
 16 17  1  0  0  0
 14 13  1  0  0  0
 17 12  1  0  0  0
 13 12  1  0  0  0
 12 10  1  0  0  0
 23 24  2  0  0  0
 23 22  1  0  0  0
 10 11  2  0  0  0
 10  9  1  0  0  0
 24 19  1  0  0  0
 11  2  1  0  0  0
  9  7  1  0  0  0
 22 21  2  0  0  0
  2  1  2  0  0  0
  2  3  1  0  0  0
  7  3  2  0  0  0
  7  8  1  0  0  0
 19  8  1  0  0  0
 19 20  2  0  0  0
  3  4  1  0  0  0
  8  6  2  0  0  0
 21 20  1  0  0  0
  4  5  2  0  0  0
  6  5  1  0  0  0
 15 18  1  0  0  0
M  END
> <minimizedAffinity>
-8.43167

$$$$
4CFL_8DQ_A_1169


 24 27  0  0  0  0  0  0  0  0999 V2000
   28.7862   51.5108    3.4521 O   0  0  0  0  0  0  0  0  0  0  0  0
   28.3519   51.1905    2.3397 C   0  0  0  0  0  0  0  0  0  0  0  0
   29.0732   51.5339    1.0981 C   0  0  0  0  0  0  0  0  0  0  0  0
   30.2604   52.2675    1.1202 C   0  0  0  0  0  0  0  0  0  0  0  0
   30.9199   52.5658   -0.0628 C   0  0  0  0  0  0  0  0  0  0  0  0
   30.4151   52.1353   -1.2791 C   0  0  0  0  0  0  0  0  0  0  0  0
   28.5718   51.1120   -0.1357 C   0  0  0  0  0  0  0  0  0  0  0  0
   29.2378   51.3946   -1.3351 C   0  0  0  0  0  0  0  0  0  0  0  0
   27.4061   50.3813   -0.2176 O   0  0  0  0  0  0  0  0  0  0  0  0
   26.7271   50.0522    0.9440 C   0  0  0  0  0  0  0  0  0  0  0  0
   27.1349   50.4314    2.1979 C   0  0  0  0  0  0  0  0  0  0  0  0
   25.6278   49.2355    0.6072 N   0  0  0  0  0  0  0  0  0  0  0  0
   25.5307   47.9150    1.2330 C   0  0  0  0  0  0  0  0  0  0  0  0
   24.1659   47.7844    1.8563 C   0  0  0  0  0  0  0  0  0  0  0  0
   23.1080   48.1983    0.9171 N   0  0  0  0  0  0  0  0  0  0  0  0
   23.2623   49.5886    0.4648 C   0  0  0  0  0  0  0  0  0  0  0  0
   24.5781   49.8061   -0.2407 C   0  0  0  0  0  0  0  0  0  0  0  0
   23.1367   47.5851    0.1025 H   0  0  0  0  0  0  0  0  0  0  0  0
   28.7569   50.8943   -2.6556 C   0  0  0  0  0  0  0  0  0  0  0  0
   29.4014   49.8394   -3.2980 C   0  0  0  0  0  0  0  0  0  0  0  0
   28.9506   49.3758   -4.5233 C   0  0  0  0  0  0  0  0  0  0  0  0
   27.8577   49.9542   -5.1253 C   0  0  0  0  0  0  0  0  0  0  0  0
   27.2059   50.9959   -4.5039 C   0  0  0  0  0  0  0  0  0  0  0  0
   27.6478   51.4636   -3.2777 C   0  0  0  0  0  0  0  0  0  0  0  0
 15 16  1  0  0  0
 15 14  1  0  0  0
 16 17  1  0  0  0
 14 13  1  0  0  0
 17 12  1  0  0  0
 13 12  1  0  0  0
 12 10  1  0  0  0
 23 24  2  0  0  0
 23 22  1  0  0  0
 10 11  2  0  0  0
 10  9  1  0  0  0
 24 19  1  0  0  0
 11  2  1  0  0  0
  9  7  1  0  0  0
 22 21  2  0  0  0
  2  1  2  0  0  0
  2  3  1  0  0  0
  7  3  2  0  0  0
  7  8  1  0  0  0
 19  8  1  0  0  0
 19 20  2  0  0  0
  3  4  1  0  0  0
  8  6  2  0  0  0
 21 20  1  0  0  0
  4  5  2  0  0  0
  6  5  1  0  0  0
 15 18  1  0  0  0
M  END
> <minimizedAffinity>
-8.28129

$$$$
4CFL_8DQ_A_1169


 24 27  0  0  0  0  0  0  0  0999 V2000
   28.2931   51.0309    3.0235 O   0  0  0  0  0  0  0  0  0  0  0  0
   27.8140   50.8278    1.9019 C   0  0  0  0  0  0  0  0  0  0  0  0
   28.5520   51.1716    0.6703 C   0  0  0  0  0  0  0  0  0  0  0  0
   29.8097   51.7752    0.7149 C   0  0  0  0  0  0  0  0  0  0  0  0
   30.4823   52.0770   -0.4599 C   0  0  0  0  0  0  0  0  0  0  0  0
   29.9203   51.7783   -1.6904 C   0  0  0  0  0  0  0  0  0  0  0  0
   27.9940   50.8823   -0.5773 C   0  0  0  0  0  0  0  0  0  0  0  0
   28.6713   51.1689   -1.7695 C   0  0  0  0  0  0  0  0  0  0  0  0
   26.7573   50.2831   -0.6818 O   0  0  0  0  0  0  0  0  0  0  0  0
   26.0619   49.9541    0.4701 C   0  0  0  0  0  0  0  0  0  0  0  0
   26.5225   50.2095    1.7369 C   0  0  0  0  0  0  0  0  0  0  0  0
   24.8790   49.2788    0.1047 N   0  0  0  0  0  0  0  0  0  0  0  0
   24.5334   48.0514    0.8252 C   0  0  0  0  0  0  0  0  0  0  0  0
   23.1216   48.1808    1.3332 C   0  0  0  0  0  0  0  0  0  0  0  0
   22.2137   48.6545    0.2730 N   0  0  0  0  0  0  0  0  0  0  0  0
   22.6132   49.9585   -0.2759 C   0  0  0  0  0  0  0  0  0  0  0  0
   23.9964   49.9141   -0.8770 C   0  0  0  0  0  0  0  0  0  0  0  0
   22.2097   47.9698   -0.4830 H   0  0  0  0  0  0  0  0  0  0  0  0
   28.1243   50.8050   -3.1089 C   0  0  0  0  0  0  0  0  0  0  0  0
   26.9519   51.3882   -3.5844 C   0  0  0  0  0  0  0  0  0  0  0  0
   26.4480   51.0497   -4.8298 C   0  0  0  0  0  0  0  0  0  0  0  0
   27.0999   50.1284   -5.6157 C   0  0  0  0  0  0  0  0  0  0  0  0
   28.2618   49.5438   -5.1637 C   0  0  0  0  0  0  0  0  0  0  0  0
   28.7742   49.8787   -3.9216 C   0  0  0  0  0  0  0  0  0  0  0  0
 15 16  1  0  0  0
 15 14  1  0  0  0
 16 17  1  0  0  0
 14 13  1  0  0  0
 17 12  1  0  0  0
 13 12  1  0  0  0
 12 10  1  0  0  0
 23 24  2  0  0  0
 23 22  1  0  0  0
 10 11  2  0  0  0
 10  9  1  0  0  0
 24 19  1  0  0  0
 11  2  1  0  0  0
  9  7  1  0  0  0
 22 21  2  0  0  0
  2  1  2  0  0  0
  2  3  1  0  0  0
  7  3  2  0  0  0
  7  8  1  0  0  0
 19  8  1  0  0  0
 19 20  2  0  0  0
  3  4  1  0  0  0
  8  6  2  0  0  0
 21 20  1  0  0  0
  4  5  2  0  0  0
  6  5  1  0  0  0
 15 18  1  0  0  0
M  END
> <minimizedAffinity>
-8.24081

$$$$
4CFL_8DQ_A_1169


 24 27  0  0  0  0  0  0  0  0999 V2000
   31.4529   53.0406   -1.0790 O   0  0  0  0  0  0  0  0  0  0  0  0
   30.4353   52.3418   -1.1508 C   0  0  0  0  0  0  0  0  0  0  0  0
   29.7073   51.9068    0.0578 C   0  0  0  0  0  0  0  0  0  0  0  0
   30.1543   52.2337    1.3389 C   0  0  0  0  0  0  0  0  0  0  0  0
   29.4427   51.8184    2.4546 C   0  0  0  0  0  0  0  0  0  0  0  0
   28.2779   51.0816    2.3137 C   0  0  0  0  0  0  0  0  0  0  0  0
   28.5352   51.1575   -0.0697 C   0  0  0  0  0  0  0  0  0  0  0  0
   27.8006   50.7461    1.0498 C   0  0  0  0  0  0  0  0  0  0  0  0
   28.0447   50.8093   -1.3097 O   0  0  0  0  0  0  0  0  0  0  0  0
   28.7209   51.2182   -2.4474 C   0  0  0  0  0  0  0  0  0  0  0  0
   29.8841   51.9452   -2.4220 C   0  0  0  0  0  0  0  0  0  0  0  0
   27.9805   50.8188   -3.5794 N   0  0  0  0  0  0  0  0  0  0  0  0
   26.5195   50.8044   -3.4794 C   0  0  0  0  0  0  0  0  0  0  0  0
   25.9574   51.6013   -4.6272 C   0  0  0  0  0  0  0  0  0  0  0  0
   26.5799   51.2098   -5.9046 N   0  0  0  0  0  0  0  0  0  0  0  0
   28.0386   51.3924   -5.9049 C   0  0  0  0  0  0  0  0  0  0  0  0
   28.7066   50.5736   -4.8280 C   0  0  0  0  0  0  0  0  0  0  0  0
   26.3742   50.2263   -6.0799 H   0  0  0  0  0  0  0  0  0  0  0  0
   26.5107   50.0058    0.9337 C   0  0  0  0  0  0  0  0  0  0  0  0
   25.3387   50.6652    0.5697 C   0  0  0  0  0  0  0  0  0  0  0  0
   24.1429   49.9741    0.4605 C   0  0  0  0  0  0  0  0  0  0  0  0
   24.0961   48.6230    0.7129 C   0  0  0  0  0  0  0  0  0  0  0  0
   25.2450   47.9537    1.0709 C   0  0  0  0  0  0  0  0  0  0  0  0
   26.4451   48.6360    1.1793 C   0  0  0  0  0  0  0  0  0  0  0  0
 15 16  1  0  0  0
 15 14  1  0  0  0
 16 17  1  0  0  0
 14 13  1  0  0  0
 17 12  1  0  0  0
 13 12  1  0  0  0
 12 10  1  0  0  0
 23 24  2  0  0  0
 23 22  1  0  0  0
 10 11  2  0  0  0
 10  9  1  0  0  0
 24 19  1  0  0  0
 11  2  1  0  0  0
  9  7  1  0  0  0
 22 21  2  0  0  0
  2  1  2  0  0  0
  2  3  1  0  0  0
  7  3  2  0  0  0
  7  8  1  0  0  0
 19  8  1  0  0  0
 19 20  2  0  0  0
  3  4  1  0  0  0
  8  6  2  0  0  0
 21 20  1  0  0  0
  4  5  2  0  0  0
  6  5  1  0  0  0
 15 18  1  0  0  0
M  END
> <minimizedAffinity>
-8.19113

$$$$
4CFL_8DQ_A_1169


 24 27  0  0  0  0  0  0  0  0999 V2000
   29.4788   50.6988    1.5229 O   0  0  0  0  0  0  0  0  0  0  0  0
   28.4761   50.8560    0.8167 C   0  0  0  0  0  0  0  0  0  0  0  0
   28.5676   51.4218   -0.5439 C   0  0  0  0  0  0  0  0  0  0  0  0
   29.7855   51.8393   -1.0827 C   0  0  0  0  0  0  0  0  0  0  0  0
   29.8403   52.3578   -2.3679 C   0  0  0  0  0  0  0  0  0  0  0  0
   28.6916   52.4618   -3.1354 C   0  0  0  0  0  0  0  0  0  0  0  0
   27.4161   51.5389   -1.3262 C   0  0  0  0  0  0  0  0  0  0  0  0
   27.4625   52.0467   -2.6308 C   0  0  0  0  0  0  0  0  0  0  0  0
   26.1872   51.1388   -0.8475 O   0  0  0  0  0  0  0  0  0  0  0  0
   26.0955   50.6031    0.4266 C   0  0  0  0  0  0  0  0  0  0  0  0
   27.1670   50.4600    1.2714 C   0  0  0  0  0  0  0  0  0  0  0  0
   24.7646   50.1923    0.6479 N   0  0  0  0  0  0  0  0  0  0  0  0
   23.6938   51.1636    0.4137 C   0  0  0  0  0  0  0  0  0  0  0  0
   22.6824   50.5409   -0.5122 C   0  0  0  0  0  0  0  0  0  0  0  0
   22.3174   49.1833   -0.0692 N   0  0  0  0  0  0  0  0  0  0  0  0
   23.4744   48.2793    0.0029 C   0  0  0  0  0  0  0  0  0  0  0  0
   24.5208   48.7832    0.9660 C   0  0  0  0  0  0  0  0  0  0  0  0
   21.8935   49.2451    0.8565 H   0  0  0  0  0  0  0  0  0  0  0  0
   26.2572   52.1152   -3.5071 C   0  0  0  0  0  0  0  0  0  0  0  0
   25.3753   53.1907   -3.4265 C   0  0  0  0  0  0  0  0  0  0  0  0
   24.2581   53.2523   -4.2435 C   0  0  0  0  0  0  0  0  0  0  0  0
   24.0025   52.2477   -5.1473 C   0  0  0  0  0  0  0  0  0  0  0  0
   24.8646   51.1783   -5.2434 C   0  0  0  0  0  0  0  0  0  0  0  0
   25.9853   51.1102   -4.4329 C   0  0  0  0  0  0  0  0  0  0  0  0
 15 16  1  0  0  0
 15 14  1  0  0  0
 16 17  1  0  0  0
 14 13  1  0  0  0
 17 12  1  0  0  0
 13 12  1  0  0  0
 12 10  1  0  0  0
 23 24  2  0  0  0
 23 22  1  0  0  0
 10 11  2  0  0  0
 10  9  1  0  0  0
 24 19  1  0  0  0
 11  2  1  0  0  0
  9  7  1  0  0  0
 22 21  2  0  0  0
  2  1  2  0  0  0
  2  3  1  0  0  0
  7  3  2  0  0  0
  7  8  1  0  0  0
 19  8  1  0  0  0
 19 20  2  0  0  0
  3  4  1  0  0  0
  8  6  2  0  0  0
 21 20  1  0  0  0
  4  5  2  0  0  0
  6  5  1  0  0  0
 15 18  1  0  0  0
M  END
> <minimizedAffinity>
-7.79049

$$$$
4CFL_8DQ_A_1169


 24 27  0  0  0  0  0  0  0  0999 V2000
   28.4918   52.9478   -3.4200 O   0  0  0  0  0  0  0  0  0  0  0  0
   28.0078   52.3237   -2.4687 C   0  0  0  0  0  0  0  0  0  0  0  0
   26.6399   51.7703   -2.5206 C   0  0  0  0  0  0  0  0  0  0  0  0
   25.8165   51.9570   -3.6319 C   0  0  0  0  0  0  0  0  0  0  0  0
   24.5396   51.4161   -3.6545 C   0  0  0  0  0  0  0  0  0  0  0  0
   24.0672   50.6791   -2.5807 C   0  0  0  0  0  0  0  0  0  0  0  0
   26.1485   51.0310   -1.4420 C   0  0  0  0  0  0  0  0  0  0  0  0
   24.8663   50.4674   -1.4607 C   0  0  0  0  0  0  0  0  0  0  0  0
   26.9187   50.8112   -0.3204 O   0  0  0  0  0  0  0  0  0  0  0  0
   28.2043   51.3241   -0.2674 C   0  0  0  0  0  0  0  0  0  0  0  0
   28.7681   52.0711   -1.2706 C   0  0  0  0  0  0  0  0  0  0  0  0
   28.8125   50.8926    0.9296 N   0  0  0  0  0  0  0  0  0  0  0  0
   30.2737   50.9378    1.0175 C   0  0  0  0  0  0  0  0  0  0  0  0
   30.6509   51.6925    2.2650 C   0  0  0  0  0  0  0  0  0  0  0  0
   29.8896   51.2106    3.4316 N   0  0  0  0  0  0  0  0  0  0  0  0
   28.4360   51.3386    3.2533 C   0  0  0  0  0  0  0  0  0  0  0  0
   27.9458   50.5543    2.0613 C   0  0  0  0  0  0  0  0  0  0  0  0
   30.1142   50.2274    3.5842 H   0  0  0  0  0  0  0  0  0  0  0  0
   24.3487   49.6169   -0.3498 C   0  0  0  0  0  0  0  0  0  0  0  0
   22.9828   49.5375   -0.0873 C   0  0  0  0  0  0  0  0  0  0  0  0
   22.5055   48.7448    0.9438 C   0  0  0  0  0  0  0  0  0  0  0  0
   23.3770   48.0243    1.7265 C   0  0  0  0  0  0  0  0  0  0  0  0
   24.7303   48.0879    1.4801 C   0  0  0  0  0  0  0  0  0  0  0  0
   25.2159   48.8752    0.4496 C   0  0  0  0  0  0  0  0  0  0  0  0
 15 16  1  0  0  0
 15 14  1  0  0  0
 16 17  1  0  0  0
 14 13  1  0  0  0
 17 12  1  0  0  0
 13 12  1  0  0  0
 12 10  1  0  0  0
 23 24  2  0  0  0
 23 22  1  0  0  0
 10 11  2  0  0  0
 10  9  1  0  0  0
 24 19  1  0  0  0
 11  2  1  0  0  0
  9  7  1  0  0  0
 22 21  2  0  0  0
  2  1  2  0  0  0
  2  3  1  0  0  0
  7  3  2  0  0  0
  7  8  1  0  0  0
 19  8  1  0  0  0
 19 20  2  0  0  0
  3  4  1  0  0  0
  8  6  2  0  0  0
 21 20  1  0  0  0
  4  5  2  0  0  0
  6  5  1  0  0  0
 15 18  1  0  0  0
M  END
> <minimizedAffinity>
-7.75143

$$$$
4CFL_8DQ_A_1169


 24 27  0  0  0  0  0  0  0  0999 V2000
   25.4964   48.0567    2.0150 O   0  0  0  0  0  0  0  0  0  0  0  0
   25.8161   48.8525    1.1243 C   0  0  0  0  0  0  0  0  0  0  0  0
   24.8024   49.5588    0.3160 C   0  0  0  0  0  0  0  0  0  0  0  0
   23.4366   49.3338    0.4952 C   0  0  0  0  0  0  0  0  0  0  0  0
   22.5084   50.0204   -0.2733 C   0  0  0  0  0  0  0  0  0  0  0  0
   22.9220   50.9416   -1.2218 C   0  0  0  0  0  0  0  0  0  0  0  0
   25.2057   50.4852   -0.6487 C   0  0  0  0  0  0  0  0  0  0  0  0
   24.2763   51.1953   -1.4195 C   0  0  0  0  0  0  0  0  0  0  0  0
   26.5406   50.7506   -0.8659 O   0  0  0  0  0  0  0  0  0  0  0  0
   27.4962   50.0944   -0.1077 C   0  0  0  0  0  0  0  0  0  0  0  0
   27.1974   49.1612    0.8525 C   0  0  0  0  0  0  0  0  0  0  0  0
   28.7678   50.5978   -0.4520 N   0  0  0  0  0  0  0  0  0  0  0  0
   29.0838   50.7637   -1.8724 C   0  0  0  0  0  0  0  0  0  0  0  0
   29.5653   52.1740   -2.0899 C   0  0  0  0  0  0  0  0  0  0  0  0
   30.5839   52.5504   -1.0931 N   0  0  0  0  0  0  0  0  0  0  0  0
   30.0895   52.4541    0.2880 C   0  0  0  0  0  0  0  0  0  0  0  0
   29.6460   51.0528    0.6288 C   0  0  0  0  0  0  0  0  0  0  0  0
   31.3864   51.9294   -1.1963 H   0  0  0  0  0  0  0  0  0  0  0  0
   24.6834   52.2385   -2.4051 C   0  0  0  0  0  0  0  0  0  0  0  0
   24.0205   52.3679   -3.6235 C   0  0  0  0  0  0  0  0  0  0  0  0
   24.3997   53.3394   -4.5356 C   0  0  0  0  0  0  0  0  0  0  0  0
   25.4410   54.1913   -4.2502 C   0  0  0  0  0  0  0  0  0  0  0  0
   26.1060   54.0805   -3.0495 C   0  0  0  0  0  0  0  0  0  0  0  0
   25.7316   53.1143   -2.1308 C   0  0  0  0  0  0  0  0  0  0  0  0
 15 16  1  0  0  0
 15 14  1  0  0  0
 16 17  1  0  0  0
 14 13  1  0  0  0
 17 12  1  0  0  0
 13 12  1  0  0  0
 12 10  1  0  0  0
 23 24  2  0  0  0
 23 22  1  0  0  0
 10 11  2  0  0  0
 10  9  1  0  0  0
 24 19  1  0  0  0
 11  2  1  0  0  0
  9  7  1  0  0  0
 22 21  2  0  0  0
  2  1  2  0  0  0
  2  3  1  0  0  0
  7  3  2  0  0  0
  7  8  1  0  0  0
 19  8  1  0  0  0
 19 20  2  0  0  0
  3  4  1  0  0  0
  8  6  2  0  0  0
 21 20  1  0  0  0
  4  5  2  0  0  0
  6  5  1  0  0  0
 15 18  1  0  0  0
M  END
> <minimizedAffinity>
-7.55680

$$$$
4CFL_8DQ_A_1169


 24 27  0  0  0  0  0  0  0  0999 V2000
   31.9901   53.2828   -2.8442 O   0  0  0  0  0  0  0  0  0  0  0  0
   31.1230   52.8978   -2.0513 C   0  0  0  0  0  0  0  0  0  0  0  0
   29.8618   52.2885   -2.5181 C   0  0  0  0  0  0  0  0  0  0  0  0
   29.5738   52.1519   -3.8769 C   0  0  0  0  0  0  0  0  0  0  0  0
   28.3843   51.5662   -4.2839 C   0  0  0  0  0  0  0  0  0  0  0  0
   27.4710   51.1035   -3.3506 C   0  0  0  0  0  0  0  0  0  0  0  0
   28.9289   51.8240   -1.5877 C   0  0  0  0  0  0  0  0  0  0  0  0
   27.7316   51.2171   -1.9879 C   0  0  0  0  0  0  0  0  0  0  0  0
   29.1620   51.9289   -0.2334 O   0  0  0  0  0  0  0  0  0  0  0  0
   30.3454   52.4955    0.2108 C   0  0  0  0  0  0  0  0  0  0  0  0
   31.3141   52.9898   -0.6257 C   0  0  0  0  0  0  0  0  0  0  0  0
   30.3867   52.4075    1.6177 N   0  0  0  0  0  0  0  0  0  0  0  0
   30.9004   53.5561    2.3670 C   0  0  0  0  0  0  0  0  0  0  0  0
   29.8847   53.9329    3.4133 C   0  0  0  0  0  0  0  0  0  0  0  0
   29.4273   52.7497    4.1640 N   0  0  0  0  0  0  0  0  0  0  0  0
   28.8205   51.7279    3.2987 C   0  0  0  0  0  0  0  0  0  0  0  0
   29.7887   51.2309    2.2537 C   0  0  0  0  0  0  0  0  0  0  0  0
   30.2279   52.3377    4.6432 H   0  0  0  0  0  0  0  0  0  0  0  0
   26.7548   50.6520   -1.0122 C   0  0  0  0  0  0  0  0  0  0  0  0
   27.1827   49.8542    0.0467 C   0  0  0  0  0  0  0  0  0  0  0  0
   26.2730   49.3329    0.9523 C   0  0  0  0  0  0  0  0  0  0  0  0
   24.9298   49.5954    0.8166 C   0  0  0  0  0  0  0  0  0  0  0  0
   24.4885   50.3844   -0.2220 C   0  0  0  0  0  0  0  0  0  0  0  0
   25.3912   50.9121   -1.1300 C   0  0  0  0  0  0  0  0  0  0  0  0
 15 16  1  0  0  0
 15 14  1  0  0  0
 16 17  1  0  0  0
 14 13  1  0  0  0
 17 12  1  0  0  0
 13 12  1  0  0  0
 12 10  1  0  0  0
 23 24  2  0  0  0
 23 22  1  0  0  0
 10 11  2  0  0  0
 10  9  1  0  0  0
 24 19  1  0  0  0
 11  2  1  0  0  0
  9  7  1  0  0  0
 22 21  2  0  0  0
  2  1  2  0  0  0
  2  3  1  0  0  0
  7  3  2  0  0  0
  7  8  1  0  0  0
 19  8  1  0  0  0
 19 20  2  0  0  0
  3  4  1  0  0  0
  8  6  2  0  0  0
 21 20  1  0  0  0
  4  5  2  0  0  0
  6  5  1  0  0  0
 15 18  1  0  0  0
M  END
> <minimizedAffinity>
-7.46458

$$$$
4CFL_8DQ_A_1169


 24 27  0  0  0  0  0  0  0  0999 V2000
   23.3737   51.1123    0.3236 O   0  0  0  0  0  0  0  0  0  0  0  0
   24.5299   51.0179   -0.1043 C   0  0  0  0  0  0  0  0  0  0  0  0
   24.8269   51.0604   -1.5499 C   0  0  0  0  0  0  0  0  0  0  0  0
   23.8131   51.1727   -2.5025 C   0  0  0  0  0  0  0  0  0  0  0  0
   24.1251   51.2200   -3.8531 C   0  0  0  0  0  0  0  0  0  0  0  0
   25.4437   51.1637   -4.2742 C   0  0  0  0  0  0  0  0  0  0  0  0
   26.1517   50.9976   -1.9887 C   0  0  0  0  0  0  0  0  0  0  0  0
   26.4789   51.0600   -3.3493 C   0  0  0  0  0  0  0  0  0  0  0  0
   27.1936   50.8905   -1.0929 O   0  0  0  0  0  0  0  0  0  0  0  0
   26.9216   50.8546    0.2649 C   0  0  0  0  0  0  0  0  0  0  0  0
   25.6545   50.8982    0.7891 C   0  0  0  0  0  0  0  0  0  0  0  0
   28.1436   50.8337    0.9686 N   0  0  0  0  0  0  0  0  0  0  0  0
   29.3789   51.0588    0.2148 C   0  0  0  0  0  0  0  0  0  0  0  0
   30.1524   52.1609    0.8896 C   0  0  0  0  0  0  0  0  0  0  0  0
   30.2455   51.9354    2.3433 N   0  0  0  0  0  0  0  0  0  0  0  0
   28.9281   51.8521    2.9904 C   0  0  0  0  0  0  0  0  0  0  0  0
   28.0976   50.7246    2.4289 C   0  0  0  0  0  0  0  0  0  0  0  0
   30.7450   51.0611    2.5065 H   0  0  0  0  0  0  0  0  0  0  0  0
   27.8895   51.0648   -3.8346 C   0  0  0  0  0  0  0  0  0  0  0  0
   28.6199   52.2495   -3.8962 C   0  0  0  0  0  0  0  0  0  0  0  0
   29.9306   52.2499   -4.3453 C   0  0  0  0  0  0  0  0  0  0  0  0
   30.5300   51.0766   -4.7397 C   0  0  0  0  0  0  0  0  0  0  0  0
   29.8246   49.8953   -4.6828 C   0  0  0  0  0  0  0  0  0  0  0  0
   28.5152   49.8853   -4.2323 C   0  0  0  0  0  0  0  0  0  0  0  0
 15 16  1  0  0  0
 15 14  1  0  0  0
 16 17  1  0  0  0
 14 13  1  0  0  0
 17 12  1  0  0  0
 13 12  1  0  0  0
 12 10  1  0  0  0
 23 24  2  0  0  0
 23 22  1  0  0  0
 10 11  2  0  0  0
 10  9  1  0  0  0
 24 19  1  0  0  0
 11  2  1  0  0  0
  9  7  1  0  0  0
 22 21  2  0  0  0
  2  1  2  0  0  0
  2  3  1  0  0  0
  7  3  2  0  0  0
  7  8  1  0  0  0
 19  8  1  0  0  0
 19 20  2  0  0  0
  3  4  1  0  0  0
  8  6  2  0  0  0
 21 20  1  0  0  0
  4  5  2  0  0  0
  6  5  1  0  0  0
 15 18  1  0  0  0
M  END
> <minimizedAffinity>
-7.41336

$$$$
