3RTF_CWD_B_800


 19 19  0  0  0  0  0  0  0  0999 V2000
   18.5634  -21.0553  -26.5747 N   0  0  0  0  0  0  0  0  0  0  0  0
   17.8834  -20.9946  -25.4190 C   0  0  0  0  0  0  0  0  0  0  0  0
   18.4301  -20.9898  -24.3415 O   0  0  0  0  0  0  0  0  0  0  0  0
   16.5176  -20.9945  -25.4355 N   0  0  0  0  0  0  0  0  0  0  0  0
   15.9150  -21.0721  -26.6369 C   0  0  0  0  0  0  0  0  0  0  0  0
   14.5391  -21.0157  -26.6231 O   0  0  0  0  0  0  0  0  0  0  0  0
   16.6258  -21.1331  -27.8050 C   0  0  0  0  0  0  0  0  0  0  0  0
   15.8197  -21.2712  -29.3745 Cl  0  0  0  0  0  0  0  0  0  0  0  0
   17.9637  -21.1377  -27.8239 C   0  0  0  0  0  0  0  0  0  0  0  0
   15.9952  -20.9400  -24.6029 H   0  0  0  0  0  0  0  0  0  0  0  0
   20.0289  -20.9603  -26.5231 C   0  0  0  0  0  0  0  0  0  0  0  0
   20.4850  -19.5292  -26.2731 C   0  0  0  0  0  0  0  0  0  0  0  0
   20.2754  -18.6422  -27.4153 N   0  0  0  0  0  0  0  0  0  0  0  0
   20.8380  -18.9635  -28.2031 H   0  0  0  0  0  0  0  0  0  0  0  0
   20.5526  -17.6932  -27.1642 H   0  0  0  0  0  0  0  0  0  0  0  0
   21.9632  -19.5080  -25.9086 C   0  0  0  0  0  0  0  0  0  0  0  0
   22.3793  -19.9947  -24.8877 O   0  0  0  0  0  0  0  0  0  0  0  0
   22.7480  -18.7924  -26.7624 O   0  0  0  0  0  0  0  0  0  0  0  0
   22.3809  -18.4322  -27.5456 H   0  0  0  0  0  0  0  0  0  0  0  0
  1  2  1  0  0  0
  1  9  1  0  0  0
  1 11  1  0  0  0
  2  3  2  0  0  0
  2  4  1  0  0  0
  4  5  1  0  0  0
  5  6  2  0  0  0
  5  7  1  0  0  0
  7  8  1  0  0  0
  7  9  2  0  0  0
 11 12  1  0  0  0
 12 13  1  0  0  0
 12 16  1  0  0  0
 16 17  2  0  0  0
 16 18  1  0  0  0
  4 10  1  0  0  0
 13 14  1  0  0  0
 13 15  1  0  0  0
 18 19  1  0  0  0
M  END
> <minimizedAffinity>
-9.20356

$$$$
3RTF_CWD_B_800


 19 19  0  0  0  0  0  0  0  0999 V2000
   18.2072  -20.8248  -27.1218 N   0  0  0  0  0  0  0  0  0  0  0  0
   17.7332  -20.4550  -28.3219 C   0  0  0  0  0  0  0  0  0  0  0  0
   18.4492  -20.0581  -29.2106 O   0  0  0  0  0  0  0  0  0  0  0  0
   16.3867  -20.4658  -28.5514 N   0  0  0  0  0  0  0  0  0  0  0  0
   15.5901  -20.8412  -27.5330 C   0  0  0  0  0  0  0  0  0  0  0  0
   14.2427  -20.8931  -27.8126 O   0  0  0  0  0  0  0  0  0  0  0  0
   16.0924  -21.2153  -26.3160 C   0  0  0  0  0  0  0  0  0  0  0  0
   15.0307  -21.6717  -24.9756 Cl  0  0  0  0  0  0  0  0  0  0  0  0
   17.4053  -21.2135  -26.0575 C   0  0  0  0  0  0  0  0  0  0  0  0
   16.0140  -20.2095  -29.4258 H   0  0  0  0  0  0  0  0  0  0  0  0
   19.6641  -20.8889  -26.9412 C   0  0  0  0  0  0  0  0  0  0  0  0
   20.2186  -19.5697  -26.4207 C   0  0  0  0  0  0  0  0  0  0  0  0
   20.1655  -18.4873  -27.4010 N   0  0  0  0  0  0  0  0  0  0  0  0
   20.7543  -18.7229  -28.1999 H   0  0  0  0  0  0  0  0  0  0  0  0
   20.5019  -17.6245  -26.9734 H   0  0  0  0  0  0  0  0  0  0  0  0
   21.6636  -19.7495  -25.9758 C   0  0  0  0  0  0  0  0  0  0  0  0
   21.9966  -20.6218  -25.2139 O   0  0  0  0  0  0  0  0  0  0  0  0
   22.5155  -18.7775  -26.4079 O   0  0  0  0  0  0  0  0  0  0  0  0
   22.2122  -18.1186  -27.0010 H   0  0  0  0  0  0  0  0  0  0  0  0
  1  2  1  0  0  0
  1  9  1  0  0  0
  1 11  1  0  0  0
  2  3  2  0  0  0
  2  4  1  0  0  0
  4  5  1  0  0  0
  5  6  2  0  0  0
  5  7  1  0  0  0
  7  8  1  0  0  0
  7  9  2  0  0  0
 11 12  1  0  0  0
 12 13  1  0  0  0
 12 16  1  0  0  0
 16 17  2  0  0  0
 16 18  1  0  0  0
  4 10  1  0  0  0
 13 14  1  0  0  0
 13 15  1  0  0  0
 18 19  1  0  0  0
M  END
> <minimizedAffinity>
-7.98261

$$$$
3RTF_CWD_B_800


 19 19  0  0  0  0  0  0  0  0999 V2000
   17.2736  -21.1276  -27.2233 N   0  0  0  0  0  0  0  0  0  0  0  0
   16.8056  -21.5145  -28.4205 C   0  0  0  0  0  0  0  0  0  0  0  0
   17.3647  -21.2430  -29.4567 O   0  0  0  0  0  0  0  0  0  0  0  0
   15.6233  -22.1938  -28.4987 N   0  0  0  0  0  0  0  0  0  0  0  0
   14.9700  -22.4305  -27.3455 C   0  0  0  0  0  0  0  0  0  0  0  0
   13.8093  -23.1636  -27.4526 O   0  0  0  0  0  0  0  0  0  0  0  0
   15.4635  -22.0281  -26.1339 C   0  0  0  0  0  0  0  0  0  0  0  0
   14.5757  -22.3146  -24.6300 Cl  0  0  0  0  0  0  0  0  0  0  0  0
   16.6168  -21.3588  -26.0225 C   0  0  0  0  0  0  0  0  0  0  0  0
   15.2634  -22.4981  -29.3631 H   0  0  0  0  0  0  0  0  0  0  0  0
   18.5920  -20.4810  -27.1699 C   0  0  0  0  0  0  0  0  0  0  0  0
   19.3136  -20.7961  -25.8665 C   0  0  0  0  0  0  0  0  0  0  0  0
   18.6094  -20.3166  -24.6792 N   0  0  0  0  0  0  0  0  0  0  0  0
   18.5498  -19.2987  -24.7072 H   0  0  0  0  0  0  0  0  0  0  0  0
   19.1176  -20.6046  -23.8431 H   0  0  0  0  0  0  0  0  0  0  0  0
   20.7088  -20.1865  -25.8811 C   0  0  0  0  0  0  0  0  0  0  0  0
   21.6727  -20.7803  -25.4682 O   0  0  0  0  0  0  0  0  0  0  0  0
   20.7549  -18.8841  -26.2794 O   0  0  0  0  0  0  0  0  0  0  0  0
   19.9793  -18.4627  -26.5939 H   0  0  0  0  0  0  0  0  0  0  0  0
  1  2  1  0  0  0
  1  9  1  0  0  0
  1 11  1  0  0  0
  2  3  2  0  0  0
  2  4  1  0  0  0
  4  5  1  0  0  0
  5  6  2  0  0  0
  5  7  1  0  0  0
  7  8  1  0  0  0
  7  9  2  0  0  0
 11 12  1  0  0  0
 12 13  1  0  0  0
 12 16  1  0  0  0
 16 17  2  0  0  0
 16 18  1  0  0  0
  4 10  1  0  0  0
 13 14  1  0  0  0
 13 15  1  0  0  0
 18 19  1  0  0  0
M  END
> <minimizedAffinity>
-7.86442

$$$$
3RTF_CWD_B_800


 19 19  0  0  0  0  0  0  0  0999 V2000
   17.3687  -21.1847  -26.2475 N   0  0  0  0  0  0  0  0  0  0  0  0
   16.2343  -21.6530  -25.7038 C   0  0  0  0  0  0  0  0  0  0  0  0
   16.1474  -21.9533  -24.5366 O   0  0  0  0  0  0  0  0  0  0  0  0
   15.1392  -21.8597  -26.4935 N   0  0  0  0  0  0  0  0  0  0  0  0
   15.2655  -21.5901  -27.8065 C   0  0  0  0  0  0  0  0  0  0  0  0
   14.1288  -21.7575  -28.5657 O   0  0  0  0  0  0  0  0  0  0  0  0
   16.4309  -21.1129  -28.3426 C   0  0  0  0  0  0  0  0  0  0  0  0
   16.5928  -20.7974  -30.0764 Cl  0  0  0  0  0  0  0  0  0  0  0  0
   17.5223  -20.9018  -27.5978 C   0  0  0  0  0  0  0  0  0  0  0  0
   14.2921  -22.1922  -26.1179 H   0  0  0  0  0  0  0  0  0  0  0  0
   18.4958  -20.8879  -25.3526 C   0  0  0  0  0  0  0  0  0  0  0  0
   19.8317  -21.1418  -26.0378 C   0  0  0  0  0  0  0  0  0  0  0  0
   20.5387  -22.3122  -25.5222 N   0  0  0  0  0  0  0  0  0  0  0  0
   20.7711  -22.1637  -24.5402 H   0  0  0  0  0  0  0  0  0  0  0  0
   21.3957  -22.4545  -26.0566 H   0  0  0  0  0  0  0  0  0  0  0  0
   20.7354  -19.9255  -25.8880 C   0  0  0  0  0  0  0  0  0  0  0  0
   20.4781  -18.8675  -26.4043 O   0  0  0  0  0  0  0  0  0  0  0  0
   21.9064  -20.1658  -25.2337 O   0  0  0  0  0  0  0  0  0  0  0  0
   22.0634  -21.0047  -24.8470 H   0  0  0  0  0  0  0  0  0  0  0  0
  1  2  1  0  0  0
  1  9  1  0  0  0
  1 11  1  0  0  0
  2  3  2  0  0  0
  2  4  1  0  0  0
  4  5  1  0  0  0
  5  6  2  0  0  0
  5  7  1  0  0  0
  7  8  1  0  0  0
  7  9  2  0  0  0
 11 12  1  0  0  0
 12 13  1  0  0  0
 12 16  1  0  0  0
 16 17  2  0  0  0
 16 18  1  0  0  0
  4 10  1  0  0  0
 13 14  1  0  0  0
 13 15  1  0  0  0
 18 19  1  0  0  0
M  END
> <minimizedAffinity>
-6.77864

$$$$
