4ARW_HNR_A_400


 27 28  0  0  0  0  0  0  0  0999 V2000
   35.9262    5.5173    8.0005 N   0  0  0  0  0  0  0  0  0  0  0  0
   36.3014    4.2280    8.4322 C   0  0  0  0  0  0  0  0  0  0  0  0
   37.5471    4.0317    8.8680 N   0  0  0  0  0  0  0  0  0  0  0  0
   34.6323    5.7754    7.5343 C   0  0  0  0  0  0  0  0  0  0  0  0
   34.3087    6.9025    7.1636 O   0  0  0  0  0  0  0  0  0  0  0  0
   33.7178    4.7572    7.4806 N   0  0  0  0  0  0  0  0  0  0  0  0
   34.0677    3.4758    7.8815 C   0  0  0  0  0  0  0  0  0  0  0  0
   33.1894    2.6169    7.7915 O   0  0  0  0  0  0  0  0  0  0  0  0
   35.3635    3.1862    8.3629 C   0  0  0  0  0  0  0  0  0  0  0  0
   38.1804    4.7846    8.9041 H   0  0  0  0  0  0  0  0  0  0  0  0
   37.8330    3.1339    9.1536 H   0  0  0  0  0  0  0  0  0  0  0  0
   32.8060    4.9358    7.1552 H   0  0  0  0  0  0  0  0  0  0  0  0
   35.6589    1.9444    8.7603 N   0  0  0  0  0  0  0  0  0  0  0  0
   36.1357    0.9885    7.7358 C   0  0  0  0  0  0  0  0  0  0  0  0
   35.6752    1.5312   10.3569 S   0  0  0  0  0  0  0  0  0  0  0  0
   36.3593    0.2850   10.5526 O   0  0  0  0  0  0  0  0  0  0  0  0
   36.2642    2.5993   11.2163 O   0  0  0  0  0  0  0  0  0  0  0  0
   33.9919    1.3342   10.8263 C   0  0  0  0  0  0  0  0  0  0  0  0
   33.2756    0.2291   10.4224 C   0  0  0  0  0  0  0  0  0  0  0  0
   31.9477    0.0852   10.8166 C   0  0  0  0  0  0  0  0  0  0  0  0
   31.3235    1.0460   11.6024 C   0  0  0  0  0  0  0  0  0  0  0  0
   32.0463    2.1546   11.9810 C   0  0  0  0  0  0  0  0  0  0  0  0
   33.3710    2.2930   11.6077 C   0  0  0  0  0  0  0  0  0  0  0  0
   36.8924    6.6117    8.0311 C   0  0  0  0  0  0  0  0  0  0  0  0
   36.7095    7.3393    9.3578 C   0  0  0  0  0  0  0  0  0  0  0  0
   37.9742    6.5510   11.4233 C   0  0  0  0  0  0  0  0  0  0  0  0
   37.9993    7.4343   10.1549 C   0  0  0  0  0  0  0  0  0  0  0  0
 26 27  1  0  0  0
 27 25  1  0  0  0
 25 24  1  0  0  0
 24  1  1  0  0  0
  1  2  1  0  0  0
  1  4  1  0  0  0
  2  3  1  0  0  0
  2  9  2  0  0  0
  4  5  2  0  0  0
  4  6  1  0  0  0
  6  7  1  0  0  0
  7  8  2  0  0  0
  7  9  1  0  0  0
  9 13  1  0  0  0
 13 14  1  0  0  0
 13 15  1  0  0  0
 15 16  2  0  0  0
 15 17  2  0  0  0
 15 18  1  0  0  0
 18 19  1  0  0  0
 18 23  2  0  0  0
 19 20  2  0  0  0
 20 21  1  0  0  0
 21 22  2  0  0  0
 22 23  1  0  0  0
  3 10  1  0  0  0
  3 11  1  0  0  0
  6 12  1  0  0  0
M  END
> <minimizedAffinity>
-7.55537

$$$$
4ARW_HNR_A_400


 27 28  0  0  0  0  0  0  0  0999 V2000
   37.8298    3.8091   10.2308 N   0  0  0  0  0  0  0  0  0  0  0  0
   36.9268    3.5078    9.1900 C   0  0  0  0  0  0  0  0  0  0  0  0
   36.7199    4.4151    8.2338 N   0  0  0  0  0  0  0  0  0  0  0  0
   38.0816    2.8921   11.2574 C   0  0  0  0  0  0  0  0  0  0  0  0
   38.8736    3.1576   12.1599 O   0  0  0  0  0  0  0  0  0  0  0  0
   37.4296    1.6876   11.2624 N   0  0  0  0  0  0  0  0  0  0  0  0
   36.5221    1.3749   10.2604 C   0  0  0  0  0  0  0  0  0  0  0  0
   35.9723    0.2761   10.3455 O   0  0  0  0  0  0  0  0  0  0  0  0
   36.2525    2.2770    9.2077 C   0  0  0  0  0  0  0  0  0  0  0  0
   37.2098    5.2689    8.2511 H   0  0  0  0  0  0  0  0  0  0  0  0
   36.0775    4.2307    7.5109 H   0  0  0  0  0  0  0  0  0  0  0  0
   37.6060    1.0392   11.9819 H   0  0  0  0  0  0  0  0  0  0  0  0
   35.3876    1.9335    8.2478 N   0  0  0  0  0  0  0  0  0  0  0  0
   35.8248    0.9266    7.2550 C   0  0  0  0  0  0  0  0  0  0  0  0
   33.8257    2.4627    8.2651 S   0  0  0  0  0  0  0  0  0  0  0  0
   33.7744    3.8920    8.3819 O   0  0  0  0  0  0  0  0  0  0  0  0
   33.0539    2.0008    7.0746 O   0  0  0  0  0  0  0  0  0  0  0  0
   33.0855    1.7500    9.6922 C   0  0  0  0  0  0  0  0  0  0  0  0
   32.6060    0.4589    9.6632 C   0  0  0  0  0  0  0  0  0  0  0  0
   32.0359   -0.0916   10.8083 C   0  0  0  0  0  0  0  0  0  0  0  0
   31.9283    0.6440   11.9821 C   0  0  0  0  0  0  0  0  0  0  0  0
   32.3934    1.9395   11.9894 C   0  0  0  0  0  0  0  0  0  0  0  0
   32.9775    2.4846   10.8601 C   0  0  0  0  0  0  0  0  0  0  0  0
   38.5199    5.0957   10.2543 C   0  0  0  0  0  0  0  0  0  0  0  0
   37.6687    6.0502   11.0836 C   0  0  0  0  0  0  0  0  0  0  0  0
   37.6857    6.3243   13.6157 C   0  0  0  0  0  0  0  0  0  0  0  0
   38.4160    6.6077   12.2831 C   0  0  0  0  0  0  0  0  0  0  0  0
 26 27  1  0  0  0
 27 25  1  0  0  0
 25 24  1  0  0  0
 24  1  1  0  0  0
  1  2  1  0  0  0
  1  4  1  0  0  0
  2  3  1  0  0  0
  2  9  2  0  0  0
  4  5  2  0  0  0
  4  6  1  0  0  0
  6  7  1  0  0  0
  7  8  2  0  0  0
  7  9  1  0  0  0
  9 13  1  0  0  0
 13 14  1  0  0  0
 13 15  1  0  0  0
 15 16  2  0  0  0
 15 17  2  0  0  0
 15 18  1  0  0  0
 18 19  1  0  0  0
 18 23  2  0  0  0
 19 20  2  0  0  0
 20 21  1  0  0  0
 21 22  2  0  0  0
 22 23  1  0  0  0
  3 10  1  0  0  0
  3 11  1  0  0  0
  6 12  1  0  0  0
M  END
> <minimizedAffinity>
-7.53058

$$$$
4ARW_HNR_A_400


 27 28  0  0  0  0  0  0  0  0999 V2000
   35.9450    5.5949    7.8993 N   0  0  0  0  0  0  0  0  0  0  0  0
   36.3246    4.3101    8.3406 C   0  0  0  0  0  0  0  0  0  0  0  0
   37.5826    4.1111    8.7380 N   0  0  0  0  0  0  0  0  0  0  0  0
   34.6382    5.8556    7.4721 C   0  0  0  0  0  0  0  0  0  0  0  0
   34.3110    6.9788    7.0929 O   0  0  0  0  0  0  0  0  0  0  0  0
   33.7147    4.8442    7.4667 N   0  0  0  0  0  0  0  0  0  0  0  0
   34.0680    3.5670    7.8779 C   0  0  0  0  0  0  0  0  0  0  0  0
   33.1807    2.7140    7.8323 O   0  0  0  0  0  0  0  0  0  0  0  0
   35.3769    3.2751    8.3208 C   0  0  0  0  0  0  0  0  0  0  0  0
   38.2225    4.8593    8.7398 H   0  0  0  0  0  0  0  0  0  0  0  0
   37.8710    3.2160    9.0294 H   0  0  0  0  0  0  0  0  0  0  0  0
   32.7938    5.0247    7.1689 H   0  0  0  0  0  0  0  0  0  0  0  0
   35.6760    2.0378    8.7297 N   0  0  0  0  0  0  0  0  0  0  0  0
   36.1386    1.0688    7.7110 C   0  0  0  0  0  0  0  0  0  0  0  0
   35.7122    1.6443   10.3309 S   0  0  0  0  0  0  0  0  0  0  0  0
   36.4177    0.4117   10.5357 O   0  0  0  0  0  0  0  0  0  0  0  0
   36.2910    2.7319   11.1724 O   0  0  0  0  0  0  0  0  0  0  0  0
   34.0362    1.4261   10.8169 C   0  0  0  0  0  0  0  0  0  0  0  0
   33.4018    2.3717   11.5922 C   0  0  0  0  0  0  0  0  0  0  0  0
   32.0700    2.1866   11.9547 C   0  0  0  0  0  0  0  0  0  0  0  0
   31.3684    1.0545   11.5590 C   0  0  0  0  0  0  0  0  0  0  0  0
   32.0221    0.1089   10.8018 C   0  0  0  0  0  0  0  0  0  0  0  0
   33.3393    0.2971   10.4234 C   0  0  0  0  0  0  0  0  0  0  0  0
   36.9200    6.6817    7.8786 C   0  0  0  0  0  0  0  0  0  0  0  0
   37.5697    6.6801    6.4997 C   0  0  0  0  0  0  0  0  0  0  0  0
   36.7978    9.0542    5.9948 C   0  0  0  0  0  0  0  0  0  0  0  0
   37.9880    8.0693    6.0491 C   0  0  0  0  0  0  0  0  0  0  0  0
 26 27  1  0  0  0
 27 25  1  0  0  0
 25 24  1  0  0  0
 24  1  1  0  0  0
  1  2  1  0  0  0
  1  4  1  0  0  0
  2  3  1  0  0  0
  2  9  2  0  0  0
  4  5  2  0  0  0
  4  6  1  0  0  0
  6  7  1  0  0  0
  7  8  2  0  0  0
  7  9  1  0  0  0
  9 13  1  0  0  0
 13 14  1  0  0  0
 13 15  1  0  0  0
 15 16  2  0  0  0
 15 17  2  0  0  0
 15 18  1  0  0  0
 18 19  1  0  0  0
 18 23  2  0  0  0
 19 20  2  0  0  0
 20 21  1  0  0  0
 21 22  2  0  0  0
 22 23  1  0  0  0
  3 10  1  0  0  0
  3 11  1  0  0  0
  6 12  1  0  0  0
M  END
> <minimizedAffinity>
-7.23801

$$$$
4ARW_HNR_A_400


 27 28  0  0  0  0  0  0  0  0999 V2000
   37.4800    0.8773    6.1464 N   0  0  0  0  0  0  0  0  0  0  0  0
   36.6873    1.8941    6.7184 C   0  0  0  0  0  0  0  0  0  0  0  0
   36.4481    2.9995    6.0103 N   0  0  0  0  0  0  0  0  0  0  0  0
   37.7604   -0.3010    6.8473 C   0  0  0  0  0  0  0  0  0  0  0  0
   38.4480   -1.1867    6.3422 O   0  0  0  0  0  0  0  0  0  0  0  0
   37.2713   -0.4651    8.1160 N   0  0  0  0  0  0  0  0  0  0  0  0
   36.5049    0.5284    8.7084 C   0  0  0  0  0  0  0  0  0  0  0  0
   36.1134    0.3052    9.8546 O   0  0  0  0  0  0  0  0  0  0  0  0
   36.1996    1.7252    8.0235 C   0  0  0  0  0  0  0  0  0  0  0  0
   36.8052    3.0859    5.0970 H   0  0  0  0  0  0  0  0  0  0  0  0
   35.9145    3.7286    6.4013 H   0  0  0  0  0  0  0  0  0  0  0  0
   37.4648   -1.2937    8.6111 H   0  0  0  0  0  0  0  0  0  0  0  0
   35.4407    2.6518    8.6176 N   0  0  0  0  0  0  0  0  0  0  0  0
   36.1235    3.6849    9.4282 C   0  0  0  0  0  0  0  0  0  0  0  0
   33.8230    2.7635    8.3169 S   0  0  0  0  0  0  0  0  0  0  0  0
   33.4253    4.1351    8.1767 O   0  0  0  0  0  0  0  0  0  0  0  0
   33.4082    1.9674    7.1250 O   0  0  0  0  0  0  0  0  0  0  0  0
   33.0177    2.0803    9.7232 C   0  0  0  0  0  0  0  0  0  0  0  0
   33.3125    2.5344   10.9899 C   0  0  0  0  0  0  0  0  0  0  0  0
   32.6534    1.9898   12.0892 C   0  0  0  0  0  0  0  0  0  0  0  0
   31.7090    0.9827   11.9341 C   0  0  0  0  0  0  0  0  0  0  0  0
   31.4402    0.5252   10.6640 C   0  0  0  0  0  0  0  0  0  0  0  0
   32.0785    1.0759    9.5672 C   0  0  0  0  0  0  0  0  0  0  0  0
   38.0274    1.0416    4.8027 C   0  0  0  0  0  0  0  0  0  0  0  0
   39.3777    1.7341    4.9462 C   0  0  0  0  0  0  0  0  0  0  0  0
   41.1973    2.7820    3.5046 C   0  0  0  0  0  0  0  0  0  0  0  0
   40.2480    1.5795    3.7106 C   0  0  0  0  0  0  0  0  0  0  0  0
 26 27  1  0  0  0
 27 25  1  0  0  0
 25 24  1  0  0  0
 24  1  1  0  0  0
  1  2  1  0  0  0
  1  4  1  0  0  0
  2  3  1  0  0  0
  2  9  2  0  0  0
  4  5  2  0  0  0
  4  6  1  0  0  0
  6  7  1  0  0  0
  7  8  2  0  0  0
  7  9  1  0  0  0
  9 13  1  0  0  0
 13 14  1  0  0  0
 13 15  1  0  0  0
 15 16  2  0  0  0
 15 17  2  0  0  0
 15 18  1  0  0  0
 18 19  1  0  0  0
 18 23  2  0  0  0
 19 20  2  0  0  0
 20 21  1  0  0  0
 21 22  2  0  0  0
 22 23  1  0  0  0
  3 10  1  0  0  0
  3 11  1  0  0  0
  6 12  1  0  0  0
M  END
> <minimizedAffinity>
-6.74651

$$$$
4ARW_HNR_A_400


 27 28  0  0  0  0  0  0  0  0999 V2000
   34.2176    1.3023    8.5480 N   0  0  0  0  0  0  0  0  0  0  0  0
   35.5865    0.9626    8.5379 C   0  0  0  0  0  0  0  0  0  0  0  0
   36.1165    0.3916    9.6212 N   0  0  0  0  0  0  0  0  0  0  0  0
   33.6137    1.9030    7.4377 C   0  0  0  0  0  0  0  0  0  0  0  0
   32.4187    2.1928    7.4497 O   0  0  0  0  0  0  0  0  0  0  0  0
   34.3660    2.1810    6.3275 N   0  0  0  0  0  0  0  0  0  0  0  0
   35.7189    1.8741    6.2996 C   0  0  0  0  0  0  0  0  0  0  0  0
   36.3237    2.1665    5.2673 O   0  0  0  0  0  0  0  0  0  0  0  0
   36.3546    1.2615    7.4020 C   0  0  0  0  0  0  0  0  0  0  0  0
   35.5493    0.1952   10.4015 H   0  0  0  0  0  0  0  0  0  0  0  0
   37.0748    0.1667    9.6401 H   0  0  0  0  0  0  0  0  0  0  0  0
   33.9439    2.6016    5.5438 H   0  0  0  0  0  0  0  0  0  0  0  0
   37.6554    0.9609    7.3318 N   0  0  0  0  0  0  0  0  0  0  0  0
   38.0262   -0.3801    6.8271 C   0  0  0  0  0  0  0  0  0  0  0  0
   38.8187    2.0950    7.6161 S   0  0  0  0  0  0  0  0  0  0  0  0
   40.1128    1.4826    7.7133 O   0  0  0  0  0  0  0  0  0  0  0  0
   38.8213    3.1786    6.5905 O   0  0  0  0  0  0  0  0  0  0  0  0
   38.4189    2.8253    9.1652 C   0  0  0  0  0  0  0  0  0  0  0  0
   38.9447    2.3219   10.3346 C   0  0  0  0  0  0  0  0  0  0  0  0
   38.6265    2.9234   11.5497 C   0  0  0  0  0  0  0  0  0  0  0  0
   37.7740    4.0190   11.6075 C   0  0  0  0  0  0  0  0  0  0  0  0
   37.2404    4.4977   10.4324 C   0  0  0  0  0  0  0  0  0  0  0  0
   37.5681    3.9154    9.2212 C   0  0  0  0  0  0  0  0  0  0  0  0
   33.4029    1.0324    9.7294 C   0  0  0  0  0  0  0  0  0  0  0  0
   33.5070    2.2514   10.6385 C   0  0  0  0  0  0  0  0  0  0  0  0
   31.7671    0.8513   11.8631 C   0  0  0  0  0  0  0  0  0  0  0  0
   32.5866    2.1619   11.8438 C   0  0  0  0  0  0  0  0  0  0  0  0
 26 27  1  0  0  0
 27 25  1  0  0  0
 25 24  1  0  0  0
 24  1  1  0  0  0
  1  2  1  0  0  0
  1  4  1  0  0  0
  2  3  1  0  0  0
  2  9  2  0  0  0
  4  5  2  0  0  0
  4  6  1  0  0  0
  6  7  1  0  0  0
  7  8  2  0  0  0
  7  9  1  0  0  0
  9 13  1  0  0  0
 13 14  1  0  0  0
 13 15  1  0  0  0
 15 16  2  0  0  0
 15 17  2  0  0  0
 15 18  1  0  0  0
 18 19  1  0  0  0
 18 23  2  0  0  0
 19 20  2  0  0  0
 20 21  1  0  0  0
 21 22  2  0  0  0
 22 23  1  0  0  0
  3 10  1  0  0  0
  3 11  1  0  0  0
  6 12  1  0  0  0
M  END
> <minimizedAffinity>
-6.66105

$$$$
4ARW_HNR_A_400


 27 28  0  0  0  0  0  0  0  0999 V2000
   37.2138    3.4947    6.4514 N   0  0  0  0  0  0  0  0  0  0  0  0
   37.2479    3.0696    7.7958 C   0  0  0  0  0  0  0  0  0  0  0  0
   38.3926    2.5982    8.2936 N   0  0  0  0  0  0  0  0  0  0  0  0
   36.0384    3.9967    5.8816 C   0  0  0  0  0  0  0  0  0  0  0  0
   36.0151    4.3706    4.7103 O   0  0  0  0  0  0  0  0  0  0  0  0
   34.8968    4.0625    6.6354 N   0  0  0  0  0  0  0  0  0  0  0  0
   34.8992    3.6328    7.9547 C   0  0  0  0  0  0  0  0  0  0  0  0
   33.8288    3.7167    8.5581 O   0  0  0  0  0  0  0  0  0  0  0  0
   36.0716    3.1279    8.5592 C   0  0  0  0  0  0  0  0  0  0  0  0
   39.1999    2.5711    7.7308 H   0  0  0  0  0  0  0  0  0  0  0  0
   38.4299    2.2774    9.2236 H   0  0  0  0  0  0  0  0  0  0  0  0
   34.0686    4.4172    6.2384 H   0  0  0  0  0  0  0  0  0  0  0  0
   36.0422    2.7425    9.8390 N   0  0  0  0  0  0  0  0  0  0  0  0
   36.2018    3.7860   10.8764 C   0  0  0  0  0  0  0  0  0  0  0  0
   35.6575    1.1964   10.2650 S   0  0  0  0  0  0  0  0  0  0  0  0
   35.7903    0.3118    9.1430 O   0  0  0  0  0  0  0  0  0  0  0  0
   36.4613    0.7072   11.4230 O   0  0  0  0  0  0  0  0  0  0  0  0
   33.9709    1.2332   10.7618 C   0  0  0  0  0  0  0  0  0  0  0  0
   33.5195    2.1920   11.6418 C   0  0  0  0  0  0  0  0  0  0  0  0
   32.1771    2.2122   12.0119 C   0  0  0  0  0  0  0  0  0  0  0  0
   31.2818    1.2712   11.5187 C   0  0  0  0  0  0  0  0  0  0  0  0
   31.7521    0.3070   10.6562 C   0  0  0  0  0  0  0  0  0  0  0  0
   33.0807    0.2940   10.2711 C   0  0  0  0  0  0  0  0  0  0  0  0
   38.4151    3.4139    5.6253 C   0  0  0  0  0  0  0  0  0  0  0  0
   38.2582    2.2003    4.7165 C   0  0  0  0  0  0  0  0  0  0  0  0
   37.8279   -0.0438    5.8416 C   0  0  0  0  0  0  0  0  0  0  0  0
   38.8851    0.9466    5.3022 C   0  0  0  0  0  0  0  0  0  0  0  0
 26 27  1  0  0  0
 27 25  1  0  0  0
 25 24  1  0  0  0
 24  1  1  0  0  0
  1  2  1  0  0  0
  1  4  1  0  0  0
  2  3  1  0  0  0
  2  9  2  0  0  0
  4  5  2  0  0  0
  4  6  1  0  0  0
  6  7  1  0  0  0
  7  8  2  0  0  0
  7  9  1  0  0  0
  9 13  1  0  0  0
 13 14  1  0  0  0
 13 15  1  0  0  0
 15 16  2  0  0  0
 15 17  2  0  0  0
 15 18  1  0  0  0
 18 19  1  0  0  0
 18 23  2  0  0  0
 19 20  2  0  0  0
 20 21  1  0  0  0
 21 22  2  0  0  0
 22 23  1  0  0  0
  3 10  1  0  0  0
  3 11  1  0  0  0
  6 12  1  0  0  0
M  END
> <minimizedAffinity>
-6.63588

$$$$
4ARW_HNR_A_400


 27 28  0  0  0  0  0  0  0  0999 V2000
   37.8973    4.7396   10.0680 N   0  0  0  0  0  0  0  0  0  0  0  0
   36.7473    4.0204    9.6809 C   0  0  0  0  0  0  0  0  0  0  0  0
   35.5798    4.3142   10.2562 N   0  0  0  0  0  0  0  0  0  0  0  0
   39.1453    4.4699    9.4953 C   0  0  0  0  0  0  0  0  0  0  0  0
   40.1440    5.1031    9.8326 O   0  0  0  0  0  0  0  0  0  0  0  0
   39.2574    3.4808    8.5545 N   0  0  0  0  0  0  0  0  0  0  0  0
   38.1448    2.7460    8.1704 C   0  0  0  0  0  0  0  0  0  0  0  0
   38.3347    1.8689    7.3269 O   0  0  0  0  0  0  0  0  0  0  0  0
   36.8712    2.9997    8.7256 C   0  0  0  0  0  0  0  0  0  0  0  0
   35.5276    5.0366   10.9230 H   0  0  0  0  0  0  0  0  0  0  0  0
   34.7706    3.8086   10.0139 H   0  0  0  0  0  0  0  0  0  0  0  0
   40.1335    3.2900    8.1479 H   0  0  0  0  0  0  0  0  0  0  0  0
   35.8175    2.2859    8.3163 N   0  0  0  0  0  0  0  0  0  0  0  0
   35.0715    2.7745    7.1351 C   0  0  0  0  0  0  0  0  0  0  0  0
   35.4624    0.8170    8.9768 S   0  0  0  0  0  0  0  0  0  0  0  0
   35.2326   -0.1596    7.9509 O   0  0  0  0  0  0  0  0  0  0  0  0
   36.5139    0.3497    9.9267 O   0  0  0  0  0  0  0  0  0  0  0  0
   33.9766    1.0401    9.8908 C   0  0  0  0  0  0  0  0  0  0  0  0
   34.0107    1.5388   11.1744 C   0  0  0  0  0  0  0  0  0  0  0  0
   32.8216    1.7209   11.8760 C   0  0  0  0  0  0  0  0  0  0  0  0
   31.5958    1.3952   11.3089 C   0  0  0  0  0  0  0  0  0  0  0  0
   31.5796    0.8787   10.0331 C   0  0  0  0  0  0  0  0  0  0  0  0
   32.7565    0.7135    9.3251 C   0  0  0  0  0  0  0  0  0  0  0  0
   37.8024    5.7842   11.0838 C   0  0  0  0  0  0  0  0  0  0  0  0
   37.9458    5.1082   12.4424 C   0  0  0  0  0  0  0  0  0  0  0  0
   37.5972    7.5281   13.1562 C   0  0  0  0  0  0  0  0  0  0  0  0
   38.0213    6.1052   13.5862 C   0  0  0  0  0  0  0  0  0  0  0  0
 26 27  1  0  0  0
 27 25  1  0  0  0
 25 24  1  0  0  0
 24  1  1  0  0  0
  1  2  1  0  0  0
  1  4  1  0  0  0
  2  3  1  0  0  0
  2  9  2  0  0  0
  4  5  2  0  0  0
  4  6  1  0  0  0
  6  7  1  0  0  0
  7  8  2  0  0  0
  7  9  1  0  0  0
  9 13  1  0  0  0
 13 14  1  0  0  0
 13 15  1  0  0  0
 15 16  2  0  0  0
 15 17  2  0  0  0
 15 18  1  0  0  0
 18 19  1  0  0  0
 18 23  2  0  0  0
 19 20  2  0  0  0
 20 21  1  0  0  0
 21 22  2  0  0  0
 22 23  1  0  0  0
  3 10  1  0  0  0
  3 11  1  0  0  0
  6 12  1  0  0  0
M  END
> <minimizedAffinity>
-6.56814

$$$$
4ARW_HNR_A_400


 27 28  0  0  0  0  0  0  0  0999 V2000
   37.7618    3.7992   10.1111 N   0  0  0  0  0  0  0  0  0  0  0  0
   36.8206    3.4851    9.1087 C   0  0  0  0  0  0  0  0  0  0  0  0
   36.5867    4.3757    8.1430 N   0  0  0  0  0  0  0  0  0  0  0  0
   38.0430    2.8999   11.1458 C   0  0  0  0  0  0  0  0  0  0  0  0
   38.8681    3.1764   12.0147 O   0  0  0  0  0  0  0  0  0  0  0  0
   37.3831    1.7009   11.1968 N   0  0  0  0  0  0  0  0  0  0  0  0
   36.4388    1.3762   10.2334 C   0  0  0  0  0  0  0  0  0  0  0  0
   35.8845    0.2834   10.3589 O   0  0  0  0  0  0  0  0  0  0  0  0
   36.1387    2.2602    9.1736 C   0  0  0  0  0  0  0  0  0  0  0  0
   37.0828    5.2259    8.1267 H   0  0  0  0  0  0  0  0  0  0  0  0
   35.9179    4.1825    7.4467 H   0  0  0  0  0  0  0  0  0  0  0  0
   37.5801    1.0649   11.9221 H   0  0  0  0  0  0  0  0  0  0  0  0
   35.2382    1.9051    8.2514 N   0  0  0  0  0  0  0  0  0  0  0  0
   35.6279    0.8654    7.2728 C   0  0  0  0  0  0  0  0  0  0  0  0
   33.6859    2.4596    8.3040 S   0  0  0  0  0  0  0  0  0  0  0  0
   33.6604    3.8883    8.4362 O   0  0  0  0  0  0  0  0  0  0  0  0
   32.8839    2.0226    7.1241 O   0  0  0  0  0  0  0  0  0  0  0  0
   32.9613    1.7444    9.7380 C   0  0  0  0  0  0  0  0  0  0  0  0
   32.5000    0.4466    9.7179 C   0  0  0  0  0  0  0  0  0  0  0  0
   31.9421   -0.1056   10.8683 C   0  0  0  0  0  0  0  0  0  0  0  0
   31.8288    0.6348   12.0384 C   0  0  0  0  0  0  0  0  0  0  0  0
   32.2757    1.9368   12.0369 C   0  0  0  0  0  0  0  0  0  0  0  0
   32.8476    2.4838   10.9023 C   0  0  0  0  0  0  0  0  0  0  0  0
   38.4613    5.0807   10.0858 C   0  0  0  0  0  0  0  0  0  0  0  0
   39.8875    4.8082    9.6224 C   0  0  0  0  0  0  0  0  0  0  0  0
   41.3985    4.0235    7.7281 C   0  0  0  0  0  0  0  0  0  0  0  0
   39.9520    4.3211    8.1849 C   0  0  0  0  0  0  0  0  0  0  0  0
 26 27  1  0  0  0
 27 25  1  0  0  0
 25 24  1  0  0  0
 24  1  1  0  0  0
  1  2  1  0  0  0
  1  4  1  0  0  0
  2  3  1  0  0  0
  2  9  2  0  0  0
  4  5  2  0  0  0
  4  6  1  0  0  0
  6  7  1  0  0  0
  7  8  2  0  0  0
  7  9  1  0  0  0
  9 13  1  0  0  0
 13 14  1  0  0  0
 13 15  1  0  0  0
 15 16  2  0  0  0
 15 17  2  0  0  0
 15 18  1  0  0  0
 18 19  1  0  0  0
 18 23  2  0  0  0
 19 20  2  0  0  0
 20 21  1  0  0  0
 21 22  2  0  0  0
 22 23  1  0  0  0
  3 10  1  0  0  0
  3 11  1  0  0  0
  6 12  1  0  0  0
M  END
> <minimizedAffinity>
-6.54633

$$$$
4ARW_HNR_A_400


 27 28  0  0  0  0  0  0  0  0999 V2000
   35.7765    1.8060    9.4177 N   0  0  0  0  0  0  0  0  0  0  0  0
   36.2380    3.0481    9.9012 C   0  0  0  0  0  0  0  0  0  0  0  0
   35.8786    3.4363   11.1261 N   0  0  0  0  0  0  0  0  0  0  0  0
   36.1245    1.3532    8.1402 C   0  0  0  0  0  0  0  0  0  0  0  0
   35.7236    0.2672    7.7252 O   0  0  0  0  0  0  0  0  0  0  0  0
   36.9133    2.1344    7.3381 N   0  0  0  0  0  0  0  0  0  0  0  0
   37.3644    3.3689    7.7829 C   0  0  0  0  0  0  0  0  0  0  0  0
   38.0598    4.0120    6.9956 O   0  0  0  0  0  0  0  0  0  0  0  0
   37.0355    3.8495    9.0696 C   0  0  0  0  0  0  0  0  0  0  0  0
   35.3182    2.8497   11.6838 H   0  0  0  0  0  0  0  0  0  0  0  0
   36.1739    4.3094   11.4722 H   0  0  0  0  0  0  0  0  0  0  0  0
   37.1618    1.8180    6.4396 H   0  0  0  0  0  0  0  0  0  0  0  0
   37.5054    5.0344    9.4728 N   0  0  0  0  0  0  0  0  0  0  0  0
   36.6756    6.2309    9.2073 C   0  0  0  0  0  0  0  0  0  0  0  0
   38.8665    5.1530   10.3966 S   0  0  0  0  0  0  0  0  0  0  0  0
   39.2318    3.8721   10.9306 O   0  0  0  0  0  0  0  0  0  0  0  0
   40.0083    5.7622    9.6540 O   0  0  0  0  0  0  0  0  0  0  0  0
   38.4597    6.2275   11.7279 C   0  0  0  0  0  0  0  0  0  0  0  0
   37.8128    5.7468   12.8450 C   0  0  0  0  0  0  0  0  0  0  0  0
   37.5120    6.6116   13.8943 C   0  0  0  0  0  0  0  0  0  0  0  0
   37.8413    7.9599   13.8308 C   0  0  0  0  0  0  0  0  0  0  0  0
   38.4691    8.4294   12.6994 C   0  0  0  0  0  0  0  0  0  0  0  0
   38.7868    7.5707   11.6624 C   0  0  0  0  0  0  0  0  0  0  0  0
   34.9183    0.9674   10.2498 C   0  0  0  0  0  0  0  0  0  0  0  0
   33.4966    1.4997   10.1134 C   0  0  0  0  0  0  0  0  0  0  0  0
   31.8030    2.0619   11.9307 C   0  0  0  0  0  0  0  0  0  0  0  0
   32.5611    0.9467   11.1750 C   0  0  0  0  0  0  0  0  0  0  0  0
 26 27  1  0  0  0
 27 25  1  0  0  0
 25 24  1  0  0  0
 24  1  1  0  0  0
  1  2  1  0  0  0
  1  4  1  0  0  0
  2  3  1  0  0  0
  2  9  2  0  0  0
  4  5  2  0  0  0
  4  6  1  0  0  0
  6  7  1  0  0  0
  7  8  2  0  0  0
  7  9  1  0  0  0
  9 13  1  0  0  0
 13 14  1  0  0  0
 13 15  1  0  0  0
 15 16  2  0  0  0
 15 17  2  0  0  0
 15 18  1  0  0  0
 18 19  1  0  0  0
 18 23  2  0  0  0
 19 20  2  0  0  0
 20 21  1  0  0  0
 21 22  2  0  0  0
 22 23  1  0  0  0
  3 10  1  0  0  0
  3 11  1  0  0  0
  6 12  1  0  0  0
M  END
> <minimizedAffinity>
-6.54160

$$$$
4ARW_HNR_A_400


 27 28  0  0  0  0  0  0  0  0999 V2000
   39.6011    3.5419    8.3290 N   0  0  0  0  0  0  0  0  0  0  0  0
   38.2811    3.0771    8.1532 C   0  0  0  0  0  0  0  0  0  0  0  0
   37.7201    3.1719    6.9463 N   0  0  0  0  0  0  0  0  0  0  0  0
   40.2345    3.4654    9.5745 C   0  0  0  0  0  0  0  0  0  0  0  0
   41.3873    3.8676    9.7215 O   0  0  0  0  0  0  0  0  0  0  0  0
   39.5579    2.9454   10.6458 N   0  0  0  0  0  0  0  0  0  0  0  0
   38.2519    2.4989   10.5034 C   0  0  0  0  0  0  0  0  0  0  0  0
   37.7130    2.0555   11.5183 O   0  0  0  0  0  0  0  0  0  0  0  0
   37.5888    2.5568    9.2578 C   0  0  0  0  0  0  0  0  0  0  0  0
   38.2339    3.5418    6.1924 H   0  0  0  0  0  0  0  0  0  0  0  0
   36.7924    2.8719    6.8097 H   0  0  0  0  0  0  0  0  0  0  0  0
   40.0012    2.8880   11.5229 H   0  0  0  0  0  0  0  0  0  0  0  0
   36.3375    2.0981    9.1528 N   0  0  0  0  0  0  0  0  0  0  0  0
   36.1263    0.6385    9.2775 C   0  0  0  0  0  0  0  0  0  0  0  0
   35.0475    3.1227    9.0742 S   0  0  0  0  0  0  0  0  0  0  0  0
   35.3599    4.3816    9.6880 O   0  0  0  0  0  0  0  0  0  0  0  0
   34.5609    3.3207    7.6777 O   0  0  0  0  0  0  0  0  0  0  0  0
   33.7566    2.3517    9.9863 C   0  0  0  0  0  0  0  0  0  0  0  0
   33.6708    2.5106   11.3519 C   0  0  0  0  0  0  0  0  0  0  0  0
   32.6328    1.9029   12.0538 C   0  0  0  0  0  0  0  0  0  0  0  0
   31.6844    1.1242   11.4023 C   0  0  0  0  0  0  0  0  0  0  0  0
   31.7953    0.9580   10.0403 C   0  0  0  0  0  0  0  0  0  0  0  0
   32.8137    1.5748    9.3361 C   0  0  0  0  0  0  0  0  0  0  0  0
   40.3324    4.1181    7.2042 C   0  0  0  0  0  0  0  0  0  0  0  0
   41.0762    2.9788    6.5173 C   0  0  0  0  0  0  0  0  0  0  0  0
   40.1196    1.7585    4.4966 C   0  0  0  0  0  0  0  0  0  0  0  0
   40.8995    2.9911    5.0085 C   0  0  0  0  0  0  0  0  0  0  0  0
 26 27  1  0  0  0
 27 25  1  0  0  0
 25 24  1  0  0  0
 24  1  1  0  0  0
  1  2  1  0  0  0
  1  4  1  0  0  0
  2  3  1  0  0  0
  2  9  2  0  0  0
  4  5  2  0  0  0
  4  6  1  0  0  0
  6  7  1  0  0  0
  7  8  2  0  0  0
  7  9  1  0  0  0
  9 13  1  0  0  0
 13 14  1  0  0  0
 13 15  1  0  0  0
 15 16  2  0  0  0
 15 17  2  0  0  0
 15 18  1  0  0  0
 18 19  1  0  0  0
 18 23  2  0  0  0
 19 20  2  0  0  0
 20 21  1  0  0  0
 21 22  2  0  0  0
 22 23  1  0  0  0
  3 10  1  0  0  0
  3 11  1  0  0  0
  6 12  1  0  0  0
M  END
> <minimizedAffinity>
-6.52984

$$$$
