4FAI_PBD_A_402


 24 25  0  0  0  0  0  0  0  0999 V2000
  -30.0170   -3.2374   39.4082 N   0  0  0  0  0  0  0  0  0  0  0  0
  -29.1039   -3.5973   39.3307 H   0  0  0  0  0  0  0  0  0  0  0  0
  -31.9700   -3.4913   40.7408 C   0  0  0  0  0  0  0  0  0  0  0  0
  -32.9422   -4.3223   41.2608 C   0  0  0  0  0  0  0  0  0  0  0  0
  -30.9859   -5.3661   39.6226 C   0  0  0  0  0  0  0  0  0  0  0  0
  -30.9717   -4.0171   39.9297 C   0  0  0  0  0  0  0  0  0  0  0  0
  -32.9545   -5.6871   40.9518 C   0  0  0  0  0  0  0  0  0  0  0  0
  -31.9667   -6.2074   40.1217 C   0  0  0  0  0  0  0  0  0  0  0  0
  -33.6883   -6.9025   42.8334 C   0  0  0  0  0  0  0  0  0  0  0  0
  -33.9289   -6.5260   41.4375 O   0  0  0  0  0  0  0  0  0  0  0  0
  -30.9684   -8.3776   40.4577 C   0  0  0  0  0  0  0  0  0  0  0  0
  -31.9908   -7.5509   39.8336 O   0  0  0  0  0  0  0  0  0  0  0  0
  -31.1341   -1.7355   37.5248 S   0  0  0  0  0  0  0  0  0  0  0  0
  -30.2524   -1.9879   38.9874 C   0  0  0  0  0  0  0  0  0  0  0  0
  -29.7786   -0.9406   39.6784 N   0  0  0  0  0  0  0  0  0  0  0  0
  -28.8742   -0.6149   39.4661 H   0  0  0  0  0  0  0  0  0  0  0  0
  -30.5259   -0.2588   40.7243 C   0  0  0  0  0  0  0  0  0  0  0  0
  -29.5422   -0.0175   41.8879 C   0  0  0  0  0  0  0  0  0  0  0  0
  -28.9040   -1.2828   42.4408 C   0  0  0  0  0  0  0  0  0  0  0  0
  -27.2187   -1.2311   45.6556 C   0  0  0  0  0  0  0  0  0  0  0  0
  -27.5733   -1.8621   44.5249 C   0  0  0  0  0  0  0  0  0  0  0  0
  -28.4105    0.1492   44.4514 C   0  0  0  0  0  0  0  0  0  0  0  0
  -27.7389    0.0302   45.6083 N   0  0  0  0  0  0  0  0  0  0  0  0
  -28.3070   -0.9995   43.7849 N   0  0  0  0  0  0  0  0  0  0  0  0
  9 10  1  0  0  0
 11 12  1  0  0  0
 13 14  2  0  0  0
 20 21  2  0  0  0
 20 23  1  0  0  0
  3  4  2  0  0  0
  3  6  1  0  0  0
  4  7  1  0  0  0
 21 24  1  0  0  0
 22 23  2  0  0  0
 22 24  1  0  0  0
  5  6  2  0  0  0
  5  8  1  0  0  0
 18 17  1  0  0  0
 18 19  1  0  0  0
 17 15  1  0  0  0
 19 24  1  0  0  0
 15 14  1  0  0  0
  1 14  1  0  0  0
  1  6  1  0  0  0
 10  7  1  0  0  0
 12  8  1  0  0  0
  7  8  2  0  0  0
 15 16  1  0  0  0
  1  2  1  0  0  0
M  END
> <minimizedAffinity>
-6.08199

$$$$
4FAI_PBD_A_402


 24 25  0  0  0  0  0  0  0  0999 V2000
  -32.2892   -4.2961   39.8691 N   0  0  0  0  0  0  0  0  0  0  0  0
  -33.1681   -3.8846   39.7033 H   0  0  0  0  0  0  0  0  0  0  0  0
  -31.4321   -6.5080   40.0352 C   0  0  0  0  0  0  0  0  0  0  0  0
  -31.4039   -7.7137   40.7073 C   0  0  0  0  0  0  0  0  0  0  0  0
  -32.9850   -5.6609   41.6493 C   0  0  0  0  0  0  0  0  0  0  0  0
  -32.2420   -5.4773   40.4966 C   0  0  0  0  0  0  0  0  0  0  0  0
  -32.1576   -7.8995   41.8716 C   0  0  0  0  0  0  0  0  0  0  0  0
  -32.9508   -6.8589   42.3441 C   0  0  0  0  0  0  0  0  0  0  0  0
  -32.9462  -10.1198   41.9418 C   0  0  0  0  0  0  0  0  0  0  0  0
  -32.1226   -9.0828   42.5701 O   0  0  0  0  0  0  0  0  0  0  0  0
  -34.5277   -5.9587   43.9323 C   0  0  0  0  0  0  0  0  0  0  0  0
  -33.6888   -7.0610   43.4856 O   0  0  0  0  0  0  0  0  0  0  0  0
  -30.9177   -3.4295   37.7669 S   0  0  0  0  0  0  0  0  0  0  0  0
  -31.1902   -3.6507   39.4572 C   0  0  0  0  0  0  0  0  0  0  0  0
  -30.2911   -3.2086   40.3487 N   0  0  0  0  0  0  0  0  0  0  0  0
  -29.9350   -3.8492   41.0061 H   0  0  0  0  0  0  0  0  0  0  0  0
  -29.8122   -1.8355   40.3992 C   0  0  0  0  0  0  0  0  0  0  0  0
  -30.0247   -1.3439   41.8460 C   0  0  0  0  0  0  0  0  0  0  0  0
  -29.0587   -0.2539   42.2851 C   0  0  0  0  0  0  0  0  0  0  0  0
  -27.4208   -1.7246   45.1716 C   0  0  0  0  0  0  0  0  0  0  0  0
  -27.8291   -1.7864   43.8942 C   0  0  0  0  0  0  0  0  0  0  0  0
  -28.4342    0.1506   44.6899 C   0  0  0  0  0  0  0  0  0  0  0  0
  -27.7954   -0.5099   45.6694 N   0  0  0  0  0  0  0  0  0  0  0  0
  -28.4515   -0.6209   43.6041 N   0  0  0  0  0  0  0  0  0  0  0  0
  9 10  1  0  0  0
 11 12  1  0  0  0
 13 14  2  0  0  0
 20 21  2  0  0  0
 20 23  1  0  0  0
  3  4  2  0  0  0
  3  6  1  0  0  0
  4  7  1  0  0  0
 21 24  1  0  0  0
 22 23  2  0  0  0
 22 24  1  0  0  0
  5  6  2  0  0  0
  5  8  1  0  0  0
 18 17  1  0  0  0
 18 19  1  0  0  0
 17 15  1  0  0  0
 19 24  1  0  0  0
 15 14  1  0  0  0
  1 14  1  0  0  0
  1  6  1  0  0  0
 10  7  1  0  0  0
 12  8  1  0  0  0
  7  8  2  0  0  0
 15 16  1  0  0  0
  1  2  1  0  0  0
M  END
> <minimizedAffinity>
-5.96911

$$$$
4FAI_PBD_A_402


 24 25  0  0  0  0  0  0  0  0999 V2000
  -32.8254   -3.1585   40.2770 N   0  0  0  0  0  0  0  0  0  0  0  0
  -33.5846   -2.8556   39.7282 H   0  0  0  0  0  0  0  0  0  0  0  0
  -33.6819   -4.1174   42.2773 C   0  0  0  0  0  0  0  0  0  0  0  0
  -33.8404   -5.2324   43.0760 C   0  0  0  0  0  0  0  0  0  0  0  0
  -32.5054   -5.4511   40.6738 C   0  0  0  0  0  0  0  0  0  0  0  0
  -32.9934   -4.2200   41.0746 C   0  0  0  0  0  0  0  0  0  0  0  0
  -33.3443   -6.4767   42.6712 C   0  0  0  0  0  0  0  0  0  0  0  0
  -32.6746   -6.5816   41.4564 C   0  0  0  0  0  0  0  0  0  0  0  0
  -34.9297   -7.8863   43.6987 C   0  0  0  0  0  0  0  0  0  0  0  0
  -33.5151   -7.6037   43.4391 O   0  0  0  0  0  0  0  0  0  0  0  0
  -30.9341   -7.8243   40.3403 C   0  0  0  0  0  0  0  0  0  0  0  0
  -32.1889   -7.8100   41.0775 O   0  0  0  0  0  0  0  0  0  0  0  0
  -30.5327   -2.9063   38.9612 S   0  0  0  0  0  0  0  0  0  0  0  0
  -31.6671   -2.4911   40.1946 C   0  0  0  0  0  0  0  0  0  0  0  0
  -31.3752   -1.5300   41.0833 N   0  0  0  0  0  0  0  0  0  0  0  0
  -31.7334   -1.6171   41.9962 H   0  0  0  0  0  0  0  0  0  0  0  0
  -30.5589   -0.3658   40.7745 C   0  0  0  0  0  0  0  0  0  0  0  0
  -29.6791   -0.0987   42.0134 C   0  0  0  0  0  0  0  0  0  0  0  0
  -28.9867   -1.3346   42.5676 C   0  0  0  0  0  0  0  0  0  0  0  0
  -27.1576   -1.1609   45.6985 C   0  0  0  0  0  0  0  0  0  0  0  0
  -27.5490   -1.8292   44.6019 C   0  0  0  0  0  0  0  0  0  0  0  0
  -28.4347    0.1607   44.5161 C   0  0  0  0  0  0  0  0  0  0  0  0
  -27.7082    0.0871   45.6433 N   0  0  0  0  0  0  0  0  0  0  0  0
  -28.3355   -1.0028   43.8750 N   0  0  0  0  0  0  0  0  0  0  0  0
  9 10  1  0  0  0
 11 12  1  0  0  0
 13 14  2  0  0  0
 20 21  2  0  0  0
 20 23  1  0  0  0
  3  4  2  0  0  0
  3  6  1  0  0  0
  4  7  1  0  0  0
 21 24  1  0  0  0
 22 23  2  0  0  0
 22 24  1  0  0  0
  5  6  2  0  0  0
  5  8  1  0  0  0
 18 17  1  0  0  0
 18 19  1  0  0  0
 17 15  1  0  0  0
 19 24  1  0  0  0
 15 14  1  0  0  0
  1 14  1  0  0  0
  1  6  1  0  0  0
 10  7  1  0  0  0
 12  8  1  0  0  0
  7  8  2  0  0  0
 15 16  1  0  0  0
  1  2  1  0  0  0
M  END
> <minimizedAffinity>
-5.82431

$$$$
4FAI_PBD_A_402


 24 25  0  0  0  0  0  0  0  0999 V2000
  -32.2122   -4.3187   39.3799 N   0  0  0  0  0  0  0  0  0  0  0  0
  -32.1800   -4.4913   38.4112 H   0  0  0  0  0  0  0  0  0  0  0  0
  -33.0330   -5.3804   41.3430 C   0  0  0  0  0  0  0  0  0  0  0  0
  -33.0173   -6.4738   42.1858 C   0  0  0  0  0  0  0  0  0  0  0  0
  -31.4249   -6.4606   39.9354 C   0  0  0  0  0  0  0  0  0  0  0  0
  -32.2178   -5.3624   40.2177 C   0  0  0  0  0  0  0  0  0  0  0  0
  -32.2133   -7.5831   41.9010 C   0  0  0  0  0  0  0  0  0  0  0  0
  -31.4145   -7.5721   40.7620 C   0  0  0  0  0  0  0  0  0  0  0  0
  -33.3919   -9.5283   42.5199 C   0  0  0  0  0  0  0  0  0  0  0  0
  -32.2037   -8.6922   42.7128 O   0  0  0  0  0  0  0  0  0  0  0  0
  -30.7950   -9.3069   39.2045 C   0  0  0  0  0  0  0  0  0  0  0  0
  -30.6268   -8.6675   40.5010 O   0  0  0  0  0  0  0  0  0  0  0  0
  -33.7518   -2.2004   39.8197 S   0  0  0  0  0  0  0  0  0  0  0  0
  -32.2485   -3.0491   39.8049 C   0  0  0  0  0  0  0  0  0  0  0  0
  -31.1209   -2.4301   40.1846 N   0  0  0  0  0  0  0  0  0  0  0  0
  -30.3898   -2.3538   39.5298 H   0  0  0  0  0  0  0  0  0  0  0  0
  -30.9172   -1.8650   41.5099 C   0  0  0  0  0  0  0  0  0  0  0  0
  -29.3934   -1.8282   41.7477 C   0  0  0  0  0  0  0  0  0  0  0  0
  -28.8789   -0.5110   42.3084 C   0  0  0  0  0  0  0  0  0  0  0  0
  -27.1693   -1.6042   45.3184 C   0  0  0  0  0  0  0  0  0  0  0  0
  -27.4826   -1.7609   44.0224 C   0  0  0  0  0  0  0  0  0  0  0  0
  -28.4842    0.0401   44.7328 C   0  0  0  0  0  0  0  0  0  0  0  0
  -27.7926   -0.4739   45.7629 N   0  0  0  0  0  0  0  0  0  0  0  0
  -28.2931   -0.7375   43.6682 N   0  0  0  0  0  0  0  0  0  0  0  0
  9 10  1  0  0  0
 11 12  1  0  0  0
 13 14  2  0  0  0
 20 21  2  0  0  0
 20 23  1  0  0  0
  3  4  2  0  0  0
  3  6  1  0  0  0
  4  7  1  0  0  0
 21 24  1  0  0  0
 22 23  2  0  0  0
 22 24  1  0  0  0
  5  6  2  0  0  0
  5  8  1  0  0  0
 18 17  1  0  0  0
 18 19  1  0  0  0
 17 15  1  0  0  0
 19 24  1  0  0  0
 15 14  1  0  0  0
  1 14  1  0  0  0
  1  6  1  0  0  0
 10  7  1  0  0  0
 12  8  1  0  0  0
  7  8  2  0  0  0
 15 16  1  0  0  0
  1  2  1  0  0  0
M  END
> <minimizedAffinity>
-5.79303

$$$$
4FAI_PBD_A_402


 24 25  0  0  0  0  0  0  0  0999 V2000
  -33.7702    0.0708   41.2064 N   0  0  0  0  0  0  0  0  0  0  0  0
  -34.0554   -0.8303   41.4820 H   0  0  0  0  0  0  0  0  0  0  0  0
  -35.5522    1.5970   41.5933 C   0  0  0  0  0  0  0  0  0  0  0  0
  -36.0397    2.6892   42.2830 C   0  0  0  0  0  0  0  0  0  0  0  0
  -33.5099    1.7428   42.8350 C   0  0  0  0  0  0  0  0  0  0  0  0
  -34.2705    1.1287   41.8558 C   0  0  0  0  0  0  0  0  0  0  0  0
  -35.2690    3.3114   43.2714 C   0  0  0  0  0  0  0  0  0  0  0  0
  -33.9944    2.8272   43.5480 C   0  0  0  0  0  0  0  0  0  0  0  0
  -37.0217    4.0838   44.6452 C   0  0  0  0  0  0  0  0  0  0  0  0
  -35.7464    4.3829   43.9878 O   0  0  0  0  0  0  0  0  0  0  0  0
  -31.8521    3.7187   44.2075 C   0  0  0  0  0  0  0  0  0  0  0  0
  -33.2493    3.4540   44.5177 O   0  0  0  0  0  0  0  0  0  0  0  0
  -33.4678    0.6218   38.6264 S   0  0  0  0  0  0  0  0  0  0  0  0
  -32.8977    0.1872   40.1969 C   0  0  0  0  0  0  0  0  0  0  0  0
  -31.5953   -0.0642   40.3959 N   0  0  0  0  0  0  0  0  0  0  0  0
  -30.9516    0.2628   39.7266 H   0  0  0  0  0  0  0  0  0  0  0  0
  -31.0802   -0.7929   41.5451 C   0  0  0  0  0  0  0  0  0  0  0  0
  -29.7788   -0.0840   41.9737 C   0  0  0  0  0  0  0  0  0  0  0  0
  -28.6274   -1.0264   42.2901 C   0  0  0  0  0  0  0  0  0  0  0  0
  -27.2146   -1.0880   45.6335 C   0  0  0  0  0  0  0  0  0  0  0  0
  -27.4314   -1.6608   44.4388 C   0  0  0  0  0  0  0  0  0  0  0  0
  -28.4003    0.2917   44.4227 C   0  0  0  0  0  0  0  0  0  0  0  0
  -27.8173    0.1369   45.6226 N   0  0  0  0  0  0  0  0  0  0  0  0
  -28.1623   -0.7987   43.6955 N   0  0  0  0  0  0  0  0  0  0  0  0
  9 10  1  0  0  0
 11 12  1  0  0  0
 13 14  2  0  0  0
 20 21  2  0  0  0
 20 23  1  0  0  0
  3  4  2  0  0  0
  3  6  1  0  0  0
  4  7  1  0  0  0
 21 24  1  0  0  0
 22 23  2  0  0  0
 22 24  1  0  0  0
  5  6  2  0  0  0
  5  8  1  0  0  0
 18 17  1  0  0  0
 18 19  1  0  0  0
 17 15  1  0  0  0
 19 24  1  0  0  0
 15 14  1  0  0  0
  1 14  1  0  0  0
  1  6  1  0  0  0
 10  7  1  0  0  0
 12  8  1  0  0  0
  7  8  2  0  0  0
 15 16  1  0  0  0
  1  2  1  0  0  0
M  END
> <minimizedAffinity>
-5.59624

$$$$
4FAI_PBD_A_402


 24 25  0  0  0  0  0  0  0  0999 V2000
  -30.9114   -2.1078   38.6215 N   0  0  0  0  0  0  0  0  0  0  0  0
  -30.1145   -1.6870   38.2250 H   0  0  0  0  0  0  0  0  0  0  0  0
  -31.0790   -4.1975   39.7437 C   0  0  0  0  0  0  0  0  0  0  0  0
  -31.1949   -5.5711   39.6659 C   0  0  0  0  0  0  0  0  0  0  0  0
  -31.1171   -4.0734   37.3527 C   0  0  0  0  0  0  0  0  0  0  0  0
  -31.0209   -3.4410   38.5796 C   0  0  0  0  0  0  0  0  0  0  0  0
  -31.2897   -6.2102   38.4247 C   0  0  0  0  0  0  0  0  0  0  0  0
  -31.2534   -5.4489   37.2609 C   0  0  0  0  0  0  0  0  0  0  0  0
  -31.1326   -8.2531   39.5902 C   0  0  0  0  0  0  0  0  0  0  0  0
  -31.4326   -7.5737   38.3266 O   0  0  0  0  0  0  0  0  0  0  0  0
  -31.9029   -5.3382   34.9403 C   0  0  0  0  0  0  0  0  0  0  0  0
  -31.3418   -6.0937   36.0506 O   0  0  0  0  0  0  0  0  0  0  0  0
  -33.4379   -1.2963   38.5253 S   0  0  0  0  0  0  0  0  0  0  0  0
  -31.8410   -1.3223   39.1807 C   0  0  0  0  0  0  0  0  0  0  0  0
  -31.5262   -0.5365   40.2211 N   0  0  0  0  0  0  0  0  0  0  0  0
  -31.6007    0.4384   40.1060 H   0  0  0  0  0  0  0  0  0  0  0  0
  -31.0808   -1.0436   41.5101 C   0  0  0  0  0  0  0  0  0  0  0  0
  -30.1266    0.0161   42.0987 C   0  0  0  0  0  0  0  0  0  0  0  0
  -28.6645   -0.4030   42.1241 C   0  0  0  0  0  0  0  0  0  0  0  0
  -27.3034   -1.4543   45.3210 C   0  0  0  0  0  0  0  0  0  0  0  0
  -27.4974   -1.6459   44.0065 C   0  0  0  0  0  0  0  0  0  0  0  0
  -28.4799    0.2207   44.5560 C   0  0  0  0  0  0  0  0  0  0  0  0
  -27.9146   -0.2831   45.6651 N   0  0  0  0  0  0  0  0  0  0  0  0
  -28.2229   -0.6032   43.5413 N   0  0  0  0  0  0  0  0  0  0  0  0
  9 10  1  0  0  0
 11 12  1  0  0  0
 13 14  2  0  0  0
 20 21  2  0  0  0
 20 23  1  0  0  0
  3  4  2  0  0  0
  3  6  1  0  0  0
  4  7  1  0  0  0
 21 24  1  0  0  0
 22 23  2  0  0  0
 22 24  1  0  0  0
  5  6  2  0  0  0
  5  8  1  0  0  0
 18 17  1  0  0  0
 18 19  1  0  0  0
 17 15  1  0  0  0
 19 24  1  0  0  0
 15 14  1  0  0  0
  1 14  1  0  0  0
  1  6  1  0  0  0
 10  7  1  0  0  0
 12  8  1  0  0  0
  7  8  2  0  0  0
 15 16  1  0  0  0
  1  2  1  0  0  0
M  END
> <minimizedAffinity>
-5.57112

$$$$
4FAI_PBD_A_402


 24 25  0  0  0  0  0  0  0  0999 V2000
  -33.9596   -0.4101   40.6878 N   0  0  0  0  0  0  0  0  0  0  0  0
  -34.3841   -0.2239   39.8193 H   0  0  0  0  0  0  0  0  0  0  0  0
  -33.4117    1.3081   42.2378 C   0  0  0  0  0  0  0  0  0  0  0  0
  -33.7815    2.0797   43.3214 C   0  0  0  0  0  0  0  0  0  0  0  0
  -35.5380    0.2093   42.3129 C   0  0  0  0  0  0  0  0  0  0  0  0
  -34.2874    0.3516   41.7384 C   0  0  0  0  0  0  0  0  0  0  0  0
  -35.0456    1.9335   43.9035 C   0  0  0  0  0  0  0  0  0  0  0  0
  -35.9290    0.9905   43.3880 C   0  0  0  0  0  0  0  0  0  0  0  0
  -35.4854    4.1348   44.6227 C   0  0  0  0  0  0  0  0  0  0  0  0
  -35.4428    2.7104   44.9655 O   0  0  0  0  0  0  0  0  0  0  0  0
  -37.4382   -0.4015   44.6546 C   0  0  0  0  0  0  0  0  0  0  0  0
  -37.1640    0.8564   43.9758 O   0  0  0  0  0  0  0  0  0  0  0  0
  -33.6348   -3.0064   41.1399 S   0  0  0  0  0  0  0  0  0  0  0  0
  -33.0779   -1.4150   40.7692 C   0  0  0  0  0  0  0  0  0  0  0  0
  -31.7684   -1.1818   40.5971 N   0  0  0  0  0  0  0  0  0  0  0  0
  -31.4813   -0.7341   39.7686 H   0  0  0  0  0  0  0  0  0  0  0  0
  -30.7482   -1.5532   41.5657 C   0  0  0  0  0  0  0  0  0  0  0  0
  -30.1160   -0.2398   42.0708 C   0  0  0  0  0  0  0  0  0  0  0  0
  -28.5979   -0.2702   42.1624 C   0  0  0  0  0  0  0  0  0  0  0  0
  -27.3087   -1.5619   45.3005 C   0  0  0  0  0  0  0  0  0  0  0  0
  -27.4818   -1.6584   43.9727 C   0  0  0  0  0  0  0  0  0  0  0  0
  -28.4486    0.1797   44.6347 C   0  0  0  0  0  0  0  0  0  0  0  0
  -27.9101   -0.4086   45.7152 N   0  0  0  0  0  0  0  0  0  0  0  0
  -28.1846   -0.5752   43.5694 N   0  0  0  0  0  0  0  0  0  0  0  0
  9 10  1  0  0  0
 11 12  1  0  0  0
 13 14  2  0  0  0
 20 21  2  0  0  0
 20 23  1  0  0  0
  3  4  2  0  0  0
  3  6  1  0  0  0
  4  7  1  0  0  0
 21 24  1  0  0  0
 22 23  2  0  0  0
 22 24  1  0  0  0
  5  6  2  0  0  0
  5  8  1  0  0  0
 18 17  1  0  0  0
 18 19  1  0  0  0
 17 15  1  0  0  0
 19 24  1  0  0  0
 15 14  1  0  0  0
  1 14  1  0  0  0
  1  6  1  0  0  0
 10  7  1  0  0  0
 12  8  1  0  0  0
  7  8  2  0  0  0
 15 16  1  0  0  0
  1  2  1  0  0  0
M  END
> <minimizedAffinity>
-5.43196

$$$$
4FAI_PBD_A_402


 24 25  0  0  0  0  0  0  0  0999 V2000
  -31.4496   -3.8282   38.5005 N   0  0  0  0  0  0  0  0  0  0  0  0
  -31.5390   -3.4033   37.6169 H   0  0  0  0  0  0  0  0  0  0  0  0
  -31.4425   -5.9500   37.4270 C   0  0  0  0  0  0  0  0  0  0  0  0
  -31.4465   -7.3263   37.5365 C   0  0  0  0  0  0  0  0  0  0  0  0
  -31.4361   -5.7743   39.8151 C   0  0  0  0  0  0  0  0  0  0  0  0
  -31.4559   -5.1646   38.5732 C   0  0  0  0  0  0  0  0  0  0  0  0
  -31.4290   -7.9423   38.7929 C   0  0  0  0  0  0  0  0  0  0  0  0
  -31.4202   -7.1540   39.9391 C   0  0  0  0  0  0  0  0  0  0  0  0
  -30.2554   -9.9107   38.2413 C   0  0  0  0  0  0  0  0  0  0  0  0
  -31.4056   -9.3104   38.9231 O   0  0  0  0  0  0  0  0  0  0  0  0
  -32.5158   -7.4826   42.0630 C   0  0  0  0  0  0  0  0  0  0  0  0
  -31.4090   -7.7758   41.1645 O   0  0  0  0  0  0  0  0  0  0  0  0
  -32.7347   -2.6097   40.4791 S   0  0  0  0  0  0  0  0  0  0  0  0
  -31.3267   -3.0449   39.5799 C   0  0  0  0  0  0  0  0  0  0  0  0
  -30.1238   -2.5744   39.9412 N   0  0  0  0  0  0  0  0  0  0  0  0
  -29.4321   -3.2227   40.2066 H   0  0  0  0  0  0  0  0  0  0  0  0
  -29.7835   -1.1599   39.9629 C   0  0  0  0  0  0  0  0  0  0  0  0
  -29.5164   -0.7899   41.4365 C   0  0  0  0  0  0  0  0  0  0  0  0
  -28.7569   -1.8495   42.2204 C   0  0  0  0  0  0  0  0  0  0  0  0
  -28.0345    0.0751   45.2123 C   0  0  0  0  0  0  0  0  0  0  0  0
  -28.5428   -0.0248   43.9738 C   0  0  0  0  0  0  0  0  0  0  0  0
  -27.7115   -1.9679   44.5073 C   0  0  0  0  0  0  0  0  0  0  0  0
  -27.5176   -1.1428   45.5490 N   0  0  0  0  0  0  0  0  0  0  0  0
  -28.3416   -1.2927   43.5474 N   0  0  0  0  0  0  0  0  0  0  0  0
  9 10  1  0  0  0
 11 12  1  0  0  0
 13 14  2  0  0  0
 20 21  2  0  0  0
 20 23  1  0  0  0
  3  4  2  0  0  0
  3  6  1  0  0  0
  4  7  1  0  0  0
 21 24  1  0  0  0
 22 23  2  0  0  0
 22 24  1  0  0  0
  5  6  2  0  0  0
  5  8  1  0  0  0
 18 17  1  0  0  0
 18 19  1  0  0  0
 17 15  1  0  0  0
 19 24  1  0  0  0
 15 14  1  0  0  0
  1 14  1  0  0  0
  1  6  1  0  0  0
 10  7  1  0  0  0
 12  8  1  0  0  0
  7  8  2  0  0  0
 15 16  1  0  0  0
  1  2  1  0  0  0
M  END
> <minimizedAffinity>
-5.25943

$$$$
4FAI_PBD_A_402


 24 25  0  0  0  0  0  0  0  0999 V2000
  -32.0956    0.1617   40.0260 N   0  0  0  0  0  0  0  0  0  0  0  0
  -31.6698    0.9513   39.6204 H   0  0  0  0  0  0  0  0  0  0  0  0
  -34.4203   -0.2271   40.3406 C   0  0  0  0  0  0  0  0  0  0  0  0
  -35.5548   -0.0346   41.1036 C   0  0  0  0  0  0  0  0  0  0  0  0
  -33.1559    1.0473   41.9254 C   0  0  0  0  0  0  0  0  0  0  0  0
  -33.2133    0.3323   40.7421 C   0  0  0  0  0  0  0  0  0  0  0  0
  -35.4965    0.6907   42.2989 C   0  0  0  0  0  0  0  0  0  0  0  0
  -34.2825    1.2313   42.7102 C   0  0  0  0  0  0  0  0  0  0  0  0
  -37.7085   -0.0180   42.7003 C   0  0  0  0  0  0  0  0  0  0  0  0
  -36.6087    0.8707   43.0861 O   0  0  0  0  0  0  0  0  0  0  0  0
  -33.7504    3.3124   43.8080 C   0  0  0  0  0  0  0  0  0  0  0  0
  -34.2449    1.9456   43.8836 O   0  0  0  0  0  0  0  0  0  0  0  0
  -31.4028   -1.6764   38.2392 S   0  0  0  0  0  0  0  0  0  0  0  0
  -31.5323   -1.0389   39.8383 C   0  0  0  0  0  0  0  0  0  0  0  0
  -31.1020   -1.7558   40.8870 N   0  0  0  0  0  0  0  0  0  0  0  0
  -31.7742   -2.1257   41.5039 H   0  0  0  0  0  0  0  0  0  0  0  0
  -29.6979   -2.0177   41.1643 C   0  0  0  0  0  0  0  0  0  0  0  0
  -29.0517   -0.6593   41.5065 C   0  0  0  0  0  0  0  0  0  0  0  0
  -29.5619   -0.0300   42.7940 C   0  0  0  0  0  0  0  0  0  0  0  0
  -27.2836   -1.4524   45.2361 C   0  0  0  0  0  0  0  0  0  0  0  0
  -28.0452   -1.5625   44.1360 C   0  0  0  0  0  0  0  0  0  0  0  0
  -28.2432    0.4778   44.8773 C   0  0  0  0  0  0  0  0  0  0  0  0
  -27.4036   -0.1735   45.6984 N   0  0  0  0  0  0  0  0  0  0  0  0
  -28.6319   -0.3628   43.9199 N   0  0  0  0  0  0  0  0  0  0  0  0
  9 10  1  0  0  0
 11 12  1  0  0  0
 13 14  2  0  0  0
 20 21  2  0  0  0
 20 23  1  0  0  0
  3  4  2  0  0  0
  3  6  1  0  0  0
  4  7  1  0  0  0
 21 24  1  0  0  0
 22 23  2  0  0  0
 22 24  1  0  0  0
  5  6  2  0  0  0
  5  8  1  0  0  0
 18 17  1  0  0  0
 18 19  1  0  0  0
 17 15  1  0  0  0
 19 24  1  0  0  0
 15 14  1  0  0  0
  1 14  1  0  0  0
  1  6  1  0  0  0
 10  7  1  0  0  0
 12  8  1  0  0  0
  7  8  2  0  0  0
 15 16  1  0  0  0
  1  2  1  0  0  0
M  END
> <minimizedAffinity>
-5.08887

$$$$
4FAI_PBD_A_402


 24 25  0  0  0  0  0  0  0  0999 V2000
  -30.3083   -2.7951   38.7496 N   0  0  0  0  0  0  0  0  0  0  0  0
  -29.4056   -3.1141   38.5201 H   0  0  0  0  0  0  0  0  0  0  0  0
  -31.0678   -0.6905   37.9443 C   0  0  0  0  0  0  0  0  0  0  0  0
  -31.7691    0.0244   36.9939 C   0  0  0  0  0  0  0  0  0  0  0  0
  -31.5736   -2.7167   36.7725 C   0  0  0  0  0  0  0  0  0  0  0  0
  -30.9828   -2.0741   37.8461 C   0  0  0  0  0  0  0  0  0  0  0  0
  -32.3685   -0.6264   35.9098 C   0  0  0  0  0  0  0  0  0  0  0  0
  -32.2635   -2.0094   35.8015 C   0  0  0  0  0  0  0  0  0  0  0  0
  -32.8655    1.5183   35.0677 C   0  0  0  0  0  0  0  0  0  0  0  0
  -33.0480    0.0698   34.9389 O   0  0  0  0  0  0  0  0  0  0  0  0
  -32.2649   -3.8777   34.2754 C   0  0  0  0  0  0  0  0  0  0  0  0
  -32.8633   -2.6326   34.7336 O   0  0  0  0  0  0  0  0  0  0  0  0
  -31.8349   -4.4799   40.1215 S   0  0  0  0  0  0  0  0  0  0  0  0
  -30.8104   -3.1006   39.9531 C   0  0  0  0  0  0  0  0  0  0  0  0
  -30.5472   -2.3226   41.0134 N   0  0  0  0  0  0  0  0  0  0  0  0
  -29.6907   -2.4499   41.4817 H   0  0  0  0  0  0  0  0  0  0  0  0
  -31.4562   -1.3010   41.5106 C   0  0  0  0  0  0  0  0  0  0  0  0
  -30.6016   -0.0505   41.8037 C   0  0  0  0  0  0  0  0  0  0  0  0
  -29.1009   -0.2986   41.7817 C   0  0  0  0  0  0  0  0  0  0  0  0
  -28.0540   -0.2127   45.2565 C   0  0  0  0  0  0  0  0  0  0  0  0
  -28.5384    0.3918   44.1601 C   0  0  0  0  0  0  0  0  0  0  0  0
  -28.1688   -1.6965   43.6562 C   0  0  0  0  0  0  0  0  0  0  0  0
  -27.8265   -1.5218   44.9431 N   0  0  0  0  0  0  0  0  0  0  0  0
  -28.6093   -0.5344   43.1767 N   0  0  0  0  0  0  0  0  0  0  0  0
  9 10  1  0  0  0
 11 12  1  0  0  0
 13 14  2  0  0  0
 20 21  2  0  0  0
 20 23  1  0  0  0
  3  4  2  0  0  0
  3  6  1  0  0  0
  4  7  1  0  0  0
 21 24  1  0  0  0
 22 23  2  0  0  0
 22 24  1  0  0  0
  5  6  2  0  0  0
  5  8  1  0  0  0
 18 17  1  0  0  0
 18 19  1  0  0  0
 17 15  1  0  0  0
 19 24  1  0  0  0
 15 14  1  0  0  0
  1 14  1  0  0  0
  1  6  1  0  0  0
 10  7  1  0  0  0
 12  8  1  0  0  0
  7  8  2  0  0  0
 15 16  1  0  0  0
  1  2  1  0  0  0
M  END
> <minimizedAffinity>
-5.04430

$$$$
