3QQS_17C_A_404


 22 23  0  0  0  0  0  0  0  0999 V2000
   27.8954   -6.2176   31.3899 N   0  0  0  0  0  0  0  0  0  0  0  0
   27.2545   -6.9489   31.5438 H   0  0  0  0  0  0  0  0  0  0  0  0
   27.6175   -2.5819   31.8465 C   0  0  0  0  0  0  0  0  0  0  0  0
   26.2522   -2.3968   31.6720 C   0  0  0  0  0  0  0  0  0  0  0  0
   28.1855   -3.8531   31.7524 C   0  0  0  0  0  0  0  0  0  0  0  0
   25.4415   -3.4980   31.4116 C   0  0  0  0  0  0  0  0  0  0  0  0
   27.3880   -4.9645   31.4864 C   0  0  0  0  0  0  0  0  0  0  0  0
   26.0112   -4.7616   31.3117 C   0  0  0  0  0  0  0  0  0  0  0  0
   24.5207   -6.4379   32.0270 O   0  0  0  0  0  0  0  0  0  0  0  0
   24.9180   -6.3028   29.8707 O   0  0  0  0  0  0  0  0  0  0  0  0
   25.0963   -5.9362   31.0469 C   0  0  0  0  0  0  0  0  0  0  0  0
   24.6982   -6.1170   32.8893 H   0  0  0  0  0  0  0  0  0  0  0  0
   31.3553   -7.3936   31.8053 C   0  0  0  0  0  0  0  0  0  0  0  0
   31.7813   -7.4337   30.4784 C   0  0  0  0  0  0  0  0  0  0  0  0
   30.0597   -6.9880   32.1097 C   0  0  0  0  0  0  0  0  0  0  0  0
   30.9011   -7.0547   29.4741 C   0  0  0  0  0  0  0  0  0  0  0  0
   29.1645   -6.6007   31.1105 C   0  0  0  0  0  0  0  0  0  0  0  0
   29.6042   -6.6585   29.7825 C   0  0  0  0  0  0  0  0  0  0  0  0
   27.6299   -6.8773   28.4915 O   0  0  0  0  0  0  0  0  0  0  0  0
   29.0839   -5.3398   27.8572 O   0  0  0  0  0  0  0  0  0  0  0  0
   28.7091   -6.2514   28.6211 C   0  0  0  0  0  0  0  0  0  0  0  0
   27.4045   -7.5534   29.0998 H   0  0  0  0  0  0  0  0  0  0  0  0
 11  9  1  0  0  0
 21 19  1  0  0  0
 10 11  2  0  0  0
 20 21  2  0  0  0
  4  3  2  0  0  0
  3  5  1  0  0  0
 15 13  2  0  0  0
 13 14  1  0  0  0
  6  4  1  0  0  0
 16 14  2  0  0  0
  7  5  2  0  0  0
 17 15  1  0  0  0
  6  8  2  0  0  0
 18 16  1  0  0  0
  7  1  1  0  0  0
  1 17  1  0  0  0
 11  8  1  0  0  0
 21 18  1  0  0  0
  8  7  1  0  0  0
 17 18  2  0  0  0
  9 12  1  0  0  0
 19 22  1  0  0  0
  1  2  1  0  0  0
M  END
> <minimizedAffinity>
-8.45161

$$$$
3QQS_17C_A_404


 22 23  0  0  0  0  0  0  0  0999 V2000
   27.9216   -6.2658   31.3444 N   0  0  0  0  0  0  0  0  0  0  0  0
   27.2657   -6.9942   31.4366 H   0  0  0  0  0  0  0  0  0  0  0  0
   31.3874   -7.4126   31.7648 C   0  0  0  0  0  0  0  0  0  0  0  0
   31.8182   -7.4426   30.4448 C   0  0  0  0  0  0  0  0  0  0  0  0
   30.0856   -7.0245   32.0844 C   0  0  0  0  0  0  0  0  0  0  0  0
   30.9405   -7.0686   29.4312 C   0  0  0  0  0  0  0  0  0  0  0  0
   29.1933   -6.6530   31.0805 C   0  0  0  0  0  0  0  0  0  0  0  0
   29.6427   -6.6892   29.7523 C   0  0  0  0  0  0  0  0  0  0  0  0
   27.6480   -6.8826   28.5165 O   0  0  0  0  0  0  0  0  0  0  0  0
   29.0554   -5.3090   27.9092 O   0  0  0  0  0  0  0  0  0  0  0  0
   28.7239   -6.2711   28.6263 C   0  0  0  0  0  0  0  0  0  0  0  0
   27.4566   -7.6001   29.0879 H   0  0  0  0  0  0  0  0  0  0  0  0
   27.7372   -2.6369   31.9141 C   0  0  0  0  0  0  0  0  0  0  0  0
   26.3687   -2.4160   31.7661 C   0  0  0  0  0  0  0  0  0  0  0  0
   28.2555   -3.9205   31.7737 C   0  0  0  0  0  0  0  0  0  0  0  0
   25.5363   -3.4917   31.4890 C   0  0  0  0  0  0  0  0  0  0  0  0
   27.4301   -5.0126   31.4985 C   0  0  0  0  0  0  0  0  0  0  0  0
   26.0600   -4.7715   31.3408 C   0  0  0  0  0  0  0  0  0  0  0  0
   24.5155   -6.4292   32.0329 O   0  0  0  0  0  0  0  0  0  0  0  0
   24.8789   -6.2332   29.8627 O   0  0  0  0  0  0  0  0  0  0  0  0
   25.0751   -5.8936   31.0463 C   0  0  0  0  0  0  0  0  0  0  0  0
   24.7054   -6.1282   32.8997 H   0  0  0  0  0  0  0  0  0  0  0  0
 11  9  1  0  0  0
 21 19  1  0  0  0
 10 11  2  0  0  0
 20 21  2  0  0  0
  4  3  2  0  0  0
  3  5  1  0  0  0
 15 13  2  0  0  0
 13 14  1  0  0  0
  6  4  1  0  0  0
 16 14  2  0  0  0
  7  5  2  0  0  0
 17 15  1  0  0  0
  6  8  2  0  0  0
 18 16  1  0  0  0
  7  1  1  0  0  0
  1 17  1  0  0  0
 11  8  1  0  0  0
 21 18  1  0  0  0
  8  7  1  0  0  0
 17 18  2  0  0  0
  9 12  1  0  0  0
 19 22  1  0  0  0
  1  2  1  0  0  0
M  END
> <minimizedAffinity>
-8.41540

$$$$
3QQS_17C_A_404


 22 23  0  0  0  0  0  0  0  0999 V2000
   28.1107   -6.1650   30.4192 N   0  0  0  0  0  0  0  0  0  0  0  0
   27.4669   -6.7978   30.0263 H   0  0  0  0  0  0  0  0  0  0  0  0
   27.7481   -2.8246   31.9070 C   0  0  0  0  0  0  0  0  0  0  0  0
   26.3759   -2.7751   32.1153 C   0  0  0  0  0  0  0  0  0  0  0  0
   28.3458   -3.9497   31.3375 C   0  0  0  0  0  0  0  0  0  0  0  0
   25.5914   -3.8689   31.7606 C   0  0  0  0  0  0  0  0  0  0  0  0
   27.5732   -5.0503   30.9717 C   0  0  0  0  0  0  0  0  0  0  0  0
   26.1888   -4.9851   31.1874 C   0  0  0  0  0  0  0  0  0  0  0  0
   25.4663   -7.2058   31.4868 O   0  0  0  0  0  0  0  0  0  0  0  0
   24.4350   -6.0134   29.9570 O   0  0  0  0  0  0  0  0  0  0  0  0
   25.3070   -6.1615   30.8330 C   0  0  0  0  0  0  0  0  0  0  0  0
   26.1422   -7.2550   32.1339 H   0  0  0  0  0  0  0  0  0  0  0  0
   31.5374   -6.5889   29.1522 C   0  0  0  0  0  0  0  0  0  0  0  0
   32.1320   -7.2603   30.2196 C   0  0  0  0  0  0  0  0  0  0  0  0
   30.1964   -6.2235   29.2183 C   0  0  0  0  0  0  0  0  0  0  0  0
   31.3668   -7.5656   31.3368 C   0  0  0  0  0  0  0  0  0  0  0  0
   29.4135   -6.5270   30.3339 C   0  0  0  0  0  0  0  0  0  0  0  0
   30.0292   -7.1906   31.4020 C   0  0  0  0  0  0  0  0  0  0  0  0
   29.8496   -7.4008   33.7549 O   0  0  0  0  0  0  0  0  0  0  0  0
   28.1124   -8.0417   32.5500 O   0  0  0  0  0  0  0  0  0  0  0  0
   29.2626   -7.5730   32.6598 C   0  0  0  0  0  0  0  0  0  0  0  0
   30.7157   -7.0437   33.7712 H   0  0  0  0  0  0  0  0  0  0  0  0
 11  9  1  0  0  0
 21 19  1  0  0  0
 10 11  2  0  0  0
 20 21  2  0  0  0
  4  3  2  0  0  0
  3  5  1  0  0  0
 15 13  2  0  0  0
 13 14  1  0  0  0
  6  4  1  0  0  0
 16 14  2  0  0  0
  7  5  2  0  0  0
 17 15  1  0  0  0
  6  8  2  0  0  0
 18 16  1  0  0  0
  7  1  1  0  0  0
  1 17  1  0  0  0
 11  8  1  0  0  0
 21 18  1  0  0  0
  8  7  1  0  0  0
 17 18  2  0  0  0
  9 12  1  0  0  0
 19 22  1  0  0  0
  1  2  1  0  0  0
M  END
> <minimizedAffinity>
-8.38508

$$$$
3QQS_17C_A_404


 22 23  0  0  0  0  0  0  0  0999 V2000
   31.0480   -6.0120   29.1330 N   0  0  0  0  0  0  0  0  0  0  0  0
   30.7417   -5.0988   28.9295 H   0  0  0  0  0  0  0  0  0  0  0  0
   30.6536   -7.6279   32.4097 C   0  0  0  0  0  0  0  0  0  0  0  0
   29.2725   -7.7584   32.4760 C   0  0  0  0  0  0  0  0  0  0  0  0
   31.2651   -7.0430   31.3001 C   0  0  0  0  0  0  0  0  0  0  0  0
   28.4923   -7.3092   31.4143 C   0  0  0  0  0  0  0  0  0  0  0  0
   30.4974   -6.5830   30.2319 C   0  0  0  0  0  0  0  0  0  0  0  0
   29.1039   -6.7209   30.3138 C   0  0  0  0  0  0  0  0  0  0  0  0
   27.5120   -7.1210   28.6259 O   0  0  0  0  0  0  0  0  0  0  0  0
   28.2126   -5.0537   28.8740 O   0  0  0  0  0  0  0  0  0  0  0  0
   28.2253   -6.2625   29.1714 C   0  0  0  0  0  0  0  0  0  0  0  0
   27.5681   -8.0167   28.8952 H   0  0  0  0  0  0  0  0  0  0  0  0
   33.7581   -8.0809   27.7537 C   0  0  0  0  0  0  0  0  0  0  0  0
   33.8187   -7.5989   26.4470 C   0  0  0  0  0  0  0  0  0  0  0  0
   32.8344   -7.5519   28.6498 C   0  0  0  0  0  0  0  0  0  0  0  0
   32.9560   -6.5824   26.0605 C   0  0  0  0  0  0  0  0  0  0  0  0
   31.9627   -6.5270   28.2764 C   0  0  0  0  0  0  0  0  0  0  0  0
   32.0284   -6.0630   26.9571 C   0  0  0  0  0  0  0  0  0  0  0  0
   29.8935   -5.1701   26.4492 O   0  0  0  0  0  0  0  0  0  0  0  0
   31.6442   -3.8796   26.0616 O   0  0  0  0  0  0  0  0  0  0  0  0
   31.1275   -4.9450   26.4525 C   0  0  0  0  0  0  0  0  0  0  0  0
   29.5665   -5.9927   26.7565 H   0  0  0  0  0  0  0  0  0  0  0  0
 11  9  1  0  0  0
 21 19  1  0  0  0
 10 11  2  0  0  0
 20 21  2  0  0  0
  4  3  2  0  0  0
  3  5  1  0  0  0
 15 13  2  0  0  0
 13 14  1  0  0  0
  6  4  1  0  0  0
 16 14  2  0  0  0
  7  5  2  0  0  0
 17 15  1  0  0  0
  6  8  2  0  0  0
 18 16  1  0  0  0
  7  1  1  0  0  0
  1 17  1  0  0  0
 11  8  1  0  0  0
 21 18  1  0  0  0
  8  7  1  0  0  0
 17 18  2  0  0  0
  9 12  1  0  0  0
 19 22  1  0  0  0
  1  2  1  0  0  0
M  END
> <minimizedAffinity>
-8.37059

$$$$
3QQS_17C_A_404


 22 23  0  0  0  0  0  0  0  0999 V2000
   31.1820   -6.0643   29.1176 N   0  0  0  0  0  0  0  0  0  0  0  0
   30.9052   -5.1458   28.8964 H   0  0  0  0  0  0  0  0  0  0  0  0
   33.9438   -8.1234   27.8382 C   0  0  0  0  0  0  0  0  0  0  0  0
   34.0094   -7.6890   26.5207 C   0  0  0  0  0  0  0  0  0  0  0  0
   33.0017   -7.5932   28.7207 C   0  0  0  0  0  0  0  0  0  0  0  0
   33.1299   -6.7033   26.0819 C   0  0  0  0  0  0  0  0  0  0  0  0
   32.1106   -6.6101   28.2949 C   0  0  0  0  0  0  0  0  0  0  0  0
   32.1885   -6.1824   26.9614 C   0  0  0  0  0  0  0  0  0  0  0  0
   30.0552   -5.3796   26.3714 O   0  0  0  0  0  0  0  0  0  0  0  0
   31.7367   -3.9759   26.2034 O   0  0  0  0  0  0  0  0  0  0  0  0
   31.2628   -5.0995   26.4541 C   0  0  0  0  0  0  0  0  0  0  0  0
   29.7603   -6.2456   26.5739 H   0  0  0  0  0  0  0  0  0  0  0  0
   30.6820   -7.6161   32.4144 C   0  0  0  0  0  0  0  0  0  0  0  0
   29.2911   -7.6990   32.4586 C   0  0  0  0  0  0  0  0  0  0  0  0
   31.3130   -7.0712   31.3004 C   0  0  0  0  0  0  0  0  0  0  0  0
   28.5519   -7.2420   31.3761 C   0  0  0  0  0  0  0  0  0  0  0  0
   30.5829   -6.6109   30.2029 C   0  0  0  0  0  0  0  0  0  0  0  0
   29.1866   -6.6901   30.2686 C   0  0  0  0  0  0  0  0  0  0  0  0
   27.5858   -7.0915   28.5689 O   0  0  0  0  0  0  0  0  0  0  0  0
   28.3295   -5.0226   28.7850 O   0  0  0  0  0  0  0  0  0  0  0  0
   28.3002   -6.2223   29.1234 C   0  0  0  0  0  0  0  0  0  0  0  0
   27.6085   -7.9785   28.8702 H   0  0  0  0  0  0  0  0  0  0  0  0
 11  9  1  0  0  0
 21 19  1  0  0  0
 10 11  2  0  0  0
 20 21  2  0  0  0
  4  3  2  0  0  0
  3  5  1  0  0  0
 15 13  2  0  0  0
 13 14  1  0  0  0
  6  4  1  0  0  0
 16 14  2  0  0  0
  7  5  2  0  0  0
 17 15  1  0  0  0
  6  8  2  0  0  0
 18 16  1  0  0  0
  7  1  1  0  0  0
  1 17  1  0  0  0
 11  8  1  0  0  0
 21 18  1  0  0  0
  8  7  1  0  0  0
 17 18  2  0  0  0
  9 12  1  0  0  0
 19 22  1  0  0  0
  1  2  1  0  0  0
M  END
> <minimizedAffinity>
-8.30802

$$$$
3QQS_17C_A_404


 22 23  0  0  0  0  0  0  0  0999 V2000
   28.1291   -6.1199   30.4270 N   0  0  0  0  0  0  0  0  0  0  0  0
   27.4893   -6.7395   30.0074 H   0  0  0  0  0  0  0  0  0  0  0  0
   31.5569   -6.5932   29.1903 C   0  0  0  0  0  0  0  0  0  0  0  0
   32.1329   -7.2683   30.2586 C   0  0  0  0  0  0  0  0  0  0  0  0
   30.2191   -6.1982   29.2304 C   0  0  0  0  0  0  0  0  0  0  0  0
   31.3589   -7.5632   31.3774 C   0  0  0  0  0  0  0  0  0  0  0  0
   29.4329   -6.4808   30.3458 C   0  0  0  0  0  0  0  0  0  0  0  0
   30.0289   -7.1624   31.4171 C   0  0  0  0  0  0  0  0  0  0  0  0
   28.1109   -8.0552   32.4502 O   0  0  0  0  0  0  0  0  0  0  0  0
   29.7051   -7.3125   33.7664 O   0  0  0  0  0  0  0  0  0  0  0  0
   29.2144   -7.5174   32.6408 C   0  0  0  0  0  0  0  0  0  0  0  0
   27.7960   -8.1818   31.5768 H   0  0  0  0  0  0  0  0  0  0  0  0
   27.7853   -2.7959   31.9631 C   0  0  0  0  0  0  0  0  0  0  0  0
   26.4076   -2.7421   32.1697 C   0  0  0  0  0  0  0  0  0  0  0  0
   28.3598   -3.9221   31.3821 C   0  0  0  0  0  0  0  0  0  0  0  0
   25.6255   -3.8273   31.7988 C   0  0  0  0  0  0  0  0  0  0  0  0
   27.5863   -5.0225   31.0072 C   0  0  0  0  0  0  0  0  0  0  0  0
   26.2031   -4.9472   31.2103 C   0  0  0  0  0  0  0  0  0  0  0  0
   25.4305   -7.1723   31.4648 O   0  0  0  0  0  0  0  0  0  0  0  0
   24.4198   -5.9212   29.9503 O   0  0  0  0  0  0  0  0  0  0  0  0
   25.2731   -6.0944   30.8428 C   0  0  0  0  0  0  0  0  0  0  0  0
   26.0908   -7.2395   32.1262 H   0  0  0  0  0  0  0  0  0  0  0  0
 11  9  1  0  0  0
 21 19  1  0  0  0
 10 11  2  0  0  0
 20 21  2  0  0  0
  4  3  2  0  0  0
  3  5  1  0  0  0
 15 13  2  0  0  0
 13 14  1  0  0  0
  6  4  1  0  0  0
 16 14  2  0  0  0
  7  5  2  0  0  0
 17 15  1  0  0  0
  6  8  2  0  0  0
 18 16  1  0  0  0
  7  1  1  0  0  0
  1 17  1  0  0  0
 11  8  1  0  0  0
 21 18  1  0  0  0
  8  7  1  0  0  0
 17 18  2  0  0  0
  9 12  1  0  0  0
 19 22  1  0  0  0
  1  2  1  0  0  0
M  END
> <minimizedAffinity>
-8.30226

$$$$
3QQS_17C_A_404


 22 23  0  0  0  0  0  0  0  0999 V2000
   27.8513   -5.4278   31.2476 N   0  0  0  0  0  0  0  0  0  0  0  0
   27.0365   -5.9530   31.0763 H   0  0  0  0  0  0  0  0  0  0  0  0
   30.9254   -7.1644   32.2663 C   0  0  0  0  0  0  0  0  0  0  0  0
   31.4240   -7.5651   31.0335 C   0  0  0  0  0  0  0  0  0  0  0  0
   29.7295   -6.4511   32.3574 C   0  0  0  0  0  0  0  0  0  0  0  0
   30.7245   -7.2387   29.8751 C   0  0  0  0  0  0  0  0  0  0  0  0
   29.0147   -6.1220   31.2073 C   0  0  0  0  0  0  0  0  0  0  0  0
   29.5303   -6.5343   29.9698 C   0  0  0  0  0  0  0  0  0  0  0  0
   27.7682   -6.8102   28.4329 O   0  0  0  0  0  0  0  0  0  0  0  0
   29.2499   -5.2500   27.9902 O   0  0  0  0  0  0  0  0  0  0  0  0
   28.8085   -6.1811   28.6887 C   0  0  0  0  0  0  0  0  0  0  0  0
   27.4880   -7.5023   28.9991 H   0  0  0  0  0  0  0  0  0  0  0  0
   28.0922   -2.0907   32.7751 C   0  0  0  0  0  0  0  0  0  0  0  0
   27.2589   -1.3549   31.9338 C   0  0  0  0  0  0  0  0  0  0  0  0
   28.2900   -3.4489   32.5467 C   0  0  0  0  0  0  0  0  0  0  0  0
   26.6258   -1.9974   30.8787 C   0  0  0  0  0  0  0  0  0  0  0  0
   27.6572   -4.1093   31.4917 C   0  0  0  0  0  0  0  0  0  0  0  0
   26.8335   -3.3532   30.6491 C   0  0  0  0  0  0  0  0  0  0  0  0
   25.5605   -5.0969   29.6736 O   0  0  0  0  0  0  0  0  0  0  0  0
   26.0584   -3.3712   28.3874 O   0  0  0  0  0  0  0  0  0  0  0  0
   26.0933   -3.9788   29.4757 C   0  0  0  0  0  0  0  0  0  0  0  0
   25.6220   -5.5027   30.5160 H   0  0  0  0  0  0  0  0  0  0  0  0
 11  9  1  0  0  0
 21 19  1  0  0  0
 10 11  2  0  0  0
 20 21  2  0  0  0
  4  3  2  0  0  0
  3  5  1  0  0  0
 15 13  2  0  0  0
 13 14  1  0  0  0
  6  4  1  0  0  0
 16 14  2  0  0  0
  7  5  2  0  0  0
 17 15  1  0  0  0
  6  8  2  0  0  0
 18 16  1  0  0  0
  7  1  1  0  0  0
  1 17  1  0  0  0
 11  8  1  0  0  0
 21 18  1  0  0  0
  8  7  1  0  0  0
 17 18  2  0  0  0
  9 12  1  0  0  0
 19 22  1  0  0  0
  1  2  1  0  0  0
M  END
> <minimizedAffinity>
-7.74457

$$$$
3QQS_17C_A_404


 22 23  0  0  0  0  0  0  0  0999 V2000
   28.2123   -4.8069   30.5603 N   0  0  0  0  0  0  0  0  0  0  0  0
   28.5988   -3.9263   30.3497 H   0  0  0  0  0  0  0  0  0  0  0  0
   30.1071   -7.0658   32.7536 C   0  0  0  0  0  0  0  0  0  0  0  0
   30.9408   -7.6894   31.8345 C   0  0  0  0  0  0  0  0  0  0  0  0
   29.1855   -6.1010   32.3448 C   0  0  0  0  0  0  0  0  0  0  0  0
   30.8610   -7.3362   30.4904 C   0  0  0  0  0  0  0  0  0  0  0  0
   29.0895   -5.7408   31.0020 C   0  0  0  0  0  0  0  0  0  0  0  0
   29.9373   -6.3801   30.0856 C   0  0  0  0  0  0  0  0  0  0  0  0
   30.9760   -5.7517   28.0683 O   0  0  0  0  0  0  0  0  0  0  0  0
   28.7978   -6.0345   28.0292 O   0  0  0  0  0  0  0  0  0  0  0  0
   29.8930   -6.0084   28.6204 C   0  0  0  0  0  0  0  0  0  0  0  0
   31.7679   -5.7477   28.5692 H   0  0  0  0  0  0  0  0  0  0  0  0
   24.7432   -6.0045   30.8026 C   0  0  0  0  0  0  0  0  0  0  0  0
   24.0904   -5.0901   29.9772 C   0  0  0  0  0  0  0  0  0  0  0  0
   26.1177   -5.9105   30.9972 C   0  0  0  0  0  0  0  0  0  0  0  0
   24.8306   -4.0981   29.3488 C   0  0  0  0  0  0  0  0  0  0  0  0
   26.8758   -4.9203   30.3691 C   0  0  0  0  0  0  0  0  0  0  0  0
   26.2029   -4.0027   29.5534 C   0  0  0  0  0  0  0  0  0  0  0  0
   27.7583   -3.2405   27.9370 O   0  0  0  0  0  0  0  0  0  0  0  0
   26.7054   -1.7047   29.1257 O   0  0  0  0  0  0  0  0  0  0  0  0
   26.9375   -2.8907   28.8187 C   0  0  0  0  0  0  0  0  0  0  0  0
   27.8882   -4.1499   27.7522 H   0  0  0  0  0  0  0  0  0  0  0  0
 11  9  1  0  0  0
 21 19  1  0  0  0
 10 11  2  0  0  0
 20 21  2  0  0  0
  4  3  2  0  0  0
  3  5  1  0  0  0
 15 13  2  0  0  0
 13 14  1  0  0  0
  6  4  1  0  0  0
 16 14  2  0  0  0
  7  5  2  0  0  0
 17 15  1  0  0  0
  6  8  2  0  0  0
 18 16  1  0  0  0
  7  1  1  0  0  0
  1 17  1  0  0  0
 11  8  1  0  0  0
 21 18  1  0  0  0
  8  7  1  0  0  0
 17 18  2  0  0  0
  9 12  1  0  0  0
 19 22  1  0  0  0
  1  2  1  0  0  0
M  END
> <minimizedAffinity>
-7.25498

$$$$
3QQS_17C_A_404


 22 23  0  0  0  0  0  0  0  0999 V2000
   28.3072   -4.5325   30.9874 N   0  0  0  0  0  0  0  0  0  0  0  0
   28.7305   -3.8416   30.4281 H   0  0  0  0  0  0  0  0  0  0  0  0
   30.3060   -6.9156   32.9443 C   0  0  0  0  0  0  0  0  0  0  0  0
   30.7517   -7.7707   31.9448 C   0  0  0  0  0  0  0  0  0  0  0  0
   29.4845   -5.8286   32.6429 C   0  0  0  0  0  0  0  0  0  0  0  0
   30.3814   -7.5299   30.6247 C   0  0  0  0  0  0  0  0  0  0  0  0
   29.1003   -5.5777   31.3270 C   0  0  0  0  0  0  0  0  0  0  0  0
   29.5576   -6.4505   30.3288 C   0  0  0  0  0  0  0  0  0  0  0  0
   28.0675   -6.5853   28.5109 O   0  0  0  0  0  0  0  0  0  0  0  0
   29.9989   -5.6016   28.1536 O   0  0  0  0  0  0  0  0  0  0  0  0
   29.1923   -6.2095   28.8812 C   0  0  0  0  0  0  0  0  0  0  0  0
   27.5054   -7.0395   29.1074 H   0  0  0  0  0  0  0  0  0  0  0  0
   24.6768   -4.9868   31.3626 C   0  0  0  0  0  0  0  0  0  0  0  0
   24.3351   -3.8231   32.0499 C   0  0  0  0  0  0  0  0  0  0  0  0
   26.0012   -5.2238   31.0079 C   0  0  0  0  0  0  0  0  0  0  0  0
   25.3292   -2.9061   32.3629 C   0  0  0  0  0  0  0  0  0  0  0  0
   27.0112   -4.3091   31.3129 C   0  0  0  0  0  0  0  0  0  0  0  0
   26.6529   -3.1514   32.0142 C   0  0  0  0  0  0  0  0  0  0  0  0
   27.4188   -0.9098   32.0482 O   0  0  0  0  0  0  0  0  0  0  0  0
   28.7111   -2.4312   32.9946 O   0  0  0  0  0  0  0  0  0  0  0  0
   27.6765   -2.0893   32.3884 C   0  0  0  0  0  0  0  0  0  0  0  0
   26.6225   -0.7166   31.5937 H   0  0  0  0  0  0  0  0  0  0  0  0
 11  9  1  0  0  0
 21 19  1  0  0  0
 10 11  2  0  0  0
 20 21  2  0  0  0
  4  3  2  0  0  0
  3  5  1  0  0  0
 15 13  2  0  0  0
 13 14  1  0  0  0
  6  4  1  0  0  0
 16 14  2  0  0  0
  7  5  2  0  0  0
 17 15  1  0  0  0
  6  8  2  0  0  0
 18 16  1  0  0  0
  7  1  1  0  0  0
  1 17  1  0  0  0
 11  8  1  0  0  0
 21 18  1  0  0  0
  8  7  1  0  0  0
 17 18  2  0  0  0
  9 12  1  0  0  0
 19 22  1  0  0  0
  1  2  1  0  0  0
M  END
> <minimizedAffinity>
-7.05408

$$$$
3QQS_17C_A_404


 22 23  0  0  0  0  0  0  0  0999 V2000
   28.3387   -6.1981   29.2112 N   0  0  0  0  0  0  0  0  0  0  0  0
   28.0313   -6.6032   28.3682 H   0  0  0  0  0  0  0  0  0  0  0  0
   31.2463   -7.3715   31.1276 C   0  0  0  0  0  0  0  0  0  0  0  0
   32.2798   -7.0753   30.2484 C   0  0  0  0  0  0  0  0  0  0  0  0
   29.9208   -7.0880   30.7959 C   0  0  0  0  0  0  0  0  0  0  0  0
   31.9865   -6.4771   29.0262 C   0  0  0  0  0  0  0  0  0  0  0  0
   29.6105   -6.4946   29.5738 C   0  0  0  0  0  0  0  0  0  0  0  0
   30.6648   -6.2023   28.6961 C   0  0  0  0  0  0  0  0  0  0  0  0
   31.3311   -4.9362   26.8263 O   0  0  0  0  0  0  0  0  0  0  0  0
   29.2585   -5.6635   26.8579 O   0  0  0  0  0  0  0  0  0  0  0  0
   30.3867   -5.5345   27.3680 C   0  0  0  0  0  0  0  0  0  0  0  0
   32.1579   -4.8733   27.2627 H   0  0  0  0  0  0  0  0  0  0  0  0
   26.5093   -3.2419   30.4118 C   0  0  0  0  0  0  0  0  0  0  0  0
   25.5003   -3.8432   31.1626 C   0  0  0  0  0  0  0  0  0  0  0  0
   27.4561   -4.0267   29.7610 C   0  0  0  0  0  0  0  0  0  0  0  0
   25.4624   -5.2275   31.2583 C   0  0  0  0  0  0  0  0  0  0  0  0
   27.4328   -5.4199   29.8510 C   0  0  0  0  0  0  0  0  0  0  0  0
   26.4056   -6.0082   30.5988 C   0  0  0  0  0  0  0  0  0  0  0  0
   25.8049   -8.1578   29.8046 O   0  0  0  0  0  0  0  0  0  0  0  0
   26.6779   -8.0393   31.8305 O   0  0  0  0  0  0  0  0  0  0  0  0
   26.2950   -7.5169   30.7649 C   0  0  0  0  0  0  0  0  0  0  0  0
   25.5355   -7.7065   29.0289 H   0  0  0  0  0  0  0  0  0  0  0  0
 11  9  1  0  0  0
 21 19  1  0  0  0
 10 11  2  0  0  0
 20 21  2  0  0  0
  4  3  2  0  0  0
  3  5  1  0  0  0
 15 13  2  0  0  0
 13 14  1  0  0  0
  6  4  1  0  0  0
 16 14  2  0  0  0
  7  5  2  0  0  0
 17 15  1  0  0  0
  6  8  2  0  0  0
 18 16  1  0  0  0
  7  1  1  0  0  0
  1 17  1  0  0  0
 11  8  1  0  0  0
 21 18  1  0  0  0
  8  7  1  0  0  0
 17 18  2  0  0  0
  9 12  1  0  0  0
 19 22  1  0  0  0
  1  2  1  0  0  0
M  END
> <minimizedAffinity>
-7.01827

$$$$
