5DQF_CZE_A_613


 28 30  0  0  0  0  0  0  0  0999 V2000
  -30.8465   12.6212  -13.5285 N   0  0  0  0  0  0  0  0  0  0  0  0
  -31.1211   13.9246  -14.1283 C   0  0  0  0  0  0  0  0  0  0  0  0
  -30.7153   13.9358  -15.6083 C   0  0  0  0  0  0  0  0  0  0  0  0
  -31.5484   11.5879  -14.3170 C   0  0  0  0  0  0  0  0  0  0  0  0
  -31.2876   11.6616  -15.7951 C   0  0  0  0  0  0  0  0  0  0  0  0
  -31.5762   12.9831  -16.2698 N   0  0  0  0  0  0  0  0  0  0  0  0
  -31.2909   12.5921  -12.1076 C   0  0  0  0  0  0  0  0  0  0  0  0
  -30.1746   12.1206  -11.1989 C   0  0  0  0  0  0  0  0  0  0  0  0
  -28.9750   12.8552  -11.5167 O   0  0  0  0  0  0  0  0  0  0  0  0
  -28.8140   14.1895  -10.9725 C   0  0  0  0  0  0  0  0  0  0  0  0
  -28.2350   16.2853  -11.8858 O   0  0  0  0  0  0  0  0  0  0  0  0
  -28.2137   15.0496  -12.0696 C   0  0  0  0  0  0  0  0  0  0  0  0
  -27.7235   14.4722  -13.0666 O   0  0  0  0  0  0  0  0  0  0  0  0
  -28.6231   16.6367  -11.1088 H   0  0  0  0  0  0  0  0  0  0  0  0
  -31.2425   13.0297  -17.7819 C   0  0  0  0  0  0  0  0  0  0  0  0
  -31.9509   14.1409  -18.5472 C   0  0  0  0  0  0  0  0  0  0  0  0
  -31.5270   14.4861  -19.8351 C   0  0  0  0  0  0  0  0  0  0  0  0
  -32.1912   15.4953  -20.5375 C   0  0  0  0  0  0  0  0  0  0  0  0
  -33.2778   16.1562  -19.9514 C   0  0  0  0  0  0  0  0  0  0  0  0
  -34.1245   17.3931  -20.7668 Cl  0  0  0  0  0  0  0  0  0  0  0  0
  -33.6990   15.8122  -18.6735 C   0  0  0  0  0  0  0  0  0  0  0  0
  -33.0411   14.8082  -17.9790 C   0  0  0  0  0  0  0  0  0  0  0  0
  -31.5044   11.7041  -18.5081 C   0  0  0  0  0  0  0  0  0  0  0  0
  -32.8000   11.3198  -18.8835 C   0  0  0  0  0  0  0  0  0  0  0  0
  -33.0386   10.1053  -19.5316 C   0  0  0  0  0  0  0  0  0  0  0  0
  -31.9778    9.2551  -19.8269 C   0  0  0  0  0  0  0  0  0  0  0  0
  -30.6861    9.6337  -19.4574 C   0  0  0  0  0  0  0  0  0  0  0  0
  -30.4456   10.8426  -18.8041 C   0  0  0  0  0  0  0  0  0  0  0  0
 20 19  1  0  0  0
  2  3  1  0  0  0
  2  1  1  0  0  0
 19 18  2  0  0  0
 19 21  1  0  0  0
 18 17  1  0  0  0
  3  6  1  0  0  0
  7  1  1  0  0  0
  7  8  1  0  0  0
  1  4  1  0  0  0
 21 22  2  0  0  0
 17 16  2  0  0  0
  9  8  1  0  0  0
  9 10  1  0  0  0
 22 16  1  0  0  0
 16 15  1  0  0  0
  6 15  1  0  0  0
  6  5  1  0  0  0
 10 12  1  0  0  0
 15 23  1  0  0  0
  4  5  1  0  0  0
 13 12  2  0  0  0
 12 11  1  0  0  0
 23 28  2  0  0  0
 23 24  1  0  0  0
 28 27  1  0  0  0
 24 25  2  0  0  0
 27 26  2  0  0  0
 25 26  1  0  0  0
 11 14  1  0  0  0
M  END
> <minimizedAffinity>
-7.52665

$$$$
5DQF_CZE_A_613


 28 30  0  0  0  0  0  0  0  0999 V2000
  -26.8014   13.3621  -18.9643 N   0  0  0  0  0  0  0  0  0  0  0  0
  -27.9983   14.1316  -19.2944 C   0  0  0  0  0  0  0  0  0  0  0  0
  -29.2609   13.2840  -19.0882 C   0  0  0  0  0  0  0  0  0  0  0  0
  -26.9325   12.8676  -17.5785 C   0  0  0  0  0  0  0  0  0  0  0  0
  -28.2271   12.1569  -17.3007 C   0  0  0  0  0  0  0  0  0  0  0  0
  -29.3272   12.9966  -17.6742 N   0  0  0  0  0  0  0  0  0  0  0  0
  -25.5798   14.2009  -19.1110 C   0  0  0  0  0  0  0  0  0  0  0  0
  -25.7522   15.2229  -20.2155 C   0  0  0  0  0  0  0  0  0  0  0  0
  -25.1752   14.6982  -21.4285 O   0  0  0  0  0  0  0  0  0  0  0  0
  -25.9665   14.7295  -22.6430 C   0  0  0  0  0  0  0  0  0  0  0  0
  -26.2485   12.3893  -22.5683 O   0  0  0  0  0  0  0  0  0  0  0  0
  -26.8395   13.4878  -22.6391 C   0  0  0  0  0  0  0  0  0  0  0  0
  -28.0811   13.6426  -22.6860 O   0  0  0  0  0  0  0  0  0  0  0  0
  -25.3124   12.3620  -22.5371 H   0  0  0  0  0  0  0  0  0  0  0  0
  -30.6361   12.2068  -17.4234 C   0  0  0  0  0  0  0  0  0  0  0  0
  -31.8712   12.8145  -18.0771 C   0  0  0  0  0  0  0  0  0  0  0  0
  -32.7851   11.9945  -18.7479 C   0  0  0  0  0  0  0  0  0  0  0  0
  -33.9239   12.5563  -19.3315 C   0  0  0  0  0  0  0  0  0  0  0  0
  -34.1469   13.9359  -19.2425 C   0  0  0  0  0  0  0  0  0  0  0  0
  -35.5221   14.6714  -19.9349 Cl  0  0  0  0  0  0  0  0  0  0  0  0
  -33.2401   14.7493  -18.5753 C   0  0  0  0  0  0  0  0  0  0  0  0
  -32.1122   14.1898  -17.9936 C   0  0  0  0  0  0  0  0  0  0  0  0
  -30.9409   11.9825  -15.9367 C   0  0  0  0  0  0  0  0  0  0  0  0
  -31.4281   10.7538  -15.4676 C   0  0  0  0  0  0  0  0  0  0  0  0
  -31.7192   10.5560  -14.1156 C   0  0  0  0  0  0  0  0  0  0  0  0
  -31.5161   11.5863  -13.2030 C   0  0  0  0  0  0  0  0  0  0  0  0
  -31.0295   12.8105  -13.6642 C   0  0  0  0  0  0  0  0  0  0  0  0
  -30.7443   13.0131  -15.0147 C   0  0  0  0  0  0  0  0  0  0  0  0
 20 19  1  0  0  0
  2  3  1  0  0  0
  2  1  1  0  0  0
 19 18  2  0  0  0
 19 21  1  0  0  0
 18 17  1  0  0  0
  3  6  1  0  0  0
  7  1  1  0  0  0
  7  8  1  0  0  0
  1  4  1  0  0  0
 21 22  2  0  0  0
 17 16  2  0  0  0
  9  8  1  0  0  0
  9 10  1  0  0  0
 22 16  1  0  0  0
 16 15  1  0  0  0
  6 15  1  0  0  0
  6  5  1  0  0  0
 10 12  1  0  0  0
 15 23  1  0  0  0
  4  5  1  0  0  0
 13 12  2  0  0  0
 12 11  1  0  0  0
 23 28  2  0  0  0
 23 24  1  0  0  0
 28 27  1  0  0  0
 24 25  2  0  0  0
 27 26  2  0  0  0
 25 26  1  0  0  0
 11 14  1  0  0  0
M  END
> <minimizedAffinity>
-7.44360

$$$$
5DQF_CZE_A_613


 28 30  0  0  0  0  0  0  0  0999 V2000
  -26.9804   13.2106  -19.2058 N   0  0  0  0  0  0  0  0  0  0  0  0
  -28.1586   13.9891  -19.5794 C   0  0  0  0  0  0  0  0  0  0  0  0
  -29.4438   13.2153  -19.2557 C   0  0  0  0  0  0  0  0  0  0  0  0
  -27.0869   12.8613  -17.7745 C   0  0  0  0  0  0  0  0  0  0  0  0
  -28.3969   12.2321  -17.3924 C   0  0  0  0  0  0  0  0  0  0  0  0
  -29.4773   13.0723  -17.8188 N   0  0  0  0  0  0  0  0  0  0  0  0
  -25.7347   13.9831  -19.4684 C   0  0  0  0  0  0  0  0  0  0  0  0
  -25.7525   14.5865  -20.8575 C   0  0  0  0  0  0  0  0  0  0  0  0
  -25.0820   13.6871  -21.7636 O   0  0  0  0  0  0  0  0  0  0  0  0
  -23.6827   13.3856  -21.5329 C   0  0  0  0  0  0  0  0  0  0  0  0
  -23.6901   11.2793  -22.5937 O   0  0  0  0  0  0  0  0  0  0  0  0
  -23.2407   12.4443  -22.6386 C   0  0  0  0  0  0  0  0  0  0  0  0
  -22.4800   12.8953  -23.5249 O   0  0  0  0  0  0  0  0  0  0  0  0
  -24.2560   11.0221  -21.8925 H   0  0  0  0  0  0  0  0  0  0  0  0
  -30.8053   12.3622  -17.4552 C   0  0  0  0  0  0  0  0  0  0  0  0
  -32.0459   12.9967  -18.0722 C   0  0  0  0  0  0  0  0  0  0  0  0
  -32.2008   14.3872  -18.0633 C   0  0  0  0  0  0  0  0  0  0  0  0
  -33.3333   14.9634  -18.6450 C   0  0  0  0  0  0  0  0  0  0  0  0
  -34.3076   14.1486  -19.2348 C   0  0  0  0  0  0  0  0  0  0  0  0
  -35.7070   14.8015  -19.9607 Cl  0  0  0  0  0  0  0  0  0  0  0  0
  -34.1526   12.7684  -19.2446 C   0  0  0  0  0  0  0  0  0  0  0  0
  -33.0265   12.1983  -18.6700 C   0  0  0  0  0  0  0  0  0  0  0  0
  -31.0351   12.2290  -15.9443 C   0  0  0  0  0  0  0  0  0  0  0  0
  -30.7966   13.3006  -15.0714 C   0  0  0  0  0  0  0  0  0  0  0  0
  -30.9922   13.1730  -13.6939 C   0  0  0  0  0  0  0  0  0  0  0  0
  -31.4428   11.9680  -13.1647 C   0  0  0  0  0  0  0  0  0  0  0  0
  -31.6836   10.8990  -14.0292 C   0  0  0  0  0  0  0  0  0  0  0  0
  -31.4828   11.0212  -15.4043 C   0  0  0  0  0  0  0  0  0  0  0  0
 20 19  1  0  0  0
  2  3  1  0  0  0
  2  1  1  0  0  0
 19 18  2  0  0  0
 19 21  1  0  0  0
 18 17  1  0  0  0
  3  6  1  0  0  0
  7  1  1  0  0  0
  7  8  1  0  0  0
  1  4  1  0  0  0
 21 22  2  0  0  0
 17 16  2  0  0  0
  9  8  1  0  0  0
  9 10  1  0  0  0
 22 16  1  0  0  0
 16 15  1  0  0  0
  6 15  1  0  0  0
  6  5  1  0  0  0
 10 12  1  0  0  0
 15 23  1  0  0  0
  4  5  1  0  0  0
 13 12  2  0  0  0
 12 11  1  0  0  0
 23 28  2  0  0  0
 23 24  1  0  0  0
 28 27  1  0  0  0
 24 25  2  0  0  0
 27 26  2  0  0  0
 25 26  1  0  0  0
 11 14  1  0  0  0
M  END
> <minimizedAffinity>
-7.30974

$$$$
5DQF_CZE_A_613


 28 30  0  0  0  0  0  0  0  0999 V2000
  -26.8971   13.3130  -19.0482 N   0  0  0  0  0  0  0  0  0  0  0  0
  -28.0763   14.0668  -19.4666 C   0  0  0  0  0  0  0  0  0  0  0  0
  -29.3511   13.2385  -19.2568 C   0  0  0  0  0  0  0  0  0  0  0  0
  -27.0814   12.9021  -17.6413 C   0  0  0  0  0  0  0  0  0  0  0  0
  -28.3898   12.2149  -17.3693 C   0  0  0  0  0  0  0  0  0  0  0  0
  -29.4702   13.0358  -17.8316 N   0  0  0  0  0  0  0  0  0  0  0  0
  -25.6656   14.1362  -19.1997 C   0  0  0  0  0  0  0  0  0  0  0  0
  -24.5676   13.6455  -18.2791 C   0  0  0  0  0  0  0  0  0  0  0  0
  -24.4042   14.5929  -17.2042 O   0  0  0  0  0  0  0  0  0  0  0  0
  -23.6225   14.2016  -16.0475 C   0  0  0  0  0  0  0  0  0  0  0  0
  -24.2720   12.3219  -14.7798 O   0  0  0  0  0  0  0  0  0  0  0  0
  -24.5652   13.4964  -15.0894 C   0  0  0  0  0  0  0  0  0  0  0  0
  -25.5528   14.1353  -14.6603 O   0  0  0  0  0  0  0  0  0  0  0  0
  -23.5120   11.9161  -15.1482 H   0  0  0  0  0  0  0  0  0  0  0  0
  -30.7925   12.2680  -17.5823 C   0  0  0  0  0  0  0  0  0  0  0  0
  -32.0260   12.9300  -18.1843 C   0  0  0  0  0  0  0  0  0  0  0  0
  -32.9907   12.1543  -18.8362 C   0  0  0  0  0  0  0  0  0  0  0  0
  -34.1273   12.7658  -19.3721 C   0  0  0  0  0  0  0  0  0  0  0  0
  -34.2973   14.1508  -19.2543 C   0  0  0  0  0  0  0  0  0  0  0  0
  -35.6674   14.9461  -19.8883 Cl  0  0  0  0  0  0  0  0  0  0  0  0
  -33.3400   14.9202  -18.6058 C   0  0  0  0  0  0  0  0  0  0  0  0
  -32.2143   14.3115  -18.0715 C   0  0  0  0  0  0  0  0  0  0  0  0
  -31.0708   11.9930  -16.0989 C   0  0  0  0  0  0  0  0  0  0  0  0
  -31.4445   10.7181  -15.6495 C   0  0  0  0  0  0  0  0  0  0  0  0
  -31.7120   10.4728  -14.3003 C   0  0  0  0  0  0  0  0  0  0  0  0
  -31.5987   11.5019  -13.3712 C   0  0  0  0  0  0  0  0  0  0  0  0
  -31.2250   12.7722  -13.8128 C   0  0  0  0  0  0  0  0  0  0  0  0
  -30.9638   13.0217  -15.1603 C   0  0  0  0  0  0  0  0  0  0  0  0
 20 19  1  0  0  0
  2  3  1  0  0  0
  2  1  1  0  0  0
 19 18  2  0  0  0
 19 21  1  0  0  0
 18 17  1  0  0  0
  3  6  1  0  0  0
  7  1  1  0  0  0
  7  8  1  0  0  0
  1  4  1  0  0  0
 21 22  2  0  0  0
 17 16  2  0  0  0
  9  8  1  0  0  0
  9 10  1  0  0  0
 22 16  1  0  0  0
 16 15  1  0  0  0
  6 15  1  0  0  0
  6  5  1  0  0  0
 10 12  1  0  0  0
 15 23  1  0  0  0
  4  5  1  0  0  0
 13 12  2  0  0  0
 12 11  1  0  0  0
 23 28  2  0  0  0
 23 24  1  0  0  0
 28 27  1  0  0  0
 24 25  2  0  0  0
 27 26  2  0  0  0
 25 26  1  0  0  0
 11 14  1  0  0  0
M  END
> <minimizedAffinity>
-7.11151

$$$$
5DQF_CZE_A_613


 28 30  0  0  0  0  0  0  0  0999 V2000
  -31.8589   12.3860  -13.5130 N   0  0  0  0  0  0  0  0  0  0  0  0
  -31.5439   10.9975  -13.8394 C   0  0  0  0  0  0  0  0  0  0  0  0
  -31.5363   10.7869  -15.3595 C   0  0  0  0  0  0  0  0  0  0  0  0
  -30.8864   13.2590  -14.2017 C   0  0  0  0  0  0  0  0  0  0  0  0
  -30.7455   12.9804  -15.6716 C   0  0  0  0  0  0  0  0  0  0  0  0
  -30.4522   11.5917  -15.8727 N   0  0  0  0  0  0  0  0  0  0  0  0
  -31.8121   12.6038  -12.0407 C   0  0  0  0  0  0  0  0  0  0  0  0
  -30.3867   12.5603  -11.5303 C   0  0  0  0  0  0  0  0  0  0  0  0
  -30.0544   13.8466  -10.9693 O   0  0  0  0  0  0  0  0  0  0  0  0
  -28.6570   14.1733  -10.7630 C   0  0  0  0  0  0  0  0  0  0  0  0
  -28.2949   16.2296  -11.8595 O   0  0  0  0  0  0  0  0  0  0  0  0
  -28.2072   14.9875  -11.9625 C   0  0  0  0  0  0  0  0  0  0  0  0
  -27.7636   14.3711  -12.9579 O   0  0  0  0  0  0  0  0  0  0  0  0
  -28.6401   16.6116  -11.0767 H   0  0  0  0  0  0  0  0  0  0  0  0
  -30.3698   11.3382  -17.3988 C   0  0  0  0  0  0  0  0  0  0  0  0
  -29.2085   12.0421  -18.0903 C   0  0  0  0  0  0  0  0  0  0  0  0
  -29.3273   12.4457  -19.4247 C   0  0  0  0  0  0  0  0  0  0  0  0
  -28.2644   13.1050  -20.0480 C   0  0  0  0  0  0  0  0  0  0  0  0
  -27.0859   13.3599  -19.3360 C   0  0  0  0  0  0  0  0  0  0  0  0
  -25.7601   14.1634  -20.0489 Cl  0  0  0  0  0  0  0  0  0  0  0  0
  -26.9690   12.9603  -18.0110 C   0  0  0  0  0  0  0  0  0  0  0  0
  -28.0260   12.3093  -17.3927 C   0  0  0  0  0  0  0  0  0  0  0  0
  -31.6605   11.6910  -18.1490 C   0  0  0  0  0  0  0  0  0  0  0  0
  -32.1594   13.0016  -18.1690 C   0  0  0  0  0  0  0  0  0  0  0  0
  -33.3430   13.3184  -18.8403 C   0  0  0  0  0  0  0  0  0  0  0  0
  -34.0456   12.3259  -19.5161 C   0  0  0  0  0  0  0  0  0  0  0  0
  -33.5524   11.0202  -19.5011 C   0  0  0  0  0  0  0  0  0  0  0  0
  -32.3744   10.6996  -18.8260 C   0  0  0  0  0  0  0  0  0  0  0  0
 20 19  1  0  0  0
  2  3  1  0  0  0
  2  1  1  0  0  0
 19 18  2  0  0  0
 19 21  1  0  0  0
 18 17  1  0  0  0
  3  6  1  0  0  0
  7  1  1  0  0  0
  7  8  1  0  0  0
  1  4  1  0  0  0
 21 22  2  0  0  0
 17 16  2  0  0  0
  9  8  1  0  0  0
  9 10  1  0  0  0
 22 16  1  0  0  0
 16 15  1  0  0  0
  6 15  1  0  0  0
  6  5  1  0  0  0
 10 12  1  0  0  0
 15 23  1  0  0  0
  4  5  1  0  0  0
 13 12  2  0  0  0
 12 11  1  0  0  0
 23 28  2  0  0  0
 23 24  1  0  0  0
 28 27  1  0  0  0
 24 25  2  0  0  0
 27 26  2  0  0  0
 25 26  1  0  0  0
 11 14  1  0  0  0
M  END
> <minimizedAffinity>
-7.02022

$$$$
5DQF_CZE_A_613


 28 30  0  0  0  0  0  0  0  0999 V2000
  -26.9013   13.2525  -19.0669 N   0  0  0  0  0  0  0  0  0  0  0  0
  -28.0862   14.0181  -19.4460 C   0  0  0  0  0  0  0  0  0  0  0  0
  -29.3632   13.2160  -19.1611 C   0  0  0  0  0  0  0  0  0  0  0  0
  -27.0271   12.8725  -17.6449 C   0  0  0  0  0  0  0  0  0  0  0  0
  -28.3325   12.2133  -17.2992 C   0  0  0  0  0  0  0  0  0  0  0  0
  -29.4196   13.0434  -17.7282 N   0  0  0  0  0  0  0  0  0  0  0  0
  -25.6650   14.0514  -19.2914 C   0  0  0  0  0  0  0  0  0  0  0  0
  -25.5417   14.4650  -20.7433 C   0  0  0  0  0  0  0  0  0  0  0  0
  -25.0104   15.8044  -20.8016 O   0  0  0  0  0  0  0  0  0  0  0  0
  -25.8570   16.9051  -20.3848 C   0  0  0  0  0  0  0  0  0  0  0  0
  -23.7950   17.6821  -19.5443 O   0  0  0  0  0  0  0  0  0  0  0  0
  -25.0373   17.7660  -19.4408 C   0  0  0  0  0  0  0  0  0  0  0  0
  -25.6507   18.5108  -18.6429 O   0  0  0  0  0  0  0  0  0  0  0  0
  -23.4154   17.0969  -20.1700 H   0  0  0  0  0  0  0  0  0  0  0  0
  -30.7413   12.3034  -17.4029 C   0  0  0  0  0  0  0  0  0  0  0  0
  -31.9774   12.9095  -18.0562 C   0  0  0  0  0  0  0  0  0  0  0  0
  -32.9406   12.0795  -18.6399 C   0  0  0  0  0  0  0  0  0  0  0  0
  -34.0796   12.6410  -19.2233 C   0  0  0  0  0  0  0  0  0  0  0  0
  -34.2534   14.0305  -19.2210 C   0  0  0  0  0  0  0  0  0  0  0  0
  -35.6266   14.7664  -19.9171 Cl  0  0  0  0  0  0  0  0  0  0  0  0
  -33.2976   14.8540  -18.6402 C   0  0  0  0  0  0  0  0  0  0  0  0
  -32.1696   14.2950  -18.0586 C   0  0  0  0  0  0  0  0  0  0  0  0
  -31.0118   12.1651  -15.8992 C   0  0  0  0  0  0  0  0  0  0  0  0
  -30.8395   13.2467  -15.0231 C   0  0  0  0  0  0  0  0  0  0  0  0
  -31.0721   13.1150  -13.6517 C   0  0  0  0  0  0  0  0  0  0  0  0
  -31.4941   11.8954  -13.1324 C   0  0  0  0  0  0  0  0  0  0  0  0
  -31.6691   10.8163  -14.0002 C   0  0  0  0  0  0  0  0  0  0  0  0
  -31.4312   10.9429  -15.3690 C   0  0  0  0  0  0  0  0  0  0  0  0
 20 19  1  0  0  0
  2  3  1  0  0  0
  2  1  1  0  0  0
 19 18  2  0  0  0
 19 21  1  0  0  0
 18 17  1  0  0  0
  3  6  1  0  0  0
  7  1  1  0  0  0
  7  8  1  0  0  0
  1  4  1  0  0  0
 21 22  2  0  0  0
 17 16  2  0  0  0
  9  8  1  0  0  0
  9 10  1  0  0  0
 22 16  1  0  0  0
 16 15  1  0  0  0
  6 15  1  0  0  0
  6  5  1  0  0  0
 10 12  1  0  0  0
 15 23  1  0  0  0
  4  5  1  0  0  0
 13 12  2  0  0  0
 12 11  1  0  0  0
 23 28  2  0  0  0
 23 24  1  0  0  0
 28 27  1  0  0  0
 24 25  2  0  0  0
 27 26  2  0  0  0
 25 26  1  0  0  0
 11 14  1  0  0  0
M  END
> <minimizedAffinity>
-6.73203

$$$$
5DQF_CZE_A_613


 28 30  0  0  0  0  0  0  0  0999 V2000
  -26.4384   13.4313  -17.9480 N   0  0  0  0  0  0  0  0  0  0  0  0
  -26.8831   12.3325  -17.0943 C   0  0  0  0  0  0  0  0  0  0  0  0
  -28.3518   12.5206  -16.6909 C   0  0  0  0  0  0  0  0  0  0  0  0
  -27.3414   13.5104  -19.1144 C   0  0  0  0  0  0  0  0  0  0  0  0
  -28.8009   13.5484  -18.7589 C   0  0  0  0  0  0  0  0  0  0  0  0
  -29.1193   12.4367  -17.9117 N   0  0  0  0  0  0  0  0  0  0  0  0
  -25.0305   13.2211  -18.3849 C   0  0  0  0  0  0  0  0  0  0  0  0
  -24.1647   14.4082  -18.0172 C   0  0  0  0  0  0  0  0  0  0  0  0
  -24.2965   14.6595  -16.6033 O   0  0  0  0  0  0  0  0  0  0  0  0
  -23.6440   13.7573  -15.6747 C   0  0  0  0  0  0  0  0  0  0  0  0
  -25.6428   14.2300  -14.5157 O   0  0  0  0  0  0  0  0  0  0  0  0
  -24.5346   13.6566  -14.4497 C   0  0  0  0  0  0  0  0  0  0  0  0
  -24.1157   12.9969  -13.4715 O   0  0  0  0  0  0  0  0  0  0  0  0
  -25.8793   14.7048  -15.2881 H   0  0  0  0  0  0  0  0  0  0  0  0
  -30.6158   12.5448  -17.5260 C   0  0  0  0  0  0  0  0  0  0  0  0
  -30.8969   12.3509  -16.0408 C   0  0  0  0  0  0  0  0  0  0  0  0
  -31.1977   11.0779  -15.5442 C   0  0  0  0  0  0  0  0  0  0  0  0
  -31.4389   10.9045  -14.1787 C   0  0  0  0  0  0  0  0  0  0  0  0
  -31.3779   12.0034  -13.3129 C   0  0  0  0  0  0  0  0  0  0  0  0
  -31.6612   11.8455  -11.6376 Cl  0  0  0  0  0  0  0  0  0  0  0  0
  -31.0779   13.2666  -13.8061 C   0  0  0  0  0  0  0  0  0  0  0  0
  -30.8354   13.4366  -15.1610 C   0  0  0  0  0  0  0  0  0  0  0  0
  -31.5222   11.5910  -18.3148 C   0  0  0  0  0  0  0  0  0  0  0  0
  -31.0253   10.4033  -18.8710 C   0  0  0  0  0  0  0  0  0  0  0  0
  -31.8487    9.5431  -19.6018 C   0  0  0  0  0  0  0  0  0  0  0  0
  -33.1933    9.8528  -19.7799 C   0  0  0  0  0  0  0  0  0  0  0  0
  -33.6933   11.0326  -19.2266 C   0  0  0  0  0  0  0  0  0  0  0  0
  -32.8720   11.8968  -18.5022 C   0  0  0  0  0  0  0  0  0  0  0  0
 20 19  1  0  0  0
  2  3  1  0  0  0
  2  1  1  0  0  0
 19 18  2  0  0  0
 19 21  1  0  0  0
 18 17  1  0  0  0
  3  6  1  0  0  0
  7  1  1  0  0  0
  7  8  1  0  0  0
  1  4  1  0  0  0
 21 22  2  0  0  0
 17 16  2  0  0  0
  9  8  1  0  0  0
  9 10  1  0  0  0
 22 16  1  0  0  0
 16 15  1  0  0  0
  6 15  1  0  0  0
  6  5  1  0  0  0
 10 12  1  0  0  0
 15 23  1  0  0  0
  4  5  1  0  0  0
 13 12  2  0  0  0
 12 11  1  0  0  0
 23 28  2  0  0  0
 23 24  1  0  0  0
 28 27  1  0  0  0
 24 25  2  0  0  0
 27 26  2  0  0  0
 25 26  1  0  0  0
 11 14  1  0  0  0
M  END
> <minimizedAffinity>
-6.58087

$$$$
5DQF_CZE_A_613


 28 30  0  0  0  0  0  0  0  0999 V2000
  -26.3436   13.4874  -17.9740 N   0  0  0  0  0  0  0  0  0  0  0  0
  -26.7862   12.3668  -17.1480 C   0  0  0  0  0  0  0  0  0  0  0  0
  -28.2675   12.5196  -16.7769 C   0  0  0  0  0  0  0  0  0  0  0  0
  -27.2203   13.5670  -19.1603 C   0  0  0  0  0  0  0  0  0  0  0  0
  -28.6883   13.5706  -18.8391 C   0  0  0  0  0  0  0  0  0  0  0  0
  -29.0042   12.4397  -18.0167 N   0  0  0  0  0  0  0  0  0  0  0  0
  -24.9219   13.3118  -18.3804 C   0  0  0  0  0  0  0  0  0  0  0  0
  -24.6655   13.9281  -19.7400 C   0  0  0  0  0  0  0  0  0  0  0  0
  -23.8792   13.0096  -20.5259 O   0  0  0  0  0  0  0  0  0  0  0  0
  -23.0404   13.5422  -21.5818 C   0  0  0  0  0  0  0  0  0  0  0  0
  -23.5491   11.4040  -22.4371 O   0  0  0  0  0  0  0  0  0  0  0  0
  -22.9160   12.4618  -22.6408 C   0  0  0  0  0  0  0  0  0  0  0  0
  -22.2123   12.7044  -23.6475 O   0  0  0  0  0  0  0  0  0  0  0  0
  -24.0536   11.3033  -21.6540 H   0  0  0  0  0  0  0  0  0  0  0  0
  -30.5112   12.5123  -17.6652 C   0  0  0  0  0  0  0  0  0  0  0  0
  -30.8167   12.3714  -16.1789 C   0  0  0  0  0  0  0  0  0  0  0  0
  -31.1354   11.1185  -15.6440 C   0  0  0  0  0  0  0  0  0  0  0  0
  -31.3989   10.9936  -14.2772 C   0  0  0  0  0  0  0  0  0  0  0  0
  -31.3423   12.1209  -13.4485 C   0  0  0  0  0  0  0  0  0  0  0  0
  -31.6525   12.0225  -11.7735 Cl  0  0  0  0  0  0  0  0  0  0  0  0
  -31.0244   13.3642  -13.9797 C   0  0  0  0  0  0  0  0  0  0  0  0
  -30.7598   13.4860  -15.3356 C   0  0  0  0  0  0  0  0  0  0  0  0
  -31.3683   11.4955  -18.4300 C   0  0  0  0  0  0  0  0  0  0  0  0
  -32.7496   11.6780  -18.5908 C   0  0  0  0  0  0  0  0  0  0  0  0
  -33.5312   10.7436  -19.2749 C   0  0  0  0  0  0  0  0  0  0  0  0
  -32.9390    9.6101  -19.8224 C   0  0  0  0  0  0  0  0  0  0  0  0
  -31.5643    9.4247  -19.6671 C   0  0  0  0  0  0  0  0  0  0  0  0
  -30.7824   10.3526  -18.9788 C   0  0  0  0  0  0  0  0  0  0  0  0
 20 19  1  0  0  0
  2  3  1  0  0  0
  2  1  1  0  0  0
 19 18  2  0  0  0
 19 21  1  0  0  0
 18 17  1  0  0  0
  3  6  1  0  0  0
  7  1  1  0  0  0
  7  8  1  0  0  0
  1  4  1  0  0  0
 21 22  2  0  0  0
 17 16  2  0  0  0
  9  8  1  0  0  0
  9 10  1  0  0  0
 22 16  1  0  0  0
 16 15  1  0  0  0
  6 15  1  0  0  0
  6  5  1  0  0  0
 10 12  1  0  0  0
 15 23  1  0  0  0
  4  5  1  0  0  0
 13 12  2  0  0  0
 12 11  1  0  0  0
 23 28  2  0  0  0
 23 24  1  0  0  0
 28 27  1  0  0  0
 24 25  2  0  0  0
 27 26  2  0  0  0
 25 26  1  0  0  0
 11 14  1  0  0  0
M  END
> <minimizedAffinity>
-6.52868

$$$$
5DQF_CZE_A_613


 28 30  0  0  0  0  0  0  0  0999 V2000
  -26.8105   13.0696  -18.9441 N   0  0  0  0  0  0  0  0  0  0  0  0
  -27.9592   13.8278  -19.4335 C   0  0  0  0  0  0  0  0  0  0  0  0
  -29.2630   13.0586  -19.1812 C   0  0  0  0  0  0  0  0  0  0  0  0
  -27.0247   12.7701  -17.5135 C   0  0  0  0  0  0  0  0  0  0  0  0
  -28.3581   12.1472  -17.2101 C   0  0  0  0  0  0  0  0  0  0  0  0
  -29.4054   12.9658  -17.7468 N   0  0  0  0  0  0  0  0  0  0  0  0
  -25.5508   13.8395  -19.1384 C   0  0  0  0  0  0  0  0  0  0  0  0
  -24.5039   13.4336  -18.1218 C   0  0  0  0  0  0  0  0  0  0  0  0
  -23.8998   12.1948  -18.5460 O   0  0  0  0  0  0  0  0  0  0  0  0
  -22.4562   12.1320  -18.6646 C   0  0  0  0  0  0  0  0  0  0  0  0
  -22.6538   10.8270  -20.6190 O   0  0  0  0  0  0  0  0  0  0  0  0
  -22.1291   10.8990  -19.4873 C   0  0  0  0  0  0  0  0  0  0  0  0
  -21.3484   10.0537  -18.9939 O   0  0  0  0  0  0  0  0  0  0  0  0
  -23.2291   11.5057  -20.9128 H   0  0  0  0  0  0  0  0  0  0  0  0
  -30.7551   12.2614  -17.4603 C   0  0  0  0  0  0  0  0  0  0  0  0
  -31.9705   12.9721  -18.0436 C   0  0  0  0  0  0  0  0  0  0  0  0
  -33.0005   12.2310  -18.6330 C   0  0  0  0  0  0  0  0  0  0  0  0
  -34.1195   12.8880  -19.1517 C   0  0  0  0  0  0  0  0  0  0  0  0
  -34.2068   14.2837  -19.0792 C   0  0  0  0  0  0  0  0  0  0  0  0
  -35.5520   15.1341  -19.6946 Cl  0  0  0  0  0  0  0  0  0  0  0  0
  -33.1847   15.0188  -18.4927 C   0  0  0  0  0  0  0  0  0  0  0  0
  -32.0764   14.3652  -17.9753 C   0  0  0  0  0  0  0  0  0  0  0  0
  -31.0130   12.0152  -15.9683 C   0  0  0  0  0  0  0  0  0  0  0  0
  -31.4713   10.7749  -15.5007 C   0  0  0  0  0  0  0  0  0  0  0  0
  -31.7198   10.5569  -14.1432 C   0  0  0  0  0  0  0  0  0  0  0  0
  -31.5023   11.5784  -13.2241 C   0  0  0  0  0  0  0  0  0  0  0  0
  -31.0443   12.8141  -13.6840 C   0  0  0  0  0  0  0  0  0  0  0  0
  -30.8017   13.0368  -15.0396 C   0  0  0  0  0  0  0  0  0  0  0  0
 20 19  1  0  0  0
  2  3  1  0  0  0
  2  1  1  0  0  0
 19 18  2  0  0  0
 19 21  1  0  0  0
 18 17  1  0  0  0
  3  6  1  0  0  0
  7  1  1  0  0  0
  7  8  1  0  0  0
  1  4  1  0  0  0
 21 22  2  0  0  0
 17 16  2  0  0  0
  9  8  1  0  0  0
  9 10  1  0  0  0
 22 16  1  0  0  0
 16 15  1  0  0  0
  6 15  1  0  0  0
  6  5  1  0  0  0
 10 12  1  0  0  0
 15 23  1  0  0  0
  4  5  1  0  0  0
 13 12  2  0  0  0
 12 11  1  0  0  0
 23 28  2  0  0  0
 23 24  1  0  0  0
 28 27  1  0  0  0
 24 25  2  0  0  0
 27 26  2  0  0  0
 25 26  1  0  0  0
 11 14  1  0  0  0
M  END
> <minimizedAffinity>
-6.51750

$$$$
5DQF_CZE_A_613


 28 30  0  0  0  0  0  0  0  0999 V2000
  -27.0587   13.1692  -19.2437 N   0  0  0  0  0  0  0  0  0  0  0  0
  -28.0648   14.1919  -19.5189 C   0  0  0  0  0  0  0  0  0  0  0  0
  -29.4671   13.6824  -19.1595 C   0  0  0  0  0  0  0  0  0  0  0  0
  -27.1720   12.7736  -17.8249 C   0  0  0  0  0  0  0  0  0  0  0  0
  -28.5660   12.4074  -17.3997 C   0  0  0  0  0  0  0  0  0  0  0  0
  -29.4660   13.4730  -17.7303 N   0  0  0  0  0  0  0  0  0  0  0  0
  -25.6926   13.6824  -19.5401 C   0  0  0  0  0  0  0  0  0  0  0  0
  -25.6115   15.1768  -19.3075 C   0  0  0  0  0  0  0  0  0  0  0  0
  -24.7508   15.7570  -20.3087 O   0  0  0  0  0  0  0  0  0  0  0  0
  -24.6830   15.1287  -21.6136 C   0  0  0  0  0  0  0  0  0  0  0  0
  -25.9584   16.8765  -22.5519 O   0  0  0  0  0  0  0  0  0  0  0  0
  -25.8664   15.6378  -22.4162 C   0  0  0  0  0  0  0  0  0  0  0  0
  -26.6534   14.7938  -22.9020 O   0  0  0  0  0  0  0  0  0  0  0  0
  -25.3243   17.4398  -22.1537 H   0  0  0  0  0  0  0  0  0  0  0  0
  -30.8951   13.0325  -17.3259 C   0  0  0  0  0  0  0  0  0  0  0  0
  -31.0477   12.6712  -15.8534 C   0  0  0  0  0  0  0  0  0  0  0  0
  -30.8264   13.6387  -14.8672 C   0  0  0  0  0  0  0  0  0  0  0  0
  -30.9835   13.3049  -13.5193 C   0  0  0  0  0  0  0  0  0  0  0  0
  -31.3624   12.0054  -13.1605 C   0  0  0  0  0  0  0  0  0  0  0  0
  -31.5706   11.5470  -11.5301 Cl  0  0  0  0  0  0  0  0  0  0  0  0
  -31.5834   11.0458  -14.1399 C   0  0  0  0  0  0  0  0  0  0  0  0
  -31.4304   11.3795  -15.4772 C   0  0  0  0  0  0  0  0  0  0  0  0
  -31.4375   11.8681  -18.1647 C   0  0  0  0  0  0  0  0  0  0  0  0
  -32.7580   11.8607  -18.6374 C   0  0  0  0  0  0  0  0  0  0  0  0
  -33.2548   10.7926  -19.3886 C   0  0  0  0  0  0  0  0  0  0  0  0
  -32.4311    9.7130  -19.6908 C   0  0  0  0  0  0  0  0  0  0  0  0
  -31.1155    9.7163  -19.2245 C   0  0  0  0  0  0  0  0  0  0  0  0
  -30.6186   10.7783  -18.4685 C   0  0  0  0  0  0  0  0  0  0  0  0
 20 19  1  0  0  0
  2  3  1  0  0  0
  2  1  1  0  0  0
 19 18  2  0  0  0
 19 21  1  0  0  0
 18 17  1  0  0  0
  3  6  1  0  0  0
  7  1  1  0  0  0
  7  8  1  0  0  0
  1  4  1  0  0  0
 21 22  2  0  0  0
 17 16  2  0  0  0
  9  8  1  0  0  0
  9 10  1  0  0  0
 22 16  1  0  0  0
 16 15  1  0  0  0
  6 15  1  0  0  0
  6  5  1  0  0  0
 10 12  1  0  0  0
 15 23  1  0  0  0
  4  5  1  0  0  0
 13 12  2  0  0  0
 12 11  1  0  0  0
 23 28  2  0  0  0
 23 24  1  0  0  0
 28 27  1  0  0  0
 24 25  2  0  0  0
 27 26  2  0  0  0
 25 26  1  0  0  0
 11 14  1  0  0  0
M  END
> <minimizedAffinity>
-6.45751

$$$$
