5TH4_BEW_A_302


 10 10  0  0  0  0  0  0  0  0999 V2000
   -7.1901    1.2413   17.4265 C   0  0  0  0  0  0  0  0  0  0  0  0
   -7.3293    2.5814   17.2775 C   0  0  0  0  0  0  0  0  0  0  0  0
   -6.3175    3.3108   16.7811 C   0  0  0  0  0  0  0  0  0  0  0  0
   -4.9674    1.3725   16.5553 N   0  0  0  0  0  0  0  0  0  0  0  0
   -3.8275    0.7797   16.2097 O   0  0  0  0  0  0  0  0  0  0  0  0
   -6.0048    0.6246   17.0647 C   0  0  0  0  0  0  0  0  0  0  0  0
   -5.1026    2.6784   16.4117 C   0  0  0  0  0  0  0  0  0  0  0  0
   -3.7987    3.6183   15.7729 S   0  0  0  0  0  0  0  0  0  0  0  0
   -3.7316   -0.1468   16.3115 H   0  0  0  0  0  0  0  0  0  0  0  0
   -4.1670    4.9263   15.7182 H   0  0  0  0  0  0  0  0  0  0  0  0
  1  2  2  0  0  0
  1  6  1  0  0  0
  2  3  1  0  0  0
  3  7  2  0  0  0
  4  5  1  0  0  0
  4  6  2  0  0  0
  4  7  1  0  0  0
  7  8  1  0  0  0
  5  9  1  0  0  0
  8 10  1  0  0  0
M  CHG 1   4   1
M  END
> <minimizedAffinity>
-5.07431

$$$$
5TH4_BEW_A_302


 10 10  0  0  0  0  0  0  0  0999 V2000
   -4.9618    4.6732   15.7457 C   0  0  0  0  0  0  0  0  0  0  0  0
   -6.1985    4.5853   16.2935 C   0  0  0  0  0  0  0  0  0  0  0  0
   -6.6169    3.4257   16.8251 C   0  0  0  0  0  0  0  0  0  0  0  0
   -4.5581    2.3783   16.2817 N   0  0  0  0  0  0  0  0  0  0  0  0
   -3.7585    1.3150   16.2705 O   0  0  0  0  0  0  0  0  0  0  0  0
   -4.1293    3.5673   15.7363 C   0  0  0  0  0  0  0  0  0  0  0  0
   -5.7638    2.2924   16.8140 C   0  0  0  0  0  0  0  0  0  0  0  0
   -6.3032    0.7982   17.4981 S   0  0  0  0  0  0  0  0  0  0  0  0
   -2.9031    1.3760   15.8930 H   0  0  0  0  0  0  0  0  0  0  0  0
   -7.5654    0.9502   17.9811 H   0  0  0  0  0  0  0  0  0  0  0  0
  1  2  2  0  0  0
  1  6  1  0  0  0
  2  3  1  0  0  0
  3  7  2  0  0  0
  4  5  1  0  0  0
  4  6  2  0  0  0
  4  7  1  0  0  0
  7  8  1  0  0  0
  5  9  1  0  0  0
  8 10  1  0  0  0
M  CHG 1   4   1
M  END
> <minimizedAffinity>
-4.84248

$$$$
5TH4_BEW_A_302


 10 10  0  0  0  0  0  0  0  0999 V2000
   -6.7467    3.4801   17.4987 C   0  0  0  0  0  0  0  0  0  0  0  0
   -6.1644    3.8503   16.3319 C   0  0  0  0  0  0  0  0  0  0  0  0
   -5.4762    2.9517   15.6099 C   0  0  0  0  0  0  0  0  0  0  0  0
   -5.9280    1.2531   17.2041 N   0  0  0  0  0  0  0  0  0  0  0  0
   -5.8173   -0.0011   17.6342 O   0  0  0  0  0  0  0  0  0  0  0  0
   -6.6333    2.1746   17.9446 C   0  0  0  0  0  0  0  0  0  0  0  0
   -5.3593    1.6143   16.0681 C   0  0  0  0  0  0  0  0  0  0  0  0
   -4.4719    0.4569   15.1383 S   0  0  0  0  0  0  0  0  0  0  0  0
   -6.2208   -0.2573   18.4401 H   0  0  0  0  0  0  0  0  0  0  0  0
   -3.9818    1.0543   14.0192 H   0  0  0  0  0  0  0  0  0  0  0  0
  1  2  2  0  0  0
  1  6  1  0  0  0
  2  3  1  0  0  0
  3  7  2  0  0  0
  4  5  1  0  0  0
  4  6  2  0  0  0
  4  7  1  0  0  0
  7  8  1  0  0  0
  5  9  1  0  0  0
  8 10  1  0  0  0
M  CHG 1   4   1
M  END
> <minimizedAffinity>
-4.57088

$$$$
5TH4_BEW_A_302


 10 10  0  0  0  0  0  0  0  0999 V2000
   -6.7625    3.1322   16.4754 C   0  0  0  0  0  0  0  0  0  0  0  0
   -6.4863    4.4528   16.3449 C   0  0  0  0  0  0  0  0  0  0  0  0
   -5.2146    4.8638   16.2180 C   0  0  0  0  0  0  0  0  0  0  0  0
   -4.4289    2.6284   16.3453 N   0  0  0  0  0  0  0  0  0  0  0  0
   -3.4393    1.7390   16.3480 O   0  0  0  0  0  0  0  0  0  0  0  0
   -5.7329    2.2070   16.4758 C   0  0  0  0  0  0  0  0  0  0  0  0
   -4.1598    3.9153   16.2199 C   0  0  0  0  0  0  0  0  0  0  0  0
   -2.5213    4.4449   16.0572 S   0  0  0  0  0  0  0  0  0  0  0  0
   -3.6302    0.8260   16.4370 H   0  0  0  0  0  0  0  0  0  0  0  0
   -2.4920    5.7998   15.9436 H   0  0  0  0  0  0  0  0  0  0  0  0
  1  2  2  0  0  0
  1  6  1  0  0  0
  2  3  1  0  0  0
  3  7  2  0  0  0
  4  5  1  0  0  0
  4  6  2  0  0  0
  4  7  1  0  0  0
  7  8  1  0  0  0
  5  9  1  0  0  0
  8 10  1  0  0  0
M  CHG 1   4   1
M  END
> <minimizedAffinity>
-4.51685

$$$$
5TH4_BEW_A_302


 10 10  0  0  0  0  0  0  0  0999 V2000
   -1.7847    6.4425   17.5046 C   0  0  0  0  0  0  0  0  0  0  0  0
   -3.0266    6.9715   17.3818 C   0  0  0  0  0  0  0  0  0  0  0  0
   -4.0471    6.2017   16.9713 C   0  0  0  0  0  0  0  0  0  0  0  0
   -2.6155    4.3181   16.7882 N   0  0  0  0  0  0  0  0  0  0  0  0
   -2.4075    3.0356   16.5016 O   0  0  0  0  0  0  0  0  0  0  0  0
   -1.5691    5.1076   17.2087 C   0  0  0  0  0  0  0  0  0  0  0  0
   -3.8253    4.8341   16.6669 C   0  0  0  0  0  0  0  0  0  0  0  0
   -5.1398    3.8426   16.1374 S   0  0  0  0  0  0  0  0  0  0  0  0
   -1.5493    2.6695   16.5877 H   0  0  0  0  0  0  0  0  0  0  0  0
   -6.2777    4.5860   16.0894 H   0  0  0  0  0  0  0  0  0  0  0  0
  1  2  2  0  0  0
  1  6  1  0  0  0
  2  3  1  0  0  0
  3  7  2  0  0  0
  4  5  1  0  0  0
  4  6  2  0  0  0
  4  7  1  0  0  0
  7  8  1  0  0  0
  5  9  1  0  0  0
  8 10  1  0  0  0
M  CHG 1   4   1
M  END
> <minimizedAffinity>
-4.47605

$$$$
5TH4_BEW_A_302


 10 10  0  0  0  0  0  0  0  0999 V2000
   -4.5530    5.7916   16.1464 C   0  0  0  0  0  0  0  0  0  0  0  0
   -5.7613    5.2443   15.8675 C   0  0  0  0  0  0  0  0  0  0  0  0
   -5.8938    3.9104   15.7937 C   0  0  0  0  0  0  0  0  0  0  0  0
   -3.5916    3.6066   16.2821 N   0  0  0  0  0  0  0  0  0  0  0  0
   -2.5362    2.8215   16.4826 O   0  0  0  0  0  0  0  0  0  0  0  0
   -3.4557    4.9744   16.3574 C   0  0  0  0  0  0  0  0  0  0  0  0
   -4.7687    3.0736   16.0086 C   0  0  0  0  0  0  0  0  0  0  0  0
   -4.9391    1.3551   15.9127 S   0  0  0  0  0  0  0  0  0  0  0  0
   -1.7012    3.1997   16.6767 H   0  0  0  0  0  0  0  0  0  0  0  0
   -6.2306    1.0432   15.6220 H   0  0  0  0  0  0  0  0  0  0  0  0
  1  2  2  0  0  0
  1  6  1  0  0  0
  2  3  1  0  0  0
  3  7  2  0  0  0
  4  5  1  0  0  0
  4  6  2  0  0  0
  4  7  1  0  0  0
  7  8  1  0  0  0
  5  9  1  0  0  0
  8 10  1  0  0  0
M  CHG 1   4   1
M  END
> <minimizedAffinity>
-4.39224

$$$$
5TH4_BEW_A_302


 10 10  0  0  0  0  0  0  0  0999 V2000
   -2.3563    6.1659   18.2183 C   0  0  0  0  0  0  0  0  0  0  0  0
   -3.3937    6.8602   17.6900 C   0  0  0  0  0  0  0  0  0  0  0  0
   -3.7526    6.6628   16.4115 C   0  0  0  0  0  0  0  0  0  0  0  0
   -2.0364    5.0486   16.1288 N   0  0  0  0  0  0  0  0  0  0  0  0
   -1.3733    4.1711   15.3800 O   0  0  0  0  0  0  0  0  0  0  0  0
   -1.6682    5.2514   17.4396 C   0  0  0  0  0  0  0  0  0  0  0  0
   -3.0461    5.7264   15.6137 C   0  0  0  0  0  0  0  0  0  0  0  0
   -3.5080    5.4726   13.9664 S   0  0  0  0  0  0  0  0  0  0  0  0
   -0.6569    3.6902   15.7455 H   0  0  0  0  0  0  0  0  0  0  0  0
   -4.5634    6.2748   13.6627 H   0  0  0  0  0  0  0  0  0  0  0  0
  1  2  2  0  0  0
  1  6  1  0  0  0
  2  3  1  0  0  0
  3  7  2  0  0  0
  4  5  1  0  0  0
  4  6  2  0  0  0
  4  7  1  0  0  0
  7  8  1  0  0  0
  5  9  1  0  0  0
  8 10  1  0  0  0
M  CHG 1   4   1
M  END
> <minimizedAffinity>
-4.34792

$$$$
5TH4_BEW_A_302


 10 10  0  0  0  0  0  0  0  0999 V2000
   -6.7906    2.5180   17.2479 C   0  0  0  0  0  0  0  0  0  0  0  0
   -6.8481    3.8094   16.8398 C   0  0  0  0  0  0  0  0  0  0  0  0
   -6.1408    4.2082   15.7707 C   0  0  0  0  0  0  0  0  0  0  0  0
   -5.2790    2.0186   15.4640 N   0  0  0  0  0  0  0  0  0  0  0  0
   -4.5212    1.1459   14.8049 O   0  0  0  0  0  0  0  0  0  0  0  0
   -6.0040    1.6098   16.5605 C   0  0  0  0  0  0  0  0  0  0  0  0
   -5.3337    3.2773   15.0675 C   0  0  0  0  0  0  0  0  0  0  0  0
   -4.4219    3.7912   13.6906 S   0  0  0  0  0  0  0  0  0  0  0  0
   -4.4824    0.2529   15.0862 H   0  0  0  0  0  0  0  0  0  0  0  0
   -4.6348    5.1170   13.4750 H   0  0  0  0  0  0  0  0  0  0  0  0
  1  2  2  0  0  0
  1  6  1  0  0  0
  2  3  1  0  0  0
  3  7  2  0  0  0
  4  5  1  0  0  0
  4  6  2  0  0  0
  4  7  1  0  0  0
  7  8  1  0  0  0
  5  9  1  0  0  0
  8 10  1  0  0  0
M  CHG 1   4   1
M  END
> <minimizedAffinity>
-4.17324

$$$$
5TH4_BEW_A_302


 10 10  0  0  0  0  0  0  0  0999 V2000
   -4.4166    0.6653   12.5355 C   0  0  0  0  0  0  0  0  0  0  0  0
   -4.6881    1.9927   12.4942 C   0  0  0  0  0  0  0  0  0  0  0  0
   -4.9305    2.6645   13.6309 C   0  0  0  0  0  0  0  0  0  0  0  0
   -4.6355    0.6918   14.9163 N   0  0  0  0  0  0  0  0  0  0  0  0
   -4.6096    0.0543   16.0839 O   0  0  0  0  0  0  0  0  0  0  0  0
   -4.3873    0.0028   13.7506 C   0  0  0  0  0  0  0  0  0  0  0  0
   -4.9017    1.9848   14.8757 C   0  0  0  0  0  0  0  0  0  0  0  0
   -5.2149    2.8502   16.3401 S   0  0  0  0  0  0  0  0  0  0  0  0
   -4.4207   -0.8631   16.1127 H   0  0  0  0  0  0  0  0  0  0  0  0
   -5.4613    4.1561   16.0512 H   0  0  0  0  0  0  0  0  0  0  0  0
  1  2  2  0  0  0
  1  6  1  0  0  0
  2  3  1  0  0  0
  3  7  2  0  0  0
  4  5  1  0  0  0
  4  6  2  0  0  0
  4  7  1  0  0  0
  7  8  1  0  0  0
  5  9  1  0  0  0
  8 10  1  0  0  0
M  CHG 1   4   1
M  END
> <minimizedAffinity>
-4.07945

$$$$
5TH4_BEW_A_302


 10 10  0  0  0  0  0  0  0  0999 V2000
   -4.9624    4.6135   14.8959 C   0  0  0  0  0  0  0  0  0  0  0  0
   -5.2106    5.4755   15.9120 C   0  0  0  0  0  0  0  0  0  0  0  0
   -4.2103    5.8758   16.7129 C   0  0  0  0  0  0  0  0  0  0  0  0
   -2.6507    4.5582   15.5037 N   0  0  0  0  0  0  0  0  0  0  0  0
   -1.4152    4.1082   15.2999 O   0  0  0  0  0  0  0  0  0  0  0  0
   -3.6765    4.1475   14.6827 C   0  0  0  0  0  0  0  0  0  0  0  0
   -2.8930    5.3968   16.4948 C   0  0  0  0  0  0  0  0  0  0  0  0
   -1.6043    5.9119   17.5271 S   0  0  0  0  0  0  0  0  0  0  0  0
   -1.2433    3.5133   14.5968 H   0  0  0  0  0  0  0  0  0  0  0  0
   -2.0902    6.7666   18.4668 H   0  0  0  0  0  0  0  0  0  0  0  0
  1  2  2  0  0  0
  1  6  1  0  0  0
  2  3  1  0  0  0
  3  7  2  0  0  0
  4  5  1  0  0  0
  4  6  2  0  0  0
  4  7  1  0  0  0
  7  8  1  0  0  0
  5  9  1  0  0  0
  8 10  1  0  0  0
M  CHG 1   4   1
M  END
> <minimizedAffinity>
-4.04531

$$$$
