2VMC_NGA_A_505


 20 20  0  0  0  0  0  0  0  0999 V2000
   11.0066    9.6981  123.4971 C   0  0  0  0  0  0  0  0  0  0  0  0
   11.1533    9.1382  122.0842 C   0  0  0  0  0  0  0  0  0  0  0  0
   10.1633    9.8399  121.1220 C   0  0  0  0  0  0  0  0  0  0  0  0
    8.7297    9.7865  121.6655 C   0  0  0  0  0  0  0  0  0  0  0  0
    8.7364   10.2605  123.1340 C   0  0  0  0  0  0  0  0  0  0  0  0
   11.8973    9.0163  124.3845 O   0  0  0  0  0  0  0  0  0  0  0  0
   10.2041    9.3064  119.7852 O   0  0  0  0  0  0  0  0  0  0  0  0
    8.1990    8.4635  121.5620 O   0  0  0  0  0  0  0  0  0  0  0  0
    9.6646    9.5397  123.9570 O   0  0  0  0  0  0  0  0  0  0  0  0
   11.6772    8.0717  124.4007 H   0  0  0  0  0  0  0  0  0  0  0  0
    9.9215    8.3786  119.7986 H   0  0  0  0  0  0  0  0  0  0  0  0
    8.7479    7.8535  122.0791 H   0  0  0  0  0  0  0  0  0  0  0  0
   13.4319    8.3344  121.7625 C   0  0  0  0  0  0  0  0  0  0  0  0
   14.8032    8.6657  121.2327 C   0  0  0  0  0  0  0  0  0  0  0  0
   12.5179    9.3023  121.5934 N   0  0  0  0  0  0  0  0  0  0  0  0
   13.1593    7.2625  122.3121 O   0  0  0  0  0  0  0  0  0  0  0  0
   12.7714   10.1343  121.1321 H   0  0  0  0  0  0  0  0  0  0  0  0
    7.3527   10.1771  123.7661 C   0  0  0  0  0  0  0  0  0  0  0  0
    7.3228    8.9733  124.5618 O   0  0  0  0  0  0  0  0  0  0  0  0
    7.5026    8.2067  123.9953 H   0  0  0  0  0  0  0  0  0  0  0  0
  1  2  1  0  0  0
  1  6  1  0  0  0
  1  9  1  0  0  0
  2  3  1  0  0  0
  2 15  1  0  0  0
  3  4  1  0  0  0
  3  7  1  0  0  0
  4  5  1  0  0  0
  4  8  1  0  0  0
  5 18  1  0  0  0
  5  9  1  0  0  0
 18 19  1  0  0  0
 13 14  1  0  0  0
 13 15  1  0  0  0
 13 16  2  0  0  0
 15 17  1  0  0  0
  6 10  1  0  0  0
  7 11  1  0  0  0
  8 12  1  0  0  0
 19 20  1  0  0  0
M  END
> <minimizedAffinity>
-5.33979

$$$$
2VMC_NGA_A_505


 20 20  0  0  0  0  0  0  0  0999 V2000
    9.1390    9.5790  122.0732 C   0  0  0  0  0  0  0  0  0  0  0  0
    8.6720   10.0333  123.4542 C   0  0  0  0  0  0  0  0  0  0  0  0
    9.7754   10.8707  124.1467 C   0  0  0  0  0  0  0  0  0  0  0  0
   11.1142   10.1218  124.1591 C   0  0  0  0  0  0  0  0  0  0  0  0
   11.4116    9.6106  122.7338 C   0  0  0  0  0  0  0  0  0  0  0  0
    8.1284    8.7744  121.4592 O   0  0  0  0  0  0  0  0  0  0  0  0
    9.4219   11.2713  125.4837 O   0  0  0  0  0  0  0  0  0  0  0  0
   11.0781    9.0376  125.0896 O   0  0  0  0  0  0  0  0  0  0  0  0
   10.3462    8.8249  122.1808 O   0  0  0  0  0  0  0  0  0  0  0  0
    7.9642    7.9895  122.0050 H   0  0  0  0  0  0  0  0  0  0  0  0
    9.3214   10.4839  126.0413 H   0  0  0  0  0  0  0  0  0  0  0  0
   10.3790    8.4155  124.8343 H   0  0  0  0  0  0  0  0  0  0  0  0
    6.4529   10.6510  124.2514 C   0  0  0  0  0  0  0  0  0  0  0  0
    5.2367   11.5057  124.0033 C   0  0  0  0  0  0  0  0  0  0  0  0
    7.4437   10.8162  123.3617 N   0  0  0  0  0  0  0  0  0  0  0  0
    6.5415    9.8569  125.1932 O   0  0  0  0  0  0  0  0  0  0  0  0
    7.3407   11.4744  122.6369 H   0  0  0  0  0  0  0  0  0  0  0  0
   12.7001    8.7998  122.6765 C   0  0  0  0  0  0  0  0  0  0  0  0
   12.3362    7.4140  122.8500 O   0  0  0  0  0  0  0  0  0  0  0  0
   11.8828    7.3028  123.7003 H   0  0  0  0  0  0  0  0  0  0  0  0
  1  2  1  0  0  0
  1  6  1  0  0  0
  1  9  1  0  0  0
  2  3  1  0  0  0
  2 15  1  0  0  0
  3  4  1  0  0  0
  3  7  1  0  0  0
  4  5  1  0  0  0
  4  8  1  0  0  0
  5 18  1  0  0  0
  5  9  1  0  0  0
 18 19  1  0  0  0
 13 14  1  0  0  0
 13 15  1  0  0  0
 13 16  2  0  0  0
 15 17  1  0  0  0
  6 10  1  0  0  0
  7 11  1  0  0  0
  8 12  1  0  0  0
 19 20  1  0  0  0
M  END
> <minimizedAffinity>
-5.07931

$$$$
2VMC_NGA_A_505


 20 20  0  0  0  0  0  0  0  0999 V2000
   11.1740   10.1904  120.8044 C   0  0  0  0  0  0  0  0  0  0  0  0
   10.7691    9.4652  122.0857 C   0  0  0  0  0  0  0  0  0  0  0  0
   11.9396    9.4705  123.0998 C   0  0  0  0  0  0  0  0  0  0  0  0
   13.2276    8.9334  122.4627 C   0  0  0  0  0  0  0  0  0  0  0  0
   13.4587    9.6585  121.1203 C   0  0  0  0  0  0  0  0  0  0  0  0
   10.1001   10.1455  119.8610 O   0  0  0  0  0  0  0  0  0  0  0  0
   11.6435    8.7401  124.3047 O   0  0  0  0  0  0  0  0  0  0  0  0
   13.1437    7.5201  122.2678 O   0  0  0  0  0  0  0  0  0  0  0  0
   12.3326    9.5817  120.2346 O   0  0  0  0  0  0  0  0  0  0  0  0
    9.8986    9.2217  119.6442 H   0  0  0  0  0  0  0  0  0  0  0  0
   11.5057    7.8042  124.0899 H   0  0  0  0  0  0  0  0  0  0  0  0
   12.4005    7.3185  121.6780 H   0  0  0  0  0  0  0  0  0  0  0  0
    8.3645    9.5875  122.4655 C   0  0  0  0  0  0  0  0  0  0  0  0
    7.2484   10.3533  123.1282 C   0  0  0  0  0  0  0  0  0  0  0  0
    9.5917   10.0821  122.6885 N   0  0  0  0  0  0  0  0  0  0  0  0
    8.1770    8.5849  121.7690 O   0  0  0  0  0  0  0  0  0  0  0  0
    9.6994   10.8719  123.2664 H   0  0  0  0  0  0  0  0  0  0  0  0
   14.6909    9.1342  120.3940 C   0  0  0  0  0  0  0  0  0  0  0  0
   15.6155    8.6783  121.4042 O   0  0  0  0  0  0  0  0  0  0  0  0
   15.8369    9.4145  121.9957 H   0  0  0  0  0  0  0  0  0  0  0  0
  1  2  1  0  0  0
  1  6  1  0  0  0
  1  9  1  0  0  0
  2  3  1  0  0  0
  2 15  1  0  0  0
  3  4  1  0  0  0
  3  7  1  0  0  0
  4  5  1  0  0  0
  4  8  1  0  0  0
  5 18  1  0  0  0
  5  9  1  0  0  0
 18 19  1  0  0  0
 13 14  1  0  0  0
 13 15  1  0  0  0
 13 16  2  0  0  0
 15 17  1  0  0  0
  6 10  1  0  0  0
  7 11  1  0  0  0
  8 12  1  0  0  0
 19 20  1  0  0  0
M  END
> <minimizedAffinity>
-4.80941

$$$$
2VMC_NGA_A_505


 20 20  0  0  0  0  0  0  0  0999 V2000
    6.6804   11.7221  125.4946 C   0  0  0  0  0  0  0  0  0  0  0  0
    6.1289   10.9115  124.3240 C   0  0  0  0  0  0  0  0  0  0  0  0
    4.7641   11.4845  123.8685 C   0  0  0  0  0  0  0  0  0  0  0  0
    3.7931   11.6093  125.0497 C   0  0  0  0  0  0  0  0  0  0  0  0
    4.5086   12.3367  126.2072 C   0  0  0  0  0  0  0  0  0  0  0  0
    7.9211   11.1609  125.9320 O   0  0  0  0  0  0  0  0  0  0  0  0
    4.1577   10.7194  122.8102 O   0  0  0  0  0  0  0  0  0  0  0  0
    3.3356   10.3209  125.4660 O   0  0  0  0  0  0  0  0  0  0  0  0
    5.7515   11.7237  126.5784 O   0  0  0  0  0  0  0  0  0  0  0  0
    7.7769   10.2482  126.2272 H   0  0  0  0  0  0  0  0  0  0  0  0
    3.9571    9.8262  123.1309 H   0  0  0  0  0  0  0  0  0  0  0  0
    4.0932    9.7833  125.7449 H   0  0  0  0  0  0  0  0  0  0  0  0
    7.9383    9.9062  123.0369 C   0  0  0  0  0  0  0  0  0  0  0  0
    8.8572   10.0632  121.8527 C   0  0  0  0  0  0  0  0  0  0  0  0
    7.0618   10.9088  123.2016 N   0  0  0  0  0  0  0  0  0  0  0  0
    7.9805    8.9382  123.8028 O   0  0  0  0  0  0  0  0  0  0  0  0
    7.0478   11.6525  122.5567 H   0  0  0  0  0  0  0  0  0  0  0  0
    3.6261   12.4451  127.4443 C   0  0  0  0  0  0  0  0  0  0  0  0
    3.9559   11.3293  128.2985 O   0  0  0  0  0  0  0  0  0  0  0  0
    3.7999   10.4995  127.8210 H   0  0  0  0  0  0  0  0  0  0  0  0
  1  2  1  0  0  0
  1  6  1  0  0  0
  1  9  1  0  0  0
  2  3  1  0  0  0
  2 15  1  0  0  0
  3  4  1  0  0  0
  3  7  1  0  0  0
  4  5  1  0  0  0
  4  8  1  0  0  0
  5 18  1  0  0  0
  5  9  1  0  0  0
 18 19  1  0  0  0
 13 14  1  0  0  0
 13 15  1  0  0  0
 13 16  2  0  0  0
 15 17  1  0  0  0
  6 10  1  0  0  0
  7 11  1  0  0  0
  8 12  1  0  0  0
 19 20  1  0  0  0
M  END
> <minimizedAffinity>
-4.76444

$$$$
2VMC_NGA_A_505


 20 20  0  0  0  0  0  0  0  0999 V2000
   11.8984   11.4549  120.4634 C   0  0  0  0  0  0  0  0  0  0  0  0
   11.2663   10.1960  119.8741 C   0  0  0  0  0  0  0  0  0  0  0  0
   10.1552    9.6625  120.8117 C   0  0  0  0  0  0  0  0  0  0  0  0
   10.6762    9.4841  122.2435 C   0  0  0  0  0  0  0  0  0  0  0  0
   11.3976   10.7780  122.6754 C   0  0  0  0  0  0  0  0  0  0  0  0
   12.9487   11.9163  119.6092 O   0  0  0  0  0  0  0  0  0  0  0  0
    9.5663    8.4345  120.3444 O   0  0  0  0  0  0  0  0  0  0  0  0
   11.5567    8.3612  122.3245 O   0  0  0  0  0  0  0  0  0  0  0  0
   12.4264   11.1841  121.7616 O   0  0  0  0  0  0  0  0  0  0  0  0
   13.6314   11.2310  119.5371 H   0  0  0  0  0  0  0  0  0  0  0  0
   10.2394    7.7362  120.3351 H   0  0  0  0  0  0  0  0  0  0  0  0
   12.3146    8.5015  121.7357 H   0  0  0  0  0  0  0  0  0  0  0  0
   11.4037   10.1587  117.4407 C   0  0  0  0  0  0  0  0  0  0  0  0
   10.7121   10.5197  116.1514 C   0  0  0  0  0  0  0  0  0  0  0  0
   10.7107   10.4579  118.5501 N   0  0  0  0  0  0  0  0  0  0  0  0
   12.5197    9.6316  117.4857 O   0  0  0  0  0  0  0  0  0  0  0  0
    9.8154   10.8595  118.4699 H   0  0  0  0  0  0  0  0  0  0  0  0
   11.9995   10.6566  124.0696 C   0  0  0  0  0  0  0  0  0  0  0  0
   11.1458    9.7701  124.8235 O   0  0  0  0  0  0  0  0  0  0  0  0
   10.2474   10.1346  124.8537 H   0  0  0  0  0  0  0  0  0  0  0  0
  1  2  1  0  0  0
  1  6  1  0  0  0
  1  9  1  0  0  0
  2  3  1  0  0  0
  2 15  1  0  0  0
  3  4  1  0  0  0
  3  7  1  0  0  0
  4  5  1  0  0  0
  4  8  1  0  0  0
  5 18  1  0  0  0
  5  9  1  0  0  0
 18 19  1  0  0  0
 13 14  1  0  0  0
 13 15  1  0  0  0
 13 16  2  0  0  0
 15 17  1  0  0  0
  6 10  1  0  0  0
  7 11  1  0  0  0
  8 12  1  0  0  0
 19 20  1  0  0  0
M  END
> <minimizedAffinity>
-4.69166

$$$$
2VMC_NGA_A_505


 20 20  0  0  0  0  0  0  0  0999 V2000
    7.5231   10.0583  123.0305 C   0  0  0  0  0  0  0  0  0  0  0  0
    8.4655   11.2152  123.3548 C   0  0  0  0  0  0  0  0  0  0  0  0
    8.0863   11.8531  124.7141 C   0  0  0  0  0  0  0  0  0  0  0  0
    6.6004   12.2327  124.7532 C   0  0  0  0  0  0  0  0  0  0  0  0
    5.7650   11.0212  124.2890 C   0  0  0  0  0  0  0  0  0  0  0  0
    7.8577    9.5022  121.7560 O   0  0  0  0  0  0  0  0  0  0  0  0
    8.8964   12.9967  125.0444 O   0  0  0  0  0  0  0  0  0  0  0  0
    6.3475   13.3702  123.9257 O   0  0  0  0  0  0  0  0  0  0  0  0
    6.1697   10.5113  123.0105 O   0  0  0  0  0  0  0  0  0  0  0  0
    7.7612   10.1823  121.0711 H   0  0  0  0  0  0  0  0  0  0  0  0
    8.7474   13.6980  124.3911 H   0  0  0  0  0  0  0  0  0  0  0  0
    6.5891   13.1635  123.0093 H   0  0  0  0  0  0  0  0  0  0  0  0
   10.8363   11.5265  122.8818 C   0  0  0  0  0  0  0  0  0  0  0  0
   12.2105   10.9130  122.9621 C   0  0  0  0  0  0  0  0  0  0  0  0
    9.8540   10.7671  123.3906 N   0  0  0  0  0  0  0  0  0  0  0  0
   10.6187   12.6373  122.3878 O   0  0  0  0  0  0  0  0  0  0  0  0
   10.0729    9.8958  123.7935 H   0  0  0  0  0  0  0  0  0  0  0  0
    4.2761   11.3404  124.2412 C   0  0  0  0  0  0  0  0  0  0  0  0
    3.7369   10.6713  123.0815 O   0  0  0  0  0  0  0  0  0  0  0  0
    4.1943   10.9848  122.2856 H   0  0  0  0  0  0  0  0  0  0  0  0
  1  2  1  0  0  0
  1  6  1  0  0  0
  1  9  1  0  0  0
  2  3  1  0  0  0
  2 15  1  0  0  0
  3  4  1  0  0  0
  3  7  1  0  0  0
  4  5  1  0  0  0
  4  8  1  0  0  0
  5 18  1  0  0  0
  5  9  1  0  0  0
 18 19  1  0  0  0
 13 14  1  0  0  0
 13 15  1  0  0  0
 13 16  2  0  0  0
 15 17  1  0  0  0
  6 10  1  0  0  0
  7 11  1  0  0  0
  8 12  1  0  0  0
 19 20  1  0  0  0
M  END
> <minimizedAffinity>
-4.68109

$$$$
2VMC_NGA_A_505


 20 20  0  0  0  0  0  0  0  0999 V2000
    9.3593   11.8385  123.6773 C   0  0  0  0  0  0  0  0  0  0  0  0
    9.5314   10.4978  122.9669 C   0  0  0  0  0  0  0  0  0  0  0  0
    8.1610    9.9695  122.4757 C   0  0  0  0  0  0  0  0  0  0  0  0
    7.1364    9.9406  123.6171 C   0  0  0  0  0  0  0  0  0  0  0  0
    7.1465   11.3094  124.3296 C   0  0  0  0  0  0  0  0  0  0  0  0
   10.6247   12.2978  124.1606 O   0  0  0  0  0  0  0  0  0  0  0  0
    8.2471    8.6721  121.8572 O   0  0  0  0  0  0  0  0  0  0  0  0
    7.4340    8.8879  124.5367 O   0  0  0  0  0  0  0  0  0  0  0  0
    8.4521   11.7075  124.7714 O   0  0  0  0  0  0  0  0  0  0  0  0
   10.9818   11.6551  124.7933 H   0  0  0  0  0  0  0  0  0  0  0  0
    8.5438    8.0208  122.5119 H   0  0  0  0  0  0  0  0  0  0  0  0
    8.3151    9.0298  124.9167 H   0  0  0  0  0  0  0  0  0  0  0  0
   11.2976    9.6231  121.5327 C   0  0  0  0  0  0  0  0  0  0  0  0
   12.2031    9.9078  120.3622 C   0  0  0  0  0  0  0  0  0  0  0  0
   10.4480   10.6160  121.8373 N   0  0  0  0  0  0  0  0  0  0  0  0
   11.3271    8.5654  122.1698 O   0  0  0  0  0  0  0  0  0  0  0  0
   10.4429   11.4353  121.2915 H   0  0  0  0  0  0  0  0  0  0  0  0
    6.1953   11.3396  125.5192 C   0  0  0  0  0  0  0  0  0  0  0  0
    5.1765   10.3477  125.2718 O   0  0  0  0  0  0  0  0  0  0  0  0
    4.7173   10.5556  124.4431 H   0  0  0  0  0  0  0  0  0  0  0  0
  1  2  1  0  0  0
  1  6  1  0  0  0
  1  9  1  0  0  0
  2  3  1  0  0  0
  2 15  1  0  0  0
  3  4  1  0  0  0
  3  7  1  0  0  0
  4  5  1  0  0  0
  4  8  1  0  0  0
  5 18  1  0  0  0
  5  9  1  0  0  0
 18 19  1  0  0  0
 13 14  1  0  0  0
 13 15  1  0  0  0
 13 16  2  0  0  0
 15 17  1  0  0  0
  6 10  1  0  0  0
  7 11  1  0  0  0
  8 12  1  0  0  0
 19 20  1  0  0  0
M  END
> <minimizedAffinity>
-4.64718

$$$$
2VMC_NGA_A_505


 20 20  0  0  0  0  0  0  0  0999 V2000
    9.1935    9.5718  126.0685 C   0  0  0  0  0  0  0  0  0  0  0  0
    7.7699    9.1412  125.7227 C   0  0  0  0  0  0  0  0  0  0  0  0
    7.1336    8.3816  126.9129 C   0  0  0  0  0  0  0  0  0  0  0  0
    8.0339    7.2314  127.3817 C   0  0  0  0  0  0  0  0  0  0  0  0
    9.4669    7.7693  127.5779 C   0  0  0  0  0  0  0  0  0  0  0  0
    9.7848   10.2375  124.9492 O   0  0  0  0  0  0  0  0  0  0  0  0
    5.8126    7.8875  126.6234 O   0  0  0  0  0  0  0  0  0  0  0  0
    8.0193    6.1603  126.4355 O   0  0  0  0  0  0  0  0  0  0  0  0
    9.9845    8.4362  126.4179 O   0  0  0  0  0  0  0  0  0  0  0  0
    9.8192    9.6306  124.1933 H   0  0  0  0  0  0  0  0  0  0  0  0
    5.8615    7.2330  125.9091 H   0  0  0  0  0  0  0  0  0  0  0  0
    8.3471    6.4799  125.5803 H   0  0  0  0  0  0  0  0  0  0  0  0
    6.7129   10.6114  124.0910 C   0  0  0  0  0  0  0  0  0  0  0  0
    5.8705   11.8450  123.8919 C   0  0  0  0  0  0  0  0  0  0  0  0
    6.9433   10.2923  125.3738 N   0  0  0  0  0  0  0  0  0  0  0  0
    7.1628    9.9409  123.1564 O   0  0  0  0  0  0  0  0  0  0  0  0
    6.5494   10.8420  126.0892 H   0  0  0  0  0  0  0  0  0  0  0  0
   10.4380    6.6685  127.9853 C   0  0  0  0  0  0  0  0  0  0  0  0
   10.8546    6.0021  126.7746 O   0  0  0  0  0  0  0  0  0  0  0  0
   10.0772    5.6413  126.3203 H   0  0  0  0  0  0  0  0  0  0  0  0
  1  2  1  0  0  0
  1  6  1  0  0  0
  1  9  1  0  0  0
  2  3  1  0  0  0
  2 15  1  0  0  0
  3  4  1  0  0  0
  3  7  1  0  0  0
  4  5  1  0  0  0
  4  8  1  0  0  0
  5 18  1  0  0  0
  5  9  1  0  0  0
 18 19  1  0  0  0
 13 14  1  0  0  0
 13 15  1  0  0  0
 13 16  2  0  0  0
 15 17  1  0  0  0
  6 10  1  0  0  0
  7 11  1  0  0  0
  8 12  1  0  0  0
 19 20  1  0  0  0
M  END
> <minimizedAffinity>
-4.63853

$$$$
2VMC_NGA_A_505


 20 20  0  0  0  0  0  0  0  0999 V2000
   10.3604   11.7712  122.8727 C   0  0  0  0  0  0  0  0  0  0  0  0
    9.1908   10.8195  122.6321 C   0  0  0  0  0  0  0  0  0  0  0  0
    9.7012    9.4735  122.0610 C   0  0  0  0  0  0  0  0  0  0  0  0
   10.5860    9.6945  120.8275 C   0  0  0  0  0  0  0  0  0  0  0  0
   11.6481   10.7629  121.1618 C   0  0  0  0  0  0  0  0  0  0  0  0
    9.8742   13.0238  123.3629 O   0  0  0  0  0  0  0  0  0  0  0  0
    8.6370    8.5560  121.7467 O   0  0  0  0  0  0  0  0  0  0  0  0
    9.7975   10.0969  119.7054 O   0  0  0  0  0  0  0  0  0  0  0  0
   11.0844   11.9841  121.6611 O   0  0  0  0  0  0  0  0  0  0  0  0
    9.2817   13.4204  122.7052 H   0  0  0  0  0  0  0  0  0  0  0  0
    8.0845    8.9305  121.0429 H   0  0  0  0  0  0  0  0  0  0  0  0
    9.3424   10.9283  119.9116 H   0  0  0  0  0  0  0  0  0  0  0  0
    7.1102   10.4510  123.8473 C   0  0  0  0  0  0  0  0  0  0  0  0
    6.4819   10.2440  125.2014 C   0  0  0  0  0  0  0  0  0  0  0  0
    8.4456   10.5815  123.8642 N   0  0  0  0  0  0  0  0  0  0  0  0
    6.4587   10.5005  122.7993 O   0  0  0  0  0  0  0  0  0  0  0  0
    8.9291   10.5158  124.7193 H   0  0  0  0  0  0  0  0  0  0  0  0
   12.5306   11.0842  119.9623 C   0  0  0  0  0  0  0  0  0  0  0  0
   11.8869   12.1537  119.2377 O   0  0  0  0  0  0  0  0  0  0  0  0
   11.0010   11.8704  118.9625 H   0  0  0  0  0  0  0  0  0  0  0  0
  1  2  1  0  0  0
  1  6  1  0  0  0
  1  9  1  0  0  0
  2  3  1  0  0  0
  2 15  1  0  0  0
  3  4  1  0  0  0
  3  7  1  0  0  0
  4  5  1  0  0  0
  4  8  1  0  0  0
  5 18  1  0  0  0
  5  9  1  0  0  0
 18 19  1  0  0  0
 13 14  1  0  0  0
 13 15  1  0  0  0
 13 16  2  0  0  0
 15 17  1  0  0  0
  6 10  1  0  0  0
  7 11  1  0  0  0
  8 12  1  0  0  0
 19 20  1  0  0  0
M  END
> <minimizedAffinity>
-4.60292

$$$$
2VMC_NGA_A_505


 20 20  0  0  0  0  0  0  0  0999 V2000
   11.7671   10.5003  122.3991 C   0  0  0  0  0  0  0  0  0  0  0  0
   11.9980    9.9965  120.9762 C   0  0  0  0  0  0  0  0  0  0  0  0
   10.7933   10.3615  120.0742 C   0  0  0  0  0  0  0  0  0  0  0  0
    9.4726    9.8875  120.6942 C   0  0  0  0  0  0  0  0  0  0  0  0
    9.4164   10.3556  122.1636 C   0  0  0  0  0  0  0  0  0  0  0  0
   12.8672   10.1239  123.2319 O   0  0  0  0  0  0  0  0  0  0  0  0
   10.9196    9.8521  118.7334 O   0  0  0  0  0  0  0  0  0  0  0  0
    9.3565    8.4655  120.6101 O   0  0  0  0  0  0  0  0  0  0  0  0
   10.5605    9.9527  122.9298 O   0  0  0  0  0  0  0  0  0  0  0  0
   12.9406    9.1570  123.2533 H   0  0  0  0  0  0  0  0  0  0  0  0
   10.9281    8.8824  118.7554 H   0  0  0  0  0  0  0  0  0  0  0  0
   10.0896    8.0522  121.0924 H   0  0  0  0  0  0  0  0  0  0  0  0
   14.3855    9.8912  120.4961 C   0  0  0  0  0  0  0  0  0  0  0  0
   15.5661   10.6134  119.8997 C   0  0  0  0  0  0  0  0  0  0  0  0
   13.2229   10.5561  120.4134 N   0  0  0  0  0  0  0  0  0  0  0  0
   14.4690    8.7775  121.0234 O   0  0  0  0  0  0  0  0  0  0  0  0
   13.1957   11.4332  119.9671 H   0  0  0  0  0  0  0  0  0  0  0  0
    8.1570    9.8687  122.8691 C   0  0  0  0  0  0  0  0  0  0  0  0
    8.5656    9.3438  124.1500 O   0  0  0  0  0  0  0  0  0  0  0  0
    9.2005    8.6227  124.0163 H   0  0  0  0  0  0  0  0  0  0  0  0
  1  2  1  0  0  0
  1  6  1  0  0  0
  1  9  1  0  0  0
  2  3  1  0  0  0
  2 15  1  0  0  0
  3  4  1  0  0  0
  3  7  1  0  0  0
  4  5  1  0  0  0
  4  8  1  0  0  0
  5 18  1  0  0  0
  5  9  1  0  0  0
 18 19  1  0  0  0
 13 14  1  0  0  0
 13 15  1  0  0  0
 13 16  2  0  0  0
 15 17  1  0  0  0
  6 10  1  0  0  0
  7 11  1  0  0  0
  8 12  1  0  0  0
 19 20  1  0  0  0
M  END
> <minimizedAffinity>
-4.43759

$$$$
