3L4U_DSK_A_4001


 31 31  0  0  0  0  0  0  0  0999 V2000
   -2.4258  -19.3608  -22.6979 O   0  0  0  0  0  0  0  0  0  0  0  0
   -2.7388  -19.8482  -21.4008 C   0  0  0  0  0  0  0  0  0  0  0  0
   -2.6656  -18.4228  -22.7574 H   0  0  0  0  0  0  0  0  0  0  0  0
   -3.3641  -21.9412  -20.4969 O   0  0  0  0  0  0  0  0  0  0  0  0
   -2.3577  -21.3239  -21.3181 C   0  0  0  0  0  0  0  0  0  0  0  0
   -3.3404  -21.5516  -19.6088 H   0  0  0  0  0  0  0  0  0  0  0  0
   -3.7998  -21.9169  -23.1948 O   0  0  0  0  0  0  0  0  0  0  0  0
   -2.4614  -21.9965  -22.7071 C   0  0  0  0  0  0  0  0  0  0  0  0
   -3.8525  -22.3415  -24.0654 H   0  0  0  0  0  0  0  0  0  0  0  0
   -1.1180  -23.6305  -21.5861 O   0  0  0  0  0  0  0  0  0  0  0  0
   -2.0344  -23.4623  -22.6736 C   0  0  0  0  0  0  0  0  0  0  0  0
   -0.8320  -24.5565  -21.5446 H   0  0  0  0  0  0  0  0  0  0  0  0
   -2.2536  -23.8083  -25.0645 O   0  0  0  0  0  0  0  0  0  0  0  0
   -1.3130  -23.8550  -23.9815 C   0  0  0  0  0  0  0  0  0  0  0  0
   -1.8081  -24.0538  -25.8905 H   0  0  0  0  0  0  0  0  0  0  0  0
    0.9672  -23.3184  -23.4991 O   0  0  0  0  0  0  0  0  0  0  0  0
   -0.1562  -22.8830  -24.2463 C   0  0  0  0  0  0  0  0  0  0  0  0
    1.7114  -22.7155  -23.6531 H   0  0  0  0  0  0  0  0  0  0  0  0
   -2.0627  -18.9796  -20.2945 C   0  0  0  0  0  0  0  0  0  0  0  0
    1.1699  -15.3343  -20.8727 O   0  0  0  0  0  0  0  0  0  0  0  0
    0.1217  -15.2577  -18.2282 O   0  0  0  0  0  0  0  0  0  0  0  0
   -0.9479  -16.4738  -21.5493 C   0  0  0  0  0  0  0  0  0  0  0  0
    0.0818  -16.2028  -20.4331 C   0  0  0  0  0  0  0  0  0  0  0  0
   -0.7507  -15.4702  -19.3453 C   0  0  0  0  0  0  0  0  0  0  0  0
   -1.8849  -16.4653  -18.9668 C   0  0  0  0  0  0  0  0  0  0  0  0
   -2.3282  -17.2117  -20.5826 S   0  0  0  0  0  0  0  0  0  0  0  0
    1.6920  -15.7888  -21.5522 H   0  0  0  0  0  0  0  0  0  0  0  0
    0.8227  -14.6359  -18.4791 H   0  0  0  0  0  0  0  0  0  0  0  0
   -3.6462  -14.6956  -18.8000 O   0  0  0  0  0  0  0  0  0  0  0  0
   -3.0717  -15.8484  -18.1761 C   0  0  0  0  0  0  0  0  0  0  0  0
   -4.3774  -14.3640  -18.2556 H   0  0  0  0  0  0  0  0  0  0  0  0
 16 17  1  0  0  0
 29 30  1  0  0  0
 13 14  1  0  0  0
  1  2  1  0  0  0
 20 23  1  0  0  0
 10 11  1  0  0  0
  4  5  1  0  0  0
  7  8  1  0  0  0
 21 24  1  0  0  0
 17 14  1  0  0  0
 30 25  1  0  0  0
 19  2  1  0  0  0
 19 26  1  0  0  0
 22 23  1  0  0  0
 22 26  1  0  0  0
 14 11  1  0  0  0
  2  5  1  0  0  0
 23 24  1  0  0  0
 11  8  1  0  0  0
  5  8  1  0  0  0
 24 25  1  0  0  0
 25 26  1  0  0  0
 16 18  1  0  0  0
 29 31  1  0  0  0
 13 15  1  0  0  0
  1  3  1  0  0  0
 20 27  1  0  0  0
 10 12  1  0  0  0
  4  6  1  0  0  0
  7  9  1  0  0  0
 21 28  1  0  0  0
M  CHG 1  26   1
M  END
> <minimizedAffinity>
-7.21975

$$$$
3L4U_DSK_A_4001


 31 31  0  0  0  0  0  0  0  0999 V2000
   -2.7418  -19.5378  -23.3496 O   0  0  0  0  0  0  0  0  0  0  0  0
   -2.5226  -20.3199  -22.1842 C   0  0  0  0  0  0  0  0  0  0  0  0
   -2.7603  -20.1160  -24.1283 H   0  0  0  0  0  0  0  0  0  0  0  0
   -1.2836  -19.7232  -20.2613 O   0  0  0  0  0  0  0  0  0  0  0  0
   -2.4953  -19.4009  -20.9658 C   0  0  0  0  0  0  0  0  0  0  0  0
   -1.3163  -20.6472  -19.9678 H   0  0  0  0  0  0  0  0  0  0  0  0
   -1.1595  -17.7286  -22.1373 O   0  0  0  0  0  0  0  0  0  0  0  0
   -2.3637  -17.9213  -21.3968 C   0  0  0  0  0  0  0  0  0  0  0  0
   -1.0880  -16.7982  -22.4019 H   0  0  0  0  0  0  0  0  0  0  0  0
   -3.3337  -15.9431  -20.4603 O   0  0  0  0  0  0  0  0  0  0  0  0
   -2.3674  -16.9684  -20.2036 C   0  0  0  0  0  0  0  0  0  0  0  0
   -3.3542  -15.3239  -19.7139 H   0  0  0  0  0  0  0  0  0  0  0  0
   -0.9178  -15.1428  -20.8744 O   0  0  0  0  0  0  0  0  0  0  0  0
   -0.9859  -16.3005  -20.0288 C   0  0  0  0  0  0  0  0  0  0  0  0
   -0.0524  -14.7170  -20.7706 H   0  0  0  0  0  0  0  0  0  0  0  0
   -2.0187  -15.3814  -18.0773 O   0  0  0  0  0  0  0  0  0  0  0  0
   -0.7893  -15.8941  -18.5627 C   0  0  0  0  0  0  0  0  0  0  0  0
   -1.9154  -15.1181  -17.1494 H   0  0  0  0  0  0  0  0  0  0  0  0
   -3.5802  -21.4614  -22.0649 C   0  0  0  0  0  0  0  0  0  0  0  0
   -0.5200  -23.7087  -18.9573 O   0  0  0  0  0  0  0  0  0  0  0  0
    0.9589  -22.6718  -21.1564 O   0  0  0  0  0  0  0  0  0  0  0  0
   -2.4979  -23.7889  -20.4814 C   0  0  0  0  0  0  0  0  0  0  0  0
   -1.1619  -23.1064  -20.1222 C   0  0  0  0  0  0  0  0  0  0  0  0
   -0.2815  -23.3548  -21.3777 C   0  0  0  0  0  0  0  0  0  0  0  0
   -1.0607  -22.6982  -22.5531 C   0  0  0  0  0  0  0  0  0  0  0  0
   -2.8069  -23.0962  -22.1573 S   0  0  0  0  0  0  0  0  0  0  0  0
   -1.0672  -23.5554  -18.1712 H   0  0  0  0  0  0  0  0  0  0  0  0
    1.4327  -23.0920  -20.4217 H   0  0  0  0  0  0  0  0  0  0  0  0
    0.7406  -22.7061  -24.2902 O   0  0  0  0  0  0  0  0  0  0  0  0
   -0.5933  -23.1174  -23.9745 C   0  0  0  0  0  0  0  0  0  0  0  0
    0.9657  -22.9993  -25.1870 H   0  0  0  0  0  0  0  0  0  0  0  0
 16 17  1  0  0  0
 29 30  1  0  0  0
 13 14  1  0  0  0
  1  2  1  0  0  0
 20 23  1  0  0  0
 10 11  1  0  0  0
  4  5  1  0  0  0
  7  8  1  0  0  0
 21 24  1  0  0  0
 17 14  1  0  0  0
 30 25  1  0  0  0
 19  2  1  0  0  0
 19 26  1  0  0  0
 22 23  1  0  0  0
 22 26  1  0  0  0
 14 11  1  0  0  0
  2  5  1  0  0  0
 23 24  1  0  0  0
 11  8  1  0  0  0
  5  8  1  0  0  0
 24 25  1  0  0  0
 25 26  1  0  0  0
 16 18  1  0  0  0
 29 31  1  0  0  0
 13 15  1  0  0  0
  1  3  1  0  0  0
 20 27  1  0  0  0
 10 12  1  0  0  0
  4  6  1  0  0  0
  7  9  1  0  0  0
 21 28  1  0  0  0
M  CHG 1  26   1
M  END
> <minimizedAffinity>
-6.89895

$$$$
3L4U_DSK_A_4001


 31 31  0  0  0  0  0  0  0  0999 V2000
   -2.7496  -19.5781  -23.2874 O   0  0  0  0  0  0  0  0  0  0  0  0
   -2.7049  -20.3538  -22.0983 C   0  0  0  0  0  0  0  0  0  0  0  0
   -2.8801  -20.1629  -24.0502 H   0  0  0  0  0  0  0  0  0  0  0  0
   -1.2087  -19.7601  -20.3668 O   0  0  0  0  0  0  0  0  0  0  0  0
   -2.4995  -19.4244  -20.9050 C   0  0  0  0  0  0  0  0  0  0  0  0
   -1.2153  -20.6807  -20.0613 H   0  0  0  0  0  0  0  0  0  0  0  0
   -1.1900  -17.7353  -22.0821 O   0  0  0  0  0  0  0  0  0  0  0  0
   -2.4052  -17.9511  -21.3663 C   0  0  0  0  0  0  0  0  0  0  0  0
   -1.1421  -16.8091  -22.3660 H   0  0  0  0  0  0  0  0  0  0  0  0
   -3.4438  -15.9717  -20.5091 O   0  0  0  0  0  0  0  0  0  0  0  0
   -2.4689  -16.9728  -20.1955 C   0  0  0  0  0  0  0  0  0  0  0  0
   -3.5022  -15.3371  -19.7779 H   0  0  0  0  0  0  0  0  0  0  0  0
   -1.0197  -15.1489  -20.8719 O   0  0  0  0  0  0  0  0  0  0  0  0
   -1.1068  -16.2753  -19.9868 C   0  0  0  0  0  0  0  0  0  0  0  0
   -0.1665  -14.7048  -20.7471 H   0  0  0  0  0  0  0  0  0  0  0  0
    0.2454  -15.1134  -18.3926 O   0  0  0  0  0  0  0  0  0  0  0  0
   -0.9809  -15.8114  -18.5300 C   0  0  0  0  0  0  0  0  0  0  0  0
    0.3443  -14.8109  -17.4763 H   0  0  0  0  0  0  0  0  0  0  0  0
   -3.9750  -21.2506  -21.9628 C   0  0  0  0  0  0  0  0  0  0  0  0
   -0.1375  -23.6766  -23.8228 O   0  0  0  0  0  0  0  0  0  0  0  0
   -2.4226  -24.1254  -25.4583 O   0  0  0  0  0  0  0  0  0  0  0  0
   -1.7206  -23.2538  -21.9369 C   0  0  0  0  0  0  0  0  0  0  0  0
   -1.4700  -23.2042  -23.4583 C   0  0  0  0  0  0  0  0  0  0  0  0
   -2.5339  -24.1807  -24.0305 C   0  0  0  0  0  0  0  0  0  0  0  0
   -3.9023  -23.6017  -23.5697 C   0  0  0  0  0  0  0  0  0  0  0  0
   -3.5423  -23.0065  -21.8725 S   0  0  0  0  0  0  0  0  0  0  0  0
    0.5296  -23.0689  -23.4669 H   0  0  0  0  0  0  0  0  0  0  0  0
   -1.5655  -24.4893  -25.7301 H   0  0  0  0  0  0  0  0  0  0  0  0
   -5.2816  -25.1266  -24.9960 O   0  0  0  0  0  0  0  0  0  0  0  0
   -5.1074  -24.5755  -23.6868 C   0  0  0  0  0  0  0  0  0  0  0  0
   -6.0474  -25.7221  -24.9969 H   0  0  0  0  0  0  0  0  0  0  0  0
 16 17  1  0  0  0
 29 30  1  0  0  0
 13 14  1  0  0  0
  1  2  1  0  0  0
 20 23  1  0  0  0
 10 11  1  0  0  0
  4  5  1  0  0  0
  7  8  1  0  0  0
 21 24  1  0  0  0
 17 14  1  0  0  0
 30 25  1  0  0  0
 19  2  1  0  0  0
 19 26  1  0  0  0
 22 23  1  0  0  0
 22 26  1  0  0  0
 14 11  1  0  0  0
  2  5  1  0  0  0
 23 24  1  0  0  0
 11  8  1  0  0  0
  5  8  1  0  0  0
 24 25  1  0  0  0
 25 26  1  0  0  0
 16 18  1  0  0  0
 29 31  1  0  0  0
 13 15  1  0  0  0
  1  3  1  0  0  0
 20 27  1  0  0  0
 10 12  1  0  0  0
  4  6  1  0  0  0
  7  9  1  0  0  0
 21 28  1  0  0  0
M  CHG 1  26   1
M  END
> <minimizedAffinity>
-6.82447

$$$$
3L4U_DSK_A_4001


 31 31  0  0  0  0  0  0  0  0999 V2000
   -2.7919  -19.4920  -23.2690 O   0  0  0  0  0  0  0  0  0  0  0  0
   -2.8643  -20.2571  -22.0743 C   0  0  0  0  0  0  0  0  0  0  0  0
   -3.0141  -20.0547  -24.0272 H   0  0  0  0  0  0  0  0  0  0  0  0
   -1.2176  -19.7989  -20.4412 O   0  0  0  0  0  0  0  0  0  0  0  0
   -2.5130  -19.3627  -20.8884 C   0  0  0  0  0  0  0  0  0  0  0  0
   -1.2713  -20.7210  -20.1450 H   0  0  0  0  0  0  0  0  0  0  0  0
   -1.1306  -17.7429  -22.0793 O   0  0  0  0  0  0  0  0  0  0  0  0
   -2.3417  -17.8934  -21.3403 C   0  0  0  0  0  0  0  0  0  0  0  0
   -1.0341  -16.8185  -22.3571 H   0  0  0  0  0  0  0  0  0  0  0  0
   -3.2977  -15.9037  -20.4138 O   0  0  0  0  0  0  0  0  0  0  0  0
   -2.3245  -16.9234  -20.1611 C   0  0  0  0  0  0  0  0  0  0  0  0
   -3.3051  -15.2739  -19.6762 H   0  0  0  0  0  0  0  0  0  0  0  0
   -0.8503  -15.1737  -20.9670 O   0  0  0  0  0  0  0  0  0  0  0  0
   -0.9412  -16.2506  -20.0226 C   0  0  0  0  0  0  0  0  0  0  0  0
    0.0163  -14.7454  -20.8865 H   0  0  0  0  0  0  0  0  0  0  0  0
   -2.0542  -15.4824  -18.0499 O   0  0  0  0  0  0  0  0  0  0  0  0
   -0.7666  -15.7157  -18.5955 C   0  0  0  0  0  0  0  0  0  0  0  0
   -1.9655  -15.1429  -17.1456 H   0  0  0  0  0  0  0  0  0  0  0  0
   -4.2579  -20.9446  -21.9294 C   0  0  0  0  0  0  0  0  0  0  0  0
   -3.9724  -24.4239  -25.3770 O   0  0  0  0  0  0  0  0  0  0  0  0
   -6.6082  -24.3685  -24.3057 O   0  0  0  0  0  0  0  0  0  0  0  0
   -3.1992  -23.4649  -23.2035 C   0  0  0  0  0  0  0  0  0  0  0  0
   -4.3393  -23.5917  -24.2349 C   0  0  0  0  0  0  0  0  0  0  0  0
   -5.4726  -24.2908  -23.4348 C   0  0  0  0  0  0  0  0  0  0  0  0
   -5.7688  -23.3397  -22.2400 C   0  0  0  0  0  0  0  0  0  0  0  0
   -4.0993  -22.7415  -21.7716 S   0  0  0  0  0  0  0  0  0  0  0  0
   -3.2647  -23.9902  -25.8790 H   0  0  0  0  0  0  0  0  0  0  0  0
   -6.4087  -24.9642  -25.0448 H   0  0  0  0  0  0  0  0  0  0  0  0
   -6.1060  -25.2384  -20.6452 O   0  0  0  0  0  0  0  0  0  0  0  0
   -6.5948  -23.9665  -21.0828 C   0  0  0  0  0  0  0  0  0  0  0  0
   -6.6654  -25.5695  -19.9252 H   0  0  0  0  0  0  0  0  0  0  0  0
 16 17  1  0  0  0
 29 30  1  0  0  0
 13 14  1  0  0  0
  1  2  1  0  0  0
 20 23  1  0  0  0
 10 11  1  0  0  0
  4  5  1  0  0  0
  7  8  1  0  0  0
 21 24  1  0  0  0
 17 14  1  0  0  0
 30 25  1  0  0  0
 19  2  1  0  0  0
 19 26  1  0  0  0
 22 23  1  0  0  0
 22 26  1  0  0  0
 14 11  1  0  0  0
  2  5  1  0  0  0
 23 24  1  0  0  0
 11  8  1  0  0  0
  5  8  1  0  0  0
 24 25  1  0  0  0
 25 26  1  0  0  0
 16 18  1  0  0  0
 29 31  1  0  0  0
 13 15  1  0  0  0
  1  3  1  0  0  0
 20 27  1  0  0  0
 10 12  1  0  0  0
  4  6  1  0  0  0
  7  9  1  0  0  0
 21 28  1  0  0  0
M  CHG 1  26   1
M  END
> <minimizedAffinity>
-6.62592

$$$$
3L4U_DSK_A_4001


 31 31  0  0  0  0  0  0  0  0999 V2000
   -4.0439  -21.5791  -21.2158 O   0  0  0  0  0  0  0  0  0  0  0  0
   -2.6686  -21.8203  -20.9548 C   0  0  0  0  0  0  0  0  0  0  0  0
   -4.3952  -22.2869  -21.7784 H   0  0  0  0  0  0  0  0  0  0  0  0
   -0.6977  -20.8685  -20.0611 O   0  0  0  0  0  0  0  0  0  0  0  0
   -2.1262  -20.7014  -20.0694 C   0  0  0  0  0  0  0  0  0  0  0  0
   -0.4749  -21.7271  -19.6686 H   0  0  0  0  0  0  0  0  0  0  0  0
   -2.4299  -19.4278  -22.1283 O   0  0  0  0  0  0  0  0  0  0  0  0
   -2.3955  -19.3178  -20.7063 C   0  0  0  0  0  0  0  0  0  0  0  0
   -2.5992  -18.5550  -22.5161 H   0  0  0  0  0  0  0  0  0  0  0  0
   -1.6000  -17.8752  -18.9692 O   0  0  0  0  0  0  0  0  0  0  0  0
   -1.3397  -18.2859  -20.3162 C   0  0  0  0  0  0  0  0  0  0  0  0
   -0.9402  -17.2177  -18.6984 H   0  0  0  0  0  0  0  0  0  0  0  0
   -2.7825  -16.5822  -21.2650 O   0  0  0  0  0  0  0  0  0  0  0  0
   -1.4234  -17.0419  -21.2277 C   0  0  0  0  0  0  0  0  0  0  0  0
   -2.8439  -15.8004  -21.8359 H   0  0  0  0  0  0  0  0  0  0  0  0
   -1.3237  -14.9459  -20.0802 O   0  0  0  0  0  0  0  0  0  0  0  0
   -0.5089  -15.9378  -20.6817 C   0  0  0  0  0  0  0  0  0  0  0  0
   -0.7632  -14.2370  -19.7278 H   0  0  0  0  0  0  0  0  0  0  0  0
   -2.4517  -23.2408  -20.3458 C   0  0  0  0  0  0  0  0  0  0  0  0
    1.7880  -23.4053  -22.8096 O   0  0  0  0  0  0  0  0  0  0  0  0
   -0.2428  -22.3376  -24.4929 O   0  0  0  0  0  0  0  0  0  0  0  0
   -0.0321  -24.5723  -21.5579 C   0  0  0  0  0  0  0  0  0  0  0  0
    0.3835  -23.3580  -22.4139 C   0  0  0  0  0  0  0  0  0  0  0  0
   -0.5095  -23.4863  -23.6784 C   0  0  0  0  0  0  0  0  0  0  0  0
   -1.9708  -23.4470  -23.1461 C   0  0  0  0  0  0  0  0  0  0  0  0
   -1.8647  -24.4158  -21.5923 S   0  0  0  0  0  0  0  0  0  0  0  0
    2.3487  -23.3255  -22.0221 H   0  0  0  0  0  0  0  0  0  0  0  0
    0.6706  -22.3761  -24.8170 H   0  0  0  0  0  0  0  0  0  0  0  0
   -2.5744  -24.0867  -25.4889 O   0  0  0  0  0  0  0  0  0  0  0  0
   -3.0553  -23.9257  -24.1506 C   0  0  0  0  0  0  0  0  0  0  0  0
   -3.2998  -24.3857  -26.0593 H   0  0  0  0  0  0  0  0  0  0  0  0
 16 17  1  0  0  0
 29 30  1  0  0  0
 13 14  1  0  0  0
  1  2  1  0  0  0
 20 23  1  0  0  0
 10 11  1  0  0  0
  4  5  1  0  0  0
  7  8  1  0  0  0
 21 24  1  0  0  0
 17 14  1  0  0  0
 30 25  1  0  0  0
 19  2  1  0  0  0
 19 26  1  0  0  0
 22 23  1  0  0  0
 22 26  1  0  0  0
 14 11  1  0  0  0
  2  5  1  0  0  0
 23 24  1  0  0  0
 11  8  1  0  0  0
  5  8  1  0  0  0
 24 25  1  0  0  0
 25 26  1  0  0  0
 16 18  1  0  0  0
 29 31  1  0  0  0
 13 15  1  0  0  0
  1  3  1  0  0  0
 20 27  1  0  0  0
 10 12  1  0  0  0
  4  6  1  0  0  0
  7  9  1  0  0  0
 21 28  1  0  0  0
M  CHG 1  26   1
M  END
> <minimizedAffinity>
-6.34641

$$$$
3L4U_DSK_A_4001


 31 31  0  0  0  0  0  0  0  0999 V2000
   -2.4007  -19.4287  -22.6724 O   0  0  0  0  0  0  0  0  0  0  0  0
   -2.7289  -19.7822  -21.3363 C   0  0  0  0  0  0  0  0  0  0  0  0
   -2.5534  -18.4797  -22.8025 H   0  0  0  0  0  0  0  0  0  0  0  0
   -2.0175  -21.7632  -22.4126 O   0  0  0  0  0  0  0  0  0  0  0  0
   -2.4851  -21.2765  -21.1425 C   0  0  0  0  0  0  0  0  0  0  0  0
   -2.7069  -21.6330  -23.0824 H   0  0  0  0  0  0  0  0  0  0  0  0
   -0.1279  -21.8255  -20.8330 O   0  0  0  0  0  0  0  0  0  0  0  0
   -1.3352  -21.5195  -20.1370 C   0  0  0  0  0  0  0  0  0  0  0  0
    0.5852  -21.9756  -20.1929 H   0  0  0  0  0  0  0  0  0  0  0  0
   -2.8701  -23.2713  -19.5833 O   0  0  0  0  0  0  0  0  0  0  0  0
   -1.6465  -22.6556  -19.1654 C   0  0  0  0  0  0  0  0  0  0  0  0
   -3.0890  -23.9981  -18.9794 H   0  0  0  0  0  0  0  0  0  0  0  0
   -0.9898  -20.9743  -17.5447 O   0  0  0  0  0  0  0  0  0  0  0  0
   -1.8400  -22.1155  -17.7314 C   0  0  0  0  0  0  0  0  0  0  0  0
   -1.1053  -20.6286  -16.6458 H   0  0  0  0  0  0  0  0  0  0  0  0
   -3.5398  -21.6082  -16.1273 O   0  0  0  0  0  0  0  0  0  0  0  0
   -3.3070  -21.7192  -17.5213 C   0  0  0  0  0  0  0  0  0  0  0  0
   -4.4641  -21.3577  -15.9728 H   0  0  0  0  0  0  0  0  0  0  0  0
   -1.9503  -18.8983  -20.3124 C   0  0  0  0  0  0  0  0  0  0  0  0
    1.1609  -15.1437  -20.8553 O   0  0  0  0  0  0  0  0  0  0  0  0
    0.1245  -15.1370  -18.2051 O   0  0  0  0  0  0  0  0  0  0  0  0
   -0.9228  -16.3411  -21.5376 C   0  0  0  0  0  0  0  0  0  0  0  0
    0.1035  -16.0526  -20.4226 C   0  0  0  0  0  0  0  0  0  0  0  0
   -0.7464  -15.3620  -19.3208 C   0  0  0  0  0  0  0  0  0  0  0  0
   -1.8462  -16.3981  -18.9509 C   0  0  0  0  0  0  0  0  0  0  0  0
   -2.2737  -17.1361  -20.5747 S   0  0  0  0  0  0  0  0  0  0  0  0
    1.6938  -15.5718  -21.5435 H   0  0  0  0  0  0  0  0  0  0  0  0
    0.8040  -14.4897  -18.4506 H   0  0  0  0  0  0  0  0  0  0  0  0
   -3.6189  -14.6477  -18.7148 O   0  0  0  0  0  0  0  0  0  0  0  0
   -3.0480  -15.8304  -18.1461 C   0  0  0  0  0  0  0  0  0  0  0  0
   -4.3599  -14.3495  -18.1645 H   0  0  0  0  0  0  0  0  0  0  0  0
 16 17  1  0  0  0
 29 30  1  0  0  0
 13 14  1  0  0  0
  1  2  1  0  0  0
 20 23  1  0  0  0
 10 11  1  0  0  0
  4  5  1  0  0  0
  7  8  1  0  0  0
 21 24  1  0  0  0
 17 14  1  0  0  0
 30 25  1  0  0  0
 19  2  1  0  0  0
 19 26  1  0  0  0
 22 23  1  0  0  0
 22 26  1  0  0  0
 14 11  1  0  0  0
  2  5  1  0  0  0
 23 24  1  0  0  0
 11  8  1  0  0  0
  5  8  1  0  0  0
 24 25  1  0  0  0
 25 26  1  0  0  0
 16 18  1  0  0  0
 29 31  1  0  0  0
 13 15  1  0  0  0
  1  3  1  0  0  0
 20 27  1  0  0  0
 10 12  1  0  0  0
  4  6  1  0  0  0
  7  9  1  0  0  0
 21 28  1  0  0  0
M  CHG 1  26   1
M  END
> <minimizedAffinity>
-6.33203

$$$$
3L4U_DSK_A_4001


 31 31  0  0  0  0  0  0  0  0999 V2000
   -1.2377  -20.1667  -19.2593 O   0  0  0  0  0  0  0  0  0  0  0  0
   -2.0970  -19.2271  -19.8890 C   0  0  0  0  0  0  0  0  0  0  0  0
   -1.7674  -20.8837  -18.8768 H   0  0  0  0  0  0  0  0  0  0  0  0
   -1.5157  -18.1302  -21.9009 O   0  0  0  0  0  0  0  0  0  0  0  0
   -1.2538  -18.1041  -20.4870 C   0  0  0  0  0  0  0  0  0  0  0  0
   -1.2270  -18.9806  -22.2675 H   0  0  0  0  0  0  0  0  0  0  0  0
   -2.8233  -16.2601  -20.7865 O   0  0  0  0  0  0  0  0  0  0  0  0
   -1.7396  -16.7247  -19.9833 C   0  0  0  0  0  0  0  0  0  0  0  0
   -3.1192  -15.3954  -20.4615 H   0  0  0  0  0  0  0  0  0  0  0  0
   -1.2385  -14.3871  -20.1099 O   0  0  0  0  0  0  0  0  0  0  0  0
   -0.6279  -15.6779  -20.0007 C   0  0  0  0  0  0  0  0  0  0  0  0
   -0.5501  -13.7039  -20.1229 H   0  0  0  0  0  0  0  0  0  0  0  0
   -0.4416  -15.6127  -22.4184 O   0  0  0  0  0  0  0  0  0  0  0  0
    0.2995  -15.8808  -21.2189 C   0  0  0  0  0  0  0  0  0  0  0  0
    0.1342  -15.7379  -23.1890 H   0  0  0  0  0  0  0  0  0  0  0  0
    2.6552  -15.6325  -21.5492 O   0  0  0  0  0  0  0  0  0  0  0  0
    1.5005  -14.9317  -21.1186 C   0  0  0  0  0  0  0  0  0  0  0  0
    3.4276  -15.0483  -21.4932 H   0  0  0  0  0  0  0  0  0  0  0  0
   -3.0201  -19.9228  -20.9377 C   0  0  0  0  0  0  0  0  0  0  0  0
   -1.3808  -23.3729  -24.0170 O   0  0  0  0  0  0  0  0  0  0  0  0
   -4.2207  -23.2546  -24.1550 O   0  0  0  0  0  0  0  0  0  0  0  0
   -1.5763  -22.4585  -21.7002 C   0  0  0  0  0  0  0  0  0  0  0  0
   -2.1775  -22.5425  -23.1184 C   0  0  0  0  0  0  0  0  0  0  0  0
   -3.5569  -23.2178  -22.8853 C   0  0  0  0  0  0  0  0  0  0  0  0
   -4.3093  -22.2712  -21.9065 C   0  0  0  0  0  0  0  0  0  0  0  0
   -2.9809  -21.7249  -20.7659 S   0  0  0  0  0  0  0  0  0  0  0  0
   -0.5185  -22.9540  -24.1648 H   0  0  0  0  0  0  0  0  0  0  0  0
   -3.7408  -23.8480  -24.7536 H   0  0  0  0  0  0  0  0  0  0  0  0
   -5.7212  -22.4925  -19.8524 O   0  0  0  0  0  0  0  0  0  0  0  0
   -5.5593  -22.8865  -21.2187 C   0  0  0  0  0  0  0  0  0  0  0  0
   -6.5165  -22.9108  -19.4873 H   0  0  0  0  0  0  0  0  0  0  0  0
 16 17  1  0  0  0
 29 30  1  0  0  0
 13 14  1  0  0  0
  1  2  1  0  0  0
 20 23  1  0  0  0
 10 11  1  0  0  0
  4  5  1  0  0  0
  7  8  1  0  0  0
 21 24  1  0  0  0
 17 14  1  0  0  0
 30 25  1  0  0  0
 19  2  1  0  0  0
 19 26  1  0  0  0
 22 23  1  0  0  0
 22 26  1  0  0  0
 14 11  1  0  0  0
  2  5  1  0  0  0
 23 24  1  0  0  0
 11  8  1  0  0  0
  5  8  1  0  0  0
 24 25  1  0  0  0
 25 26  1  0  0  0
 16 18  1  0  0  0
 29 31  1  0  0  0
 13 15  1  0  0  0
  1  3  1  0  0  0
 20 27  1  0  0  0
 10 12  1  0  0  0
  4  6  1  0  0  0
  7  9  1  0  0  0
 21 28  1  0  0  0
M  CHG 1  26   1
M  END
> <minimizedAffinity>
-6.25250

$$$$
3L4U_DSK_A_4001


 31 31  0  0  0  0  0  0  0  0999 V2000
   -3.0749  -20.8854  -18.6118 O   0  0  0  0  0  0  0  0  0  0  0  0
   -2.2221  -20.5329  -19.6917 C   0  0  0  0  0  0  0  0  0  0  0  0
   -2.5546  -20.9464  -17.7955 H   0  0  0  0  0  0  0  0  0  0  0  0
   -2.1032  -20.4725  -22.0520 O   0  0  0  0  0  0  0  0  0  0  0  0
   -3.0505  -20.4397  -20.9703 C   0  0  0  0  0  0  0  0  0  0  0  0
   -1.5162  -19.7027  -21.9911 H   0  0  0  0  0  0  0  0  0  0  0  0
   -3.3398  -22.8164  -20.5004 O   0  0  0  0  0  0  0  0  0  0  0  0
   -3.9424  -21.6920  -21.1393 C   0  0  0  0  0  0  0  0  0  0  0  0
   -3.9075  -23.5949  -20.6129 H   0  0  0  0  0  0  0  0  0  0  0  0
   -5.4077  -21.3943  -23.0090 O   0  0  0  0  0  0  0  0  0  0  0  0
   -4.1901  -22.0323  -22.6072 C   0  0  0  0  0  0  0  0  0  0  0  0
   -5.5865  -21.5966  -23.9406 H   0  0  0  0  0  0  0  0  0  0  0  0
   -5.6246  -23.9582  -22.2640 O   0  0  0  0  0  0  0  0  0  0  0  0
   -4.3546  -23.5560  -22.7983 C   0  0  0  0  0  0  0  0  0  0  0  0
   -5.7359  -24.9148  -22.3801 H   0  0  0  0  0  0  0  0  0  0  0  0
   -5.4418  -23.3948  -24.9225 O   0  0  0  0  0  0  0  0  0  0  0  0
   -4.2781  -23.9015  -24.2910 C   0  0  0  0  0  0  0  0  0  0  0  0
   -5.4127  -23.6033  -25.8694 H   0  0  0  0  0  0  0  0  0  0  0  0
   -1.4302  -19.2246  -19.3800 C   0  0  0  0  0  0  0  0  0  0  0  0
    0.4823  -15.3083  -21.6332 O   0  0  0  0  0  0  0  0  0  0  0  0
   -0.2074  -14.6179  -18.9601 O   0  0  0  0  0  0  0  0  0  0  0  0
   -1.2701  -17.0838  -21.4983 C   0  0  0  0  0  0  0  0  0  0  0  0
   -0.2373  -16.2185  -20.7471 C   0  0  0  0  0  0  0  0  0  0  0  0
   -1.1086  -15.3920  -19.7618 C   0  0  0  0  0  0  0  0  0  0  0  0
   -1.8420  -16.4491  -18.8873 C   0  0  0  0  0  0  0  0  0  0  0  0
   -2.2402  -17.7713  -20.0946 S   0  0  0  0  0  0  0  0  0  0  0  0
    1.0275  -15.8212  -22.2500 H   0  0  0  0  0  0  0  0  0  0  0  0
    0.2417  -13.9640  -19.5183 H   0  0  0  0  0  0  0  0  0  0  0  0
   -3.4725  -14.5998  -18.4588 O   0  0  0  0  0  0  0  0  0  0  0  0
   -3.0512  -15.9120  -18.0728 C   0  0  0  0  0  0  0  0  0  0  0  0
   -4.2269  -14.3287  -17.9126 H   0  0  0  0  0  0  0  0  0  0  0  0
 16 17  1  0  0  0
 29 30  1  0  0  0
 13 14  1  0  0  0
  1  2  1  0  0  0
 20 23  1  0  0  0
 10 11  1  0  0  0
  4  5  1  0  0  0
  7  8  1  0  0  0
 21 24  1  0  0  0
 17 14  1  0  0  0
 30 25  1  0  0  0
 19  2  1  0  0  0
 19 26  1  0  0  0
 22 23  1  0  0  0
 22 26  1  0  0  0
 14 11  1  0  0  0
  2  5  1  0  0  0
 23 24  1  0  0  0
 11  8  1  0  0  0
  5  8  1  0  0  0
 24 25  1  0  0  0
 25 26  1  0  0  0
 16 18  1  0  0  0
 29 31  1  0  0  0
 13 15  1  0  0  0
  1  3  1  0  0  0
 20 27  1  0  0  0
 10 12  1  0  0  0
  4  6  1  0  0  0
  7  9  1  0  0  0
 21 28  1  0  0  0
M  CHG 1  26   1
M  END
> <minimizedAffinity>
-5.96346

$$$$
3L4U_DSK_A_4001


 31 31  0  0  0  0  0  0  0  0999 V2000
   -4.6868  -20.5656  -22.6734 O   0  0  0  0  0  0  0  0  0  0  0  0
   -3.9217  -21.6026  -22.0757 C   0  0  0  0  0  0  0  0  0  0  0  0
   -5.3510  -20.9534  -23.2645 H   0  0  0  0  0  0  0  0  0  0  0  0
   -1.6352  -21.6228  -21.4755 O   0  0  0  0  0  0  0  0  0  0  0  0
   -2.8804  -20.9817  -21.1483 C   0  0  0  0  0  0  0  0  0  0  0  0
   -1.7033  -22.5732  -21.2937 H   0  0  0  0  0  0  0  0  0  0  0  0
   -2.2669  -19.3107  -22.8170 O   0  0  0  0  0  0  0  0  0  0  0  0
   -2.6891  -19.4799  -21.4647 C   0  0  0  0  0  0  0  0  0  0  0  0
   -2.1504  -18.3660  -23.0036 H   0  0  0  0  0  0  0  0  0  0  0  0
   -2.2222  -18.7825  -19.2226 O   0  0  0  0  0  0  0  0  0  0  0  0
   -1.6669  -18.8197  -20.5421 C   0  0  0  0  0  0  0  0  0  0  0  0
   -1.5891  -18.3662  -18.6170 H   0  0  0  0  0  0  0  0  0  0  0  0
   -2.5210  -16.8643  -21.6959 O   0  0  0  0  0  0  0  0  0  0  0  0
   -1.3789  -17.3695  -20.9885 C   0  0  0  0  0  0  0  0  0  0  0  0
   -2.3483  -15.9530  -21.9800 H   0  0  0  0  0  0  0  0  0  0  0  0
   -2.2964  -15.8480  -19.3875 O   0  0  0  0  0  0  0  0  0  0  0  0
   -1.0923  -16.4971  -19.7597 C   0  0  0  0  0  0  0  0  0  0  0  0
   -2.1361  -15.2900  -18.6104 H   0  0  0  0  0  0  0  0  0  0  0  0
   -4.8415  -22.6376  -21.3557 C   0  0  0  0  0  0  0  0  0  0  0  0
   -1.3361  -25.5256  -23.2116 O   0  0  0  0  0  0  0  0  0  0  0  0
   -2.4549  -23.9400  -25.2929 O   0  0  0  0  0  0  0  0  0  0  0  0
   -3.5100  -25.2639  -22.0086 C   0  0  0  0  0  0  0  0  0  0  0  0
   -2.4973  -24.6648  -23.0062 C   0  0  0  0  0  0  0  0  0  0  0  0
   -3.3065  -24.5721  -24.3289 C   0  0  0  0  0  0  0  0  0  0  0  0
   -4.5210  -23.6589  -23.9958 C   0  0  0  0  0  0  0  0  0  0  0  0
   -4.9687  -24.1803  -22.2952 S   0  0  0  0  0  0  0  0  0  0  0  0
   -0.8283  -25.5857  -22.3873 H   0  0  0  0  0  0  0  0  0  0  0  0
   -1.7033  -24.5205  -25.4903 H   0  0  0  0  0  0  0  0  0  0  0  0
   -6.5392  -22.5530  -24.9787 O   0  0  0  0  0  0  0  0  0  0  0  0
   -5.6829  -23.6988  -25.0266 C   0  0  0  0  0  0  0  0  0  0  0  0
   -7.2384  -22.6438  -25.6449 H   0  0  0  0  0  0  0  0  0  0  0  0
 16 17  1  0  0  0
 29 30  1  0  0  0
 13 14  1  0  0  0
  1  2  1  0  0  0
 20 23  1  0  0  0
 10 11  1  0  0  0
  4  5  1  0  0  0
  7  8  1  0  0  0
 21 24  1  0  0  0
 17 14  1  0  0  0
 30 25  1  0  0  0
 19  2  1  0  0  0
 19 26  1  0  0  0
 22 23  1  0  0  0
 22 26  1  0  0  0
 14 11  1  0  0  0
  2  5  1  0  0  0
 23 24  1  0  0  0
 11  8  1  0  0  0
  5  8  1  0  0  0
 24 25  1  0  0  0
 25 26  1  0  0  0
 16 18  1  0  0  0
 29 31  1  0  0  0
 13 15  1  0  0  0
  1  3  1  0  0  0
 20 27  1  0  0  0
 10 12  1  0  0  0
  4  6  1  0  0  0
  7  9  1  0  0  0
 21 28  1  0  0  0
M  CHG 1  26   1
M  END
> <minimizedAffinity>
-5.95783

$$$$
3L4U_DSK_A_4001


 31 31  0  0  0  0  0  0  0  0999 V2000
   -1.2636  -20.8511  -20.4391 O   0  0  0  0  0  0  0  0  0  0  0  0
   -2.3847  -20.2114  -21.0322 C   0  0  0  0  0  0  0  0  0  0  0  0
   -1.4721  -21.7845  -20.2773 H   0  0  0  0  0  0  0  0  0  0  0  0
   -3.2932  -18.0343  -21.1871 O   0  0  0  0  0  0  0  0  0  0  0  0
   -2.0459  -18.7442  -21.2823 C   0  0  0  0  0  0  0  0  0  0  0  0
   -3.8974  -18.3482  -21.8779 H   0  0  0  0  0  0  0  0  0  0  0  0
   -1.6515  -18.5831  -18.8798 O   0  0  0  0  0  0  0  0  0  0  0  0
   -1.1455  -18.1885  -20.1541 C   0  0  0  0  0  0  0  0  0  0  0  0
   -1.0793  -18.2292  -18.1810 H   0  0  0  0  0  0  0  0  0  0  0  0
    0.2215  -16.3244  -20.7767 O   0  0  0  0  0  0  0  0  0  0  0  0
   -1.0414  -16.6655  -20.1940 C   0  0  0  0  0  0  0  0  0  0  0  0
    0.3108  -15.3592  -20.8128 H   0  0  0  0  0  0  0  0  0  0  0  0
   -0.0658  -15.0804  -18.6384 O   0  0  0  0  0  0  0  0  0  0  0  0
   -1.0941  -16.0731  -18.7686 C   0  0  0  0  0  0  0  0  0  0  0  0
   -0.0920  -14.7029  -17.7452 H   0  0  0  0  0  0  0  0  0  0  0  0
   -3.1575  -15.3800  -19.7596 O   0  0  0  0  0  0  0  0  0  0  0  0
   -2.4701  -15.4417  -18.5213 C   0  0  0  0  0  0  0  0  0  0  0  0
   -4.0320  -14.9828  -19.6246 H   0  0  0  0  0  0  0  0  0  0  0  0
   -2.8436  -20.9609  -22.3219 C   0  0  0  0  0  0  0  0  0  0  0  0
   -0.2764  -24.4226  -24.6668 O   0  0  0  0  0  0  0  0  0  0  0  0
   -2.9466  -24.3967  -25.6503 O   0  0  0  0  0  0  0  0  0  0  0  0
   -1.1782  -23.4657  -22.5425 C   0  0  0  0  0  0  0  0  0  0  0  0
   -1.3250  -23.5988  -24.0724 C   0  0  0  0  0  0  0  0  0  0  0  0
   -2.6945  -24.3119  -24.2420 C   0  0  0  0  0  0  0  0  0  0  0  0
   -3.7276  -23.3688  -23.5613 C   0  0  0  0  0  0  0  0  0  0  0  0
   -2.8150  -22.7568  -22.0926 S   0  0  0  0  0  0  0  0  0  0  0  0
    0.5805  -23.9801  -24.5626 H   0  0  0  0  0  0  0  0  0  0  0  0
   -2.2955  -24.9873  -26.0603 H   0  0  0  0  0  0  0  0  0  0  0  0
   -5.8898  -23.2810  -22.3046 O   0  0  0  0  0  0  0  0  0  0  0  0
   -5.1113  -24.0083  -23.2602 C   0  0  0  0  0  0  0  0  0  0  0  0
   -6.7362  -23.7339  -22.1652 H   0  0  0  0  0  0  0  0  0  0  0  0
 16 17  1  0  0  0
 29 30  1  0  0  0
 13 14  1  0  0  0
  1  2  1  0  0  0
 20 23  1  0  0  0
 10 11  1  0  0  0
  4  5  1  0  0  0
  7  8  1  0  0  0
 21 24  1  0  0  0
 17 14  1  0  0  0
 30 25  1  0  0  0
 19  2  1  0  0  0
 19 26  1  0  0  0
 22 23  1  0  0  0
 22 26  1  0  0  0
 14 11  1  0  0  0
  2  5  1  0  0  0
 23 24  1  0  0  0
 11  8  1  0  0  0
  5  8  1  0  0  0
 24 25  1  0  0  0
 25 26  1  0  0  0
 16 18  1  0  0  0
 29 31  1  0  0  0
 13 15  1  0  0  0
  1  3  1  0  0  0
 20 27  1  0  0  0
 10 12  1  0  0  0
  4  6  1  0  0  0
  7  9  1  0  0  0
 21 28  1  0  0  0
M  CHG 1  26   1
M  END
> <minimizedAffinity>
-5.81998

$$$$
