4ABH_7Z3_A_1253


 15 16  0  0  0  0  0  0  0  0999 V2000
    1.6240  -15.0806   17.0983 C   0  0  0  0  0  0  0  0  0  0  0  0
    0.8995  -15.6438   16.0334 C   0  0  0  0  0  0  0  0  0  0  0  0
    0.8291  -14.9519   14.8428 C   0  0  0  0  0  0  0  0  0  0  0  0
    1.5560  -13.7599   14.6235 C   0  0  0  0  0  0  0  0  0  0  0  0
    2.3090  -13.2618   15.6542 C   0  0  0  0  0  0  0  0  0  0  0  0
    2.3402  -13.9292   16.8909 C   0  0  0  0  0  0  0  0  0  0  0  0
    3.1021  -12.0166   15.4900 N   0  0  0  0  0  0  0  0  0  0  0  0
    3.4218  -11.2959   16.7437 C   0  0  0  0  0  0  0  0  0  0  0  0
    3.8075   -9.9452   16.2019 C   0  0  0  0  0  0  0  0  0  0  0  0
    3.2119   -9.8017   14.8044 C   0  0  0  0  0  0  0  0  0  0  0  0
    2.7316  -11.1408   14.3479 C   0  0  0  0  0  0  0  0  0  0  0  0
    1.7227  -15.8710   18.3600 C   0  0  0  0  0  0  0  0  0  0  0  0
    2.9328  -15.5197   19.1827 N   0  0  0  0  0  0  0  0  0  0  0  0
    2.8808  -14.5403   19.4629 H   0  0  0  0  0  0  0  0  0  0  0  0
    3.7759  -15.6706   18.6289 H   0  0  0  0  0  0  0  0  0  0  0  0
 12 13  1  0  0  0
 12  1  1  0  0  0
  1  2  1  0  0  0
  1  6  2  0  0  0
  7  5  1  0  0  0
  7  8  1  0  0  0
  7 11  1  0  0  0
  2  3  2  0  0  0
  3  4  1  0  0  0
  4  5  2  0  0  0
  5  6  1  0  0  0
  8  9  1  0  0  0
  9 10  1  0  0  0
 10 11  1  0  0  0
 13 14  1  0  0  0
 13 15  1  0  0  0
M  END
> <minimizedAffinity>
-6.05095

$$$$
4ABH_7Z3_A_1253


 15 16  0  0  0  0  0  0  0  0999 V2000
    1.6663  -14.9911   17.0563 C   0  0  0  0  0  0  0  0  0  0  0  0
    1.2908  -15.7025   15.9035 C   0  0  0  0  0  0  0  0  0  0  0  0
    1.2323  -15.0298   14.7014 C   0  0  0  0  0  0  0  0  0  0  0  0
    1.6500  -13.6858   14.5725 C   0  0  0  0  0  0  0  0  0  0  0  0
    2.0750  -13.0291   15.6975 C   0  0  0  0  0  0  0  0  0  0  0  0
    2.0825  -13.6894   16.9384 C   0  0  0  0  0  0  0  0  0  0  0  0
    2.5333  -11.6177   15.6322 N   0  0  0  0  0  0  0  0  0  0  0  0
    2.6573  -11.0515   14.2693 C   0  0  0  0  0  0  0  0  0  0  0  0
    3.5188   -9.8472   14.5417 C   0  0  0  0  0  0  0  0  0  0  0  0
    4.2447  -10.0671   15.8658 C   0  0  0  0  0  0  0  0  0  0  0  0
    3.6223  -11.2307   16.5665 C   0  0  0  0  0  0  0  0  0  0  0  0
    1.7661  -15.7529   18.3354 C   0  0  0  0  0  0  0  0  0  0  0  0
    3.0586  -15.5105   19.0668 N   0  0  0  0  0  0  0  0  0  0  0  0
    3.1283  -14.5239   19.3162 H   0  0  0  0  0  0  0  0  0  0  0  0
    3.8424  -15.7655   18.4658 H   0  0  0  0  0  0  0  0  0  0  0  0
 12 13  1  0  0  0
 12  1  1  0  0  0
  1  2  1  0  0  0
  1  6  2  0  0  0
  7  5  1  0  0  0
  7  8  1  0  0  0
  7 11  1  0  0  0
  2  3  2  0  0  0
  3  4  1  0  0  0
  4  5  2  0  0  0
  5  6  1  0  0  0
  8  9  1  0  0  0
  9 10  1  0  0  0
 10 11  1  0  0  0
 13 14  1  0  0  0
 13 15  1  0  0  0
M  END
> <minimizedAffinity>
-5.84973

$$$$
4ABH_7Z3_A_1253


 15 16  0  0  0  0  0  0  0  0999 V2000
    1.7666  -11.4868   12.9269 C   0  0  0  0  0  0  0  0  0  0  0  0
    2.4472  -10.4203   13.5396 C   0  0  0  0  0  0  0  0  0  0  0  0
    2.8852  -10.5745   14.8379 C   0  0  0  0  0  0  0  0  0  0  0  0
    2.7766  -11.8045   15.5254 C   0  0  0  0  0  0  0  0  0  0  0  0
    2.1677  -12.8522   14.8857 C   0  0  0  0  0  0  0  0  0  0  0  0
    1.6655  -12.6869   13.5833 C   0  0  0  0  0  0  0  0  0  0  0  0
    2.0255  -14.1742   15.5478 N   0  0  0  0  0  0  0  0  0  0  0  0
    0.7768  -14.9088   15.2402 C   0  0  0  0  0  0  0  0  0  0  0  0
    0.7618  -15.9191   16.3565 C   0  0  0  0  0  0  0  0  0  0  0  0
    1.6537  -15.4028   17.4818 C   0  0  0  0  0  0  0  0  0  0  0  0
    2.4593  -14.2546   16.9670 C   0  0  0  0  0  0  0  0  0  0  0  0
    1.3440  -11.3106   11.5067 C   0  0  0  0  0  0  0  0  0  0  0  0
    1.7557  -12.4565   10.6225 N   0  0  0  0  0  0  0  0  0  0  0  0
    1.3106  -13.3144   10.9483 H   0  0  0  0  0  0  0  0  0  0  0  0
    2.7694  -12.5652   10.6568 H   0  0  0  0  0  0  0  0  0  0  0  0
 12 13  1  0  0  0
 12  1  1  0  0  0
  1  2  1  0  0  0
  1  6  2  0  0  0
  7  5  1  0  0  0
  7  8  1  0  0  0
  7 11  1  0  0  0
  2  3  2  0  0  0
  3  4  1  0  0  0
  4  5  2  0  0  0
  5  6  1  0  0  0
  8  9  1  0  0  0
  9 10  1  0  0  0
 10 11  1  0  0  0
 13 14  1  0  0  0
 13 15  1  0  0  0
M  END
> <minimizedAffinity>
-5.81082

$$$$
4ABH_7Z3_A_1253


 15 16  0  0  0  0  0  0  0  0999 V2000
    3.5904  -10.7219   15.2715 C   0  0  0  0  0  0  0  0  0  0  0  0
    2.9068  -10.1831   14.1677 C   0  0  0  0  0  0  0  0  0  0  0  0
    2.0383  -10.9938   13.4681 C   0  0  0  0  0  0  0  0  0  0  0  0
    1.7266  -12.3046   13.8950 C   0  0  0  0  0  0  0  0  0  0  0  0
    2.3553  -12.7883   15.0122 C   0  0  0  0  0  0  0  0  0  0  0  0
    3.2866  -11.9897   15.6983 C   0  0  0  0  0  0  0  0  0  0  0  0
    2.0699  -14.1550   15.5192 N   0  0  0  0  0  0  0  0  0  0  0  0
    0.7721  -14.7315   15.0987 C   0  0  0  0  0  0  0  0  0  0  0  0
    0.6248  -15.8507   16.0949 C   0  0  0  0  0  0  0  0  0  0  0  0
    1.5176  -15.5453   17.2940 C   0  0  0  0  0  0  0  0  0  0  0  0
    2.4421  -14.4289   16.9317 C   0  0  0  0  0  0  0  0  0  0  0  0
    4.4891   -9.8106   16.0386 C   0  0  0  0  0  0  0  0  0  0  0  0
    3.9657   -9.4844   17.4112 N   0  0  0  0  0  0  0  0  0  0  0  0
    3.8927  -10.3413   17.9597 H   0  0  0  0  0  0  0  0  0  0  0  0
    3.0450   -9.0530   17.3304 H   0  0  0  0  0  0  0  0  0  0  0  0
 12 13  1  0  0  0
 12  1  1  0  0  0
  1  2  1  0  0  0
  1  6  2  0  0  0
  7  5  1  0  0  0
  7  8  1  0  0  0
  7 11  1  0  0  0
  2  3  2  0  0  0
  3  4  1  0  0  0
  4  5  2  0  0  0
  5  6  1  0  0  0
  8  9  1  0  0  0
  9 10  1  0  0  0
 10 11  1  0  0  0
 13 14  1  0  0  0
 13 15  1  0  0  0
M  END
> <minimizedAffinity>
-5.04682

$$$$
4ABH_7Z3_A_1253


 15 16  0  0  0  0  0  0  0  0999 V2000
    0.3943  -10.0973   15.6621 C   0  0  0  0  0  0  0  0  0  0  0  0
    1.0980   -9.4757   14.6159 C   0  0  0  0  0  0  0  0  0  0  0  0
    2.0964  -10.1822   13.9794 C   0  0  0  0  0  0  0  0  0  0  0  0
    2.3519  -11.5426   14.2647 C   0  0  0  0  0  0  0  0  0  0  0  0
    1.6096  -12.1493   15.2437 C   0  0  0  0  0  0  0  0  0  0  0  0
    0.6293  -11.4201   15.9388 C   0  0  0  0  0  0  0  0  0  0  0  0
    1.8220  -13.5781   15.5900 N   0  0  0  0  0  0  0  0  0  0  0  0
    0.8086  -14.5188   15.0593 C   0  0  0  0  0  0  0  0  0  0  0  0
    1.0638  -15.7249   15.9235 C   0  0  0  0  0  0  0  0  0  0  0  0
    1.7935  -15.2664   17.1827 C   0  0  0  0  0  0  0  0  0  0  0  0
    2.2675  -13.8642   16.9786 C   0  0  0  0  0  0  0  0  0  0  0  0
   -0.7114   -9.3273   16.3031 C   0  0  0  0  0  0  0  0  0  0  0  0
   -1.1343   -9.8968   17.6302 N   0  0  0  0  0  0  0  0  0  0  0  0
   -0.3491   -9.8632   18.2803 H   0  0  0  0  0  0  0  0  0  0  0  0
   -1.4316  -10.8645   17.5058 H   0  0  0  0  0  0  0  0  0  0  0  0
 12 13  1  0  0  0
 12  1  1  0  0  0
  1  2  1  0  0  0
  1  6  2  0  0  0
  7  5  1  0  0  0
  7  8  1  0  0  0
  7 11  1  0  0  0
  2  3  2  0  0  0
  3  4  1  0  0  0
  4  5  2  0  0  0
  5  6  1  0  0  0
  8  9  1  0  0  0
  9 10  1  0  0  0
 10 11  1  0  0  0
 13 14  1  0  0  0
 13 15  1  0  0  0
M  END
> <minimizedAffinity>
-5.02474

$$$$
4ABH_7Z3_A_1253


 15 16  0  0  0  0  0  0  0  0999 V2000
   -1.0463   -9.8436   15.8550 C   0  0  0  0  0  0  0  0  0  0  0  0
   -1.7769   -9.8030   14.6547 C   0  0  0  0  0  0  0  0  0  0  0  0
   -1.4617  -10.7024   13.6583 C   0  0  0  0  0  0  0  0  0  0  0  0
   -0.5142  -11.7332   13.8501 C   0  0  0  0  0  0  0  0  0  0  0  0
    0.1406  -11.7954   15.0522 C   0  0  0  0  0  0  0  0  0  0  0  0
   -0.1319  -10.8467   16.0530 C   0  0  0  0  0  0  0  0  0  0  0  0
    1.1441  -12.8566   15.3227 N   0  0  0  0  0  0  0  0  0  0  0  0
    0.7177  -14.2352   14.9894 C   0  0  0  0  0  0  0  0  0  0  0  0
    1.7299  -15.0380   15.7626 C   0  0  0  0  0  0  0  0  0  0  0  0
    2.3114  -14.1485   16.8577 C   0  0  0  0  0  0  0  0  0  0  0  0
    1.9137  -12.7337   16.5881 C   0  0  0  0  0  0  0  0  0  0  0  0
   -1.4380   -8.8901   16.9338 C   0  0  0  0  0  0  0  0  0  0  0  0
   -2.8052   -8.2961   16.7280 N   0  0  0  0  0  0  0  0  0  0  0  0
   -3.5036   -9.0394   16.7367 H   0  0  0  0  0  0  0  0  0  0  0  0
   -2.8343   -7.8128   15.8303 H   0  0  0  0  0  0  0  0  0  0  0  0
 12 13  1  0  0  0
 12  1  1  0  0  0
  1  2  1  0  0  0
  1  6  2  0  0  0
  7  5  1  0  0  0
  7  8  1  0  0  0
  7 11  1  0  0  0
  2  3  2  0  0  0
  3  4  1  0  0  0
  4  5  2  0  0  0
  5  6  1  0  0  0
  8  9  1  0  0  0
  9 10  1  0  0  0
 10 11  1  0  0  0
 13 14  1  0  0  0
 13 15  1  0  0  0
M  END
> <minimizedAffinity>
-4.66371

$$$$
4ABH_7Z3_A_1253


 15 16  0  0  0  0  0  0  0  0999 V2000
    1.7809  -14.0041   16.2250 C   0  0  0  0  0  0  0  0  0  0  0  0
    0.8320  -14.0248   15.1881 C   0  0  0  0  0  0  0  0  0  0  0  0
    0.6496  -12.8836   14.4361 C   0  0  0  0  0  0  0  0  0  0  0  0
    1.4649  -11.7405   14.5972 C   0  0  0  0  0  0  0  0  0  0  0  0
    2.4287  -11.7647   15.5710 C   0  0  0  0  0  0  0  0  0  0  0  0
    2.5829  -12.9024   16.3819 C   0  0  0  0  0  0  0  0  0  0  0  0
    3.3240  -10.5999   15.7901 N   0  0  0  0  0  0  0  0  0  0  0  0
    4.7633  -10.8489   15.5455 C   0  0  0  0  0  0  0  0  0  0  0  0
    5.3777   -9.6717   16.2550 C   0  0  0  0  0  0  0  0  0  0  0  0
    4.3637   -9.1368   17.2621 C   0  0  0  0  0  0  0  0  0  0  0  0
    3.0335   -9.7550   16.9777 C   0  0  0  0  0  0  0  0  0  0  0  0
    1.9910  -15.2659   16.9933 C   0  0  0  0  0  0  0  0  0  0  0  0
    2.7993  -15.0653   18.2467 N   0  0  0  0  0  0  0  0  0  0  0  0
    2.3046  -14.4294   18.8722 H   0  0  0  0  0  0  0  0  0  0  0  0
    3.7071  -14.6675   18.0058 H   0  0  0  0  0  0  0  0  0  0  0  0
 12 13  1  0  0  0
 12  1  1  0  0  0
  1  2  1  0  0  0
  1  6  2  0  0  0
  7  5  1  0  0  0
  7  8  1  0  0  0
  7 11  1  0  0  0
  2  3  2  0  0  0
  3  4  1  0  0  0
  4  5  2  0  0  0
  5  6  1  0  0  0
  8  9  1  0  0  0
  9 10  1  0  0  0
 10 11  1  0  0  0
 13 14  1  0  0  0
 13 15  1  0  0  0
M  END
> <minimizedAffinity>
-4.61625

$$$$
4ABH_7Z3_A_1253


 15 16  0  0  0  0  0  0  0  0999 V2000
    2.0199   -9.7423   14.5436 C   0  0  0  0  0  0  0  0  0  0  0  0
    3.4143   -9.5908   14.6368 C   0  0  0  0  0  0  0  0  0  0  0  0
    4.1467  -10.5811   15.2566 C   0  0  0  0  0  0  0  0  0  0  0  0
    3.5572  -11.7896   15.6919 C   0  0  0  0  0  0  0  0  0  0  0  0
    2.2052  -11.9447   15.5323 C   0  0  0  0  0  0  0  0  0  0  0  0
    1.4410  -10.9160   14.9546 C   0  0  0  0  0  0  0  0  0  0  0  0
    1.5223  -13.1918   15.9621 N   0  0  0  0  0  0  0  0  0  0  0  0
    2.3072  -14.0698   16.8602 C   0  0  0  0  0  0  0  0  0  0  0  0
    1.5420  -15.3602   16.7323 C   0  0  0  0  0  0  0  0  0  0  0  0
    0.7329  -15.3112   15.4395 C   0  0  0  0  0  0  0  0  0  0  0  0
    0.7371  -13.9089   14.9238 C   0  0  0  0  0  0  0  0  0  0  0  0
    1.2566   -8.6785   13.8278 C   0  0  0  0  0  0  0  0  0  0  0  0
   -0.0089   -9.1872   13.1921 N   0  0  0  0  0  0  0  0  0  0  0  0
   -0.6315   -9.5477   13.9151 H   0  0  0  0  0  0  0  0  0  0  0  0
    0.2171   -9.9338   12.5348 H   0  0  0  0  0  0  0  0  0  0  0  0
 12 13  1  0  0  0
 12  1  1  0  0  0
  1  2  1  0  0  0
  1  6  2  0  0  0
  7  5  1  0  0  0
  7  8  1  0  0  0
  7 11  1  0  0  0
  2  3  2  0  0  0
  3  4  1  0  0  0
  4  5  2  0  0  0
  5  6  1  0  0  0
  8  9  1  0  0  0
  9 10  1  0  0  0
 10 11  1  0  0  0
 13 14  1  0  0  0
 13 15  1  0  0  0
M  END
> <minimizedAffinity>
-4.38813

$$$$
4ABH_7Z3_A_1253


 15 16  0  0  0  0  0  0  0  0999 V2000
    0.6760  -12.3158   14.5739 C   0  0  0  0  0  0  0  0  0  0  0  0
    0.6668  -13.6828   14.9012 C   0  0  0  0  0  0  0  0  0  0  0  0
    1.7078  -14.1903   15.6495 C   0  0  0  0  0  0  0  0  0  0  0  0
    2.7147  -13.3613   16.1938 C   0  0  0  0  0  0  0  0  0  0  0  0
    2.6689  -12.0201   15.9168 C   0  0  0  0  0  0  0  0  0  0  0  0
    1.6440  -11.5025   15.1060 C   0  0  0  0  0  0  0  0  0  0  0  0
    3.6920  -11.0912   16.4616 N   0  0  0  0  0  0  0  0  0  0  0  0
    3.1609   -9.9185   17.1939 C   0  0  0  0  0  0  0  0  0  0  0  0
    4.3706   -9.0223   17.2061 C   0  0  0  0  0  0  0  0  0  0  0  0
    5.3079   -9.4674   16.0872 C   0  0  0  0  0  0  0  0  0  0  0  0
    4.8566  -10.8004   15.5854 C   0  0  0  0  0  0  0  0  0  0  0  0
   -0.4850  -11.7831   13.8027 C   0  0  0  0  0  0  0  0  0  0  0  0
   -0.1794  -11.5775   12.3437 N   0  0  0  0  0  0  0  0  0  0  0  0
    0.0600  -12.4726   11.9171 H   0  0  0  0  0  0  0  0  0  0  0  0
    0.6065  -10.9344   12.2483 H   0  0  0  0  0  0  0  0  0  0  0  0
 12 13  1  0  0  0
 12  1  1  0  0  0
  1  2  1  0  0  0
  1  6  2  0  0  0
  7  5  1  0  0  0
  7  8  1  0  0  0
  7 11  1  0  0  0
  2  3  2  0  0  0
  3  4  1  0  0  0
  4  5  2  0  0  0
  5  6  1  0  0  0
  8  9  1  0  0  0
  9 10  1  0  0  0
 10 11  1  0  0  0
 13 14  1  0  0  0
 13 15  1  0  0  0
M  END
> <minimizedAffinity>
-4.34635

$$$$
4ABH_7Z3_A_1253


 15 16  0  0  0  0  0  0  0  0999 V2000
    0.9851  -12.7978   14.7834 C   0  0  0  0  0  0  0  0  0  0  0  0
    1.8611  -12.6944   13.6890 C   0  0  0  0  0  0  0  0  0  0  0  0
    1.5303  -11.8436   12.6556 C   0  0  0  0  0  0  0  0  0  0  0  0
    0.4057  -10.9899   12.7172 C   0  0  0  0  0  0  0  0  0  0  0  0
   -0.4001  -11.0594   13.8233 C   0  0  0  0  0  0  0  0  0  0  0  0
   -0.1032  -11.9659   14.8557 C   0  0  0  0  0  0  0  0  0  0  0  0
   -1.5946  -10.1865   13.9554 N   0  0  0  0  0  0  0  0  0  0  0  0
   -1.8751   -9.3118   12.7936 C   0  0  0  0  0  0  0  0  0  0  0  0
   -2.8143   -8.3118   13.4139 C   0  0  0  0  0  0  0  0  0  0  0  0
   -2.6150   -8.3415   14.9265 C   0  0  0  0  0  0  0  0  0  0  0  0
   -1.8036   -9.5454   15.2797 C   0  0  0  0  0  0  0  0  0  0  0  0
    1.3891  -13.6905   15.9088 C   0  0  0  0  0  0  0  0  0  0  0  0
    1.6903  -12.9399   17.1778 N   0  0  0  0  0  0  0  0  0  0  0  0
    0.8523  -12.4492   17.4896 H   0  0  0  0  0  0  0  0  0  0  0  0
    2.4352  -12.2649   17.0049 H   0  0  0  0  0  0  0  0  0  0  0  0
 12 13  1  0  0  0
 12  1  1  0  0  0
  1  2  1  0  0  0
  1  6  2  0  0  0
  7  5  1  0  0  0
  7  8  1  0  0  0
  7 11  1  0  0  0
  2  3  2  0  0  0
  3  4  1  0  0  0
  4  5  2  0  0  0
  5  6  1  0  0  0
  8  9  1  0  0  0
  9 10  1  0  0  0
 10 11  1  0  0  0
 13 14  1  0  0  0
 13 15  1  0  0  0
M  END
> <minimizedAffinity>
-4.24475

$$$$
