2QI7_MZ9_B_200


 39 40  0  0  0  0  0  0  0  0999 V2000
   19.1590   31.2114   16.0387 C   0  0  0  0  0  0  0  0  0  0  0  0
   18.8597   30.6936   17.3462 O   0  0  0  0  0  0  0  0  0  0  0  0
   18.3374   31.3448   17.8402 H   0  0  0  0  0  0  0  0  0  0  0  0
   20.0038   32.4812   16.1756 C   0  0  0  0  0  0  0  0  0  0  0  0
   21.4339   32.1247   16.0319 N   0  0  0  0  0  0  0  0  0  0  0  0
   21.9420   32.1938   14.4902 S   0  0  0  0  0  0  0  0  0  0  0  0
   23.3188   32.5959   14.4469 O   0  0  0  0  0  0  0  0  0  0  0  0
   21.1374   33.2037   13.8584 O   0  0  0  0  0  0  0  0  0  0  0  0
   21.7465   30.7739   13.7468 C   0  0  0  0  0  0  0  0  0  0  0  0
   21.8198   29.5827   14.4680 C   0  0  0  0  0  0  0  0  0  0  0  0
   21.6716   28.3465   13.8466 C   0  0  0  0  0  0  0  0  0  0  0  0
   21.5223   30.7046   12.3749 C   0  0  0  0  0  0  0  0  0  0  0  0
   21.3723   29.4651   11.7416 C   0  0  0  0  0  0  0  0  0  0  0  0
   21.4433   28.2797   12.4657 C   0  0  0  0  0  0  0  0  0  0  0  0
   21.3008   27.0921   11.7835 O   0  0  0  0  0  0  0  0  0  0  0  0
   22.3671   26.1677   11.5259 C   0  0  0  0  0  0  0  0  0  0  0  0
   22.3131   32.9107   16.9312 C   0  0  0  0  0  0  0  0  0  0  0  0
   21.6031   34.1772   17.4039 C   0  0  0  0  0  0  0  0  0  0  0  0
   21.8845   34.5028   18.8743 C   0  0  0  0  0  0  0  0  0  0  0  0
   21.9464   35.3470   16.4775 C   0  0  0  0  0  0  0  0  0  0  0  0
   21.4984   36.6946   16.9945 C   0  0  0  0  0  0  0  0  0  0  0  0
   17.8842   31.4275   15.2262 C   0  0  0  0  0  0  0  0  0  0  0  0
   15.2640   32.0396   16.2779 O   0  0  0  0  0  0  0  0  0  0  0  0
   16.0766   32.9125   16.0203 C   0  0  0  0  0  0  0  0  0  0  0  0
   17.3105   32.7214   15.5485 N   0  0  0  0  0  0  0  0  0  0  0  0
   17.8732   33.5170   15.4087 H   0  0  0  0  0  0  0  0  0  0  0  0
   15.6797   34.3512   16.2328 C   0  0  0  0  0  0  0  0  0  0  0  0
   15.0662   34.5286   17.6178 C   0  0  0  0  0  0  0  0  0  0  0  0
   15.8043   35.4988   18.5203 C   0  0  0  0  0  0  0  0  0  0  0  0
   15.3093   35.9496   19.5537 O   0  0  0  0  0  0  0  0  0  0  0  0
   17.1927   35.8826   18.0535 C   0  0  0  0  0  0  0  0  0  0  0  0
   18.2928   35.2935   18.9013 C   0  0  0  0  0  0  0  0  0  0  0  0
   18.0906   31.3772   13.7123 C   0  0  0  0  0  0  0  0  0  0  0  0
   17.9857   29.9347   13.2549 C   0  0  0  0  0  0  0  0  0  0  0  0
   17.8634   29.6313   11.9015 C   0  0  0  0  0  0  0  0  0  0  0  0
   17.7770   28.3032   11.4837 C   0  0  0  0  0  0  0  0  0  0  0  0
   17.8141   27.2738   12.4214 C   0  0  0  0  0  0  0  0  0  0  0  0
   17.9410   27.5728   13.7678 C   0  0  0  0  0  0  0  0  0  0  0  0
   18.0278   28.8987   14.1913 C   0  0  0  0  0  0  0  0  0  0  0  0
 23 24  2  0  0  0
 24 27  1  0  0  0
 24 25  1  0  0  0
 27 28  1  0  0  0
 28 29  1  0  0  0
 29 31  1  0  0  0
 29 30  2  0  0  0
 31 32  1  0  0  0
 25 22  1  0  0  0
 22 33  1  0  0  0
 22  1  1  0  0  0
 33 34  1  0  0  0
 34 35  2  0  0  0
 34 39  1  0  0  0
 35 36  1  0  0  0
 36 37  2  0  0  0
 37 38  1  0  0  0
 38 39  2  0  0  0
  1  4  1  0  0  0
  1  2  1  0  0  0
  4  5  1  0  0  0
  5  6  1  0  0  0
  5 17  1  0  0  0
 17 18  1  0  0  0
 18 19  1  0  0  0
 18 20  1  0  0  0
 20 21  1  0  0  0
  6  8  2  0  0  0
  6  7  2  0  0  0
  6  9  1  0  0  0
  9 10  2  0  0  0
  9 12  1  0  0  0
 10 11  1  0  0  0
 11 14  2  0  0  0
 12 13  2  0  0  0
 13 14  1  0  0  0
 14 15  1  0  0  0
 15 16  1  0  0  0
 25 26  1  0  0  0
  2  3  1  0  0  0
M  END
> <minimizedAffinity>
-8.31740

$$$$
2QI7_MZ9_B_200


 39 40  0  0  0  0  0  0  0  0999 V2000
   19.8364   30.1451   15.7160 C   0  0  0  0  0  0  0  0  0  0  0  0
   19.9778   29.0012   16.5756 O   0  0  0  0  0  0  0  0  0  0  0  0
   19.1236   28.5483   16.6541 H   0  0  0  0  0  0  0  0  0  0  0  0
   18.8414   31.1289   16.3380 C   0  0  0  0  0  0  0  0  0  0  0  0
   19.0346   32.4616   15.7222 N   0  0  0  0  0  0  0  0  0  0  0  0
   17.6629   33.0619   15.0912 S   0  0  0  0  0  0  0  0  0  0  0  0
   16.8155   31.9894   14.6546 O   0  0  0  0  0  0  0  0  0  0  0  0
   18.0647   33.8379   13.9498 O   0  0  0  0  0  0  0  0  0  0  0  0
   16.8881   33.9932   16.1585 C   0  0  0  0  0  0  0  0  0  0  0  0
   16.0460   33.4237   17.1130 C   0  0  0  0  0  0  0  0  0  0  0  0
   15.3544   34.2070   18.0321 C   0  0  0  0  0  0  0  0  0  0  0  0
   17.0250   35.3781   16.1383 C   0  0  0  0  0  0  0  0  0  0  0  0
   16.3329   36.1737   17.0592 C   0  0  0  0  0  0  0  0  0  0  0  0
   15.4962   35.6009   18.0113 C   0  0  0  0  0  0  0  0  0  0  0  0
   14.8328   36.4374   18.8808 O   0  0  0  0  0  0  0  0  0  0  0  0
   15.1082   37.8368   19.0347 C   0  0  0  0  0  0  0  0  0  0  0  0
   19.6803   33.4292   16.6422 C   0  0  0  0  0  0  0  0  0  0  0  0
   21.1541   33.6086   16.2847 C   0  0  0  0  0  0  0  0  0  0  0  0
   22.0911   32.8439   17.2251 C   0  0  0  0  0  0  0  0  0  0  0  0
   21.3851   33.2425   14.8160 C   0  0  0  0  0  0  0  0  0  0  0  0
   22.8100   32.8550   14.4942 C   0  0  0  0  0  0  0  0  0  0  0  0
   19.4540   29.7256   14.2983 C   0  0  0  0  0  0  0  0  0  0  0  0
   21.0867   30.7986   12.1701 O   0  0  0  0  0  0  0  0  0  0  0  0
   21.2907   29.6940   12.6464 C   0  0  0  0  0  0  0  0  0  0  0  0
   20.6000   29.1273   13.6380 N   0  0  0  0  0  0  0  0  0  0  0  0
   20.8891   28.2374   13.9442 H   0  0  0  0  0  0  0  0  0  0  0  0
   22.4118   28.8611   12.0790 C   0  0  0  0  0  0  0  0  0  0  0  0
   22.0200   27.3871   12.0709 C   0  0  0  0  0  0  0  0  0  0  0  0
   23.1390   26.4340   11.6968 C   0  0  0  0  0  0  0  0  0  0  0  0
   22.9278   25.2868   11.3025 O   0  0  0  0  0  0  0  0  0  0  0  0
   24.5381   26.9915   11.8532 C   0  0  0  0  0  0  0  0  0  0  0  0
   25.4423   26.6734   10.6883 C   0  0  0  0  0  0  0  0  0  0  0  0
   18.3046   28.7201   14.2314 C   0  0  0  0  0  0  0  0  0  0  0  0
   18.0367   28.3840   12.7766 C   0  0  0  0  0  0  0  0  0  0  0  0
   18.4122   27.1476   12.2579 C   0  0  0  0  0  0  0  0  0  0  0  0
   18.1555   26.8383   10.9221 C   0  0  0  0  0  0  0  0  0  0  0  0
   17.5201   27.7672   10.1013 C   0  0  0  0  0  0  0  0  0  0  0  0
   17.1410   28.9957   10.6163 C   0  0  0  0  0  0  0  0  0  0  0  0
   17.3950   29.3105   11.9510 C   0  0  0  0  0  0  0  0  0  0  0  0
 23 24  2  0  0  0
 24 27  1  0  0  0
 24 25  1  0  0  0
 27 28  1  0  0  0
 28 29  1  0  0  0
 29 31  1  0  0  0
 29 30  2  0  0  0
 31 32  1  0  0  0
 25 22  1  0  0  0
 22 33  1  0  0  0
 22  1  1  0  0  0
 33 34  1  0  0  0
 34 35  2  0  0  0
 34 39  1  0  0  0
 35 36  1  0  0  0
 36 37  2  0  0  0
 37 38  1  0  0  0
 38 39  2  0  0  0
  1  4  1  0  0  0
  1  2  1  0  0  0
  4  5  1  0  0  0
  5  6  1  0  0  0
  5 17  1  0  0  0
 17 18  1  0  0  0
 18 19  1  0  0  0
 18 20  1  0  0  0
 20 21  1  0  0  0
  6  8  2  0  0  0
  6  7  2  0  0  0
  6  9  1  0  0  0
  9 10  2  0  0  0
  9 12  1  0  0  0
 10 11  1  0  0  0
 11 14  2  0  0  0
 12 13  2  0  0  0
 13 14  1  0  0  0
 14 15  1  0  0  0
 15 16  1  0  0  0
 25 26  1  0  0  0
  2  3  1  0  0  0
M  END
> <minimizedAffinity>
-7.90568

$$$$
2QI7_MZ9_B_200


 39 40  0  0  0  0  0  0  0  0999 V2000
   18.9726   29.1004   14.1854 C   0  0  0  0  0  0  0  0  0  0  0  0
   17.7004   28.6950   14.7187 O   0  0  0  0  0  0  0  0  0  0  0  0
   16.9992   28.9168   14.0862 H   0  0  0  0  0  0  0  0  0  0  0  0
   18.9820   30.6192   13.9909 C   0  0  0  0  0  0  0  0  0  0  0  0
   19.6294   31.2500   15.1638 N   0  0  0  0  0  0  0  0  0  0  0  0
   21.0218   31.9952   14.7819 S   0  0  0  0  0  0  0  0  0  0  0  0
   20.9457   32.5196   13.4485 O   0  0  0  0  0  0  0  0  0  0  0  0
   22.0356   30.9772   14.8294 O   0  0  0  0  0  0  0  0  0  0  0  0
   21.3601   33.1739   15.8322 C   0  0  0  0  0  0  0  0  0  0  0  0
   21.8761   32.8714   17.0918 C   0  0  0  0  0  0  0  0  0  0  0  0
   22.1594   33.8689   18.0199 C   0  0  0  0  0  0  0  0  0  0  0  0
   21.1270   34.5090   15.5153 C   0  0  0  0  0  0  0  0  0  0  0  0
   21.4090   35.5188   16.4430 C   0  0  0  0  0  0  0  0  0  0  0  0
   21.9264   35.2124   17.6972 C   0  0  0  0  0  0  0  0  0  0  0  0
   22.1704   36.2488   18.5703 O   0  0  0  0  0  0  0  0  0  0  0  0
   22.0057   37.6379   18.2522 C   0  0  0  0  0  0  0  0  0  0  0  0
   18.7151   32.1509   15.9068 C   0  0  0  0  0  0  0  0  0  0  0  0
   17.5138   32.5282   15.0429 C   0  0  0  0  0  0  0  0  0  0  0  0
   16.1749   32.2702   15.7415 C   0  0  0  0  0  0  0  0  0  0  0  0
   17.6463   33.9769   14.5654 C   0  0  0  0  0  0  0  0  0  0  0  0
   16.5308   34.8839   15.0312 C   0  0  0  0  0  0  0  0  0  0  0  0
   19.3047   28.3329   12.9077 C   0  0  0  0  0  0  0  0  0  0  0  0
   21.5685   29.6728   11.7136 O   0  0  0  0  0  0  0  0  0  0  0  0
   21.6874   28.6225   12.3231 C   0  0  0  0  0  0  0  0  0  0  0  0
   20.7034   27.9449   12.9181 N   0  0  0  0  0  0  0  0  0  0  0  0
   20.9441   27.1207   13.3998 H   0  0  0  0  0  0  0  0  0  0  0  0
   23.0564   27.9994   12.4238 C   0  0  0  0  0  0  0  0  0  0  0  0
   23.4548   27.3858   11.0855 C   0  0  0  0  0  0  0  0  0  0  0  0
   23.4164   25.8700   11.0447 C   0  0  0  0  0  0  0  0  0  0  0  0
   24.4330   25.1794   11.1200 O   0  0  0  0  0  0  0  0  0  0  0  0
   22.0364   25.2653   10.8938 C   0  0  0  0  0  0  0  0  0  0  0  0
   21.7188   24.8454    9.4800 C   0  0  0  0  0  0  0  0  0  0  0  0
   18.4746   27.0653   12.7050 C   0  0  0  0  0  0  0  0  0  0  0  0
   18.3177   26.8197   11.2163 C   0  0  0  0  0  0  0  0  0  0  0  0
   18.4049   27.8769   10.3143 C   0  0  0  0  0  0  0  0  0  0  0  0
   18.2699   27.6458    8.9452 C   0  0  0  0  0  0  0  0  0  0  0  0
   18.0481   26.3536    8.4751 C   0  0  0  0  0  0  0  0  0  0  0  0
   17.9661   25.2996    9.3699 C   0  0  0  0  0  0  0  0  0  0  0  0
   18.1003   25.5246   10.7397 C   0  0  0  0  0  0  0  0  0  0  0  0
 23 24  2  0  0  0
 24 27  1  0  0  0
 24 25  1  0  0  0
 27 28  1  0  0  0
 28 29  1  0  0  0
 29 31  1  0  0  0
 29 30  2  0  0  0
 31 32  1  0  0  0
 25 22  1  0  0  0
 22 33  1  0  0  0
 22  1  1  0  0  0
 33 34  1  0  0  0
 34 35  2  0  0  0
 34 39  1  0  0  0
 35 36  1  0  0  0
 36 37  2  0  0  0
 37 38  1  0  0  0
 38 39  2  0  0  0
  1  4  1  0  0  0
  1  2  1  0  0  0
  4  5  1  0  0  0
  5  6  1  0  0  0
  5 17  1  0  0  0
 17 18  1  0  0  0
 18 19  1  0  0  0
 18 20  1  0  0  0
 20 21  1  0  0  0
  6  8  2  0  0  0
  6  7  2  0  0  0
  6  9  1  0  0  0
  9 10  2  0  0  0
  9 12  1  0  0  0
 10 11  1  0  0  0
 11 14  2  0  0  0
 12 13  2  0  0  0
 13 14  1  0  0  0
 14 15  1  0  0  0
 15 16  1  0  0  0
 25 26  1  0  0  0
  2  3  1  0  0  0
M  END
> <minimizedAffinity>
-7.79090

$$$$
2QI7_MZ9_B_200


 39 40  0  0  0  0  0  0  0  0999 V2000
   18.6761   29.2083   13.9685 C   0  0  0  0  0  0  0  0  0  0  0  0
   17.7295   28.4796   14.7686 O   0  0  0  0  0  0  0  0  0  0  0  0
   16.8922   28.3988   14.2856 H   0  0  0  0  0  0  0  0  0  0  0  0
   18.1453   30.6218   13.7138 C   0  0  0  0  0  0  0  0  0  0  0  0
   18.7928   31.5565   14.6624 N   0  0  0  0  0  0  0  0  0  0  0  0
   17.9470   31.7343   16.0382 S   0  0  0  0  0  0  0  0  0  0  0  0
   18.7054   31.2295   17.1468 O   0  0  0  0  0  0  0  0  0  0  0  0
   16.7635   30.9349   15.8754 O   0  0  0  0  0  0  0  0  0  0  0  0
   17.5510   33.2801   16.2843 C   0  0  0  0  0  0  0  0  0  0  0  0
   17.9338   33.9296   17.4573 C   0  0  0  0  0  0  0  0  0  0  0  0
   17.5896   35.2560   17.6993 C   0  0  0  0  0  0  0  0  0  0  0  0
   16.8056   33.9901   15.3474 C   0  0  0  0  0  0  0  0  0  0  0  0
   16.4549   35.3247   15.5828 C   0  0  0  0  0  0  0  0  0  0  0  0
   16.8415   35.9693   16.7532 C   0  0  0  0  0  0  0  0  0  0  0  0
   16.4544   37.2785   16.9323 O   0  0  0  0  0  0  0  0  0  0  0  0
   17.3183   38.3280   17.3904 C   0  0  0  0  0  0  0  0  0  0  0  0
   20.2083   31.2070   14.9342 C   0  0  0  0  0  0  0  0  0  0  0  0
   21.1384   32.3152   14.4457 C   0  0  0  0  0  0  0  0  0  0  0  0
   21.0402   33.5892   15.2911 C   0  0  0  0  0  0  0  0  0  0  0  0
   22.5744   31.7918   14.3547 C   0  0  0  0  0  0  0  0  0  0  0  0
   23.6262   32.8084   14.7342 C   0  0  0  0  0  0  0  0  0  0  0  0
   19.0070   28.4542   12.6824 C   0  0  0  0  0  0  0  0  0  0  0  0
   21.3533   29.8781   11.7804 O   0  0  0  0  0  0  0  0  0  0  0  0
   21.4208   28.7543   12.2506 C   0  0  0  0  0  0  0  0  0  0  0  0
   20.3953   28.0310   12.7054 N   0  0  0  0  0  0  0  0  0  0  0  0
   20.5954   27.1447   13.0845 H   0  0  0  0  0  0  0  0  0  0  0  0
   22.7703   28.0871   12.3305 C   0  0  0  0  0  0  0  0  0  0  0  0
   22.8670   26.9703   11.2963 C   0  0  0  0  0  0  0  0  0  0  0  0
   24.2476   26.3604   11.1466 C   0  0  0  0  0  0  0  0  0  0  0  0
   24.8284   25.7996   12.0763 O   0  0  0  0  0  0  0  0  0  0  0  0
   24.8669   26.4999    9.7719 C   0  0  0  0  0  0  0  0  0  0  0  0
   24.3037   25.5316    8.7613 C   0  0  0  0  0  0  0  0  0  0  0  0
   18.1485   27.2115   12.4467 C   0  0  0  0  0  0  0  0  0  0  0  0
   18.1702   26.8792   10.9668 C   0  0  0  0  0  0  0  0  0  0  0  0
   18.1803   27.8962   10.0159 C   0  0  0  0  0  0  0  0  0  0  0  0
   18.2101   27.5870    8.6559 C   0  0  0  0  0  0  0  0  0  0  0  0
   18.2310   26.2565    8.2441 C   0  0  0  0  0  0  0  0  0  0  0  0
   18.2262   25.2431    9.1881 C   0  0  0  0  0  0  0  0  0  0  0  0
   18.1965   25.5463   10.5491 C   0  0  0  0  0  0  0  0  0  0  0  0
 23 24  2  0  0  0
 24 27  1  0  0  0
 24 25  1  0  0  0
 27 28  1  0  0  0
 28 29  1  0  0  0
 29 31  1  0  0  0
 29 30  2  0  0  0
 31 32  1  0  0  0
 25 22  1  0  0  0
 22 33  1  0  0  0
 22  1  1  0  0  0
 33 34  1  0  0  0
 34 35  2  0  0  0
 34 39  1  0  0  0
 35 36  1  0  0  0
 36 37  2  0  0  0
 37 38  1  0  0  0
 38 39  2  0  0  0
  1  4  1  0  0  0
  1  2  1  0  0  0
  4  5  1  0  0  0
  5  6  1  0  0  0
  5 17  1  0  0  0
 17 18  1  0  0  0
 18 19  1  0  0  0
 18 20  1  0  0  0
 20 21  1  0  0  0
  6  8  2  0  0  0
  6  7  2  0  0  0
  6  9  1  0  0  0
  9 10  2  0  0  0
  9 12  1  0  0  0
 10 11  1  0  0  0
 11 14  2  0  0  0
 12 13  2  0  0  0
 13 14  1  0  0  0
 14 15  1  0  0  0
 15 16  1  0  0  0
 25 26  1  0  0  0
  2  3  1  0  0  0
M  END
> <minimizedAffinity>
-7.70106

$$$$
2QI7_MZ9_B_200


 39 40  0  0  0  0  0  0  0  0999 V2000
   20.5728   29.9570   14.3714 C   0  0  0  0  0  0  0  0  0  0  0  0
   21.9543   29.9588   14.7698 O   0  0  0  0  0  0  0  0  0  0  0  0
   22.3931   30.7464   14.4117 H   0  0  0  0  0  0  0  0  0  0  0  0
   20.4839   29.8878   12.8442 C   0  0  0  0  0  0  0  0  0  0  0  0
   20.1189   28.5090   12.4462 N   0  0  0  0  0  0  0  0  0  0  0  0
   18.5502   28.3699   12.0463 S   0  0  0  0  0  0  0  0  0  0  0  0
   18.1427   29.5025   11.2651 O   0  0  0  0  0  0  0  0  0  0  0  0
   17.8284   28.3721   13.2894 O   0  0  0  0  0  0  0  0  0  0  0  0
   18.2731   26.9996   11.2385 C   0  0  0  0  0  0  0  0  0  0  0  0
   18.2884   25.7731   11.9015 C   0  0  0  0  0  0  0  0  0  0  0  0
   18.0693   24.5776   11.2237 C   0  0  0  0  0  0  0  0  0  0  0  0
   18.0344   27.0082    9.8673 C   0  0  0  0  0  0  0  0  0  0  0  0
   17.8132   25.8103    9.1775 C   0  0  0  0  0  0  0  0  0  0  0  0
   17.8266   24.5893    9.8437 C   0  0  0  0  0  0  0  0  0  0  0  0
   17.6153   23.4451    9.1074 O   0  0  0  0  0  0  0  0  0  0  0  0
   17.8484   23.3294    7.6967 C   0  0  0  0  0  0  0  0  0  0  0  0
   21.0019   27.9667   11.3851 C   0  0  0  0  0  0  0  0  0  0  0  0
   21.9934   26.9645   11.9720 C   0  0  0  0  0  0  0  0  0  0  0  0
   22.0067   25.6307   11.2183 C   0  0  0  0  0  0  0  0  0  0  0  0
   23.3866   27.5941   12.0562 C   0  0  0  0  0  0  0  0  0  0  0  0
   24.5147   26.6389   11.7417 C   0  0  0  0  0  0  0  0  0  0  0  0
   19.8279   31.1537   14.9590 C   0  0  0  0  0  0  0  0  0  0  0  0
   21.8155   32.9173   13.8252 O   0  0  0  0  0  0  0  0  0  0  0  0
   21.6649   32.8040   15.0306 C   0  0  0  0  0  0  0  0  0  0  0  0
   20.7651   32.0287   15.6396 N   0  0  0  0  0  0  0  0  0  0  0  0
   20.7347   32.0521   16.6233 H   0  0  0  0  0  0  0  0  0  0  0  0
   22.5688   33.5897   15.9462 C   0  0  0  0  0  0  0  0  0  0  0  0
   22.1307   33.4132   17.3964 C   0  0  0  0  0  0  0  0  0  0  0  0
   21.5351   34.6529   18.0358 C   0  0  0  0  0  0  0  0  0  0  0  0
   21.9980   35.1579   19.0589 O   0  0  0  0  0  0  0  0  0  0  0  0
   20.3213   35.2205   17.3306 C   0  0  0  0  0  0  0  0  0  0  0  0
   19.0139   34.7451   17.9140 C   0  0  0  0  0  0  0  0  0  0  0  0
   19.0781   31.9937   13.9250 C   0  0  0  0  0  0  0  0  0  0  0  0
   17.8937   32.6559   14.6031 C   0  0  0  0  0  0  0  0  0  0  0  0
   17.7018   34.0313   14.5019 C   0  0  0  0  0  0  0  0  0  0  0  0
   16.6061   34.6355   15.1187 C   0  0  0  0  0  0  0  0  0  0  0  0
   15.6978   33.8627   15.8384 C   0  0  0  0  0  0  0  0  0  0  0  0
   15.8837   32.4937   15.9362 C   0  0  0  0  0  0  0  0  0  0  0  0
   16.9773   31.8842   15.3217 C   0  0  0  0  0  0  0  0  0  0  0  0
 23 24  2  0  0  0
 24 27  1  0  0  0
 24 25  1  0  0  0
 27 28  1  0  0  0
 28 29  1  0  0  0
 29 31  1  0  0  0
 29 30  2  0  0  0
 31 32  1  0  0  0
 25 22  1  0  0  0
 22 33  1  0  0  0
 22  1  1  0  0  0
 33 34  1  0  0  0
 34 35  2  0  0  0
 34 39  1  0  0  0
 35 36  1  0  0  0
 36 37  2  0  0  0
 37 38  1  0  0  0
 38 39  2  0  0  0
  1  4  1  0  0  0
  1  2  1  0  0  0
  4  5  1  0  0  0
  5  6  1  0  0  0
  5 17  1  0  0  0
 17 18  1  0  0  0
 18 19  1  0  0  0
 18 20  1  0  0  0
 20 21  1  0  0  0
  6  8  2  0  0  0
  6  7  2  0  0  0
  6  9  1  0  0  0
  9 10  2  0  0  0
  9 12  1  0  0  0
 10 11  1  0  0  0
 11 14  2  0  0  0
 12 13  2  0  0  0
 13 14  1  0  0  0
 14 15  1  0  0  0
 15 16  1  0  0  0
 25 26  1  0  0  0
  2  3  1  0  0  0
M  END
> <minimizedAffinity>
-7.69019

$$$$
2QI7_MZ9_B_200


 39 40  0  0  0  0  0  0  0  0999 V2000
   19.3116   29.6211   14.5919 C   0  0  0  0  0  0  0  0  0  0  0  0
   20.1749   28.6868   15.2621 O   0  0  0  0  0  0  0  0  0  0  0  0
   21.0889   29.0100   15.2290 H   0  0  0  0  0  0  0  0  0  0  0  0
   19.7182   29.7232   13.1191 C   0  0  0  0  0  0  0  0  0  0  0  0
   19.6037   28.3851   12.4952 N   0  0  0  0  0  0  0  0  0  0  0  0
   18.1399   28.1259   11.8394 S   0  0  0  0  0  0  0  0  0  0  0  0
   17.7844   29.2246   10.9877 O   0  0  0  0  0  0  0  0  0  0  0  0
   17.2212   28.0708   12.9437 O   0  0  0  0  0  0  0  0  0  0  0  0
   18.1079   26.7393   11.0128 C   0  0  0  0  0  0  0  0  0  0  0  0
   17.9451   26.7458    9.6279 C   0  0  0  0  0  0  0  0  0  0  0  0
   17.8973   25.5632    8.8961 C   0  0  0  0  0  0  0  0  0  0  0  0
   18.2204   25.5125   11.6605 C   0  0  0  0  0  0  0  0  0  0  0  0
   18.1732   24.3179   10.9320 C   0  0  0  0  0  0  0  0  0  0  0  0
   18.0136   24.3296    9.5503 C   0  0  0  0  0  0  0  0  0  0  0  0
   17.9614   23.1213    8.8921 O   0  0  0  0  0  0  0  0  0  0  0  0
   17.2381   22.8868    7.6757 C   0  0  0  0  0  0  0  0  0  0  0  0
   20.6916   28.1107   11.5253 C   0  0  0  0  0  0  0  0  0  0  0  0
   21.7748   27.2446   12.1643 C   0  0  0  0  0  0  0  0  0  0  0  0
   21.9832   25.9159   11.4305 C   0  0  0  0  0  0  0  0  0  0  0  0
   23.0750   28.0428   12.2939 C   0  0  0  0  0  0  0  0  0  0  0  0
   24.3172   27.2599   11.9359 C   0  0  0  0  0  0  0  0  0  0  0  0
   19.3028   30.9721   15.3037 C   0  0  0  0  0  0  0  0  0  0  0  0
   17.4796   33.0353   14.4291 O   0  0  0  0  0  0  0  0  0  0  0  0
   17.1928   32.2568   15.3237 C   0  0  0  0  0  0  0  0  0  0  0  0
   17.9636   31.2671   15.7796 N   0  0  0  0  0  0  0  0  0  0  0  0
   17.5965   30.6946   16.4916 H   0  0  0  0  0  0  0  0  0  0  0  0
   15.8567   32.4046   16.0060 C   0  0  0  0  0  0  0  0  0  0  0  0
   15.6329   33.8566   16.4155 C   0  0  0  0  0  0  0  0  0  0  0  0
   16.0773   34.1951   17.8256 C   0  0  0  0  0  0  0  0  0  0  0  0
   15.2894   34.2668   18.7691 O   0  0  0  0  0  0  0  0  0  0  0  0
   17.5610   34.4495   17.9889 C   0  0  0  0  0  0  0  0  0  0  0  0
   17.8714   35.7502   18.6872 C   0  0  0  0  0  0  0  0  0  0  0  0
   20.2482   31.0545   16.5023 C   0  0  0  0  0  0  0  0  0  0  0  0
   21.4335   31.9239   16.1277 C   0  0  0  0  0  0  0  0  0  0  0  0
   22.2580   31.5711   15.0626 C   0  0  0  0  0  0  0  0  0  0  0  0
   23.3414   32.3781   14.7149 C   0  0  0  0  0  0  0  0  0  0  0  0
   23.6017   33.5428   15.4331 C   0  0  0  0  0  0  0  0  0  0  0  0
   22.7799   33.8986   16.4897 C   0  0  0  0  0  0  0  0  0  0  0  0
   21.6954   33.0957   16.8419 C   0  0  0  0  0  0  0  0  0  0  0  0
 23 24  2  0  0  0
 24 27  1  0  0  0
 24 25  1  0  0  0
 27 28  1  0  0  0
 28 29  1  0  0  0
 29 31  1  0  0  0
 29 30  2  0  0  0
 31 32  1  0  0  0
 25 22  1  0  0  0
 22 33  1  0  0  0
 22  1  1  0  0  0
 33 34  1  0  0  0
 34 35  2  0  0  0
 34 39  1  0  0  0
 35 36  1  0  0  0
 36 37  2  0  0  0
 37 38  1  0  0  0
 38 39  2  0  0  0
  1  4  1  0  0  0
  1  2  1  0  0  0
  4  5  1  0  0  0
  5  6  1  0  0  0
  5 17  1  0  0  0
 17 18  1  0  0  0
 18 19  1  0  0  0
 18 20  1  0  0  0
 20 21  1  0  0  0
  6  8  2  0  0  0
  6  7  2  0  0  0
  6  9  1  0  0  0
  9 10  2  0  0  0
  9 12  1  0  0  0
 10 11  1  0  0  0
 11 14  2  0  0  0
 12 13  2  0  0  0
 13 14  1  0  0  0
 14 15  1  0  0  0
 15 16  1  0  0  0
 25 26  1  0  0  0
  2  3  1  0  0  0
M  END
> <minimizedAffinity>
-7.59797

$$$$
2QI7_MZ9_B_200


 39 40  0  0  0  0  0  0  0  0999 V2000
   17.6406   32.5271   14.8743 C   0  0  0  0  0  0  0  0  0  0  0  0
   16.3661   31.9062   15.1141 O   0  0  0  0  0  0  0  0  0  0  0  0
   16.2982   31.6582   16.0494 H   0  0  0  0  0  0  0  0  0  0  0  0
   18.7591   31.5253   15.1746 C   0  0  0  0  0  0  0  0  0  0  0  0
   19.0967   30.7951   13.9313 N   0  0  0  0  0  0  0  0  0  0  0  0
   20.4401   31.3661   13.2179 S   0  0  0  0  0  0  0  0  0  0  0  0
   21.1145   32.2739   14.1012 O   0  0  0  0  0  0  0  0  0  0  0  0
   19.9906   32.0861   12.0577 O   0  0  0  0  0  0  0  0  0  0  0  0
   21.4272   30.1639   12.7851 C   0  0  0  0  0  0  0  0  0  0  0  0
   21.3659   29.6274   11.4995 C   0  0  0  0  0  0  0  0  0  0  0  0
   22.1944   28.5798   11.1088 C   0  0  0  0  0  0  0  0  0  0  0  0
   22.3419   29.6245   13.6848 C   0  0  0  0  0  0  0  0  0  0  0  0
   23.1791   28.5704   13.3002 C   0  0  0  0  0  0  0  0  0  0  0  0
   23.1164   28.0404   12.0158 C   0  0  0  0  0  0  0  0  0  0  0  0
   23.9567   26.9957   11.7022 O   0  0  0  0  0  0  0  0  0  0  0  0
   23.5427   25.7819   11.0593 C   0  0  0  0  0  0  0  0  0  0  0  0
   19.1674   29.3272   14.1307 C   0  0  0  0  0  0  0  0  0  0  0  0
   18.2650   28.6056   13.1324 C   0  0  0  0  0  0  0  0  0  0  0  0
   17.4017   27.5221   13.7868 C   0  0  0  0  0  0  0  0  0  0  0  0
   17.4245   29.6227   12.3557 C   0  0  0  0  0  0  0  0  0  0  0  0
   16.9743   29.1404   10.9961 C   0  0  0  0  0  0  0  0  0  0  0  0
   17.7771   33.8280   15.6624 C   0  0  0  0  0  0  0  0  0  0  0  0
   19.5136   34.6575   17.8171 O   0  0  0  0  0  0  0  0  0  0  0  0
   19.8754   34.6772   16.6521 C   0  0  0  0  0  0  0  0  0  0  0  0
   19.1489   34.2986   15.5983 N   0  0  0  0  0  0  0  0  0  0  0  0
   19.5749   34.3418   14.7118 H   0  0  0  0  0  0  0  0  0  0  0  0
   21.2613   35.1797   16.3369 C   0  0  0  0  0  0  0  0  0  0  0  0
   21.4537   36.5826   16.9035 C   0  0  0  0  0  0  0  0  0  0  0  0
   22.3615   36.6592   18.1162 C   0  0  0  0  0  0  0  0  0  0  0  0
   22.3531   35.8069   19.0048 O   0  0  0  0  0  0  0  0  0  0  0  0
   23.2736   37.8670   18.1617 C   0  0  0  0  0  0  0  0  0  0  0  0
   22.7080   39.0708   17.4497 C   0  0  0  0  0  0  0  0  0  0  0  0
   16.8766   34.9588   15.1652 C   0  0  0  0  0  0  0  0  0  0  0  0
   16.1587   35.5675   16.3548 C   0  0  0  0  0  0  0  0  0  0  0  0
   15.0799   34.9094   16.9396 C   0  0  0  0  0  0  0  0  0  0  0  0
   14.4283   35.4675   18.0396 C   0  0  0  0  0  0  0  0  0  0  0  0
   14.8566   36.6871   18.5583 C   0  0  0  0  0  0  0  0  0  0  0  0
   15.9327   37.3412   17.9816 C   0  0  0  0  0  0  0  0  0  0  0  0
   16.5880   36.7881   16.8818 C   0  0  0  0  0  0  0  0  0  0  0  0
 23 24  2  0  0  0
 24 27  1  0  0  0
 24 25  1  0  0  0
 27 28  1  0  0  0
 28 29  1  0  0  0
 29 31  1  0  0  0
 29 30  2  0  0  0
 31 32  1  0  0  0
 25 22  1  0  0  0
 22 33  1  0  0  0
 22  1  1  0  0  0
 33 34  1  0  0  0
 34 35  2  0  0  0
 34 39  1  0  0  0
 35 36  1  0  0  0
 36 37  2  0  0  0
 37 38  1  0  0  0
 38 39  2  0  0  0
  1  4  1  0  0  0
  1  2  1  0  0  0
  4  5  1  0  0  0
  5  6  1  0  0  0
  5 17  1  0  0  0
 17 18  1  0  0  0
 18 19  1  0  0  0
 18 20  1  0  0  0
 20 21  1  0  0  0
  6  8  2  0  0  0
  6  7  2  0  0  0
  6  9  1  0  0  0
  9 10  2  0  0  0
  9 12  1  0  0  0
 10 11  1  0  0  0
 11 14  2  0  0  0
 12 13  2  0  0  0
 13 14  1  0  0  0
 14 15  1  0  0  0
 15 16  1  0  0  0
 25 26  1  0  0  0
  2  3  1  0  0  0
M  END
> <minimizedAffinity>
-7.43430

$$$$
2QI7_MZ9_B_200


 39 40  0  0  0  0  0  0  0  0999 V2000
   18.1210   31.1731   14.8797 C   0  0  0  0  0  0  0  0  0  0  0  0
   18.9160   30.3023   15.7024 O   0  0  0  0  0  0  0  0  0  0  0  0
   19.8174   30.6543   15.7692 H   0  0  0  0  0  0  0  0  0  0  0  0
   18.7111   31.2173   13.4674 C   0  0  0  0  0  0  0  0  0  0  0  0
   19.1559   29.8563   13.0896 N   0  0  0  0  0  0  0  0  0  0  0  0
   17.9255   28.9074   12.6146 S   0  0  0  0  0  0  0  0  0  0  0  0
   16.8176   29.7171   12.1951 O   0  0  0  0  0  0  0  0  0  0  0  0
   17.5427   28.1529   13.7768 O   0  0  0  0  0  0  0  0  0  0  0  0
   18.3796   27.9145   11.4251 C   0  0  0  0  0  0  0  0  0  0  0  0
   19.0629   26.7335   11.7126 C   0  0  0  0  0  0  0  0  0  0  0  0
   19.4794   25.8706   10.7034 C   0  0  0  0  0  0  0  0  0  0  0  0
   18.1200   28.2217   10.0927 C   0  0  0  0  0  0  0  0  0  0  0  0
   18.5355   27.3594    9.0711 C   0  0  0  0  0  0  0  0  0  0  0  0
   19.2143   26.1809    9.3630 C   0  0  0  0  0  0  0  0  0  0  0  0
   19.6083   25.3811    8.3137 O   0  0  0  0  0  0  0  0  0  0  0  0
   19.4237   25.7050    6.9284 C   0  0  0  0  0  0  0  0  0  0  0  0
   20.2516   29.8689   12.0902 C   0  0  0  0  0  0  0  0  0  0  0  0
   21.5467   29.3447   12.7066 C   0  0  0  0  0  0  0  0  0  0  0  0
   21.3188   28.6053   14.0291 C   0  0  0  0  0  0  0  0  0  0  0  0
   22.3018   28.4865   11.6880 C   0  0  0  0  0  0  0  0  0  0  0  0
   23.5858   27.8896   12.2163 C   0  0  0  0  0  0  0  0  0  0  0  0
   17.9835   32.5560   15.5126 C   0  0  0  0  0  0  0  0  0  0  0  0
   19.3900   34.2012   17.4261 O   0  0  0  0  0  0  0  0  0  0  0  0
   19.7937   34.0494   16.2848 C   0  0  0  0  0  0  0  0  0  0  0  0
   19.2194   33.2982   15.3427 N   0  0  0  0  0  0  0  0  0  0  0  0
   19.6673   33.2435   14.4677 H   0  0  0  0  0  0  0  0  0  0  0  0
   21.0484   34.7708   15.8629 C   0  0  0  0  0  0  0  0  0  0  0  0
   22.2330   34.2993   16.6999 C   0  0  0  0  0  0  0  0  0  0  0  0
   22.4324   32.7960   16.7291 C   0  0  0  0  0  0  0  0  0  0  0  0
   22.3570   32.1378   17.7670 O   0  0  0  0  0  0  0  0  0  0  0  0
   22.7418   32.1619   15.3892 C   0  0  0  0  0  0  0  0  0  0  0  0
   23.8854   32.8260   14.6633 C   0  0  0  0  0  0  0  0  0  0  0  0
   16.8520   33.4021   14.9289 C   0  0  0  0  0  0  0  0  0  0  0  0
   16.2276   34.2163   16.0462 C   0  0  0  0  0  0  0  0  0  0  0  0
   16.4018   35.5969   16.0947 C   0  0  0  0  0  0  0  0  0  0  0  0
   15.8180   36.3436   17.1182 C   0  0  0  0  0  0  0  0  0  0  0  0
   15.0562   35.7090   18.0965 C   0  0  0  0  0  0  0  0  0  0  0  0
   14.8771   34.3365   18.0475 C   0  0  0  0  0  0  0  0  0  0  0  0
   15.4584   33.5848   17.0267 C   0  0  0  0  0  0  0  0  0  0  0  0
 23 24  2  0  0  0
 24 27  1  0  0  0
 24 25  1  0  0  0
 27 28  1  0  0  0
 28 29  1  0  0  0
 29 31  1  0  0  0
 29 30  2  0  0  0
 31 32  1  0  0  0
 25 22  1  0  0  0
 22 33  1  0  0  0
 22  1  1  0  0  0
 33 34  1  0  0  0
 34 35  2  0  0  0
 34 39  1  0  0  0
 35 36  1  0  0  0
 36 37  2  0  0  0
 37 38  1  0  0  0
 38 39  2  0  0  0
  1  4  1  0  0  0
  1  2  1  0  0  0
  4  5  1  0  0  0
  5  6  1  0  0  0
  5 17  1  0  0  0
 17 18  1  0  0  0
 18 19  1  0  0  0
 18 20  1  0  0  0
 20 21  1  0  0  0
  6  8  2  0  0  0
  6  7  2  0  0  0
  6  9  1  0  0  0
  9 10  2  0  0  0
  9 12  1  0  0  0
 10 11  1  0  0  0
 11 14  2  0  0  0
 12 13  2  0  0  0
 13 14  1  0  0  0
 14 15  1  0  0  0
 15 16  1  0  0  0
 25 26  1  0  0  0
  2  3  1  0  0  0
M  END
> <minimizedAffinity>
-7.35679

$$$$
2QI7_MZ9_B_200


 39 40  0  0  0  0  0  0  0  0999 V2000
   21.5893   29.4382   13.8880 C   0  0  0  0  0  0  0  0  0  0  0  0
   22.7049   29.2942   14.7834 O   0  0  0  0  0  0  0  0  0  0  0  0
   22.6093   28.4721   15.2894 H   0  0  0  0  0  0  0  0  0  0  0  0
   20.2948   29.5371   14.6999 C   0  0  0  0  0  0  0  0  0  0  0  0
   19.8472   30.9485   14.7207 N   0  0  0  0  0  0  0  0  0  0  0  0
   18.3847   31.1491   14.0418 S   0  0  0  0  0  0  0  0  0  0  0  0
   17.6682   29.9059   14.0483 O   0  0  0  0  0  0  0  0  0  0  0  0
   18.6357   31.5397   12.6813 O   0  0  0  0  0  0  0  0  0  0  0  0
   17.5378   32.2913   14.8067 C   0  0  0  0  0  0  0  0  0  0  0  0
   16.6194   31.9458   15.7974 C   0  0  0  0  0  0  0  0  0  0  0  0
   15.8657   32.9109   16.4584 C   0  0  0  0  0  0  0  0  0  0  0  0
   17.6881   33.6367   14.4833 C   0  0  0  0  0  0  0  0  0  0  0  0
   16.9338   34.6142   15.1431 C   0  0  0  0  0  0  0  0  0  0  0  0
   16.0210   34.2649   16.1328 C   0  0  0  0  0  0  0  0  0  0  0  0
   15.2996   35.2710   16.7357 O   0  0  0  0  0  0  0  0  0  0  0  0
   14.4379   35.0894   17.8680 C   0  0  0  0  0  0  0  0  0  0  0  0
   19.9056   31.5478   16.0761 C   0  0  0  0  0  0  0  0  0  0  0  0
   20.9219   32.6868   16.1162 C   0  0  0  0  0  0  0  0  0  0  0  0
   22.0821   32.4145   17.0790 C   0  0  0  0  0  0  0  0  0  0  0  0
   21.4092   33.0042   14.6998 C   0  0  0  0  0  0  0  0  0  0  0  0
   22.9075   32.9067   14.5272 C   0  0  0  0  0  0  0  0  0  0  0  0
   21.5618   28.3132   12.8557 C   0  0  0  0  0  0  0  0  0  0  0  0
   20.6308   25.9256   11.5219 O   0  0  0  0  0  0  0  0  0  0  0  0
   19.8611   26.7170   12.0414 C   0  0  0  0  0  0  0  0  0  0  0  0
   20.2021   27.8327   12.6900 N   0  0  0  0  0  0  0  0  0  0  0  0
   19.4777   28.3695   13.0852 H   0  0  0  0  0  0  0  0  0  0  0  0
   18.3809   26.4461   11.9521 C   0  0  0  0  0  0  0  0  0  0  0  0
   17.9399   26.4095   10.4925 C   0  0  0  0  0  0  0  0  0  0  0  0
   17.9075   27.7607    9.8043 C   0  0  0  0  0  0  0  0  0  0  0  0
   18.1051   27.8936    8.5962 O   0  0  0  0  0  0  0  0  0  0  0  0
   17.6246   28.9387   10.7126 C   0  0  0  0  0  0  0  0  0  0  0  0
   16.1526   29.2217   10.8840 C   0  0  0  0  0  0  0  0  0  0  0  0
   22.0811   28.7168   11.4757 C   0  0  0  0  0  0  0  0  0  0  0  0
   23.3140   27.8913   11.1597 C   0  0  0  0  0  0  0  0  0  0  0  0
   24.2772   27.6596   12.1381 C   0  0  0  0  0  0  0  0  0  0  0  0
   25.4048   26.8919   11.8466 C   0  0  0  0  0  0  0  0  0  0  0  0
   25.5705   26.3524   10.5732 C   0  0  0  0  0  0  0  0  0  0  0  0
   24.6113   26.5771    9.5998 C   0  0  0  0  0  0  0  0  0  0  0  0
   23.4819   27.3439    9.8854 C   0  0  0  0  0  0  0  0  0  0  0  0
 23 24  2  0  0  0
 24 27  1  0  0  0
 24 25  1  0  0  0
 27 28  1  0  0  0
 28 29  1  0  0  0
 29 31  1  0  0  0
 29 30  2  0  0  0
 31 32  1  0  0  0
 25 22  1  0  0  0
 22 33  1  0  0  0
 22  1  1  0  0  0
 33 34  1  0  0  0
 34 35  2  0  0  0
 34 39  1  0  0  0
 35 36  1  0  0  0
 36 37  2  0  0  0
 37 38  1  0  0  0
 38 39  2  0  0  0
  1  4  1  0  0  0
  1  2  1  0  0  0
  4  5  1  0  0  0
  5  6  1  0  0  0
  5 17  1  0  0  0
 17 18  1  0  0  0
 18 19  1  0  0  0
 18 20  1  0  0  0
 20 21  1  0  0  0
  6  8  2  0  0  0
  6  7  2  0  0  0
  6  9  1  0  0  0
  9 10  2  0  0  0
  9 12  1  0  0  0
 10 11  1  0  0  0
 11 14  2  0  0  0
 12 13  2  0  0  0
 13 14  1  0  0  0
 14 15  1  0  0  0
 15 16  1  0  0  0
 25 26  1  0  0  0
  2  3  1  0  0  0
M  END
> <minimizedAffinity>
-7.24246

$$$$
2QI7_MZ9_B_200


 39 40  0  0  0  0  0  0  0  0999 V2000
   18.9944   30.3069   13.0724 C   0  0  0  0  0  0  0  0  0  0  0  0
   17.7624   30.4721   12.3499 O   0  0  0  0  0  0  0  0  0  0  0  0
   17.0148   30.2799   12.9373 H   0  0  0  0  0  0  0  0  0  0  0  0
   19.1234   28.8519   13.5320 C   0  0  0  0  0  0  0  0  0  0  0  0
   19.6995   28.0489   12.4293 N   0  0  0  0  0  0  0  0  0  0  0  0
   18.5713   27.2166   11.6082 S   0  0  0  0  0  0  0  0  0  0  0  0
   17.7073   28.1240   10.9086 O   0  0  0  0  0  0  0  0  0  0  0  0
   17.8071   26.5108   12.6003 O   0  0  0  0  0  0  0  0  0  0  0  0
   19.2491   26.1760   10.5765 C   0  0  0  0  0  0  0  0  0  0  0  0
   19.8810   25.0252   11.0465 C   0  0  0  0  0  0  0  0  0  0  0  0
   20.4870   24.1225   10.1780 C   0  0  0  0  0  0  0  0  0  0  0  0
   19.2370   26.4114    9.2047 C   0  0  0  0  0  0  0  0  0  0  0  0
   19.8444   25.5086    8.3239 C   0  0  0  0  0  0  0  0  0  0  0  0
   20.4710   24.3605    8.7972 C   0  0  0  0  0  0  0  0  0  0  0  0
   21.0616   23.5183    7.8819 O   0  0  0  0  0  0  0  0  0  0  0  0
   20.6086   23.3344    6.5333 C   0  0  0  0  0  0  0  0  0  0  0  0
   20.5524   28.8529   11.5206 C   0  0  0  0  0  0  0  0  0  0  0  0
   22.0305   28.6197   11.8252 C   0  0  0  0  0  0  0  0  0  0  0  0
   22.2992   28.3749   13.3135 C   0  0  0  0  0  0  0  0  0  0  0  0
   22.5745   27.4899   10.9466 C   0  0  0  0  0  0  0  0  0  0  0  0
   24.0236   27.6588   10.5524 C   0  0  0  0  0  0  0  0  0  0  0  0
   19.0982   31.3072   14.2215 C   0  0  0  0  0  0  0  0  0  0  0  0
   21.4483   32.2554   12.8344 O   0  0  0  0  0  0  0  0  0  0  0  0
   21.5027   31.8164   13.9714 C   0  0  0  0  0  0  0  0  0  0  0  0
   20.4700   31.3734   14.6918 N   0  0  0  0  0  0  0  0  0  0  0  0
   20.6521   31.0690   15.6101 H   0  0  0  0  0  0  0  0  0  0  0  0
   22.8460   31.7433   14.6516 C   0  0  0  0  0  0  0  0  0  0  0  0
   23.2362   33.1142   15.1944 C   0  0  0  0  0  0  0  0  0  0  0  0
   22.4717   33.5498   16.4298 C   0  0  0  0  0  0  0  0  0  0  0  0
   22.6093   32.9988   17.5224 O   0  0  0  0  0  0  0  0  0  0  0  0
   21.5171   34.7065   16.2211 C   0  0  0  0  0  0  0  0  0  0  0  0
   20.2039   34.5360   16.9439 C   0  0  0  0  0  0  0  0  0  0  0  0
   18.6654   32.7272   13.8566 C   0  0  0  0  0  0  0  0  0  0  0  0
   17.4992   33.1228   14.7423 C   0  0  0  0  0  0  0  0  0  0  0  0
   16.7527   32.1497   15.4015 C   0  0  0  0  0  0  0  0  0  0  0  0
   15.6870   32.5177   16.2230 C   0  0  0  0  0  0  0  0  0  0  0  0
   15.3662   33.8631   16.3875 C   0  0  0  0  0  0  0  0  0  0  0  0
   16.1104   34.8332   15.7369 C   0  0  0  0  0  0  0  0  0  0  0  0
   17.1769   34.4712   14.9144 C   0  0  0  0  0  0  0  0  0  0  0  0
 23 24  2  0  0  0
 24 27  1  0  0  0
 24 25  1  0  0  0
 27 28  1  0  0  0
 28 29  1  0  0  0
 29 31  1  0  0  0
 29 30  2  0  0  0
 31 32  1  0  0  0
 25 22  1  0  0  0
 22 33  1  0  0  0
 22  1  1  0  0  0
 33 34  1  0  0  0
 34 35  2  0  0  0
 34 39  1  0  0  0
 35 36  1  0  0  0
 36 37  2  0  0  0
 37 38  1  0  0  0
 38 39  2  0  0  0
  1  4  1  0  0  0
  1  2  1  0  0  0
  4  5  1  0  0  0
  5  6  1  0  0  0
  5 17  1  0  0  0
 17 18  1  0  0  0
 18 19  1  0  0  0
 18 20  1  0  0  0
 20 21  1  0  0  0
  6  8  2  0  0  0
  6  7  2  0  0  0
  6  9  1  0  0  0
  9 10  2  0  0  0
  9 12  1  0  0  0
 10 11  1  0  0  0
 11 14  2  0  0  0
 12 13  2  0  0  0
 13 14  1  0  0  0
 14 15  1  0  0  0
 15 16  1  0  0  0
 25 26  1  0  0  0
  2  3  1  0  0  0
M  END
> <minimizedAffinity>
-7.10916

$$$$
