3U90_SDS_A_175


 18 17  0  0  0  0  0  0  0  0999 V2000
   32.1811   -0.6468   37.2917 C   0  0  0  0  0  0  0  0  0  0  0  0
   33.1023   -1.5849   36.5822 C   0  0  0  0  0  0  0  0  0  0  0  0
   34.3746   -1.7225   37.3466 C   0  0  0  0  0  0  0  0  0  0  0  0
   34.7922   -0.3919   37.8808 C   0  0  0  0  0  0  0  0  0  0  0  0
   36.1396   -0.0193   37.3560 C   0  0  0  0  0  0  0  0  0  0  0  0
   35.9993    0.7615   36.0930 C   0  0  0  0  0  0  0  0  0  0  0  0
   34.8662    1.7279   36.2060 C   0  0  0  0  0  0  0  0  0  0  0  0
   34.6770    0.7652   33.9613 C   0  0  0  0  0  0  0  0  0  0  0  0
   34.0181    1.6351   34.9798 C   0  0  0  0  0  0  0  0  0  0  0  0
   30.8543   -0.6169   36.6058 C   0  0  0  0  0  0  0  0  0  0  0  0
   30.8120   -1.6554   35.5343 C   0  0  0  0  0  0  0  0  0  0  0  0
   29.4337   -1.7563   34.9683 C   0  0  0  0  0  0  0  0  0  0  0  0
   29.4029   -1.2285   33.6917 O   0  0  0  0  0  0  0  0  0  0  0  0
   28.6676    0.0225   33.4598 S   0  0  0  0  0  0  0  0  0  0  0  0
   28.3622    0.2021   32.0634 O   0  0  0  0  0  0  0  0  0  0  0  0
   29.4684    1.1302   33.9196 O   0  0  0  0  0  0  0  0  0  0  0  0
   27.4121   -0.0811   34.2176 O   0  0  0  0  0  0  0  0  0  0  0  0
   30.2880    1.1733   33.4026 H   0  0  0  0  0  0  0  0  0  0  0  0
 14 15  2  0  0  0
 14 13  1  0  0  0
 14 16  1  0  0  0
 14 17  2  0  0  0
 13 12  1  0  0  0
 12 11  1  0  0  0
  8  9  1  0  0  0
  9  7  1  0  0  0
  7  6  1  0  0  0
  6  5  1  0  0  0
  5  4  1  0  0  0
  4  3  1  0  0  0
  3  2  1  0  0  0
  2  1  1  0  0  0
  1 10  1  0  0  0
 10 11  1  0  0  0
 16 18  1  0  0  0
M  END
> <minimizedAffinity>
-4.90649

$$$$
3U90_SDS_A_175


 18 17  0  0  0  0  0  0  0  0999 V2000
   32.3554   -0.5963   36.3092 C   0  0  0  0  0  0  0  0  0  0  0  0
   32.7333   -0.1363   34.9389 C   0  0  0  0  0  0  0  0  0  0  0  0
   33.6935    1.0002   35.0316 C   0  0  0  0  0  0  0  0  0  0  0  0
   35.0280    0.5812   34.5086 C   0  0  0  0  0  0  0  0  0  0  0  0
   36.0503    0.6225   35.5962 C   0  0  0  0  0  0  0  0  0  0  0  0
   35.5741    1.4876   36.7140 C   0  0  0  0  0  0  0  0  0  0  0  0
   35.6972    0.7648   38.0152 C   0  0  0  0  0  0  0  0  0  0  0  0
   37.0167   -1.1993   38.6498 C   0  0  0  0  0  0  0  0  0  0  0  0
   35.9426   -0.6847   37.7500 C   0  0  0  0  0  0  0  0  0  0  0  0
   30.9180   -1.0025   36.3336 C   0  0  0  0  0  0  0  0  0  0  0  0
   30.6812   -2.0951   35.3444 C   0  0  0  0  0  0  0  0  0  0  0  0
   29.3190   -1.9631   34.7467 C   0  0  0  0  0  0  0  0  0  0  0  0
   29.3898   -1.2871   33.5437 O   0  0  0  0  0  0  0  0  0  0  0  0
   28.7076    0.0084   33.4177 S   0  0  0  0  0  0  0  0  0  0  0  0
   28.3841    0.3012   32.0447 O   0  0  0  0  0  0  0  0  0  0  0  0
   29.5662    1.0440   33.9372 O   0  0  0  0  0  0  0  0  0  0  0  0
   27.4633   -0.0946   34.1939 O   0  0  0  0  0  0  0  0  0  0  0  0
   30.3769    1.0883   33.4064 H   0  0  0  0  0  0  0  0  0  0  0  0
 14 15  2  0  0  0
 14 13  1  0  0  0
 14 16  1  0  0  0
 14 17  2  0  0  0
 13 12  1  0  0  0
 12 11  1  0  0  0
  8  9  1  0  0  0
  9  7  1  0  0  0
  7  6  1  0  0  0
  6  5  1  0  0  0
  5  4  1  0  0  0
  4  3  1  0  0  0
  3  2  1  0  0  0
  2  1  1  0  0  0
  1 10  1  0  0  0
 10 11  1  0  0  0
 16 18  1  0  0  0
M  END
> <minimizedAffinity>
-4.73290

$$$$
3U90_SDS_A_175


 18 17  0  0  0  0  0  0  0  0999 V2000
   32.5357   -0.5168   37.2666 C   0  0  0  0  0  0  0  0  0  0  0  0
   33.6973   -1.3039   37.7795 C   0  0  0  0  0  0  0  0  0  0  0  0
   34.9254   -0.4590   37.7741 C   0  0  0  0  0  0  0  0  0  0  0  0
   34.5751    0.9433   37.3988 C   0  0  0  0  0  0  0  0  0  0  0  0
   35.6900    1.5707   36.6288 C   0  0  0  0  0  0  0  0  0  0  0  0
   35.7671    0.9764   35.2630 C   0  0  0  0  0  0  0  0  0  0  0  0
   34.4618    1.1370   34.5552 C   0  0  0  0  0  0  0  0  0  0  0  0
   34.8619   -1.2523   34.1908 C   0  0  0  0  0  0  0  0  0  0  0  0
   34.2685   -0.0088   33.6165 C   0  0  0  0  0  0  0  0  0  0  0  0
   31.7585   -1.3326   36.2857 C   0  0  0  0  0  0  0  0  0  0  0  0
   30.5060   -0.6147   35.9060 C   0  0  0  0  0  0  0  0  0  0  0  0
   30.5743   -0.1780   34.4795 C   0  0  0  0  0  0  0  0  0  0  0  0
   29.4159    0.4888   34.1292 O   0  0  0  0  0  0  0  0  0  0  0  0
   28.3883   -0.2305   33.3636 S   0  0  0  0  0  0  0  0  0  0  0  0
   28.2387    0.3176   32.0397 O   0  0  0  0  0  0  0  0  0  0  0  0
   27.1307   -0.1384   34.0633 O   0  0  0  0  0  0  0  0  0  0  0  0
   28.8415   -1.6251   33.2587 O   0  0  0  0  0  0  0  0  0  0  0  0
   26.8577    0.7908   34.1168 H   0  0  0  0  0  0  0  0  0  0  0  0
 14 15  2  0  0  0
 14 13  1  0  0  0
 14 16  1  0  0  0
 14 17  2  0  0  0
 13 12  1  0  0  0
 12 11  1  0  0  0
  8  9  1  0  0  0
  9  7  1  0  0  0
  7  6  1  0  0  0
  6  5  1  0  0  0
  5  4  1  0  0  0
  4  3  1  0  0  0
  3  2  1  0  0  0
  2  1  1  0  0  0
  1 10  1  0  0  0
 10 11  1  0  0  0
 16 18  1  0  0  0
M  END
> <minimizedAffinity>
-4.68807

$$$$
3U90_SDS_A_175


 18 17  0  0  0  0  0  0  0  0999 V2000
   31.5834   -0.6907   36.8214 C   0  0  0  0  0  0  0  0  0  0  0  0
   32.5700   -1.4897   36.0338 C   0  0  0  0  0  0  0  0  0  0  0  0
   33.7632   -1.7941   36.8739 C   0  0  0  0  0  0  0  0  0  0  0  0
   33.9871   -0.6918   37.8561 C   0  0  0  0  0  0  0  0  0  0  0  0
   35.3821   -0.1709   37.7459 C   0  0  0  0  0  0  0  0  0  0  0  0
   35.3775    1.1724   37.0978 C   0  0  0  0  0  0  0  0  0  0  0  0
   36.2095    1.1506   35.8577 C   0  0  0  0  0  0  0  0  0  0  0  0
   34.0292    1.6429   34.8550 C   0  0  0  0  0  0  0  0  0  0  0  0
   35.3239    0.9217   34.6767 C   0  0  0  0  0  0  0  0  0  0  0  0
   30.2762   -0.6381   36.1002 C   0  0  0  0  0  0  0  0  0  0  0  0
   30.5070   -0.3906   34.6463 C   0  0  0  0  0  0  0  0  0  0  0  0
   29.4714    0.5432   34.1116 C   0  0  0  0  0  0  0  0  0  0  0  0
   28.8665   -0.0040   32.9963 O   0  0  0  0  0  0  0  0  0  0  0  0
   27.5642   -0.6672   33.1502 S   0  0  0  0  0  0  0  0  0  0  0  0
   26.7466   -0.4997   31.9759 O   0  0  0  0  0  0  0  0  0  0  0  0
   26.8828   -0.1055   34.2903 O   0  0  0  0  0  0  0  0  0  0  0  0
   27.8413   -2.0979   33.3437 O   0  0  0  0  0  0  0  0  0  0  0  0
   26.7138    0.8368   34.1340 H   0  0  0  0  0  0  0  0  0  0  0  0
 14 15  2  0  0  0
 14 13  1  0  0  0
 14 16  1  0  0  0
 14 17  2  0  0  0
 13 12  1  0  0  0
 12 11  1  0  0  0
  8  9  1  0  0  0
  9  7  1  0  0  0
  7  6  1  0  0  0
  6  5  1  0  0  0
  5  4  1  0  0  0
  4  3  1  0  0  0
  3  2  1  0  0  0
  2  1  1  0  0  0
  1 10  1  0  0  0
 10 11  1  0  0  0
 16 18  1  0  0  0
M  END
> <minimizedAffinity>
-4.51775

$$$$
3U90_SDS_A_175


 18 17  0  0  0  0  0  0  0  0999 V2000
   30.8071   -1.4618   34.7589 C   0  0  0  0  0  0  0  0  0  0  0  0
   31.8154   -1.6448   35.8460 C   0  0  0  0  0  0  0  0  0  0  0  0
   31.6724   -0.5609   36.8592 C   0  0  0  0  0  0  0  0  0  0  0  0
   33.0129   -0.2006   37.4099 C   0  0  0  0  0  0  0  0  0  0  0  0
   33.8114    0.5444   36.3916 C   0  0  0  0  0  0  0  0  0  0  0  0
   35.1454    0.9067   36.9518 C   0  0  0  0  0  0  0  0  0  0  0  0
   35.5218   -0.0402   38.0437 C   0  0  0  0  0  0  0  0  0  0  0  0
   37.3406   -1.4890   38.8146 C   0  0  0  0  0  0  0  0  0  0  0  0
   36.7382   -0.8039   37.6331 C   0  0  0  0  0  0  0  0  0  0  0  0
   29.5843   -0.7977   35.3025 C   0  0  0  0  0  0  0  0  0  0  0  0
   28.8207   -0.1521   34.1941 C   0  0  0  0  0  0  0  0  0  0  0  0
   27.3692   -0.4852   34.3057 C   0  0  0  0  0  0  0  0  0  0  0  0
   27.1790   -1.8450   34.1513 O   0  0  0  0  0  0  0  0  0  0  0  0
   26.2219   -2.5308   35.0306 S   0  0  0  0  0  0  0  0  0  0  0  0
   26.6335   -3.8845   35.3018 O   0  0  0  0  0  0  0  0  0  0  0  0
   24.9269   -2.5437   34.3961 O   0  0  0  0  0  0  0  0  0  0  0  0
   26.1928   -1.7749   36.2911 O   0  0  0  0  0  0  0  0  0  0  0  0
   24.9770   -3.0483   33.5692 H   0  0  0  0  0  0  0  0  0  0  0  0
 14 15  2  0  0  0
 14 13  1  0  0  0
 14 16  1  0  0  0
 14 17  2  0  0  0
 13 12  1  0  0  0
 12 11  1  0  0  0
  8  9  1  0  0  0
  9  7  1  0  0  0
  7  6  1  0  0  0
  6  5  1  0  0  0
  5  4  1  0  0  0
  4  3  1  0  0  0
  3  2  1  0  0  0
  2  1  1  0  0  0
  1 10  1  0  0  0
 10 11  1  0  0  0
 16 18  1  0  0  0
M  END
> <minimizedAffinity>
-4.51395

$$$$
3U90_SDS_A_175


 18 17  0  0  0  0  0  0  0  0999 V2000
   31.1245   -0.9377   35.1700 C   0  0  0  0  0  0  0  0  0  0  0  0
   31.9331   -1.0490   36.4213 C   0  0  0  0  0  0  0  0  0  0  0  0
   33.0453   -2.0213   36.2225 C   0  0  0  0  0  0  0  0  0  0  0  0
   34.0691   -1.8479   37.2958 C   0  0  0  0  0  0  0  0  0  0  0  0
   34.0442   -0.4495   37.8186 C   0  0  0  0  0  0  0  0  0  0  0  0
   35.4188    0.1290   37.7993 C   0  0  0  0  0  0  0  0  0  0  0  0
   35.6725    0.8151   36.4972 C   0  0  0  0  0  0  0  0  0  0  0  0
   34.0851    1.5235   34.7711 C   0  0  0  0  0  0  0  0  0  0  0  0
   34.5225    1.7160   36.1852 C   0  0  0  0  0  0  0  0  0  0  0  0
   29.7117   -0.5852   35.5040 C   0  0  0  0  0  0  0  0  0  0  0  0
   29.0566    0.0598   34.3279 C   0  0  0  0  0  0  0  0  0  0  0  0
   27.6367   -0.3897   34.2180 C   0  0  0  0  0  0  0  0  0  0  0  0
   27.5455   -1.7459   34.4657 O   0  0  0  0  0  0  0  0  0  0  0  0
   26.3582   -2.2608   35.1620 S   0  0  0  0  0  0  0  0  0  0  0  0
   26.2339   -1.6929   36.4801 O   0  0  0  0  0  0  0  0  0  0  0  0
   26.4609   -3.6953   35.2680 O   0  0  0  0  0  0  0  0  0  0  0  0
   25.1940   -1.8656   34.3559 O   0  0  0  0  0  0  0  0  0  0  0  0
   27.2361   -3.9253   35.8038 H   0  0  0  0  0  0  0  0  0  0  0  0
 14 15  2  0  0  0
 14 13  1  0  0  0
 14 16  1  0  0  0
 14 17  2  0  0  0
 13 12  1  0  0  0
 12 11  1  0  0  0
  8  9  1  0  0  0
  9  7  1  0  0  0
  7  6  1  0  0  0
  6  5  1  0  0  0
  5  4  1  0  0  0
  4  3  1  0  0  0
  3  2  1  0  0  0
  2  1  1  0  0  0
  1 10  1  0  0  0
 10 11  1  0  0  0
 16 18  1  0  0  0
M  END
> <minimizedAffinity>
-4.46880

$$$$
3U90_SDS_A_175


 18 17  0  0  0  0  0  0  0  0999 V2000
   32.2726   -2.1228   35.4574 C   0  0  0  0  0  0  0  0  0  0  0  0
   31.9350   -0.7082   35.7993 C   0  0  0  0  0  0  0  0  0  0  0  0
   32.0321   -0.5048   37.2728 C   0  0  0  0  0  0  0  0  0  0  0  0
   33.4539   -0.6344   37.7105 C   0  0  0  0  0  0  0  0  0  0  0  0
   34.2502    0.5418   37.2500 C   0  0  0  0  0  0  0  0  0  0  0  0
   35.5515    0.5956   37.9770 C   0  0  0  0  0  0  0  0  0  0  0  0
   36.4657   -0.4757   37.4800 C   0  0  0  0  0  0  0  0  0  0  0  0
   36.6048   -2.7254   38.4396 C   0  0  0  0  0  0  0  0  0  0  0  0
   36.9473   -1.2863   38.6387 C   0  0  0  0  0  0  0  0  0  0  0  0
   31.2550   -2.6777   34.5148 C   0  0  0  0  0  0  0  0  0  0  0  0
   29.8962   -2.5962   35.1275 C   0  0  0  0  0  0  0  0  0  0  0  0
   28.8677   -2.3584   34.0711 C   0  0  0  0  0  0  0  0  0  0  0  0
   29.2923   -1.3671   33.2072 O   0  0  0  0  0  0  0  0  0  0  0  0
   28.6585   -0.0433   33.2815 S   0  0  0  0  0  0  0  0  0  0  0  0
   29.5879    0.9601   33.7340 O   0  0  0  0  0  0  0  0  0  0  0  0
   27.5432   -0.1069   34.1935 O   0  0  0  0  0  0  0  0  0  0  0  0
   28.2175    0.2886   31.9190 O   0  0  0  0  0  0  0  0  0  0  0  0
   27.8642   -0.3271   35.0820 H   0  0  0  0  0  0  0  0  0  0  0  0
 14 15  2  0  0  0
 14 13  1  0  0  0
 14 16  1  0  0  0
 14 17  2  0  0  0
 13 12  1  0  0  0
 12 11  1  0  0  0
  8  9  1  0  0  0
  9  7  1  0  0  0
  7  6  1  0  0  0
  6  5  1  0  0  0
  5  4  1  0  0  0
  4  3  1  0  0  0
  3  2  1  0  0  0
  2  1  1  0  0  0
  1 10  1  0  0  0
 10 11  1  0  0  0
 16 18  1  0  0  0
M  END
> <minimizedAffinity>
-4.33561

$$$$
3U90_SDS_A_175


 18 17  0  0  0  0  0  0  0  0999 V2000
   33.4031   -1.9120   35.4108 C   0  0  0  0  0  0  0  0  0  0  0  0
   33.9795   -2.0096   36.7857 C   0  0  0  0  0  0  0  0  0  0  0  0
   33.2800   -1.0609   37.6982 C   0  0  0  0  0  0  0  0  0  0  0  0
   33.5465    0.3448   37.2703 C   0  0  0  0  0  0  0  0  0  0  0  0
   34.9490    0.7339   37.6036 C   0  0  0  0  0  0  0  0  0  0  0  0
   35.5524    1.4945   36.4713 C   0  0  0  0  0  0  0  0  0  0  0  0
   36.5229    0.6347   35.7302 C   0  0  0  0  0  0  0  0  0  0  0  0
   34.9086    1.2354   33.9883 C   0  0  0  0  0  0  0  0  0  0  0  0
   36.3135    0.8118   34.2618 C   0  0  0  0  0  0  0  0  0  0  0  0
   32.0259   -2.4904   35.3917 C   0  0  0  0  0  0  0  0  0  0  0  0
   31.5388   -2.5980   33.9847 C   0  0  0  0  0  0  0  0  0  0  0  0
   30.9782   -1.2901   33.5317 C   0  0  0  0  0  0  0  0  0  0  0  0
   29.6270   -1.2273   33.8135 O   0  0  0  0  0  0  0  0  0  0  0  0
   28.9233    0.0495   33.6290 S   0  0  0  0  0  0  0  0  0  0  0  0
   28.5960    0.2744   32.2442 O   0  0  0  0  0  0  0  0  0  0  0  0
   29.7641    1.1218   34.1011 O   0  0  0  0  0  0  0  0  0  0  0  0
   27.6804   -0.0391   34.4091 O   0  0  0  0  0  0  0  0  0  0  0  0
   30.5743    1.1556   33.5689 H   0  0  0  0  0  0  0  0  0  0  0  0
 14 15  2  0  0  0
 14 13  1  0  0  0
 14 16  1  0  0  0
 14 17  2  0  0  0
 13 12  1  0  0  0
 12 11  1  0  0  0
  8  9  1  0  0  0
  9  7  1  0  0  0
  7  6  1  0  0  0
  6  5  1  0  0  0
  5  4  1  0  0  0
  4  3  1  0  0  0
  3  2  1  0  0  0
  2  1  1  0  0  0
  1 10  1  0  0  0
 10 11  1  0  0  0
 16 18  1  0  0  0
M  END
> <minimizedAffinity>
-4.23840

$$$$
3U90_SDS_A_175


 18 17  0  0  0  0  0  0  0  0999 V2000
   32.9972   -0.5934   36.2182 C   0  0  0  0  0  0  0  0  0  0  0  0
   33.5744    0.2404   37.3153 C   0  0  0  0  0  0  0  0  0  0  0  0
   34.3914    1.3452   36.7375 C   0  0  0  0  0  0  0  0  0  0  0  0
   34.5680    1.1320   35.2700 C   0  0  0  0  0  0  0  0  0  0  0  0
   36.0186    1.1204   34.9160 C   0  0  0  0  0  0  0  0  0  0  0  0
   36.2129    0.5031   33.5722 C   0  0  0  0  0  0  0  0  0  0  0  0
   36.2800    1.5626   32.5217 C   0  0  0  0  0  0  0  0  0  0  0  0
   37.7279    3.2682   31.5237 C   0  0  0  0  0  0  0  0  0  0  0  0
   37.6661    2.1176   32.4726 C   0  0  0  0  0  0  0  0  0  0  0  0
   31.5231   -0.7416   36.4103 C   0  0  0  0  0  0  0  0  0  0  0  0
   31.0311   -1.9392   35.6672 C   0  0  0  0  0  0  0  0  0  0  0  0
   29.6427   -1.7033   35.1705 C   0  0  0  0  0  0  0  0  0  0  0  0
   29.6765   -1.1727   33.8951 O   0  0  0  0  0  0  0  0  0  0  0  0
   28.9406    0.0703   33.6251 S   0  0  0  0  0  0  0  0  0  0  0  0
   28.6626    0.2223   32.2197 O   0  0  0  0  0  0  0  0  0  0  0  0
   29.7271    1.1902   34.0800 O   0  0  0  0  0  0  0  0  0  0  0  0
   27.6706   -0.0252   34.3594 O   0  0  0  0  0  0  0  0  0  0  0  0
   30.5568    1.2275   33.5788 H   0  0  0  0  0  0  0  0  0  0  0  0
 14 15  2  0  0  0
 14 13  1  0  0  0
 14 16  1  0  0  0
 14 17  2  0  0  0
 13 12  1  0  0  0
 12 11  1  0  0  0
  8  9  1  0  0  0
  9  7  1  0  0  0
  7  6  1  0  0  0
  6  5  1  0  0  0
  5  4  1  0  0  0
  4  3  1  0  0  0
  3  2  1  0  0  0
  2  1  1  0  0  0
  1 10  1  0  0  0
 10 11  1  0  0  0
 16 18  1  0  0  0
M  END
> <minimizedAffinity>
-3.99973

$$$$
3U90_SDS_A_175


 18 17  0  0  0  0  0  0  0  0999 V2000
   32.6924   -1.8819   34.3086 C   0  0  0  0  0  0  0  0  0  0  0  0
   34.1711   -2.0476   34.4428 C   0  0  0  0  0  0  0  0  0  0  0  0
   34.4966   -2.6495   35.7671 C   0  0  0  0  0  0  0  0  0  0  0  0
   35.9742   -2.6335   35.9826 C   0  0  0  0  0  0  0  0  0  0  0  0
   36.3153   -1.8319   37.1953 C   0  0  0  0  0  0  0  0  0  0  0  0
   36.2290   -0.3751   36.8872 C   0  0  0  0  0  0  0  0  0  0  0  0
   35.3382    0.3093   37.8714 C   0  0  0  0  0  0  0  0  0  0  0  0
   34.6671    1.4195   35.7933 C   0  0  0  0  0  0  0  0  0  0  0  0
   34.2126    0.9657   37.1408 C   0  0  0  0  0  0  0  0  0  0  0  0
   32.0364   -2.0482   35.6404 C   0  0  0  0  0  0  0  0  0  0  0  0
   31.2477   -0.8257   35.9752 C   0  0  0  0  0  0  0  0  0  0  0  0
   30.9490   -0.0493   34.7350 C   0  0  0  0  0  0  0  0  0  0  0  0
   29.6396    0.3916   34.7525 O   0  0  0  0  0  0  0  0  0  0  0  0
   28.6907   -0.1672   33.7794 S   0  0  0  0  0  0  0  0  0  0  0  0
   28.7573    0.5295   32.5201 O   0  0  0  0  0  0  0  0  0  0  0  0
   27.3549   -0.0629   34.3126 O   0  0  0  0  0  0  0  0  0  0  0  0
   29.0770   -1.5707   33.5740 O   0  0  0  0  0  0  0  0  0  0  0  0
   27.1285    0.8720   34.4371 H   0  0  0  0  0  0  0  0  0  0  0  0
 14 15  2  0  0  0
 14 13  1  0  0  0
 14 16  1  0  0  0
 14 17  2  0  0  0
 13 12  1  0  0  0
 12 11  1  0  0  0
  8  9  1  0  0  0
  9  7  1  0  0  0
  7  6  1  0  0  0
  6  5  1  0  0  0
  5  4  1  0  0  0
  4  3  1  0  0  0
  3  2  1  0  0  0
  2  1  1  0  0  0
  1 10  1  0  0  0
 10 11  1  0  0  0
 16 18  1  0  0  0
M  END
> <minimizedAffinity>
-3.80948

$$$$
