3ZNR_NU9_A_1000


 37 41  0  0  0  0  0  0  0  0999 V2000
   -9.9755    3.2728  -15.4993 C   0  0  0  0  0  0  0  0  0  0  0  0
  -11.1818    3.4569  -15.5678 O   0  0  0  0  0  0  0  0  0  0  0  0
   -9.0257    4.3327  -15.5884 N   0  0  0  0  0  0  0  0  0  0  0  0
   -8.0710    4.1005  -15.5256 H   0  0  0  0  0  0  0  0  0  0  0  0
   -7.6270    0.4985  -14.4371 C   0  0  0  0  0  0  0  0  0  0  0  0
   -8.2358   -0.6169  -15.0359 C   0  0  0  0  0  0  0  0  0  0  0  0
   -9.4138   -0.4604  -15.7806 C   0  0  0  0  0  0  0  0  0  0  0  0
   -9.9926    0.8038  -15.9328 C   0  0  0  0  0  0  0  0  0  0  0  0
   -9.3908    1.9146  -15.3307 C   0  0  0  0  0  0  0  0  0  0  0  0
   -8.2076    1.7663  -14.5960 C   0  0  0  0  0  0  0  0  0  0  0  0
   -4.5645   -0.5379  -12.9171 C   0  0  0  0  0  0  0  0  0  0  0  0
   -5.6583   -0.8005  -13.6722 N   0  0  0  0  0  0  0  0  0  0  0  0
   -6.4545    0.3483  -13.7060 C   0  0  0  0  0  0  0  0  0  0  0  0
   -5.8110    1.3138  -12.9976 N   0  0  0  0  0  0  0  0  0  0  0  0
   -4.6478    0.7698  -12.4783 O   0  0  0  0  0  0  0  0  0  0  0  0
   -3.8017   -2.6977  -13.0696 F   0  0  0  0  0  0  0  0  0  0  0  0
   -3.4796   -1.5013  -12.5954 C   0  0  0  0  0  0  0  0  0  0  0  0
   -3.3220   -1.5764  -11.2760 F   0  0  0  0  0  0  0  0  0  0  0  0
   -2.3570   -1.0771  -13.1650 F   0  0  0  0  0  0  0  0  0  0  0  0
   -9.3693    5.7181  -15.7638 C   0  0  0  0  0  0  0  0  0  0  0  0
   -8.8490    6.4166  -17.0427 C   0  0  0  0  0  0  0  0  0  0  0  0
   -9.4554    7.7906  -16.9643 C   0  0  0  0  0  0  0  0  0  0  0  0
   -9.4756    8.4991  -18.3239 C   0  0  0  0  0  0  0  0  0  0  0  0
   -9.0051    7.6835  -19.4087 O   0  0  0  0  0  0  0  0  0  0  0  0
   -9.5914    6.3708  -19.4588 C   0  0  0  0  0  0  0  0  0  0  0  0
   -9.4654    5.5939  -18.1413 C   0  0  0  0  0  0  0  0  0  0  0  0
   -7.3578    6.2857  -16.8722 C   0  0  0  0  0  0  0  0  0  0  0  0
   -6.6465    5.0076  -16.6343 N   0  0  0  0  0  0  0  0  0  0  0  0
   -5.0509    5.2907  -16.4506 C   0  0  0  0  0  0  0  0  0  0  0  0
   -4.8481    6.7079  -16.6359 C   0  0  0  0  0  0  0  0  0  0  0  0
   -6.2833    7.3918  -16.9185 S   0  0  0  0  0  0  0  0  0  0  0  0
   -4.1029    4.3083  -16.1757 C   0  0  0  0  0  0  0  0  0  0  0  0
   -2.7392    4.6438  -16.1926 C   0  0  0  0  0  0  0  0  0  0  0  0
   -1.7683    3.6733  -15.9203 C   0  0  0  0  0  0  0  0  0  0  0  0
   -2.1521    2.3565  -15.6270 C   0  0  0  0  0  0  0  0  0  0  0  0
   -3.5096    2.0180  -15.6086 C   0  0  0  0  0  0  0  0  0  0  0  0
   -4.4800    2.9899  -15.8800 C   0  0  0  0  0  0  0  0  0  0  0  0
 16 17  1  0  0  0
 17 18  1  0  0  0
 17 19  1  0  0  0
 17 11  1  0  0  0
 11 12  2  0  0  0
 11 15  1  0  0  0
 12 13  1  0  0  0
 13 14  2  0  0  0
 13  5  1  0  0  0
 14 15  1  0  0  0
  5  6  2  0  0  0
  5 10  1  0  0  0
  6  7  1  0  0  0
  7  8  2  0  0  0
  8  9  1  0  0  0
  9 10  2  0  0  0
  9  1  1  0  0  0
  1  2  2  0  0  0
  1  3  1  0  0  0
  3 20  1  0  0  0
 20 21  1  0  0  0
 21 22  1  0  0  0
 21 26  1  0  0  0
 21 27  1  0  0  0
 22 23  1  0  0  0
 23 24  1  0  0  0
 24 25  1  0  0  0
 25 26  1  0  0  0
 27 28  2  0  0  0
 27 31  1  0  0  0
 28 29  1  0  0  0
 29 30  2  0  0  0
 29 32  1  0  0  0
 30 31  1  0  0  0
 32 33  2  0  0  0
 32 37  1  0  0  0
 33 34  1  0  0  0
 34 35  2  0  0  0
 35 36  1  0  0  0
 36 37  2  0  0  0
  3  4  1  0  0  0
M  END
> <minimizedAffinity>
-10.96591

$$$$
3ZNR_NU9_A_1000


 37 41  0  0  0  0  0  0  0  0999 V2000
   -9.5416    3.3955  -15.8936 C   0  0  0  0  0  0  0  0  0  0  0  0
   -9.8001    4.1212  -14.9447 O   0  0  0  0  0  0  0  0  0  0  0  0
   -9.4872    3.8702  -17.2371 N   0  0  0  0  0  0  0  0  0  0  0  0
   -9.2736    3.2206  -17.9455 H   0  0  0  0  0  0  0  0  0  0  0  0
   -7.9630    0.1635  -14.7093 C   0  0  0  0  0  0  0  0  0  0  0  0
   -8.7104   -0.7834  -15.4289 C   0  0  0  0  0  0  0  0  0  0  0  0
   -9.7306   -0.3640  -16.2950 C   0  0  0  0  0  0  0  0  0  0  0  0
  -10.0135    0.9970  -16.4491 C   0  0  0  0  0  0  0  0  0  0  0  0
   -9.2743    1.9409  -15.7273 C   0  0  0  0  0  0  0  0  0  0  0  0
   -8.2461    1.5287  -14.8701 C   0  0  0  0  0  0  0  0  0  0  0  0
   -4.9334   -0.8927  -13.1378 C   0  0  0  0  0  0  0  0  0  0  0  0
   -5.6626   -0.6405  -14.2516 N   0  0  0  0  0  0  0  0  0  0  0  0
   -6.9452   -0.2483  -13.8570 C   0  0  0  0  0  0  0  0  0  0  0  0
   -6.9681   -0.2296  -12.4979 N   0  0  0  0  0  0  0  0  0  0  0  0
   -5.7330   -0.6541  -12.0364 O   0  0  0  0  0  0  0  0  0  0  0  0
   -3.2515   -1.8543  -11.9064 F   0  0  0  0  0  0  0  0  0  0  0  0
   -3.5265   -1.3706  -13.1107 C   0  0  0  0  0  0  0  0  0  0  0  0
   -2.7034   -0.3599  -13.3798 F   0  0  0  0  0  0  0  0  0  0  0  0
   -3.3886   -2.3261  -14.0233 F   0  0  0  0  0  0  0  0  0  0  0  0
   -9.7234    5.2343  -17.6265 C   0  0  0  0  0  0  0  0  0  0  0  0
   -8.7676    5.8417  -18.6808 C   0  0  0  0  0  0  0  0  0  0  0  0
   -9.4176    7.1518  -19.0313 C   0  0  0  0  0  0  0  0  0  0  0  0
   -8.9244    7.7088  -20.3720 C   0  0  0  0  0  0  0  0  0  0  0  0
   -8.0216    6.8331  -21.0658 O   0  0  0  0  0  0  0  0  0  0  0  0
   -8.4771    5.4722  -21.1647 C   0  0  0  0  0  0  0  0  0  0  0  0
   -8.8534    4.8532  -19.8117 C   0  0  0  0  0  0  0  0  0  0  0  0
   -7.4651    5.8732  -17.9240 C   0  0  0  0  0  0  0  0  0  0  0  0
   -6.6475    4.6791  -17.6054 N   0  0  0  0  0  0  0  0  0  0  0  0
   -5.3437    5.1212  -16.7310 C   0  0  0  0  0  0  0  0  0  0  0  0
   -5.3893    6.5580  -16.5994 C   0  0  0  0  0  0  0  0  0  0  0  0
   -6.7150    7.0931  -17.3500 S   0  0  0  0  0  0  0  0  0  0  0  0
   -4.3899    4.2354  -16.2358 C   0  0  0  0  0  0  0  0  0  0  0  0
   -4.8107    3.0700  -15.5745 C   0  0  0  0  0  0  0  0  0  0  0  0
   -3.8706    2.1655  -15.0677 C   0  0  0  0  0  0  0  0  0  0  0  0
   -2.4991    2.4173  -15.2184 C   0  0  0  0  0  0  0  0  0  0  0  0
   -2.0755    3.5769  -15.8769 C   0  0  0  0  0  0  0  0  0  0  0  0
   -3.0167    4.4804  -16.3845 C   0  0  0  0  0  0  0  0  0  0  0  0
 16 17  1  0  0  0
 17 18  1  0  0  0
 17 19  1  0  0  0
 17 11  1  0  0  0
 11 12  2  0  0  0
 11 15  1  0  0  0
 12 13  1  0  0  0
 13 14  2  0  0  0
 13  5  1  0  0  0
 14 15  1  0  0  0
  5  6  2  0  0  0
  5 10  1  0  0  0
  6  7  1  0  0  0
  7  8  2  0  0  0
  8  9  1  0  0  0
  9 10  2  0  0  0
  9  1  1  0  0  0
  1  2  2  0  0  0
  1  3  1  0  0  0
  3 20  1  0  0  0
 20 21  1  0  0  0
 21 22  1  0  0  0
 21 26  1  0  0  0
 21 27  1  0  0  0
 22 23  1  0  0  0
 23 24  1  0  0  0
 24 25  1  0  0  0
 25 26  1  0  0  0
 27 28  2  0  0  0
 27 31  1  0  0  0
 28 29  1  0  0  0
 29 30  2  0  0  0
 29 32  1  0  0  0
 30 31  1  0  0  0
 32 33  2  0  0  0
 32 37  1  0  0  0
 33 34  1  0  0  0
 34 35  2  0  0  0
 35 36  1  0  0  0
 36 37  2  0  0  0
  3  4  1  0  0  0
M  END
> <minimizedAffinity>
-10.11481

$$$$
3ZNR_NU9_A_1000


 37 41  0  0  0  0  0  0  0  0999 V2000
   -9.4574    4.1182  -17.8296 C   0  0  0  0  0  0  0  0  0  0  0  0
   -9.2925    3.1482  -18.5546 O   0  0  0  0  0  0  0  0  0  0  0  0
  -10.7240    4.4577  -17.2694 N   0  0  0  0  0  0  0  0  0  0  0  0
  -10.7735    5.2567  -16.6962 H   0  0  0  0  0  0  0  0  0  0  0  0
   -6.0509    5.3590  -16.7360 C   0  0  0  0  0  0  0  0  0  0  0  0
   -6.2460    6.7498  -16.7657 C   0  0  0  0  0  0  0  0  0  0  0  0
   -7.4878    7.2782  -17.1474 C   0  0  0  0  0  0  0  0  0  0  0  0
   -8.5402    6.4281  -17.5020 C   0  0  0  0  0  0  0  0  0  0  0  0
   -8.3447    5.0425  -17.4796 C   0  0  0  0  0  0  0  0  0  0  0  0
   -7.1106    4.5087  -17.0876 C   0  0  0  0  0  0  0  0  0  0  0  0
   -3.2552    3.3517  -15.7779 C   0  0  0  0  0  0  0  0  0  0  0  0
   -4.5798    3.4943  -16.0240 N   0  0  0  0  0  0  0  0  0  0  0  0
   -4.8243    4.8319  -16.3495 C   0  0  0  0  0  0  0  0  0  0  0  0
   -3.6304    5.4820  -16.3346 N   0  0  0  0  0  0  0  0  0  0  0  0
   -2.6494    4.5810  -15.9545 O   0  0  0  0  0  0  0  0  0  0  0  0
   -2.7412    1.9218  -14.0570 F   0  0  0  0  0  0  0  0  0  0  0  0
   -2.5795    2.0949  -15.3624 C   0  0  0  0  0  0  0  0  0  0  0  0
   -1.2802    2.1700  -15.6409 F   0  0  0  0  0  0  0  0  0  0  0  0
   -3.1296    1.0825  -16.0236 F   0  0  0  0  0  0  0  0  0  0  0  0
  -11.9339    3.7111  -17.4856 C   0  0  0  0  0  0  0  0  0  0  0  0
  -12.4974    2.9185  -16.2821 C   0  0  0  0  0  0  0  0  0  0  0  0
  -13.8440    2.4553  -16.7656 C   0  0  0  0  0  0  0  0  0  0  0  0
  -14.7759    2.0632  -15.6129 C   0  0  0  0  0  0  0  0  0  0  0  0
  -14.2191    2.3040  -14.3108 O   0  0  0  0  0  0  0  0  0  0  0  0
  -13.6518    3.6154  -14.1437 C   0  0  0  0  0  0  0  0  0  0  0  0
  -12.6172    3.9758  -15.2184 C   0  0  0  0  0  0  0  0  0  0  0  0
  -11.4220    1.8845  -16.0720 C   0  0  0  0  0  0  0  0  0  0  0  0
  -10.2024    2.0918  -15.2562 N   0  0  0  0  0  0  0  0  0  0  0  0
   -9.2633    0.7600  -15.3205 C   0  0  0  0  0  0  0  0  0  0  0  0
   -9.9658   -0.2155  -16.1197 C   0  0  0  0  0  0  0  0  0  0  0  0
  -11.3539    0.4427  -16.6170 S   0  0  0  0  0  0  0  0  0  0  0  0
   -8.0256    0.6377  -14.6939 C   0  0  0  0  0  0  0  0  0  0  0  0
   -7.3099    1.7967  -14.3517 C   0  0  0  0  0  0  0  0  0  0  0  0
   -6.0638    1.6987  -13.7221 C   0  0  0  0  0  0  0  0  0  0  0  0
   -5.5212    0.4395  -13.4271 C   0  0  0  0  0  0  0  0  0  0  0  0
   -6.2310   -0.7177  -13.7658 C   0  0  0  0  0  0  0  0  0  0  0  0
   -7.4779   -0.6186  -14.3945 C   0  0  0  0  0  0  0  0  0  0  0  0
 16 17  1  0  0  0
 17 18  1  0  0  0
 17 19  1  0  0  0
 17 11  1  0  0  0
 11 12  2  0  0  0
 11 15  1  0  0  0
 12 13  1  0  0  0
 13 14  2  0  0  0
 13  5  1  0  0  0
 14 15  1  0  0  0
  5  6  2  0  0  0
  5 10  1  0  0  0
  6  7  1  0  0  0
  7  8  2  0  0  0
  8  9  1  0  0  0
  9 10  2  0  0  0
  9  1  1  0  0  0
  1  2  2  0  0  0
  1  3  1  0  0  0
  3 20  1  0  0  0
 20 21  1  0  0  0
 21 22  1  0  0  0
 21 26  1  0  0  0
 21 27  1  0  0  0
 22 23  1  0  0  0
 23 24  1  0  0  0
 24 25  1  0  0  0
 25 26  1  0  0  0
 27 28  2  0  0  0
 27 31  1  0  0  0
 28 29  1  0  0  0
 29 30  2  0  0  0
 29 32  1  0  0  0
 30 31  1  0  0  0
 32 33  2  0  0  0
 32 37  1  0  0  0
 33 34  1  0  0  0
 34 35  2  0  0  0
 35 36  1  0  0  0
 36 37  2  0  0  0
  3  4  1  0  0  0
M  END
> <minimizedAffinity>
-9.56277

$$$$
3ZNR_NU9_A_1000


 37 41  0  0  0  0  0  0  0  0999 V2000
   -6.8978    3.8423  -16.9816 C   0  0  0  0  0  0  0  0  0  0  0  0
   -7.1265    4.5034  -17.9838 O   0  0  0  0  0  0  0  0  0  0  0  0
   -7.8778    3.0106  -16.3642 N   0  0  0  0  0  0  0  0  0  0  0  0
   -7.6143    2.5110  -15.5578 H   0  0  0  0  0  0  0  0  0  0  0  0
   -3.8488    2.6831  -15.0579 C   0  0  0  0  0  0  0  0  0  0  0  0
   -3.1045    3.8723  -14.9863 C   0  0  0  0  0  0  0  0  0  0  0  0
   -3.5983    5.0478  -15.5706 C   0  0  0  0  0  0  0  0  0  0  0  0
   -4.8323    5.0470  -16.2290 C   0  0  0  0  0  0  0  0  0  0  0  0
   -5.5713    3.8612  -16.3070 C   0  0  0  0  0  0  0  0  0  0  0  0
   -5.0889    2.6870  -15.7150 C   0  0  0  0  0  0  0  0  0  0  0  0
   -3.3198   -0.4125  -13.3548 C   0  0  0  0  0  0  0  0  0  0  0  0
   -4.1069    0.6439  -13.6713 N   0  0  0  0  0  0  0  0  0  0  0  0
   -3.3666    1.5186  -14.4722 C   0  0  0  0  0  0  0  0  0  0  0  0
   -2.1423    0.9602  -14.6657 N   0  0  0  0  0  0  0  0  0  0  0  0
   -2.0889   -0.2275  -13.9548 O   0  0  0  0  0  0  0  0  0  0  0  0
   -2.6848   -1.8818  -11.7092 F   0  0  0  0  0  0  0  0  0  0  0  0
   -3.7079   -1.5559  -12.4885 C   0  0  0  0  0  0  0  0  0  0  0  0
   -4.0384   -2.6004  -13.2442 F   0  0  0  0  0  0  0  0  0  0  0  0
   -4.7436   -1.1869  -11.7429 F   0  0  0  0  0  0  0  0  0  0  0  0
   -9.2255    2.8527  -16.8408 C   0  0  0  0  0  0  0  0  0  0  0  0
  -10.3600    3.3919  -15.9373 C   0  0  0  0  0  0  0  0  0  0  0  0
   -9.9365    2.9765  -14.5554 C   0  0  0  0  0  0  0  0  0  0  0  0
  -11.1036    2.9777  -13.5611 C   0  0  0  0  0  0  0  0  0  0  0  0
  -12.3741    3.2787  -14.1601 O   0  0  0  0  0  0  0  0  0  0  0  0
  -12.6604    2.5231  -15.3503 C   0  0  0  0  0  0  0  0  0  0  0  0
  -11.5575    2.6154  -16.4135 C   0  0  0  0  0  0  0  0  0  0  0  0
  -10.3432    4.8599  -16.2760 C   0  0  0  0  0  0  0  0  0  0  0  0
   -9.2471    5.7928  -15.9234 N   0  0  0  0  0  0  0  0  0  0  0  0
   -9.6270    7.3005  -16.4156 C   0  0  0  0  0  0  0  0  0  0  0  0
  -10.9009    7.2178  -17.0895 C   0  0  0  0  0  0  0  0  0  0  0  0
  -11.4005    5.6831  -17.0407 S   0  0  0  0  0  0  0  0  0  0  0  0
   -8.8288    8.4223  -16.2058 C   0  0  0  0  0  0  0  0  0  0  0  0
   -9.3768    9.5475  -15.5684 C   0  0  0  0  0  0  0  0  0  0  0  0
   -8.5943   10.6866  -15.3474 C   0  0  0  0  0  0  0  0  0  0  0  0
   -7.2544   10.7113  -15.7612 C   0  0  0  0  0  0  0  0  0  0  0  0
   -6.7043    9.5924  -16.3962 C   0  0  0  0  0  0  0  0  0  0  0  0
   -7.4876    8.4531  -16.6156 C   0  0  0  0  0  0  0  0  0  0  0  0
 16 17  1  0  0  0
 17 18  1  0  0  0
 17 19  1  0  0  0
 17 11  1  0  0  0
 11 12  2  0  0  0
 11 15  1  0  0  0
 12 13  1  0  0  0
 13 14  2  0  0  0
 13  5  1  0  0  0
 14 15  1  0  0  0
  5  6  2  0  0  0
  5 10  1  0  0  0
  6  7  1  0  0  0
  7  8  2  0  0  0
  8  9  1  0  0  0
  9 10  2  0  0  0
  9  1  1  0  0  0
  1  2  2  0  0  0
  1  3  1  0  0  0
  3 20  1  0  0  0
 20 21  1  0  0  0
 21 22  1  0  0  0
 21 26  1  0  0  0
 21 27  1  0  0  0
 22 23  1  0  0  0
 23 24  1  0  0  0
 24 25  1  0  0  0
 25 26  1  0  0  0
 27 28  2  0  0  0
 27 31  1  0  0  0
 28 29  1  0  0  0
 29 30  2  0  0  0
 29 32  1  0  0  0
 30 31  1  0  0  0
 32 33  2  0  0  0
 32 37  1  0  0  0
 33 34  1  0  0  0
 34 35  2  0  0  0
 35 36  1  0  0  0
 36 37  2  0  0  0
  3  4  1  0  0  0
M  END
> <minimizedAffinity>
-9.43974

$$$$
3ZNR_NU9_A_1000


 37 41  0  0  0  0  0  0  0  0999 V2000
   -8.8038    3.3830  -14.9417 C   0  0  0  0  0  0  0  0  0  0  0  0
   -8.9644    3.8683  -13.8315 O   0  0  0  0  0  0  0  0  0  0  0  0
   -8.5214    4.1711  -16.0960 N   0  0  0  0  0  0  0  0  0  0  0  0
   -8.4072    3.7034  -16.9548 H   0  0  0  0  0  0  0  0  0  0  0  0
  -10.0217    0.0600  -16.2889 C   0  0  0  0  0  0  0  0  0  0  0  0
   -9.1575   -0.8322  -15.6329 C   0  0  0  0  0  0  0  0  0  0  0  0
   -8.1767   -0.3457  -14.7563 C   0  0  0  0  0  0  0  0  0  0  0  0
   -8.0493    1.0284  -14.5286 C   0  0  0  0  0  0  0  0  0  0  0  0
   -8.9051    1.9186  -15.1871 C   0  0  0  0  0  0  0  0  0  0  0  0
   -9.8945    1.4379  -16.0542 C   0  0  0  0  0  0  0  0  0  0  0  0
  -12.1284   -1.7937  -18.4999 C   0  0  0  0  0  0  0  0  0  0  0  0
  -10.9663   -1.6472  -17.8189 N   0  0  0  0  0  0  0  0  0  0  0  0
  -11.0007   -0.4193  -17.1512 C   0  0  0  0  0  0  0  0  0  0  0  0
  -12.2079    0.1518  -17.4055 N   0  0  0  0  0  0  0  0  0  0  0  0
  -12.9093   -0.6783  -18.2644 O   0  0  0  0  0  0  0  0  0  0  0  0
  -12.4343   -2.5634  -20.6409 F   0  0  0  0  0  0  0  0  0  0  0  0
  -12.4855   -2.9437  -19.3709 C   0  0  0  0  0  0  0  0  0  0  0  0
  -13.7164   -3.3601  -19.0833 F   0  0  0  0  0  0  0  0  0  0  0  0
  -11.6119   -3.9214  -19.1569 F   0  0  0  0  0  0  0  0  0  0  0  0
   -8.3922    5.6034  -16.0896 C   0  0  0  0  0  0  0  0  0  0  0  0
   -7.3612    6.2222  -17.0633 C   0  0  0  0  0  0  0  0  0  0  0  0
   -7.4979    7.7011  -16.8268 C   0  0  0  0  0  0  0  0  0  0  0  0
   -6.9351    8.5329  -17.9854 C   0  0  0  0  0  0  0  0  0  0  0  0
   -6.4812    7.7444  -19.0970 O   0  0  0  0  0  0  0  0  0  0  0  0
   -7.4193    6.7460  -19.5358 C   0  0  0  0  0  0  0  0  0  0  0  0
   -7.8964    5.8183  -18.4102 C   0  0  0  0  0  0  0  0  0  0  0  0
   -6.0885    5.5457  -16.6246 C   0  0  0  0  0  0  0  0  0  0  0  0
   -5.9779    4.1127  -16.2635 N   0  0  0  0  0  0  0  0  0  0  0  0
   -4.4527    3.7792  -15.7921 C   0  0  0  0  0  0  0  0  0  0  0  0
   -3.6895    4.9962  -15.9350 C   0  0  0  0  0  0  0  0  0  0  0  0
   -4.6786    6.1536  -16.4728 S   0  0  0  0  0  0  0  0  0  0  0  0
   -4.0195    2.5313  -15.3510 C   0  0  0  0  0  0  0  0  0  0  0  0
   -4.8539    1.7679  -14.5182 C   0  0  0  0  0  0  0  0  0  0  0  0
   -4.4398    0.5114  -14.0618 C   0  0  0  0  0  0  0  0  0  0  0  0
   -3.1862    0.0049  -14.4349 C   0  0  0  0  0  0  0  0  0  0  0  0
   -2.3519    0.7620  -15.2648 C   0  0  0  0  0  0  0  0  0  0  0  0
   -2.7677    2.0182  -15.7217 C   0  0  0  0  0  0  0  0  0  0  0  0
 16 17  1  0  0  0
 17 18  1  0  0  0
 17 19  1  0  0  0
 17 11  1  0  0  0
 11 12  2  0  0  0
 11 15  1  0  0  0
 12 13  1  0  0  0
 13 14  2  0  0  0
 13  5  1  0  0  0
 14 15  1  0  0  0
  5  6  2  0  0  0
  5 10  1  0  0  0
  6  7  1  0  0  0
  7  8  2  0  0  0
  8  9  1  0  0  0
  9 10  2  0  0  0
  9  1  1  0  0  0
  1  2  2  0  0  0
  1  3  1  0  0  0
  3 20  1  0  0  0
 20 21  1  0  0  0
 21 22  1  0  0  0
 21 26  1  0  0  0
 21 27  1  0  0  0
 22 23  1  0  0  0
 23 24  1  0  0  0
 24 25  1  0  0  0
 25 26  1  0  0  0
 27 28  2  0  0  0
 27 31  1  0  0  0
 28 29  1  0  0  0
 29 30  2  0  0  0
 29 32  1  0  0  0
 30 31  1  0  0  0
 32 33  2  0  0  0
 32 37  1  0  0  0
 33 34  1  0  0  0
 34 35  2  0  0  0
 35 36  1  0  0  0
 36 37  2  0  0  0
  3  4  1  0  0  0
M  END
> <minimizedAffinity>
-9.24473

$$$$
3ZNR_NU9_A_1000


 37 41  0  0  0  0  0  0  0  0999 V2000
   -7.9206    4.5555  -18.7521 C   0  0  0  0  0  0  0  0  0  0  0  0
   -7.6812    3.9606  -19.7926 O   0  0  0  0  0  0  0  0  0  0  0  0
   -9.2423    4.7218  -18.2435 N   0  0  0  0  0  0  0  0  0  0  0  0
   -9.3507    5.2157  -17.3988 H   0  0  0  0  0  0  0  0  0  0  0  0
   -5.0338    4.9156  -16.3277 C   0  0  0  0  0  0  0  0  0  0  0  0
   -4.8486    6.3080  -16.3309 C   0  0  0  0  0  0  0  0  0  0  0  0
   -5.6636    7.1246  -17.1283 C   0  0  0  0  0  0  0  0  0  0  0  0
   -6.6649    6.5619  -17.9264 C   0  0  0  0  0  0  0  0  0  0  0  0
   -6.8457    5.1742  -17.9294 C   0  0  0  0  0  0  0  0  0  0  0  0
   -6.0428    4.3547  -17.1258 C   0  0  0  0  0  0  0  0  0  0  0  0
   -3.0558    2.3408  -14.8373 C   0  0  0  0  0  0  0  0  0  0  0  0
   -3.9191    2.7669  -15.7906 N   0  0  0  0  0  0  0  0  0  0  0  0
   -4.2339    4.1043  -15.5317 C   0  0  0  0  0  0  0  0  0  0  0  0
   -3.5228    4.4884  -14.4386 N   0  0  0  0  0  0  0  0  0  0  0  0
   -2.8066    3.3951  -13.9796 O   0  0  0  0  0  0  0  0  0  0  0  0
   -2.8823    0.2498  -15.7687 F   0  0  0  0  0  0  0  0  0  0  0  0
   -2.4983    0.9681  -14.7216 C   0  0  0  0  0  0  0  0  0  0  0  0
   -2.9427    0.3953  -13.6054 F   0  0  0  0  0  0  0  0  0  0  0  0
   -1.1728    1.0528  -14.6938 F   0  0  0  0  0  0  0  0  0  0  0  0
  -10.4276    4.2164  -18.8821 C   0  0  0  0  0  0  0  0  0  0  0  0
  -11.6793    4.0239  -17.9932 C   0  0  0  0  0  0  0  0  0  0  0  0
  -12.5614    3.1272  -18.8175 C   0  0  0  0  0  0  0  0  0  0  0  0
  -14.0270    3.1766  -18.3695 C   0  0  0  0  0  0  0  0  0  0  0  0
  -14.2815    4.1306  -17.3262 O   0  0  0  0  0  0  0  0  0  0  0  0
  -13.7328    5.4373  -17.5732 C   0  0  0  0  0  0  0  0  0  0  0  0
  -12.2328    5.4196  -17.8969 C   0  0  0  0  0  0  0  0  0  0  0  0
  -11.0714    3.4625  -16.7341 C   0  0  0  0  0  0  0  0  0  0  0  0
   -9.8764    2.5871  -16.6938 N   0  0  0  0  0  0  0  0  0  0  0  0
   -9.5662    2.1483  -15.1540 C   0  0  0  0  0  0  0  0  0  0  0  0
  -10.5412    2.8104  -14.3204 C   0  0  0  0  0  0  0  0  0  0  0  0
  -11.5205    3.6711  -15.2729 S   0  0  0  0  0  0  0  0  0  0  0  0
   -8.5332    1.2968  -14.7703 C   0  0  0  0  0  0  0  0  0  0  0  0
   -8.7139   -0.0925  -14.8693 C   0  0  0  0  0  0  0  0  0  0  0  0
   -7.6903   -0.9680  -14.4889 C   0  0  0  0  0  0  0  0  0  0  0  0
   -6.4744   -0.4622  -14.0063 C   0  0  0  0  0  0  0  0  0  0  0  0
   -6.2901    0.9213  -13.9065 C   0  0  0  0  0  0  0  0  0  0  0  0
   -7.3141    1.7961  -14.2884 C   0  0  0  0  0  0  0  0  0  0  0  0
 16 17  1  0  0  0
 17 18  1  0  0  0
 17 19  1  0  0  0
 17 11  1  0  0  0
 11 12  2  0  0  0
 11 15  1  0  0  0
 12 13  1  0  0  0
 13 14  2  0  0  0
 13  5  1  0  0  0
 14 15  1  0  0  0
  5  6  2  0  0  0
  5 10  1  0  0  0
  6  7  1  0  0  0
  7  8  2  0  0  0
  8  9  1  0  0  0
  9 10  2  0  0  0
  9  1  1  0  0  0
  1  2  2  0  0  0
  1  3  1  0  0  0
  3 20  1  0  0  0
 20 21  1  0  0  0
 21 22  1  0  0  0
 21 26  1  0  0  0
 21 27  1  0  0  0
 22 23  1  0  0  0
 23 24  1  0  0  0
 24 25  1  0  0  0
 25 26  1  0  0  0
 27 28  2  0  0  0
 27 31  1  0  0  0
 28 29  1  0  0  0
 29 30  2  0  0  0
 29 32  1  0  0  0
 30 31  1  0  0  0
 32 33  2  0  0  0
 32 37  1  0  0  0
 33 34  1  0  0  0
 34 35  2  0  0  0
 35 36  1  0  0  0
 36 37  2  0  0  0
  3  4  1  0  0  0
M  END
> <minimizedAffinity>
-9.16980

$$$$
3ZNR_NU9_A_1000


 37 41  0  0  0  0  0  0  0  0999 V2000
   -9.4266    1.4076  -15.7921 C   0  0  0  0  0  0  0  0  0  0  0  0
   -9.2610    1.5625  -16.9931 O   0  0  0  0  0  0  0  0  0  0  0  0
  -10.6918    1.5810  -15.1578 N   0  0  0  0  0  0  0  0  0  0  0  0
  -10.7412    1.4390  -14.1848 H   0  0  0  0  0  0  0  0  0  0  0  0
   -6.0421    1.4274  -14.0935 C   0  0  0  0  0  0  0  0  0  0  0  0
   -6.1710    0.3362  -13.2184 C   0  0  0  0  0  0  0  0  0  0  0  0
   -7.3643   -0.3997  -13.1822 C   0  0  0  0  0  0  0  0  0  0  0  0
   -8.4346   -0.0545  -14.0138 C   0  0  0  0  0  0  0  0  0  0  0  0
   -8.3098    1.0368  -14.8809 C   0  0  0  0  0  0  0  0  0  0  0  0
   -7.1161    1.7680  -14.9303 C   0  0  0  0  0  0  0  0  0  0  0  0
   -3.1340    3.3220  -14.9402 C   0  0  0  0  0  0  0  0  0  0  0  0
   -4.2072    2.5779  -15.3009 N   0  0  0  0  0  0  0  0  0  0  0  0
   -4.8576    2.1532  -14.1384 C   0  0  0  0  0  0  0  0  0  0  0  0
   -4.1888    2.6805  -13.0788 N   0  0  0  0  0  0  0  0  0  0  0  0
   -3.0990    3.3871  -13.5604 O   0  0  0  0  0  0  0  0  0  0  0  0
   -1.1553    4.4633  -15.1696 F   0  0  0  0  0  0  0  0  0  0  0  0
   -2.1509    3.9360  -15.8703 C   0  0  0  0  0  0  0  0  0  0  0  0
   -2.7432    4.8905  -16.5842 F   0  0  0  0  0  0  0  0  0  0  0  0
   -1.6839    2.9882  -16.6755 F   0  0  0  0  0  0  0  0  0  0  0  0
  -11.9006    1.9493  -15.8443 C   0  0  0  0  0  0  0  0  0  0  0  0
  -12.7028    3.1407  -15.2688 C   0  0  0  0  0  0  0  0  0  0  0  0
  -12.5088    3.0102  -13.7831 C   0  0  0  0  0  0  0  0  0  0  0  0
  -13.5712    3.7755  -12.9854 C   0  0  0  0  0  0  0  0  0  0  0  0
  -14.5859    4.3793  -13.8034 O   0  0  0  0  0  0  0  0  0  0  0  0
  -15.1583    3.4957  -14.7838 C   0  0  0  0  0  0  0  0  0  0  0  0
  -14.1134    2.8176  -15.6802 C   0  0  0  0  0  0  0  0  0  0  0  0
  -12.0568    4.3065  -15.9714 C   0  0  0  0  0  0  0  0  0  0  0  0
  -10.6558    4.7429  -15.7649 N   0  0  0  0  0  0  0  0  0  0  0  0
  -10.3533    6.0691  -16.6645 C   0  0  0  0  0  0  0  0  0  0  0  0
  -11.5521    6.3530  -17.4170 C   0  0  0  0  0  0  0  0  0  0  0  0
  -12.6686    5.2549  -17.0234 S   0  0  0  0  0  0  0  0  0  0  0  0
   -9.1416    6.7556  -16.6734 C   0  0  0  0  0  0  0  0  0  0  0  0
   -9.1264    8.1287  -16.3787 C   0  0  0  0  0  0  0  0  0  0  0  0
   -7.9209    8.8398  -16.3823 C   0  0  0  0  0  0  0  0  0  0  0  0
   -6.7175    8.1838  -16.6799 C   0  0  0  0  0  0  0  0  0  0  0  0
   -6.7281    6.8158  -16.9737 C   0  0  0  0  0  0  0  0  0  0  0  0
   -7.9343    6.1052  -16.9686 C   0  0  0  0  0  0  0  0  0  0  0  0
 16 17  1  0  0  0
 17 18  1  0  0  0
 17 19  1  0  0  0
 17 11  1  0  0  0
 11 12  2  0  0  0
 11 15  1  0  0  0
 12 13  1  0  0  0
 13 14  2  0  0  0
 13  5  1  0  0  0
 14 15  1  0  0  0
  5  6  2  0  0  0
  5 10  1  0  0  0
  6  7  1  0  0  0
  7  8  2  0  0  0
  8  9  1  0  0  0
  9 10  2  0  0  0
  9  1  1  0  0  0
  1  2  2  0  0  0
  1  3  1  0  0  0
  3 20  1  0  0  0
 20 21  1  0  0  0
 21 22  1  0  0  0
 21 26  1  0  0  0
 21 27  1  0  0  0
 22 23  1  0  0  0
 23 24  1  0  0  0
 24 25  1  0  0  0
 25 26  1  0  0  0
 27 28  2  0  0  0
 27 31  1  0  0  0
 28 29  1  0  0  0
 29 30  2  0  0  0
 29 32  1  0  0  0
 30 31  1  0  0  0
 32 33  2  0  0  0
 32 37  1  0  0  0
 33 34  1  0  0  0
 34 35  2  0  0  0
 35 36  1  0  0  0
 36 37  2  0  0  0
  3  4  1  0  0  0
M  END
> <minimizedAffinity>
-9.14307

$$$$
3ZNR_NU9_A_1000


 37 41  0  0  0  0  0  0  0  0999 V2000
   -4.0222    4.8904  -16.0157 C   0  0  0  0  0  0  0  0  0  0  0  0
   -2.9467    5.0581  -16.5716 O   0  0  0  0  0  0  0  0  0  0  0  0
   -5.1452    5.7419  -16.2324 N   0  0  0  0  0  0  0  0  0  0  0  0
   -5.9759    5.5398  -15.7443 H   0  0  0  0  0  0  0  0  0  0  0  0
   -5.6541    1.9703  -14.2408 C   0  0  0  0  0  0  0  0  0  0  0  0
   -4.7293    1.7266  -13.2119 C   0  0  0  0  0  0  0  0  0  0  0  0
   -3.5734    2.5135  -13.1037 C   0  0  0  0  0  0  0  0  0  0  0  0
   -3.3306    3.5444  -14.0172 C   0  0  0  0  0  0  0  0  0  0  0  0
   -4.2477    3.7834  -15.0468 C   0  0  0  0  0  0  0  0  0  0  0  0
   -5.4099    3.0088  -15.1527 C   0  0  0  0  0  0  0  0  0  0  0  0
   -8.6663    0.2969  -15.1841 C   0  0  0  0  0  0  0  0  0  0  0  0
   -7.7260    1.2490  -15.3962 N   0  0  0  0  0  0  0  0  0  0  0  0
   -6.8051    1.1983  -14.3454 C   0  0  0  0  0  0  0  0  0  0  0  0
   -7.1785    0.1831  -13.5220 N   0  0  0  0  0  0  0  0  0  0  0  0
   -8.3491   -0.3690  -14.0157 O   0  0  0  0  0  0  0  0  0  0  0  0
   -9.7565    0.7695  -17.1483 F   0  0  0  0  0  0  0  0  0  0  0  0
   -9.8483    0.0365  -16.0464 C   0  0  0  0  0  0  0  0  0  0  0  0
  -10.9616    0.3591  -15.3922 F   0  0  0  0  0  0  0  0  0  0  0  0
   -9.8631   -1.2538  -16.3623 F   0  0  0  0  0  0  0  0  0  0  0  0
   -5.1454    6.8764  -17.1162 C   0  0  0  0  0  0  0  0  0  0  0  0
   -6.5230    7.4268  -17.5560 C   0  0  0  0  0  0  0  0  0  0  0  0
   -6.2642    7.9577  -18.9391 C   0  0  0  0  0  0  0  0  0  0  0  0
   -7.3338    8.9593  -19.3903 C   0  0  0  0  0  0  0  0  0  0  0  0
   -8.3073    9.2619  -18.3783 O   0  0  0  0  0  0  0  0  0  0  0  0
   -7.7442    9.5920  -17.0963 C   0  0  0  0  0  0  0  0  0  0  0  0
   -6.7663    8.5342  -16.5670 C   0  0  0  0  0  0  0  0  0  0  0  0
   -7.3946    6.2061  -17.4135 C   0  0  0  0  0  0  0  0  0  0  0  0
   -8.4177    6.0207  -16.3576 N   0  0  0  0  0  0  0  0  0  0  0  0
   -9.1075    4.5509  -16.5106 C   0  0  0  0  0  0  0  0  0  0  0  0
   -8.5225    3.9274  -17.6737 C   0  0  0  0  0  0  0  0  0  0  0  0
   -7.4311    4.9414  -18.2964 S   0  0  0  0  0  0  0  0  0  0  0  0
  -10.0825    4.0451  -15.6543 C   0  0  0  0  0  0  0  0  0  0  0  0
  -11.4160    3.9821  -16.0905 C   0  0  0  0  0  0  0  0  0  0  0  0
  -12.4132    3.4785  -15.2474 C   0  0  0  0  0  0  0  0  0  0  0  0
  -12.0860    3.0314  -13.9589 C   0  0  0  0  0  0  0  0  0  0  0  0
  -10.7586    3.0919  -13.5205 C   0  0  0  0  0  0  0  0  0  0  0  0
   -9.7618    3.5948  -14.3651 C   0  0  0  0  0  0  0  0  0  0  0  0
 16 17  1  0  0  0
 17 18  1  0  0  0
 17 19  1  0  0  0
 17 11  1  0  0  0
 11 12  2  0  0  0
 11 15  1  0  0  0
 12 13  1  0  0  0
 13 14  2  0  0  0
 13  5  1  0  0  0
 14 15  1  0  0  0
  5  6  2  0  0  0
  5 10  1  0  0  0
  6  7  1  0  0  0
  7  8  2  0  0  0
  8  9  1  0  0  0
  9 10  2  0  0  0
  9  1  1  0  0  0
  1  2  2  0  0  0
  1  3  1  0  0  0
  3 20  1  0  0  0
 20 21  1  0  0  0
 21 22  1  0  0  0
 21 26  1  0  0  0
 21 27  1  0  0  0
 22 23  1  0  0  0
 23 24  1  0  0  0
 24 25  1  0  0  0
 25 26  1  0  0  0
 27 28  2  0  0  0
 27 31  1  0  0  0
 28 29  1  0  0  0
 29 30  2  0  0  0
 29 32  1  0  0  0
 30 31  1  0  0  0
 32 33  2  0  0  0
 32 37  1  0  0  0
 33 34  1  0  0  0
 34 35  2  0  0  0
 35 36  1  0  0  0
 36 37  2  0  0  0
  3  4  1  0  0  0
M  END
> <minimizedAffinity>
-8.75404

$$$$
3ZNR_NU9_A_1000


 37 41  0  0  0  0  0  0  0  0999 V2000
   -9.1334    4.3366  -16.6824 C   0  0  0  0  0  0  0  0  0  0  0  0
   -9.3829    4.9533  -17.7077 O   0  0  0  0  0  0  0  0  0  0  0  0
  -10.1423    3.9290  -15.7608 N   0  0  0  0  0  0  0  0  0  0  0  0
   -9.8583    3.4368  -14.9569 H   0  0  0  0  0  0  0  0  0  0  0  0
   -6.2305    2.4756  -15.1169 C   0  0  0  0  0  0  0  0  0  0  0  0
   -5.1476    3.2762  -15.5164 C   0  0  0  0  0  0  0  0  0  0  0  0
   -5.3680    4.4185  -16.2997 C   0  0  0  0  0  0  0  0  0  0  0  0
   -6.6643    4.7698  -16.6903 C   0  0  0  0  0  0  0  0  0  0  0  0
   -7.7431    3.9690  -16.2989 C   0  0  0  0  0  0  0  0  0  0  0  0
   -7.5304    2.8338  -15.5064 C   0  0  0  0  0  0  0  0  0  0  0  0
   -4.9607   -0.2623  -13.2052 C   0  0  0  0  0  0  0  0  0  0  0  0
   -4.7734    0.7656  -14.0678 N   0  0  0  0  0  0  0  0  0  0  0  0
   -6.0164    1.3480  -14.3331 C   0  0  0  0  0  0  0  0  0  0  0  0
   -6.9453    0.6864  -13.5930 N   0  0  0  0  0  0  0  0  0  0  0  0
   -6.3081   -0.3348  -12.9076 O   0  0  0  0  0  0  0  0  0  0  0  0
   -3.8744   -1.1076  -11.3680 F   0  0  0  0  0  0  0  0  0  0  0  0
   -3.9013   -1.1700  -12.6929 C   0  0  0  0  0  0  0  0  0  0  0  0
   -2.7185   -0.7986  -13.1772 F   0  0  0  0  0  0  0  0  0  0  0  0
   -4.1841   -2.4086  -13.0810 F   0  0  0  0  0  0  0  0  0  0  0  0
  -11.5469    4.1889  -15.9273 C   0  0  0  0  0  0  0  0  0  0  0  0
  -12.5150    3.4826  -14.9486 C   0  0  0  0  0  0  0  0  0  0  0  0
  -13.5162    4.5527  -14.6107 C   0  0  0  0  0  0  0  0  0  0  0  0
  -14.2845    4.2478  -13.3194 C   0  0  0  0  0  0  0  0  0  0  0  0
  -13.8346    3.0624  -12.6443 O   0  0  0  0  0  0  0  0  0  0  0  0
  -12.4085    2.9853  -12.4722 C   0  0  0  0  0  0  0  0  0  0  0  0
  -11.6243    3.1594  -13.7799 C   0  0  0  0  0  0  0  0  0  0  0  0
  -12.9772    2.3106  -15.7750 C   0  0  0  0  0  0  0  0  0  0  0  0
  -12.0932    1.2302  -16.2722 N   0  0  0  0  0  0  0  0  0  0  0  0
  -12.9586    0.1794  -17.1702 C   0  0  0  0  0  0  0  0  0  0  0  0
  -14.3309    0.6263  -17.1399 C   0  0  0  0  0  0  0  0  0  0  0  0
  -14.4043    1.9755  -16.2558 S   0  0  0  0  0  0  0  0  0  0  0  0
  -12.4232   -0.9318  -17.8169 C   0  0  0  0  0  0  0  0  0  0  0  0
  -13.2221   -1.6553  -18.7173 C   0  0  0  0  0  0  0  0  0  0  0  0
  -12.7061   -2.7758  -19.3784 C   0  0  0  0  0  0  0  0  0  0  0  0
  -11.3844   -3.1835  -19.1461 C   0  0  0  0  0  0  0  0  0  0  0  0
  -10.5848   -2.4653  -18.2502 C   0  0  0  0  0  0  0  0  0  0  0  0
  -11.1016   -1.3439  -17.5904 C   0  0  0  0  0  0  0  0  0  0  0  0
 16 17  1  0  0  0
 17 18  1  0  0  0
 17 19  1  0  0  0
 17 11  1  0  0  0
 11 12  2  0  0  0
 11 15  1  0  0  0
 12 13  1  0  0  0
 13 14  2  0  0  0
 13  5  1  0  0  0
 14 15  1  0  0  0
  5  6  2  0  0  0
  5 10  1  0  0  0
  6  7  1  0  0  0
  7  8  2  0  0  0
  8  9  1  0  0  0
  9 10  2  0  0  0
  9  1  1  0  0  0
  1  2  2  0  0  0
  1  3  1  0  0  0
  3 20  1  0  0  0
 20 21  1  0  0  0
 21 22  1  0  0  0
 21 26  1  0  0  0
 21 27  1  0  0  0
 22 23  1  0  0  0
 23 24  1  0  0  0
 24 25  1  0  0  0
 25 26  1  0  0  0
 27 28  2  0  0  0
 27 31  1  0  0  0
 28 29  1  0  0  0
 29 30  2  0  0  0
 29 32  1  0  0  0
 30 31  1  0  0  0
 32 33  2  0  0  0
 32 37  1  0  0  0
 33 34  1  0  0  0
 34 35  2  0  0  0
 35 36  1  0  0  0
 36 37  2  0  0  0
  3  4  1  0  0  0
M  END
> <minimizedAffinity>
-8.72052

$$$$
3ZNR_NU9_A_1000


 37 41  0  0  0  0  0  0  0  0999 V2000
   -5.2734    5.0329  -16.3508 C   0  0  0  0  0  0  0  0  0  0  0  0
   -4.0630    4.8681  -16.3128 O   0  0  0  0  0  0  0  0  0  0  0  0
   -5.8744    6.2481  -16.7929 N   0  0  0  0  0  0  0  0  0  0  0  0
   -6.8574    6.3015  -16.7918 H   0  0  0  0  0  0  0  0  0  0  0  0
   -6.6406    1.8870  -14.7462 C   0  0  0  0  0  0  0  0  0  0  0  0
   -7.9882    1.9457  -15.1383 C   0  0  0  0  0  0  0  0  0  0  0  0
   -8.4473    3.0148  -15.9214 C   0  0  0  0  0  0  0  0  0  0  0  0
   -7.5707    4.0302  -16.3173 C   0  0  0  0  0  0  0  0  0  0  0  0
   -6.2296    3.9764  -15.9212 C   0  0  0  0  0  0  0  0  0  0  0  0
   -5.7625    2.9049  -15.1493 C   0  0  0  0  0  0  0  0  0  0  0  0
   -4.7861   -0.6172  -12.9988 C   0  0  0  0  0  0  0  0  0  0  0  0
   -4.8553    0.3833  -13.9099 N   0  0  0  0  0  0  0  0  0  0  0  0
   -6.1803    0.8243  -13.9777 C   0  0  0  0  0  0  0  0  0  0  0  0
   -6.8977    0.1073  -13.0725 N   0  0  0  0  0  0  0  0  0  0  0  0
   -6.0502   -0.8115  -12.4756 O   0  0  0  0  0  0  0  0  0  0  0  0
   -3.3521   -1.2989  -11.3408 F   0  0  0  0  0  0  0  0  0  0  0  0
   -3.5655   -1.3885  -12.6472 C   0  0  0  0  0  0  0  0  0  0  0  0
   -2.5173   -0.8938  -13.3013 F   0  0  0  0  0  0  0  0  0  0  0  0
   -3.7571   -2.6583  -12.9873 F   0  0  0  0  0  0  0  0  0  0  0  0
   -5.1403    7.4010  -17.2404 C   0  0  0  0  0  0  0  0  0  0  0  0
   -5.9469    8.5239  -17.9350 C   0  0  0  0  0  0  0  0  0  0  0  0
   -4.9706    9.0975  -18.9248 C   0  0  0  0  0  0  0  0  0  0  0  0
   -5.3687   10.5027  -19.3914 C   0  0  0  0  0  0  0  0  0  0  0  0
   -6.5294   11.0263  -18.7266 O   0  0  0  0  0  0  0  0  0  0  0  0
   -6.4939   10.9072  -17.2934 C   0  0  0  0  0  0  0  0  0  0  0  0
   -6.2246    9.4775  -16.8049 C   0  0  0  0  0  0  0  0  0  0  0  0
   -7.1323    7.7598  -18.4652 C   0  0  0  0  0  0  0  0  0  0  0  0
   -8.2865    7.3216  -17.6457 N   0  0  0  0  0  0  0  0  0  0  0  0
   -9.3316    6.4789  -18.5717 C   0  0  0  0  0  0  0  0  0  0  0  0
   -8.8054    6.4836  -19.9159 C   0  0  0  0  0  0  0  0  0  0  0  0
   -7.4095    7.2952  -19.9101 S   0  0  0  0  0  0  0  0  0  0  0  0
  -10.5043    5.8925  -18.1022 C   0  0  0  0  0  0  0  0  0  0  0  0
  -11.3908    5.2993  -19.0158 C   0  0  0  0  0  0  0  0  0  0  0  0
  -12.5758    4.7045  -18.5676 C   0  0  0  0  0  0  0  0  0  0  0  0
  -12.8856    4.6962  -17.1997 C   0  0  0  0  0  0  0  0  0  0  0  0
  -12.0050    5.2857  -16.2860 C   0  0  0  0  0  0  0  0  0  0  0  0
  -10.8194    5.8792  -16.7353 C   0  0  0  0  0  0  0  0  0  0  0  0
 16 17  1  0  0  0
 17 18  1  0  0  0
 17 19  1  0  0  0
 17 11  1  0  0  0
 11 12  2  0  0  0
 11 15  1  0  0  0
 12 13  1  0  0  0
 13 14  2  0  0  0
 13  5  1  0  0  0
 14 15  1  0  0  0
  5  6  2  0  0  0
  5 10  1  0  0  0
  6  7  1  0  0  0
  7  8  2  0  0  0
  8  9  1  0  0  0
  9 10  2  0  0  0
  9  1  1  0  0  0
  1  2  2  0  0  0
  1  3  1  0  0  0
  3 20  1  0  0  0
 20 21  1  0  0  0
 21 22  1  0  0  0
 21 26  1  0  0  0
 21 27  1  0  0  0
 22 23  1  0  0  0
 23 24  1  0  0  0
 24 25  1  0  0  0
 25 26  1  0  0  0
 27 28  2  0  0  0
 27 31  1  0  0  0
 28 29  1  0  0  0
 29 30  2  0  0  0
 29 32  1  0  0  0
 30 31  1  0  0  0
 32 33  2  0  0  0
 32 37  1  0  0  0
 33 34  1  0  0  0
 34 35  2  0  0  0
 35 36  1  0  0  0
 36 37  2  0  0  0
  3  4  1  0  0  0
M  END
> <minimizedAffinity>
-8.55272

$$$$
