3HKW_IX6_A_579


 43 47  0  0  0  0  0  0  0  0999 V2000
   39.1931    3.6847  -19.2580 C   0  0  0  0  0  0  0  0  0  0  0  0
   38.8200    3.6967  -17.9252 C   0  0  0  0  0  0  0  0  0  0  0  0
   37.7754    2.9075  -17.4853 C   0  0  0  0  0  0  0  0  0  0  0  0
   37.0887    2.0712  -18.3856 C   0  0  0  0  0  0  0  0  0  0  0  0
   37.4464    2.1150  -19.7375 C   0  0  0  0  0  0  0  0  0  0  0  0
   38.5138    2.8922  -20.1661 C   0  0  0  0  0  0  0  0  0  0  0  0
   34.6924    1.5114  -18.6419 C   0  0  0  0  0  0  0  0  0  0  0  0
   35.5416   -0.1416  -22.1329 C   0  0  0  0  0  0  0  0  0  0  0  0
   33.4109    0.7450  -23.0896 C   0  0  0  0  0  0  0  0  0  0  0  0
   38.8537    2.8726  -21.4899 O   0  0  0  0  0  0  0  0  0  0  0  0
   36.1617    0.4974  -16.8477 C   0  0  0  0  0  0  0  0  0  0  0  0
   35.9644    1.3057  -17.9425 N   0  0  0  0  0  0  0  0  0  0  0  0
   35.1414    0.1919  -16.2492 O   0  0  0  0  0  0  0  0  0  0  0  0
   34.6729    0.6809  -19.8994 C   0  0  0  0  0  0  0  0  0  0  0  0
   33.2653   -0.2842  -20.0205 S   0  0  0  0  0  0  0  0  0  0  0  0
   32.1397    0.5992  -19.9991 O   0  0  0  0  0  0  0  0  0  0  0  0
   33.2205   -1.2285  -18.9277 O   0  0  0  0  0  0  0  0  0  0  0  0
   33.3686   -1.2265  -21.5503 C   0  0  0  0  0  0  0  0  0  0  0  0
   34.1555   -0.5159  -22.6525 C   0  0  0  0  0  0  0  0  0  0  0  0
   34.2723   -1.4941  -23.8266 C   0  0  0  0  0  0  0  0  0  0  0  0
   35.6494    0.6498  -20.8322 C   0  0  0  0  0  0  0  0  0  0  0  0
   36.8517    1.3242  -20.7380 N   0  0  0  0  0  0  0  0  0  0  0  0
   39.5714    3.3909  -21.7971 H   0  0  0  0  0  0  0  0  0  0  0  0
   37.4117    1.2317  -21.5425 H   0  0  0  0  0  0  0  0  0  0  0  0
   34.3359    3.5678  -20.1895 C   0  0  0  0  0  0  0  0  0  0  0  0
   34.4599    3.0107  -18.9202 C   0  0  0  0  0  0  0  0  0  0  0  0
   34.1257    4.9250  -20.3440 C   0  0  0  0  0  0  0  0  0  0  0  0
   34.0629    5.7669  -19.2347 C   0  0  0  0  0  0  0  0  0  0  0  0
   34.3902    3.8576  -17.8140 C   0  0  0  0  0  0  0  0  0  0  0  0
   34.5263    3.3415  -16.6052 F   0  0  0  0  0  0  0  0  0  0  0  0
   34.1959    5.2148  -17.9633 C   0  0  0  0  0  0  0  0  0  0  0  0
   33.8640    7.1178  -19.3429 O   0  0  0  0  0  0  0  0  0  0  0  0
   33.6563    7.7887  -20.5822 C   0  0  0  0  0  0  0  0  0  0  0  0
   31.9745    7.5308  -22.3742 C   0  0  0  0  0  0  0  0  0  0  0  0
   32.2239    7.6478  -21.0589 C   0  0  0  0  0  0  0  0  0  0  0  0
   31.0799    7.6042  -20.0657 C   0  0  0  0  0  0  0  0  0  0  0  0
   37.4372   -0.0471  -16.3612 C   0  0  0  0  0  0  0  0  0  0  0  0
   38.2020   -1.0272  -16.9359 C   0  0  0  0  0  0  0  0  0  0  0  0
   39.1320   -0.4559  -15.2588 C   0  0  0  0  0  0  0  0  0  0  0  0
   40.1666   -0.4030  -14.1735 C   0  0  0  0  0  0  0  0  0  0  0  0
   37.9050   -1.7735  -18.2156 C   0  0  0  0  0  0  0  0  0  0  0  0
   38.0520    0.3369  -15.2509 N   0  0  0  0  0  0  0  0  0  0  0  0
   39.1775   -1.2248  -16.2244 O   0  0  0  0  0  0  0  0  0  0  0  0
  1  2  2  0  0  0
  1  6  1  0  0  0
  2  3  1  0  0  0
  3  4  2  0  0  0
  4  5  1  0  0  0
  4 12  1  0  0  0
  5  6  2  0  0  0
  5 22  1  0  0  0
  6 10  1  0  0  0
  7 26  1  0  0  0
  7 12  1  0  0  0
  7 14  1  0  0  0
  8 19  1  0  0  0
  8 21  1  0  0  0
 25 26  2  0  0  0
 25 27  1  0  0  0
 26 29  1  0  0  0
 27 28  2  0  0  0
 28 31  1  0  0  0
 28 32  1  0  0  0
 29 30  1  0  0  0
 29 31  2  0  0  0
  9 19  1  0  0  0
 34 35  2  0  0  0
 11 37  1  0  0  0
 11 12  1  0  0  0
 11 13  2  0  0  0
 37 38  2  0  0  0
 37 42  1  0  0  0
 38 41  1  0  0  0
 38 43  1  0  0  0
 39 40  1  0  0  0
 39 42  2  0  0  0
 39 43  1  0  0  0
 32 33  1  0  0  0
 33 35  1  0  0  0
 35 36  1  0  0  0
 14 15  1  0  0  0
 14 21  2  0  0  0
 15 16  2  0  0  0
 15 17  2  0  0  0
 15 18  1  0  0  0
 18 19  1  0  0  0
 19 20  1  0  0  0
 21 22  1  0  0  0
 10 23  1  0  0  0
 22 24  1  0  0  0
M  END
> <minimizedAffinity>
-11.22982

$$$$
3HKW_IX6_A_579


 43 47  0  0  0  0  0  0  0  0999 V2000
   32.8578    0.3751  -22.3849 C   0  0  0  0  0  0  0  0  0  0  0  0
   33.9138    0.5982  -23.2515 C   0  0  0  0  0  0  0  0  0  0  0  0
   35.1998    0.7310  -22.7657 C   0  0  0  0  0  0  0  0  0  0  0  0
   35.4520    0.6259  -21.3848 C   0  0  0  0  0  0  0  0  0  0  0  0
   34.3639    0.4545  -20.5221 C   0  0  0  0  0  0  0  0  0  0  0  0
   33.0782    0.2970  -21.0214 C   0  0  0  0  0  0  0  0  0  0  0  0
   36.9511    1.8774  -19.8655 C   0  0  0  0  0  0  0  0  0  0  0  0
   35.0957    0.2056  -16.7991 C   0  0  0  0  0  0  0  0  0  0  0  0
   35.2501    2.3449  -15.5182 C   0  0  0  0  0  0  0  0  0  0  0  0
   32.0509    0.0909  -20.1435 O   0  0  0  0  0  0  0  0  0  0  0  0
   37.7744    0.0742  -21.4395 C   0  0  0  0  0  0  0  0  0  0  0  0
   36.7734    0.8307  -20.8767 N   0  0  0  0  0  0  0  0  0  0  0  0
   38.8978    0.5359  -21.3073 O   0  0  0  0  0  0  0  0  0  0  0  0
   36.5905    1.3287  -18.5090 C   0  0  0  0  0  0  0  0  0  0  0  0
   37.8183    1.6017  -17.3490 S   0  0  0  0  0  0  0  0  0  0  0  0
   38.0211    3.0159  -17.2676 O   0  0  0  0  0  0  0  0  0  0  0  0
   39.0270    0.9133  -17.7404 O   0  0  0  0  0  0  0  0  0  0  0  0
   37.2718    0.8961  -15.7861 C   0  0  0  0  0  0  0  0  0  0  0  0
   35.7525    0.9047  -15.6111 C   0  0  0  0  0  0  0  0  0  0  0  0
   35.4432    0.1526  -14.3121 C   0  0  0  0  0  0  0  0  0  0  0  0
   35.4533    0.6638  -18.2105 C   0  0  0  0  0  0  0  0  0  0  0  0
   34.4761    0.3223  -19.1257 N   0  0  0  0  0  0  0  0  0  0  0  0
   31.1766   -0.0175  -20.4626 H   0  0  0  0  0  0  0  0  0  0  0  0
   33.6909   -0.1046  -18.7127 H   0  0  0  0  0  0  0  0  0  0  0  0
   35.0905    3.6464  -19.4663 C   0  0  0  0  0  0  0  0  0  0  0  0
   36.1333    3.1330  -20.2317 C   0  0  0  0  0  0  0  0  0  0  0  0
   34.4135    4.7811  -19.8716 C   0  0  0  0  0  0  0  0  0  0  0  0
   34.7414    5.4168  -21.0682 C   0  0  0  0  0  0  0  0  0  0  0  0
   36.4604    3.7771  -21.4250 C   0  0  0  0  0  0  0  0  0  0  0  0
   37.4360    3.2863  -22.1688 F   0  0  0  0  0  0  0  0  0  0  0  0
   35.7779    4.9008  -21.8416 C   0  0  0  0  0  0  0  0  0  0  0  0
   34.0915    6.5383  -21.5110 O   0  0  0  0  0  0  0  0  0  0  0  0
   33.4362    7.4636  -20.6488 C   0  0  0  0  0  0  0  0  0  0  0  0
   31.0596    7.4915  -19.9726 C   0  0  0  0  0  0  0  0  0  0  0  0
   31.9582    7.5728  -20.9685 C   0  0  0  0  0  0  0  0  0  0  0  0
   31.4907    7.8055  -22.3914 C   0  0  0  0  0  0  0  0  0  0  0  0
   37.6342   -1.2136  -22.1335 C   0  0  0  0  0  0  0  0  0  0  0  0
   37.8011   -1.4669  -23.4691 C   0  0  0  0  0  0  0  0  0  0  0  0
   37.2992   -3.1958  -22.5957 C   0  0  0  0  0  0  0  0  0  0  0  0
   36.9704   -4.6522  -22.4473 C   0  0  0  0  0  0  0  0  0  0  0  0
   38.1755   -0.4687  -24.5397 C   0  0  0  0  0  0  0  0  0  0  0  0
   37.3049   -2.3580  -21.5502 N   0  0  0  0  0  0  0  0  0  0  0  0
   37.5744   -2.6522  -23.6701 O   0  0  0  0  0  0  0  0  0  0  0  0
  1  2  2  0  0  0
  1  6  1  0  0  0
  2  3  1  0  0  0
  3  4  2  0  0  0
  4  5  1  0  0  0
  4 12  1  0  0  0
  5  6  2  0  0  0
  5 22  1  0  0  0
  6 10  1  0  0  0
  7 26  1  0  0  0
  7 12  1  0  0  0
  7 14  1  0  0  0
  8 19  1  0  0  0
  8 21  1  0  0  0
 25 26  2  0  0  0
 25 27  1  0  0  0
 26 29  1  0  0  0
 27 28  2  0  0  0
 28 31  1  0  0  0
 28 32  1  0  0  0
 29 30  1  0  0  0
 29 31  2  0  0  0
  9 19  1  0  0  0
 34 35  2  0  0  0
 11 37  1  0  0  0
 11 12  1  0  0  0
 11 13  2  0  0  0
 37 38  2  0  0  0
 37 42  1  0  0  0
 38 41  1  0  0  0
 38 43  1  0  0  0
 39 40  1  0  0  0
 39 42  2  0  0  0
 39 43  1  0  0  0
 32 33  1  0  0  0
 33 35  1  0  0  0
 35 36  1  0  0  0
 14 15  1  0  0  0
 14 21  2  0  0  0
 15 16  2  0  0  0
 15 17  2  0  0  0
 15 18  1  0  0  0
 18 19  1  0  0  0
 19 20  1  0  0  0
 21 22  1  0  0  0
 10 23  1  0  0  0
 22 24  1  0  0  0
M  END
> <minimizedAffinity>
-9.89645

$$$$
3HKW_IX6_A_579


 43 47  0  0  0  0  0  0  0  0999 V2000
   33.1230   -0.5099  -21.0542 C   0  0  0  0  0  0  0  0  0  0  0  0
   33.6470   -0.0046  -22.2314 C   0  0  0  0  0  0  0  0  0  0  0  0
   34.9140    0.5447  -22.2526 C   0  0  0  0  0  0  0  0  0  0  0  0
   35.6915    0.5829  -21.0799 C   0  0  0  0  0  0  0  0  0  0  0  0
   35.1222    0.1164  -19.8901 C   0  0  0  0  0  0  0  0  0  0  0  0
   33.8579   -0.4569  -19.8834 C   0  0  0  0  0  0  0  0  0  0  0  0
   37.1964    2.3044  -20.1345 C   0  0  0  0  0  0  0  0  0  0  0  0
   37.2533    0.2682  -16.7446 C   0  0  0  0  0  0  0  0  0  0  0  0
   37.2225    2.4009  -15.4439 C   0  0  0  0  0  0  0  0  0  0  0  0
   33.3579   -0.9366  -18.7051 O   0  0  0  0  0  0  0  0  0  0  0  0
   37.8667    0.7842  -22.0440 C   0  0  0  0  0  0  0  0  0  0  0  0
   36.9760    1.2126  -21.0879 N   0  0  0  0  0  0  0  0  0  0  0  0
   38.7568    1.5796  -22.3042 O   0  0  0  0  0  0  0  0  0  0  0  0
   37.5651    1.7288  -18.7913 C   0  0  0  0  0  0  0  0  0  0  0  0
   38.9949    2.4217  -18.1565 S   0  0  0  0  0  0  0  0  0  0  0  0
   38.7713    3.8304  -18.0414 O   0  0  0  0  0  0  0  0  0  0  0  0
   40.1113    2.1303  -19.0264 O   0  0  0  0  0  0  0  0  0  0  0  0
   39.3277    1.6478  -16.5660 C   0  0  0  0  0  0  0  0  0  0  0  0
   38.0653    1.1878  -15.8355 C   0  0  0  0  0  0  0  0  0  0  0  0
   38.5190    0.4328  -14.5813 C   0  0  0  0  0  0  0  0  0  0  0  0
   36.8887    0.7547  -18.1447 C   0  0  0  0  0  0  0  0  0  0  0  0
   35.7917    0.0856  -18.6527 N   0  0  0  0  0  0  0  0  0  0  0  0
   32.5063   -1.3267  -18.6818 H   0  0  0  0  0  0  0  0  0  0  0  0
   35.3936   -0.5475  -18.0125 H   0  0  0  0  0  0  0  0  0  0  0  0
   35.1863    3.4202  -18.9241 C   0  0  0  0  0  0  0  0  0  0  0  0
   35.9599    3.2240  -20.0641 C   0  0  0  0  0  0  0  0  0  0  0  0
   34.0946    4.2673  -18.9526 C   0  0  0  0  0  0  0  0  0  0  0  0
   33.7292    4.9189  -20.1296 C   0  0  0  0  0  0  0  0  0  0  0  0
   35.5926    3.8835  -21.2371 C   0  0  0  0  0  0  0  0  0  0  0  0
   36.3090    3.6887  -22.3302 F   0  0  0  0  0  0  0  0  0  0  0  0
   34.4951    4.7179  -21.2749 C   0  0  0  0  0  0  0  0  0  0  0  0
   32.6509    5.7602  -20.2039 O   0  0  0  0  0  0  0  0  0  0  0  0
   32.6678    7.1084  -19.7444 C   0  0  0  0  0  0  0  0  0  0  0  0
   34.2625    8.8829  -20.3877 C   0  0  0  0  0  0  0  0  0  0  0  0
   33.2890    8.0383  -20.7681 C   0  0  0  0  0  0  0  0  0  0  0  0
   32.8458    7.9989  -22.2170 C   0  0  0  0  0  0  0  0  0  0  0  0
   37.8733   -0.5112  -22.7381 C   0  0  0  0  0  0  0  0  0  0  0  0
   37.9799   -0.7385  -24.0845 C   0  0  0  0  0  0  0  0  0  0  0  0
   37.8096   -2.5220  -23.1936 C   0  0  0  0  0  0  0  0  0  0  0  0
   37.7164   -4.0111  -23.0356 C   0  0  0  0  0  0  0  0  0  0  0  0
   38.1208    0.3032  -25.1699 C   0  0  0  0  0  0  0  0  0  0  0  0
   37.7638   -1.6913  -22.1434 N   0  0  0  0  0  0  0  0  0  0  0  0
   37.9212   -1.9448  -24.2798 O   0  0  0  0  0  0  0  0  0  0  0  0
  1  2  2  0  0  0
  1  6  1  0  0  0
  2  3  1  0  0  0
  3  4  2  0  0  0
  4  5  1  0  0  0
  4 12  1  0  0  0
  5  6  2  0  0  0
  5 22  1  0  0  0
  6 10  1  0  0  0
  7 26  1  0  0  0
  7 12  1  0  0  0
  7 14  1  0  0  0
  8 19  1  0  0  0
  8 21  1  0  0  0
 25 26  2  0  0  0
 25 27  1  0  0  0
 26 29  1  0  0  0
 27 28  2  0  0  0
 28 31  1  0  0  0
 28 32  1  0  0  0
 29 30  1  0  0  0
 29 31  2  0  0  0
  9 19  1  0  0  0
 34 35  2  0  0  0
 11 37  1  0  0  0
 11 12  1  0  0  0
 11 13  2  0  0  0
 37 38  2  0  0  0
 37 42  1  0  0  0
 38 41  1  0  0  0
 38 43  1  0  0  0
 39 40  1  0  0  0
 39 42  2  0  0  0
 39 43  1  0  0  0
 32 33  1  0  0  0
 33 35  1  0  0  0
 35 36  1  0  0  0
 14 15  1  0  0  0
 14 21  2  0  0  0
 15 16  2  0  0  0
 15 17  2  0  0  0
 15 18  1  0  0  0
 18 19  1  0  0  0
 19 20  1  0  0  0
 21 22  1  0  0  0
 10 23  1  0  0  0
 22 24  1  0  0  0
M  END
> <minimizedAffinity>
-9.56851

$$$$
3HKW_IX6_A_579


 43 47  0  0  0  0  0  0  0  0999 V2000
   36.3563   -2.4480  -17.4753 C   0  0  0  0  0  0  0  0  0  0  0  0
   35.3570   -1.8386  -18.2139 C   0  0  0  0  0  0  0  0  0  0  0  0
   35.6518   -1.2263  -19.4162 C   0  0  0  0  0  0  0  0  0  0  0  0
   36.9699   -1.2286  -19.9102 C   0  0  0  0  0  0  0  0  0  0  0  0
   37.9735   -1.8025  -19.1223 C   0  0  0  0  0  0  0  0  0  0  0  0
   37.6638   -2.4375  -17.9273 C   0  0  0  0  0  0  0  0  0  0  0  0
   38.3228    0.4983  -21.0546 C   0  0  0  0  0  0  0  0  0  0  0  0
   41.5217   -1.7571  -20.4886 C   0  0  0  0  0  0  0  0  0  0  0  0
   42.8967    0.2784  -20.0337 C   0  0  0  0  0  0  0  0  0  0  0  0
   38.6711   -3.0203  -17.2102 O   0  0  0  0  0  0  0  0  0  0  0  0
   36.5331   -0.8537  -22.2276 C   0  0  0  0  0  0  0  0  0  0  0  0
   37.2860   -0.5361  -21.1215 N   0  0  0  0  0  0  0  0  0  0  0  0
   36.5241    0.0011  -23.1004 O   0  0  0  0  0  0  0  0  0  0  0  0
   39.6809   -0.1476  -21.1523 C   0  0  0  0  0  0  0  0  0  0  0  0
   40.6585    0.5715  -22.3584 S   0  0  0  0  0  0  0  0  0  0  0  0
   40.7972    1.9562  -22.0251 O   0  0  0  0  0  0  0  0  0  0  0  0
   40.0479    0.3960  -23.6562 O   0  0  0  0  0  0  0  0  0  0  0  0
   42.2383   -0.2905  -22.3791 C   0  0  0  0  0  0  0  0  0  0  0  0
   42.6393   -0.8616  -21.0182 C   0  0  0  0  0  0  0  0  0  0  0  0
   43.9202   -1.6761  -21.2298 C   0  0  0  0  0  0  0  0  0  0  0  0
   40.1042   -1.1960  -20.4132 C   0  0  0  0  0  0  0  0  0  0  0  0
   39.3263   -1.8833  -19.5013 N   0  0  0  0  0  0  0  0  0  0  0  0
   38.4805   -3.4534  -16.4015 H   0  0  0  0  0  0  0  0  0  0  0  0
   39.8247   -2.5775  -19.0125 H   0  0  0  0  0  0  0  0  0  0  0  0
   39.0898    1.3955  -18.7400 C   0  0  0  0  0  0  0  0  0  0  0  0
   38.1629    1.3479  -19.7770 C   0  0  0  0  0  0  0  0  0  0  0  0
   38.8641    2.1894  -17.6314 C   0  0  0  0  0  0  0  0  0  0  0  0
   37.6918    2.9350  -17.5160 C   0  0  0  0  0  0  0  0  0  0  0  0
   36.9947    2.1008  -19.6582 C   0  0  0  0  0  0  0  0  0  0  0  0
   36.0992    2.0473  -20.6284 F   0  0  0  0  0  0  0  0  0  0  0  0
   36.7576    2.8827  -18.5472 C   0  0  0  0  0  0  0  0  0  0  0  0
   37.4247    3.7282  -16.4318 O   0  0  0  0  0  0  0  0  0  0  0  0
   36.4002    3.4492  -15.4822 C   0  0  0  0  0  0  0  0  0  0  0  0
   37.4019    1.6322  -14.1401 C   0  0  0  0  0  0  0  0  0  0  0  0
   36.4523    2.0083  -15.0135 C   0  0  0  0  0  0  0  0  0  0  0  0
   35.4260    1.0019  -15.4942 C   0  0  0  0  0  0  0  0  0  0  0  0
   35.7885   -2.0971  -22.4708 C   0  0  0  0  0  0  0  0  0  0  0  0
   36.2878   -3.3703  -22.5461 C   0  0  0  0  0  0  0  0  0  0  0  0
   34.3139   -3.4883  -22.8519 C   0  0  0  0  0  0  0  0  0  0  0  0
   32.9673   -4.0912  -23.1242 C   0  0  0  0  0  0  0  0  0  0  0  0
   37.7317   -3.7870  -22.3897 C   0  0  0  0  0  0  0  0  0  0  0  0
   34.4796   -2.1714  -22.6694 N   0  0  0  0  0  0  0  0  0  0  0  0
   35.3639   -4.1354  -22.7862 O   0  0  0  0  0  0  0  0  0  0  0  0
  1  2  2  0  0  0
  1  6  1  0  0  0
  2  3  1  0  0  0
  3  4  2  0  0  0
  4  5  1  0  0  0
  4 12  1  0  0  0
  5  6  2  0  0  0
  5 22  1  0  0  0
  6 10  1  0  0  0
  7 26  1  0  0  0
  7 12  1  0  0  0
  7 14  1  0  0  0
  8 19  1  0  0  0
  8 21  1  0  0  0
 25 26  2  0  0  0
 25 27  1  0  0  0
 26 29  1  0  0  0
 27 28  2  0  0  0
 28 31  1  0  0  0
 28 32  1  0  0  0
 29 30  1  0  0  0
 29 31  2  0  0  0
  9 19  1  0  0  0
 34 35  2  0  0  0
 11 37  1  0  0  0
 11 12  1  0  0  0
 11 13  2  0  0  0
 37 38  2  0  0  0
 37 42  1  0  0  0
 38 41  1  0  0  0
 38 43  1  0  0  0
 39 40  1  0  0  0
 39 42  2  0  0  0
 39 43  1  0  0  0
 32 33  1  0  0  0
 33 35  1  0  0  0
 35 36  1  0  0  0
 14 15  1  0  0  0
 14 21  2  0  0  0
 15 16  2  0  0  0
 15 17  2  0  0  0
 15 18  1  0  0  0
 18 19  1  0  0  0
 19 20  1  0  0  0
 21 22  1  0  0  0
 10 23  1  0  0  0
 22 24  1  0  0  0
M  END
> <minimizedAffinity>
-8.81911

$$$$
3HKW_IX6_A_579


 43 47  0  0  0  0  0  0  0  0999 V2000
   34.1299   -0.8989  -19.0916 C   0  0  0  0  0  0  0  0  0  0  0  0
   34.3922   -0.9478  -20.4498 C   0  0  0  0  0  0  0  0  0  0  0  0
   35.6112   -0.5237  -20.9413 C   0  0  0  0  0  0  0  0  0  0  0  0
   36.6054   -0.0510  -20.0640 C   0  0  0  0  0  0  0  0  0  0  0  0
   36.3000    0.0407  -18.7017 C   0  0  0  0  0  0  0  0  0  0  0  0
   35.0815   -0.4113  -18.2139 C   0  0  0  0  0  0  0  0  0  0  0  0
   38.2126    1.8234  -20.2227 C   0  0  0  0  0  0  0  0  0  0  0  0
   39.0097    1.3509  -16.3780 C   0  0  0  0  0  0  0  0  0  0  0  0
   39.1706    3.8273  -16.0902 C   0  0  0  0  0  0  0  0  0  0  0  0
   34.8422   -0.3400  -16.8699 O   0  0  0  0  0  0  0  0  0  0  0  0
   38.5369   -0.3779  -21.4291 C   0  0  0  0  0  0  0  0  0  0  0  0
   37.8416    0.4508  -20.5802 N   0  0  0  0  0  0  0  0  0  0  0  0
   39.3313    0.1928  -22.1611 O   0  0  0  0  0  0  0  0  0  0  0  0
   38.8600    1.8284  -18.8618 C   0  0  0  0  0  0  0  0  0  0  0  0
   40.3648    2.6427  -18.8597 S   0  0  0  0  0  0  0  0  0  0  0  0
   40.1236    3.9851  -19.2927 O   0  0  0  0  0  0  0  0  0  0  0  0
   41.2940    1.9620  -19.7322 O   0  0  0  0  0  0  0  0  0  0  0  0
   41.0328    2.5700  -17.1901 C   0  0  0  0  0  0  0  0  0  0  0  0
   39.9568    2.5170  -16.1045 C   0  0  0  0  0  0  0  0  0  0  0  0
   40.6755    2.3175  -14.7657 C   0  0  0  0  0  0  0  0  0  0  0  0
   38.3578    1.2413  -17.7538 C   0  0  0  0  0  0  0  0  0  0  0  0
   37.2035    0.4827  -17.7176 N   0  0  0  0  0  0  0  0  0  0  0  0
   34.0253   -0.6404  -16.5229 H   0  0  0  0  0  0  0  0  0  0  0  0
   36.9616    0.1888  -16.8096 H   0  0  0  0  0  0  0  0  0  0  0  0
   36.4003    3.3784  -19.1989 C   0  0  0  0  0  0  0  0  0  0  0  0
   36.9862    2.7561  -20.2972 C   0  0  0  0  0  0  0  0  0  0  0  0
   35.3025    4.2022  -19.3606 C   0  0  0  0  0  0  0  0  0  0  0  0
   34.7423    4.4032  -20.6213 C   0  0  0  0  0  0  0  0  0  0  0  0
   36.4246    2.9660  -21.5567 C   0  0  0  0  0  0  0  0  0  0  0  0
   36.9614    2.3640  -22.6034 F   0  0  0  0  0  0  0  0  0  0  0  0
   35.3198    3.7748  -21.7215 C   0  0  0  0  0  0  0  0  0  0  0  0
   33.6504    5.2046  -20.8252 O   0  0  0  0  0  0  0  0  0  0  0  0
   33.7343    6.6028  -21.0844 C   0  0  0  0  0  0  0  0  0  0  0  0
   31.9871    7.5947  -22.5230 C   0  0  0  0  0  0  0  0  0  0  0  0
   32.3625    7.2148  -21.2898 C   0  0  0  0  0  0  0  0  0  0  0  0
   31.4034    7.3694  -20.1265 C   0  0  0  0  0  0  0  0  0  0  0  0
   38.4465   -1.8422  -21.5162 C   0  0  0  0  0  0  0  0  0  0  0  0
   38.7894   -2.7601  -20.5592 C   0  0  0  0  0  0  0  0  0  0  0  0
   38.1419   -3.7800  -22.1543 C   0  0  0  0  0  0  0  0  0  0  0  0
   37.7741   -4.9478  -23.0216 C   0  0  0  0  0  0  0  0  0  0  0  0
   39.3396   -2.4696  -19.1823 C   0  0  0  0  0  0  0  0  0  0  0  0
   38.0132   -2.5142  -22.5741 N   0  0  0  0  0  0  0  0  0  0  0  0
   38.5961   -3.8808  -21.0102 O   0  0  0  0  0  0  0  0  0  0  0  0
  1  2  2  0  0  0
  1  6  1  0  0  0
  2  3  1  0  0  0
  3  4  2  0  0  0
  4  5  1  0  0  0
  4 12  1  0  0  0
  5  6  2  0  0  0
  5 22  1  0  0  0
  6 10  1  0  0  0
  7 26  1  0  0  0
  7 12  1  0  0  0
  7 14  1  0  0  0
  8 19  1  0  0  0
  8 21  1  0  0  0
 25 26  2  0  0  0
 25 27  1  0  0  0
 26 29  1  0  0  0
 27 28  2  0  0  0
 28 31  1  0  0  0
 28 32  1  0  0  0
 29 30  1  0  0  0
 29 31  2  0  0  0
  9 19  1  0  0  0
 34 35  2  0  0  0
 11 37  1  0  0  0
 11 12  1  0  0  0
 11 13  2  0  0  0
 37 38  2  0  0  0
 37 42  1  0  0  0
 38 41  1  0  0  0
 38 43  1  0  0  0
 39 40  1  0  0  0
 39 42  2  0  0  0
 39 43  1  0  0  0
 32 33  1  0  0  0
 33 35  1  0  0  0
 35 36  1  0  0  0
 14 15  1  0  0  0
 14 21  2  0  0  0
 15 16  2  0  0  0
 15 17  2  0  0  0
 15 18  1  0  0  0
 18 19  1  0  0  0
 19 20  1  0  0  0
 21 22  1  0  0  0
 10 23  1  0  0  0
 22 24  1  0  0  0
M  END
> <minimizedAffinity>
-8.73789

$$$$
3HKW_IX6_A_579


 43 47  0  0  0  0  0  0  0  0999 V2000
   41.7139    1.3336  -20.4555 C   0  0  0  0  0  0  0  0  0  0  0  0
   41.4811    0.1134  -21.0658 C   0  0  0  0  0  0  0  0  0  0  0  0
   40.2147   -0.4377  -21.0649 C   0  0  0  0  0  0  0  0  0  0  0  0
   39.1440    0.2434  -20.4557 C   0  0  0  0  0  0  0  0  0  0  0  0
   39.4120    1.4488  -19.7979 C   0  0  0  0  0  0  0  0  0  0  0  0
   40.6826    2.0072  -19.8257 C   0  0  0  0  0  0  0  0  0  0  0  0
   37.2473   -0.5348  -19.0706 C   0  0  0  0  0  0  0  0  0  0  0  0
   36.4909    3.2347  -18.1436 C   0  0  0  0  0  0  0  0  0  0  0  0
   35.9130    2.5616  -15.8081 C   0  0  0  0  0  0  0  0  0  0  0  0
   40.8891    3.2070  -19.2041 O   0  0  0  0  0  0  0  0  0  0  0  0
   37.3126   -0.7886  -21.5881 C   0  0  0  0  0  0  0  0  0  0  0  0
   37.8480   -0.3592  -20.3964 N   0  0  0  0  0  0  0  0  0  0  0  0
   36.4433   -1.6400  -21.4789 O   0  0  0  0  0  0  0  0  0  0  0  0
   36.5906    0.7529  -18.6443 C   0  0  0  0  0  0  0  0  0  0  0  0
   34.9706    0.5231  -18.1440 S   0  0  0  0  0  0  0  0  0  0  0  0
   34.9888   -0.4025  -17.0528 O   0  0  0  0  0  0  0  0  0  0  0  0
   34.1802    0.0278  -19.2476 O   0  0  0  0  0  0  0  0  0  0  0  0
   34.3027    2.1264  -17.6725 C   0  0  0  0  0  0  0  0  0  0  0  0
   35.3581    3.0912  -17.1298 C   0  0  0  0  0  0  0  0  0  0  0  0
   34.6657    4.4405  -16.9092 C   0  0  0  0  0  0  0  0  0  0  0  0
   37.1698    1.9730  -18.6700 C   0  0  0  0  0  0  0  0  0  0  0  0
   38.4344    2.2355  -19.1608 N   0  0  0  0  0  0  0  0  0  0  0  0
   41.7402    3.5987  -19.2127 H   0  0  0  0  0  0  0  0  0  0  0  0
   38.7104    3.1726  -19.0389 H   0  0  0  0  0  0  0  0  0  0  0  0
   38.7376   -0.2929  -16.9561 C   0  0  0  0  0  0  0  0  0  0  0  0
   38.3007   -1.0251  -18.0560 C   0  0  0  0  0  0  0  0  0  0  0  0
   39.6855   -0.8143  -16.0961 C   0  0  0  0  0  0  0  0  0  0  0  0
   40.2441   -2.0703  -16.3286 C   0  0  0  0  0  0  0  0  0  0  0  0
   38.8592   -2.2836  -18.2798 C   0  0  0  0  0  0  0  0  0  0  0  0
   38.4655   -2.9787  -19.3324 F   0  0  0  0  0  0  0  0  0  0  0  0
   39.8166   -2.8021  -17.4333 C   0  0  0  0  0  0  0  0  0  0  0  0
   41.1913   -2.6211  -15.5066 O   0  0  0  0  0  0  0  0  0  0  0  0
   41.6207   -2.0253  -14.2861 C   0  0  0  0  0  0  0  0  0  0  0  0
   41.0678   -3.9653  -12.8589 C   0  0  0  0  0  0  0  0  0  0  0  0
   40.9303   -2.6484  -13.0887 C   0  0  0  0  0  0  0  0  0  0  0  0
   40.1183   -1.7953  -12.1348 C   0  0  0  0  0  0  0  0  0  0  0  0
   37.6486   -0.3136  -22.9377 C   0  0  0  0  0  0  0  0  0  0  0  0
   37.3773    0.9122  -23.4850 C   0  0  0  0  0  0  0  0  0  0  0  0
   38.3210   -0.1653  -24.8821 C   0  0  0  0  0  0  0  0  0  0  0  0
   38.9498   -0.5191  -26.1977 C   0  0  0  0  0  0  0  0  0  0  0  0
   36.6677    2.0656  -22.8149 C   0  0  0  0  0  0  0  0  0  0  0  0
   38.2775   -1.0299  -23.8595 N   0  0  0  0  0  0  0  0  0  0  0  0
   37.7902    0.9226  -24.6366 O   0  0  0  0  0  0  0  0  0  0  0  0
  1  2  2  0  0  0
  1  6  1  0  0  0
  2  3  1  0  0  0
  3  4  2  0  0  0
  4  5  1  0  0  0
  4 12  1  0  0  0
  5  6  2  0  0  0
  5 22  1  0  0  0
  6 10  1  0  0  0
  7 26  1  0  0  0
  7 12  1  0  0  0
  7 14  1  0  0  0
  8 19  1  0  0  0
  8 21  1  0  0  0
 25 26  2  0  0  0
 25 27  1  0  0  0
 26 29  1  0  0  0
 27 28  2  0  0  0
 28 31  1  0  0  0
 28 32  1  0  0  0
 29 30  1  0  0  0
 29 31  2  0  0  0
  9 19  1  0  0  0
 34 35  2  0  0  0
 11 37  1  0  0  0
 11 12  1  0  0  0
 11 13  2  0  0  0
 37 38  2  0  0  0
 37 42  1  0  0  0
 38 41  1  0  0  0
 38 43  1  0  0  0
 39 40  1  0  0  0
 39 42  2  0  0  0
 39 43  1  0  0  0
 32 33  1  0  0  0
 33 35  1  0  0  0
 35 36  1  0  0  0
 14 15  1  0  0  0
 14 21  2  0  0  0
 15 16  2  0  0  0
 15 17  2  0  0  0
 15 18  1  0  0  0
 18 19  1  0  0  0
 19 20  1  0  0  0
 21 22  1  0  0  0
 10 23  1  0  0  0
 22 24  1  0  0  0
M  END
> <minimizedAffinity>
-8.72233

$$$$
3HKW_IX6_A_579


 43 47  0  0  0  0  0  0  0  0999 V2000
   40.0397    4.3171  -17.2288 C   0  0  0  0  0  0  0  0  0  0  0  0
   39.2921    4.4210  -16.0686 C   0  0  0  0  0  0  0  0  0  0  0  0
   38.3886    3.4331  -15.7291 C   0  0  0  0  0  0  0  0  0  0  0  0
   38.2295    2.3026  -16.5525 C   0  0  0  0  0  0  0  0  0  0  0  0
   38.9550    2.2436  -17.7473 C   0  0  0  0  0  0  0  0  0  0  0  0
   39.8790    3.2288  -18.0677 C   0  0  0  0  0  0  0  0  0  0  0  0
   36.2328    1.0207  -17.2539 C   0  0  0  0  0  0  0  0  0  0  0  0
   38.4675   -0.8174  -19.9498 C   0  0  0  0  0  0  0  0  0  0  0  0
   36.5745   -0.7645  -21.5792 C   0  0  0  0  0  0  0  0  0  0  0  0
   40.5953    3.1092  -19.2258 O   0  0  0  0  0  0  0  0  0  0  0  0
   37.2952    0.7787  -14.9693 C   0  0  0  0  0  0  0  0  0  0  0  0
   37.2457    1.3137  -16.2352 N   0  0  0  0  0  0  0  0  0  0  0  0
   36.2487    0.2779  -14.5863 O   0  0  0  0  0  0  0  0  0  0  0  0
   36.7949    0.0401  -18.2507 C   0  0  0  0  0  0  0  0  0  0  0  0
   35.7681   -1.3077  -18.4882 S   0  0  0  0  0  0  0  0  0  0  0  0
   34.5087   -0.8082  -18.9487 O   0  0  0  0  0  0  0  0  0  0  0  0
   35.6280   -2.0434  -17.2524 O   0  0  0  0  0  0  0  0  0  0  0  0
   36.5525   -2.3989  -19.6853 C   0  0  0  0  0  0  0  0  0  0  0  0
   37.4366   -1.6632  -20.6935 C   0  0  0  0  0  0  0  0  0  0  0  0
   38.1352   -2.7296  -21.5441 C   0  0  0  0  0  0  0  0  0  0  0  0
   37.9834    0.1594  -18.8815 C   0  0  0  0  0  0  0  0  0  0  0  0
   38.8998    1.1680  -18.6529 N   0  0  0  0  0  0  0  0  0  0  0  0
   41.2233    3.7646  -19.4581 H   0  0  0  0  0  0  0  0  0  0  0  0
   39.6805    1.1248  -19.2511 H   0  0  0  0  0  0  0  0  0  0  0  0
   36.0234    2.6964  -19.2284 C   0  0  0  0  0  0  0  0  0  0  0  0
   35.7373    2.3212  -17.9192 C   0  0  0  0  0  0  0  0  0  0  0  0
   35.5330    3.8817  -19.7431 C   0  0  0  0  0  0  0  0  0  0  0  0
   34.7674    4.7384  -18.9535 C   0  0  0  0  0  0  0  0  0  0  0  0
   34.9657    3.1800  -17.1362 C   0  0  0  0  0  0  0  0  0  0  0  0
   34.7048    2.8423  -15.8856 F   0  0  0  0  0  0  0  0  0  0  0  0
   34.4868    4.3711  -17.6401 C   0  0  0  0  0  0  0  0  0  0  0  0
   34.2686    5.9253  -19.4209 O   0  0  0  0  0  0  0  0  0  0  0  0
   33.1613    6.0206  -20.3118 C   0  0  0  0  0  0  0  0  0  0  0  0
   31.3895    7.7414  -20.3865 C   0  0  0  0  0  0  0  0  0  0  0  0
   32.6995    7.4554  -20.4755 C   0  0  0  0  0  0  0  0  0  0  0  0
   33.7025    8.5685  -20.7040 C   0  0  0  0  0  0  0  0  0  0  0  0
   38.4577    0.7208  -14.0720 C   0  0  0  0  0  0  0  0  0  0  0  0
   39.6288    0.0367  -14.2629 C   0  0  0  0  0  0  0  0  0  0  0  0
   39.7621    0.9583  -12.4918 C   0  0  0  0  0  0  0  0  0  0  0  0
   40.3354    1.4043  -11.1789 C   0  0  0  0  0  0  0  0  0  0  0  0
   39.9940   -0.8178  -15.4542 C   0  0  0  0  0  0  0  0  0  0  0  0
   38.5434    1.3361  -12.9005 N   0  0  0  0  0  0  0  0  0  0  0  0
   40.3437    0.2119  -13.2856 O   0  0  0  0  0  0  0  0  0  0  0  0
  1  2  2  0  0  0
  1  6  1  0  0  0
  2  3  1  0  0  0
  3  4  2  0  0  0
  4  5  1  0  0  0
  4 12  1  0  0  0
  5  6  2  0  0  0
  5 22  1  0  0  0
  6 10  1  0  0  0
  7 26  1  0  0  0
  7 12  1  0  0  0
  7 14  1  0  0  0
  8 19  1  0  0  0
  8 21  1  0  0  0
 25 26  2  0  0  0
 25 27  1  0  0  0
 26 29  1  0  0  0
 27 28  2  0  0  0
 28 31  1  0  0  0
 28 32  1  0  0  0
 29 30  1  0  0  0
 29 31  2  0  0  0
  9 19  1  0  0  0
 34 35  2  0  0  0
 11 37  1  0  0  0
 11 12  1  0  0  0
 11 13  2  0  0  0
 37 38  2  0  0  0
 37 42  1  0  0  0
 38 41  1  0  0  0
 38 43  1  0  0  0
 39 40  1  0  0  0
 39 42  2  0  0  0
 39 43  1  0  0  0
 32 33  1  0  0  0
 33 35  1  0  0  0
 35 36  1  0  0  0
 14 15  1  0  0  0
 14 21  2  0  0  0
 15 16  2  0  0  0
 15 17  2  0  0  0
 15 18  1  0  0  0
 18 19  1  0  0  0
 19 20  1  0  0  0
 21 22  1  0  0  0
 10 23  1  0  0  0
 22 24  1  0  0  0
M  END
> <minimizedAffinity>
-8.63046

$$$$
3HKW_IX6_A_579


 43 47  0  0  0  0  0  0  0  0999 V2000
   35.9409   -1.7852  -17.3797 C   0  0  0  0  0  0  0  0  0  0  0  0
   35.0541   -0.9339  -18.0158 C   0  0  0  0  0  0  0  0  0  0  0  0
   35.4302   -0.2647  -19.1640 C   0  0  0  0  0  0  0  0  0  0  0  0
   36.7149   -0.4530  -19.7075 C   0  0  0  0  0  0  0  0  0  0  0  0
   37.6134   -1.2754  -19.0190 C   0  0  0  0  0  0  0  0  0  0  0  0
   37.2184   -1.9634  -17.8798 C   0  0  0  0  0  0  0  0  0  0  0  0
   38.3357    1.1107  -20.7319 C   0  0  0  0  0  0  0  0  0  0  0  0
   41.0803   -1.7282  -20.5135 C   0  0  0  0  0  0  0  0  0  0  0  0
   42.8132   -0.0300  -19.9184 C   0  0  0  0  0  0  0  0  0  0  0  0
   38.1173   -2.7878  -17.2628 O   0  0  0  0  0  0  0  0  0  0  0  0
   36.3047    0.2293  -21.9586 C   0  0  0  0  0  0  0  0  0  0  0  0
   37.1262    0.2916  -20.8576 N   0  0  0  0  0  0  0  0  0  0  0  0
   36.4334    1.1565  -22.7436 O   0  0  0  0  0  0  0  0  0  0  0  0
   39.5506    0.2450  -20.9452 C   0  0  0  0  0  0  0  0  0  0  0  0
   40.6173    0.8964  -22.1137 S   0  0  0  0  0  0  0  0  0  0  0  0
   41.0135    2.1923  -21.6538 O   0  0  0  0  0  0  0  0  0  0  0  0
   39.9574    0.9671  -23.3973 O   0  0  0  0  0  0  0  0  0  0  0  0
   42.0123   -0.2284  -22.2801 C   0  0  0  0  0  0  0  0  0  0  0  0
   42.3311   -0.9985  -20.9977 C   0  0  0  0  0  0  0  0  0  0  0  0
   43.4370   -2.0036  -21.3376 C   0  0  0  0  0  0  0  0  0  0  0  0
   39.7911   -0.9324  -20.3283 C   0  0  0  0  0  0  0  0  0  0  0  0
   38.9203   -1.5585  -19.4572 N   0  0  0  0  0  0  0  0  0  0  0  0
   37.8681   -3.2601  -16.4929 H   0  0  0  0  0  0  0  0  0  0  0  0
   39.2938   -2.3772  -19.0579 H   0  0  0  0  0  0  0  0  0  0  0  0
   39.3248    1.6419  -18.3888 C   0  0  0  0  0  0  0  0  0  0  0  0
   38.3608    1.8400  -19.3728 C   0  0  0  0  0  0  0  0  0  0  0  0
   39.2696    2.3435  -17.1994 C   0  0  0  0  0  0  0  0  0  0  0  0
   38.2325    3.2409  -16.9493 C   0  0  0  0  0  0  0  0  0  0  0  0
   37.3290    2.7437  -19.1189 C   0  0  0  0  0  0  0  0  0  0  0  0
   36.3978    2.9245  -20.0388 F   0  0  0  0  0  0  0  0  0  0  0  0
   37.2607    3.4350  -17.9275 C   0  0  0  0  0  0  0  0  0  0  0  0
   38.1352    3.9506  -15.7817 O   0  0  0  0  0  0  0  0  0  0  0  0
   37.1587    3.6899  -14.7780 C   0  0  0  0  0  0  0  0  0  0  0  0
   38.3196    2.2855  -13.1089 C   0  0  0  0  0  0  0  0  0  0  0  0
   37.4061    2.3609  -14.0916 C   0  0  0  0  0  0  0  0  0  0  0  0
   36.6108    1.1307  -14.4804 C   0  0  0  0  0  0  0  0  0  0  0  0
   35.3406   -0.8288  -22.2915 C   0  0  0  0  0  0  0  0  0  0  0  0
   34.0370   -0.6796  -22.6841 C   0  0  0  0  0  0  0  0  0  0  0  0
   34.4158   -2.6433  -22.6187 C   0  0  0  0  0  0  0  0  0  0  0  0
   34.1890   -4.1229  -22.7226 C   0  0  0  0  0  0  0  0  0  0  0  0
   33.2907    0.6210  -22.8695 C   0  0  0  0  0  0  0  0  0  0  0  0
   35.5968   -2.1292  -22.2503 N   0  0  0  0  0  0  0  0  0  0  0  0
   33.5513   -1.7908  -22.8457 O   0  0  0  0  0  0  0  0  0  0  0  0
  1  2  2  0  0  0
  1  6  1  0  0  0
  2  3  1  0  0  0
  3  4  2  0  0  0
  4  5  1  0  0  0
  4 12  1  0  0  0
  5  6  2  0  0  0
  5 22  1  0  0  0
  6 10  1  0  0  0
  7 26  1  0  0  0
  7 12  1  0  0  0
  7 14  1  0  0  0
  8 19  1  0  0  0
  8 21  1  0  0  0
 25 26  2  0  0  0
 25 27  1  0  0  0
 26 29  1  0  0  0
 27 28  2  0  0  0
 28 31  1  0  0  0
 28 32  1  0  0  0
 29 30  1  0  0  0
 29 31  2  0  0  0
  9 19  1  0  0  0
 34 35  2  0  0  0
 11 37  1  0  0  0
 11 12  1  0  0  0
 11 13  2  0  0  0
 37 38  2  0  0  0
 37 42  1  0  0  0
 38 41  1  0  0  0
 38 43  1  0  0  0
 39 40  1  0  0  0
 39 42  2  0  0  0
 39 43  1  0  0  0
 32 33  1  0  0  0
 33 35  1  0  0  0
 35 36  1  0  0  0
 14 15  1  0  0  0
 14 21  2  0  0  0
 15 16  2  0  0  0
 15 17  2  0  0  0
 15 18  1  0  0  0
 18 19  1  0  0  0
 19 20  1  0  0  0
 21 22  1  0  0  0
 10 23  1  0  0  0
 22 24  1  0  0  0
M  END
> <minimizedAffinity>
-8.61375

$$$$
3HKW_IX6_A_579


 43 47  0  0  0  0  0  0  0  0999 V2000
   40.4858    0.7190  -20.1316 C   0  0  0  0  0  0  0  0  0  0  0  0
   40.0363   -0.5845  -20.2523 C   0  0  0  0  0  0  0  0  0  0  0  0
   38.7129   -0.8420  -20.5515 C   0  0  0  0  0  0  0  0  0  0  0  0
   37.8102    0.2194  -20.7515 C   0  0  0  0  0  0  0  0  0  0  0  0
   38.2728    1.5275  -20.5715 C   0  0  0  0  0  0  0  0  0  0  0  0
   39.6101    1.7774  -20.2956 C   0  0  0  0  0  0  0  0  0  0  0  0
   35.4531    0.5510  -20.0762 C   0  0  0  0  0  0  0  0  0  0  0  0
   35.7878    4.3576  -21.0950 C   0  0  0  0  0  0  0  0  0  0  0  0
   34.3818    5.0217  -19.1397 C   0  0  0  0  0  0  0  0  0  0  0  0
   40.0259    3.0734  -20.1682 O   0  0  0  0  0  0  0  0  0  0  0  0
   36.1369   -0.9087  -22.0277 C   0  0  0  0  0  0  0  0  0  0  0  0
   36.4262   -0.0486  -20.9944 N   0  0  0  0  0  0  0  0  0  0  0  0
   35.0376   -1.4373  -21.9582 O   0  0  0  0  0  0  0  0  0  0  0  0
   35.1790    1.9722  -20.4961 C   0  0  0  0  0  0  0  0  0  0  0  0
   33.5058    2.2935  -20.6529 S   0  0  0  0  0  0  0  0  0  0  0  0
   32.9007    2.0323  -19.3827 O   0  0  0  0  0  0  0  0  0  0  0  0
   32.9404    1.4631  -21.6916 O   0  0  0  0  0  0  0  0  0  0  0  0
   33.3156    4.0088  -21.1635 C   0  0  0  0  0  0  0  0  0  0  0  0
   34.4361    4.9218  -20.6637 C   0  0  0  0  0  0  0  0  0  0  0  0
   34.2089    6.3011  -21.2918 C   0  0  0  0  0  0  0  0  0  0  0  0
   36.1190    2.9060  -20.7590 C   0  0  0  0  0  0  0  0  0  0  0  0
   37.4816    2.6772  -20.7518 N   0  0  0  0  0  0  0  0  0  0  0  0
   40.9249    3.2608  -19.9821 H   0  0  0  0  0  0  0  0  0  0  0  0
   38.0120    3.4922  -20.9057 H   0  0  0  0  0  0  0  0  0  0  0  0
   36.2651    1.5416  -17.8157 C   0  0  0  0  0  0  0  0  0  0  0  0
   35.9462    0.4502  -18.6181 C   0  0  0  0  0  0  0  0  0  0  0  0
   36.6975    1.3562  -16.5162 C   0  0  0  0  0  0  0  0  0  0  0  0
   36.8509    0.0732  -15.9927 C   0  0  0  0  0  0  0  0  0  0  0  0
   36.0961   -0.8308  -18.0865 C   0  0  0  0  0  0  0  0  0  0  0  0
   35.8147   -1.8744  -18.8466 F   0  0  0  0  0  0  0  0  0  0  0  0
   36.5419   -1.0218  -16.7955 C   0  0  0  0  0  0  0  0  0  0  0  0
   37.2838   -0.1558  -14.7136 O   0  0  0  0  0  0  0  0  0  0  0  0
   38.4139    0.4899  -14.1348 C   0  0  0  0  0  0  0  0  0  0  0  0
   37.6322    1.2080  -11.9033 C   0  0  0  0  0  0  0  0  0  0  0  0
   37.9979    1.5622  -13.1470 C   0  0  0  0  0  0  0  0  0  0  0  0
   38.0236    3.0259  -13.5394 C   0  0  0  0  0  0  0  0  0  0  0  0
   36.9804   -1.2192  -23.1904 C   0  0  0  0  0  0  0  0  0  0  0  0
   37.5287   -2.4282  -23.5274 C   0  0  0  0  0  0  0  0  0  0  0  0
   38.1027   -1.1085  -24.9176 C   0  0  0  0  0  0  0  0  0  0  0  0
   38.7746   -0.5584  -26.1412 C   0  0  0  0  0  0  0  0  0  0  0  0
   37.3841   -3.7294  -22.7732 C   0  0  0  0  0  0  0  0  0  0  0  0
   37.3555   -0.3422  -24.1116 N   0  0  0  0  0  0  0  0  0  0  0  0
   38.1876   -2.2840  -24.5481 O   0  0  0  0  0  0  0  0  0  0  0  0
  1  2  2  0  0  0
  1  6  1  0  0  0
  2  3  1  0  0  0
  3  4  2  0  0  0
  4  5  1  0  0  0
  4 12  1  0  0  0
  5  6  2  0  0  0
  5 22  1  0  0  0
  6 10  1  0  0  0
  7 26  1  0  0  0
  7 12  1  0  0  0
  7 14  1  0  0  0
  8 19  1  0  0  0
  8 21  1  0  0  0
 25 26  2  0  0  0
 25 27  1  0  0  0
 26 29  1  0  0  0
 27 28  2  0  0  0
 28 31  1  0  0  0
 28 32  1  0  0  0
 29 30  1  0  0  0
 29 31  2  0  0  0
  9 19  1  0  0  0
 34 35  2  0  0  0
 11 37  1  0  0  0
 11 12  1  0  0  0
 11 13  2  0  0  0
 37 38  2  0  0  0
 37 42  1  0  0  0
 38 41  1  0  0  0
 38 43  1  0  0  0
 39 40  1  0  0  0
 39 42  2  0  0  0
 39 43  1  0  0  0
 32 33  1  0  0  0
 33 35  1  0  0  0
 35 36  1  0  0  0
 14 15  1  0  0  0
 14 21  2  0  0  0
 15 16  2  0  0  0
 15 17  2  0  0  0
 15 18  1  0  0  0
 18 19  1  0  0  0
 19 20  1  0  0  0
 21 22  1  0  0  0
 10 23  1  0  0  0
 22 24  1  0  0  0
M  END
> <minimizedAffinity>
-8.41359

$$$$
