3AAU_GZC_A_3001


 38 39  0  0  0  0  0  0  0  0999 V2000
    0.9949   20.2264   19.0263 C   0  0  0  0  0  0  0  0  0  0  0  0
    0.1004   18.0076   18.3609 C   0  0  0  0  0  0  0  0  0  0  0  0
    0.4671   18.8575   19.1363 N   0  0  0  0  0  0  0  0  0  0  0  0
   -1.8253   15.0795   17.2160 C   0  0  0  0  0  0  0  0  0  0  0  0
   -1.4821   14.1577   18.1993 C   0  0  0  0  0  0  0  0  0  0  0  0
   -0.6628   14.5319   19.2546 C   0  0  0  0  0  0  0  0  0  0  0  0
   -1.3297   16.3777   17.2949 C   0  0  0  0  0  0  0  0  0  0  0  0
   -0.5044   16.7561   18.3450 C   0  0  0  0  0  0  0  0  0  0  0  0
   -0.1849   15.8337   19.3318 C   0  0  0  0  0  0  0  0  0  0  0  0
    0.5241   16.2140   20.4252 O   0  0  0  0  0  0  0  0  0  0  0  0
    0.8521   17.0894   20.4897 H   0  0  0  0  0  0  0  0  0  0  0  0
   -2.6664   14.6954   16.2592 N   0  0  0  0  0  0  0  0  0  0  0  0
   -3.6100   14.9701   16.3176 H   0  0  0  0  0  0  0  0  0  0  0  0
   -1.2366   13.1786   15.0764 N   0  0  0  0  0  0  0  0  0  0  0  0
   -2.2871   13.9732   15.2547 C   0  0  0  0  0  0  0  0  0  0  0  0
   -3.2085   14.0562   14.3005 N   0  0  0  0  0  0  0  0  0  0  0  0
   -0.5476   13.1090   15.7763 H   0  0  0  0  0  0  0  0  0  0  0  0
   -1.1475   12.6596   14.2446 H   0  0  0  0  0  0  0  0  0  0  0  0
   -3.9909   14.6415   14.4213 H   0  0  0  0  0  0  0  0  0  0  0  0
    1.3626   20.6637   20.2927 C   0  0  0  0  0  0  0  0  0  0  0  0
    0.7588   20.1929   21.3710 N   0  0  0  0  0  0  0  0  0  0  0  0
    0.6001   21.0587   22.5262 C   0  0  0  0  0  0  0  0  0  0  0  0
    0.6922   19.5468   26.0760 C   0  0  0  0  0  0  0  0  0  0  0  0
   -0.6139   19.0840   26.1836 C   0  0  0  0  0  0  0  0  0  0  0  0
   -1.4902   19.2396   25.1139 C   0  0  0  0  0  0  0  0  0  0  0  0
    2.4037   20.6137   24.8229 O   0  0  0  0  0  0  0  0  0  0  0  0
    1.1218   20.1671   24.9089 C   0  0  0  0  0  0  0  0  0  0  0  0
    0.2556   20.3360   23.8315 C   0  0  0  0  0  0  0  0  0  0  0  0
   -1.0462   19.8614   23.9521 C   0  0  0  0  0  0  0  0  0  0  0  0
    2.7022   21.0331   24.0400 H   0  0  0  0  0  0  0  0  0  0  0  0
   -2.7436   18.8180   25.2612 N   0  0  0  0  0  0  0  0  0  0  0  0
   -3.4614   19.4903   25.2164 H   0  0  0  0  0  0  0  0  0  0  0  0
   -3.0944   17.5496   25.4650 C   0  0  0  0  0  0  0  0  0  0  0  0
   -3.9946   17.2630   26.4023 N   0  0  0  0  0  0  0  0  0  0  0  0
   -2.5318   16.5621   24.7753 N   0  0  0  0  0  0  0  0  0  0  0  0
   -4.2602   16.3282   26.5603 H   0  0  0  0  0  0  0  0  0  0  0  0
   -4.3950   17.9856   26.9378 H   0  0  0  0  0  0  0  0  0  0  0  0
   -2.8035   15.6301   24.9392 H   0  0  0  0  0  0  0  0  0  0  0  0
 34 33  1  0  0  0
 35 33  2  0  0  0
 33 31  1  0  0  0
 31 25  1  0  0  0
 25 29  2  0  0  0
 25 24  1  0  0  0
 29 28  1  0  0  0
 24 23  2  0  0  0
 28 22  1  0  0  0
 28 27  2  0  0  0
 22 21  2  0  0  0
 23 27  1  0  0  0
 27 26  1  0  0  0
 21 20  1  0  0  0
 20  1  1  0  0  0
  1  3  1  0  0  0
  3  2  2  0  0  0
 10  9  1  0  0  0
  2  8  1  0  0  0
  9  8  2  0  0  0
  9  6  1  0  0  0
  8  7  1  0  0  0
  6  5  2  0  0  0
  7  4  2  0  0  0
  5  4  1  0  0  0
  4 12  1  0  0  0
 12 15  1  0  0  0
 15 14  1  0  0  0
 15 16  2  0  0  0
 14 17  1  0  0  0
 14 18  1  0  0  0
 12 13  1  0  0  0
 31 32  1  0  0  0
 34 36  1  0  0  0
 34 37  1  0  0  0
 16 19  1  0  0  0
 10 11  1  0  0  0
 26 30  1  0  0  0
 35 38  1  0  0  0
M  END
> <minimizedAffinity>
-8.41881

$$$$
3AAU_GZC_A_3001


 38 39  0  0  0  0  0  0  0  0999 V2000
    0.3589   20.3420   19.1475 C   0  0  0  0  0  0  0  0  0  0  0  0
   -0.3630   18.0763   18.4325 C   0  0  0  0  0  0  0  0  0  0  0  0
    0.0734   18.8996   19.2003 N   0  0  0  0  0  0  0  0  0  0  0  0
   -1.9012   14.9290   17.2828 C   0  0  0  0  0  0  0  0  0  0  0  0
   -1.3535   14.0369   18.1985 C   0  0  0  0  0  0  0  0  0  0  0  0
   -0.5268   14.4952   19.2142 C   0  0  0  0  0  0  0  0  0  0  0  0
   -1.6030   16.2843   17.3884 C   0  0  0  0  0  0  0  0  0  0  0  0
   -0.7715   16.7480   18.3988 C   0  0  0  0  0  0  0  0  0  0  0  0
   -0.2468   15.8516   19.3195 C   0  0  0  0  0  0  0  0  0  0  0  0
    0.4728   16.2977   20.3806 O   0  0  0  0  0  0  0  0  0  0  0  0
    0.6686   17.2102   20.4636 H   0  0  0  0  0  0  0  0  0  0  0  0
   -2.7407   14.4540   16.3662 N   0  0  0  0  0  0  0  0  0  0  0  0
   -3.7093   14.5183   16.5303 H   0  0  0  0  0  0  0  0  0  0  0  0
   -1.2349   13.2130   14.9746 N   0  0  0  0  0  0  0  0  0  0  0  0
   -2.3281   13.9105   15.2668 C   0  0  0  0  0  0  0  0  0  0  0  0
   -3.2601   14.0790   14.3344 N   0  0  0  0  0  0  0  0  0  0  0  0
   -0.5378   13.0816   15.6572 H   0  0  0  0  0  0  0  0  0  0  0  0
   -1.1224   12.8279   14.0755 H   0  0  0  0  0  0  0  0  0  0  0  0
   -4.0740   14.5936   14.5392 H   0  0  0  0  0  0  0  0  0  0  0  0
    0.8018   20.7530   20.3986 C   0  0  0  0  0  0  0  0  0  0  0  0
    0.1822   20.3566   21.4977 N   0  0  0  0  0  0  0  0  0  0  0  0
    0.6937   20.7814   22.7889 C   0  0  0  0  0  0  0  0  0  0  0  0
   -1.4644   18.6727   25.1954 C   0  0  0  0  0  0  0  0  0  0  0  0
   -0.5478   18.4413   26.2141 C   0  0  0  0  0  0  0  0  0  0  0  0
    0.7309   18.9830   26.1263 C   0  0  0  0  0  0  0  0  0  0  0  0
   -2.0174   19.6515   23.1038 O   0  0  0  0  0  0  0  0  0  0  0  0
   -1.1065   19.4366   24.0909 C   0  0  0  0  0  0  0  0  0  0  0  0
    0.1711   19.9807   23.9850 C   0  0  0  0  0  0  0  0  0  0  0  0
    1.0748   19.7459   25.0158 C   0  0  0  0  0  0  0  0  0  0  0  0
   -1.7849   20.1652   22.3555 H   0  0  0  0  0  0  0  0  0  0  0  0
    1.5963   18.7137   27.1006 N   0  0  0  0  0  0  0  0  0  0  0  0
    1.9732   17.8050   27.1404 H   0  0  0  0  0  0  0  0  0  0  0  0
    1.9878   19.5880   28.0256 C   0  0  0  0  0  0  0  0  0  0  0  0
    1.0720   20.2571   28.7218 N   0  0  0  0  0  0  0  0  0  0  0  0
    3.2773   19.8323   28.2376 N   0  0  0  0  0  0  0  0  0  0  0  0
    1.3519   20.9056   29.4077 H   0  0  0  0  0  0  0  0  0  0  0  0
    0.1147   20.1037   28.5510 H   0  0  0  0  0  0  0  0  0  0  0  0
    3.5486   20.4820   28.9257 H   0  0  0  0  0  0  0  0  0  0  0  0
 34 33  1  0  0  0
 35 33  2  0  0  0
 33 31  1  0  0  0
 31 25  1  0  0  0
 25 29  2  0  0  0
 25 24  1  0  0  0
 29 28  1  0  0  0
 24 23  2  0  0  0
 28 22  1  0  0  0
 28 27  2  0  0  0
 22 21  2  0  0  0
 23 27  1  0  0  0
 27 26  1  0  0  0
 21 20  1  0  0  0
 20  1  1  0  0  0
  1  3  1  0  0  0
  3  2  2  0  0  0
 10  9  1  0  0  0
  2  8  1  0  0  0
  9  8  2  0  0  0
  9  6  1  0  0  0
  8  7  1  0  0  0
  6  5  2  0  0  0
  7  4  2  0  0  0
  5  4  1  0  0  0
  4 12  1  0  0  0
 12 15  1  0  0  0
 15 14  1  0  0  0
 15 16  2  0  0  0
 14 17  1  0  0  0
 14 18  1  0  0  0
 12 13  1  0  0  0
 31 32  1  0  0  0
 34 36  1  0  0  0
 34 37  1  0  0  0
 16 19  1  0  0  0
 10 11  1  0  0  0
 26 30  1  0  0  0
 35 38  1  0  0  0
M  END
> <minimizedAffinity>
-8.35299

$$$$
3AAU_GZC_A_3001


 38 39  0  0  0  0  0  0  0  0999 V2000
    0.9801   21.0753   20.8153 C   0  0  0  0  0  0  0  0  0  0  0  0
    0.4407   20.3489   23.1278 C   0  0  0  0  0  0  0  0  0  0  0  0
    0.6801   20.1938   21.9545 N   0  0  0  0  0  0  0  0  0  0  0  0
    0.9563   19.0085   26.5234 C   0  0  0  0  0  0  0  0  0  0  0  0
   -0.2576   18.3587   26.7200 C   0  0  0  0  0  0  0  0  0  0  0  0
   -1.2069   18.3275   25.7087 C   0  0  0  0  0  0  0  0  0  0  0  0
    1.2049   19.6367   25.3066 C   0  0  0  0  0  0  0  0  0  0  0  0
    0.2562   19.6142   24.2933 C   0  0  0  0  0  0  0  0  0  0  0  0
   -0.9435   18.9453   24.4929 C   0  0  0  0  0  0  0  0  0  0  0  0
   -1.8345   18.8130   23.4773 O   0  0  0  0  0  0  0  0  0  0  0  0
   -1.6688   19.2247   22.6521 H   0  0  0  0  0  0  0  0  0  0  0  0
    1.8628   18.9563   27.4961 N   0  0  0  0  0  0  0  0  0  0  0  0
    2.2927   18.0943   27.6993 H   0  0  0  0  0  0  0  0  0  0  0  0
    1.4781   20.9004   28.8439 N   0  0  0  0  0  0  0  0  0  0  0  0
    2.1990   19.9995   28.1840 C   0  0  0  0  0  0  0  0  0  0  0  0
    3.5255   20.0644   28.2355 N   0  0  0  0  0  0  0  0  0  0  0  0
    0.4948   20.8623   28.8132 H   0  0  0  0  0  0  0  0  0  0  0  0
    1.9274   21.6057   29.3634 H   0  0  0  0  0  0  0  0  0  0  0  0
    4.0699   19.4027   27.7508 H   0  0  0  0  0  0  0  0  0  0  0  0
    1.1475   20.2922   19.6800 C   0  0  0  0  0  0  0  0  0  0  0  0
    0.7034   19.0470   19.6475 N   0  0  0  0  0  0  0  0  0  0  0  0
    0.7224   18.3232   18.3885 C   0  0  0  0  0  0  0  0  0  0  0  0
   -1.2083   15.1112   19.3110 C   0  0  0  0  0  0  0  0  0  0  0  0
   -1.8828   14.8750   18.1190 C   0  0  0  0  0  0  0  0  0  0  0  0
   -1.6892   15.7285   17.0372 C   0  0  0  0  0  0  0  0  0  0  0  0
    0.3023   16.4119   20.6013 O   0  0  0  0  0  0  0  0  0  0  0  0
   -0.3484   16.1970   19.4263 C   0  0  0  0  0  0  0  0  0  0  0  0
   -0.1484   17.0641   18.3550 C   0  0  0  0  0  0  0  0  0  0  0  0
   -0.8253   16.8103   17.1667 C   0  0  0  0  0  0  0  0  0  0  0  0
    0.8839   17.1413   20.6881 H   0  0  0  0  0  0  0  0  0  0  0  0
   -2.3765   15.4959   15.9218 N   0  0  0  0  0  0  0  0  0  0  0  0
   -2.9665   16.2107   15.5897 H   0  0  0  0  0  0  0  0  0  0  0  0
   -2.3215   14.3633   15.2235 C   0  0  0  0  0  0  0  0  0  0  0  0
   -3.3014   14.0726   14.3713 N   0  0  0  0  0  0  0  0  0  0  0  0
   -1.3246   13.5001   15.3924 N   0  0  0  0  0  0  0  0  0  0  0  0
   -3.2695   13.2376   13.8507 H   0  0  0  0  0  0  0  0  0  0  0  0
   -4.0583   14.6925   14.2614 H   0  0  0  0  0  0  0  0  0  0  0  0
   -1.3001   12.6676   14.8674 H   0  0  0  0  0  0  0  0  0  0  0  0
 34 33  1  0  0  0
 35 33  2  0  0  0
 33 31  1  0  0  0
 31 25  1  0  0  0
 25 29  2  0  0  0
 25 24  1  0  0  0
 29 28  1  0  0  0
 24 23  2  0  0  0
 28 22  1  0  0  0
 28 27  2  0  0  0
 22 21  2  0  0  0
 23 27  1  0  0  0
 27 26  1  0  0  0
 21 20  1  0  0  0
 20  1  1  0  0  0
  1  3  1  0  0  0
  3  2  2  0  0  0
 10  9  1  0  0  0
  2  8  1  0  0  0
  9  8  2  0  0  0
  9  6  1  0  0  0
  8  7  1  0  0  0
  6  5  2  0  0  0
  7  4  2  0  0  0
  5  4  1  0  0  0
  4 12  1  0  0  0
 12 15  1  0  0  0
 15 14  1  0  0  0
 15 16  2  0  0  0
 14 17  1  0  0  0
 14 18  1  0  0  0
 12 13  1  0  0  0
 31 32  1  0  0  0
 34 36  1  0  0  0
 34 37  1  0  0  0
 16 19  1  0  0  0
 10 11  1  0  0  0
 26 30  1  0  0  0
 35 38  1  0  0  0
M  END
> <minimizedAffinity>
-8.28526

$$$$
3AAU_GZC_A_3001


 38 39  0  0  0  0  0  0  0  0999 V2000
    0.5315   21.1807   20.7877 C   0  0  0  0  0  0  0  0  0  0  0  0
    0.0034   20.4745   23.1090 C   0  0  0  0  0  0  0  0  0  0  0  0
    0.5340   20.3889   22.0278 N   0  0  0  0  0  0  0  0  0  0  0  0
   -1.0701   18.5209   26.0457 C   0  0  0  0  0  0  0  0  0  0  0  0
    0.1312   18.4402   26.7419 C   0  0  0  0  0  0  0  0  0  0  0  0
    1.2651   19.0769   26.2581 C   0  0  0  0  0  0  0  0  0  0  0  0
   -1.1211   19.2371   24.8534 C   0  0  0  0  0  0  0  0  0  0  0  0
    0.0117   19.8709   24.3612 C   0  0  0  0  0  0  0  0  0  0  0  0
    1.2003   19.8010   25.0746 C   0  0  0  0  0  0  0  0  0  0  0  0
    2.2870   20.5077   24.6716 O   0  0  0  0  0  0  0  0  0  0  0  0
    2.2565   21.0004   23.8751 H   0  0  0  0  0  0  0  0  0  0  0  0
   -2.1469   17.9508   26.5804 N   0  0  0  0  0  0  0  0  0  0  0  0
   -2.0388   17.3887   27.3814 H   0  0  0  0  0  0  0  0  0  0  0  0
   -4.1181   19.1762   25.9830 N   0  0  0  0  0  0  0  0  0  0  0  0
   -3.3313   18.1096   26.0841 C   0  0  0  0  0  0  0  0  0  0  0  0
   -3.7240   16.9592   25.5467 N   0  0  0  0  0  0  0  0  0  0  0  0
   -3.8378   20.0337   26.3772 H   0  0  0  0  0  0  0  0  0  0  0  0
   -4.9811   19.1086   25.5141 H   0  0  0  0  0  0  0  0  0  0  0  0
   -3.1497   16.1625   25.6152 H   0  0  0  0  0  0  0  0  0  0  0  0
    0.9286   20.3623   19.7376 C   0  0  0  0  0  0  0  0  0  0  0  0
    0.5452   19.0977   19.6853 N   0  0  0  0  0  0  0  0  0  0  0  0
    0.6472   18.3804   18.4265 C   0  0  0  0  0  0  0  0  0  0  0  0
   -1.1153   15.0479   19.2532 C   0  0  0  0  0  0  0  0  0  0  0  0
   -1.7888   14.8194   18.0591 C   0  0  0  0  0  0  0  0  0  0  0  0
   -1.6476   15.7178   17.0059 C   0  0  0  0  0  0  0  0  0  0  0  0
    0.3423   16.3766   20.5754 O   0  0  0  0  0  0  0  0  0  0  0  0
   -0.3084   16.1701   19.3989 C   0  0  0  0  0  0  0  0  0  0  0  0
   -0.1614   17.0819   18.3566 C   0  0  0  0  0  0  0  0  0  0  0  0
   -0.8364   16.8357   17.1657 C   0  0  0  0  0  0  0  0  0  0  0  0
    0.8884   17.1304   20.6827 H   0  0  0  0  0  0  0  0  0  0  0  0
   -2.3334   15.4897   15.8886 N   0  0  0  0  0  0  0  0  0  0  0  0
   -2.9059   16.2139   15.5465 H   0  0  0  0  0  0  0  0  0  0  0  0
   -2.2990   14.3498   15.2011 C   0  0  0  0  0  0  0  0  0  0  0  0
   -3.2798   14.0726   14.3454 N   0  0  0  0  0  0  0  0  0  0  0  0
   -1.3223   13.4666   15.3841 N   0  0  0  0  0  0  0  0  0  0  0  0
   -3.2630   13.2323   13.8326 H   0  0  0  0  0  0  0  0  0  0  0  0
   -4.0223   14.7079   14.2250 H   0  0  0  0  0  0  0  0  0  0  0  0
   -1.3128   12.6289   14.8669 H   0  0  0  0  0  0  0  0  0  0  0  0
 34 33  1  0  0  0
 35 33  2  0  0  0
 33 31  1  0  0  0
 31 25  1  0  0  0
 25 29  2  0  0  0
 25 24  1  0  0  0
 29 28  1  0  0  0
 24 23  2  0  0  0
 28 22  1  0  0  0
 28 27  2  0  0  0
 22 21  2  0  0  0
 23 27  1  0  0  0
 27 26  1  0  0  0
 21 20  1  0  0  0
 20  1  1  0  0  0
  1  3  1  0  0  0
  3  2  2  0  0  0
 10  9  1  0  0  0
  2  8  1  0  0  0
  9  8  2  0  0  0
  9  6  1  0  0  0
  8  7  1  0  0  0
  6  5  2  0  0  0
  7  4  2  0  0  0
  5  4  1  0  0  0
  4 12  1  0  0  0
 12 15  1  0  0  0
 15 14  1  0  0  0
 15 16  2  0  0  0
 14 17  1  0  0  0
 14 18  1  0  0  0
 12 13  1  0  0  0
 31 32  1  0  0  0
 34 36  1  0  0  0
 34 37  1  0  0  0
 16 19  1  0  0  0
 10 11  1  0  0  0
 26 30  1  0  0  0
 35 38  1  0  0  0
M  END
> <minimizedAffinity>
-8.04922

$$$$
3AAU_GZC_A_3001


 38 39  0  0  0  0  0  0  0  0999 V2000
    1.9054   19.4295   20.1305 C   0  0  0  0  0  0  0  0  0  0  0  0
    0.1409   18.6078   18.5886 C   0  0  0  0  0  0  0  0  0  0  0  0
    0.7348   18.6873   19.6369 N   0  0  0  0  0  0  0  0  0  0  0  0
   -2.0711   16.5672   16.4589 C   0  0  0  0  0  0  0  0  0  0  0  0
   -3.2758   16.7178   17.1372 C   0  0  0  0  0  0  0  0  0  0  0  0
   -3.3516   17.5336   18.2570 C   0  0  0  0  0  0  0  0  0  0  0  0
   -0.9399   17.2335   16.9207 C   0  0  0  0  0  0  0  0  0  0  0  0
   -1.0081   18.0460   18.0442 C   0  0  0  0  0  0  0  0  0  0  0  0
   -2.2202   18.2055   18.7016 C   0  0  0  0  0  0  0  0  0  0  0  0
   -2.3344   19.0838   19.7304 O   0  0  0  0  0  0  0  0  0  0  0  0
   -1.5789   19.5436   20.0399 H   0  0  0  0  0  0  0  0  0  0  0  0
   -2.0600   15.8283   15.3523 N   0  0  0  0  0  0  0  0  0  0  0  0
   -2.0248   16.2811   14.4788 H   0  0  0  0  0  0  0  0  0  0  0  0
   -1.4134   13.6447   16.0992 N   0  0  0  0  0  0  0  0  0  0  0  0
   -2.0939   14.5351   15.3845 C   0  0  0  0  0  0  0  0  0  0  0  0
   -3.0553   14.1154   14.5683 N   0  0  0  0  0  0  0  0  0  0  0  0
   -0.6991   13.9437   16.7071 H   0  0  0  0  0  0  0  0  0  0  0  0
   -1.6237   12.6861   16.0206 H   0  0  0  0  0  0  0  0  0  0  0  0
   -3.5661   14.7657   14.0340 H   0  0  0  0  0  0  0  0  0  0  0  0
    1.4736   20.3833   21.0438 C   0  0  0  0  0  0  0  0  0  0  0  0
    0.8515   20.0222   22.1535 N   0  0  0  0  0  0  0  0  0  0  0  0
    1.3077   20.5566   23.4246 C   0  0  0  0  0  0  0  0  0  0  0  0
    0.7432   19.2571   27.0146 C   0  0  0  0  0  0  0  0  0  0  0  0
   -0.3472   18.4205   26.8080 C   0  0  0  0  0  0  0  0  0  0  0  0
   -0.8646   18.2670   25.5254 C   0  0  0  0  0  0  0  0  0  0  0  0
    2.3790   20.7569   26.1702 O   0  0  0  0  0  0  0  0  0  0  0  0
    1.3125   19.9423   25.9479 C   0  0  0  0  0  0  0  0  0  0  0  0
    0.8029   19.8044   24.6592 C   0  0  0  0  0  0  0  0  0  0  0  0
   -0.2842   18.9583   24.4676 C   0  0  0  0  0  0  0  0  0  0  0  0
    2.7693   21.2228   25.4571 H   0  0  0  0  0  0  0  0  0  0  0  0
   -1.9308   17.4870   25.3664 N   0  0  0  0  0  0  0  0  0  0  0  0
   -1.7956   16.6059   24.9485 H   0  0  0  0  0  0  0  0  0  0  0  0
   -3.1679   17.8155   25.7335 C   0  0  0  0  0  0  0  0  0  0  0  0
   -3.9853   16.8718   26.1947 N   0  0  0  0  0  0  0  0  0  0  0  0
   -3.6127   19.0623   25.6102 N   0  0  0  0  0  0  0  0  0  0  0  0
   -4.9017   17.1052   26.4685 H   0  0  0  0  0  0  0  0  0  0  0  0
   -3.6735   15.9404   26.2620 H   0  0  0  0  0  0  0  0  0  0  0  0
   -4.5304   19.2871   25.8868 H   0  0  0  0  0  0  0  0  0  0  0  0
 34 33  1  0  0  0
 35 33  2  0  0  0
 33 31  1  0  0  0
 31 25  1  0  0  0
 25 29  2  0  0  0
 25 24  1  0  0  0
 29 28  1  0  0  0
 24 23  2  0  0  0
 28 22  1  0  0  0
 28 27  2  0  0  0
 22 21  2  0  0  0
 23 27  1  0  0  0
 27 26  1  0  0  0
 21 20  1  0  0  0
 20  1  1  0  0  0
  1  3  1  0  0  0
  3  2  2  0  0  0
 10  9  1  0  0  0
  2  8  1  0  0  0
  9  8  2  0  0  0
  9  6  1  0  0  0
  8  7  1  0  0  0
  6  5  2  0  0  0
  7  4  2  0  0  0
  5  4  1  0  0  0
  4 12  1  0  0  0
 12 15  1  0  0  0
 15 14  1  0  0  0
 15 16  2  0  0  0
 14 17  1  0  0  0
 14 18  1  0  0  0
 12 13  1  0  0  0
 31 32  1  0  0  0
 34 36  1  0  0  0
 34 37  1  0  0  0
 16 19  1  0  0  0
 10 11  1  0  0  0
 26 30  1  0  0  0
 35 38  1  0  0  0
M  END
> <minimizedAffinity>
-7.63671

$$$$
3AAU_GZC_A_3001


 38 39  0  0  0  0  0  0  0  0999 V2000
    1.0169   20.0109   16.6289 C   0  0  0  0  0  0  0  0  0  0  0  0
    0.2249   17.8867   17.6419 C   0  0  0  0  0  0  0  0  0  0  0  0
    0.1743   18.8348   16.8959 N   0  0  0  0  0  0  0  0  0  0  0  0
   -1.8209   14.8557   17.1723 C   0  0  0  0  0  0  0  0  0  0  0  0
   -1.5134   14.1660   18.3403 C   0  0  0  0  0  0  0  0  0  0  0  0
   -0.6771   14.7351   19.2899 C   0  0  0  0  0  0  0  0  0  0  0  0
   -1.2728   16.1172   16.9603 C   0  0  0  0  0  0  0  0  0  0  0  0
   -0.4304   16.6891   17.9039 C   0  0  0  0  0  0  0  0  0  0  0  0
   -0.1465   16.0007   19.0754 C   0  0  0  0  0  0  0  0  0  0  0  0
    0.5798   16.5888   20.0599 O   0  0  0  0  0  0  0  0  0  0  0  0
    0.9433   17.4422   19.9280 H   0  0  0  0  0  0  0  0  0  0  0  0
   -2.6791   14.2999   16.3207 N   0  0  0  0  0  0  0  0  0  0  0  0
   -3.6329   14.2651   16.5621 H   0  0  0  0  0  0  0  0  0  0  0  0
   -1.2471   13.0748   14.8400 N   0  0  0  0  0  0  0  0  0  0  0  0
   -2.3034   13.8036   15.1863 C   0  0  0  0  0  0  0  0  0  0  0  0
   -3.2357   14.0696   14.2772 N   0  0  0  0  0  0  0  0  0  0  0  0
   -0.5501   12.8713   15.5049 H   0  0  0  0  0  0  0  0  0  0  0  0
   -1.1617   12.7385   13.9187 H   0  0  0  0  0  0  0  0  0  0  0  0
   -4.0225   14.6083   14.5220 H   0  0  0  0  0  0  0  0  0  0  0  0
    0.8326   20.9310   17.6535 C   0  0  0  0  0  0  0  0  0  0  0  0
    1.8550   21.3382   18.3869 N   0  0  0  0  0  0  0  0  0  0  0  0
    2.6968   20.3487   19.0360 C   0  0  0  0  0  0  0  0  0  0  0  0
    5.4704   22.1315   21.0421 C   0  0  0  0  0  0  0  0  0  0  0  0
    5.0219   21.9094   22.3387 C   0  0  0  0  0  0  0  0  0  0  0  0
    3.8592   21.1744   22.5490 C   0  0  0  0  0  0  0  0  0  0  0  0
    5.2148   21.8558   18.6976 O   0  0  0  0  0  0  0  0  0  0  0  0
    4.7601   21.6276   19.9591 C   0  0  0  0  0  0  0  0  0  0  0  0
    3.5914   20.8952   20.1522 C   0  0  0  0  0  0  0  0  0  0  0  0
    3.1593   20.6757   21.4559 C   0  0  0  0  0  0  0  0  0  0  0  0
    4.7424   21.5200   17.9614 H   0  0  0  0  0  0  0  0  0  0  0  0
    3.4370   21.0097   23.8001 N   0  0  0  0  0  0  0  0  0  0  0  0
    2.8390   20.2499   23.9855 H   0  0  0  0  0  0  0  0  0  0  0  0
    3.7673   21.8013   24.8187 C   0  0  0  0  0  0  0  0  0  0  0  0
    3.0453   22.8931   25.0589 N   0  0  0  0  0  0  0  0  0  0  0  0
    4.8291   21.5403   25.5751 N   0  0  0  0  0  0  0  0  0  0  0  0
    3.2819   23.4844   25.8097 H   0  0  0  0  0  0  0  0  0  0  0  0
    2.2747   23.1096   24.4858 H   0  0  0  0  0  0  0  0  0  0  0  0
    5.0584   22.1366   26.3242 H   0  0  0  0  0  0  0  0  0  0  0  0
 34 33  1  0  0  0
 35 33  2  0  0  0
 33 31  1  0  0  0
 31 25  1  0  0  0
 25 29  2  0  0  0
 25 24  1  0  0  0
 29 28  1  0  0  0
 24 23  2  0  0  0
 28 22  1  0  0  0
 28 27  2  0  0  0
 22 21  2  0  0  0
 23 27  1  0  0  0
 27 26  1  0  0  0
 21 20  1  0  0  0
 20  1  1  0  0  0
  1  3  1  0  0  0
  3  2  2  0  0  0
 10  9  1  0  0  0
  2  8  1  0  0  0
  9  8  2  0  0  0
  9  6  1  0  0  0
  8  7  1  0  0  0
  6  5  2  0  0  0
  7  4  2  0  0  0
  5  4  1  0  0  0
  4 12  1  0  0  0
 12 15  1  0  0  0
 15 14  1  0  0  0
 15 16  2  0  0  0
 14 17  1  0  0  0
 14 18  1  0  0  0
 12 13  1  0  0  0
 31 32  1  0  0  0
 34 36  1  0  0  0
 34 37  1  0  0  0
 16 19  1  0  0  0
 10 11  1  0  0  0
 26 30  1  0  0  0
 35 38  1  0  0  0
M  END
> <minimizedAffinity>
-7.53137

$$$$
3AAU_GZC_A_3001


 38 39  0  0  0  0  0  0  0  0999 V2000
    2.4726   20.5160   19.1013 C   0  0  0  0  0  0  0  0  0  0  0  0
    3.1331   21.0215   16.7616 C   0  0  0  0  0  0  0  0  0  0  0  0
    2.8670   21.2838   17.9098 N   0  0  0  0  0  0  0  0  0  0  0  0
    3.7058   21.7637   13.1959 C   0  0  0  0  0  0  0  0  0  0  0  0
    4.3494   22.9923   13.2991 C   0  0  0  0  0  0  0  0  0  0  0  0
    4.6323   23.5321   14.5455 C   0  0  0  0  0  0  0  0  0  0  0  0
    3.3381   21.0864   14.3549 C   0  0  0  0  0  0  0  0  0  0  0  0
    3.6128   21.6246   15.6047 C   0  0  0  0  0  0  0  0  0  0  0  0
    4.2740   22.8416   15.6962 C   0  0  0  0  0  0  0  0  0  0  0  0
    4.6541   23.3287   16.9049 O   0  0  0  0  0  0  0  0  0  0  0  0
    4.4189   22.8726   17.6889 H   0  0  0  0  0  0  0  0  0  0  0  0
    3.5142   21.2535   11.9820 N   0  0  0  0  0  0  0  0  0  0  0  0
    4.2881   20.8975   11.4886 H   0  0  0  0  0  0  0  0  0  0  0  0
    1.1896   21.7851   11.7412 N   0  0  0  0  0  0  0  0  0  0  0  0
    2.3458   21.2091   11.4276 C   0  0  0  0  0  0  0  0  0  0  0  0
    2.4302   20.4832   10.3175 N   0  0  0  0  0  0  0  0  0  0  0  0
    1.1151   22.3252   12.5609 H   0  0  0  0  0  0  0  0  0  0  0  0
    0.4079   21.6717   11.1536 H   0  0  0  0  0  0  0  0  0  0  0  0
    3.2813   20.0518   10.0750 H   0  0  0  0  0  0  0  0  0  0  0  0
    1.1050   20.2780   19.0437 C   0  0  0  0  0  0  0  0  0  0  0  0
    0.6270   19.0525   19.1794 N   0  0  0  0  0  0  0  0  0  0  0  0
    0.7620   18.1159   18.0776 C   0  0  0  0  0  0  0  0  0  0  0  0
   -1.1590   14.9918   19.2797 C   0  0  0  0  0  0  0  0  0  0  0  0
   -1.9442   14.7367   18.1616 C   0  0  0  0  0  0  0  0  0  0  0  0
   -1.8274   15.5492   17.0380 C   0  0  0  0  0  0  0  0  0  0  0  0
    0.4948   16.2895   20.3839 O   0  0  0  0  0  0  0  0  0  0  0  0
   -0.2647   16.0556   19.2799 C   0  0  0  0  0  0  0  0  0  0  0  0
   -0.1402   16.8818   18.1657 C   0  0  0  0  0  0  0  0  0  0  0  0
   -0.9279   16.6094   17.0522 C   0  0  0  0  0  0  0  0  0  0  0  0
    1.1004   17.0044   20.3930 H   0  0  0  0  0  0  0  0  0  0  0  0
   -2.6184   15.3006   15.9972 N   0  0  0  0  0  0  0  0  0  0  0  0
   -3.3550   15.9295   15.8210 H   0  0  0  0  0  0  0  0  0  0  0  0
   -2.4826   14.2600   15.1774 C   0  0  0  0  0  0  0  0  0  0  0  0
   -1.3826   13.5138   15.2449 N   0  0  0  0  0  0  0  0  0  0  0  0
   -3.4090   13.9776   14.2667 N   0  0  0  0  0  0  0  0  0  0  0  0
   -1.2733   12.7425   14.6429 H   0  0  0  0  0  0  0  0  0  0  0  0
   -0.6782   13.7332   15.8968 H   0  0  0  0  0  0  0  0  0  0  0  0
   -3.2920   13.2042   13.6689 H   0  0  0  0  0  0  0  0  0  0  0  0
 34 33  1  0  0  0
 35 33  2  0  0  0
 33 31  1  0  0  0
 31 25  1  0  0  0
 25 29  2  0  0  0
 25 24  1  0  0  0
 29 28  1  0  0  0
 24 23  2  0  0  0
 28 22  1  0  0  0
 28 27  2  0  0  0
 22 21  2  0  0  0
 23 27  1  0  0  0
 27 26  1  0  0  0
 21 20  1  0  0  0
 20  1  1  0  0  0
  1  3  1  0  0  0
  3  2  2  0  0  0
 10  9  1  0  0  0
  2  8  1  0  0  0
  9  8  2  0  0  0
  9  6  1  0  0  0
  8  7  1  0  0  0
  6  5  2  0  0  0
  7  4  2  0  0  0
  5  4  1  0  0  0
  4 12  1  0  0  0
 12 15  1  0  0  0
 15 14  1  0  0  0
 15 16  2  0  0  0
 14 17  1  0  0  0
 14 18  1  0  0  0
 12 13  1  0  0  0
 31 32  1  0  0  0
 34 36  1  0  0  0
 34 37  1  0  0  0
 16 19  1  0  0  0
 10 11  1  0  0  0
 26 30  1  0  0  0
 35 38  1  0  0  0
M  END
> <minimizedAffinity>
-7.47472

$$$$
3AAU_GZC_A_3001


 38 39  0  0  0  0  0  0  0  0999 V2000
   -2.2226   20.9495   20.7723 C   0  0  0  0  0  0  0  0  0  0  0  0
   -1.6847   20.4413   23.1426 C   0  0  0  0  0  0  0  0  0  0  0  0
   -1.9578   20.1774   21.9964 N   0  0  0  0  0  0  0  0  0  0  0  0
   -0.5876   19.9535   26.6285 C   0  0  0  0  0  0  0  0  0  0  0  0
   -0.8340   18.5929   26.7775 C   0  0  0  0  0  0  0  0  0  0  0  0
   -1.3084   17.8461   25.7087 C   0  0  0  0  0  0  0  0  0  0  0  0
   -0.8322   20.5609   25.4004 C   0  0  0  0  0  0  0  0  0  0  0  0
   -1.3129   19.8201   24.3293 C   0  0  0  0  0  0  0  0  0  0  0  0
   -1.5359   18.4587   24.4831 C   0  0  0  0  0  0  0  0  0  0  0  0
   -1.8946   17.6959   23.4191 O   0  0  0  0  0  0  0  0  0  0  0  0
   -2.0510   18.0968   22.5867 H   0  0  0  0  0  0  0  0  0  0  0  0
   -0.0706   20.6162   27.6601 N   0  0  0  0  0  0  0  0  0  0  0  0
   -0.6791   21.0771   28.2818 H   0  0  0  0  0  0  0  0  0  0  0  0
    2.2349   20.0826   27.2806 N   0  0  0  0  0  0  0  0  0  0  0  0
    1.2041   20.6757   27.8744 C   0  0  0  0  0  0  0  0  0  0  0  0
    1.4313   21.5615   28.8390 N   0  0  0  0  0  0  0  0  0  0  0  0
    2.0789   19.4249   26.5649 H   0  0  0  0  0  0  0  0  0  0  0  0
    3.1543   20.3012   27.5565 H   0  0  0  0  0  0  0  0  0  0  0  0
    0.6757   22.0071   29.2860 H   0  0  0  0  0  0  0  0  0  0  0  0
   -2.5460   20.0651   19.7508 C   0  0  0  0  0  0  0  0  0  0  0  0
   -1.8740   18.9365   19.5972 N   0  0  0  0  0  0  0  0  0  0  0  0
   -1.8324   18.3122   18.2866 C   0  0  0  0  0  0  0  0  0  0  0  0
   -0.0997   14.9535   19.0694 C   0  0  0  0  0  0  0  0  0  0  0  0
   -0.7839   14.1118   18.2005 C   0  0  0  0  0  0  0  0  0  0  0  0
   -1.7653   14.6353   17.3643 C   0  0  0  0  0  0  0  0  0  0  0  0
    0.2841   17.1183   19.9663 O   0  0  0  0  0  0  0  0  0  0  0  0
   -0.3961   16.3108   19.1088 C   0  0  0  0  0  0  0  0  0  0  0  0
   -1.3797   16.8494   18.2829 C   0  0  0  0  0  0  0  0  0  0  0  0
   -2.0506   15.9953   17.4140 C   0  0  0  0  0  0  0  0  0  0  0  0
    0.0910   18.0346   19.9997 H   0  0  0  0  0  0  0  0  0  0  0  0
   -2.4267   13.7977   16.5696 N   0  0  0  0  0  0  0  0  0  0  0  0
   -3.1051   13.2150   16.9813 H   0  0  0  0  0  0  0  0  0  0  0  0
   -2.2346   13.6930   15.2561 C   0  0  0  0  0  0  0  0  0  0  0  0
   -3.1527   14.1732   14.4208 N   0  0  0  0  0  0  0  0  0  0  0  0
   -1.1604   13.0823   14.7656 N   0  0  0  0  0  0  0  0  0  0  0  0
   -3.0194   14.1004   13.4481 H   0  0  0  0  0  0  0  0  0  0  0  0
   -3.9652   14.6012   14.7756 H   0  0  0  0  0  0  0  0  0  0  0  0
   -1.0346   13.0142   13.7915 H   0  0  0  0  0  0  0  0  0  0  0  0
 34 33  1  0  0  0
 35 33  2  0  0  0
 33 31  1  0  0  0
 31 25  1  0  0  0
 25 29  2  0  0  0
 25 24  1  0  0  0
 29 28  1  0  0  0
 24 23  2  0  0  0
 28 22  1  0  0  0
 28 27  2  0  0  0
 22 21  2  0  0  0
 23 27  1  0  0  0
 27 26  1  0  0  0
 21 20  1  0  0  0
 20  1  1  0  0  0
  1  3  1  0  0  0
  3  2  2  0  0  0
 10  9  1  0  0  0
  2  8  1  0  0  0
  9  8  2  0  0  0
  9  6  1  0  0  0
  8  7  1  0  0  0
  6  5  2  0  0  0
  7  4  2  0  0  0
  5  4  1  0  0  0
  4 12  1  0  0  0
 12 15  1  0  0  0
 15 14  1  0  0  0
 15 16  2  0  0  0
 14 17  1  0  0  0
 14 18  1  0  0  0
 12 13  1  0  0  0
 31 32  1  0  0  0
 34 36  1  0  0  0
 34 37  1  0  0  0
 16 19  1  0  0  0
 10 11  1  0  0  0
 26 30  1  0  0  0
 35 38  1  0  0  0
M  END
> <minimizedAffinity>
-7.42633

$$$$
3AAU_GZC_A_3001


 38 39  0  0  0  0  0  0  0  0999 V2000
    1.0836   19.9030   17.3187 C   0  0  0  0  0  0  0  0  0  0  0  0
    0.1485   17.7226   18.0518 C   0  0  0  0  0  0  0  0  0  0  0  0
    0.2515   18.6897   17.3362 N   0  0  0  0  0  0  0  0  0  0  0  0
   -1.8000   14.7551   17.0568 C   0  0  0  0  0  0  0  0  0  0  0  0
   -1.5629   13.9260   18.1480 C   0  0  0  0  0  0  0  0  0  0  0  0
   -0.8074   14.3785   19.2201 C   0  0  0  0  0  0  0  0  0  0  0  0
   -1.2626   16.0388   17.0456 C   0  0  0  0  0  0  0  0  0  0  0  0
   -0.5005   16.4949   18.1126 C   0  0  0  0  0  0  0  0  0  0  0  0
   -0.2874   15.6664   19.2057 C   0  0  0  0  0  0  0  0  0  0  0  0
    0.3557   16.1321   20.3068 O   0  0  0  0  0  0  0  0  0  0  0  0
    0.7111   16.9991   20.3101 H   0  0  0  0  0  0  0  0  0  0  0  0
   -2.5846   14.3031   16.0817 N   0  0  0  0  0  0  0  0  0  0  0  0
   -3.5609   14.3783   16.1840 H   0  0  0  0  0  0  0  0  0  0  0  0
   -1.1492   12.8704   14.8046 N   0  0  0  0  0  0  0  0  0  0  0  0
   -2.1088   13.7683   15.0038 C   0  0  0  0  0  0  0  0  0  0  0  0
   -2.8102   14.2111   13.9652 N   0  0  0  0  0  0  0  0  0  0  0  0
   -0.6231   12.5351   15.5662 H   0  0  0  0  0  0  0  0  0  0  0  0
   -0.9645   12.5407   13.8956 H   0  0  0  0  0  0  0  0  0  0  0  0
   -3.5234   14.8761   14.1005 H   0  0  0  0  0  0  0  0  0  0  0  0
    0.4216   20.9055   18.0166 C   0  0  0  0  0  0  0  0  0  0  0  0
    0.8400   21.2845   19.2125 N   0  0  0  0  0  0  0  0  0  0  0  0
    1.9730   20.6026   19.8131 C   0  0  0  0  0  0  0  0  0  0  0  0
    1.3966   20.8672   23.6201 C   0  0  0  0  0  0  0  0  0  0  0  0
    2.6832   21.1752   24.0460 C   0  0  0  0  0  0  0  0  0  0  0  0
    3.7030   21.3179   23.1100 C   0  0  0  0  0  0  0  0  0  0  0  0
   -0.1371   20.3951   21.8699 O   0  0  0  0  0  0  0  0  0  0  0  0
    1.1284   20.6968   22.2671 C   0  0  0  0  0  0  0  0  0  0  0  0
    2.1390   20.8301   21.3182 C   0  0  0  0  0  0  0  0  0  0  0  0
    3.4197   21.1452   21.7596 C   0  0  0  0  0  0  0  0  0  0  0  0
   -0.3273   20.2784   20.9598 H   0  0  0  0  0  0  0  0  0  0  0  0
    4.9307   21.5778   23.5523 N   0  0  0  0  0  0  0  0  0  0  0  0
    5.6882   21.3256   22.9762 H   0  0  0  0  0  0  0  0  0  0  0  0
    5.2059   22.1554   24.7202 C   0  0  0  0  0  0  0  0  0  0  0  0
    5.2691   23.4826   24.7942 N   0  0  0  0  0  0  0  0  0  0  0  0
    5.4570   21.4276   25.8041 N   0  0  0  0  0  0  0  0  0  0  0  0
    5.4719   23.9186   25.6533 H   0  0  0  0  0  0  0  0  0  0  0  0
    5.1131   24.0285   23.9899 H   0  0  0  0  0  0  0  0  0  0  0  0
    5.6585   21.8716   26.6593 H   0  0  0  0  0  0  0  0  0  0  0  0
 34 33  1  0  0  0
 35 33  2  0  0  0
 33 31  1  0  0  0
 31 25  1  0  0  0
 25 29  2  0  0  0
 25 24  1  0  0  0
 29 28  1  0  0  0
 24 23  2  0  0  0
 28 22  1  0  0  0
 28 27  2  0  0  0
 22 21  2  0  0  0
 23 27  1  0  0  0
 27 26  1  0  0  0
 21 20  1  0  0  0
 20  1  1  0  0  0
  1  3  1  0  0  0
  3  2  2  0  0  0
 10  9  1  0  0  0
  2  8  1  0  0  0
  9  8  2  0  0  0
  9  6  1  0  0  0
  8  7  1  0  0  0
  6  5  2  0  0  0
  7  4  2  0  0  0
  5  4  1  0  0  0
  4 12  1  0  0  0
 12 15  1  0  0  0
 15 14  1  0  0  0
 15 16  2  0  0  0
 14 17  1  0  0  0
 14 18  1  0  0  0
 12 13  1  0  0  0
 31 32  1  0  0  0
 34 36  1  0  0  0
 34 37  1  0  0  0
 16 19  1  0  0  0
 10 11  1  0  0  0
 26 30  1  0  0  0
 35 38  1  0  0  0
M  END
> <minimizedAffinity>
-7.23481

$$$$
3AAU_GZC_A_3001


 38 39  0  0  0  0  0  0  0  0999 V2000
    1.1427   19.9565   17.3291 C   0  0  0  0  0  0  0  0  0  0  0  0
    0.2329   17.7566   18.0352 C   0  0  0  0  0  0  0  0  0  0  0  0
    0.2491   18.7906   17.4119 N   0  0  0  0  0  0  0  0  0  0  0  0
   -1.8946   14.8919   17.1076 C   0  0  0  0  0  0  0  0  0  0  0  0
   -1.6615   14.0499   18.1897 C   0  0  0  0  0  0  0  0  0  0  0  0
   -0.8476   14.4619   19.2350 C   0  0  0  0  0  0  0  0  0  0  0  0
   -1.2945   16.1473   17.0781 C   0  0  0  0  0  0  0  0  0  0  0  0
   -0.4741   16.5626   18.1182 C   0  0  0  0  0  0  0  0  0  0  0  0
   -0.2647   15.7223   19.2029 C   0  0  0  0  0  0  0  0  0  0  0  0
    0.4386   16.1531   20.2811 O   0  0  0  0  0  0  0  0  0  0  0  0
    0.8368   17.0013   20.2723 H   0  0  0  0  0  0  0  0  0  0  0  0
   -2.7341   14.4817   16.1603 N   0  0  0  0  0  0  0  0  0  0  0  0
   -3.6978   14.6468   16.2754 H   0  0  0  0  0  0  0  0  0  0  0  0
   -1.2501   13.1358   14.8449 N   0  0  0  0  0  0  0  0  0  0  0  0
   -2.3278   13.8733   15.0930 C   0  0  0  0  0  0  0  0  0  0  0  0
   -3.2492   14.0167   14.1460 N   0  0  0  0  0  0  0  0  0  0  0  0
   -0.5608   13.0224   15.5386 H   0  0  0  0  0  0  0  0  0  0  0  0
   -1.1412   12.7030   13.9674 H   0  0  0  0  0  0  0  0  0  0  0  0
   -4.0516   14.5605   14.3182 H   0  0  0  0  0  0  0  0  0  0  0  0
    0.6814   20.9324   18.2039 C   0  0  0  0  0  0  0  0  0  0  0  0
    1.3767   21.2563   19.2811 N   0  0  0  0  0  0  0  0  0  0  0  0
    1.9439   20.1991   20.0997 C   0  0  0  0  0  0  0  0  0  0  0  0
    3.8582   21.6888   23.1016 C   0  0  0  0  0  0  0  0  0  0  0  0
    2.9442   21.4528   24.1218 C   0  0  0  0  0  0  0  0  0  0  0  0
    1.7481   20.8010   23.8378 C   0  0  0  0  0  0  0  0  0  0  0  0
    4.4857   21.5219   20.8176 O   0  0  0  0  0  0  0  0  0  0  0  0
    3.5788   21.2815   21.8026 C   0  0  0  0  0  0  0  0  0  0  0  0
    2.3836   20.6335   21.5006 C   0  0  0  0  0  0  0  0  0  0  0  0
    1.4824   20.3986   22.5336 C   0  0  0  0  0  0  0  0  0  0  0  0
    4.3058   21.2509   19.9389 H   0  0  0  0  0  0  0  0  0  0  0  0
    0.8787   20.6219   24.8292 N   0  0  0  0  0  0  0  0  0  0  0  0
    0.0014   21.0623   24.7544 H   0  0  0  0  0  0  0  0  0  0  0  0
    1.1132   19.8882   25.9155 C   0  0  0  0  0  0  0  0  0  0  0  0
    1.0680   20.4631   27.1149 N   0  0  0  0  0  0  0  0  0  0  0  0
    1.4303   18.6007   25.8194 N   0  0  0  0  0  0  0  0  0  0  0  0
    1.2399   19.9288   27.9237 H   0  0  0  0  0  0  0  0  0  0  0  0
    0.8625   21.4227   27.1933 H   0  0  0  0  0  0  0  0  0  0  0  0
    1.6003   18.0735   26.6332 H   0  0  0  0  0  0  0  0  0  0  0  0
 34 33  1  0  0  0
 35 33  2  0  0  0
 33 31  1  0  0  0
 31 25  1  0  0  0
 25 29  2  0  0  0
 25 24  1  0  0  0
 29 28  1  0  0  0
 24 23  2  0  0  0
 28 22  1  0  0  0
 28 27  2  0  0  0
 22 21  2  0  0  0
 23 27  1  0  0  0
 27 26  1  0  0  0
 21 20  1  0  0  0
 20  1  1  0  0  0
  1  3  1  0  0  0
  3  2  2  0  0  0
 10  9  1  0  0  0
  2  8  1  0  0  0
  9  8  2  0  0  0
  9  6  1  0  0  0
  8  7  1  0  0  0
  6  5  2  0  0  0
  7  4  2  0  0  0
  5  4  1  0  0  0
  4 12  1  0  0  0
 12 15  1  0  0  0
 15 14  1  0  0  0
 15 16  2  0  0  0
 14 17  1  0  0  0
 14 18  1  0  0  0
 12 13  1  0  0  0
 31 32  1  0  0  0
 34 36  1  0  0  0
 34 37  1  0  0  0
 16 19  1  0  0  0
 10 11  1  0  0  0
 26 30  1  0  0  0
 35 38  1  0  0  0
M  END
> <minimizedAffinity>
-7.19592

$$$$
