4GG7_0J8_A_1401


 38 42  0  0  0  0  0  0  0  0999 V2000
   -1.0788  -17.6014   14.4723 C   0  0  0  0  0  0  0  0  0  0  0  0
   -1.9432  -16.5167   14.2460 C   0  0  0  0  0  0  0  0  0  0  0  0
   -1.7686  -15.3236   15.0052 C   0  0  0  0  0  0  0  0  0  0  0  0
   -0.7754  -15.2627   15.9225 N   0  0  0  0  0  0  0  0  0  0  0  0
   -0.1066  -17.4785   15.4196 N   0  0  0  0  0  0  0  0  0  0  0  0
   -3.0099  -17.9165   12.5726 C   0  0  0  0  0  0  0  0  0  0  0  0
   -2.9387  -16.6764   13.2663 C   0  0  0  0  0  0  0  0  0  0  0  0
   -2.1252  -18.9513   12.8580 C   0  0  0  0  0  0  0  0  0  0  0  0
   -1.1711  -18.7827   13.8006 N   0  0  0  0  0  0  0  0  0  0  0  0
    0.0099  -16.3328   16.1121 C   0  0  0  0  0  0  0  0  0  0  0  0
   -5.0923  -18.7724    9.7032 N   0  0  0  0  0  0  0  0  0  0  0  0
   -3.8936  -18.7377   10.3174 C   0  0  0  0  0  0  0  0  0  0  0  0
   -6.0565  -18.2141   10.5366 N   0  0  0  0  0  0  0  0  0  0  0  0
   -5.4418  -17.8168   11.6868 C   0  0  0  0  0  0  0  0  0  0  0  0
   -4.0836  -18.1278   11.5504 C   0  0  0  0  0  0  0  0  0  0  0  0
   -4.1691  -19.0701    7.4387 C   0  0  0  0  0  0  0  0  0  0  0  0
   -4.3806  -19.7007    6.0478 C   0  0  0  0  0  0  0  0  0  0  0  0
   -4.7747  -21.1108    6.1197 N   0  0  0  0  0  0  0  0  0  0  0  0
   -5.0979  -21.6977    7.4308 C   0  0  0  0  0  0  0  0  0  0  0  0
   -5.7343  -20.7947    8.4769 C   0  0  0  0  0  0  0  0  0  0  0  0
   -5.3464  -19.3362    8.3500 C   0  0  0  0  0  0  0  0  0  0  0  0
   -5.6011  -21.2202    5.5319 H   0  0  0  0  0  0  0  0  0  0  0  0
    1.1195  -16.2190   17.1527 C   0  0  0  0  0  0  0  0  0  0  0  0
    1.5088  -17.4172   17.5616 F   0  0  0  0  0  0  0  0  0  0  0  0
    2.0935  -15.5450   16.5738 F   0  0  0  0  0  0  0  0  0  0  0  0
    0.7063  -15.5651   18.2232 F   0  0  0  0  0  0  0  0  0  0  0  0
   -2.5942  -14.1468   14.8178 N   0  0  0  0  0  0  0  0  0  0  0  0
   -3.2543  -14.1009   14.0888 H   0  0  0  0  0  0  0  0  0  0  0  0
   -2.4178  -13.0386   15.7378 C   0  0  0  0  0  0  0  0  0  0  0  0
   -3.4253  -13.3029   16.8410 C   0  0  0  0  0  0  0  0  0  0  0  0
   -2.9685  -13.5692   18.1340 C   0  0  0  0  0  0  0  0  0  0  0  0
   -4.8153  -13.3407   16.5401 C   0  0  0  0  0  0  0  0  0  0  0  0
   -5.7430  -13.6184   17.5557 C   0  0  0  0  0  0  0  0  0  0  0  0
   -5.2944  -13.8799   18.8532 C   0  0  0  0  0  0  0  0  0  0  0  0
   -3.9001  -13.8546   19.1392 C   0  0  0  0  0  0  0  0  0  0  0  0
   -3.4786  -14.1287   20.4788 N   0  0  0  0  0  0  0  0  0  0  0  0
   -4.1444  -15.0315   21.1300 O   0  0  0  0  0  0  0  0  0  0  0  0
   -2.4610  -13.4931   21.0306 O   0  0  0  0  0  0  0  0  0  0  0  0
 19 18  1  0  0  0
 19 20  1  0  0  0
 18 17  1  0  0  0
 20 21  1  0  0  0
 17 16  1  0  0  0
 21 16  1  0  0  0
 21 11  1  0  0  0
 13 11  1  0  0  0
 13 14  2  0  0  0
 11 12  1  0  0  0
 14 15  1  0  0  0
 12 15  2  0  0  0
 15  6  1  0  0  0
  6  8  2  0  0  0
  6  7  1  0  0  0
  8  9  1  0  0  0
  7  2  2  0  0  0
  9  1  2  0  0  0
  2  1  1  0  0  0
  2  3  1  0  0  0
  1  5  1  0  0  0
 27  3  1  0  0  0
 27 29  1  0  0  0
  3  4  2  0  0  0
  5 10  2  0  0  0
 29 30  1  0  0  0
  4 10  1  0  0  0
 10 23  1  0  0  0
 25 23  1  0  0  0
 30 32  2  0  0  0
 30 31  1  0  0  0
 32 33  1  0  0  0
 23 24  1  0  0  0
 23 26  1  0  0  0
 31 35  2  0  0  0
 33 34  2  0  0  0
 35 34  1  0  0  0
 35 36  1  0  0  0
 36 38  2  0  0  0
 36 37  1  0  0  0
 18 22  1  0  0  0
 27 28  1  0  0  0
M  CHG 1  36   1
M  CHG 1  37  -1
M  END
> <minimizedAffinity>
-10.92161

$$$$
4GG7_0J8_A_1401


 38 42  0  0  0  0  0  0  0  0999 V2000
   -0.9231  -17.3044   14.4944 C   0  0  0  0  0  0  0  0  0  0  0  0
   -1.9814  -16.4069   14.2719 C   0  0  0  0  0  0  0  0  0  0  0  0
   -1.9786  -15.1533   14.9493 C   0  0  0  0  0  0  0  0  0  0  0  0
   -0.9582  -14.8566   15.7874 N   0  0  0  0  0  0  0  0  0  0  0  0
    0.0674  -16.9485   15.3604 N   0  0  0  0  0  0  0  0  0  0  0  0
   -2.8787  -18.0823   12.7602 C   0  0  0  0  0  0  0  0  0  0  0  0
   -2.9900  -16.8052   13.3774 C   0  0  0  0  0  0  0  0  0  0  0  0
   -1.8059  -18.9233   13.0373 C   0  0  0  0  0  0  0  0  0  0  0  0
   -0.8418  -18.5260   13.8975 N   0  0  0  0  0  0  0  0  0  0  0  0
    0.0176  -15.7562   15.9783 C   0  0  0  0  0  0  0  0  0  0  0  0
   -5.9218  -19.2291   11.1088 N   0  0  0  0  0  0  0  0  0  0  0  0
   -5.2415  -18.9019   12.2249 C   0  0  0  0  0  0  0  0  0  0  0  0
   -5.0981  -19.0663    9.9994 N   0  0  0  0  0  0  0  0  0  0  0  0
   -3.8797  -18.6387   10.4370 C   0  0  0  0  0  0  0  0  0  0  0  0
   -3.9575  -18.5480   11.8319 C   0  0  0  0  0  0  0  0  0  0  0  0
   -7.4226  -21.1773   11.2539 C   0  0  0  0  0  0  0  0  0  0  0  0
   -8.8865  -21.6604   11.2812 C   0  0  0  0  0  0  0  0  0  0  0  0
   -9.7174  -20.8958   12.2160 N   0  0  0  0  0  0  0  0  0  0  0  0
   -9.1561  -19.6933   12.8537 C   0  0  0  0  0  0  0  0  0  0  0  0
   -8.1514  -18.8708   12.0608 C   0  0  0  0  0  0  0  0  0  0  0  0
   -7.3395  -19.6784   11.0696 C   0  0  0  0  0  0  0  0  0  0  0  0
  -10.5491  -20.6015   11.7041 H   0  0  0  0  0  0  0  0  0  0  0  0
    1.1503  -15.3787   16.9277 C   0  0  0  0  0  0  0  0  0  0  0  0
    1.6973  -16.4592   17.4643 F   0  0  0  0  0  0  0  0  0  0  0  0
    2.0106  -14.6841   16.2097 F   0  0  0  0  0  0  0  0  0  0  0  0
    0.7094  -14.6366   17.9273 F   0  0  0  0  0  0  0  0  0  0  0  0
   -3.0130  -14.1559   14.7577 N   0  0  0  0  0  0  0  0  0  0  0  0
   -3.7302  -14.2893   14.0965 H   0  0  0  0  0  0  0  0  0  0  0  0
   -2.9589  -12.9551   15.5704 C   0  0  0  0  0  0  0  0  0  0  0  0
   -3.6783  -13.3360   16.8508 C   0  0  0  0  0  0  0  0  0  0  0  0
   -2.9569  -13.4053   18.0451 C   0  0  0  0  0  0  0  0  0  0  0  0
   -5.0584  -13.6795   16.8155 C   0  0  0  0  0  0  0  0  0  0  0  0
   -5.7134  -14.0639   17.9955 C   0  0  0  0  0  0  0  0  0  0  0  0
   -5.0002  -14.1299   19.1955 C   0  0  0  0  0  0  0  0  0  0  0  0
   -3.6158  -13.7987   19.2159 C   0  0  0  0  0  0  0  0  0  0  0  0
   -2.9185  -13.8794   20.4627 N   0  0  0  0  0  0  0  0  0  0  0  0
   -3.6352  -14.0911   21.5229 O   0  0  0  0  0  0  0  0  0  0  0  0
   -1.6070  -13.7434   20.5352 O   0  0  0  0  0  0  0  0  0  0  0  0
 19 18  1  0  0  0
 19 20  1  0  0  0
 18 17  1  0  0  0
 20 21  1  0  0  0
 17 16  1  0  0  0
 21 16  1  0  0  0
 21 11  1  0  0  0
 13 11  1  0  0  0
 13 14  2  0  0  0
 11 12  1  0  0  0
 14 15  1  0  0  0
 12 15  2  0  0  0
 15  6  1  0  0  0
  6  8  2  0  0  0
  6  7  1  0  0  0
  8  9  1  0  0  0
  7  2  2  0  0  0
  9  1  2  0  0  0
  2  1  1  0  0  0
  2  3  1  0  0  0
  1  5  1  0  0  0
 27  3  1  0  0  0
 27 29  1  0  0  0
  3  4  2  0  0  0
  5 10  2  0  0  0
 29 30  1  0  0  0
  4 10  1  0  0  0
 10 23  1  0  0  0
 25 23  1  0  0  0
 30 32  2  0  0  0
 30 31  1  0  0  0
 32 33  1  0  0  0
 23 24  1  0  0  0
 23 26  1  0  0  0
 31 35  2  0  0  0
 33 34  2  0  0  0
 35 34  1  0  0  0
 35 36  1  0  0  0
 36 38  2  0  0  0
 36 37  1  0  0  0
 18 22  1  0  0  0
 27 28  1  0  0  0
M  CHG 1  36   1
M  CHG 1  37  -1
M  END
> <minimizedAffinity>
-10.90118

$$$$
4GG7_0J8_A_1401


 38 42  0  0  0  0  0  0  0  0999 V2000
   -0.9708  -17.3535   14.5598 C   0  0  0  0  0  0  0  0  0  0  0  0
   -1.9007  -16.3286   14.3148 C   0  0  0  0  0  0  0  0  0  0  0  0
   -1.7396  -15.0766   14.9757 C   0  0  0  0  0  0  0  0  0  0  0  0
   -0.6961  -14.9038   15.8201 N   0  0  0  0  0  0  0  0  0  0  0  0
    0.0505  -17.1177   15.4311 N   0  0  0  0  0  0  0  0  0  0  0  0
   -2.9970  -17.8939   12.8163 C   0  0  0  0  0  0  0  0  0  0  0  0
   -2.9454  -16.6045   13.4155 C   0  0  0  0  0  0  0  0  0  0  0  0
   -2.0458  -18.8638   13.1153 C   0  0  0  0  0  0  0  0  0  0  0  0
   -1.0451  -18.5836   13.9798 N   0  0  0  0  0  0  0  0  0  0  0  0
    0.1520  -15.9204   16.0326 C   0  0  0  0  0  0  0  0  0  0  0  0
   -6.1593  -18.4426   11.0838 N   0  0  0  0  0  0  0  0  0  0  0  0
   -5.4674  -18.0698   12.1783 C   0  0  0  0  0  0  0  0  0  0  0  0
   -5.2718  -18.8155   10.0792 N   0  0  0  0  0  0  0  0  0  0  0  0
   -4.0045  -18.6801   10.5634 C   0  0  0  0  0  0  0  0  0  0  0  0
   -4.1197  -18.2278   11.8833 C   0  0  0  0  0  0  0  0  0  0  0  0
   -8.1590  -19.8484   10.7779 C   0  0  0  0  0  0  0  0  0  0  0  0
   -9.6992  -19.8789   10.7158 C   0  0  0  0  0  0  0  0  0  0  0  0
  -10.3249  -19.1543   11.8259 N   0  0  0  0  0  0  0  0  0  0  0  0
   -9.4779  -18.3556   12.7271 C   0  0  0  0  0  0  0  0  0  0  0  0
   -8.2403  -17.6939   12.1394 C   0  0  0  0  0  0  0  0  0  0  0  0
   -7.6422  -18.4392   10.9645 C   0  0  0  0  0  0  0  0  0  0  0  0
  -11.0103  -18.5181   11.4185 H   0  0  0  0  0  0  0  0  0  0  0  0
    1.3164  -15.6806   16.9884 C   0  0  0  0  0  0  0  0  0  0  0  0
    1.9316  -16.8173   17.2786 F   0  0  0  0  0  0  0  0  0  0  0  0
    2.1113  -14.8194   16.3847 F   0  0  0  0  0  0  0  0  0  0  0  0
    0.8990  -15.1689   18.1322 F   0  0  0  0  0  0  0  0  0  0  0  0
   -2.6330  -13.9554   14.7606 N   0  0  0  0  0  0  0  0  0  0  0  0
   -3.2399  -13.9316   13.9858 H   0  0  0  0  0  0  0  0  0  0  0  0
   -2.6051  -12.8692   15.7224 C   0  0  0  0  0  0  0  0  0  0  0  0
   -3.5965  -13.2893   16.7913 C   0  0  0  0  0  0  0  0  0  0  0  0
   -4.9627  -13.2736   16.5001 C   0  0  0  0  0  0  0  0  0  0  0  0
   -3.1356  -13.6324   18.0928 C   0  0  0  0  0  0  0  0  0  0  0  0
   -4.0573  -13.9884   19.0893 C   0  0  0  0  0  0  0  0  0  0  0  0
   -5.4254  -13.9810   18.8043 C   0  0  0  0  0  0  0  0  0  0  0  0
   -5.8759  -13.6210   17.5027 C   0  0  0  0  0  0  0  0  0  0  0  0
   -7.2840  -13.6236   17.2487 N   0  0  0  0  0  0  0  0  0  0  0  0
   -7.6558  -13.6435   16.0063 O   0  0  0  0  0  0  0  0  0  0  0  0
   -8.1669  -13.6048   18.2306 O   0  0  0  0  0  0  0  0  0  0  0  0
 19 18  1  0  0  0
 19 20  1  0  0  0
 18 17  1  0  0  0
 20 21  1  0  0  0
 17 16  1  0  0  0
 21 16  1  0  0  0
 21 11  1  0  0  0
 13 11  1  0  0  0
 13 14  2  0  0  0
 11 12  1  0  0  0
 14 15  1  0  0  0
 12 15  2  0  0  0
 15  6  1  0  0  0
  6  8  2  0  0  0
  6  7  1  0  0  0
  8  9  1  0  0  0
  7  2  2  0  0  0
  9  1  2  0  0  0
  2  1  1  0  0  0
  2  3  1  0  0  0
  1  5  1  0  0  0
 27  3  1  0  0  0
 27 29  1  0  0  0
  3  4  2  0  0  0
  5 10  2  0  0  0
 29 30  1  0  0  0
  4 10  1  0  0  0
 10 23  1  0  0  0
 25 23  1  0  0  0
 30 32  2  0  0  0
 30 31  1  0  0  0
 32 33  1  0  0  0
 23 24  1  0  0  0
 23 26  1  0  0  0
 31 35  2  0  0  0
 33 34  2  0  0  0
 35 34  1  0  0  0
 35 36  1  0  0  0
 36 38  2  0  0  0
 36 37  1  0  0  0
 18 22  1  0  0  0
 27 28  1  0  0  0
M  CHG 1  36   1
M  CHG 1  37  -1
M  END
> <minimizedAffinity>
-10.53774

$$$$
4GG7_0J8_A_1401


 38 42  0  0  0  0  0  0  0  0999 V2000
   -1.0239  -17.4040   14.5598 C   0  0  0  0  0  0  0  0  0  0  0  0
   -1.9220  -16.3534   14.3056 C   0  0  0  0  0  0  0  0  0  0  0  0
   -1.7638  -15.1237   15.0078 C   0  0  0  0  0  0  0  0  0  0  0  0
   -0.7533  -14.9961   15.8990 N   0  0  0  0  0  0  0  0  0  0  0  0
   -0.0354  -17.2138   15.4788 N   0  0  0  0  0  0  0  0  0  0  0  0
   -2.9856  -17.8536   12.7195 C   0  0  0  0  0  0  0  0  0  0  0  0
   -2.9334  -16.5825   13.3565 C   0  0  0  0  0  0  0  0  0  0  0  0
   -2.0673  -18.8512   13.0300 C   0  0  0  0  0  0  0  0  0  0  0  0
   -1.0983  -18.6160   13.9427 N   0  0  0  0  0  0  0  0  0  0  0  0
    0.0647  -16.0358   16.1176 C   0  0  0  0  0  0  0  0  0  0  0  0
   -5.0934  -18.8378    9.9104 N   0  0  0  0  0  0  0  0  0  0  0  0
   -3.8802  -18.7135   10.4831 C   0  0  0  0  0  0  0  0  0  0  0  0
   -6.0692  -18.3717   10.7860 N   0  0  0  0  0  0  0  0  0  0  0  0
   -5.4479  -17.9411   11.9206 C   0  0  0  0  0  0  0  0  0  0  0  0
   -4.0747  -18.1381   11.7319 C   0  0  0  0  0  0  0  0  0  0  0  0
   -4.1409  -19.2092    7.6691 C   0  0  0  0  0  0  0  0  0  0  0  0
   -4.3572  -19.8429    6.2803 C   0  0  0  0  0  0  0  0  0  0  0  0
   -4.8278  -21.2290    6.3577 N   0  0  0  0  0  0  0  0  0  0  0  0
   -5.2091  -21.7833    7.6673 C   0  0  0  0  0  0  0  0  0  0  0  0
   -5.8176  -20.8362    8.6908 C   0  0  0  0  0  0  0  0  0  0  0  0
   -5.3494  -19.4020    8.5578 C   0  0  0  0  0  0  0  0  0  0  0  0
   -5.6465  -21.3004    5.7536 H   0  0  0  0  0  0  0  0  0  0  0  0
    1.1926  -15.8469   17.1271 C   0  0  0  0  0  0  0  0  0  0  0  0
    2.1448  -15.0703   16.6322 F   0  0  0  0  0  0  0  0  0  0  0  0
    0.6341  -15.3321   18.2046 F   0  0  0  0  0  0  0  0  0  0  0  0
    1.7596  -17.0000   17.4323 F   0  0  0  0  0  0  0  0  0  0  0  0
   -2.6249  -13.9784   14.7876 N   0  0  0  0  0  0  0  0  0  0  0  0
   -3.2230  -13.9359   14.0068 H   0  0  0  0  0  0  0  0  0  0  0  0
   -2.5781  -12.8966   15.7536 C   0  0  0  0  0  0  0  0  0  0  0  0
   -3.5956  -13.2908   16.8078 C   0  0  0  0  0  0  0  0  0  0  0  0
   -4.9549  -13.2704   16.4866 C   0  0  0  0  0  0  0  0  0  0  0  0
   -3.1657  -13.6145   18.1247 C   0  0  0  0  0  0  0  0  0  0  0  0
   -4.1114  -13.9463   19.1069 C   0  0  0  0  0  0  0  0  0  0  0  0
   -5.4730  -13.9341   18.7920 C   0  0  0  0  0  0  0  0  0  0  0  0
   -5.8923  -13.5936   17.4748 C   0  0  0  0  0  0  0  0  0  0  0  0
   -7.2945  -13.5904   17.1902 N   0  0  0  0  0  0  0  0  0  0  0  0
   -8.0994  -13.6165   18.2070 O   0  0  0  0  0  0  0  0  0  0  0  0
   -7.7519  -13.5642   15.9517 O   0  0  0  0  0  0  0  0  0  0  0  0
 19 18  1  0  0  0
 19 20  1  0  0  0
 18 17  1  0  0  0
 20 21  1  0  0  0
 17 16  1  0  0  0
 21 16  1  0  0  0
 21 11  1  0  0  0
 13 11  1  0  0  0
 13 14  2  0  0  0
 11 12  1  0  0  0
 14 15  1  0  0  0
 12 15  2  0  0  0
 15  6  1  0  0  0
  6  8  2  0  0  0
  6  7  1  0  0  0
  8  9  1  0  0  0
  7  2  2  0  0  0
  9  1  2  0  0  0
  2  1  1  0  0  0
  2  3  1  0  0  0
  1  5  1  0  0  0
 27  3  1  0  0  0
 27 29  1  0  0  0
  3  4  2  0  0  0
  5 10  2  0  0  0
 29 30  1  0  0  0
  4 10  1  0  0  0
 10 23  1  0  0  0
 25 23  1  0  0  0
 30 32  2  0  0  0
 30 31  1  0  0  0
 32 33  1  0  0  0
 23 24  1  0  0  0
 23 26  1  0  0  0
 31 35  2  0  0  0
 33 34  2  0  0  0
 35 34  1  0  0  0
 35 36  1  0  0  0
 36 38  2  0  0  0
 36 37  1  0  0  0
 18 22  1  0  0  0
 27 28  1  0  0  0
M  CHG 1  36   1
M  CHG 1  37  -1
M  END
> <minimizedAffinity>
-10.47014

$$$$
4GG7_0J8_A_1401


 38 42  0  0  0  0  0  0  0  0999 V2000
   -5.7275  -13.6414   17.8683 C   0  0  0  0  0  0  0  0  0  0  0  0
   -4.7573  -13.4811   16.8643 C   0  0  0  0  0  0  0  0  0  0  0  0
   -3.3798  -13.4747   17.2289 C   0  0  0  0  0  0  0  0  0  0  0  0
   -3.0393  -13.6248   18.5301 N   0  0  0  0  0  0  0  0  0  0  0  0
   -5.3174  -13.7756   19.1611 N   0  0  0  0  0  0  0  0  0  0  0  0
   -6.6149  -13.3655   15.3044 C   0  0  0  0  0  0  0  0  0  0  0  0
   -5.2123  -13.3399   15.5417 C   0  0  0  0  0  0  0  0  0  0  0  0
   -7.5182  -13.5175   16.3512 C   0  0  0  0  0  0  0  0  0  0  0  0
   -7.0662  -13.6550   17.6177 N   0  0  0  0  0  0  0  0  0  0  0  0
   -4.0053  -13.7558   19.4508 C   0  0  0  0  0  0  0  0  0  0  0  0
   -7.5816  -12.2364   11.9737 N   0  0  0  0  0  0  0  0  0  0  0  0
   -7.0447  -11.9980   13.1862 C   0  0  0  0  0  0  0  0  0  0  0  0
   -7.9884  -13.5650   11.9000 N   0  0  0  0  0  0  0  0  0  0  0  0
   -7.7068  -14.1598   13.0940 C   0  0  0  0  0  0  0  0  0  0  0  0
   -7.1292  -13.1799   13.9103 C   0  0  0  0  0  0  0  0  0  0  0  0
   -8.6624  -11.7317    9.8183 C   0  0  0  0  0  0  0  0  0  0  0  0
   -8.8562  -10.6852    8.7028 C   0  0  0  0  0  0  0  0  0  0  0  0
   -9.1776   -9.3539    9.2253 N   0  0  0  0  0  0  0  0  0  0  0  0
   -9.0987   -9.1163   10.6762 C   0  0  0  0  0  0  0  0  0  0  0  0
   -8.0508   -9.8852   11.4669 C   0  0  0  0  0  0  0  0  0  0  0  0
   -7.7040  -11.2369   10.8785 C   0  0  0  0  0  0  0  0  0  0  0  0
   -8.5380   -8.6960    8.7799 H   0  0  0  0  0  0  0  0  0  0  0  0
   -3.5766  -13.9269   20.9047 C   0  0  0  0  0  0  0  0  0  0  0  0
   -3.8975  -15.1312   21.3536 F   0  0  0  0  0  0  0  0  0  0  0  0
   -2.2760  -13.7124   20.9283 F   0  0  0  0  0  0  0  0  0  0  0  0
   -4.1821  -13.0529   21.6881 F   0  0  0  0  0  0  0  0  0  0  0  0
   -2.3118  -13.3445   16.2573 N   0  0  0  0  0  0  0  0  0  0  0  0
   -2.5073  -13.2719   15.2951 H   0  0  0  0  0  0  0  0  0  0  0  0
   -0.9459  -13.3244   16.7466 C   0  0  0  0  0  0  0  0  0  0  0  0
   -0.4501  -14.7423   16.5327 C   0  0  0  0  0  0  0  0  0  0  0  0
   -1.0122  -15.5164   15.5148 C   0  0  0  0  0  0  0  0  0  0  0  0
    0.5311  -15.2913   17.4044 C   0  0  0  0  0  0  0  0  0  0  0  0
    0.9637  -16.6141   17.2251 C   0  0  0  0  0  0  0  0  0  0  0  0
    0.4107  -17.3933   16.2052 C   0  0  0  0  0  0  0  0  0  0  0  0
   -0.5818  -16.8381   15.3487 C   0  0  0  0  0  0  0  0  0  0  0  0
   -1.1258  -17.6666   14.3167 N   0  0  0  0  0  0  0  0  0  0  0  0
   -2.2886  -17.3329   13.8487 O   0  0  0  0  0  0  0  0  0  0  0  0
   -0.4784  -18.7234   13.8608 O   0  0  0  0  0  0  0  0  0  0  0  0
 19 18  1  0  0  0
 19 20  1  0  0  0
 18 17  1  0  0  0
 20 21  1  0  0  0
 17 16  1  0  0  0
 21 16  1  0  0  0
 21 11  1  0  0  0
 13 11  1  0  0  0
 13 14  2  0  0  0
 11 12  1  0  0  0
 14 15  1  0  0  0
 12 15  2  0  0  0
 15  6  1  0  0  0
  6  8  2  0  0  0
  6  7  1  0  0  0
  8  9  1  0  0  0
  7  2  2  0  0  0
  9  1  2  0  0  0
  2  1  1  0  0  0
  2  3  1  0  0  0
  1  5  1  0  0  0
 27  3  1  0  0  0
 27 29  1  0  0  0
  3  4  2  0  0  0
  5 10  2  0  0  0
 29 30  1  0  0  0
  4 10  1  0  0  0
 10 23  1  0  0  0
 25 23  1  0  0  0
 30 32  2  0  0  0
 30 31  1  0  0  0
 32 33  1  0  0  0
 23 24  1  0  0  0
 23 26  1  0  0  0
 31 35  2  0  0  0
 33 34  2  0  0  0
 35 34  1  0  0  0
 35 36  1  0  0  0
 36 38  2  0  0  0
 36 37  1  0  0  0
 18 22  1  0  0  0
 27 28  1  0  0  0
M  CHG 1  36   1
M  CHG 1  37  -1
M  END
> <minimizedAffinity>
-10.45285

$$$$
4GG7_0J8_A_1401


 38 42  0  0  0  0  0  0  0  0999 V2000
   -5.7222  -13.5848   17.8138 C   0  0  0  0  0  0  0  0  0  0  0  0
   -4.7431  -13.3697   16.8289 C   0  0  0  0  0  0  0  0  0  0  0  0
   -3.3682  -13.4048   17.2018 C   0  0  0  0  0  0  0  0  0  0  0  0
   -3.0387  -13.6462   18.4921 N   0  0  0  0  0  0  0  0  0  0  0  0
   -5.3228  -13.8105   19.0973 N   0  0  0  0  0  0  0  0  0  0  0  0
   -6.5881  -13.1264   15.2688 C   0  0  0  0  0  0  0  0  0  0  0  0
   -5.1870  -13.1344   15.5160 C   0  0  0  0  0  0  0  0  0  0  0  0
   -7.5005  -13.3370   16.2974 C   0  0  0  0  0  0  0  0  0  0  0  0
   -7.0592  -13.5649   17.5546 N   0  0  0  0  0  0  0  0  0  0  0  0
   -4.0127  -13.8266   19.3958 C   0  0  0  0  0  0  0  0  0  0  0  0
   -7.8371  -13.1671   11.8423 N   0  0  0  0  0  0  0  0  0  0  0  0
   -7.3827  -13.8098   12.9358 C   0  0  0  0  0  0  0  0  0  0  0  0
   -7.8639  -11.7976   12.0872 N   0  0  0  0  0  0  0  0  0  0  0  0
   -7.4082  -11.5862   13.3547 C   0  0  0  0  0  0  0  0  0  0  0  0
   -7.0904  -12.8414   13.8872 C   0  0  0  0  0  0  0  0  0  0  0  0
   -7.6233  -13.1364    9.3882 C   0  0  0  0  0  0  0  0  0  0  0  0
   -7.9952  -13.8381    8.0667 C   0  0  0  0  0  0  0  0  0  0  0  0
   -7.7704  -15.2859    8.1119 N   0  0  0  0  0  0  0  0  0  0  0  0
   -7.4173  -15.9158    9.3950 C   0  0  0  0  0  0  0  0  0  0  0  0
   -7.9941  -15.3115   10.6665 C   0  0  0  0  0  0  0  0  0  0  0  0
   -8.2601  -13.8232   10.5758 C   0  0  0  0  0  0  0  0  0  0  0  0
   -8.6284  -15.7315    7.7867 H   0  0  0  0  0  0  0  0  0  0  0  0
   -3.5964  -14.1002   20.8376 C   0  0  0  0  0  0  0  0  0  0  0  0
   -4.0166  -15.2927   21.2328 F   0  0  0  0  0  0  0  0  0  0  0  0
   -2.2822  -13.9972   20.8626 F   0  0  0  0  0  0  0  0  0  0  0  0
   -4.1240  -13.2155   21.6641 F   0  0  0  0  0  0  0  0  0  0  0  0
   -2.2920  -13.2231   16.2478 N   0  0  0  0  0  0  0  0  0  0  0  0
   -2.4765  -13.1400   15.2843 H   0  0  0  0  0  0  0  0  0  0  0  0
   -0.9342  -13.1675   16.7566 C   0  0  0  0  0  0  0  0  0  0  0  0
   -0.4223  -14.5887   16.6155 C   0  0  0  0  0  0  0  0  0  0  0  0
   -0.9187  -15.3949   15.5884 C   0  0  0  0  0  0  0  0  0  0  0  0
    0.5051  -15.1074   17.5615 C   0  0  0  0  0  0  0  0  0  0  0  0
    0.9516  -16.4330   17.4482 C   0  0  0  0  0  0  0  0  0  0  0  0
    0.4643  -17.2442   16.4199 C   0  0  0  0  0  0  0  0  0  0  0  0
   -0.4753  -16.7190   15.4881 C   0  0  0  0  0  0  0  0  0  0  0  0
   -0.9527  -17.5798   14.4497 N   0  0  0  0  0  0  0  0  0  0  0  0
   -2.0862  -17.2661   13.9026 O   0  0  0  0  0  0  0  0  0  0  0  0
   -0.2750  -18.6458   14.0648 O   0  0  0  0  0  0  0  0  0  0  0  0
 19 18  1  0  0  0
 19 20  1  0  0  0
 18 17  1  0  0  0
 20 21  1  0  0  0
 17 16  1  0  0  0
 21 16  1  0  0  0
 21 11  1  0  0  0
 13 11  1  0  0  0
 13 14  2  0  0  0
 11 12  1  0  0  0
 14 15  1  0  0  0
 12 15  2  0  0  0
 15  6  1  0  0  0
  6  8  2  0  0  0
  6  7  1  0  0  0
  8  9  1  0  0  0
  7  2  2  0  0  0
  9  1  2  0  0  0
  2  1  1  0  0  0
  2  3  1  0  0  0
  1  5  1  0  0  0
 27  3  1  0  0  0
 27 29  1  0  0  0
  3  4  2  0  0  0
  5 10  2  0  0  0
 29 30  1  0  0  0
  4 10  1  0  0  0
 10 23  1  0  0  0
 25 23  1  0  0  0
 30 32  2  0  0  0
 30 31  1  0  0  0
 32 33  1  0  0  0
 23 24  1  0  0  0
 23 26  1  0  0  0
 31 35  2  0  0  0
 33 34  2  0  0  0
 35 34  1  0  0  0
 35 36  1  0  0  0
 36 38  2  0  0  0
 36 37  1  0  0  0
 18 22  1  0  0  0
 27 28  1  0  0  0
M  CHG 1  36   1
M  CHG 1  37  -1
M  END
> <minimizedAffinity>
-10.24626

$$$$
4GG7_0J8_A_1401


 38 42  0  0  0  0  0  0  0  0999 V2000
   -6.2816  -17.2917   12.1965 C   0  0  0  0  0  0  0  0  0  0  0  0
   -6.0973  -16.6748   13.4458 C   0  0  0  0  0  0  0  0  0  0  0  0
   -7.2019  -16.0194   14.0627 C   0  0  0  0  0  0  0  0  0  0  0  0
   -8.4000  -16.0084   13.4334 N   0  0  0  0  0  0  0  0  0  0  0  0
   -7.5112  -17.2334   11.6115 N   0  0  0  0  0  0  0  0  0  0  0  0
   -3.7947  -17.4339   13.3067 C   0  0  0  0  0  0  0  0  0  0  0  0
   -4.8164  -16.7479   14.0206 C   0  0  0  0  0  0  0  0  0  0  0  0
   -4.0483  -18.0123   12.0673 C   0  0  0  0  0  0  0  0  0  0  0  0
   -5.2855  -17.9367   11.5279 N   0  0  0  0  0  0  0  0  0  0  0  0
   -8.5173  -16.5963   12.2341 C   0  0  0  0  0  0  0  0  0  0  0  0
   -0.6437  -16.9982   15.0911 N   0  0  0  0  0  0  0  0  0  0  0  0
   -1.8934  -16.5907   14.7951 C   0  0  0  0  0  0  0  0  0  0  0  0
   -0.3602  -18.1682   14.3935 N   0  0  0  0  0  0  0  0  0  0  0  0
   -1.4525  -18.4876   13.6427 C   0  0  0  0  0  0  0  0  0  0  0  0
   -2.4117  -17.4951   13.8776 C   0  0  0  0  0  0  0  0  0  0  0  0
    0.1651  -14.8105   15.8839 C   0  0  0  0  0  0  0  0  0  0  0  0
    1.0683  -14.0740   16.8933 C   0  0  0  0  0  0  0  0  0  0  0  0
    0.8923  -14.5556   18.2666 N   0  0  0  0  0  0  0  0  0  0  0  0
    0.0657  -15.7502   18.5058 C   0  0  0  0  0  0  0  0  0  0  0  0
    0.0512  -16.8311   17.4351 C   0  0  0  0  0  0  0  0  0  0  0  0
    0.2820  -16.3112   16.0315 C   0  0  0  0  0  0  0  0  0  0  0  0
    1.8224  -14.7577   18.6335 H   0  0  0  0  0  0  0  0  0  0  0  0
   -9.8866  -16.5640   11.5626 C   0  0  0  0  0  0  0  0  0  0  0  0
  -10.8555  -16.6742   12.4591 F   0  0  0  0  0  0  0  0  0  0  0  0
   -9.9411  -15.4244   10.9019 F   0  0  0  0  0  0  0  0  0  0  0  0
  -10.0298  -17.5701   10.7191 F   0  0  0  0  0  0  0  0  0  0  0  0
   -7.1104  -15.3830   15.3620 N   0  0  0  0  0  0  0  0  0  0  0  0
   -7.1715  -15.9107   16.1909 H   0  0  0  0  0  0  0  0  0  0  0  0
   -6.9260  -13.9443   15.4032 C   0  0  0  0  0  0  0  0  0  0  0  0
   -5.5427  -13.7604   15.9987 C   0  0  0  0  0  0  0  0  0  0  0  0
   -5.3608  -13.9395   17.3721 C   0  0  0  0  0  0  0  0  0  0  0  0
   -4.4617  -13.3477   15.1711 C   0  0  0  0  0  0  0  0  0  0  0  0
   -3.1906  -13.1459   15.7305 C   0  0  0  0  0  0  0  0  0  0  0  0
   -2.9990  -13.3288   17.1027 C   0  0  0  0  0  0  0  0  0  0  0  0
   -4.0918  -13.7271   17.9237 C   0  0  0  0  0  0  0  0  0  0  0  0
   -3.8576  -13.9031   19.3242 N   0  0  0  0  0  0  0  0  0  0  0  0
   -4.9008  -14.0685   20.0770 O   0  0  0  0  0  0  0  0  0  0  0  0
   -2.6381  -13.8962   19.8307 O   0  0  0  0  0  0  0  0  0  0  0  0
 19 18  1  0  0  0
 19 20  1  0  0  0
 18 17  1  0  0  0
 20 21  1  0  0  0
 17 16  1  0  0  0
 21 16  1  0  0  0
 21 11  1  0  0  0
 13 11  1  0  0  0
 13 14  2  0  0  0
 11 12  1  0  0  0
 14 15  1  0  0  0
 12 15  2  0  0  0
 15  6  1  0  0  0
  6  8  2  0  0  0
  6  7  1  0  0  0
  8  9  1  0  0  0
  7  2  2  0  0  0
  9  1  2  0  0  0
  2  1  1  0  0  0
  2  3  1  0  0  0
  1  5  1  0  0  0
 27  3  1  0  0  0
 27 29  1  0  0  0
  3  4  2  0  0  0
  5 10  2  0  0  0
 29 30  1  0  0  0
  4 10  1  0  0  0
 10 23  1  0  0  0
 25 23  1  0  0  0
 30 32  2  0  0  0
 30 31  1  0  0  0
 32 33  1  0  0  0
 23 24  1  0  0  0
 23 26  1  0  0  0
 31 35  2  0  0  0
 33 34  2  0  0  0
 35 34  1  0  0  0
 35 36  1  0  0  0
 36 38  2  0  0  0
 36 37  1  0  0  0
 18 22  1  0  0  0
 27 28  1  0  0  0
M  CHG 1  36   1
M  CHG 1  37  -1
M  END
> <minimizedAffinity>
-10.03372

$$$$
4GG7_0J8_A_1401


 38 42  0  0  0  0  0  0  0  0999 V2000
   -7.5313  -13.0622   17.9644 C   0  0  0  0  0  0  0  0  0  0  0  0
   -6.6250  -13.4727   16.9719 C   0  0  0  0  0  0  0  0  0  0  0  0
   -7.0769  -13.5793   15.6247 C   0  0  0  0  0  0  0  0  0  0  0  0
   -8.3645  -13.2811   15.3334 N   0  0  0  0  0  0  0  0  0  0  0  0
   -8.8173  -12.7886   17.6055 N   0  0  0  0  0  0  0  0  0  0  0  0
   -4.9772  -13.6060   18.7507 C   0  0  0  0  0  0  0  0  0  0  0  0
   -5.3075  -13.7525   17.3746 C   0  0  0  0  0  0  0  0  0  0  0  0
   -5.9313  -13.2047   19.6800 C   0  0  0  0  0  0  0  0  0  0  0  0
   -7.1937  -12.9364   19.2780 N   0  0  0  0  0  0  0  0  0  0  0  0
   -9.1927  -12.9118   16.3211 C   0  0  0  0  0  0  0  0  0  0  0  0
   -1.4612  -14.4853   19.1596 N   0  0  0  0  0  0  0  0  0  0  0  0
   -2.5472  -14.3130   18.3810 C   0  0  0  0  0  0  0  0  0  0  0  0
   -1.7877  -14.1969   20.4810 N   0  0  0  0  0  0  0  0  0  0  0  0
   -3.1049  -13.8478   20.5241 C   0  0  0  0  0  0  0  0  0  0  0  0
   -3.5913  -13.9330   19.2141 C   0  0  0  0  0  0  0  0  0  0  0  0
   -0.1277  -16.3653   18.2899 C   0  0  0  0  0  0  0  0  0  0  0  0
    1.2372  -16.8072   17.7252 C   0  0  0  0  0  0  0  0  0  0  0  0
    1.7307  -15.9135   16.6732 N   0  0  0  0  0  0  0  0  0  0  0  0
    1.0144  -14.6546   16.4094 C   0  0  0  0  0  0  0  0  0  0  0  0
    0.3403  -13.9603   17.5834 C   0  0  0  0  0  0  0  0  0  0  0  0
   -0.1175  -14.9031   18.6767 C   0  0  0  0  0  0  0  0  0  0  0  0
    2.6896  -15.6659   16.9174 H   0  0  0  0  0  0  0  0  0  0  0  0
  -10.6341  -12.5807   15.9474 C   0  0  0  0  0  0  0  0  0  0  0  0
  -10.8353  -11.2715   15.9535 F   0  0  0  0  0  0  0  0  0  0  0  0
  -10.8333  -13.1138   14.7582 F   0  0  0  0  0  0  0  0  0  0  0  0
  -11.4846  -13.1025   16.8127 F   0  0  0  0  0  0  0  0  0  0  0  0
   -6.2049  -13.9664   14.5332 N   0  0  0  0  0  0  0  0  0  0  0  0
   -5.7442  -13.2892   13.9871 H   0  0  0  0  0  0  0  0  0  0  0  0
   -6.0322  -15.3830   14.2703 C   0  0  0  0  0  0  0  0  0  0  0  0
   -4.5283  -15.5707   14.2000 C   0  0  0  0  0  0  0  0  0  0  0  0
   -4.0119  -16.8016   13.7879 C   0  0  0  0  0  0  0  0  0  0  0  0
   -3.6609  -14.5210   14.6120 C   0  0  0  0  0  0  0  0  0  0  0  0
   -2.2707  -14.7090   14.5776 C   0  0  0  0  0  0  0  0  0  0  0  0
   -1.7460  -15.9354   14.1609 C   0  0  0  0  0  0  0  0  0  0  0  0
   -2.6241  -16.9839   13.7655 C   0  0  0  0  0  0  0  0  0  0  0  0
   -2.0503  -18.2257   13.3462 N   0  0  0  0  0  0  0  0  0  0  0  0
   -1.0058  -18.6380   13.9953 O   0  0  0  0  0  0  0  0  0  0  0  0
   -2.5564  -18.9216   12.3445 O   0  0  0  0  0  0  0  0  0  0  0  0
 19 18  1  0  0  0
 19 20  1  0  0  0
 18 17  1  0  0  0
 20 21  1  0  0  0
 17 16  1  0  0  0
 21 16  1  0  0  0
 21 11  1  0  0  0
 13 11  1  0  0  0
 13 14  2  0  0  0
 11 12  1  0  0  0
 14 15  1  0  0  0
 12 15  2  0  0  0
 15  6  1  0  0  0
  6  8  2  0  0  0
  6  7  1  0  0  0
  8  9  1  0  0  0
  7  2  2  0  0  0
  9  1  2  0  0  0
  2  1  1  0  0  0
  2  3  1  0  0  0
  1  5  1  0  0  0
 27  3  1  0  0  0
 27 29  1  0  0  0
  3  4  2  0  0  0
  5 10  2  0  0  0
 29 30  1  0  0  0
  4 10  1  0  0  0
 10 23  1  0  0  0
 25 23  1  0  0  0
 30 32  2  0  0  0
 30 31  1  0  0  0
 32 33  1  0  0  0
 23 24  1  0  0  0
 23 26  1  0  0  0
 31 35  2  0  0  0
 33 34  2  0  0  0
 35 34  1  0  0  0
 35 36  1  0  0  0
 36 38  2  0  0  0
 36 37  1  0  0  0
 18 22  1  0  0  0
 27 28  1  0  0  0
M  CHG 1  36   1
M  CHG 1  37  -1
M  END
> <minimizedAffinity>
-10.01839

$$$$
4GG7_0J8_A_1401


 38 42  0  0  0  0  0  0  0  0999 V2000
   -6.4592  -13.5211   17.9477 C   0  0  0  0  0  0  0  0  0  0  0  0
   -5.6923  -13.3026   16.7905 C   0  0  0  0  0  0  0  0  0  0  0  0
   -4.2711  -13.3427   16.8853 C   0  0  0  0  0  0  0  0  0  0  0  0
   -3.6950  -13.5919   18.0843 N   0  0  0  0  0  0  0  0  0  0  0  0
   -5.8159  -13.7549   19.1263 N   0  0  0  0  0  0  0  0  0  0  0  0
   -7.8074  -13.0468   15.6251 C   0  0  0  0  0  0  0  0  0  0  0  0
   -6.3851  -13.0590   15.5917 C   0  0  0  0  0  0  0  0  0  0  0  0
   -8.5003  -13.2612   16.8120 C   0  0  0  0  0  0  0  0  0  0  0  0
   -7.8210  -13.4970   17.9567 N   0  0  0  0  0  0  0  0  0  0  0  0
   -4.4727  -13.7754   19.1611 C   0  0  0  0  0  0  0  0  0  0  0  0
   -9.0027  -12.3568   12.2489 N   0  0  0  0  0  0  0  0  0  0  0  0
   -7.9962  -12.5607   13.1212 C   0  0  0  0  0  0  0  0  0  0  0  0
  -10.2198  -12.4401   12.9180 N   0  0  0  0  0  0  0  0  0  0  0  0
   -9.9627  -12.6913   14.2331 C   0  0  0  0  0  0  0  0  0  0  0  0
   -8.5708  -12.7530   14.3707 C   0  0  0  0  0  0  0  0  0  0  0  0
   -9.2937  -10.6991   10.4500 C   0  0  0  0  0  0  0  0  0  0  0  0
   -9.0720  -10.3850    8.9570 C   0  0  0  0  0  0  0  0  0  0  0  0
   -7.7116  -10.6970    8.5089 N   0  0  0  0  0  0  0  0  0  0  0  0
   -6.8046  -11.4143    9.4203 C   0  0  0  0  0  0  0  0  0  0  0  0
   -7.4147  -12.4216   10.3836 C   0  0  0  0  0  0  0  0  0  0  0  0
   -8.8368  -12.0995   10.7931 C   0  0  0  0  0  0  0  0  0  0  0  0
   -7.7978  -11.2646    7.6658 H   0  0  0  0  0  0  0  0  0  0  0  0
   -3.7817  -14.0579   20.4914 C   0  0  0  0  0  0  0  0  0  0  0  0
   -4.2362  -15.1787   21.0316 F   0  0  0  0  0  0  0  0  0  0  0  0
   -2.4915  -14.1154   20.2263 F   0  0  0  0  0  0  0  0  0  0  0  0
   -4.0101  -13.0928   21.3637 F   0  0  0  0  0  0  0  0  0  0  0  0
   -3.4030  -13.1579   15.7391 N   0  0  0  0  0  0  0  0  0  0  0  0
   -3.7725  -13.0816   14.8298 H   0  0  0  0  0  0  0  0  0  0  0  0
   -1.9726  -13.0889   15.9734 C   0  0  0  0  0  0  0  0  0  0  0  0
   -1.4860  -14.5074   15.7432 C   0  0  0  0  0  0  0  0  0  0  0  0
   -0.6255  -15.0940   16.6743 C   0  0  0  0  0  0  0  0  0  0  0  0
   -1.8554  -15.2020   14.5579 C   0  0  0  0  0  0  0  0  0  0  0  0
   -1.3768  -16.5016   14.3315 C   0  0  0  0  0  0  0  0  0  0  0  0
   -0.5204  -17.0979   15.2611 C   0  0  0  0  0  0  0  0  0  0  0  0
   -0.1452  -16.3872   16.4362 C   0  0  0  0  0  0  0  0  0  0  0  0
    0.7343  -17.0295   17.3642 N   0  0  0  0  0  0  0  0  0  0  0  0
    1.9912  -17.0736   17.0467 O   0  0  0  0  0  0  0  0  0  0  0  0
    0.2908  -17.5558   18.4912 O   0  0  0  0  0  0  0  0  0  0  0  0
 19 18  1  0  0  0
 19 20  1  0  0  0
 18 17  1  0  0  0
 20 21  1  0  0  0
 17 16  1  0  0  0
 21 16  1  0  0  0
 21 11  1  0  0  0
 13 11  1  0  0  0
 13 14  2  0  0  0
 11 12  1  0  0  0
 14 15  1  0  0  0
 12 15  2  0  0  0
 15  6  1  0  0  0
  6  8  2  0  0  0
  6  7  1  0  0  0
  8  9  1  0  0  0
  7  2  2  0  0  0
  9  1  2  0  0  0
  2  1  1  0  0  0
  2  3  1  0  0  0
  1  5  1  0  0  0
 27  3  1  0  0  0
 27 29  1  0  0  0
  3  4  2  0  0  0
  5 10  2  0  0  0
 29 30  1  0  0  0
  4 10  1  0  0  0
 10 23  1  0  0  0
 25 23  1  0  0  0
 30 32  2  0  0  0
 30 31  1  0  0  0
 32 33  1  0  0  0
 23 24  1  0  0  0
 23 26  1  0  0  0
 31 35  2  0  0  0
 33 34  2  0  0  0
 35 34  1  0  0  0
 35 36  1  0  0  0
 36 38  2  0  0  0
 36 37  1  0  0  0
 18 22  1  0  0  0
 27 28  1  0  0  0
M  CHG 1  36   1
M  CHG 1  37  -1
M  END
> <minimizedAffinity>
-9.80987

$$$$
4GG7_0J8_A_1401


 38 42  0  0  0  0  0  0  0  0999 V2000
   -1.0895  -15.9708   15.1940 C   0  0  0  0  0  0  0  0  0  0  0  0
   -2.3811  -15.4360   15.0495 C   0  0  0  0  0  0  0  0  0  0  0  0
   -2.7290  -14.2628   15.7795 C   0  0  0  0  0  0  0  0  0  0  0  0
   -1.8089  -13.6915   16.5911 N   0  0  0  0  0  0  0  0  0  0  0  0
   -0.2146  -15.3534   16.0372 N   0  0  0  0  0  0  0  0  0  0  0  0
   -2.7951  -17.2609   13.5018 C   0  0  0  0  0  0  0  0  0  0  0  0
   -3.2617  -16.0986   14.1768 C   0  0  0  0  0  0  0  0  0  0  0  0
   -1.5044  -17.7392   13.7026 C   0  0  0  0  0  0  0  0  0  0  0  0
   -0.6675  -17.0901   14.5427 N   0  0  0  0  0  0  0  0  0  0  0  0
   -0.5967  -14.2528   16.7070 C   0  0  0  0  0  0  0  0  0  0  0  0
   -5.5859  -18.7626   11.6964 N   0  0  0  0  0  0  0  0  0  0  0  0
   -5.1077  -18.0096   12.7062 C   0  0  0  0  0  0  0  0  0  0  0  0
   -4.5269  -19.2259   10.9219 N   0  0  0  0  0  0  0  0  0  0  0  0
   -3.3682  -18.7585   11.4677 C   0  0  0  0  0  0  0  0  0  0  0  0
   -3.7234  -18.0082   12.5950 C   0  0  0  0  0  0  0  0  0  0  0  0
   -7.2915  -20.5284   11.4925 C   0  0  0  0  0  0  0  0  0  0  0  0
   -8.7887  -20.8388   11.2945 C   0  0  0  0  0  0  0  0  0  0  0  0
   -9.6523  -20.0456   12.1741 N   0  0  0  0  0  0  0  0  0  0  0  0
   -9.0577  -18.9608   12.9724 C   0  0  0  0  0  0  0  0  0  0  0  0
   -7.8729  -18.2106   12.3823 C   0  0  0  0  0  0  0  0  0  0  0  0
   -7.0250  -19.0405   11.4410 C   0  0  0  0  0  0  0  0  0  0  0  0
  -10.3709  -19.6238   11.5857 H   0  0  0  0  0  0  0  0  0  0  0  0
    0.4109  -13.5735   17.6290 C   0  0  0  0  0  0  0  0  0  0  0  0
    1.1463  -12.6968   16.9617 F   0  0  0  0  0  0  0  0  0  0  0  0
   -0.2963  -13.0091   18.5879 F   0  0  0  0  0  0  0  0  0  0  0  0
    1.2458  -14.4513   18.1551 F   0  0  0  0  0  0  0  0  0  0  0  0
   -4.0269  -13.6265   15.6693 N   0  0  0  0  0  0  0  0  0  0  0  0
   -4.4130  -13.4103   14.7898 H   0  0  0  0  0  0  0  0  0  0  0  0
   -4.7395  -13.3180   16.8951 C   0  0  0  0  0  0  0  0  0  0  0  0
   -6.1978  -13.2700   16.4793 C   0  0  0  0  0  0  0  0  0  0  0  0
   -7.1891  -13.2635   17.4635 C   0  0  0  0  0  0  0  0  0  0  0  0
   -6.5448  -13.2963   15.0998 C   0  0  0  0  0  0  0  0  0  0  0  0
   -7.8952  -13.2856   14.7184 C   0  0  0  0  0  0  0  0  0  0  0  0
   -8.8929  -13.2730   15.6970 C   0  0  0  0  0  0  0  0  0  0  0  0
   -8.5339  -13.2624   17.0746 C   0  0  0  0  0  0  0  0  0  0  0  0
   -9.5828  -13.2510   18.0476 N   0  0  0  0  0  0  0  0  0  0  0  0
   -9.4336  -12.4560   19.0616 O   0  0  0  0  0  0  0  0  0  0  0  0
  -10.6534  -14.0141   17.9237 O   0  0  0  0  0  0  0  0  0  0  0  0
 19 18  1  0  0  0
 19 20  1  0  0  0
 18 17  1  0  0  0
 20 21  1  0  0  0
 17 16  1  0  0  0
 21 16  1  0  0  0
 21 11  1  0  0  0
 13 11  1  0  0  0
 13 14  2  0  0  0
 11 12  1  0  0  0
 14 15  1  0  0  0
 12 15  2  0  0  0
 15  6  1  0  0  0
  6  8  2  0  0  0
  6  7  1  0  0  0
  8  9  1  0  0  0
  7  2  2  0  0  0
  9  1  2  0  0  0
  2  1  1  0  0  0
  2  3  1  0  0  0
  1  5  1  0  0  0
 27  3  1  0  0  0
 27 29  1  0  0  0
  3  4  2  0  0  0
  5 10  2  0  0  0
 29 30  1  0  0  0
  4 10  1  0  0  0
 10 23  1  0  0  0
 25 23  1  0  0  0
 30 32  2  0  0  0
 30 31  1  0  0  0
 32 33  1  0  0  0
 23 24  1  0  0  0
 23 26  1  0  0  0
 31 35  2  0  0  0
 33 34  2  0  0  0
 35 34  1  0  0  0
 35 36  1  0  0  0
 36 38  2  0  0  0
 36 37  1  0  0  0
 18 22  1  0  0  0
 27 28  1  0  0  0
M  CHG 1  36   1
M  CHG 1  37  -1
M  END
> <minimizedAffinity>
-9.54631

$$$$
