3PYY_3YY_A_538


 27 30  0  0  0  0  0  0  0  0999 V2000
   14.8262    8.7270  -35.7137 C   0  0  0  0  0  0  0  0  0  0  0  0
   14.6366    7.6524  -34.8732 C   0  0  0  0  0  0  0  0  0  0  0  0
   15.9468    7.2333  -34.5168 C   0  0  0  0  0  0  0  0  0  0  0  0
   16.8798    7.9975  -35.0992 N   0  0  0  0  0  0  0  0  0  0  0  0
   16.1773    8.8839  -35.8132 N   0  0  0  0  0  0  0  0  0  0  0  0
   12.6843    6.2878  -35.5421 C   0  0  0  0  0  0  0  0  0  0  0  0
   11.2846    8.0091  -35.1319 C   0  0  0  0  0  0  0  0  0  0  0  0
   13.3419    7.0949  -34.4514 C   0  0  0  0  0  0  0  0  0  0  0  0
   11.5199    6.8996  -35.8918 N   0  0  0  0  0  0  0  0  0  0  0  0
   12.3764    8.1678  -34.3198 N   0  0  0  0  0  0  0  0  0  0  0  0
   13.1049    5.2348  -35.9899 O   0  0  0  0  0  0  0  0  0  0  0  0
   10.2907    8.7155  -35.1950 O   0  0  0  0  0  0  0  0  0  0  0  0
   10.9208    6.5811  -36.6052 H   0  0  0  0  0  0  0  0  0  0  0  0
   12.4931    8.9318  -33.7099 H   0  0  0  0  0  0  0  0  0  0  0  0
   15.7567    4.9593  -33.6093 C   0  0  0  0  0  0  0  0  0  0  0  0
   17.4791    6.4129  -32.8277 C   0  0  0  0  0  0  0  0  0  0  0  0
   16.2184    3.9770  -32.7602 C   0  0  0  0  0  0  0  0  0  0  0  0
   17.9379    5.4246  -31.9744 C   0  0  0  0  0  0  0  0  0  0  0  0
   16.3855    6.1813  -33.6445 C   0  0  0  0  0  0  0  0  0  0  0  0
   17.3047    4.2037  -31.9460 C   0  0  0  0  0  0  0  0  0  0  0  0
   17.7368    3.2227  -31.1116 F   0  0  0  0  0  0  0  0  0  0  0  0
   18.0856   11.8095  -37.9739 C   0  0  0  0  0  0  0  0  0  0  0  0
   18.7402   11.2074  -36.9237 C   0  0  0  0  0  0  0  0  0  0  0  0
   16.8013   11.4422  -38.3081 C   0  0  0  0  0  0  0  0  0  0  0  0
   18.1074   10.2265  -36.1939 C   0  0  0  0  0  0  0  0  0  0  0  0
   16.1592   10.4605  -37.5879 C   0  0  0  0  0  0  0  0  0  0  0  0
   16.8265    9.8784  -36.5403 C   0  0  0  0  0  0  0  0  0  0  0  0
 23 22  2  0  0  0
 22 24  1  0  0  0
 23 25  1  0  0  0
 24 26  2  0  0  0
 19 15  2  0  0  0
 15 17  1  0  0  0
 19 16  1  0  0  0
 16 18  2  0  0  0
 25 27  2  0  0  0
 27 26  1  0  0  0
 17 20  2  0  0  0
 18 20  1  0  0  0
  1  5  1  0  0  0
  1  2  2  0  0  0
  3 19  1  0  0  0
  8  2  1  0  0  0
  2  3  1  0  0  0
 27  5  1  0  0  0
 20 21  1  0  0  0
  4  3  2  0  0  0
  9  6  1  0  0  0
  6  8  1  0  0  0
  6 11  2  0  0  0
 12  7  2  0  0  0
  7  9  1  0  0  0
  7 10  1  0  0  0
 10  8  1  0  0  0
  5  4  1  0  0  0
  9 13  1  0  0  0
 10 14  1  0  0  0
M  END
> <minimizedAffinity>
-9.14508

$$$$
3PYY_3YY_A_538


 27 30  0  0  0  0  0  0  0  0999 V2000
   14.6999    7.3199  -34.1252 C   0  0  0  0  0  0  0  0  0  0  0  0
   14.6295    8.3904  -34.9890 C   0  0  0  0  0  0  0  0  0  0  0  0
   15.9741    8.6313  -35.3807 C   0  0  0  0  0  0  0  0  0  0  0  0
   16.8154    7.7682  -34.7967 N   0  0  0  0  0  0  0  0  0  0  0  0
   16.0220    6.9948  -34.0472 N   0  0  0  0  0  0  0  0  0  0  0  0
   12.5384    9.4695  -34.2251 C   0  0  0  0  0  0  0  0  0  0  0  0
   11.3003    8.0549  -35.4727 C   0  0  0  0  0  0  0  0  0  0  0  0
   13.4068    9.0982  -35.4004 C   0  0  0  0  0  0  0  0  0  0  0  0
   11.3559    8.8042  -34.3328 N   0  0  0  0  0  0  0  0  0  0  0  0
   12.5220    8.1736  -36.0809 N   0  0  0  0  0  0  0  0  0  0  0  0
   12.8328   10.2750  -33.3587 O   0  0  0  0  0  0  0  0  0  0  0  0
   10.3392    7.4013  -35.8469 O   0  0  0  0  0  0  0  0  0  0  0  0
   10.6299    8.8567  -33.6700 H   0  0  0  0  0  0  0  0  0  0  0  0
   12.7731    7.6818  -36.8959 H   0  0  0  0  0  0  0  0  0  0  0  0
   15.8041   10.0812  -37.3553 C   0  0  0  0  0  0  0  0  0  0  0  0
   17.8102   10.0576  -36.0648 C   0  0  0  0  0  0  0  0  0  0  0  0
   16.3710   11.0151  -38.1954 C   0  0  0  0  0  0  0  0  0  0  0  0
   18.3768   10.9935  -36.9124 C   0  0  0  0  0  0  0  0  0  0  0  0
   16.5232    9.5987  -36.2877 C   0  0  0  0  0  0  0  0  0  0  0  0
   17.6505   11.4732  -37.9776 C   0  0  0  0  0  0  0  0  0  0  0  0
   18.1909   12.3881  -38.8239 F   0  0  0  0  0  0  0  0  0  0  0  0
   17.6143    3.8961  -31.8719 C   0  0  0  0  0  0  0  0  0  0  0  0
   16.4416    3.7038  -32.5661 C   0  0  0  0  0  0  0  0  0  0  0  0
   18.2586    5.1126  -31.8994 C   0  0  0  0  0  0  0  0  0  0  0  0
   15.9008    4.7375  -33.2970 C   0  0  0  0  0  0  0  0  0  0  0  0
   17.7295    6.1529  -32.6290 C   0  0  0  0  0  0  0  0  0  0  0  0
   16.5559    5.9427  -33.3075 C   0  0  0  0  0  0  0  0  0  0  0  0
 23 22  2  0  0  0
 22 24  1  0  0  0
 23 25  1  0  0  0
 24 26  2  0  0  0
 19 15  2  0  0  0
 15 17  1  0  0  0
 19 16  1  0  0  0
 16 18  2  0  0  0
 25 27  2  0  0  0
 27 26  1  0  0  0
 17 20  2  0  0  0
 18 20  1  0  0  0
  1  5  1  0  0  0
  1  2  2  0  0  0
  3 19  1  0  0  0
  8  2  1  0  0  0
  2  3  1  0  0  0
 27  5  1  0  0  0
 20 21  1  0  0  0
  4  3  2  0  0  0
  9  6  1  0  0  0
  6  8  1  0  0  0
  6 11  2  0  0  0
 12  7  2  0  0  0
  7  9  1  0  0  0
  7 10  1  0  0  0
 10  8  1  0  0  0
  5  4  1  0  0  0
  9 13  1  0  0  0
 10 14  1  0  0  0
M  END
> <minimizedAffinity>
-8.54187

$$$$
3PYY_3YY_A_538


 27 30  0  0  0  0  0  0  0  0999 V2000
   13.0821    9.6665  -34.7427 C   0  0  0  0  0  0  0  0  0  0  0  0
   11.7638    9.9144  -35.0552 C   0  0  0  0  0  0  0  0  0  0  0  0
   11.2181    8.6403  -35.3686 C   0  0  0  0  0  0  0  0  0  0  0  0
   12.1384    7.6737  -35.2576 N   0  0  0  0  0  0  0  0  0  0  0  0
   13.2478    8.3201  -34.8827 N   0  0  0  0  0  0  0  0  0  0  0  0
   11.3436   12.0012  -36.3159 C   0  0  0  0  0  0  0  0  0  0  0  0
   12.2614   13.2356  -34.6654 C   0  0  0  0  0  0  0  0  0  0  0  0
   11.0987   11.2269  -35.0455 C   0  0  0  0  0  0  0  0  0  0  0  0
   12.0411   13.1288  -36.0085 N   0  0  0  0  0  0  0  0  0  0  0  0
   11.7625   12.0951  -34.0935 N   0  0  0  0  0  0  0  0  0  0  0  0
   10.9328   11.6898  -37.4207 O   0  0  0  0  0  0  0  0  0  0  0  0
   12.8136   14.1714  -34.1084 O   0  0  0  0  0  0  0  0  0  0  0  0
   12.3490   13.7867  -36.6731 H   0  0  0  0  0  0  0  0  0  0  0  0
   11.8462   11.8868  -33.1350 H   0  0  0  0  0  0  0  0  0  0  0  0
    9.1489    7.3729  -34.9908 C   0  0  0  0  0  0  0  0  0  0  0  0
    9.3304    8.8208  -36.8779 C   0  0  0  0  0  0  0  0  0  0  0  0
    7.8690    7.0447  -35.3822 C   0  0  0  0  0  0  0  0  0  0  0  0
    8.0457    8.4864  -37.2689 C   0  0  0  0  0  0  0  0  0  0  0  0
    9.8841    8.2615  -35.7389 C   0  0  0  0  0  0  0  0  0  0  0  0
    7.3153    7.5979  -36.5143 C   0  0  0  0  0  0  0  0  0  0  0  0
    6.0546    7.2531  -36.8845 F   0  0  0  0  0  0  0  0  0  0  0  0
   16.7282    6.2625  -34.1599 C   0  0  0  0  0  0  0  0  0  0  0  0
   15.6007    5.5726  -34.5428 C   0  0  0  0  0  0  0  0  0  0  0  0
   16.7028    7.6318  -34.0178 C   0  0  0  0  0  0  0  0  0  0  0  0
   14.4299    6.2546  -34.7862 C   0  0  0  0  0  0  0  0  0  0  0  0
   15.5390    8.3253  -34.2613 C   0  0  0  0  0  0  0  0  0  0  0  0
   14.4245    7.6179  -34.6344 C   0  0  0  0  0  0  0  0  0  0  0  0
 23 22  2  0  0  0
 22 24  1  0  0  0
 23 25  1  0  0  0
 24 26  2  0  0  0
 19 15  2  0  0  0
 15 17  1  0  0  0
 19 16  1  0  0  0
 16 18  2  0  0  0
 25 27  2  0  0  0
 27 26  1  0  0  0
 17 20  2  0  0  0
 18 20  1  0  0  0
  1  5  1  0  0  0
  1  2  2  0  0  0
  3 19  1  0  0  0
  8  2  1  0  0  0
  2  3  1  0  0  0
 27  5  1  0  0  0
 20 21  1  0  0  0
  4  3  2  0  0  0
  9  6  1  0  0  0
  6  8  1  0  0  0
  6 11  2  0  0  0
 12  7  2  0  0  0
  7  9  1  0  0  0
  7 10  1  0  0  0
 10  8  1  0  0  0
  5  4  1  0  0  0
  9 13  1  0  0  0
 10 14  1  0  0  0
M  END
> <minimizedAffinity>
-7.61008

$$$$
3PYY_3YY_A_538


 27 30  0  0  0  0  0  0  0  0999 V2000
   11.8373    7.8580  -35.4660 C   0  0  0  0  0  0  0  0  0  0  0  0
   11.0859    9.0072  -35.5734 C   0  0  0  0  0  0  0  0  0  0  0  0
   11.9756   10.0582  -35.2223 C   0  0  0  0  0  0  0  0  0  0  0  0
   13.1921    9.5875  -34.9183 N   0  0  0  0  0  0  0  0  0  0  0  0
   13.0780    8.2636  -35.0713 N   0  0  0  0  0  0  0  0  0  0  0  0
    8.7640    9.4019  -34.8155 C   0  0  0  0  0  0  0  0  0  0  0  0
    8.1303    7.3659  -35.5525 C   0  0  0  0  0  0  0  0  0  0  0  0
    9.6732    9.0893  -35.9770 C   0  0  0  0  0  0  0  0  0  0  0  0
    7.9267    8.3460  -34.6243 N   0  0  0  0  0  0  0  0  0  0  0  0
    9.1932    7.7652  -36.3189 N   0  0  0  0  0  0  0  0  0  0  0  0
    8.7510   10.4505  -34.1938 O   0  0  0  0  0  0  0  0  0  0  0  0
    7.4846    6.3340  -35.6492 O   0  0  0  0  0  0  0  0  0  0  0  0
    7.2565    8.2954  -33.9049 H   0  0  0  0  0  0  0  0  0  0  0  0
    9.5901    7.2100  -37.0285 H   0  0  0  0  0  0  0  0  0  0  0  0
   11.6516   12.2288  -36.3241 C   0  0  0  0  0  0  0  0  0  0  0  0
   11.6870   12.0961  -33.9426 C   0  0  0  0  0  0  0  0  0  0  0  0
   11.4498   13.5889  -36.2323 C   0  0  0  0  0  0  0  0  0  0  0  0
   11.4871   13.4626  -33.8548 C   0  0  0  0  0  0  0  0  0  0  0  0
   11.7720   11.4783  -35.1786 C   0  0  0  0  0  0  0  0  0  0  0  0
   11.3655   14.2069  -35.0053 C   0  0  0  0  0  0  0  0  0  0  0  0
   11.1742   15.5501  -34.9400 F   0  0  0  0  0  0  0  0  0  0  0  0
   16.3298    5.8249  -34.4818 C   0  0  0  0  0  0  0  0  0  0  0  0
   15.1716    5.2951  -35.0033 C   0  0  0  0  0  0  0  0  0  0  0  0
   16.4106    7.1605  -34.1573 C   0  0  0  0  0  0  0  0  0  0  0  0
   14.0769    6.1055  -35.2032 C   0  0  0  0  0  0  0  0  0  0  0  0
   15.3238    7.9816  -34.3554 C   0  0  0  0  0  0  0  0  0  0  0  0
   14.1766    7.4322  -34.8690 C   0  0  0  0  0  0  0  0  0  0  0  0
 23 22  2  0  0  0
 22 24  1  0  0  0
 23 25  1  0  0  0
 24 26  2  0  0  0
 19 15  2  0  0  0
 15 17  1  0  0  0
 19 16  1  0  0  0
 16 18  2  0  0  0
 25 27  2  0  0  0
 27 26  1  0  0  0
 17 20  2  0  0  0
 18 20  1  0  0  0
  1  5  1  0  0  0
  1  2  2  0  0  0
  3 19  1  0  0  0
  8  2  1  0  0  0
  2  3  1  0  0  0
 27  5  1  0  0  0
 20 21  1  0  0  0
  4  3  2  0  0  0
  9  6  1  0  0  0
  6  8  1  0  0  0
  6 11  2  0  0  0
 12  7  2  0  0  0
  7  9  1  0  0  0
  7 10  1  0  0  0
 10  8  1  0  0  0
  5  4  1  0  0  0
  9 13  1  0  0  0
 10 14  1  0  0  0
M  END
> <minimizedAffinity>
-7.51769

$$$$
3PYY_3YY_A_538


 27 30  0  0  0  0  0  0  0  0999 V2000
   13.5275   10.1452  -36.4966 C   0  0  0  0  0  0  0  0  0  0  0  0
   13.5208    9.2666  -35.4359 C   0  0  0  0  0  0  0  0  0  0  0  0
   14.8088    8.6665  -35.4520 C   0  0  0  0  0  0  0  0  0  0  0  0
   15.5573    9.1426  -36.4554 N   0  0  0  0  0  0  0  0  0  0  0  0
   14.7608   10.0268  -37.0663 N   0  0  0  0  0  0  0  0  0  0  0  0
   11.1040    8.7821  -35.2223 C   0  0  0  0  0  0  0  0  0  0  0  0
   10.7848   10.6727  -34.0332 C   0  0  0  0  0  0  0  0  0  0  0  0
   12.4056    9.0349  -34.5043 C   0  0  0  0  0  0  0  0  0  0  0  0
   10.2379    9.7862  -34.9156 N   0  0  0  0  0  0  0  0  0  0  0  0
   12.0793   10.2743  -33.8274 N   0  0  0  0  0  0  0  0  0  0  0  0
   10.8592    7.8090  -35.9146 O   0  0  0  0  0  0  0  0  0  0  0  0
   10.2131   11.6363  -33.5479 O   0  0  0  0  0  0  0  0  0  0  0  0
    9.3285    9.8636  -35.2848 H   0  0  0  0  0  0  0  0  0  0  0  0
   12.7215   10.7777  -33.2766 H   0  0  0  0  0  0  0  0  0  0  0  0
   14.8019    6.4803  -34.3334 C   0  0  0  0  0  0  0  0  0  0  0  0
   16.6033    8.0002  -33.9655 C   0  0  0  0  0  0  0  0  0  0  0  0
   15.4085    5.5770  -33.4877 C   0  0  0  0  0  0  0  0  0  0  0  0
   17.2078    7.0914  -33.1147 C   0  0  0  0  0  0  0  0  0  0  0  0
   15.3975    7.6958  -34.5738 C   0  0  0  0  0  0  0  0  0  0  0  0
   16.6068    5.8763  -32.8804 C   0  0  0  0  0  0  0  0  0  0  0  0
   17.1818    4.9731  -32.0445 F   0  0  0  0  0  0  0  0  0  0  0  0
   16.1099   12.1784  -40.2942 C   0  0  0  0  0  0  0  0  0  0  0  0
   16.9936   11.4001  -39.5820 C   0  0  0  0  0  0  0  0  0  0  0  0
   14.7814   12.2427  -39.9381 C   0  0  0  0  0  0  0  0  0  0  0  0
   16.5497   10.6765  -38.4982 C   0  0  0  0  0  0  0  0  0  0  0  0
   14.3249   11.5213  -38.8584 C   0  0  0  0  0  0  0  0  0  0  0  0
   15.2235   10.7580  -38.1573 C   0  0  0  0  0  0  0  0  0  0  0  0
 23 22  2  0  0  0
 22 24  1  0  0  0
 23 25  1  0  0  0
 24 26  2  0  0  0
 19 15  2  0  0  0
 15 17  1  0  0  0
 19 16  1  0  0  0
 16 18  2  0  0  0
 25 27  2  0  0  0
 27 26  1  0  0  0
 17 20  2  0  0  0
 18 20  1  0  0  0
  1  5  1  0  0  0
  1  2  2  0  0  0
  3 19  1  0  0  0
  8  2  1  0  0  0
  2  3  1  0  0  0
 27  5  1  0  0  0
 20 21  1  0  0  0
  4  3  2  0  0  0
  9  6  1  0  0  0
  6  8  1  0  0  0
  6 11  2  0  0  0
 12  7  2  0  0  0
  7  9  1  0  0  0
  7 10  1  0  0  0
 10  8  1  0  0  0
  5  4  1  0  0  0
  9 13  1  0  0  0
 10 14  1  0  0  0
M  END
> <minimizedAffinity>
-7.49009

$$$$
3PYY_3YY_A_538


 27 30  0  0  0  0  0  0  0  0999 V2000
   14.2661    9.4764  -36.3637 C   0  0  0  0  0  0  0  0  0  0  0  0
   13.2497   10.4057  -36.3826 C   0  0  0  0  0  0  0  0  0  0  0  0
   12.5586   10.2144  -35.1558 C   0  0  0  0  0  0  0  0  0  0  0  0
   13.1115    9.2331  -34.4312 N   0  0  0  0  0  0  0  0  0  0  0  0
   14.1329    8.8075  -35.1828 N   0  0  0  0  0  0  0  0  0  0  0  0
   11.9561   10.8666  -38.4406 C   0  0  0  0  0  0  0  0  0  0  0  0
   13.8558   11.1497  -39.6244 C   0  0  0  0  0  0  0  0  0  0  0  0
   12.9769   11.3760  -37.4547 C   0  0  0  0  0  0  0  0  0  0  0  0
   12.5536   10.7408  -39.6570 N   0  0  0  0  0  0  0  0  0  0  0  0
   14.1340   11.4716  -38.3223 N   0  0  0  0  0  0  0  0  0  0  0  0
   10.7806   10.6589  -38.1930 O   0  0  0  0  0  0  0  0  0  0  0  0
   14.6102   11.1951  -40.5834 O   0  0  0  0  0  0  0  0  0  0  0  0
   12.1022   10.3972  -40.4616 H   0  0  0  0  0  0  0  0  0  0  0  0
   15.0276   11.7402  -38.0082 H   0  0  0  0  0  0  0  0  0  0  0  0
   10.1562   10.3970  -34.6805 C   0  0  0  0  0  0  0  0  0  0  0  0
   11.6455   12.1180  -33.9655 C   0  0  0  0  0  0  0  0  0  0  0  0
    9.1047   11.0953  -34.1275 C   0  0  0  0  0  0  0  0  0  0  0  0
   10.5863   12.8173  -33.4139 C   0  0  0  0  0  0  0  0  0  0  0  0
   11.4303   10.9075  -34.6020 C   0  0  0  0  0  0  0  0  0  0  0  0
    9.3145   12.2994  -33.4946 C   0  0  0  0  0  0  0  0  0  0  0  0
    8.2611   12.9733  -32.9640 F   0  0  0  0  0  0  0  0  0  0  0  0
   16.5936    5.8111  -33.8280 C   0  0  0  0  0  0  0  0  0  0  0  0
   16.9189    7.1232  -33.5699 C   0  0  0  0  0  0  0  0  0  0  0  0
   15.4545    5.4925  -34.5327 C   0  0  0  0  0  0  0  0  0  0  0  0
   16.0999    8.1335  -34.0212 C   0  0  0  0  0  0  0  0  0  0  0  0
   14.6260    6.4937  -34.9865 C   0  0  0  0  0  0  0  0  0  0  0  0
   14.9724    7.7950  -34.7253 C   0  0  0  0  0  0  0  0  0  0  0  0
 23 22  2  0  0  0
 22 24  1  0  0  0
 23 25  1  0  0  0
 24 26  2  0  0  0
 19 15  2  0  0  0
 15 17  1  0  0  0
 19 16  1  0  0  0
 16 18  2  0  0  0
 25 27  2  0  0  0
 27 26  1  0  0  0
 17 20  2  0  0  0
 18 20  1  0  0  0
  1  5  1  0  0  0
  1  2  2  0  0  0
  3 19  1  0  0  0
  8  2  1  0  0  0
  2  3  1  0  0  0
 27  5  1  0  0  0
 20 21  1  0  0  0
  4  3  2  0  0  0
  9  6  1  0  0  0
  6  8  1  0  0  0
  6 11  2  0  0  0
 12  7  2  0  0  0
  7  9  1  0  0  0
  7 10  1  0  0  0
 10  8  1  0  0  0
  5  4  1  0  0  0
  9 13  1  0  0  0
 10 14  1  0  0  0
M  END
> <minimizedAffinity>
-7.41631

$$$$
3PYY_3YY_A_538


 27 30  0  0  0  0  0  0  0  0999 V2000
   10.2063    9.6120  -35.4043 C   0  0  0  0  0  0  0  0  0  0  0  0
   11.5738    9.6384  -35.2428 C   0  0  0  0  0  0  0  0  0  0  0  0
   11.9575    8.2725  -35.1629 C   0  0  0  0  0  0  0  0  0  0  0  0
   10.8977    7.4602  -35.2671 N   0  0  0  0  0  0  0  0  0  0  0  0
    9.8605    8.2928  -35.4088 N   0  0  0  0  0  0  0  0  0  0  0  0
   11.8455   11.8983  -34.2731 C   0  0  0  0  0  0  0  0  0  0  0  0
   11.8931   12.8236  -36.3303 C   0  0  0  0  0  0  0  0  0  0  0  0
   12.4202   10.8405  -35.1810 C   0  0  0  0  0  0  0  0  0  0  0  0
   11.5460   12.9952  -35.0211 N   0  0  0  0  0  0  0  0  0  0  0  0
   12.3556   11.5395  -36.4490 N   0  0  0  0  0  0  0  0  0  0  0  0
   11.7253   11.7990  -33.0640 O   0  0  0  0  0  0  0  0  0  0  0  0
   11.7870   13.6643  -37.2094 O   0  0  0  0  0  0  0  0  0  0  0  0
   11.1301   13.8122  -34.6622 H   0  0  0  0  0  0  0  0  0  0  0  0
   12.6170   11.1336  -37.3070 H   0  0  0  0  0  0  0  0  0  0  0  0
   14.3554    8.4079  -34.6507 C   0  0  0  0  0  0  0  0  0  0  0  0
   13.3852    6.3165  -35.2633 C   0  0  0  0  0  0  0  0  0  0  0  0
   15.5793    7.7878  -34.5223 C   0  0  0  0  0  0  0  0  0  0  0  0
   14.6167    5.6981  -35.1360 C   0  0  0  0  0  0  0  0  0  0  0  0
   13.2544    7.6737  -35.0230 C   0  0  0  0  0  0  0  0  0  0  0  0
   15.7136    6.4389  -34.7612 C   0  0  0  0  0  0  0  0  0  0  0  0
   16.9318    5.8512  -34.6359 F   0  0  0  0  0  0  0  0  0  0  0  0
    6.0672    6.8010  -35.9137 C   0  0  0  0  0  0  0  0  0  0  0  0
    6.5629    7.7115  -36.8188 C   0  0  0  0  0  0  0  0  0  0  0  0
    6.8276    6.3848  -34.8439 C   0  0  0  0  0  0  0  0  0  0  0  0
    7.8330    8.2170  -36.6563 C   0  0  0  0  0  0  0  0  0  0  0  0
    8.1001    6.8806  -34.6724 C   0  0  0  0  0  0  0  0  0  0  0  0
    8.5722    7.7930  -35.5815 C   0  0  0  0  0  0  0  0  0  0  0  0
 23 22  2  0  0  0
 22 24  1  0  0  0
 23 25  1  0  0  0
 24 26  2  0  0  0
 19 15  2  0  0  0
 15 17  1  0  0  0
 19 16  1  0  0  0
 16 18  2  0  0  0
 25 27  2  0  0  0
 27 26  1  0  0  0
 17 20  2  0  0  0
 18 20  1  0  0  0
  1  5  1  0  0  0
  1  2  2  0  0  0
  3 19  1  0  0  0
  8  2  1  0  0  0
  2  3  1  0  0  0
 27  5  1  0  0  0
 20 21  1  0  0  0
  4  3  2  0  0  0
  9  6  1  0  0  0
  6  8  1  0  0  0
  6 11  2  0  0  0
 12  7  2  0  0  0
  7  9  1  0  0  0
  7 10  1  0  0  0
 10  8  1  0  0  0
  5  4  1  0  0  0
  9 13  1  0  0  0
 10 14  1  0  0  0
M  END
> <minimizedAffinity>
-7.41530

$$$$
3PYY_3YY_A_538


 27 30  0  0  0  0  0  0  0  0999 V2000
   13.2728    9.7489  -35.2748 C   0  0  0  0  0  0  0  0  0  0  0  0
   11.9623   10.0409  -35.5822 C   0  0  0  0  0  0  0  0  0  0  0  0
   11.3362    8.7759  -35.7464 C   0  0  0  0  0  0  0  0  0  0  0  0
   12.2029    7.7730  -35.5542 N   0  0  0  0  0  0  0  0  0  0  0  0
   13.3575    8.3878  -35.2750 N   0  0  0  0  0  0  0  0  0  0  0  0
   12.0264   12.2043  -36.7808 C   0  0  0  0  0  0  0  0  0  0  0  0
   12.4317   13.3093  -34.8559 C   0  0  0  0  0  0  0  0  0  0  0  0
   11.3735   11.3846  -35.6967 C   0  0  0  0  0  0  0  0  0  0  0  0
   12.6340   13.2780  -36.2057 N   0  0  0  0  0  0  0  0  0  0  0  0
   11.7404   12.1708  -34.5357 N   0  0  0  0  0  0  0  0  0  0  0  0
   11.9669   11.9675  -37.9752 O   0  0  0  0  0  0  0  0  0  0  0  0
   12.8171   14.1875  -34.1001 O   0  0  0  0  0  0  0  0  0  0  0  0
   13.1553   13.9495  -36.7022 H   0  0  0  0  0  0  0  0  0  0  0  0
   11.5161   11.9132  -33.6124 H   0  0  0  0  0  0  0  0  0  0  0  0
    9.3353    8.9242  -37.1624 C   0  0  0  0  0  0  0  0  0  0  0  0
    9.2949    7.5988  -35.1793 C   0  0  0  0  0  0  0  0  0  0  0  0
    8.0272    8.5689  -37.4108 C   0  0  0  0  0  0  0  0  0  0  0  0
    7.9804    7.2467  -35.4311 C   0  0  0  0  0  0  0  0  0  0  0  0
    9.9728    8.4407  -36.0444 C   0  0  0  0  0  0  0  0  0  0  0  0
    7.3496    7.7328  -36.5528 C   0  0  0  0  0  0  0  0  0  0  0  0
    6.0582    7.4029  -36.8145 F   0  0  0  0  0  0  0  0  0  0  0  0
   16.7136    6.1901  -34.3942 C   0  0  0  0  0  0  0  0  0  0  0  0
   16.7921    7.5637  -34.4238 C   0  0  0  0  0  0  0  0  0  0  0  0
   15.5249    5.5460  -34.6549 C   0  0  0  0  0  0  0  0  0  0  0  0
   15.6721    8.3077  -34.7190 C   0  0  0  0  0  0  0  0  0  0  0  0
   14.3974    6.2789  -34.9482 C   0  0  0  0  0  0  0  0  0  0  0  0
   14.4989    7.6466  -34.9802 C   0  0  0  0  0  0  0  0  0  0  0  0
 23 22  2  0  0  0
 22 24  1  0  0  0
 23 25  1  0  0  0
 24 26  2  0  0  0
 19 15  2  0  0  0
 15 17  1  0  0  0
 19 16  1  0  0  0
 16 18  2  0  0  0
 25 27  2  0  0  0
 27 26  1  0  0  0
 17 20  2  0  0  0
 18 20  1  0  0  0
  1  5  1  0  0  0
  1  2  2  0  0  0
  3 19  1  0  0  0
  8  2  1  0  0  0
  2  3  1  0  0  0
 27  5  1  0  0  0
 20 21  1  0  0  0
  4  3  2  0  0  0
  9  6  1  0  0  0
  6  8  1  0  0  0
  6 11  2  0  0  0
 12  7  2  0  0  0
  7  9  1  0  0  0
  7 10  1  0  0  0
 10  8  1  0  0  0
  5  4  1  0  0  0
  9 13  1  0  0  0
 10 14  1  0  0  0
M  END
> <minimizedAffinity>
-7.28801

$$$$
3PYY_3YY_A_538


 27 30  0  0  0  0  0  0  0  0999 V2000
    8.7638    9.7775  -35.0435 C   0  0  0  0  0  0  0  0  0  0  0  0
    9.9920   10.3894  -35.1622 C   0  0  0  0  0  0  0  0  0  0  0  0
   10.8801    9.3508  -35.5520 C   0  0  0  0  0  0  0  0  0  0  0  0
   10.2420    8.1786  -35.6644 N   0  0  0  0  0  0  0  0  0  0  0  0
    8.9737    8.4655  -35.3509 N   0  0  0  0  0  0  0  0  0  0  0  0
   10.9375   12.0598  -33.6012 C   0  0  0  0  0  0  0  0  0  0  0  0
    8.9719   13.1646  -33.5229 C   0  0  0  0  0  0  0  0  0  0  0  0
   10.2803   11.8145  -34.9359 C   0  0  0  0  0  0  0  0  0  0  0  0
   10.1045   12.8227  -32.8418 N   0  0  0  0  0  0  0  0  0  0  0  0
    9.0362   12.5306  -34.7356 N   0  0  0  0  0  0  0  0  0  0  0  0
   12.0524   11.6814  -33.2851 O   0  0  0  0  0  0  0  0  0  0  0  0
    8.0809   13.8861  -33.1028 O   0  0  0  0  0  0  0  0  0  0  0  0
   10.2954   13.0945  -31.9150 H   0  0  0  0  0  0  0  0  0  0  0  0
    8.3122   12.5585  -35.4021 H   0  0  0  0  0  0  0  0  0  0  0  0
   13.1701    8.5065  -35.2801 C   0  0  0  0  0  0  0  0  0  0  0  0
   12.7413   10.3309  -36.7559 C   0  0  0  0  0  0  0  0  0  0  0  0
   14.5073    8.5741  -35.6060 C   0  0  0  0  0  0  0  0  0  0  0  0
   14.0855   10.3972  -37.0785 C   0  0  0  0  0  0  0  0  0  0  0  0
   12.2829    9.3862  -35.8537 C   0  0  0  0  0  0  0  0  0  0  0  0
   14.9670    9.5124  -36.5020 C   0  0  0  0  0  0  0  0  0  0  0  0
   16.2909    9.5649  -36.8016 F   0  0  0  0  0  0  0  0  0  0  0  0
    6.0992    5.5342  -35.4673 C   0  0  0  0  0  0  0  0  0  0  0  0
    6.2207    6.4059  -36.5253 C   0  0  0  0  0  0  0  0  0  0  0  0
    6.9294    5.6330  -34.3733 C   0  0  0  0  0  0  0  0  0  0  0  0
    7.1810    7.3918  -36.4938 C   0  0  0  0  0  0  0  0  0  0  0  0
    7.8955    6.6125  -34.3315 C   0  0  0  0  0  0  0  0  0  0  0  0
    7.9948    7.4760  -35.3927 C   0  0  0  0  0  0  0  0  0  0  0  0
 23 22  2  0  0  0
 22 24  1  0  0  0
 23 25  1  0  0  0
 24 26  2  0  0  0
 19 15  2  0  0  0
 15 17  1  0  0  0
 19 16  1  0  0  0
 16 18  2  0  0  0
 25 27  2  0  0  0
 27 26  1  0  0  0
 17 20  2  0  0  0
 18 20  1  0  0  0
  1  5  1  0  0  0
  1  2  2  0  0  0
  3 19  1  0  0  0
  8  2  1  0  0  0
  2  3  1  0  0  0
 27  5  1  0  0  0
 20 21  1  0  0  0
  4  3  2  0  0  0
  9  6  1  0  0  0
  6  8  1  0  0  0
  6 11  2  0  0  0
 12  7  2  0  0  0
  7  9  1  0  0  0
  7 10  1  0  0  0
 10  8  1  0  0  0
  5  4  1  0  0  0
  9 13  1  0  0  0
 10 14  1  0  0  0
M  END
> <minimizedAffinity>
-7.22756

$$$$
3PYY_3YY_A_538


 27 30  0  0  0  0  0  0  0  0999 V2000
   13.1667   10.4907  -36.3176 C   0  0  0  0  0  0  0  0  0  0  0  0
   14.2716    9.6738  -36.4113 C   0  0  0  0  0  0  0  0  0  0  0  0
   14.2679    8.9169  -35.2086 C   0  0  0  0  0  0  0  0  0  0  0  0
   13.2314    9.2464  -34.4270 N   0  0  0  0  0  0  0  0  0  0  0  0
   12.5896   10.1951  -35.1179 N   0  0  0  0  0  0  0  0  0  0  0  0
   16.4491   10.4576  -37.2862 C   0  0  0  0  0  0  0  0  0  0  0  0
   15.4468   11.3664  -39.0916 C   0  0  0  0  0  0  0  0  0  0  0  0
   15.2210    9.6187  -37.5342 C   0  0  0  0  0  0  0  0  0  0  0  0
   16.4864   11.4553  -38.2112 N   0  0  0  0  0  0  0  0  0  0  0  0
   14.6632   10.3247  -38.6704 N   0  0  0  0  0  0  0  0  0  0  0  0
   17.2915   10.2377  -36.4328 O   0  0  0  0  0  0  0  0  0  0  0  0
   15.2653   12.0975  -40.0526 O   0  0  0  0  0  0  0  0  0  0  0  0
   17.1781   12.1552  -38.2416 H   0  0  0  0  0  0  0  0  0  0  0  0
   13.8093   10.0808  -39.0955 H   0  0  0  0  0  0  0  0  0  0  0  0
   14.9707    6.5666  -35.0973 C   0  0  0  0  0  0  0  0  0  0  0  0
   16.2262    8.2402  -33.9512 C   0  0  0  0  0  0  0  0  0  0  0  0
   15.8526    5.6110  -34.6410 C   0  0  0  0  0  0  0  0  0  0  0  0
   17.1079    7.2770  -33.4928 C   0  0  0  0  0  0  0  0  0  0  0  0
   15.1546    7.8846  -34.7524 C   0  0  0  0  0  0  0  0  0  0  0  0
   16.9187    5.9604  -33.8436 C   0  0  0  0  0  0  0  0  0  0  0  0
   17.7702    4.9998  -33.3994 F   0  0  0  0  0  0  0  0  0  0  0  0
    9.1292   11.8628  -33.6642 C   0  0  0  0  0  0  0  0  0  0  0  0
   10.3245   12.5218  -33.4882 C   0  0  0  0  0  0  0  0  0  0  0  0
    9.0806   10.6540  -34.3215 C   0  0  0  0  0  0  0  0  0  0  0  0
   11.4890   11.9693  -33.9717 C   0  0  0  0  0  0  0  0  0  0  0  0
   10.2377   10.0928  -34.8122 C   0  0  0  0  0  0  0  0  0  0  0  0
   11.4195   10.7621  -34.6195 C   0  0  0  0  0  0  0  0  0  0  0  0
 23 22  2  0  0  0
 22 24  1  0  0  0
 23 25  1  0  0  0
 24 26  2  0  0  0
 19 15  2  0  0  0
 15 17  1  0  0  0
 19 16  1  0  0  0
 16 18  2  0  0  0
 25 27  2  0  0  0
 27 26  1  0  0  0
 17 20  2  0  0  0
 18 20  1  0  0  0
  1  5  1  0  0  0
  1  2  2  0  0  0
  3 19  1  0  0  0
  8  2  1  0  0  0
  2  3  1  0  0  0
 27  5  1  0  0  0
 20 21  1  0  0  0
  4  3  2  0  0  0
  9  6  1  0  0  0
  6  8  1  0  0  0
  6 11  2  0  0  0
 12  7  2  0  0  0
  7  9  1  0  0  0
  7 10  1  0  0  0
 10  8  1  0  0  0
  5  4  1  0  0  0
  9 13  1  0  0  0
 10 14  1  0  0  0
M  END
> <minimizedAffinity>
-6.99198

$$$$
