5NXI_9DE_A_302


 24 25  0  0  0  0  0  0  0  0999 V2000
   -3.8185    4.5602   14.8050 C   0  0  0  0  0  0  0  0  0  0  0  0
   -4.4496    3.8392   15.7962 C   0  0  0  0  0  0  0  0  0  0  0  0
   -5.7784    4.0701   16.1516 C   0  0  0  0  0  0  0  0  0  0  0  0
   -6.5004    5.0502   15.4495 C   0  0  0  0  0  0  0  0  0  0  0  0
   -5.8687    5.8030   14.4444 C   0  0  0  0  0  0  0  0  0  0  0  0
   -4.4975    5.5584   14.0956 C   0  0  0  0  0  0  0  0  0  0  0  0
   -6.4800    3.0669   17.3863 S   0  0  0  0  0  0  0  0  0  0  0  0
   -6.3335    3.8242   18.6755 O   0  0  0  0  0  0  0  0  0  0  0  0
   -7.8926    2.8213   17.0187 O   0  0  0  0  0  0  0  0  0  0  0  0
   -5.6330    1.6791   17.4708 N   0  0  0  0  0  0  0  0  0  0  0  0
   -5.7331    1.1658   16.5951 H   0  0  0  0  0  0  0  0  0  0  0  0
   -5.9871    1.1109   18.2403 H   0  0  0  0  0  0  0  0  0  0  0  0
   -3.7599    6.2431   13.1570 N   0  0  0  0  0  0  0  0  0  0  0  0
   -3.1661    6.9702   13.4536 H   0  0  0  0  0  0  0  0  0  0  0  0
   -3.8423    5.8784   11.5363 S   0  0  0  0  0  0  0  0  0  0  0  0
   -5.2518    6.1391   10.9419 O   0  0  0  0  0  0  0  0  0  0  0  0
   -2.8368    6.7336   10.7408 O   0  0  0  0  0  0  0  0  0  0  0  0
   -3.6608    4.1888   11.4264 C   0  0  0  0  0  0  0  0  0  0  0  0
   -4.8093    3.4000   11.4509 C   0  0  0  0  0  0  0  0  0  0  0  0
   -4.6500    2.0305   11.3959 C   0  0  0  0  0  0  0  0  0  0  0  0
   -3.3744    1.4963   11.3362 C   0  0  0  0  0  0  0  0  0  0  0  0
   -3.2244   -0.3054   11.2884 Br  0  0  0  0  0  0  0  0  0  0  0  0
   -2.2294    2.2763   11.3206 C   0  0  0  0  0  0  0  0  0  0  0  0
   -2.3865    3.6479   11.3778 C   0  0  0  0  0  0  0  0  0  0  0  0
 23 24  2  0  0  0
 23 21  1  0  0  0
 24 18  1  0  0  0
 17 15  2  0  0  0
 22 21  1  0  0  0
 21 20  2  0  0  0
 18 15  1  0  0  0
 18 19  2  0  0  0
 15 13  1  0  0  0
 15 16  2  0  0  0
 13  6  1  0  0  0
 20 19  1  0  0  0
  6  1  2  0  0  0
  6  5  1  0  0  0
  1  2  1  0  0  0
  5  4  2  0  0  0
  2  3  2  0  0  0
  4  3  1  0  0  0
  3  7  1  0  0  0
 10  7  1  0  0  0
  9  7  2  0  0  0
  7  8  2  0  0  0
 10 11  1  0  0  0
 10 12  1  0  0  0
 13 14  1  0  0  0
M  END
> <minimizedAffinity>
-8.48790

$$$$
5NXI_9DE_A_302


 24 25  0  0  0  0  0  0  0  0999 V2000
   -3.8874    5.4917   15.1139 C   0  0  0  0  0  0  0  0  0  0  0  0
   -4.3253    4.3898   15.8171 C   0  0  0  0  0  0  0  0  0  0  0  0
   -5.6552    4.2394   16.2100 C   0  0  0  0  0  0  0  0  0  0  0  0
   -6.5793    5.2333   15.8455 C   0  0  0  0  0  0  0  0  0  0  0  0
   -6.1473    6.3693   15.1391 C   0  0  0  0  0  0  0  0  0  0  0  0
   -4.7730    6.5130   14.7486 C   0  0  0  0  0  0  0  0  0  0  0  0
   -6.0982    2.7852   17.0539 S   0  0  0  0  0  0  0  0  0  0  0  0
   -5.6331    2.9644   18.4712 O   0  0  0  0  0  0  0  0  0  0  0  0
   -7.5660    2.6297   16.9437 O   0  0  0  0  0  0  0  0  0  0  0  0
   -5.3104    1.5317   16.3767 N   0  0  0  0  0  0  0  0  0  0  0  0
   -5.6269    1.4109   15.4146 H   0  0  0  0  0  0  0  0  0  0  0  0
   -5.5033    0.6821   16.9073 H   0  0  0  0  0  0  0  0  0  0  0  0
   -4.2214    7.5849   14.0851 N   0  0  0  0  0  0  0  0  0  0  0  0
   -3.8454    8.3290   14.6089 H   0  0  0  0  0  0  0  0  0  0  0  0
   -4.1710    7.6604   12.4243 S   0  0  0  0  0  0  0  0  0  0  0  0
   -5.5846    7.7701   11.7937 O   0  0  0  0  0  0  0  0  0  0  0  0
   -3.3608    8.8889   11.9661 O   0  0  0  0  0  0  0  0  0  0  0  0
   -3.6101    6.1395   11.9029 C   0  0  0  0  0  0  0  0  0  0  0  0
   -4.5481    5.2054   11.4676 C   0  0  0  0  0  0  0  0  0  0  0  0
   -4.0870    3.9641   11.0796 C   0  0  0  0  0  0  0  0  0  0  0  0
   -2.7322    3.6892   11.1511 C   0  0  0  0  0  0  0  0  0  0  0  0
   -2.1868    2.0390   10.6508 Br  0  0  0  0  0  0  0  0  0  0  0  0
   -1.7971    4.6118   11.5915 C   0  0  0  0  0  0  0  0  0  0  0  0
   -2.2568    5.8548   11.9826 C   0  0  0  0  0  0  0  0  0  0  0  0
 23 24  2  0  0  0
 23 21  1  0  0  0
 24 18  1  0  0  0
 17 15  2  0  0  0
 22 21  1  0  0  0
 21 20  2  0  0  0
 18 15  1  0  0  0
 18 19  2  0  0  0
 15 13  1  0  0  0
 15 16  2  0  0  0
 13  6  1  0  0  0
 20 19  1  0  0  0
  6  1  2  0  0  0
  6  5  1  0  0  0
  1  2  1  0  0  0
  5  4  2  0  0  0
  2  3  2  0  0  0
  4  3  1  0  0  0
  3  7  1  0  0  0
 10  7  1  0  0  0
  9  7  2  0  0  0
  7  8  2  0  0  0
 10 11  1  0  0  0
 10 12  1  0  0  0
 13 14  1  0  0  0
M  END
> <minimizedAffinity>
-7.60005

$$$$
5NXI_9DE_A_302


 24 25  0  0  0  0  0  0  0  0999 V2000
   -6.0104    6.3713   14.9020 C   0  0  0  0  0  0  0  0  0  0  0  0
   -6.4647    5.3393   15.6953 C   0  0  0  0  0  0  0  0  0  0  0  0
   -5.6313    4.3029   16.1156 C   0  0  0  0  0  0  0  0  0  0  0  0
   -4.2776    4.3357   15.7400 C   0  0  0  0  0  0  0  0  0  0  0  0
   -3.8007    5.3741   14.9212 C   0  0  0  0  0  0  0  0  0  0  0  0
   -4.6733    6.4298   14.4904 C   0  0  0  0  0  0  0  0  0  0  0  0
   -6.3068    3.0802   17.1510 S   0  0  0  0  0  0  0  0  0  0  0  0
   -6.1626    3.5934   18.5556 O   0  0  0  0  0  0  0  0  0  0  0  0
   -7.7179    2.8807   16.7515 O   0  0  0  0  0  0  0  0  0  0  0  0
   -5.4365    1.7151   16.9781 N   0  0  0  0  0  0  0  0  0  0  0  0
   -5.5350    1.3675   16.0243 H   0  0  0  0  0  0  0  0  0  0  0  0
   -5.7752    1.0107   17.6334 H   0  0  0  0  0  0  0  0  0  0  0  0
   -4.3381    7.4804   13.6673 N   0  0  0  0  0  0  0  0  0  0  0  0
   -4.0754    8.3389   14.0712 H   0  0  0  0  0  0  0  0  0  0  0  0
   -4.3639    7.3425   12.0099 S   0  0  0  0  0  0  0  0  0  0  0  0
   -2.9388    7.2698   11.3999 O   0  0  0  0  0  0  0  0  0  0  0  0
   -5.1159    6.0650   11.5881 O   0  0  0  0  0  0  0  0  0  0  0  0
   -4.9811    8.8184   11.4264 C   0  0  0  0  0  0  0  0  0  0  0  0
   -4.0761    9.8196   11.0795 C   0  0  0  0  0  0  0  0  0  0  0  0
   -4.5869   11.0238   10.6402 C   0  0  0  0  0  0  0  0  0  0  0  0
   -5.9587   11.1979   10.5766 C   0  0  0  0  0  0  0  0  0  0  0  0
   -6.5721   12.8038   10.0148 Br  0  0  0  0  0  0  0  0  0  0  0  0
   -6.8622   10.2083   10.9289 C   0  0  0  0  0  0  0  0  0  0  0  0
   -6.3530    9.0023   11.3711 C   0  0  0  0  0  0  0  0  0  0  0  0
 23 24  2  0  0  0
 23 21  1  0  0  0
 24 18  1  0  0  0
 17 15  2  0  0  0
 22 21  1  0  0  0
 21 20  2  0  0  0
 18 15  1  0  0  0
 18 19  2  0  0  0
 15 13  1  0  0  0
 15 16  2  0  0  0
 13  6  1  0  0  0
 20 19  1  0  0  0
  6  1  2  0  0  0
  6  5  1  0  0  0
  1  2  1  0  0  0
  5  4  2  0  0  0
  2  3  2  0  0  0
  4  3  1  0  0  0
  3  7  1  0  0  0
 10  7  1  0  0  0
  9  7  2  0  0  0
  7  8  2  0  0  0
 10 11  1  0  0  0
 10 12  1  0  0  0
 13 14  1  0  0  0
M  END
> <minimizedAffinity>
-7.58980

$$$$
5NXI_9DE_A_302


 24 25  0  0  0  0  0  0  0  0999 V2000
   -3.9499    5.3514   14.7968 C   0  0  0  0  0  0  0  0  0  0  0  0
   -4.3462    4.3065   15.6040 C   0  0  0  0  0  0  0  0  0  0  0  0
   -5.6414    4.2102   16.1127 C   0  0  0  0  0  0  0  0  0  0  0  0
   -6.5761    5.1985   15.7602 C   0  0  0  0  0  0  0  0  0  0  0  0
   -6.1854    6.2774   14.9481 C   0  0  0  0  0  0  0  0  0  0  0  0
   -4.8460    6.3661   14.4387 C   0  0  0  0  0  0  0  0  0  0  0  0
   -6.0369    2.8229   17.0833 S   0  0  0  0  0  0  0  0  0  0  0  0
   -5.3551    1.6505   16.4368 O   0  0  0  0  0  0  0  0  0  0  0  0
   -5.5563    3.0834   18.4587 O   0  0  0  0  0  0  0  0  0  0  0  0
   -7.6498    2.6045   17.0435 N   0  0  0  0  0  0  0  0  0  0  0  0
   -8.1116    3.4010   17.4826 H   0  0  0  0  0  0  0  0  0  0  0  0
   -7.8900    1.7514   17.5484 H   0  0  0  0  0  0  0  0  0  0  0  0
   -4.3336    7.3813   13.6638 N   0  0  0  0  0  0  0  0  0  0  0  0
   -3.9761    8.1855   14.1051 H   0  0  0  0  0  0  0  0  0  0  0  0
   -4.3004    7.2897   12.0033 S   0  0  0  0  0  0  0  0  0  0  0  0
   -2.8544    7.2625   11.4409 O   0  0  0  0  0  0  0  0  0  0  0  0
   -5.0111    6.0099   11.5210 O   0  0  0  0  0  0  0  0  0  0  0  0
   -4.9281    8.7689   11.4397 C   0  0  0  0  0  0  0  0  0  0  0  0
   -4.0294    9.7669   11.0682 C   0  0  0  0  0  0  0  0  0  0  0  0
   -4.5476   10.9738   10.6454 C   0  0  0  0  0  0  0  0  0  0  0  0
   -5.9200   11.1536   10.6216 C   0  0  0  0  0  0  0  0  0  0  0  0
   -6.5427   12.7628   10.0799 Br  0  0  0  0  0  0  0  0  0  0  0  0
   -6.8170   10.1672   10.9985 C   0  0  0  0  0  0  0  0  0  0  0  0
   -6.3002    8.9585   11.4243 C   0  0  0  0  0  0  0  0  0  0  0  0
 23 24  2  0  0  0
 23 21  1  0  0  0
 24 18  1  0  0  0
 17 15  2  0  0  0
 22 21  1  0  0  0
 21 20  2  0  0  0
 18 15  1  0  0  0
 18 19  2  0  0  0
 15 13  1  0  0  0
 15 16  2  0  0  0
 13  6  1  0  0  0
 20 19  1  0  0  0
  6  1  2  0  0  0
  6  5  1  0  0  0
  1  2  1  0  0  0
  5  4  2  0  0  0
  2  3  2  0  0  0
  4  3  1  0  0  0
  3  7  1  0  0  0
 10  7  1  0  0  0
  9  7  2  0  0  0
  7  8  2  0  0  0
 10 11  1  0  0  0
 10 12  1  0  0  0
 13 14  1  0  0  0
M  END
> <minimizedAffinity>
-7.52897

$$$$
5NXI_9DE_A_302


 24 25  0  0  0  0  0  0  0  0999 V2000
   -5.9817    5.9662   14.6539 C   0  0  0  0  0  0  0  0  0  0  0  0
   -6.4476    5.1470   15.6602 C   0  0  0  0  0  0  0  0  0  0  0  0
   -5.8513    3.9214   15.9566 C   0  0  0  0  0  0  0  0  0  0  0  0
   -4.7192    3.5305   15.2216 C   0  0  0  0  0  0  0  0  0  0  0  0
   -4.2384    4.3481   14.1840 C   0  0  0  0  0  0  0  0  0  0  0  0
   -4.8683    5.6036   13.8861 C   0  0  0  0  0  0  0  0  0  0  0  0
   -6.5000    2.9956   17.2776 S   0  0  0  0  0  0  0  0  0  0  0  0
   -6.2705    3.8142   18.5163 O   0  0  0  0  0  0  0  0  0  0  0  0
   -7.9345    2.7586   17.0002 O   0  0  0  0  0  0  0  0  0  0  0  0
   -5.6722    1.5979   17.3876 N   0  0  0  0  0  0  0  0  0  0  0  0
   -5.8287    1.0430   16.5462 H   0  0  0  0  0  0  0  0  0  0  0  0
   -5.9926    1.0763   18.2035 H   0  0  0  0  0  0  0  0  0  0  0  0
   -4.5147    6.4756   12.8820 N   0  0  0  0  0  0  0  0  0  0  0  0
   -4.2521    7.3946   13.1178 H   0  0  0  0  0  0  0  0  0  0  0  0
   -4.5180    6.0224   11.2815 S   0  0  0  0  0  0  0  0  0  0  0  0
   -5.0928    4.5964   11.0715 O   0  0  0  0  0  0  0  0  0  0  0  0
   -5.3743    6.9963   10.4486 O   0  0  0  0  0  0  0  0  0  0  0  0
   -2.8820    5.8714   10.8340 C   0  0  0  0  0  0  0  0  0  0  0  0
   -2.2665    6.9560   10.2122 C   0  0  0  0  0  0  0  0  0  0  0  0
   -0.9507    6.8119    9.8225 C   0  0  0  0  0  0  0  0  0  0  0  0
   -0.3039    5.6083   10.0442 C   0  0  0  0  0  0  0  0  0  0  0  0
    1.4129    5.4682    9.4929 Br  0  0  0  0  0  0  0  0  0  0  0  0
   -0.9146    4.5243   10.6539 C   0  0  0  0  0  0  0  0  0  0  0  0
   -2.2329    4.6657   11.0431 C   0  0  0  0  0  0  0  0  0  0  0  0
 23 24  2  0  0  0
 23 21  1  0  0  0
 24 18  1  0  0  0
 17 15  2  0  0  0
 22 21  1  0  0  0
 21 20  2  0  0  0
 18 15  1  0  0  0
 18 19  2  0  0  0
 15 13  1  0  0  0
 15 16  2  0  0  0
 13  6  1  0  0  0
 20 19  1  0  0  0
  6  1  2  0  0  0
  6  5  1  0  0  0
  1  2  1  0  0  0
  5  4  2  0  0  0
  2  3  2  0  0  0
  4  3  1  0  0  0
  3  7  1  0  0  0
 10  7  1  0  0  0
  9  7  2  0  0  0
  7  8  2  0  0  0
 10 11  1  0  0  0
 10 12  1  0  0  0
 13 14  1  0  0  0
M  END
> <minimizedAffinity>
-7.37627

$$$$
5NXI_9DE_A_302


 24 25  0  0  0  0  0  0  0  0999 V2000
   -5.3184    5.8888   14.7862 C   0  0  0  0  0  0  0  0  0  0  0  0
   -5.9031    5.1575   15.7981 C   0  0  0  0  0  0  0  0  0  0  0  0
   -5.7489    3.7750   15.9005 C   0  0  0  0  0  0  0  0  0  0  0  0
   -4.9433    3.1177   14.9551 C   0  0  0  0  0  0  0  0  0  0  0  0
   -4.3498    3.8465   13.9097 C   0  0  0  0  0  0  0  0  0  0  0  0
   -4.5246    5.2684   13.8138 C   0  0  0  0  0  0  0  0  0  0  0  0
   -6.4973    2.9669   17.2458 S   0  0  0  0  0  0  0  0  0  0  0  0
   -6.3220    3.8741   18.4304 O   0  0  0  0  0  0  0  0  0  0  0  0
   -7.9181    2.7374   16.8999 O   0  0  0  0  0  0  0  0  0  0  0  0
   -5.7117    1.5659   17.5119 N   0  0  0  0  0  0  0  0  0  0  0  0
   -5.8313    0.9508   16.7071 H   0  0  0  0  0  0  0  0  0  0  0  0
   -6.0926    1.1152   18.3439 H   0  0  0  0  0  0  0  0  0  0  0  0
   -4.0246    6.0870   12.8271 N   0  0  0  0  0  0  0  0  0  0  0  0
   -4.6389    6.4440   12.1457 H   0  0  0  0  0  0  0  0  0  0  0  0
   -2.4127    6.4909   12.7520 S   0  0  0  0  0  0  0  0  0  0  0  0
   -1.5767    5.7977   13.8605 O   0  0  0  0  0  0  0  0  0  0  0  0
   -1.8171    6.0760   11.3924 O   0  0  0  0  0  0  0  0  0  0  0  0
   -2.3249    8.1441   13.1503 C   0  0  0  0  0  0  0  0  0  0  0  0
   -2.3849    9.0751   12.1152 C   0  0  0  0  0  0  0  0  0  0  0  0
   -2.2785   10.4108   12.4448 C   0  0  0  0  0  0  0  0  0  0  0  0
   -2.1019   10.7723   13.7693 C   0  0  0  0  0  0  0  0  0  0  0  0
   -1.9463   12.5354   14.1407 Br  0  0  0  0  0  0  0  0  0  0  0  0
   -2.0328    9.8496   14.8007 C   0  0  0  0  0  0  0  0  0  0  0  0
   -2.1370    8.5114   14.4727 C   0  0  0  0  0  0  0  0  0  0  0  0
 23 24  2  0  0  0
 23 21  1  0  0  0
 24 18  1  0  0  0
 17 15  2  0  0  0
 22 21  1  0  0  0
 21 20  2  0  0  0
 18 15  1  0  0  0
 18 19  2  0  0  0
 15 13  1  0  0  0
 15 16  2  0  0  0
 13  6  1  0  0  0
 20 19  1  0  0  0
  6  1  2  0  0  0
  6  5  1  0  0  0
  1  2  1  0  0  0
  5  4  2  0  0  0
  2  3  2  0  0  0
  4  3  1  0  0  0
  3  7  1  0  0  0
 10  7  1  0  0  0
  9  7  2  0  0  0
  7  8  2  0  0  0
 10 11  1  0  0  0
 10 12  1  0  0  0
 13 14  1  0  0  0
M  END
> <minimizedAffinity>
-6.94436

$$$$
5NXI_9DE_A_302


 24 25  0  0  0  0  0  0  0  0999 V2000
   -2.1534    4.8196   11.8436 C   0  0  0  0  0  0  0  0  0  0  0  0
   -2.1775    3.4726   11.5509 C   0  0  0  0  0  0  0  0  0  0  0  0
   -3.3664    2.7879   11.2998 C   0  0  0  0  0  0  0  0  0  0  0  0
   -4.5725    3.5088   11.3162 C   0  0  0  0  0  0  0  0  0  0  0  0
   -4.5672    4.8802   11.6249 C   0  0  0  0  0  0  0  0  0  0  0  0
   -3.3353    5.5691   11.8888 C   0  0  0  0  0  0  0  0  0  0  0  0
   -3.2673    1.0992   10.8976 S   0  0  0  0  0  0  0  0  0  0  0  0
   -3.4686    1.0093    9.4115 O   0  0  0  0  0  0  0  0  0  0  0  0
   -1.9391    0.6100   11.3306 O   0  0  0  0  0  0  0  0  0  0  0  0
   -4.4727    0.3129   11.6588 N   0  0  0  0  0  0  0  0  0  0  0  0
   -4.3351    0.3745   12.6676 H   0  0  0  0  0  0  0  0  0  0  0  0
   -4.4723   -0.6668   11.3748 H   0  0  0  0  0  0  0  0  0  0  0  0
   -3.1993    6.8950   12.2308 N   0  0  0  0  0  0  0  0  0  0  0  0
   -3.1520    7.5704   11.5161 H   0  0  0  0  0  0  0  0  0  0  0  0
   -3.1126    7.3902   13.8164 S   0  0  0  0  0  0  0  0  0  0  0  0
   -1.7246    7.1067   14.4497 O   0  0  0  0  0  0  0  0  0  0  0  0
   -3.3707    8.9060   13.9213 O   0  0  0  0  0  0  0  0  0  0  0  0
   -4.1699    6.3749   14.6828 C   0  0  0  0  0  0  0  0  0  0  0  0
   -3.6439    5.2294   15.2769 C   0  0  0  0  0  0  0  0  0  0  0  0
   -4.5146    4.3952   15.9477 C   0  0  0  0  0  0  0  0  0  0  0  0
   -5.8614    4.7120   15.9919 C   0  0  0  0  0  0  0  0  0  0  0  0
   -6.9599    3.5716   16.8658 Br  0  0  0  0  0  0  0  0  0  0  0  0
   -6.3902    5.8452   15.3952 C   0  0  0  0  0  0  0  0  0  0  0  0
   -5.5204    6.6808   14.7211 C   0  0  0  0  0  0  0  0  0  0  0  0
 23 24  2  0  0  0
 23 21  1  0  0  0
 24 18  1  0  0  0
 17 15  2  0  0  0
 22 21  1  0  0  0
 21 20  2  0  0  0
 18 15  1  0  0  0
 18 19  2  0  0  0
 15 13  1  0  0  0
 15 16  2  0  0  0
 13  6  1  0  0  0
 20 19  1  0  0  0
  6  1  2  0  0  0
  6  5  1  0  0  0
  1  2  1  0  0  0
  5  4  2  0  0  0
  2  3  2  0  0  0
  4  3  1  0  0  0
  3  7  1  0  0  0
 10  7  1  0  0  0
  9  7  2  0  0  0
  7  8  2  0  0  0
 10 11  1  0  0  0
 10 12  1  0  0  0
 13 14  1  0  0  0
M  END
> <minimizedAffinity>
-6.80653

$$$$
5NXI_9DE_A_302


 24 25  0  0  0  0  0  0  0  0999 V2000
   -1.6420    8.8411   13.2458 C   0  0  0  0  0  0  0  0  0  0  0  0
   -0.7549    9.8954   13.2010 C   0  0  0  0  0  0  0  0  0  0  0  0
   -0.6952   10.8596   14.2070 C   0  0  0  0  0  0  0  0  0  0  0  0
   -1.5490   10.7271   15.3153 C   0  0  0  0  0  0  0  0  0  0  0  0
   -2.4681    9.6649   15.3711 C   0  0  0  0  0  0  0  0  0  0  0  0
   -2.5225    8.6847   14.3233 C   0  0  0  0  0  0  0  0  0  0  0  0
    0.4956   12.1183   14.0627 S   0  0  0  0  0  0  0  0  0  0  0  0
    1.7645   11.5642   14.6459 O   0  0  0  0  0  0  0  0  0  0  0  0
    0.6204   12.4581   12.6275 O   0  0  0  0  0  0  0  0  0  0  0  0
    0.0064   13.3988   14.9412 N   0  0  0  0  0  0  0  0  0  0  0  0
   -0.8551   13.7741   14.5444 H   0  0  0  0  0  0  0  0  0  0  0  0
    0.7295   14.1180   14.9257 H   0  0  0  0  0  0  0  0  0  0  0  0
   -3.3924    7.6212   14.2456 N   0  0  0  0  0  0  0  0  0  0  0  0
   -4.3505    7.7970   14.1027 H   0  0  0  0  0  0  0  0  0  0  0  0
   -2.8726    6.0474   14.3859 S   0  0  0  0  0  0  0  0  0  0  0  0
   -2.7563    5.3378   13.0108 O   0  0  0  0  0  0  0  0  0  0  0  0
   -1.4847    5.9969   15.0541 O   0  0  0  0  0  0  0  0  0  0  0  0
   -4.1283    5.2076   15.1719 C   0  0  0  0  0  0  0  0  0  0  0  0
   -3.8074    4.0441   15.8683 C   0  0  0  0  0  0  0  0  0  0  0  0
   -4.8367    3.3522   16.4731 C   0  0  0  0  0  0  0  0  0  0  0  0
   -6.1335    3.8216   16.3543 C   0  0  0  0  0  0  0  0  0  0  0  0
   -7.4454    2.8628   17.1483 Br  0  0  0  0  0  0  0  0  0  0  0  0
   -6.4583    4.9730   15.6554 C   0  0  0  0  0  0  0  0  0  0  0  0
   -5.4294    5.6664   15.0472 C   0  0  0  0  0  0  0  0  0  0  0  0
 23 24  2  0  0  0
 23 21  1  0  0  0
 24 18  1  0  0  0
 17 15  2  0  0  0
 22 21  1  0  0  0
 21 20  2  0  0  0
 18 15  1  0  0  0
 18 19  2  0  0  0
 15 13  1  0  0  0
 15 16  2  0  0  0
 13  6  1  0  0  0
 20 19  1  0  0  0
  6  1  2  0  0  0
  6  5  1  0  0  0
  1  2  1  0  0  0
  5  4  2  0  0  0
  2  3  2  0  0  0
  4  3  1  0  0  0
  3  7  1  0  0  0
 10  7  1  0  0  0
  9  7  2  0  0  0
  7  8  2  0  0  0
 10 11  1  0  0  0
 10 12  1  0  0  0
 13 14  1  0  0  0
M  END
> <minimizedAffinity>
-6.61896

$$$$
5NXI_9DE_A_302


 24 25  0  0  0  0  0  0  0  0999 V2000
   -0.8087    4.2578   11.2314 C   0  0  0  0  0  0  0  0  0  0  0  0
   -1.8747    3.4055   11.0372 C   0  0  0  0  0  0  0  0  0  0  0  0
   -3.1389    3.6641   11.5668 C   0  0  0  0  0  0  0  0  0  0  0  0
   -3.3319    4.8508   12.2943 C   0  0  0  0  0  0  0  0  0  0  0  0
   -2.2527    5.7248   12.5121 C   0  0  0  0  0  0  0  0  0  0  0  0
   -0.9553    5.4404   11.9667 C   0  0  0  0  0  0  0  0  0  0  0  0
   -4.4170    2.5382   11.2174 S   0  0  0  0  0  0  0  0  0  0  0  0
   -4.0506    1.8775    9.9188 O   0  0  0  0  0  0  0  0  0  0  0  0
   -4.4991    1.5851   12.3467 O   0  0  0  0  0  0  0  0  0  0  0  0
   -5.8047    3.3695   11.0328 N   0  0  0  0  0  0  0  0  0  0  0  0
   -6.0525    3.8176   11.9150 H   0  0  0  0  0  0  0  0  0  0  0  0
   -6.5495    2.7303   10.7552 H   0  0  0  0  0  0  0  0  0  0  0  0
    0.1829    6.1956   12.1330 N   0  0  0  0  0  0  0  0  0  0  0  0
    0.8358    5.9308   12.8207 H   0  0  0  0  0  0  0  0  0  0  0  0
    0.4881    7.5428   11.2064 S   0  0  0  0  0  0  0  0  0  0  0  0
    1.9522    7.5895   10.6942 O   0  0  0  0  0  0  0  0  0  0  0  0
   -0.4368    7.5685    9.9738 O   0  0  0  0  0  0  0  0  0  0  0  0
    0.3850    8.8727   12.2649 C   0  0  0  0  0  0  0  0  0  0  0  0
    1.5288    9.6419   12.4694 C   0  0  0  0  0  0  0  0  0  0  0  0
    1.4444   10.6967   13.3550 C   0  0  0  0  0  0  0  0  0  0  0  0
    0.2501   10.9394   14.0114 C   0  0  0  0  0  0  0  0  0  0  0  0
    0.2031   12.3211   15.1774 Br  0  0  0  0  0  0  0  0  0  0  0  0
   -0.8871   10.1719   13.8178 C   0  0  0  0  0  0  0  0  0  0  0  0
   -0.8043    9.1139   12.9330 C   0  0  0  0  0  0  0  0  0  0  0  0
 23 24  2  0  0  0
 23 21  1  0  0  0
 24 18  1  0  0  0
 17 15  2  0  0  0
 22 21  1  0  0  0
 21 20  2  0  0  0
 18 15  1  0  0  0
 18 19  2  0  0  0
 15 13  1  0  0  0
 15 16  2  0  0  0
 13  6  1  0  0  0
 20 19  1  0  0  0
  6  1  2  0  0  0
  6  5  1  0  0  0
  1  2  1  0  0  0
  5  4  2  0  0  0
  2  3  2  0  0  0
  4  3  1  0  0  0
  3  7  1  0  0  0
 10  7  1  0  0  0
  9  7  2  0  0  0
  7  8  2  0  0  0
 10 11  1  0  0  0
 10 12  1  0  0  0
 13 14  1  0  0  0
M  END
> <minimizedAffinity>
-6.59282

$$$$
5NXI_9DE_A_302


 24 25  0  0  0  0  0  0  0  0999 V2000
   -2.1891    6.2594   12.4858 C   0  0  0  0  0  0  0  0  0  0  0  0
   -0.9714    6.8733   12.2842 C   0  0  0  0  0  0  0  0  0  0  0  0
   -0.3214    6.8476   11.0504 C   0  0  0  0  0  0  0  0  0  0  0  0
   -0.9504    6.1995    9.9738 C   0  0  0  0  0  0  0  0  0  0  0  0
   -2.1865    5.5579   10.1651 C   0  0  0  0  0  0  0  0  0  0  0  0
   -2.8391    5.5868   11.4438 C   0  0  0  0  0  0  0  0  0  0  0  0
    1.1894    7.6958   10.9050 S   0  0  0  0  0  0  0  0  0  0  0  0
    1.9134    7.0678    9.7481 O   0  0  0  0  0  0  0  0  0  0  0  0
    0.8833    9.1272   10.6858 O   0  0  0  0  0  0  0  0  0  0  0  0
    2.0456    7.4686   12.2711 N   0  0  0  0  0  0  0  0  0  0  0  0
    1.5532    7.8954   13.0559 H   0  0  0  0  0  0  0  0  0  0  0  0
    2.9649    7.8993   12.1718 H   0  0  0  0  0  0  0  0  0  0  0  0
   -4.0289    4.9754   11.7663 N   0  0  0  0  0  0  0  0  0  0  0  0
   -4.8651    5.4903   11.6965 H   0  0  0  0  0  0  0  0  0  0  0  0
   -4.0959    3.3917   12.2706 S   0  0  0  0  0  0  0  0  0  0  0  0
   -5.1337    2.5596   11.4716 O   0  0  0  0  0  0  0  0  0  0  0  0
   -2.7229    2.7134   12.0968 O   0  0  0  0  0  0  0  0  0  0  0  0
   -4.7334    3.4293   13.8492 C   0  0  0  0  0  0  0  0  0  0  0  0
   -5.4264    4.5689   14.2527 C   0  0  0  0  0  0  0  0  0  0  0  0
   -5.9095    4.6038   15.5447 C   0  0  0  0  0  0  0  0  0  0  0  0
   -5.6779    3.5296   16.3865 C   0  0  0  0  0  0  0  0  0  0  0  0
   -6.3148    3.6390   18.0756 Br  0  0  0  0  0  0  0  0  0  0  0  0
   -4.9818    2.3983   15.9923 C   0  0  0  0  0  0  0  0  0  0  0  0
   -4.4952    2.3621   14.6996 C   0  0  0  0  0  0  0  0  0  0  0  0
 23 24  2  0  0  0
 23 21  1  0  0  0
 24 18  1  0  0  0
 17 15  2  0  0  0
 22 21  1  0  0  0
 21 20  2  0  0  0
 18 15  1  0  0  0
 18 19  2  0  0  0
 15 13  1  0  0  0
 15 16  2  0  0  0
 13  6  1  0  0  0
 20 19  1  0  0  0
  6  1  2  0  0  0
  6  5  1  0  0  0
  1  2  1  0  0  0
  5  4  2  0  0  0
  2  3  2  0  0  0
  4  3  1  0  0  0
  3  7  1  0  0  0
 10  7  1  0  0  0
  9  7  2  0  0  0
  7  8  2  0  0  0
 10 11  1  0  0  0
 10 12  1  0  0  0
 13 14  1  0  0  0
M  END
> <minimizedAffinity>
-6.57997

$$$$
