4H3J_10W_A_502


 34 38  0  0  0  0  0  0  0  0999 V2000
   21.7576   12.3794   22.9595 C   0  0  0  0  0  0  0  0  0  0  0  0
   22.5280   11.5085   23.7024 N   0  0  0  0  0  0  0  0  0  0  0  0
   22.6008   10.1553   23.4555 C   0  0  0  0  0  0  0  0  0  0  0  0
   22.0782    9.6249   22.2865 N   0  0  0  0  0  0  0  0  0  0  0  0
   23.1671    9.3605   24.3344 N   0  0  0  0  0  0  0  0  0  0  0  0
   23.2948   12.1269   24.8279 C   0  0  0  0  0  0  0  0  0  0  0  0
   21.6657   13.5723   23.2214 O   0  0  0  0  0  0  0  0  0  0  0  0
   20.9858   11.7620   21.7590 C   0  0  0  0  0  0  0  0  0  0  0  0
   21.6385   10.4657   21.1693 C   0  0  0  0  0  0  0  0  0  0  0  0
   20.4818    9.7837   20.4445 C   0  0  0  0  0  0  0  0  0  0  0  0
   19.2919   10.3027   21.1383 N   0  0  0  0  0  0  0  0  0  0  0  0
   19.5796   11.3423   22.1387 C   0  0  0  0  0  0  0  0  0  0  0  0
   21.9994    8.6471   22.2034 H   0  0  0  0  0  0  0  0  0  0  0  0
   23.2205    8.3929   24.1606 H   0  0  0  0  0  0  0  0  0  0  0  0
   17.9868    9.8504   20.8784 C   0  0  0  0  0  0  0  0  0  0  0  0
   17.7126    8.9497   19.8040 C   0  0  0  0  0  0  0  0  0  0  0  0
   16.3958    8.4982   19.5498 C   0  0  0  0  0  0  0  0  0  0  0  0
   15.3352    8.9371   20.3610 C   0  0  0  0  0  0  0  0  0  0  0  0
   15.5797    9.8275   21.4311 C   0  0  0  0  0  0  0  0  0  0  0  0
   16.8955   10.2780   21.6842 C   0  0  0  0  0  0  0  0  0  0  0  0
   22.8119   10.8772   20.3589 C   0  0  0  0  0  0  0  0  0  0  0  0
   22.8304   11.6383   19.1428 C   0  0  0  0  0  0  0  0  0  0  0  0
   24.1302   11.8674   18.6541 C   0  0  0  0  0  0  0  0  0  0  0  0
   25.1419   11.2929   19.4561 C   0  0  0  0  0  0  0  0  0  0  0  0
   24.4120   10.5144   20.7704 S   0  0  0  0  0  0  0  0  0  0  0  0
   26.5845   11.3918   19.2739 C   0  0  0  0  0  0  0  0  0  0  0  0
   27.3919   11.0102   20.3581 C   0  0  0  0  0  0  0  0  0  0  0  0
   28.7844   11.1190   20.2977 C   0  0  0  0  0  0  0  0  0  0  0  0
   29.3877   11.6299   19.1274 C   0  0  0  0  0  0  0  0  0  0  0  0
   28.6022   12.0311   18.0303 C   0  0  0  0  0  0  0  0  0  0  0  0
   27.1919   11.9168   18.1125 C   0  0  0  0  0  0  0  0  0  0  0  0
   30.7028   11.7511   19.0281 F   0  0  0  0  0  0  0  0  0  0  0  0
   29.5408   10.6967   21.4413 C   0  0  0  0  0  0  0  0  0  0  0  0
   30.1729   10.3740   22.3559 N   0  0  0  0  0  0  0  0  0  0  0  0
 30 31  2  0  0  0
 30 29  1  0  0  0
 31 26  1  0  0  0
 23 22  1  0  0  0
 23 24  2  0  0  0
 22 21  2  0  0  0
 32 29  1  0  0  0
 29 28  2  0  0  0
 17 16  2  0  0  0
 17 18  1  0  0  0
 26 24  1  0  0  0
 26 27  2  0  0  0
 24 25  1  0  0  0
 16 15  1  0  0  0
 18 19  2  0  0  0
 21 25  1  0  0  0
 21  9  1  0  0  0
 10 11  1  0  0  0
 10  9  1  0  0  0
 27 28  1  0  0  0
 28 33  1  0  0  0
 15 11  1  0  0  0
 15 20  2  0  0  0
 11 12  1  0  0  0
  9  8  1  0  0  0
  9  4  1  0  0  0
 19 20  1  0  0  0
  8 12  1  0  0  0
  8  1  1  0  0  0
 33 34  3  0  0  0
  4  3  1  0  0  0
  1  7  2  0  0  0
  1  2  1  0  0  0
  3  2  1  0  0  0
  3  5  2  0  0  0
  2  6  1  0  0  0
  4 13  1  0  0  0
  5 14  1  0  0  0
M  END
> <minimizedAffinity>
-10.98764

$$$$
4H3J_10W_A_502


 34 38  0  0  0  0  0  0  0  0999 V2000
   20.3003    9.0384   20.3596 C   0  0  0  0  0  0  0  0  0  0  0  0
   19.5917    9.7775   19.4346 N   0  0  0  0  0  0  0  0  0  0  0  0
   19.3557   11.1289   19.5587 C   0  0  0  0  0  0  0  0  0  0  0  0
   20.0256   11.8744   20.5161 N   0  0  0  0  0  0  0  0  0  0  0  0
   18.4883   11.7160   18.7665 N   0  0  0  0  0  0  0  0  0  0  0  0
   19.0703    9.0108   18.2610 C   0  0  0  0  0  0  0  0  0  0  0  0
   20.4605    7.8283   20.2593 O   0  0  0  0  0  0  0  0  0  0  0  0
   20.8862    9.8259   21.5656 C   0  0  0  0  0  0  0  0  0  0  0  0
   21.1595   11.3411   21.2764 C   0  0  0  0  0  0  0  0  0  0  0  0
   21.1801   11.9700   22.6665 C   0  0  0  0  0  0  0  0  0  0  0  0
   20.3674   11.0436   23.4714 N   0  0  0  0  0  0  0  0  0  0  0  0
   19.9486    9.8280   22.7566 C   0  0  0  0  0  0  0  0  0  0  0  0
   19.7287   12.7965   20.6919 H   0  0  0  0  0  0  0  0  0  0  0  0
   18.3176   12.6817   18.8529 H   0  0  0  0  0  0  0  0  0  0  0  0
   20.0126   11.2889   24.8091 C   0  0  0  0  0  0  0  0  0  0  0  0
   20.8292   10.8350   25.8898 C   0  0  0  0  0  0  0  0  0  0  0  0
   20.4652   11.0872   27.2338 C   0  0  0  0  0  0  0  0  0  0  0  0
   19.2843   11.7939   27.5197 C   0  0  0  0  0  0  0  0  0  0  0  0
   18.4593   12.2547   26.4688 C   0  0  0  0  0  0  0  0  0  0  0  0
   18.8237   12.0023   25.1264 C   0  0  0  0  0  0  0  0  0  0  0  0
   22.3968   11.4312   20.4616 C   0  0  0  0  0  0  0  0  0  0  0  0
   22.5315   11.8284   19.0895 C   0  0  0  0  0  0  0  0  0  0  0  0
   23.8655   11.8223   18.6409 C   0  0  0  0  0  0  0  0  0  0  0  0
   24.7897   11.4176   19.6303 C   0  0  0  0  0  0  0  0  0  0  0  0
   23.9412   11.0811   21.0562 S   0  0  0  0  0  0  0  0  0  0  0  0
   26.2417   11.3600   19.5204 C   0  0  0  0  0  0  0  0  0  0  0  0
   26.9437   10.8300   20.6155 C   0  0  0  0  0  0  0  0  0  0  0  0
   28.3409   10.7813   20.6254 C   0  0  0  0  0  0  0  0  0  0  0  0
   29.0578   11.2822   19.5164 C   0  0  0  0  0  0  0  0  0  0  0  0
   28.3804   11.8298   18.4105 C   0  0  0  0  0  0  0  0  0  0  0  0
   26.9638   11.8739   18.4213 C   0  0  0  0  0  0  0  0  0  0  0  0
   30.3815   11.2568   19.4846 F   0  0  0  0  0  0  0  0  0  0  0  0
   28.9846   10.2136   21.7750 C   0  0  0  0  0  0  0  0  0  0  0  0
   29.4781    9.7557   22.7167 N   0  0  0  0  0  0  0  0  0  0  0  0
 30 31  2  0  0  0
 30 29  1  0  0  0
 31 26  1  0  0  0
 23 22  1  0  0  0
 23 24  2  0  0  0
 22 21  2  0  0  0
 32 29  1  0  0  0
 29 28  2  0  0  0
 17 16  2  0  0  0
 17 18  1  0  0  0
 26 24  1  0  0  0
 26 27  2  0  0  0
 24 25  1  0  0  0
 16 15  1  0  0  0
 18 19  2  0  0  0
 21 25  1  0  0  0
 21  9  1  0  0  0
 10 11  1  0  0  0
 10  9  1  0  0  0
 27 28  1  0  0  0
 28 33  1  0  0  0
 15 11  1  0  0  0
 15 20  2  0  0  0
 11 12  1  0  0  0
  9  8  1  0  0  0
  9  4  1  0  0  0
 19 20  1  0  0  0
  8 12  1  0  0  0
  8  1  1  0  0  0
 33 34  3  0  0  0
  4  3  1  0  0  0
  1  7  2  0  0  0
  1  2  1  0  0  0
  3  2  1  0  0  0
  3  5  2  0  0  0
  2  6  1  0  0  0
  4 13  1  0  0  0
  5 14  1  0  0  0
M  END
> <minimizedAffinity>
-8.37987

$$$$
4H3J_10W_A_502


 34 38  0  0  0  0  0  0  0  0999 V2000
   22.8529   10.2342   23.6531 C   0  0  0  0  0  0  0  0  0  0  0  0
   22.3741   11.4240   24.1620 N   0  0  0  0  0  0  0  0  0  0  0  0
   22.1921   12.5590   23.4029 C   0  0  0  0  0  0  0  0  0  0  0  0
   22.2611   12.4981   22.0199 N   0  0  0  0  0  0  0  0  0  0  0  0
   21.9537   13.7079   23.9926 N   0  0  0  0  0  0  0  0  0  0  0  0
   22.0629   11.4197   25.6250 C   0  0  0  0  0  0  0  0  0  0  0  0
   23.0548    9.2479   24.3507 O   0  0  0  0  0  0  0  0  0  0  0  0
   23.1425   10.2066   22.1256 C   0  0  0  0  0  0  0  0  0  0  0  0
   22.2984   11.2278   21.2896 C   0  0  0  0  0  0  0  0  0  0  0  0
   23.1138   11.4003   20.0113 C   0  0  0  0  0  0  0  0  0  0  0  0
   24.4816   11.0541   20.4307 N   0  0  0  0  0  0  0  0  0  0  0  0
   24.5837   10.5549   21.8108 C   0  0  0  0  0  0  0  0  0  0  0  0
   22.2861   13.3394   21.5092 H   0  0  0  0  0  0  0  0  0  0  0  0
   21.8232   14.5207   23.4525 H   0  0  0  0  0  0  0  0  0  0  0  0
   25.6035   11.1869   19.5945 C   0  0  0  0  0  0  0  0  0  0  0  0
   25.6479   12.1727   18.5616 C   0  0  0  0  0  0  0  0  0  0  0  0
   26.7819   12.3005   17.7247 C   0  0  0  0  0  0  0  0  0  0  0  0
   27.8857   11.4491   17.9047 C   0  0  0  0  0  0  0  0  0  0  0  0
   27.8675   10.4661   18.9200 C   0  0  0  0  0  0  0  0  0  0  0  0
   26.7342   10.3392   19.7556 C   0  0  0  0  0  0  0  0  0  0  0  0
   20.9241   10.6824   21.1612 C   0  0  0  0  0  0  0  0  0  0  0  0
   20.4483    9.6725   20.2599 C   0  0  0  0  0  0  0  0  0  0  0  0
   19.0822    9.3796   20.4296 C   0  0  0  0  0  0  0  0  0  0  0  0
   18.4643   10.1465   21.4428 C   0  0  0  0  0  0  0  0  0  0  0  0
   19.6240   11.1741   22.1251 S   0  0  0  0  0  0  0  0  0  0  0  0
   17.0888   10.0524   21.9153 C   0  0  0  0  0  0  0  0  0  0  0  0
   16.7558   10.7941   23.0607 C   0  0  0  0  0  0  0  0  0  0  0  0
   15.4761   10.7278   23.6198 C   0  0  0  0  0  0  0  0  0  0  0  0
   14.5045    9.8928   23.0253 C   0  0  0  0  0  0  0  0  0  0  0  0
   14.8143    9.1293   21.8838 C   0  0  0  0  0  0  0  0  0  0  0  0
   16.1185    9.2072   21.3344 C   0  0  0  0  0  0  0  0  0  0  0  0
   13.2807    9.7991   23.5227 F   0  0  0  0  0  0  0  0  0  0  0  0
   15.2095   11.5249   24.7824 C   0  0  0  0  0  0  0  0  0  0  0  0
   14.9706   12.1793   25.7070 N   0  0  0  0  0  0  0  0  0  0  0  0
 30 31  2  0  0  0
 30 29  1  0  0  0
 31 26  1  0  0  0
 23 22  1  0  0  0
 23 24  2  0  0  0
 22 21  2  0  0  0
 32 29  1  0  0  0
 29 28  2  0  0  0
 17 16  2  0  0  0
 17 18  1  0  0  0
 26 24  1  0  0  0
 26 27  2  0  0  0
 24 25  1  0  0  0
 16 15  1  0  0  0
 18 19  2  0  0  0
 21 25  1  0  0  0
 21  9  1  0  0  0
 10 11  1  0  0  0
 10  9  1  0  0  0
 27 28  1  0  0  0
 28 33  1  0  0  0
 15 11  1  0  0  0
 15 20  2  0  0  0
 11 12  1  0  0  0
  9  8  1  0  0  0
  9  4  1  0  0  0
 19 20  1  0  0  0
  8 12  1  0  0  0
  8  1  1  0  0  0
 33 34  3  0  0  0
  4  3  1  0  0  0
  1  7  2  0  0  0
  1  2  1  0  0  0
  3  2  1  0  0  0
  3  5  2  0  0  0
  2  6  1  0  0  0
  4 13  1  0  0  0
  5 14  1  0  0  0
M  END
> <minimizedAffinity>
-8.19451

$$$$
