3VHA_VHA_A_237


 29 32  0  0  0  0  0  0  0  0999 V2000
   10.5835    0.6541   14.9465 C   0  0  0  0  0  0  0  0  0  0  0  0
    9.6348    0.7343   13.9179 C   0  0  0  0  0  0  0  0  0  0  0  0
    8.9694   -0.4226   13.4835 C   0  0  0  0  0  0  0  0  0  0  0  0
    7.9157   -0.4258   12.3756 C   0  0  0  0  0  0  0  0  0  0  0  0
    9.2670   -1.6572   14.0965 C   0  0  0  0  0  0  0  0  0  0  0  0
   10.2083   -1.7096   15.1216 C   0  0  0  0  0  0  0  0  0  0  0  0
   10.8981   -0.5664   15.5462 C   0  0  0  0  0  0  0  0  0  0  0  0
   11.8727   -0.6428   16.5362 O   0  0  0  0  0  0  0  0  0  0  0  0
   12.6125    0.5874   16.8445 C   0  0  0  0  0  0  0  0  0  0  0  0
   13.8940    0.4605   17.7111 C   0  0  0  0  0  0  0  0  0  0  0  0
   14.5794    1.8158   17.9721 C   0  0  0  0  0  0  0  0  0  0  0  0
   15.2040    2.4021   16.6985 C   0  0  0  0  0  0  0  0  0  0  0  0
   14.0870    3.1503   16.1187 O   0  0  0  0  0  0  0  0  0  0  0  0
   14.2057    3.5755   14.8380 C   0  0  0  0  0  0  0  0  0  0  0  0
   13.0397    4.0848   14.2688 C   0  0  0  0  0  0  0  0  0  0  0  0
   15.3995    3.5925   14.0989 C   0  0  0  0  0  0  0  0  0  0  0  0
   15.4100    4.0629   12.7864 C   0  0  0  0  0  0  0  0  0  0  0  0
   14.2315    4.5825   12.2216 C   0  0  0  0  0  0  0  0  0  0  0  0
   13.0605    4.5478   12.9540 C   0  0  0  0  0  0  0  0  0  0  0  0
   11.6125    5.1879   12.1772 S   0  0  0  0  0  0  0  0  0  0  0  0
   10.2998    4.0987   12.6003 C   0  0  0  0  0  0  0  0  0  0  0  0
    9.0919    4.6141   12.4974 N   0  0  0  0  0  0  0  0  0  0  0  0
   10.5145    2.7902   13.0324 C   0  0  0  0  0  0  0  0  0  0  0  0
    9.4234    2.0207   13.4144 C   0  0  0  0  0  0  0  0  0  0  0  0
    8.1960    2.5819   13.3465 N   0  0  0  0  0  0  0  0  0  0  0  0
    8.0348    3.8277   12.8483 C   0  0  0  0  0  0  0  0  0  0  0  0
    6.8097    4.3425   12.8158 N   0  0  0  0  0  0  0  0  0  0  0  0
    6.6656    5.2481   12.4577 H   0  0  0  0  0  0  0  0  0  0  0  0
    6.0464    3.8181   13.1500 H   0  0  0  0  0  0  0  0  0  0  0  0
  1  2  2  0  0  0
  1  7  1  0  0  0
  2  3  1  0  0  0
  2 24  1  0  0  0
  3  4  1  0  0  0
  3  5  2  0  0  0
  5  6  1  0  0  0
  6  7  2  0  0  0
  7  8  1  0  0  0
  8  9  1  0  0  0
  9 10  1  0  0  0
 10 11  1  0  0  0
 11 12  1  0  0  0
 12 13  1  0  0  0
 13 14  1  0  0  0
 14 15  2  0  0  0
 14 16  1  0  0  0
 15 19  1  0  0  0
 16 17  2  0  0  0
 17 18  1  0  0  0
 18 19  2  0  0  0
 19 20  1  0  0  0
 20 21  1  0  0  0
 21 22  2  0  0  0
 21 23  1  0  0  0
 22 26  1  0  0  0
 23 24  2  0  0  0
 24 25  1  0  0  0
 25 26  2  0  0  0
 26 27  1  0  0  0
 27 28  1  0  0  0
 27 29  1  0  0  0
M  END
> <minimizedAffinity>
-10.85893

$$$$
3VHA_VHA_A_237


 29 32  0  0  0  0  0  0  0  0999 V2000
   12.7223    1.2968   15.1781 C   0  0  0  0  0  0  0  0  0  0  0  0
   13.6187    2.3612   15.3455 C   0  0  0  0  0  0  0  0  0  0  0  0
   14.4030    2.4438   16.5064 C   0  0  0  0  0  0  0  0  0  0  0  0
   15.4108    3.5636   16.7675 C   0  0  0  0  0  0  0  0  0  0  0  0
   14.2771    1.4441   17.4929 C   0  0  0  0  0  0  0  0  0  0  0  0
   13.3847    0.3924   17.2998 C   0  0  0  0  0  0  0  0  0  0  0  0
   12.5774    0.3129   16.1575 C   0  0  0  0  0  0  0  0  0  0  0  0
   11.6536   -0.7158   16.0019 O   0  0  0  0  0  0  0  0  0  0  0  0
   10.7823   -0.6610   14.8214 C   0  0  0  0  0  0  0  0  0  0  0  0
    9.5558   -1.6117   14.7853 C   0  0  0  0  0  0  0  0  0  0  0  0
    8.7219   -1.4679   13.4975 C   0  0  0  0  0  0  0  0  0  0  0  0
    7.9880   -0.1213   13.4318 C   0  0  0  0  0  0  0  0  0  0  0  0
    8.9864    0.7484   12.8070 O   0  0  0  0  0  0  0  0  0  0  0  0
    8.7736    2.0857   12.8430 C   0  0  0  0  0  0  0  0  0  0  0  0
    9.8497    2.8715   12.4338 C   0  0  0  0  0  0  0  0  0  0  0  0
    7.5618    2.7026   13.1933 C   0  0  0  0  0  0  0  0  0  0  0  0
    7.4498    4.0924   13.1864 C   0  0  0  0  0  0  0  0  0  0  0  0
    8.5372    4.8783   12.7648 C   0  0  0  0  0  0  0  0  0  0  0  0
    9.7284    4.2604   12.4358 C   0  0  0  0  0  0  0  0  0  0  0  0
   11.0614    5.3046   11.9435 S   0  0  0  0  0  0  0  0  0  0  0  0
   12.5092    4.6469   12.6917 C   0  0  0  0  0  0  0  0  0  0  0  0
   13.6422    4.9978   12.1185 N   0  0  0  0  0  0  0  0  0  0  0  0
   12.4683    3.7997   13.7987 C   0  0  0  0  0  0  0  0  0  0  0  0
   13.6565    3.2684   14.2830 C   0  0  0  0  0  0  0  0  0  0  0  0
   14.8044    3.6025   13.6534 N   0  0  0  0  0  0  0  0  0  0  0  0
   14.7975    4.4879   12.6324 C   0  0  0  0  0  0  0  0  0  0  0  0
   15.9501    4.7734   12.0348 N   0  0  0  0  0  0  0  0  0  0  0  0
   15.9719    5.4151   11.2885 H   0  0  0  0  0  0  0  0  0  0  0  0
   16.7818    4.3431   12.3385 H   0  0  0  0  0  0  0  0  0  0  0  0
  1  2  2  0  0  0
  1  7  1  0  0  0
  2  3  1  0  0  0
  2 24  1  0  0  0
  3  4  1  0  0  0
  3  5  2  0  0  0
  5  6  1  0  0  0
  6  7  2  0  0  0
  7  8  1  0  0  0
  8  9  1  0  0  0
  9 10  1  0  0  0
 10 11  1  0  0  0
 11 12  1  0  0  0
 12 13  1  0  0  0
 13 14  1  0  0  0
 14 15  2  0  0  0
 14 16  1  0  0  0
 15 19  1  0  0  0
 16 17  2  0  0  0
 17 18  1  0  0  0
 18 19  2  0  0  0
 19 20  1  0  0  0
 20 21  1  0  0  0
 21 22  2  0  0  0
 21 23  1  0  0  0
 22 26  1  0  0  0
 23 24  2  0  0  0
 24 25  1  0  0  0
 25 26  2  0  0  0
 26 27  1  0  0  0
 27 28  1  0  0  0
 27 29  1  0  0  0
M  END
> <minimizedAffinity>
-9.76959

$$$$
3VHA_VHA_A_237


 29 32  0  0  0  0  0  0  0  0999 V2000
   13.1959    3.4789   14.4073 C   0  0  0  0  0  0  0  0  0  0  0  0
   14.4002    3.2294   15.0796 C   0  0  0  0  0  0  0  0  0  0  0  0
   15.6199    3.6193   14.5050 C   0  0  0  0  0  0  0  0  0  0  0  0
   16.9777    3.3947   15.1710 C   0  0  0  0  0  0  0  0  0  0  0  0
   15.6133    4.2637   13.2508 C   0  0  0  0  0  0  0  0  0  0  0  0
   14.4031    4.5070   12.6061 C   0  0  0  0  0  0  0  0  0  0  0  0
   13.1811    4.0993   13.1570 C   0  0  0  0  0  0  0  0  0  0  0  0
   11.9841    4.3033   12.4777 O   0  0  0  0  0  0  0  0  0  0  0  0
   10.7663    3.7532   13.0861 C   0  0  0  0  0  0  0  0  0  0  0  0
    9.4846    3.6985   12.2121 C   0  0  0  0  0  0  0  0  0  0  0  0
    8.2728    3.1087   12.9592 C   0  0  0  0  0  0  0  0  0  0  0  0
    8.4407    1.6088   13.2390 C   0  0  0  0  0  0  0  0  0  0  0  0
    9.1505    1.6076   14.5195 O   0  0  0  0  0  0  0  0  0  0  0  0
    9.7062    0.4441   14.9351 C   0  0  0  0  0  0  0  0  0  0  0  0
   10.5493    0.5478   16.0402 C   0  0  0  0  0  0  0  0  0  0  0  0
    9.4453   -0.8198   14.3817 C   0  0  0  0  0  0  0  0  0  0  0  0
   10.0666   -1.9571   14.8961 C   0  0  0  0  0  0  0  0  0  0  0  0
   10.9097   -1.8457   16.0161 C   0  0  0  0  0  0  0  0  0  0  0  0
   11.1693   -0.5951   16.5431 C   0  0  0  0  0  0  0  0  0  0  0  0
   12.2578   -0.5216   17.9286 S   0  0  0  0  0  0  0  0  0  0  0  0
   13.2896    0.8783   17.6751 C   0  0  0  0  0  0  0  0  0  0  0  0
   13.8554    1.3588   18.7634 N   0  0  0  0  0  0  0  0  0  0  0  0
   13.4842    1.4550   16.4203 C   0  0  0  0  0  0  0  0  0  0  0  0
   14.2596    2.6028   16.3209 C   0  0  0  0  0  0  0  0  0  0  0  0
   14.7936    3.1083   17.4546 N   0  0  0  0  0  0  0  0  0  0  0  0
   14.6378    2.4680   18.6345 C   0  0  0  0  0  0  0  0  0  0  0  0
   15.1691    3.0123   19.7246 N   0  0  0  0  0  0  0  0  0  0  0  0
   15.0696    2.5656   20.5963 H   0  0  0  0  0  0  0  0  0  0  0  0
   15.6620    3.8621   19.6604 H   0  0  0  0  0  0  0  0  0  0  0  0
  1  2  2  0  0  0
  1  7  1  0  0  0
  2  3  1  0  0  0
  2 24  1  0  0  0
  3  4  1  0  0  0
  3  5  2  0  0  0
  5  6  1  0  0  0
  6  7  2  0  0  0
  7  8  1  0  0  0
  8  9  1  0  0  0
  9 10  1  0  0  0
 10 11  1  0  0  0
 11 12  1  0  0  0
 12 13  1  0  0  0
 13 14  1  0  0  0
 14 15  2  0  0  0
 14 16  1  0  0  0
 15 19  1  0  0  0
 16 17  2  0  0  0
 17 18  1  0  0  0
 18 19  2  0  0  0
 19 20  1  0  0  0
 20 21  1  0  0  0
 21 22  2  0  0  0
 21 23  1  0  0  0
 22 26  1  0  0  0
 23 24  2  0  0  0
 24 25  1  0  0  0
 25 26  2  0  0  0
 26 27  1  0  0  0
 27 28  1  0  0  0
 27 29  1  0  0  0
M  END
> <minimizedAffinity>
-8.85789

$$$$
3VHA_VHA_A_237


 29 32  0  0  0  0  0  0  0  0999 V2000
   12.3120    3.3286   13.4214 C   0  0  0  0  0  0  0  0  0  0  0  0
   10.9429    3.0283   13.4257 C   0  0  0  0  0  0  0  0  0  0  0  0
   10.0502    3.8057   12.6718 C   0  0  0  0  0  0  0  0  0  0  0  0
    8.5449    3.5446   12.6118 C   0  0  0  0  0  0  0  0  0  0  0  0
   10.5503    4.8843   11.9134 C   0  0  0  0  0  0  0  0  0  0  0  0
   11.9158    5.1579   11.9197 C   0  0  0  0  0  0  0  0  0  0  0  0
   12.8134    4.4056   12.6887 C   0  0  0  0  0  0  0  0  0  0  0  0
   14.1677    4.7226   12.7254 O   0  0  0  0  0  0  0  0  0  0  0  0
   15.0140    3.9419   13.6363 C   0  0  0  0  0  0  0  0  0  0  0  0
   16.4458    4.4696   13.9211 C   0  0  0  0  0  0  0  0  0  0  0  0
   17.2389    3.5654   14.8844 C   0  0  0  0  0  0  0  0  0  0  0  0
   16.6757    3.6075   16.3117 C   0  0  0  0  0  0  0  0  0  0  0  0
   15.6516    2.5620   16.2743 O   0  0  0  0  0  0  0  0  0  0  0  0
   14.7613    2.5099   17.2940 C   0  0  0  0  0  0  0  0  0  0  0  0
   13.6848    1.6455   17.1017 C   0  0  0  0  0  0  0  0  0  0  0  0
   14.8850    3.1985   18.5115 C   0  0  0  0  0  0  0  0  0  0  0  0
   13.9113    3.0638   19.5003 C   0  0  0  0  0  0  0  0  0  0  0  0
   12.8323    2.1838   19.3023 C   0  0  0  0  0  0  0  0  0  0  0  0
   12.7144    1.5224   18.0949 C   0  0  0  0  0  0  0  0  0  0  0  0
   11.3231    0.4565   17.8999 S   0  0  0  0  0  0  0  0  0  0  0  0
   10.7361    0.7018   16.2616 C   0  0  0  0  0  0  0  0  0  0  0  0
   10.0059   -0.2820   15.7775 N   0  0  0  0  0  0  0  0  0  0  0  0
   11.0337    1.8423   15.5162 C   0  0  0  0  0  0  0  0  0  0  0  0
   10.5878    1.9227   14.2035 C   0  0  0  0  0  0  0  0  0  0  0  0
    9.8798    0.8835   13.7088 N   0  0  0  0  0  0  0  0  0  0  0  0
    9.5534   -0.1648   14.4967 C   0  0  0  0  0  0  0  0  0  0  0  0
    8.8687   -1.1702   13.9604 N   0  0  0  0  0  0  0  0  0  0  0  0
    8.6186   -1.9455   14.5132 H   0  0  0  0  0  0  0  0  0  0  0  0
    8.6118   -1.1394   13.0106 H   0  0  0  0  0  0  0  0  0  0  0  0
  1  2  2  0  0  0
  1  7  1  0  0  0
  2  3  1  0  0  0
  2 24  1  0  0  0
  3  4  1  0  0  0
  3  5  2  0  0  0
  5  6  1  0  0  0
  6  7  2  0  0  0
  7  8  1  0  0  0
  8  9  1  0  0  0
  9 10  1  0  0  0
 10 11  1  0  0  0
 11 12  1  0  0  0
 12 13  1  0  0  0
 13 14  1  0  0  0
 14 15  2  0  0  0
 14 16  1  0  0  0
 15 19  1  0  0  0
 16 17  2  0  0  0
 17 18  1  0  0  0
 18 19  2  0  0  0
 19 20  1  0  0  0
 20 21  1  0  0  0
 21 22  2  0  0  0
 21 23  1  0  0  0
 22 26  1  0  0  0
 23 24  2  0  0  0
 24 25  1  0  0  0
 25 26  2  0  0  0
 26 27  1  0  0  0
 27 28  1  0  0  0
 27 29  1  0  0  0
M  END
> <minimizedAffinity>
-8.49178

$$$$
3VHA_VHA_A_237


 29 32  0  0  0  0  0  0  0  0999 V2000
   10.8589    2.0721   13.6056 C   0  0  0  0  0  0  0  0  0  0  0  0
    9.7982    1.2332   13.9737 C   0  0  0  0  0  0  0  0  0  0  0  0
    8.4963    1.5092   13.5280 C   0  0  0  0  0  0  0  0  0  0  0  0
    7.2837    0.6444   13.8736 C   0  0  0  0  0  0  0  0  0  0  0  0
    8.2754    2.6347   12.7077 C   0  0  0  0  0  0  0  0  0  0  0  0
    9.3470    3.4488   12.3496 C   0  0  0  0  0  0  0  0  0  0  0  0
   10.6467    3.1988   12.8094 C   0  0  0  0  0  0  0  0  0  0  0  0
   11.6986    4.0499   12.4854 O   0  0  0  0  0  0  0  0  0  0  0  0
   13.0036    3.7642   13.0945 C   0  0  0  0  0  0  0  0  0  0  0  0
   14.1005    4.8580   12.9963 C   0  0  0  0  0  0  0  0  0  0  0  0
   15.4251    4.4423   13.6651 C   0  0  0  0  0  0  0  0  0  0  0  0
   15.2999    4.3597   15.1927 C   0  0  0  0  0  0  0  0  0  0  0  0
   14.8398    2.9845   15.3944 O   0  0  0  0  0  0  0  0  0  0  0  0
   14.3615    2.6488   16.6166 C   0  0  0  0  0  0  0  0  0  0  0  0
   13.7387    1.4041   16.6915 C   0  0  0  0  0  0  0  0  0  0  0  0
   14.5051    3.4204   17.7810 C   0  0  0  0  0  0  0  0  0  0  0  0
   13.9808    2.9728   18.9929 C   0  0  0  0  0  0  0  0  0  0  0  0
   13.3608    1.7124   19.0624 C   0  0  0  0  0  0  0  0  0  0  0  0
   13.2135    0.9688   17.9073 C   0  0  0  0  0  0  0  0  0  0  0  0
   12.4013   -0.5893   18.0577 S   0  0  0  0  0  0  0  0  0  0  0  0
   11.3517   -0.7389   16.6561 C   0  0  0  0  0  0  0  0  0  0  0  0
   11.0014   -1.9715   16.3504 N   0  0  0  0  0  0  0  0  0  0  0  0
   10.9325    0.3599   15.9065 C   0  0  0  0  0  0  0  0  0  0  0  0
   10.1614    0.1448   14.7717 C   0  0  0  0  0  0  0  0  0  0  0  0
    9.8509   -1.1296   14.4474 N   0  0  0  0  0  0  0  0  0  0  0  0
   10.2177   -2.1534   15.2497 C   0  0  0  0  0  0  0  0  0  0  0  0
    9.9021   -3.3909   14.8805 N   0  0  0  0  0  0  0  0  0  0  0  0
   10.1578   -4.1540   15.4475 H   0  0  0  0  0  0  0  0  0  0  0  0
    9.4126   -3.5441   14.0402 H   0  0  0  0  0  0  0  0  0  0  0  0
  1  2  2  0  0  0
  1  7  1  0  0  0
  2  3  1  0  0  0
  2 24  1  0  0  0
  3  4  1  0  0  0
  3  5  2  0  0  0
  5  6  1  0  0  0
  6  7  2  0  0  0
  7  8  1  0  0  0
  8  9  1  0  0  0
  9 10  1  0  0  0
 10 11  1  0  0  0
 11 12  1  0  0  0
 12 13  1  0  0  0
 13 14  1  0  0  0
 14 15  2  0  0  0
 14 16  1  0  0  0
 15 19  1  0  0  0
 16 17  2  0  0  0
 17 18  1  0  0  0
 18 19  2  0  0  0
 19 20  1  0  0  0
 20 21  1  0  0  0
 21 22  2  0  0  0
 21 23  1  0  0  0
 22 26  1  0  0  0
 23 24  2  0  0  0
 24 25  1  0  0  0
 25 26  2  0  0  0
 26 27  1  0  0  0
 27 28  1  0  0  0
 27 29  1  0  0  0
M  END
> <minimizedAffinity>
-8.48612

$$$$
3VHA_VHA_A_237


 29 32  0  0  0  0  0  0  0  0999 V2000
   10.7599    0.1763   16.7395 C   0  0  0  0  0  0  0  0  0  0  0  0
   10.1858   -0.5521   15.6886 C   0  0  0  0  0  0  0  0  0  0  0  0
   10.2977   -1.9508   15.6593 C   0  0  0  0  0  0  0  0  0  0  0  0
    9.6959   -2.8238   14.5577 C   0  0  0  0  0  0  0  0  0  0  0  0
   10.9900   -2.6063   16.6983 C   0  0  0  0  0  0  0  0  0  0  0  0
   11.5453   -1.8609   17.7353 C   0  0  0  0  0  0  0  0  0  0  0  0
   11.4630   -0.4625   17.7622 C   0  0  0  0  0  0  0  0  0  0  0  0
   12.0668    0.2725   18.7777 O   0  0  0  0  0  0  0  0  0  0  0  0
   12.0135    1.7356   18.6683 C   0  0  0  0  0  0  0  0  0  0  0  0
   12.9300    2.5632   19.6089 C   0  0  0  0  0  0  0  0  0  0  0  0
   12.7825    4.0836   19.4065 C   0  0  0  0  0  0  0  0  0  0  0  0
   13.3435    4.5434   18.0537 C   0  0  0  0  0  0  0  0  0  0  0  0
   12.1918    4.3772   17.1652 O   0  0  0  0  0  0  0  0  0  0  0  0
   12.4085    4.4331   15.8292 C   0  0  0  0  0  0  0  0  0  0  0  0
   11.3286    4.0531   15.0339 C   0  0  0  0  0  0  0  0  0  0  0  0
   13.5871    4.8926   15.2196 C   0  0  0  0  0  0  0  0  0  0  0  0
   13.6994    4.9172   13.8301 C   0  0  0  0  0  0  0  0  0  0  0  0
   12.6030    4.5399   13.0343 C   0  0  0  0  0  0  0  0  0  0  0  0
   11.4538    4.0767   13.6456 C   0  0  0  0  0  0  0  0  0  0  0  0
   10.1266    3.5920   12.5904 S   0  0  0  0  0  0  0  0  0  0  0  0
    9.4472    2.1289   13.2878 C   0  0  0  0  0  0  0  0  0  0  0  0
    8.2115    1.8575   12.9206 N   0  0  0  0  0  0  0  0  0  0  0  0
   10.1513    1.3207   14.1799 C   0  0  0  0  0  0  0  0  0  0  0  0
    9.5130    0.2211   14.7384 C   0  0  0  0  0  0  0  0  0  0  0  0
    8.2302   -0.0151   14.3858 N   0  0  0  0  0  0  0  0  0  0  0  0
    7.6179    0.7544   13.4588 C   0  0  0  0  0  0  0  0  0  0  0  0
    6.3503    0.4921   13.1560 N   0  0  0  0  0  0  0  0  0  0  0  0
    5.8817    1.0380   12.4840 H   0  0  0  0  0  0  0  0  0  0  0  0
    5.8803   -0.2480   13.6038 H   0  0  0  0  0  0  0  0  0  0  0  0
  1  2  2  0  0  0
  1  7  1  0  0  0
  2  3  1  0  0  0
  2 24  1  0  0  0
  3  4  1  0  0  0
  3  5  2  0  0  0
  5  6  1  0  0  0
  6  7  2  0  0  0
  7  8  1  0  0  0
  8  9  1  0  0  0
  9 10  1  0  0  0
 10 11  1  0  0  0
 11 12  1  0  0  0
 12 13  1  0  0  0
 13 14  1  0  0  0
 14 15  2  0  0  0
 14 16  1  0  0  0
 15 19  1  0  0  0
 16 17  2  0  0  0
 17 18  1  0  0  0
 18 19  2  0  0  0
 19 20  1  0  0  0
 20 21  1  0  0  0
 21 22  2  0  0  0
 21 23  1  0  0  0
 22 26  1  0  0  0
 23 24  2  0  0  0
 24 25  1  0  0  0
 25 26  2  0  0  0
 26 27  1  0  0  0
 27 28  1  0  0  0
 27 29  1  0  0  0
M  END
> <minimizedAffinity>
-8.24578

$$$$
3VHA_VHA_A_237


 29 32  0  0  0  0  0  0  0  0999 V2000
   14.3043    2.4085   16.3886 C   0  0  0  0  0  0  0  0  0  0  0  0
   15.1388    1.6034   17.1759 C   0  0  0  0  0  0  0  0  0  0  0  0
   16.5314    1.6621   17.0113 C   0  0  0  0  0  0  0  0  0  0  0  0
   17.5152    0.8272   17.8316 C   0  0  0  0  0  0  0  0  0  0  0  0
   17.0729    2.5398   16.0497 C   0  0  0  0  0  0  0  0  0  0  0  0
   16.2231    3.3350   15.2848 C   0  0  0  0  0  0  0  0  0  0  0  0
   14.8304    3.2665   15.4214 C   0  0  0  0  0  0  0  0  0  0  0  0
   13.9919    4.0293   14.6147 O   0  0  0  0  0  0  0  0  0  0  0  0
   12.5465    3.8168   14.7606 C   0  0  0  0  0  0  0  0  0  0  0  0
   11.6154    4.4199   13.6748 C   0  0  0  0  0  0  0  0  0  0  0  0
   10.1237    4.1371   13.9379 C   0  0  0  0  0  0  0  0  0  0  0  0
    9.7768    2.6526   13.7587 C   0  0  0  0  0  0  0  0  0  0  0  0
   10.0501    2.1053   15.0889 O   0  0  0  0  0  0  0  0  0  0  0  0
   10.1117    0.7583   15.2198 C   0  0  0  0  0  0  0  0  0  0  0  0
   10.5877    0.3001   16.4471 C   0  0  0  0  0  0  0  0  0  0  0  0
    9.6828   -0.1683   14.2558 C   0  0  0  0  0  0  0  0  0  0  0  0
    9.7829   -1.5374   14.4997 C   0  0  0  0  0  0  0  0  0  0  0  0
   10.2566   -1.9921   15.7433 C   0  0  0  0  0  0  0  0  0  0  0  0
   10.6883   -1.0710   16.6783 C   0  0  0  0  0  0  0  0  0  0  0  0
   11.2980   -1.7078   18.2056 S   0  0  0  0  0  0  0  0  0  0  0  0
   12.7064   -0.7414   18.6191 C   0  0  0  0  0  0  0  0  0  0  0  0
   13.0387   -0.7565   19.8937 N   0  0  0  0  0  0  0  0  0  0  0  0
   13.4131    0.0044   17.6761 C   0  0  0  0  0  0  0  0  0  0  0  0
   14.4715    0.7965   18.1016 C   0  0  0  0  0  0  0  0  0  0  0  0
   14.7685    0.8046   19.4198 N   0  0  0  0  0  0  0  0  0  0  0  0
   14.1014    0.0049   20.2811 C   0  0  0  0  0  0  0  0  0  0  0  0
   14.4194    0.0593   21.5706 N   0  0  0  0  0  0  0  0  0  0  0  0
   13.9483   -0.5131   22.2184 H   0  0  0  0  0  0  0  0  0  0  0  0
   15.1261    0.6720   21.8779 H   0  0  0  0  0  0  0  0  0  0  0  0
  1  2  2  0  0  0
  1  7  1  0  0  0
  2  3  1  0  0  0
  2 24  1  0  0  0
  3  4  1  0  0  0
  3  5  2  0  0  0
  5  6  1  0  0  0
  6  7  2  0  0  0
  7  8  1  0  0  0
  8  9  1  0  0  0
  9 10  1  0  0  0
 10 11  1  0  0  0
 11 12  1  0  0  0
 12 13  1  0  0  0
 13 14  1  0  0  0
 14 15  2  0  0  0
 14 16  1  0  0  0
 15 19  1  0  0  0
 16 17  2  0  0  0
 17 18  1  0  0  0
 18 19  2  0  0  0
 19 20  1  0  0  0
 20 21  1  0  0  0
 21 22  2  0  0  0
 21 23  1  0  0  0
 22 26  1  0  0  0
 23 24  2  0  0  0
 24 25  1  0  0  0
 25 26  2  0  0  0
 26 27  1  0  0  0
 27 28  1  0  0  0
 27 29  1  0  0  0
M  END
> <minimizedAffinity>
-7.89111

$$$$
