2RD6_78P_A_900


 22 24  0  0  0  0  0  0  0  0999 V2000
   26.5286   65.5028    9.5450 C   0  0  0  0  0  0  0  0  0  0  0  0
   27.2210   66.1448   10.6063 C   0  0  0  0  0  0  0  0  0  0  0  0
   28.6340   65.9717   10.7016 C   0  0  0  0  0  0  0  0  0  0  0  0
   25.1352   64.6874    8.0662 C   0  0  0  0  0  0  0  0  0  0  0  0
   29.3376   65.1717    9.7523 C   0  0  0  0  0  0  0  0  0  0  0  0
   28.6368   64.5395    8.6975 C   0  0  0  0  0  0  0  0  0  0  0  0
   27.2538   64.6958    8.5842 C   0  0  0  0  0  0  0  0  0  0  0  0
   26.3329   64.2095    7.6793 N   0  0  0  0  0  0  0  0  0  0  0  0
   25.1999   65.4544    9.1604 N   0  0  0  0  0  0  0  0  0  0  0  0
   24.4447   65.9003    9.6077 H   0  0  0  0  0  0  0  0  0  0  0  0
   23.8134   64.3901    7.3327 C   0  0  0  0  0  0  0  0  0  0  0  0
   22.1353   63.5452    8.8161 C   0  0  0  0  0  0  0  0  0  0  0  0
   23.6634   62.8923    7.0791 C   0  0  0  0  0  0  0  0  0  0  0  0
   22.6501   64.7643    8.1762 N   0  0  0  0  0  0  0  0  0  0  0  0
   22.9911   62.3757    8.3425 C   0  0  0  0  0  0  0  0  0  0  0  0
   23.8188   65.2126    6.0429 C   0  0  0  0  0  0  0  0  0  0  0  0
   21.9232   65.1829    7.5957 H   0  0  0  0  0  0  0  0  0  0  0  0
   26.5505   67.0104   11.6396 C   0  0  0  0  0  0  0  0  0  0  0  0
   27.0180   66.9416   12.8953 N   0  0  0  0  0  0  0  0  0  0  0  0
   25.6038   67.7471   11.3930 O   0  0  0  0  0  0  0  0  0  0  0  0
   27.7786   66.3529   13.1059 H   0  0  0  0  0  0  0  0  0  0  0  0
   26.6006   67.4798   13.6062 H   0  0  0  0  0  0  0  0  0  0  0  0
 16 11  1  0  0  0
 11 13  1  0  0  0
 11 14  1  0  0  0
 11  4  1  0  0  0
 13 15  1  0  0  0
 14 12  1  0  0  0
  8  4  2  0  0  0
  8  7  1  0  0  0
  4  9  1  0  0  0
 12 15  1  0  0  0
  9  1  1  0  0  0
  7  6  2  0  0  0
  7  1  1  0  0  0
  6  5  1  0  0  0
  1  2  2  0  0  0
  5  3  2  0  0  0
  2  3  1  0  0  0
  2 18  1  0  0  0
 19 18  1  0  0  0
 18 20  2  0  0  0
  9 10  1  0  0  0
 19 21  1  0  0  0
 19 22  1  0  0  0
 14 17  1  0  0  0
M  END
> <minimizedAffinity>
-8.83379

$$$$
2RD6_78P_A_900


 22 24  0  0  0  0  0  0  0  0999 V2000
   24.7385   66.5728    9.8637 C   0  0  0  0  0  0  0  0  0  0  0  0
   26.0579   66.4980   10.3849 C   0  0  0  0  0  0  0  0  0  0  0  0
   26.9911   65.6215    9.7548 C   0  0  0  0  0  0  0  0  0  0  0  0
   22.6450   66.9580    9.3521 C   0  0  0  0  0  0  0  0  0  0  0  0
   26.6088   64.8371    8.6258 C   0  0  0  0  0  0  0  0  0  0  0  0
   25.2919   64.9227    8.1140 C   0  0  0  0  0  0  0  0  0  0  0  0
   24.3623   65.7744    8.7142 C   0  0  0  0  0  0  0  0  0  0  0  0
   23.0406   66.0549    8.4352 N   0  0  0  0  0  0  0  0  0  0  0  0
   23.6105   67.2939   10.2149 N   0  0  0  0  0  0  0  0  0  0  0  0
   23.5333   67.9335   10.9594 H   0  0  0  0  0  0  0  0  0  0  0  0
   21.2259   67.5546    9.4143 C   0  0  0  0  0  0  0  0  0  0  0  0
   19.8782   66.4901   11.0819 C   0  0  0  0  0  0  0  0  0  0  0  0
   20.2267   66.6418    8.7083 C   0  0  0  0  0  0  0  0  0  0  0  0
   20.7546   67.6407   10.8197 N   0  0  0  0  0  0  0  0  0  0  0  0
   19.7863   65.6745    9.7972 C   0  0  0  0  0  0  0  0  0  0  0  0
   21.2961   68.9506    8.7927 C   0  0  0  0  0  0  0  0  0  0  0  0
   20.2359   68.5082   10.9573 H   0  0  0  0  0  0  0  0  0  0  0  0
   26.5377   67.2997   11.5653 C   0  0  0  0  0  0  0  0  0  0  0  0
   27.1330   66.6281   12.5627 N   0  0  0  0  0  0  0  0  0  0  0  0
   26.3954   68.5122   11.6617 O   0  0  0  0  0  0  0  0  0  0  0  0
   27.2531   65.6531   12.4968 H   0  0  0  0  0  0  0  0  0  0  0  0
   27.4498   67.1102   13.3605 H   0  0  0  0  0  0  0  0  0  0  0  0
 16 11  1  0  0  0
 11 13  1  0  0  0
 11 14  1  0  0  0
 11  4  1  0  0  0
 13 15  1  0  0  0
 14 12  1  0  0  0
  8  4  2  0  0  0
  8  7  1  0  0  0
  4  9  1  0  0  0
 12 15  1  0  0  0
  9  1  1  0  0  0
  7  6  2  0  0  0
  7  1  1  0  0  0
  6  5  1  0  0  0
  1  2  2  0  0  0
  5  3  2  0  0  0
  2  3  1  0  0  0
  2 18  1  0  0  0
 19 18  1  0  0  0
 18 20  2  0  0  0
  9 10  1  0  0  0
 19 21  1  0  0  0
 19 22  1  0  0  0
 14 17  1  0  0  0
M  END
> <minimizedAffinity>
-8.70650

$$$$
2RD6_78P_A_900


 22 24  0  0  0  0  0  0  0  0999 V2000
   26.7035   65.0444    8.9084 C   0  0  0  0  0  0  0  0  0  0  0  0
   26.7392   65.8599   10.0711 C   0  0  0  0  0  0  0  0  0  0  0  0
   27.9908   66.0573   10.7271 C   0  0  0  0  0  0  0  0  0  0  0  0
   26.2563   63.8746    7.1127 C   0  0  0  0  0  0  0  0  0  0  0  0
   29.1813   65.4499   10.2272 C   0  0  0  0  0  0  0  0  0  0  0  0
   29.1333   64.6419    9.0660 C   0  0  0  0  0  0  0  0  0  0  0  0
   27.9195   64.4356    8.4073 C   0  0  0  0  0  0  0  0  0  0  0  0
   27.5825   63.7145    7.2805 N   0  0  0  0  0  0  0  0  0  0  0  0
   25.6945   64.6499    8.0470 N   0  0  0  0  0  0  0  0  0  0  0  0
   24.7428   64.8939    8.1101 H   0  0  0  0  0  0  0  0  0  0  0  0
   25.4518   63.2358    5.9646 C   0  0  0  0  0  0  0  0  0  0  0  0
   26.5218   63.5368    3.8444 C   0  0  0  0  0  0  0  0  0  0  0  0
   24.6815   64.3011    5.1889 C   0  0  0  0  0  0  0  0  0  0  0  0
   26.3616   62.6084    4.9728 N   0  0  0  0  0  0  0  0  0  0  0  0
   25.6725   64.7694    4.1334 C   0  0  0  0  0  0  0  0  0  0  0  0
   24.5382   62.1790    6.5879 C   0  0  0  0  0  0  0  0  0  0  0  0
   25.9603   61.7304    4.6432 H   0  0  0  0  0  0  0  0  0  0  0  0
   25.5290   66.5404   10.6528 C   0  0  0  0  0  0  0  0  0  0  0  0
   25.7195   67.3168   11.7304 N   0  0  0  0  0  0  0  0  0  0  0  0
   24.3970   66.4053   10.2053 O   0  0  0  0  0  0  0  0  0  0  0  0
   26.6248   67.4332   12.0994 H   0  0  0  0  0  0  0  0  0  0  0  0
   24.9541   67.7701   12.1521 H   0  0  0  0  0  0  0  0  0  0  0  0
 16 11  1  0  0  0
 11 13  1  0  0  0
 11 14  1  0  0  0
 11  4  1  0  0  0
 13 15  1  0  0  0
 14 12  1  0  0  0
  8  4  2  0  0  0
  8  7  1  0  0  0
  4  9  1  0  0  0
 12 15  1  0  0  0
  9  1  1  0  0  0
  7  6  2  0  0  0
  7  1  1  0  0  0
  6  5  1  0  0  0
  1  2  2  0  0  0
  5  3  2  0  0  0
  2  3  1  0  0  0
  2 18  1  0  0  0
 19 18  1  0  0  0
 18 20  2  0  0  0
  9 10  1  0  0  0
 19 21  1  0  0  0
 19 22  1  0  0  0
 14 17  1  0  0  0
M  END
> <minimizedAffinity>
-8.12470

$$$$
2RD6_78P_A_900


 22 24  0  0  0  0  0  0  0  0999 V2000
   25.5620   65.8036    9.5302 C   0  0  0  0  0  0  0  0  0  0  0  0
   26.6575   66.1301   10.3737 C   0  0  0  0  0  0  0  0  0  0  0  0
   27.9484   65.6204   10.0427 C   0  0  0  0  0  0  0  0  0  0  0  0
   23.6589   65.5254    8.4844 C   0  0  0  0  0  0  0  0  0  0  0  0
   28.1364   64.8007    8.8899 C   0  0  0  0  0  0  0  0  0  0  0  0
   27.0375   64.4848    8.0555 C   0  0  0  0  0  0  0  0  0  0  0  0
   25.7653   64.9734    8.3598 C   0  0  0  0  0  0  0  0  0  0  0  0
   24.5407   64.8314    7.7404 N   0  0  0  0  0  0  0  0  0  0  0  0
   24.2137   66.1154    9.5492 N   0  0  0  0  0  0  0  0  0  0  0  0
   23.7502   66.6674   10.2198 H   0  0  0  0  0  0  0  0  0  0  0  0
   22.1580   65.6384    8.1555 C   0  0  0  0  0  0  0  0  0  0  0  0
   21.7460   67.1709    6.3632 C   0  0  0  0  0  0  0  0  0  0  0  0
   21.5719   66.9176    8.7473 C   0  0  0  0  0  0  0  0  0  0  0  0
   21.9497   65.7522    6.6897 N   0  0  0  0  0  0  0  0  0  0  0  0
   21.8106   67.9607    7.6656 C   0  0  0  0  0  0  0  0  0  0  0  0
   21.4830   64.3739    8.6897 C   0  0  0  0  0  0  0  0  0  0  0  0
   21.1285   65.2133    6.4148 H   0  0  0  0  0  0  0  0  0  0  0  0
   26.5398   66.9949   11.6003 C   0  0  0  0  0  0  0  0  0  0  0  0
   27.4562   66.8208   12.5648 N   0  0  0  0  0  0  0  0  0  0  0  0
   25.6513   67.8222   11.7614 O   0  0  0  0  0  0  0  0  0  0  0  0
   28.1752   66.1587   12.4468 H   0  0  0  0  0  0  0  0  0  0  0  0
   27.4095   67.3550   13.3904 H   0  0  0  0  0  0  0  0  0  0  0  0
 16 11  1  0  0  0
 11 13  1  0  0  0
 11 14  1  0  0  0
 11  4  1  0  0  0
 13 15  1  0  0  0
 14 12  1  0  0  0
  8  4  2  0  0  0
  8  7  1  0  0  0
  4  9  1  0  0  0
 12 15  1  0  0  0
  9  1  1  0  0  0
  7  6  2  0  0  0
  7  1  1  0  0  0
  6  5  1  0  0  0
  1  2  2  0  0  0
  5  3  2  0  0  0
  2  3  1  0  0  0
  2 18  1  0  0  0
 19 18  1  0  0  0
 18 20  2  0  0  0
  9 10  1  0  0  0
 19 21  1  0  0  0
 19 22  1  0  0  0
 14 17  1  0  0  0
M  END
> <minimizedAffinity>
-8.11076

$$$$
2RD6_78P_A_900


 22 24  0  0  0  0  0  0  0  0999 V2000
   26.3875   65.5366    9.5014 C   0  0  0  0  0  0  0  0  0  0  0  0
   27.6713   65.7135   10.0833 C   0  0  0  0  0  0  0  0  0  0  0  0
   27.8050   66.6197   11.1772 C   0  0  0  0  0  0  0  0  0  0  0  0
   24.5953   65.0029    8.3629 C   0  0  0  0  0  0  0  0  0  0  0  0
   26.6748   67.3332   11.6770 C   0  0  0  0  0  0  0  0  0  0  0  0
   25.4001   67.1461   11.0906 C   0  0  0  0  0  0  0  0  0  0  0  0
   25.2458   66.2635   10.0196 C   0  0  0  0  0  0  0  0  0  0  0  0
   24.1486   65.8911    9.2708 N   0  0  0  0  0  0  0  0  0  0  0  0
   25.9077   64.7621    8.4595 N   0  0  0  0  0  0  0  0  0  0  0  0
   26.4331   64.1494    7.8958 H   0  0  0  0  0  0  0  0  0  0  0  0
   23.6975   64.3230    7.3116 C   0  0  0  0  0  0  0  0  0  0  0  0
   21.7763   63.2953    8.3031 C   0  0  0  0  0  0  0  0  0  0  0  0
   23.9137   62.8120    7.3150 C   0  0  0  0  0  0  0  0  0  0  0  0
   22.2631   64.5156    7.6438 N   0  0  0  0  0  0  0  0  0  0  0  0
   22.9359   62.3077    8.3662 C   0  0  0  0  0  0  0  0  0  0  0  0
   24.0191   64.9653    5.9610 C   0  0  0  0  0  0  0  0  0  0  0  0
   21.7304   64.6827    6.7901 H   0  0  0  0  0  0  0  0  0  0  0  0
   28.9073   64.9910    9.6178 C   0  0  0  0  0  0  0  0  0  0  0  0
   29.9697   65.0007   10.4372 N   0  0  0  0  0  0  0  0  0  0  0  0
   28.9903   64.4207    8.5371 O   0  0  0  0  0  0  0  0  0  0  0  0
   29.9152   65.4558   11.3085 H   0  0  0  0  0  0  0  0  0  0  0  0
   30.8037   64.5527   10.1672 H   0  0  0  0  0  0  0  0  0  0  0  0
 16 11  1  0  0  0
 11 13  1  0  0  0
 11 14  1  0  0  0
 11  4  1  0  0  0
 13 15  1  0  0  0
 14 12  1  0  0  0
  8  4  2  0  0  0
  8  7  1  0  0  0
  4  9  1  0  0  0
 12 15  1  0  0  0
  9  1  1  0  0  0
  7  6  2  0  0  0
  7  1  1  0  0  0
  6  5  1  0  0  0
  1  2  2  0  0  0
  5  3  2  0  0  0
  2  3  1  0  0  0
  2 18  1  0  0  0
 19 18  1  0  0  0
 18 20  2  0  0  0
  9 10  1  0  0  0
 19 21  1  0  0  0
 19 22  1  0  0  0
 14 17  1  0  0  0
M  END
> <minimizedAffinity>
-8.00453

$$$$
2RD6_78P_A_900


 22 24  0  0  0  0  0  0  0  0999 V2000
   26.7975   64.8181    8.2791 C   0  0  0  0  0  0  0  0  0  0  0  0
   27.0103   65.4351    9.5408 C   0  0  0  0  0  0  0  0  0  0  0  0
   25.9221   66.1239   10.1551 C   0  0  0  0  0  0  0  0  0  0  0  0
   26.8536   63.7538    6.3667 C   0  0  0  0  0  0  0  0  0  0  0  0
   24.6474   66.1919    9.5172 C   0  0  0  0  0  0  0  0  0  0  0  0
   24.4471   65.5705    8.2614 C   0  0  0  0  0  0  0  0  0  0  0  0
   25.4977   64.8902    7.6422 C   0  0  0  0  0  0  0  0  0  0  0  0
   25.5881   64.2063    6.4474 N   0  0  0  0  0  0  0  0  0  0  0  0
   27.6039   64.0892    7.4223 N   0  0  0  0  0  0  0  0  0  0  0  0
   28.5510   63.8606    7.5631 H   0  0  0  0  0  0  0  0  0  0  0  0
   27.3982   62.9306    5.1837 C   0  0  0  0  0  0  0  0  0  0  0  0
   29.3779   63.9016    4.2520 C   0  0  0  0  0  0  0  0  0  0  0  0
   27.0280   63.5862    3.8559 C   0  0  0  0  0  0  0  0  0  0  0  0
   28.8826   62.8992    5.2062 N   0  0  0  0  0  0  0  0  0  0  0  0
   28.1672   64.5627    3.6030 C   0  0  0  0  0  0  0  0  0  0  0  0
   26.8363   61.5147    5.3234 C   0  0  0  0  0  0  0  0  0  0  0  0
   29.2124   61.9726    4.9360 H   0  0  0  0  0  0  0  0  0  0  0  0
   28.3219   65.3990   10.2789 C   0  0  0  0  0  0  0  0  0  0  0  0
   28.5769   66.4064   11.1277 N   0  0  0  0  0  0  0  0  0  0  0  0
   29.1581   64.5170   10.1285 O   0  0  0  0  0  0  0  0  0  0  0  0
   27.9125   67.1213   11.2570 H   0  0  0  0  0  0  0  0  0  0  0  0
   29.4285   66.4307   11.6211 H   0  0  0  0  0  0  0  0  0  0  0  0
 16 11  1  0  0  0
 11 13  1  0  0  0
 11 14  1  0  0  0
 11  4  1  0  0  0
 13 15  1  0  0  0
 14 12  1  0  0  0
  8  4  2  0  0  0
  8  7  1  0  0  0
  4  9  1  0  0  0
 12 15  1  0  0  0
  9  1  1  0  0  0
  7  6  2  0  0  0
  7  1  1  0  0  0
  6  5  1  0  0  0
  1  2  2  0  0  0
  5  3  2  0  0  0
  2  3  1  0  0  0
  2 18  1  0  0  0
 19 18  1  0  0  0
 18 20  2  0  0  0
  9 10  1  0  0  0
 19 21  1  0  0  0
 19 22  1  0  0  0
 14 17  1  0  0  0
M  END
> <minimizedAffinity>
-7.65016

$$$$
2RD6_78P_A_900


 22 24  0  0  0  0  0  0  0  0999 V2000
   26.2270   65.1219    8.7744 C   0  0  0  0  0  0  0  0  0  0  0  0
   27.4665   64.6210    8.2941 C   0  0  0  0  0  0  0  0  0  0  0  0
   28.6338   64.8107    9.0924 C   0  0  0  0  0  0  0  0  0  0  0  0
   24.1653   65.7394    9.1760 C   0  0  0  0  0  0  0  0  0  0  0  0
   28.5591   65.4883   10.3461 C   0  0  0  0  0  0  0  0  0  0  0  0
   27.3175   65.9802   10.8152 C   0  0  0  0  0  0  0  0  0  0  0  0
   26.1621   65.8051   10.0509 C   0  0  0  0  0  0  0  0  0  0  0  0
   24.8472   66.1701   10.2541 N   0  0  0  0  0  0  0  0  0  0  0  0
   24.9353   65.1160    8.2770 N   0  0  0  0  0  0  0  0  0  0  0  0
   24.6391   64.7265    7.4228 H   0  0  0  0  0  0  0  0  0  0  0  0
   22.6497   65.9367    8.9825 C   0  0  0  0  0  0  0  0  0  0  0  0
   21.3695   64.4789   10.3847 C   0  0  0  0  0  0  0  0  0  0  0  0
   22.0689   64.8260    8.1112 C   0  0  0  0  0  0  0  0  0  0  0  0
   21.9372   65.8308   10.2809 N   0  0  0  0  0  0  0  0  0  0  0  0
   21.7227   63.7278    9.1059 C   0  0  0  0  0  0  0  0  0  0  0  0
   22.4496   67.3288    8.3806 C   0  0  0  0  0  0  0  0  0  0  0  0
   21.1894   66.5233   10.3219 H   0  0  0  0  0  0  0  0  0  0  0  0
   27.6232   63.8891    6.9880 C   0  0  0  0  0  0  0  0  0  0  0  0
   28.8006   64.0067    6.3554 N   0  0  0  0  0  0  0  0  0  0  0  0
   26.7344   63.2182    6.4782 O   0  0  0  0  0  0  0  0  0  0  0  0
   29.5227   64.5433    6.7552 H   0  0  0  0  0  0  0  0  0  0  0  0
   28.9424   63.5565    5.4914 H   0  0  0  0  0  0  0  0  0  0  0  0
 16 11  1  0  0  0
 11 13  1  0  0  0
 11 14  1  0  0  0
 11  4  1  0  0  0
 13 15  1  0  0  0
 14 12  1  0  0  0
  8  4  2  0  0  0
  8  7  1  0  0  0
  4  9  1  0  0  0
 12 15  1  0  0  0
  9  1  1  0  0  0
  7  6  2  0  0  0
  7  1  1  0  0  0
  6  5  1  0  0  0
  1  2  2  0  0  0
  5  3  2  0  0  0
  2  3  1  0  0  0
  2 18  1  0  0  0
 19 18  1  0  0  0
 18 20  2  0  0  0
  9 10  1  0  0  0
 19 21  1  0  0  0
 19 22  1  0  0  0
 14 17  1  0  0  0
M  END
> <minimizedAffinity>
-7.57972

$$$$
2RD6_78P_A_900


 22 24  0  0  0  0  0  0  0  0999 V2000
   26.1653   65.1517    8.8681 C   0  0  0  0  0  0  0  0  0  0  0  0
   27.2201   65.5562    9.7294 C   0  0  0  0  0  0  0  0  0  0  0  0
   26.9290   66.4819   10.7755 C   0  0  0  0  0  0  0  0  0  0  0  0
   24.8205   64.3016    7.3641 C   0  0  0  0  0  0  0  0  0  0  0  0
   25.6078   66.9906   10.9540 C   0  0  0  0  0  0  0  0  0  0  0  0
   24.5646   66.5775   10.0911 C   0  0  0  0  0  0  0  0  0  0  0  0
   24.8264   65.6718    9.0610 C   0  0  0  0  0  0  0  0  0  0  0  0
   24.0233   65.1059    8.0924 N   0  0  0  0  0  0  0  0  0  0  0  0
   26.0909   64.2955    7.7831 N   0  0  0  0  0  0  0  0  0  0  0  0
   26.8331   63.7794    7.3932 H   0  0  0  0  0  0  0  0  0  0  0  0
   24.3333   63.4652    6.1655 C   0  0  0  0  0  0  0  0  0  0  0  0
   24.9921   64.4267    4.0746 C   0  0  0  0  0  0  0  0  0  0  0  0
   23.1035   64.1053    5.5266 C   0  0  0  0  0  0  0  0  0  0  0  0
   25.3616   63.4350    5.0948 N   0  0  0  0  0  0  0  0  0  0  0  0
   23.6863   65.0796    4.5135 C   0  0  0  0  0  0  0  0  0  0  0  0
   24.0650   62.0506    6.6822 C   0  0  0  0  0  0  0  0  0  0  0  0
   25.3968   62.5056    4.6760 H   0  0  0  0  0  0  0  0  0  0  0  0
   28.6354   65.0575    9.6098 C   0  0  0  0  0  0  0  0  0  0  0  0
   29.4572   65.2874   10.6452 N   0  0  0  0  0  0  0  0  0  0  0  0
   29.0666   64.4779    8.6208 O   0  0  0  0  0  0  0  0  0  0  0  0
   29.1222   65.7524   11.4457 H   0  0  0  0  0  0  0  0  0  0  0  0
   30.3952   64.9910   10.6045 H   0  0  0  0  0  0  0  0  0  0  0  0
 16 11  1  0  0  0
 11 13  1  0  0  0
 11 14  1  0  0  0
 11  4  1  0  0  0
 13 15  1  0  0  0
 14 12  1  0  0  0
  8  4  2  0  0  0
  8  7  1  0  0  0
  4  9  1  0  0  0
 12 15  1  0  0  0
  9  1  1  0  0  0
  7  6  2  0  0  0
  7  1  1  0  0  0
  6  5  1  0  0  0
  1  2  2  0  0  0
  5  3  2  0  0  0
  2  3  1  0  0  0
  2 18  1  0  0  0
 19 18  1  0  0  0
 18 20  2  0  0  0
  9 10  1  0  0  0
 19 21  1  0  0  0
 19 22  1  0  0  0
 14 17  1  0  0  0
M  END
> <minimizedAffinity>
-7.55090

$$$$
2RD6_78P_A_900


 22 24  0  0  0  0  0  0  0  0999 V2000
   23.9534   65.6782    7.8832 C   0  0  0  0  0  0  0  0  0  0  0  0
   24.7188   64.8689    7.0017 C   0  0  0  0  0  0  0  0  0  0  0  0
   26.0384   64.4935    7.3936 C   0  0  0  0  0  0  0  0  0  0  0  0
   22.4879   66.8965    8.9609 C   0  0  0  0  0  0  0  0  0  0  0  0
   26.5785   64.9207    8.6435 C   0  0  0  0  0  0  0  0  0  0  0  0
   25.8048   65.7245    9.5145 C   0  0  0  0  0  0  0  0  0  0  0  0
   24.5106   66.1031    9.1518 C   0  0  0  0  0  0  0  0  0  0  0  0
   23.5503   66.8629    9.7874 N   0  0  0  0  0  0  0  0  0  0  0  0
   22.6780   66.2130    7.8268 N   0  0  0  0  0  0  0  0  0  0  0  0
   22.0324   66.1097    7.0907 H   0  0  0  0  0  0  0  0  0  0  0  0
   21.1773   67.6426    9.2757 C   0  0  0  0  0  0  0  0  0  0  0  0
   19.9591   66.6034   11.0550 C   0  0  0  0  0  0  0  0  0  0  0  0
   19.9822   66.9104    8.6710 C   0  0  0  0  0  0  0  0  0  0  0  0
   20.9252   67.6651   10.7388 N   0  0  0  0  0  0  0  0  0  0  0  0
   19.5847   65.9125    9.7487 C   0  0  0  0  0  0  0  0  0  0  0  0
   21.3312   69.0683    8.7429 C   0  0  0  0  0  0  0  0  0  0  0  0
   20.5432   68.5713   11.0095 H   0  0  0  0  0  0  0  0  0  0  0  0
   24.2155   64.3723    5.6727 C   0  0  0  0  0  0  0  0  0  0  0  0
   24.9224   63.4034    5.0713 N   0  0  0  0  0  0  0  0  0  0  0  0
   23.2182   64.8175    5.1184 O   0  0  0  0  0  0  0  0  0  0  0  0
   25.7259   63.0375    5.5069 H   0  0  0  0  0  0  0  0  0  0  0  0
   24.6376   63.0583    4.1943 H   0  0  0  0  0  0  0  0  0  0  0  0
 16 11  1  0  0  0
 11 13  1  0  0  0
 11 14  1  0  0  0
 11  4  1  0  0  0
 13 15  1  0  0  0
 14 12  1  0  0  0
  8  4  2  0  0  0
  8  7  1  0  0  0
  4  9  1  0  0  0
 12 15  1  0  0  0
  9  1  1  0  0  0
  7  6  2  0  0  0
  7  1  1  0  0  0
  6  5  1  0  0  0
  1  2  2  0  0  0
  5  3  2  0  0  0
  2  3  1  0  0  0
  2 18  1  0  0  0
 19 18  1  0  0  0
 18 20  2  0  0  0
  9 10  1  0  0  0
 19 21  1  0  0  0
 19 22  1  0  0  0
 14 17  1  0  0  0
M  END
> <minimizedAffinity>
-7.15702

$$$$
2RD6_78P_A_900


 22 24  0  0  0  0  0  0  0  0999 V2000
   25.9302   65.1618    8.6632 C   0  0  0  0  0  0  0  0  0  0  0  0
   27.2785   65.1000    9.1063 C   0  0  0  0  0  0  0  0  0  0  0  0
   28.2404   64.4526    8.2748 C   0  0  0  0  0  0  0  0  0  0  0  0
   23.7877   65.4568    8.3227 C   0  0  0  0  0  0  0  0  0  0  0  0
   27.8579   63.8797    7.0251 C   0  0  0  0  0  0  0  0  0  0  0  0
   26.5119   63.9504    6.5931 C   0  0  0  0  0  0  0  0  0  0  0  0
   25.5538   64.5799    7.3903 C   0  0  0  0  0  0  0  0  0  0  0  0
   24.2008   64.7937    7.2261 N   0  0  0  0  0  0  0  0  0  0  0  0
   24.7709   65.6963    9.1978 N   0  0  0  0  0  0  0  0  0  0  0  0
   24.6858   66.1646   10.0596 H   0  0  0  0  0  0  0  0  0  0  0  0
   22.3322   65.9022    8.5605 C   0  0  0  0  0  0  0  0  0  0  0  0
   21.2823   64.6412   10.3035 C   0  0  0  0  0  0  0  0  0  0  0  0
   21.3567   64.9202    7.9171 C   0  0  0  0  0  0  0  0  0  0  0  0
   22.0088   65.8848   10.0097 N   0  0  0  0  0  0  0  0  0  0  0  0
   21.1326   63.8712    8.9963 C   0  0  0  0  0  0  0  0  0  0  0  0
   22.1986   67.3212    8.0050 C   0  0  0  0  0  0  0  0  0  0  0  0
   21.4258   66.6886   10.2429 H   0  0  0  0  0  0  0  0  0  0  0  0
   27.7595   65.6879   10.4060 C   0  0  0  0  0  0  0  0  0  0  0  0
   29.0062   65.3805   10.7951 N   0  0  0  0  0  0  0  0  0  0  0  0
   27.0701   66.4063   11.1191 O   0  0  0  0  0  0  0  0  0  0  0  0
   29.5700   64.8039   10.2304 H   0  0  0  0  0  0  0  0  0  0  0  0
   29.3573   65.7316   11.6453 H   0  0  0  0  0  0  0  0  0  0  0  0
 16 11  1  0  0  0
 11 13  1  0  0  0
 11 14  1  0  0  0
 11  4  1  0  0  0
 13 15  1  0  0  0
 14 12  1  0  0  0
  8  4  2  0  0  0
  8  7  1  0  0  0
  4  9  1  0  0  0
 12 15  1  0  0  0
  9  1  1  0  0  0
  7  6  2  0  0  0
  7  1  1  0  0  0
  6  5  1  0  0  0
  1  2  2  0  0  0
  5  3  2  0  0  0
  2  3  1  0  0  0
  2 18  1  0  0  0
 19 18  1  0  0  0
 18 20  2  0  0  0
  9 10  1  0  0  0
 19 21  1  0  0  0
 19 22  1  0  0  0
 14 17  1  0  0  0
M  END
> <minimizedAffinity>
-7.10129

$$$$
