5VL2_9EG_A_201


 21 22  0  0  0  0  0  0  0  0999 V2000
  -37.7097   21.8972   -0.0181 C   0  0  0  0  0  0  0  0  0  0  0  0
  -38.9460   21.8678    0.5108 N   0  0  0  0  0  0  0  0  0  0  0  0
  -37.0422   20.7072    0.1074 N   0  0  0  0  0  0  0  0  0  0  0  0
  -37.2370   22.8892   -0.5521 O   0  0  0  0  0  0  0  0  0  0  0  0
  -39.2085   21.0204    0.9376 H   0  0  0  0  0  0  0  0  0  0  0  0
  -37.5445   19.9918    0.5603 H   0  0  0  0  0  0  0  0  0  0  0  0
  -41.1255   22.4740    0.9900 C   0  0  0  0  0  0  0  0  0  0  0  0
  -39.8850   22.8595    0.5336 C   0  0  0  0  0  0  0  0  0  0  0  0
  -43.7515   22.8474    1.6365 Cl  0  0  0  0  0  0  0  0  0  0  0  0
  -42.1638   23.3828    1.0309 C   0  0  0  0  0  0  0  0  0  0  0  0
  -41.9976   24.6759    0.6221 C   0  0  0  0  0  0  0  0  0  0  0  0
  -40.7765   25.0920    0.1435 C   0  0  0  0  0  0  0  0  0  0  0  0
  -39.7268   24.1981    0.0830 C   0  0  0  0  0  0  0  0  0  0  0  0
  -43.4030   25.8085    0.7167 Cl  0  0  0  0  0  0  0  0  0  0  0  0
  -31.4608   19.2952   -1.3831 Cl  0  0  0  0  0  0  0  0  0  0  0  0
  -35.7885   20.3649   -0.2999 C   0  0  0  0  0  0  0  0  0  0  0  0
  -35.2016   20.8340   -1.4762 C   0  0  0  0  0  0  0  0  0  0  0  0
  -33.9058   20.4991   -1.7884 C   0  0  0  0  0  0  0  0  0  0  0  0
  -33.1630   19.6820   -0.9466 C   0  0  0  0  0  0  0  0  0  0  0  0
  -33.7244   19.2227    0.2479 C   0  0  0  0  0  0  0  0  0  0  0  0
  -35.0388   19.5544    0.5552 C   0  0  0  0  0  0  0  0  0  0  0  0
 18 17  2  0  0  0
 18 19  1  0  0  0
 15 19  1  0  0  0
 17 16  1  0  0  0
 19 20  2  0  0  0
  4  1  2  0  0  0
 16  3  1  0  0  0
 16 21  2  0  0  0
 12 13  2  0  0  0
 12 11  1  0  0  0
  1  3  1  0  0  0
  1  2  1  0  0  0
 13  8  1  0  0  0
 20 21  1  0  0  0
 14 11  1  0  0  0
 11 10  2  0  0  0
  8  2  1  0  0  0
  8  7  2  0  0  0
 10  7  1  0  0  0
 10  9  1  0  0  0
  2  5  1  0  0  0
  3  6  1  0  0  0
M  END
> <minimizedAffinity>
-10.42840

$$$$
5VL2_9EG_A_201


 21 22  0  0  0  0  0  0  0  0999 V2000
  -38.1579   22.1818   -0.0955 C   0  0  0  0  0  0  0  0  0  0  0  0
  -37.6239   21.0161   -0.5016 N   0  0  0  0  0  0  0  0  0  0  0  0
  -39.5240   22.1428    0.0028 N   0  0  0  0  0  0  0  0  0  0  0  0
  -37.4860   23.1708    0.1556 O   0  0  0  0  0  0  0  0  0  0  0  0
  -38.2667   20.2970   -0.6989 H   0  0  0  0  0  0  0  0  0  0  0  0
  -39.9355   21.2795   -0.2309 H   0  0  0  0  0  0  0  0  0  0  0  0
  -35.7880   19.8363    0.2633 C   0  0  0  0  0  0  0  0  0  0  0  0
  -36.3069   20.6991   -0.6761 C   0  0  0  0  0  0  0  0  0  0  0  0
  -33.8281   18.3409    1.4361 Cl  0  0  0  0  0  0  0  0  0  0  0  0
  -34.4593   19.4662    0.2076 C   0  0  0  0  0  0  0  0  0  0  0  0
  -33.6261   19.9402   -0.7661 C   0  0  0  0  0  0  0  0  0  0  0  0
  -34.1056   20.8180   -1.7111 C   0  0  0  0  0  0  0  0  0  0  0  0
  -35.4279   21.2107   -1.6688 C   0  0  0  0  0  0  0  0  0  0  0  0
  -31.9014   19.3998   -0.7778 Cl  0  0  0  0  0  0  0  0  0  0  0  0
  -43.5781   26.2245    1.5101 Cl  0  0  0  0  0  0  0  0  0  0  0  0
  -40.3984   23.1183    0.3751 C   0  0  0  0  0  0  0  0  0  0  0  0
  -40.2424   24.4653    0.0442 C   0  0  0  0  0  0  0  0  0  0  0  0
  -41.2019   25.3837    0.3971 C   0  0  0  0  0  0  0  0  0  0  0  0
  -42.3355   24.9907    1.0961 C   0  0  0  0  0  0  0  0  0  0  0  0
  -42.5220   23.6429    1.4147 C   0  0  0  0  0  0  0  0  0  0  0  0
  -41.5444   22.7184    1.0658 C   0  0  0  0  0  0  0  0  0  0  0  0
 18 17  2  0  0  0
 18 19  1  0  0  0
 15 19  1  0  0  0
 17 16  1  0  0  0
 19 20  2  0  0  0
  4  1  2  0  0  0
 16  3  1  0  0  0
 16 21  2  0  0  0
 12 13  2  0  0  0
 12 11  1  0  0  0
  1  3  1  0  0  0
  1  2  1  0  0  0
 13  8  1  0  0  0
 20 21  1  0  0  0
 14 11  1  0  0  0
 11 10  2  0  0  0
  8  2  1  0  0  0
  8  7  2  0  0  0
 10  7  1  0  0  0
 10  9  1  0  0  0
  2  5  1  0  0  0
  3  6  1  0  0  0
M  END
> <minimizedAffinity>
-10.21039

$$$$
5VL2_9EG_A_201


 21 22  0  0  0  0  0  0  0  0999 V2000
  -38.2659   22.0818   -0.1282 C   0  0  0  0  0  0  0  0  0  0  0  0
  -39.5078   22.3108   -0.5909 N   0  0  0  0  0  0  0  0  0  0  0  0
  -37.5219   21.2828   -0.9562 N   0  0  0  0  0  0  0  0  0  0  0  0
  -37.8521   22.5414    0.9255 O   0  0  0  0  0  0  0  0  0  0  0  0
  -39.7370   21.8664   -1.4389 H   0  0  0  0  0  0  0  0  0  0  0  0
  -37.9826   20.9834   -1.7731 H   0  0  0  0  0  0  0  0  0  0  0  0
  -40.4235   24.4199   -0.3440 C   0  0  0  0  0  0  0  0  0  0  0  0
  -40.4928   23.0791   -0.0385 C   0  0  0  0  0  0  0  0  0  0  0  0
  -41.2298   27.0262   -0.2460 Cl  0  0  0  0  0  0  0  0  0  0  0  0
  -41.3481   25.3005    0.1805 C   0  0  0  0  0  0  0  0  0  0  0  0
  -42.3465   24.8768    1.0116 C   0  0  0  0  0  0  0  0  0  0  0  0
  -42.4362   23.5468    1.3528 C   0  0  0  0  0  0  0  0  0  0  0  0
  -41.5163   22.6498    0.8493 C   0  0  0  0  0  0  0  0  0  0  0  0
  -43.5252   26.0899    1.6487 Cl  0  0  0  0  0  0  0  0  0  0  0  0
  -31.9271   19.2867   -0.6706 Cl  0  0  0  0  0  0  0  0  0  0  0  0
  -36.2411   20.8404   -0.8195 C   0  0  0  0  0  0  0  0  0  0  0  0
  -35.8429   19.9059    0.1377 C   0  0  0  0  0  0  0  0  0  0  0  0
  -34.5450   19.4553    0.1720 C   0  0  0  0  0  0  0  0  0  0  0  0
  -33.6069   19.9282   -0.7360 C   0  0  0  0  0  0  0  0  0  0  0  0
  -33.9920   20.8453   -1.7177 C   0  0  0  0  0  0  0  0  0  0  0  0
  -35.3028   21.3070   -1.7426 C   0  0  0  0  0  0  0  0  0  0  0  0
 18 17  2  0  0  0
 18 19  1  0  0  0
 15 19  1  0  0  0
 17 16  1  0  0  0
 19 20  2  0  0  0
  4  1  2  0  0  0
 16  3  1  0  0  0
 16 21  2  0  0  0
 12 13  2  0  0  0
 12 11  1  0  0  0
  1  3  1  0  0  0
  1  2  1  0  0  0
 13  8  1  0  0  0
 20 21  1  0  0  0
 14 11  1  0  0  0
 11 10  2  0  0  0
  8  2  1  0  0  0
  8  7  2  0  0  0
 10  7  1  0  0  0
 10  9  1  0  0  0
  2  5  1  0  0  0
  3  6  1  0  0  0
M  END
> <minimizedAffinity>
-9.53301

$$$$
5VL2_9EG_A_201


 21 22  0  0  0  0  0  0  0  0999 V2000
  -38.4008   22.1931    0.1734 C   0  0  0  0  0  0  0  0  0  0  0  0
  -37.8900   21.0388   -0.2912 N   0  0  0  0  0  0  0  0  0  0  0  0
  -39.7593   22.2815    0.0183 N   0  0  0  0  0  0  0  0  0  0  0  0
  -37.7155   23.0693    0.6786 O   0  0  0  0  0  0  0  0  0  0  0  0
  -38.5364   20.4193   -0.7006 H   0  0  0  0  0  0  0  0  0  0  0  0
  -40.1835   21.5006   -0.4055 H   0  0  0  0  0  0  0  0  0  0  0  0
  -35.7854   21.1614   -1.2413 C   0  0  0  0  0  0  0  0  0  0  0  0
  -36.5923   20.6135   -0.2695 C   0  0  0  0  0  0  0  0  0  0  0  0
  -33.4470   21.5241   -2.6027 Cl  0  0  0  0  0  0  0  0  0  0  0  0
  -34.4606   20.7855   -1.3374 C   0  0  0  0  0  0  0  0  0  0  0  0
  -33.9152   19.8672   -0.4853 C   0  0  0  0  0  0  0  0  0  0  0  0
  -34.6961   19.2855    0.4870 C   0  0  0  0  0  0  0  0  0  0  0  0
  -36.0260   19.6378    0.5950 C   0  0  0  0  0  0  0  0  0  0  0  0
  -32.1696   19.4355   -0.6686 Cl  0  0  0  0  0  0  0  0  0  0  0  0
  -43.7207   26.4910    1.4165 Cl  0  0  0  0  0  0  0  0  0  0  0  0
  -40.6113   23.2869    0.3619 C   0  0  0  0  0  0  0  0  0  0  0  0
  -40.4484   24.6124   -0.0440 C   0  0  0  0  0  0  0  0  0  0  0  0
  -41.3867   25.5610    0.2856 C   0  0  0  0  0  0  0  0  0  0  0  0
  -42.5050   25.2206    1.0349 C   0  0  0  0  0  0  0  0  0  0  0  0
  -42.6987   23.8940    1.4294 C   0  0  0  0  0  0  0  0  0  0  0  0
  -41.7423   22.9394    1.1037 C   0  0  0  0  0  0  0  0  0  0  0  0
 18 17  2  0  0  0
 18 19  1  0  0  0
 15 19  1  0  0  0
 17 16  1  0  0  0
 19 20  2  0  0  0
  4  1  2  0  0  0
 16  3  1  0  0  0
 16 21  2  0  0  0
 12 13  2  0  0  0
 12 11  1  0  0  0
  1  3  1  0  0  0
  1  2  1  0  0  0
 13  8  1  0  0  0
 20 21  1  0  0  0
 14 11  1  0  0  0
 11 10  2  0  0  0
  8  2  1  0  0  0
  8  7  2  0  0  0
 10  7  1  0  0  0
 10  9  1  0  0  0
  2  5  1  0  0  0
  3  6  1  0  0  0
M  END
> <minimizedAffinity>
-9.22670

$$$$
5VL2_9EG_A_201


 21 22  0  0  0  0  0  0  0  0999 V2000
  -39.2646   22.3176    0.2369 C   0  0  0  0  0  0  0  0  0  0  0  0
  -38.3147   21.9994   -0.6606 N   0  0  0  0  0  0  0  0  0  0  0  0
  -40.3424   22.9525   -0.3224 N   0  0  0  0  0  0  0  0  0  0  0  0
  -39.1671   22.0648    1.4282 O   0  0  0  0  0  0  0  0  0  0  0  0
  -38.4927   22.2767   -1.5883 H   0  0  0  0  0  0  0  0  0  0  0  0
  -40.2869   23.0918   -1.2954 H   0  0  0  0  0  0  0  0  0  0  0  0
  -36.1115   21.7066   -1.2991 C   0  0  0  0  0  0  0  0  0  0  0  0
  -37.1354   21.3421   -0.4537 C   0  0  0  0  0  0  0  0  0  0  0  0
  -33.5784   21.5959   -2.3109 Cl  0  0  0  0  0  0  0  0  0  0  0  0
  -34.8802   21.0898   -1.2049 C   0  0  0  0  0  0  0  0  0  0  0  0
  -34.6415   20.1083   -0.2847 C   0  0  0  0  0  0  0  0  0  0  0  0
  -35.6464   19.7060    0.5648 C   0  0  0  0  0  0  0  0  0  0  0  0
  -36.8889   20.3007    0.4816 C   0  0  0  0  0  0  0  0  0  0  0  0
  -32.9991   19.3568   -0.2166 Cl  0  0  0  0  0  0  0  0  0  0  0  0
  -45.4648   24.7569    2.1009 Cl  0  0  0  0  0  0  0  0  0  0  0  0
  -41.4788   23.4198    0.2649 C   0  0  0  0  0  0  0  0  0  0  0  0
  -41.8962   24.7499    0.1945 C   0  0  0  0  0  0  0  0  0  0  0  0
  -43.0905   25.1346    0.7550 C   0  0  0  0  0  0  0  0  0  0  0  0
  -43.8961   24.2117    1.4085 C   0  0  0  0  0  0  0  0  0  0  0  0
  -43.5077   22.8705    1.4680 C   0  0  0  0  0  0  0  0  0  0  0  0
  -42.2941   22.4869    0.9095 C   0  0  0  0  0  0  0  0  0  0  0  0
 18 17  2  0  0  0
 18 19  1  0  0  0
 15 19  1  0  0  0
 17 16  1  0  0  0
 19 20  2  0  0  0
  4  1  2  0  0  0
 16  3  1  0  0  0
 16 21  2  0  0  0
 12 13  2  0  0  0
 12 11  1  0  0  0
  1  3  1  0  0  0
  1  2  1  0  0  0
 13  8  1  0  0  0
 20 21  1  0  0  0
 14 11  1  0  0  0
 11 10  2  0  0  0
  8  2  1  0  0  0
  8  7  2  0  0  0
 10  7  1  0  0  0
 10  9  1  0  0  0
  2  5  1  0  0  0
  3  6  1  0  0  0
M  END
> <minimizedAffinity>
-8.75426

$$$$
5VL2_9EG_A_201


 21 22  0  0  0  0  0  0  0  0999 V2000
  -39.6007   23.2384    0.0881 C   0  0  0  0  0  0  0  0  0  0  0  0
  -40.2591   24.3796   -0.1826 N   0  0  0  0  0  0  0  0  0  0  0  0
  -38.3931   23.1487   -0.5532 N   0  0  0  0  0  0  0  0  0  0  0  0
  -40.0429   22.3740    0.8296 O   0  0  0  0  0  0  0  0  0  0  0  0
  -39.8151   24.9898   -0.8148 H   0  0  0  0  0  0  0  0  0  0  0  0
  -38.1629   23.9194   -1.1208 H   0  0  0  0  0  0  0  0  0  0  0  0
  -41.4106   25.9501    1.0643 C   0  0  0  0  0  0  0  0  0  0  0  0
  -41.4628   24.8029    0.3046 C   0  0  0  0  0  0  0  0  0  0  0  0
  -42.4527   27.9496    2.6035 Cl  0  0  0  0  0  0  0  0  0  0  0  0
  -42.5604   26.4582    1.6350 C   0  0  0  0  0  0  0  0  0  0  0  0
  -43.7705   25.8457    1.4698 C   0  0  0  0  0  0  0  0  0  0  0  0
  -43.8577   24.6877    0.7316 C   0  0  0  0  0  0  0  0  0  0  0  0
  -42.7197   24.1552    0.1608 C   0  0  0  0  0  0  0  0  0  0  0  0
  -45.2320   26.5790    2.2399 Cl  0  0  0  0  0  0  0  0  0  0  0  0
  -34.2134   18.9364   -0.1609 Cl  0  0  0  0  0  0  0  0  0  0  0  0
  -37.4634   22.1539   -0.5237 C   0  0  0  0  0  0  0  0  0  0  0  0
  -36.6648   21.8080   -1.6150 C   0  0  0  0  0  0  0  0  0  0  0  0
  -35.6996   20.8376   -1.4906 C   0  0  0  0  0  0  0  0  0  0  0  0
  -35.5092   20.1787   -0.2833 C   0  0  0  0  0  0  0  0  0  0  0  0
  -36.2818   20.5282    0.8276 C   0  0  0  0  0  0  0  0  0  0  0  0
  -37.2644   21.5024    0.6953 C   0  0  0  0  0  0  0  0  0  0  0  0
 18 17  2  0  0  0
 18 19  1  0  0  0
 15 19  1  0  0  0
 17 16  1  0  0  0
 19 20  2  0  0  0
  4  1  2  0  0  0
 16  3  1  0  0  0
 16 21  2  0  0  0
 12 13  2  0  0  0
 12 11  1  0  0  0
  1  3  1  0  0  0
  1  2  1  0  0  0
 13  8  1  0  0  0
 20 21  1  0  0  0
 14 11  1  0  0  0
 11 10  2  0  0  0
  8  2  1  0  0  0
  8  7  2  0  0  0
 10  7  1  0  0  0
 10  9  1  0  0  0
  2  5  1  0  0  0
  3  6  1  0  0  0
M  END
> <minimizedAffinity>
-7.67369

$$$$
