4DES_57D_A_201


 21 23  0  0  0  0  0  0  0  0999 V2000
   21.6005   -0.3486   -5.7553 C   0  0  0  0  0  0  0  0  0  0  0  0
   21.8022   -1.4880   -6.5253 C   0  0  0  0  0  0  0  0  0  0  0  0
   21.7377   -1.4049   -7.9052 C   0  0  0  0  0  0  0  0  0  0  0  0
   21.4718   -0.1757   -8.4846 C   0  0  0  0  0  0  0  0  0  0  0  0
   21.4021   -0.0640   -9.8687 C   0  0  0  0  0  0  0  0  0  0  0  0
   21.1348    1.1673  -10.4548 C   0  0  0  0  0  0  0  0  0  0  0  0
   20.9396    2.2855   -9.6534 C   0  0  0  0  0  0  0  0  0  0  0  0
   21.0098    2.1702   -8.2702 C   0  0  0  0  0  0  0  0  0  0  0  0
   21.2761    0.9409   -7.6781 C   0  0  0  0  0  0  0  0  0  0  0  0
   21.3372    0.8707   -6.3149 O   0  0  0  0  0  0  0  0  0  0  0  0
   21.9132   -2.4028   -8.6024 O   0  0  0  0  0  0  0  0  0  0  0  0
   21.5934   -1.1610  -10.6494 O   0  0  0  0  0  0  0  0  0  0  0  0
   20.6783    3.4930  -10.2235 O   0  0  0  0  0  0  0  0  0  0  0  0
   21.7736   -1.9914  -10.2545 H   0  0  0  0  0  0  0  0  0  0  0  0
   20.6310    3.5704  -11.1561 H   0  0  0  0  0  0  0  0  0  0  0  0
   20.8444    0.3342   -3.5742 C   0  0  0  0  0  0  0  0  0  0  0  0
   20.9130    0.2314   -2.1896 C   0  0  0  0  0  0  0  0  0  0  0  0
   21.8071   -0.6563   -1.6014 C   0  0  0  0  0  0  0  0  0  0  0  0
   22.6318   -1.4414   -2.3988 C   0  0  0  0  0  0  0  0  0  0  0  0
   22.5631   -1.3386   -3.7833 C   0  0  0  0  0  0  0  0  0  0  0  0
   21.6692   -0.4514   -4.3707 C   0  0  0  0  0  0  0  0  0  0  0  0
  1  2  2  0  0  0
  1 10  1  0  0  0
  1 21  1  0  0  0
  2  3  1  0  0  0
  3  4  1  0  0  0
  3 11  2  0  0  0
  4  5  2  0  0  0
  4  9  1  0  0  0
  5  6  1  0  0  0
  5 12  1  0  0  0
  6  7  2  0  0  0
  7  8  1  0  0  0
  7 13  1  0  0  0
  8  9  2  0  0  0
  9 10  1  0  0  0
 16 17  2  0  0  0
 16 21  1  0  0  0
 17 18  1  0  0  0
 18 19  2  0  0  0
 19 20  1  0  0  0
 20 21  2  0  0  0
 12 14  1  0  0  0
 13 15  1  0  0  0
M  END
> <minimizedAffinity>
-8.59970

$$$$
4DES_57D_A_201


 21 23  0  0  0  0  0  0  0  0999 V2000
   20.8888    0.3302   -5.7599 C   0  0  0  0  0  0  0  0  0  0  0  0
   20.6834    1.4719   -6.5254 C   0  0  0  0  0  0  0  0  0  0  0  0
   20.7430    1.3935   -7.9058 C   0  0  0  0  0  0  0  0  0  0  0  0
   21.0079    0.1664   -8.4902 C   0  0  0  0  0  0  0  0  0  0  0  0
   21.0728    0.0593   -9.8749 C   0  0  0  0  0  0  0  0  0  0  0  0
   21.3390   -1.1698  -10.4660 C   0  0  0  0  0  0  0  0  0  0  0  0
   21.5382   -2.2905   -9.6691 C   0  0  0  0  0  0  0  0  0  0  0  0
   21.4728   -2.1798   -8.2852 C   0  0  0  0  0  0  0  0  0  0  0  0
   21.2075   -0.9527   -7.6881 C   0  0  0  0  0  0  0  0  0  0  0  0
   21.1513   -0.8871   -6.3245 O   0  0  0  0  0  0  0  0  0  0  0  0
   20.5641    2.3934   -8.5991 O   0  0  0  0  0  0  0  0  0  0  0  0
   20.8777    1.1587  -10.6513 O   0  0  0  0  0  0  0  0  0  0  0  0
   21.7985   -3.4958  -10.2441 O   0  0  0  0  0  0  0  0  0  0  0  0
   20.6981    1.9876  -10.2530 H   0  0  0  0  0  0  0  0  0  0  0  0
   21.8425   -3.5701  -11.1771 H   0  0  0  0  0  0  0  0  0  0  0  0
   21.6630   -0.3493   -3.5840 C   0  0  0  0  0  0  0  0  0  0  0  0
   21.5992   -0.2511   -2.1989 C   0  0  0  0  0  0  0  0  0  0  0  0
   20.6969    0.6239   -1.6043 C   0  0  0  0  0  0  0  0  0  0  0  0
   19.8591    1.4010   -2.3959 C   0  0  0  0  0  0  0  0  0  0  0  0
   19.9229    1.3029   -3.7810 C   0  0  0  0  0  0  0  0  0  0  0  0
   20.8251    0.4283   -4.3748 C   0  0  0  0  0  0  0  0  0  0  0  0
  1  2  2  0  0  0
  1 10  1  0  0  0
  1 21  1  0  0  0
  2  3  1  0  0  0
  3  4  1  0  0  0
  3 11  2  0  0  0
  4  5  2  0  0  0
  4  9  1  0  0  0
  5  6  1  0  0  0
  5 12  1  0  0  0
  6  7  2  0  0  0
  7  8  1  0  0  0
  7 13  1  0  0  0
  8  9  2  0  0  0
  9 10  1  0  0  0
 16 17  2  0  0  0
 16 21  1  0  0  0
 17 18  1  0  0  0
 18 19  2  0  0  0
 19 20  1  0  0  0
 20 21  2  0  0  0
 12 14  1  0  0  0
 13 15  1  0  0  0
M  END
> <minimizedAffinity>
-8.59026

$$$$
4DES_57D_A_201


 21 23  0  0  0  0  0  0  0  0999 V2000
   21.0612    0.2916   -5.6856 C   0  0  0  0  0  0  0  0  0  0  0  0
   21.0207    1.4576   -6.4411 C   0  0  0  0  0  0  0  0  0  0  0  0
   21.1130    1.3863   -7.8201 C   0  0  0  0  0  0  0  0  0  0  0  0
   21.2439    0.1419   -8.4132 C   0  0  0  0  0  0  0  0  0  0  0  0
   21.3381    0.0416   -9.7968 C   0  0  0  0  0  0  0  0  0  0  0  0
   21.4703   -1.2049  -10.3966 C   0  0  0  0  0  0  0  0  0  0  0  0
   21.5061   -2.3494   -9.6096 C   0  0  0  0  0  0  0  0  0  0  0  0
   21.4119   -2.2455   -8.2269 C   0  0  0  0  0  0  0  0  0  0  0  0
   21.2802   -1.0012   -7.6211 C   0  0  0  0  0  0  0  0  0  0  0  0
   21.1902   -0.9429   -6.2589 O   0  0  0  0  0  0  0  0  0  0  0  0
   21.0793    2.4075   -8.5045 O   0  0  0  0  0  0  0  0  0  0  0  0
   21.3030    1.1644  -10.5633 O   0  0  0  0  0  0  0  0  0  0  0  0
   21.6348   -3.5718  -10.1932 O   0  0  0  0  0  0  0  0  0  0  0  0
   21.2138    2.0050  -10.1591 H   0  0  0  0  0  0  0  0  0  0  0  0
   21.6983   -3.6416  -11.1254 H   0  0  0  0  0  0  0  0  0  0  0  0
   20.0786    1.2822   -3.7238 C   0  0  0  0  0  0  0  0  0  0  0  0
   19.9844    1.3735   -2.3400 C   0  0  0  0  0  0  0  0  0  0  0  0
   20.7794    0.5663   -1.5338 C   0  0  0  0  0  0  0  0  0  0  0  0
   21.6678   -0.3325   -2.1126 C   0  0  0  0  0  0  0  0  0  0  0  0
   21.7620   -0.4239   -3.4965 C   0  0  0  0  0  0  0  0  0  0  0  0
   20.9671    0.3830   -4.3018 C   0  0  0  0  0  0  0  0  0  0  0  0
  1  2  2  0  0  0
  1 10  1  0  0  0
  1 21  1  0  0  0
  2  3  1  0  0  0
  3  4  1  0  0  0
  3 11  2  0  0  0
  4  5  2  0  0  0
  4  9  1  0  0  0
  5  6  1  0  0  0
  5 12  1  0  0  0
  6  7  2  0  0  0
  7  8  1  0  0  0
  7 13  1  0  0  0
  8  9  2  0  0  0
  9 10  1  0  0  0
 16 17  2  0  0  0
 16 21  1  0  0  0
 17 18  1  0  0  0
 18 19  2  0  0  0
 19 20  1  0  0  0
 20 21  2  0  0  0
 12 14  1  0  0  0
 13 15  1  0  0  0
M  END
> <minimizedAffinity>
-8.54729

$$$$
4DES_57D_A_201


 21 23  0  0  0  0  0  0  0  0999 V2000
   21.1882    0.0121   -5.9531 C   0  0  0  0  0  0  0  0  0  0  0  0
   20.3266    0.9041   -5.3258 C   0  0  0  0  0  0  0  0  0  0  0  0
   20.2713    0.9493   -3.9437 C   0  0  0  0  0  0  0  0  0  0  0  0
   21.0853    0.0956   -3.2185 C   0  0  0  0  0  0  0  0  0  0  0  0
   21.0502    0.1206   -1.8288 C   0  0  0  0  0  0  0  0  0  0  0  0
   21.8647   -0.7347   -1.0967 C   0  0  0  0  0  0  0  0  0  0  0  0
   22.7147   -1.6128   -1.7578 C   0  0  0  0  0  0  0  0  0  0  0  0
   22.7471   -1.6353   -3.1471 C   0  0  0  0  0  0  0  0  0  0  0  0
   21.9341   -0.7825   -3.8849 C   0  0  0  0  0  0  0  0  0  0  0  0
   21.9969   -0.8360   -5.2488 O   0  0  0  0  0  0  0  0  0  0  0  0
   19.5147    1.7321   -3.3715 O   0  0  0  0  0  0  0  0  0  0  0  0
   20.2165    0.9813   -1.1857 O   0  0  0  0  0  0  0  0  0  0  0  0
   23.5142   -2.4515   -1.0446 O   0  0  0  0  0  0  0  0  0  0  0  0
   19.6672    1.5582   -1.6791 H   0  0  0  0  0  0  0  0  0  0  0  0
   23.4921   -2.4361   -0.1079 H   0  0  0  0  0  0  0  0  0  0  0  0
   21.9984   -0.9773   -7.9927 C   0  0  0  0  0  0  0  0  0  0  0  0
   22.0402   -1.0083   -9.3818 C   0  0  0  0  0  0  0  0  0  0  0  0
   21.3144   -0.0805  -10.1206 C   0  0  0  0  0  0  0  0  0  0  0  0
   20.5464    0.8777   -9.4692 C   0  0  0  0  0  0  0  0  0  0  0  0
   20.5046    0.9088   -8.0801 C   0  0  0  0  0  0  0  0  0  0  0  0
   21.2300   -0.0189   -7.3422 C   0  0  0  0  0  0  0  0  0  0  0  0
  1  2  2  0  0  0
  1 10  1  0  0  0
  1 21  1  0  0  0
  2  3  1  0  0  0
  3  4  1  0  0  0
  3 11  2  0  0  0
  4  5  2  0  0  0
  4  9  1  0  0  0
  5  6  1  0  0  0
  5 12  1  0  0  0
  6  7  2  0  0  0
  7  8  1  0  0  0
  7 13  1  0  0  0
  8  9  2  0  0  0
  9 10  1  0  0  0
 16 17  2  0  0  0
 16 21  1  0  0  0
 17 18  1  0  0  0
 18 19  2  0  0  0
 19 20  1  0  0  0
 20 21  2  0  0  0
 12 14  1  0  0  0
 13 15  1  0  0  0
M  END
> <minimizedAffinity>
-8.17149

$$$$
4DES_57D_A_201


 21 23  0  0  0  0  0  0  0  0999 V2000
   21.2620   -0.0017   -5.6342 C   0  0  0  0  0  0  0  0  0  0  0  0
   22.0705   -0.9423   -5.0069 C   0  0  0  0  0  0  0  0  0  0  0  0
   22.1219   -0.9917   -3.6248 C   0  0  0  0  0  0  0  0  0  0  0  0
   21.3577   -0.0932   -2.8996 C   0  0  0  0  0  0  0  0  0  0  0  0
   21.3902   -0.1214   -1.5098 C   0  0  0  0  0  0  0  0  0  0  0  0
   20.6256    0.7787   -0.7776 C   0  0  0  0  0  0  0  0  0  0  0  0
   19.8279    1.7047   -1.4386 C   0  0  0  0  0  0  0  0  0  0  0  0
   19.7980    1.7302   -2.8279 C   0  0  0  0  0  0  0  0  0  0  0  0
   20.5613    0.8327   -3.5658 C   0  0  0  0  0  0  0  0  0  0  0  0
   20.5029    0.8909   -4.9297 O   0  0  0  0  0  0  0  0  0  0  0  0
   22.8319   -1.8171   -3.0527 O   0  0  0  0  0  0  0  0  0  0  0  0
   22.1725   -1.0291   -0.8668 O   0  0  0  0  0  0  0  0  0  0  0  0
   19.0773    2.5873   -0.7253 O   0  0  0  0  0  0  0  0  0  0  0  0
   22.6882   -1.6362   -1.3603 H   0  0  0  0  0  0  0  0  0  0  0  0
   19.0977    2.5699    0.2114 H   0  0  0  0  0  0  0  0  0  0  0  0
   22.2588   -0.5286   -7.7612 C   0  0  0  0  0  0  0  0  0  0  0  0
   22.2200   -0.4940   -9.1503 C   0  0  0  0  0  0  0  0  0  0  0  0
   21.1462    0.1028   -9.8017 C   0  0  0  0  0  0  0  0  0  0  0  0
   20.1112    0.6642   -9.0628 C   0  0  0  0  0  0  0  0  0  0  0  0
   20.1499    0.6296   -7.6737 C   0  0  0  0  0  0  0  0  0  0  0  0
   21.2233    0.0328   -7.0232 C   0  0  0  0  0  0  0  0  0  0  0  0
  1  2  2  0  0  0
  1 10  1  0  0  0
  1 21  1  0  0  0
  2  3  1  0  0  0
  3  4  1  0  0  0
  3 11  2  0  0  0
  4  5  2  0  0  0
  4  9  1  0  0  0
  5  6  1  0  0  0
  5 12  1  0  0  0
  6  7  2  0  0  0
  7  8  1  0  0  0
  7 13  1  0  0  0
  8  9  2  0  0  0
  9 10  1  0  0  0
 16 17  2  0  0  0
 16 21  1  0  0  0
 17 18  1  0  0  0
 18 19  2  0  0  0
 19 20  1  0  0  0
 20 21  2  0  0  0
 12 14  1  0  0  0
 13 15  1  0  0  0
M  END
> <minimizedAffinity>
-8.15705

$$$$
4DES_57D_A_201


 21 23  0  0  0  0  0  0  0  0999 V2000
   22.1290   -0.7571   -4.2782 C   0  0  0  0  0  0  0  0  0  0  0  0
   21.1503    0.2253   -4.1854 C   0  0  0  0  0  0  0  0  0  0  0  0
   20.5207    0.6785   -5.3315 C   0  0  0  0  0  0  0  0  0  0  0  0
   20.8881    0.1336   -6.5503 C   0  0  0  0  0  0  0  0  0  0  0  0
   20.2712    0.5703   -7.7173 C   0  0  0  0  0  0  0  0  0  0  0  0
   20.6368    0.0270   -8.9429 C   0  0  0  0  0  0  0  0  0  0  0  0
   21.6188   -0.9546   -8.9975 C   0  0  0  0  0  0  0  0  0  0  0  0
   22.2335   -1.3886   -7.8291 C   0  0  0  0  0  0  0  0  0  0  0  0
   21.8724   -0.8483   -6.6001 C   0  0  0  0  0  0  0  0  0  0  0  0
   22.5008   -1.3031   -5.4753 O   0  0  0  0  0  0  0  0  0  0  0  0
   19.6526    1.5474   -5.2684 O   0  0  0  0  0  0  0  0  0  0  0  0
   19.3108    1.5314   -7.6595 O   0  0  0  0  0  0  0  0  0  0  0  0
   21.9793   -1.4895  -10.1956 O   0  0  0  0  0  0  0  0  0  0  0  0
   19.0640    1.8980   -6.8332 H   0  0  0  0  0  0  0  0  0  0  0  0
   21.5647   -1.1967  -10.9832 H   0  0  0  0  0  0  0  0  0  0  0  0
   24.1305   -1.3612   -3.0848 C   0  0  0  0  0  0  0  0  0  0  0  0
   24.7517   -1.8039   -1.9228 C   0  0  0  0  0  0  0  0  0  0  0  0
   23.9929   -2.0863   -0.7923 C   0  0  0  0  0  0  0  0  0  0  0  0
   22.6126   -1.9249   -0.8248 C   0  0  0  0  0  0  0  0  0  0  0  0
   21.9913   -1.4822   -1.9868 C   0  0  0  0  0  0  0  0  0  0  0  0
   22.7502   -1.1999   -3.1162 C   0  0  0  0  0  0  0  0  0  0  0  0
  1  2  2  0  0  0
  1 10  1  0  0  0
  1 21  1  0  0  0
  2  3  1  0  0  0
  3  4  1  0  0  0
  3 11  2  0  0  0
  4  5  2  0  0  0
  4  9  1  0  0  0
  5  6  1  0  0  0
  5 12  1  0  0  0
  6  7  2  0  0  0
  7  8  1  0  0  0
  7 13  1  0  0  0
  8  9  2  0  0  0
  9 10  1  0  0  0
 16 17  2  0  0  0
 16 21  1  0  0  0
 17 18  1  0  0  0
 18 19  2  0  0  0
 19 20  1  0  0  0
 20 21  2  0  0  0
 12 14  1  0  0  0
 13 15  1  0  0  0
M  END
> <minimizedAffinity>
-7.44042

$$$$
4DES_57D_A_201


 21 23  0  0  0  0  0  0  0  0999 V2000
   20.3538    0.7672   -4.2740 C   0  0  0  0  0  0  0  0  0  0  0  0
   21.3366   -0.2109   -4.1791 C   0  0  0  0  0  0  0  0  0  0  0  0
   21.9628   -0.6691   -5.3250 C   0  0  0  0  0  0  0  0  0  0  0  0
   21.5882   -0.1334   -6.5457 C   0  0  0  0  0  0  0  0  0  0  0  0
   22.2016   -0.5753   -7.7126 C   0  0  0  0  0  0  0  0  0  0  0  0
   21.8285   -0.0413   -8.9400 C   0  0  0  0  0  0  0  0  0  0  0  0
   20.8426    0.9361   -8.9967 C   0  0  0  0  0  0  0  0  0  0  0  0
   20.2313    1.3754   -7.8283 C   0  0  0  0  0  0  0  0  0  0  0  0
   20.5999    0.8443   -6.5975 C   0  0  0  0  0  0  0  0  0  0  0  0
   19.9747    1.3041   -5.4729 O   0  0  0  0  0  0  0  0  0  0  0  0
   22.8345   -1.5343   -5.2601 O   0  0  0  0  0  0  0  0  0  0  0  0
   23.1659   -1.5324   -7.6527 O   0  0  0  0  0  0  0  0  0  0  0  0
   20.4749    1.4619  -10.1965 O   0  0  0  0  0  0  0  0  0  0  0  0
   23.4177   -1.8927   -6.8252 H   0  0  0  0  0  0  0  0  0  0  0  0
   20.8872    1.1655  -10.9840 H   0  0  0  0  0  0  0  0  0  0  0  0
   20.4981    1.4978   -1.9847 C   0  0  0  0  0  0  0  0  0  0  0  0
   19.8802    1.9457   -0.8229 C   0  0  0  0  0  0  0  0  0  0  0  0
   18.4998    2.1101   -0.7880 C   0  0  0  0  0  0  0  0  0  0  0  0
   17.7383    1.8269   -1.9160 C   0  0  0  0  0  0  0  0  0  0  0  0
   18.3562    1.3790   -3.0778 C   0  0  0  0  0  0  0  0  0  0  0  0
   19.7359    1.2151   -3.1122 C   0  0  0  0  0  0  0  0  0  0  0  0
  1  2  2  0  0  0
  1 10  1  0  0  0
  1 21  1  0  0  0
  2  3  1  0  0  0
  3  4  1  0  0  0
  3 11  2  0  0  0
  4  5  2  0  0  0
  4  9  1  0  0  0
  5  6  1  0  0  0
  5 12  1  0  0  0
  6  7  2  0  0  0
  7  8  1  0  0  0
  7 13  1  0  0  0
  8  9  2  0  0  0
  9 10  1  0  0  0
 16 17  2  0  0  0
 16 21  1  0  0  0
 17 18  1  0  0  0
 18 19  2  0  0  0
 19 20  1  0  0  0
 20 21  2  0  0  0
 12 14  1  0  0  0
 13 15  1  0  0  0
M  END
> <minimizedAffinity>
-7.42941

$$$$
4DES_57D_A_201


 21 23  0  0  0  0  0  0  0  0999 V2000
   19.4935    1.2407   -1.8487 C   0  0  0  0  0  0  0  0  0  0  0  0
   19.3085    1.4879   -3.2038 C   0  0  0  0  0  0  0  0  0  0  0  0
   20.1633    0.9156   -4.1296 C   0  0  0  0  0  0  0  0  0  0  0  0
   21.1886    0.1043   -3.6736 C   0  0  0  0  0  0  0  0  0  0  0  0
   22.0615   -0.4838   -4.5822 C   0  0  0  0  0  0  0  0  0  0  0  0
   23.0924   -1.2982   -4.1295 C   0  0  0  0  0  0  0  0  0  0  0  0
   23.2464   -1.5239   -2.7672 C   0  0  0  0  0  0  0  0  0  0  0  0
   22.3722   -0.9343   -1.8617 C   0  0  0  0  0  0  0  0  0  0  0  0
   21.3394   -0.1180   -2.3086 C   0  0  0  0  0  0  0  0  0  0  0  0
   20.5018    0.4418   -1.3856 O   0  0  0  0  0  0  0  0  0  0  0  0
   20.0149    1.1235   -5.3326 O   0  0  0  0  0  0  0  0  0  0  0  0
   21.9074   -0.2599   -5.9148 O   0  0  0  0  0  0  0  0  0  0  0  0
   24.2542   -2.3212   -2.3200 O   0  0  0  0  0  0  0  0  0  0  0  0
   21.2124    0.2892   -6.2203 H   0  0  0  0  0  0  0  0  0  0  0  0
   24.8434   -2.7185   -2.9307 H   0  0  0  0  0  0  0  0  0  0  0  0
   19.1164    2.3366    0.2613 C   0  0  0  0  0  0  0  0  0  0  0  0
   18.2478    2.9201    1.1764 C   0  0  0  0  0  0  0  0  0  0  0  0
   16.8875    2.9905    0.8971 C   0  0  0  0  0  0  0  0  0  0  0  0
   16.3968    2.4776   -0.2981 C   0  0  0  0  0  0  0  0  0  0  0  0
   17.2653    1.8941   -1.2131 C   0  0  0  0  0  0  0  0  0  0  0  0
   18.6249    1.8242   -0.9336 C   0  0  0  0  0  0  0  0  0  0  0  0
  1  2  2  0  0  0
  1 10  1  0  0  0
  1 21  1  0  0  0
  2  3  1  0  0  0
  3  4  1  0  0  0
  3 11  2  0  0  0
  4  5  2  0  0  0
  4  9  1  0  0  0
  5  6  1  0  0  0
  5 12  1  0  0  0
  6  7  2  0  0  0
  7  8  1  0  0  0
  7 13  1  0  0  0
  8  9  2  0  0  0
  9 10  1  0  0  0
 16 17  2  0  0  0
 16 21  1  0  0  0
 17 18  1  0  0  0
 18 19  2  0  0  0
 19 20  1  0  0  0
 20 21  2  0  0  0
 12 14  1  0  0  0
 13 15  1  0  0  0
M  END
> <minimizedAffinity>
-6.37212

$$$$
4DES_57D_A_201


 21 23  0  0  0  0  0  0  0  0999 V2000
   22.5009   -0.9844   -2.1892 C   0  0  0  0  0  0  0  0  0  0  0  0
   21.6502   -1.0077   -1.0903 C   0  0  0  0  0  0  0  0  0  0  0  0
   22.1146   -1.4706    0.1284 C   0  0  0  0  0  0  0  0  0  0  0  0
   23.4276   -1.9010    0.2185 C   0  0  0  0  0  0  0  0  0  0  0  0
   23.9201   -2.3703    1.4311 C   0  0  0  0  0  0  0  0  0  0  0  0
   25.2368   -2.8040    1.5262 C   0  0  0  0  0  0  0  0  0  0  0  0
   26.0590   -2.7654    0.4068 C   0  0  0  0  0  0  0  0  0  0  0  0
   25.5634   -2.2958   -0.8038 C   0  0  0  0  0  0  0  0  0  0  0  0
   24.2468   -1.8613   -0.9053 C   0  0  0  0  0  0  0  0  0  0  0  0
   23.7991   -1.4066   -2.1135 O   0  0  0  0  0  0  0  0  0  0  0  0
   21.3759   -1.4986    1.1114 O   0  0  0  0  0  0  0  0  0  0  0  0
   23.1118   -2.4069    2.5242 O   0  0  0  0  0  0  0  0  0  0  0  0
   27.3491   -3.1886    0.4960 O   0  0  0  0  0  0  0  0  0  0  0  0
   22.2239   -2.1144    2.4603 H   0  0  0  0  0  0  0  0  0  0  0  0
   27.6829   -3.5051    1.3123 H   0  0  0  0  0  0  0  0  0  0  0  0
   22.2120    0.8121   -3.7654 C   0  0  0  0  0  0  0  0  0  0  0  0
   21.7279    1.2803   -4.9814 C   0  0  0  0  0  0  0  0  0  0  0  0
   21.0474    0.4208   -5.8368 C   0  0  0  0  0  0  0  0  0  0  0  0
   20.8523   -0.9073   -5.4755 C   0  0  0  0  0  0  0  0  0  0  0  0
   21.3365   -1.3755   -4.2595 C   0  0  0  0  0  0  0  0  0  0  0  0
   22.0167   -0.5161   -3.4051 C   0  0  0  0  0  0  0  0  0  0  0  0
  1  2  2  0  0  0
  1 10  1  0  0  0
  1 21  1  0  0  0
  2  3  1  0  0  0
  3  4  1  0  0  0
  3 11  2  0  0  0
  4  5  2  0  0  0
  4  9  1  0  0  0
  5  6  1  0  0  0
  5 12  1  0  0  0
  6  7  2  0  0  0
  7  8  1  0  0  0
  7 13  1  0  0  0
  8  9  2  0  0  0
  9 10  1  0  0  0
 16 17  2  0  0  0
 16 21  1  0  0  0
 17 18  1  0  0  0
 18 19  2  0  0  0
 19 20  1  0  0  0
 20 21  2  0  0  0
 12 14  1  0  0  0
 13 15  1  0  0  0
M  END
> <minimizedAffinity>
-6.28837

$$$$
4DES_57D_A_201


 21 23  0  0  0  0  0  0  0  0999 V2000
   22.5536   -0.9716   -2.3353 C   0  0  0  0  0  0  0  0  0  0  0  0
   21.5158   -0.1673   -1.8795 C   0  0  0  0  0  0  0  0  0  0  0  0
   20.6734    0.4483   -2.7888 C   0  0  0  0  0  0  0  0  0  0  0  0
   20.8914    0.2423   -4.1406 C   0  0  0  0  0  0  0  0  0  0  0  0
   20.0596    0.8483   -5.0756 C   0  0  0  0  0  0  0  0  0  0  0  0
   20.2748    0.6451   -6.4333 C   0  0  0  0  0  0  0  0  0  0  0  0
   21.3218   -0.1664   -6.8526 C   0  0  0  0  0  0  0  0  0  0  0  0
   22.1513   -0.7705   -5.9153 C   0  0  0  0  0  0  0  0  0  0  0  0
   21.9415   -0.5704   -4.5556 C   0  0  0  0  0  0  0  0  0  0  0  0
   22.7795   -1.1829   -3.6671 O   0  0  0  0  0  0  0  0  0  0  0  0
   19.7500    1.1636   -2.4037 O   0  0  0  0  0  0  0  0  0  0  0  0
   19.0362    1.6422   -4.6610 O   0  0  0  0  0  0  0  0  0  0  0  0
   21.5354   -0.3683   -8.1811 O   0  0  0  0  0  0  0  0  0  0  0  0
   18.8909    1.7793   -3.7456 H   0  0  0  0  0  0  0  0  0  0  0  0
   20.9759    0.0391   -8.8128 H   0  0  0  0  0  0  0  0  0  0  0  0
   22.8657   -2.0679   -0.2150 C   0  0  0  0  0  0  0  0  0  0  0  0
   23.7016   -2.6780    0.7131 C   0  0  0  0  0  0  0  0  0  0  0  0
   25.0613   -2.8012    0.4496 C   0  0  0  0  0  0  0  0  0  0  0  0
   25.5842   -2.3145   -0.7429 C   0  0  0  0  0  0  0  0  0  0  0  0
   24.7483   -1.7044   -1.6710 C   0  0  0  0  0  0  0  0  0  0  0  0
   23.3894   -1.5817   -1.4072 C   0  0  0  0  0  0  0  0  0  0  0  0
  1  2  2  0  0  0
  1 10  1  0  0  0
  1 21  1  0  0  0
  2  3  1  0  0  0
  3  4  1  0  0  0
  3 11  2  0  0  0
  4  5  2  0  0  0
  4  9  1  0  0  0
  5  6  1  0  0  0
  5 12  1  0  0  0
  6  7  2  0  0  0
  7  8  1  0  0  0
  7 13  1  0  0  0
  8  9  2  0  0  0
  9 10  1  0  0  0
 16 17  2  0  0  0
 16 21  1  0  0  0
 17 18  1  0  0  0
 18 19  2  0  0  0
 19 20  1  0  0  0
 20 21  2  0  0  0
 12 14  1  0  0  0
 13 15  1  0  0  0
M  END
> <minimizedAffinity>
-6.07387

$$$$
