4ZZY_D7N_A_1584


 30 33  0  0  0  0  0  0  0  0999 V2000
   24.9902  -24.4993    5.4107 N   0  0  0  0  0  0  0  0  0  0  0  0
   26.2989  -24.5504    6.0944 C   0  0  0  0  0  0  0  0  0  0  0  0
   25.1465  -23.7038    4.3732 C   0  0  0  0  0  0  0  0  0  0  0  0
   24.1621  -23.4648    3.6916 O   0  0  0  0  0  0  0  0  0  0  0  0
   26.3772  -23.0905    4.3110 C   0  0  0  0  0  0  0  0  0  0  0  0
   27.0794  -23.5944    5.3804 C   0  0  0  0  0  0  0  0  0  0  0  0
   28.3432  -23.2023    5.6512 C   0  0  0  0  0  0  0  0  0  0  0  0
   28.9778  -22.2586    4.8571 C   0  0  0  0  0  0  0  0  0  0  0  0
   30.2654  -21.9113    5.1676 F   0  0  0  0  0  0  0  0  0  0  0  0
   28.3051  -21.7127    3.7493 C   0  0  0  0  0  0  0  0  0  0  0  0
   26.9759  -22.1306    3.4781 C   0  0  0  0  0  0  0  0  0  0  0  0
   22.5810  -27.5070    7.0054 N   0  0  0  0  0  0  0  0  0  0  0  0
   22.6634  -27.5202    5.5083 C   0  0  0  0  0  0  0  0  0  0  0  0
   23.8393  -26.6537    4.9921 C   0  0  0  0  0  0  0  0  0  0  0  0
   22.4224  -26.1492    7.5350 C   0  0  0  0  0  0  0  0  0  0  0  0
   23.6170  -25.3522    7.2068 C   0  0  0  0  0  0  0  0  0  0  0  0
   23.7717  -25.2432    5.7001 C   0  0  0  0  0  0  0  0  0  0  0  0
   21.6718  -29.9043    7.3653 C   0  0  0  0  0  0  0  0  0  0  0  0
   20.6999  -30.6315    8.3438 C   0  0  0  0  0  0  0  0  0  0  0  0
   19.2306  -30.0976    8.2693 C   0  0  0  0  0  0  0  0  0  0  0  0
   18.4112  -30.6478    9.1019 F   0  0  0  0  0  0  0  0  0  0  0  0
   18.6230  -30.3634    7.1760 F   0  0  0  0  0  0  0  0  0  0  0  0
   19.1844  -28.5765    8.3442 C   0  0  0  0  0  0  0  0  0  0  0  0
   20.1221  -27.9194    7.3148 C   0  0  0  0  0  0  0  0  0  0  0  0
   21.5605  -28.3728    7.6511 C   0  0  0  0  0  0  0  0  0  0  0  0
   26.3921  -21.5256    2.3270 C   0  0  0  0  0  0  0  0  0  0  0  0
   26.7434  -20.3794    1.9710 O   0  0  0  0  0  0  0  0  0  0  0  0
   25.5631  -22.2687    1.5890 N   0  0  0  0  0  0  0  0  0  0  0  0
   25.3039  -23.1679    1.8947 H   0  0  0  0  0  0  0  0  0  0  0  0
   25.2113  -21.9172    0.7393 H   0  0  0  0  0  0  0  0  0  0  0  0
 18 19  1  0  0  0
 18 25  1  0  0  0
 19 20  1  0  0  0
 20 21  1  0  0  0
 20 22  1  0  0  0
 20 23  1  0  0  0
 23 24  1  0  0  0
 24 25  1  0  0  0
 25 12  1  0  0  0
 12 13  1  0  0  0
 12 15  1  0  0  0
 13 14  1  0  0  0
 14 17  1  0  0  0
 15 16  1  0  0  0
 16 17  1  0  0  0
 17  1  1  0  0  0
  1  2  1  0  0  0
  1  3  1  0  0  0
  2  6  1  0  0  0
  3  4  2  0  0  0
  3  5  1  0  0  0
  5  6  2  0  0  0
  5 11  1  0  0  0
  6  7  1  0  0  0
  7  8  2  0  0  0
  8  9  1  0  0  0
  8 10  1  0  0  0
 10 11  2  0  0  0
 11 26  1  0  0  0
 26 27  2  0  0  0
 26 28  1  0  0  0
 28 29  1  0  0  0
 28 30  1  0  0  0
M  END
> <minimizedAffinity>
-11.25791

$$$$
4ZZY_D7N_A_1584


 30 33  0  0  0  0  0  0  0  0999 V2000
   23.6168  -23.3786    2.7365 N   0  0  0  0  0  0  0  0  0  0  0  0
   23.7428  -24.2363    3.9329 C   0  0  0  0  0  0  0  0  0  0  0  0
   24.7888  -22.8018    2.5707 C   0  0  0  0  0  0  0  0  0  0  0  0
   24.8958  -21.9909    1.6642 O   0  0  0  0  0  0  0  0  0  0  0  0
   25.6919  -23.0562    3.5778 C   0  0  0  0  0  0  0  0  0  0  0  0
   25.0428  -23.9215    4.4266 C   0  0  0  0  0  0  0  0  0  0  0  0
   25.6249  -24.3842    5.5541 C   0  0  0  0  0  0  0  0  0  0  0  0
   26.9075  -23.9880    5.9032 C   0  0  0  0  0  0  0  0  0  0  0  0
   27.4551  -24.5021    7.0481 F   0  0  0  0  0  0  0  0  0  0  0  0
   27.6168  -23.1057    5.0688 C   0  0  0  0  0  0  0  0  0  0  0  0
   26.9920  -22.6239    3.8888 C   0  0  0  0  0  0  0  0  0  0  0  0
   19.9198  -24.2099    0.9945 N   0  0  0  0  0  0  0  0  0  0  0  0
   21.0915  -24.4808    0.0989 C   0  0  0  0  0  0  0  0  0  0  0  0
   22.4209  -24.5243    0.8930 C   0  0  0  0  0  0  0  0  0  0  0  0
   20.0654  -22.9456    1.7224 C   0  0  0  0  0  0  0  0  0  0  0  0
   21.2285  -23.0292    2.6226 C   0  0  0  0  0  0  0  0  0  0  0  0
   22.4966  -23.2440    1.8151 C   0  0  0  0  0  0  0  0  0  0  0  0
   17.5397  -23.1927    0.9390 C   0  0  0  0  0  0  0  0  0  0  0  0
   16.3030  -23.2093   -0.0104 C   0  0  0  0  0  0  0  0  0  0  0  0
   15.6858  -24.6350   -0.1998 C   0  0  0  0  0  0  0  0  0  0  0  0
   14.6886  -24.6895   -1.0183 F   0  0  0  0  0  0  0  0  0  0  0  0
   15.1225  -25.1136    0.8436 F   0  0  0  0  0  0  0  0  0  0  0  0
   16.7556  -25.6670   -0.5346 C   0  0  0  0  0  0  0  0  0  0  0  0
   17.9201  -25.6383    0.4724 C   0  0  0  0  0  0  0  0  0  0  0  0
   18.5633  -24.2359    0.3884 C   0  0  0  0  0  0  0  0  0  0  0  0
   27.8019  -21.7468    3.1101 C   0  0  0  0  0  0  0  0  0  0  0  0
   28.9317  -22.1135    2.7189 O   0  0  0  0  0  0  0  0  0  0  0  0
   27.2632  -20.5889    2.7190 N   0  0  0  0  0  0  0  0  0  0  0  0
   26.3716  -20.3263    3.0434 H   0  0  0  0  0  0  0  0  0  0  0  0
   27.7578  -19.9979    2.1062 H   0  0  0  0  0  0  0  0  0  0  0  0
 18 19  1  0  0  0
 18 25  1  0  0  0
 19 20  1  0  0  0
 20 21  1  0  0  0
 20 22  1  0  0  0
 20 23  1  0  0  0
 23 24  1  0  0  0
 24 25  1  0  0  0
 25 12  1  0  0  0
 12 13  1  0  0  0
 12 15  1  0  0  0
 13 14  1  0  0  0
 14 17  1  0  0  0
 15 16  1  0  0  0
 16 17  1  0  0  0
 17  1  1  0  0  0
  1  2  1  0  0  0
  1  3  1  0  0  0
  2  6  1  0  0  0
  3  4  2  0  0  0
  3  5  1  0  0  0
  5  6  2  0  0  0
  5 11  1  0  0  0
  6  7  1  0  0  0
  7  8  2  0  0  0
  8  9  1  0  0  0
  8 10  1  0  0  0
 10 11  2  0  0  0
 11 26  1  0  0  0
 26 27  2  0  0  0
 26 28  1  0  0  0
 28 29  1  0  0  0
 28 30  1  0  0  0
M  END
> <minimizedAffinity>
-10.96644

$$$$
4ZZY_D7N_A_1584


 30 33  0  0  0  0  0  0  0  0999 V2000
   24.3827  -24.7225    5.3672 N   0  0  0  0  0  0  0  0  0  0  0  0
   23.9489  -23.8125    4.2872 C   0  0  0  0  0  0  0  0  0  0  0  0
   25.6499  -24.4468    5.5955 C   0  0  0  0  0  0  0  0  0  0  0  0
   26.2371  -25.1312    6.4186 O   0  0  0  0  0  0  0  0  0  0  0  0
   26.1963  -23.5339    4.7223 C   0  0  0  0  0  0  0  0  0  0  0  0
   25.1567  -23.1587    3.9043 C   0  0  0  0  0  0  0  0  0  0  0  0
   25.3251  -22.2719    2.8997 C   0  0  0  0  0  0  0  0  0  0  0  0
   26.5694  -21.7125    2.6494 C   0  0  0  0  0  0  0  0  0  0  0  0
   26.6786  -20.8057    1.6293 F   0  0  0  0  0  0  0  0  0  0  0  0
   27.6664  -22.0605    3.4578 C   0  0  0  0  0  0  0  0  0  0  0  0
   27.4766  -22.9966    4.5079 C   0  0  0  0  0  0  0  0  0  0  0  0
   21.2562  -27.3314    6.2683 N   0  0  0  0  0  0  0  0  0  0  0  0
   21.2922  -26.1022    7.1262 C   0  0  0  0  0  0  0  0  0  0  0  0
   22.2090  -25.0093    6.5222 C   0  0  0  0  0  0  0  0  0  0  0  0
   22.5915  -27.9041    6.0725 C   0  0  0  0  0  0  0  0  0  0  0  0
   23.4337  -26.9445    5.3376 C   0  0  0  0  0  0  0  0  0  0  0  0
   23.5941  -25.6685    6.1451 C   0  0  0  0  0  0  0  0  0  0  0  0
   18.8131  -28.1590    6.4904 C   0  0  0  0  0  0  0  0  0  0  0  0
   18.0720  -29.5143    6.7018 C   0  0  0  0  0  0  0  0  0  0  0  0
   18.4176  -30.2044    8.0633 C   0  0  0  0  0  0  0  0  0  0  0  0
   17.8557  -31.3523    8.2471 F   0  0  0  0  0  0  0  0  0  0  0  0
   17.9783  -29.5920    9.0964 F   0  0  0  0  0  0  0  0  0  0  0  0
   19.9225  -30.2622    8.2943 C   0  0  0  0  0  0  0  0  0  0  0  0
   20.5854  -28.8826    8.1273 C   0  0  0  0  0  0  0  0  0  0  0  0
   20.3407  -28.4307    6.6701 C   0  0  0  0  0  0  0  0  0  0  0  0
   28.6484  -23.2690    5.2724 C   0  0  0  0  0  0  0  0  0  0  0  0
   29.3731  -22.3308    5.6705 O   0  0  0  0  0  0  0  0  0  0  0  0
   28.8666  -24.5333    5.6437 N   0  0  0  0  0  0  0  0  0  0  0  0
   28.2793  -25.2515    5.3142 H   0  0  0  0  0  0  0  0  0  0  0  0
   29.6148  -24.7471    6.2468 H   0  0  0  0  0  0  0  0  0  0  0  0
 18 19  1  0  0  0
 18 25  1  0  0  0
 19 20  1  0  0  0
 20 21  1  0  0  0
 20 22  1  0  0  0
 20 23  1  0  0  0
 23 24  1  0  0  0
 24 25  1  0  0  0
 25 12  1  0  0  0
 12 13  1  0  0  0
 12 15  1  0  0  0
 13 14  1  0  0  0
 14 17  1  0  0  0
 15 16  1  0  0  0
 16 17  1  0  0  0
 17  1  1  0  0  0
  1  2  1  0  0  0
  1  3  1  0  0  0
  2  6  1  0  0  0
  3  4  2  0  0  0
  3  5  1  0  0  0
  5  6  2  0  0  0
  5 11  1  0  0  0
  6  7  1  0  0  0
  7  8  2  0  0  0
  8  9  1  0  0  0
  8 10  1  0  0  0
 10 11  2  0  0  0
 11 26  1  0  0  0
 26 27  2  0  0  0
 26 28  1  0  0  0
 28 29  1  0  0  0
 28 30  1  0  0  0
M  END
> <minimizedAffinity>
-10.87928

$$$$
4ZZY_D7N_A_1584


 30 33  0  0  0  0  0  0  0  0999 V2000
   20.4779  -23.3314    1.7454 N   0  0  0  0  0  0  0  0  0  0  0  0
   20.0250  -24.7306    1.6041 C   0  0  0  0  0  0  0  0  0  0  0  0
   19.4473  -22.5760    1.4274 C   0  0  0  0  0  0  0  0  0  0  0  0
   19.6163  -21.3668    1.4145 O   0  0  0  0  0  0  0  0  0  0  0  0
   18.3566  -23.2743    0.9613 C   0  0  0  0  0  0  0  0  0  0  0  0
   18.7181  -24.5979    1.0499 C   0  0  0  0  0  0  0  0  0  0  0  0
   17.8894  -25.5903    0.6594 C   0  0  0  0  0  0  0  0  0  0  0  0
   16.6361  -25.3034    0.1390 C   0  0  0  0  0  0  0  0  0  0  0  0
   15.8306  -26.3494   -0.2244 F   0  0  0  0  0  0  0  0  0  0  0  0
   16.2159  -23.9658    0.0285 C   0  0  0  0  0  0  0  0  0  0  0  0
   17.0980  -22.9322    0.4389 C   0  0  0  0  0  0  0  0  0  0  0  0
   24.3096  -23.4334    3.3886 N   0  0  0  0  0  0  0  0  0  0  0  0
   23.2880  -22.7699    4.2628 C   0  0  0  0  0  0  0  0  0  0  0  0
   21.8445  -23.0870    3.7981 C   0  0  0  0  0  0  0  0  0  0  0  0
   24.1765  -23.0309    1.9851 C   0  0  0  0  0  0  0  0  0  0  0  0
   22.8734  -23.4821    1.4671 C   0  0  0  0  0  0  0  0  0  0  0  0
   21.7481  -22.8216    2.2439 C   0  0  0  0  0  0  0  0  0  0  0  0
   26.1018  -23.6811    5.2405 C   0  0  0  0  0  0  0  0  0  0  0  0
   27.6570  -23.7363    5.3368 C   0  0  0  0  0  0  0  0  0  0  0  0
   28.3553  -22.4219    4.8527 C   0  0  0  0  0  0  0  0  0  0  0  0
   29.6459  -22.4538    4.8757 F   0  0  0  0  0  0  0  0  0  0  0  0
   28.1606  -21.4076    5.6066 F   0  0  0  0  0  0  0  0  0  0  0  0
   27.8198  -21.9705    3.4996 C   0  0  0  0  0  0  0  0  0  0  0  0
   26.2827  -21.8812    3.4880 C   0  0  0  0  0  0  0  0  0  0  0  0
   25.7397  -23.3001    3.7697 C   0  0  0  0  0  0  0  0  0  0  0  0
   16.5694  -21.6161    0.2963 C   0  0  0  0  0  0  0  0  0  0  0  0
   16.2579  -21.1814   -0.8342 O   0  0  0  0  0  0  0  0  0  0  0  0
   16.3097  -20.9279    1.4111 N   0  0  0  0  0  0  0  0  0  0  0  0
   16.5667  -21.2954    2.2875 H   0  0  0  0  0  0  0  0  0  0  0  0
   15.8613  -20.0532    1.3564 H   0  0  0  0  0  0  0  0  0  0  0  0
 18 19  1  0  0  0
 18 25  1  0  0  0
 19 20  1  0  0  0
 20 21  1  0  0  0
 20 22  1  0  0  0
 20 23  1  0  0  0
 23 24  1  0  0  0
 24 25  1  0  0  0
 25 12  1  0  0  0
 12 13  1  0  0  0
 12 15  1  0  0  0
 13 14  1  0  0  0
 14 17  1  0  0  0
 15 16  1  0  0  0
 16 17  1  0  0  0
 17  1  1  0  0  0
  1  2  1  0  0  0
  1  3  1  0  0  0
  2  6  1  0  0  0
  3  4  2  0  0  0
  3  5  1  0  0  0
  5  6  2  0  0  0
  5 11  1  0  0  0
  6  7  1  0  0  0
  7  8  2  0  0  0
  8  9  1  0  0  0
  8 10  1  0  0  0
 10 11  2  0  0  0
 11 26  1  0  0  0
 26 27  2  0  0  0
 26 28  1  0  0  0
 28 29  1  0  0  0
 28 30  1  0  0  0
M  END
> <minimizedAffinity>
-10.32269

$$$$
4ZZY_D7N_A_1584


 30 33  0  0  0  0  0  0  0  0999 V2000
   24.3716  -23.3724    3.6280 N   0  0  0  0  0  0  0  0  0  0  0  0
   25.3469  -22.3136    3.2954 C   0  0  0  0  0  0  0  0  0  0  0  0
   24.9070  -24.0734    4.6056 C   0  0  0  0  0  0  0  0  0  0  0  0
   24.2923  -25.0512    5.0015 O   0  0  0  0  0  0  0  0  0  0  0  0
   26.1966  -23.7105    4.9215 C   0  0  0  0  0  0  0  0  0  0  0  0
   26.4755  -22.6420    4.1023 C   0  0  0  0  0  0  0  0  0  0  0  0
   27.6759  -22.0234    4.1223 C   0  0  0  0  0  0  0  0  0  0  0  0
   28.6829  -22.4579    4.9714 C   0  0  0  0  0  0  0  0  0  0  0  0
   29.8740  -21.7825    4.9625 F   0  0  0  0  0  0  0  0  0  0  0  0
   28.4494  -23.5456    5.8317 C   0  0  0  0  0  0  0  0  0  0  0  0
   27.1847  -24.1893    5.7980 C   0  0  0  0  0  0  0  0  0  0  0  0
   20.7773  -22.4606    1.7194 N   0  0  0  0  0  0  0  0  0  0  0  0
   20.6382  -22.7268    3.1884 C   0  0  0  0  0  0  0  0  0  0  0  0
   22.0081  -22.6831    3.9103 C   0  0  0  0  0  0  0  0  0  0  0  0
   21.6737  -23.4216    1.0693 C   0  0  0  0  0  0  0  0  0  0  0  0
   23.0324  -23.2742    1.6191 C   0  0  0  0  0  0  0  0  0  0  0  0
   23.0280  -23.5822    3.1061 C   0  0  0  0  0  0  0  0  0  0  0  0
   19.1050  -20.9428    0.4535 C   0  0  0  0  0  0  0  0  0  0  0  0
   17.9623  -21.1122   -0.5935 C   0  0  0  0  0  0  0  0  0  0  0  0
   16.7658  -21.9756   -0.0714 C   0  0  0  0  0  0  0  0  0  0  0  0
   15.8242  -22.1739   -0.9324 F   0  0  0  0  0  0  0  0  0  0  0  0
   16.0817  -21.4282    0.8600 F   0  0  0  0  0  0  0  0  0  0  0  0
   17.2484  -23.2774    0.5564 C   0  0  0  0  0  0  0  0  0  0  0  0
   18.3338  -23.0367    1.6216 C   0  0  0  0  0  0  0  0  0  0  0  0
   19.5343  -22.3735    0.9098 C   0  0  0  0  0  0  0  0  0  0  0  0
   27.0497  -25.2702    6.7174 C   0  0  0  0  0  0  0  0  0  0  0  0
   28.0063  -26.0504    6.9173 O   0  0  0  0  0  0  0  0  0  0  0  0
   25.9245  -25.3381    7.4337 N   0  0  0  0  0  0  0  0  0  0  0  0
   25.1877  -24.7103    7.2538 H   0  0  0  0  0  0  0  0  0  0  0  0
   25.8318  -26.0160    8.1416 H   0  0  0  0  0  0  0  0  0  0  0  0
 18 19  1  0  0  0
 18 25  1  0  0  0
 19 20  1  0  0  0
 20 21  1  0  0  0
 20 22  1  0  0  0
 20 23  1  0  0  0
 23 24  1  0  0  0
 24 25  1  0  0  0
 25 12  1  0  0  0
 12 13  1  0  0  0
 12 15  1  0  0  0
 13 14  1  0  0  0
 14 17  1  0  0  0
 15 16  1  0  0  0
 16 17  1  0  0  0
 17  1  1  0  0  0
  1  2  1  0  0  0
  1  3  1  0  0  0
  2  6  1  0  0  0
  3  4  2  0  0  0
  3  5  1  0  0  0
  5  6  2  0  0  0
  5 11  1  0  0  0
  6  7  1  0  0  0
  7  8  2  0  0  0
  8  9  1  0  0  0
  8 10  1  0  0  0
 10 11  2  0  0  0
 11 26  1  0  0  0
 26 27  2  0  0  0
 26 28  1  0  0  0
 28 29  1  0  0  0
 28 30  1  0  0  0
M  END
> <minimizedAffinity>
-10.25113

$$$$
4ZZY_D7N_A_1584


 30 33  0  0  0  0  0  0  0  0999 V2000
   20.2031  -23.2379    1.5602 N   0  0  0  0  0  0  0  0  0  0  0  0
   19.8261  -22.0105    0.8293 C   0  0  0  0  0  0  0  0  0  0  0  0
   19.1944  -24.0732    1.4239 C   0  0  0  0  0  0  0  0  0  0  0  0
   19.2646  -25.1432    2.0078 O   0  0  0  0  0  0  0  0  0  0  0  0
   18.0987  -23.5376    0.7857 C   0  0  0  0  0  0  0  0  0  0  0  0
   18.4785  -22.2626    0.4380 C   0  0  0  0  0  0  0  0  0  0  0  0
   17.6397  -21.4191   -0.2015 C   0  0  0  0  0  0  0  0  0  0  0  0
   16.3485  -21.8114   -0.5221 C   0  0  0  0  0  0  0  0  0  0  0  0
   15.5473  -20.9215   -1.1862 F   0  0  0  0  0  0  0  0  0  0  0  0
   15.9100  -23.1059   -0.1909 C   0  0  0  0  0  0  0  0  0  0  0  0
   16.8002  -23.9813    0.4846 C   0  0  0  0  0  0  0  0  0  0  0  0
   24.0092  -22.6342    3.1545 N   0  0  0  0  0  0  0  0  0  0  0  0
   23.9866  -23.5257    1.9492 C   0  0  0  0  0  0  0  0  0  0  0  0
   22.6456  -23.4161    1.1813 C   0  0  0  0  0  0  0  0  0  0  0  0
   22.9175  -22.9393    4.0843 C   0  0  0  0  0  0  0  0  0  0  0  0
   21.6258  -22.6704    3.4290 C   0  0  0  0  0  0  0  0  0  0  0  0
   21.4613  -23.5684    2.2155 C   0  0  0  0  0  0  0  0  0  0  0  0
   26.5226  -22.0136    3.1802 C   0  0  0  0  0  0  0  0  0  0  0  0
   27.6346  -21.7605    4.2434 C   0  0  0  0  0  0  0  0  0  0  0  0
   27.9471  -23.0155    5.1247 C   0  0  0  0  0  0  0  0  0  0  0  0
   28.8308  -22.8240    6.0465 F   0  0  0  0  0  0  0  0  0  0  0  0
   28.5080  -23.9789    4.4983 F   0  0  0  0  0  0  0  0  0  0  0  0
   26.6727  -23.6415    5.6773 C   0  0  0  0  0  0  0  0  0  0  0  0
   25.6392  -23.9191    4.5703 C   0  0  0  0  0  0  0  0  0  0  0  0
   25.2700  -22.5587    3.9374 C   0  0  0  0  0  0  0  0  0  0  0  0
   16.2603  -25.2711    0.7613 C   0  0  0  0  0  0  0  0  0  0  0  0
   15.9933  -26.0564   -0.1746 O   0  0  0  0  0  0  0  0  0  0  0  0
   16.1708  -25.6444    2.0406 N   0  0  0  0  0  0  0  0  0  0  0  0
   16.3874  -25.0043    2.7565 H   0  0  0  0  0  0  0  0  0  0  0  0
   15.8882  -26.5597    2.2677 H   0  0  0  0  0  0  0  0  0  0  0  0
 18 19  1  0  0  0
 18 25  1  0  0  0
 19 20  1  0  0  0
 20 21  1  0  0  0
 20 22  1  0  0  0
 20 23  1  0  0  0
 23 24  1  0  0  0
 24 25  1  0  0  0
 25 12  1  0  0  0
 12 13  1  0  0  0
 12 15  1  0  0  0
 13 14  1  0  0  0
 14 17  1  0  0  0
 15 16  1  0  0  0
 16 17  1  0  0  0
 17  1  1  0  0  0
  1  2  1  0  0  0
  1  3  1  0  0  0
  2  6  1  0  0  0
  3  4  2  0  0  0
  3  5  1  0  0  0
  5  6  2  0  0  0
  5 11  1  0  0  0
  6  7  1  0  0  0
  7  8  2  0  0  0
  8  9  1  0  0  0
  8 10  1  0  0  0
 10 11  2  0  0  0
 11 26  1  0  0  0
 26 27  2  0  0  0
 26 28  1  0  0  0
 28 29  1  0  0  0
 28 30  1  0  0  0
M  END
> <minimizedAffinity>
-9.85444

$$$$
4ZZY_D7N_A_1584


 30 33  0  0  0  0  0  0  0  0999 V2000
   22.0799  -23.9537    5.5883 N   0  0  0  0  0  0  0  0  0  0  0  0
   23.4465  -23.6629    5.1079 C   0  0  0  0  0  0  0  0  0  0  0  0
   22.2184  -24.6862    6.6738 C   0  0  0  0  0  0  0  0  0  0  0  0
   21.2019  -25.0988    7.2097 O   0  0  0  0  0  0  0  0  0  0  0  0
   23.5171  -25.0493    6.9493 C   0  0  0  0  0  0  0  0  0  0  0  0
   24.2709  -24.4379    5.9754 C   0  0  0  0  0  0  0  0  0  0  0  0
   25.6124  -24.5834    5.9167 C   0  0  0  0  0  0  0  0  0  0  0  0
   26.2806  -25.3731    6.8406 C   0  0  0  0  0  0  0  0  0  0  0  0
   27.6430  -25.4708    6.7443 F   0  0  0  0  0  0  0  0  0  0  0  0
   25.5573  -26.0194    7.8589 C   0  0  0  0  0  0  0  0  0  0  0  0
   24.1474  -25.8612    7.9070 C   0  0  0  0  0  0  0  0  0  0  0  0
   19.2770  -22.6164    2.8048 N   0  0  0  0  0  0  0  0  0  0  0  0
   19.6942  -21.5751    3.7997 C   0  0  0  0  0  0  0  0  0  0  0  0
   20.9837  -21.9872    4.5529 C   0  0  0  0  0  0  0  0  0  0  0  0
   19.0473  -23.9193    3.4366 C   0  0  0  0  0  0  0  0  0  0  0  0
   20.3104  -24.4160    4.0092 C   0  0  0  0  0  0  0  0  0  0  0  0
   20.8041  -23.4639    5.0842 C   0  0  0  0  0  0  0  0  0  0  0  0
   17.9416  -23.2148    0.6690 C   0  0  0  0  0  0  0  0  0  0  0  0
   16.5325  -22.9170    0.0717 C   0  0  0  0  0  0  0  0  0  0  0  0
   16.2891  -21.3979   -0.2154 C   0  0  0  0  0  0  0  0  0  0  0  0
   15.1132  -21.1133   -0.6666 F   0  0  0  0  0  0  0  0  0  0  0  0
   16.9966  -20.9163   -1.1655 F   0  0  0  0  0  0  0  0  0  0  0  0
   16.6644  -20.5356    0.9833 C   0  0  0  0  0  0  0  0  0  0  0  0
   18.0872  -20.8377    1.4885 C   0  0  0  0  0  0  0  0  0  0  0  0
   18.1096  -22.3166    1.9356 C   0  0  0  0  0  0  0  0  0  0  0  0
   23.5146  -26.5476    8.9841 C   0  0  0  0  0  0  0  0  0  0  0  0
   22.9917  -25.9044    9.9205 O   0  0  0  0  0  0  0  0  0  0  0  0
   23.3968  -27.8747    8.8899 N   0  0  0  0  0  0  0  0  0  0  0  0
   23.8194  -28.3545    8.1413 H   0  0  0  0  0  0  0  0  0  0  0  0
   22.8872  -28.3731    9.5690 H   0  0  0  0  0  0  0  0  0  0  0  0
 18 19  1  0  0  0
 18 25  1  0  0  0
 19 20  1  0  0  0
 20 21  1  0  0  0
 20 22  1  0  0  0
 20 23  1  0  0  0
 23 24  1  0  0  0
 24 25  1  0  0  0
 25 12  1  0  0  0
 12 13  1  0  0  0
 12 15  1  0  0  0
 13 14  1  0  0  0
 14 17  1  0  0  0
 15 16  1  0  0  0
 16 17  1  0  0  0
 17  1  1  0  0  0
  1  2  1  0  0  0
  1  3  1  0  0  0
  2  6  1  0  0  0
  3  4  2  0  0  0
  3  5  1  0  0  0
  5  6  2  0  0  0
  5 11  1  0  0  0
  6  7  1  0  0  0
  7  8  2  0  0  0
  8  9  1  0  0  0
  8 10  1  0  0  0
 10 11  2  0  0  0
 11 26  1  0  0  0
 26 27  2  0  0  0
 26 28  1  0  0  0
 28 29  1  0  0  0
 28 30  1  0  0  0
M  END
> <minimizedAffinity>
-9.42581

$$$$
4ZZY_D7N_A_1584


 30 33  0  0  0  0  0  0  0  0999 V2000
   24.3402  -25.0288    5.4713 N   0  0  0  0  0  0  0  0  0  0  0  0
   25.6570  -24.3593    5.4443 C   0  0  0  0  0  0  0  0  0  0  0  0
   23.7299  -24.6881    4.3554 C   0  0  0  0  0  0  0  0  0  0  0  0
   22.5861  -25.0836    4.1941 O   0  0  0  0  0  0  0  0  0  0  0  0
   24.4097  -23.7603    3.5994 C   0  0  0  0  0  0  0  0  0  0  0  0
   25.5853  -23.5418    4.2783 C   0  0  0  0  0  0  0  0  0  0  0  0
   26.5119  -22.6652    3.8343 C   0  0  0  0  0  0  0  0  0  0  0  0
   26.3008  -21.9393    2.6715 C   0  0  0  0  0  0  0  0  0  0  0  0
   27.2817  -21.0777    2.2586 F   0  0  0  0  0  0  0  0  0  0  0  0
   25.1158  -22.1262    1.9375 C   0  0  0  0  0  0  0  0  0  0  0  0
   24.1484  -23.0476    2.4172 C   0  0  0  0  0  0  0  0  0  0  0  0
   21.5613  -27.5386    7.3076 N   0  0  0  0  0  0  0  0  0  0  0  0
   21.9629  -26.3587    8.1412 C   0  0  0  0  0  0  0  0  0  0  0  0
   22.6810  -25.2779    7.2950 C   0  0  0  0  0  0  0  0  0  0  0  0
   22.7118  -28.1595    6.6439 C   0  0  0  0  0  0  0  0  0  0  0  0
   23.3070  -27.2015    5.6963 C   0  0  0  0  0  0  0  0  0  0  0  0
   23.8107  -25.9779    6.4412 C   0  0  0  0  0  0  0  0  0  0  0  0
   21.1088  -30.0780    7.5297 C   0  0  0  0  0  0  0  0  0  0  0  0
   20.3824  -31.0348    8.5236 C   0  0  0  0  0  0  0  0  0  0  0  0
   18.8452  -30.7627    8.6350 C   0  0  0  0  0  0  0  0  0  0  0  0
   18.2232  -31.5081    9.4862 F   0  0  0  0  0  0  0  0  0  0  0  0
   18.1769  -31.0490    7.5831 F   0  0  0  0  0  0  0  0  0  0  0  0
   18.5541  -29.2830    8.8525 C   0  0  0  0  0  0  0  0  0  0  0  0
   19.2532  -28.3973    7.8049 C   0  0  0  0  0  0  0  0  0  0  0  0
   20.7747  -28.6152    7.9634 C   0  0  0  0  0  0  0  0  0  0  0  0
   22.9921  -23.1696    1.5927 C   0  0  0  0  0  0  0  0  0  0  0  0
   21.8919  -22.7184    1.9797 O   0  0  0  0  0  0  0  0  0  0  0  0
   23.1568  -23.6640    0.3629 N   0  0  0  0  0  0  0  0  0  0  0  0
   24.0350  -24.0125    0.0859 H   0  0  0  0  0  0  0  0  0  0  0  0
   22.4001  -23.6799   -0.2667 H   0  0  0  0  0  0  0  0  0  0  0  0
 18 19  1  0  0  0
 18 25  1  0  0  0
 19 20  1  0  0  0
 20 21  1  0  0  0
 20 22  1  0  0  0
 20 23  1  0  0  0
 23 24  1  0  0  0
 24 25  1  0  0  0
 25 12  1  0  0  0
 12 13  1  0  0  0
 12 15  1  0  0  0
 13 14  1  0  0  0
 14 17  1  0  0  0
 15 16  1  0  0  0
 16 17  1  0  0  0
 17  1  1  0  0  0
  1  2  1  0  0  0
  1  3  1  0  0  0
  2  6  1  0  0  0
  3  4  2  0  0  0
  3  5  1  0  0  0
  5  6  2  0  0  0
  5 11  1  0  0  0
  6  7  1  0  0  0
  7  8  2  0  0  0
  8  9  1  0  0  0
  8 10  1  0  0  0
 10 11  2  0  0  0
 11 26  1  0  0  0
 26 27  2  0  0  0
 26 28  1  0  0  0
 28 29  1  0  0  0
 28 30  1  0  0  0
M  END
> <minimizedAffinity>
-9.28086

$$$$
4ZZY_D7N_A_1584


 30 33  0  0  0  0  0  0  0  0999 V2000
   23.5895  -24.0514    3.0478 N   0  0  0  0  0  0  0  0  0  0  0  0
   24.2536  -22.9014    2.4003 C   0  0  0  0  0  0  0  0  0  0  0  0
   24.3213  -24.3562    4.0993 C   0  0  0  0  0  0  0  0  0  0  0  0
   23.9879  -25.3299    4.7561 O   0  0  0  0  0  0  0  0  0  0  0  0
   25.4894  -23.6357    4.2034 C   0  0  0  0  0  0  0  0  0  0  0  0
   25.4589  -22.7553    3.1477 C   0  0  0  0  0  0  0  0  0  0  0  0
   26.4652  -21.8844    2.9172 C   0  0  0  0  0  0  0  0  0  0  0  0
   27.5811  -21.8569    3.7404 C   0  0  0  0  0  0  0  0  0  0  0  0
   28.5629  -20.9415    3.4703 F   0  0  0  0  0  0  0  0  0  0  0  0
   27.6619  -22.7351    4.8359 C   0  0  0  0  0  0  0  0  0  0  0  0
   26.5993  -23.6480    5.0647 C   0  0  0  0  0  0  0  0  0  0  0  0
   19.8948  -24.5758    1.1859 N   0  0  0  0  0  0  0  0  0  0  0  0
   19.8062  -24.3498    2.6655 C   0  0  0  0  0  0  0  0  0  0  0  0
   21.1325  -23.7921    3.2397 C   0  0  0  0  0  0  0  0  0  0  0  0
   20.9762  -25.5016    0.8352 C   0  0  0  0  0  0  0  0  0  0  0  0
   22.2707  -24.9092    1.2138 C   0  0  0  0  0  0  0  0  0  0  0  0
   22.3226  -24.6887    2.7153 C   0  0  0  0  0  0  0  0  0  0  0  0
   17.4236  -25.3250    1.3730 C   0  0  0  0  0  0  0  0  0  0  0  0
   16.1972  -25.4930    0.4251 C   0  0  0  0  0  0  0  0  0  0  0  0
   16.4233  -26.5587   -0.6986 C   0  0  0  0  0  0  0  0  0  0  0  0
   15.4428  -26.6871   -1.5290 F   0  0  0  0  0  0  0  0  0  0  0  0
   16.4985  -27.7647   -0.2803 F   0  0  0  0  0  0  0  0  0  0  0  0
   17.7517  -26.3439   -1.4131 C   0  0  0  0  0  0  0  0  0  0  0  0
   18.9286  -26.2440   -0.4253 C   0  0  0  0  0  0  0  0  0  0  0  0
   18.6656  -25.0177    0.4773 C   0  0  0  0  0  0  0  0  0  0  0  0
   26.7760  -24.4827    6.2066 C   0  0  0  0  0  0  0  0  0  0  0  0
   25.7953  -24.7936    6.9176 O   0  0  0  0  0  0  0  0  0  0  0  0
   27.9869  -25.0090    6.4086 N   0  0  0  0  0  0  0  0  0  0  0  0
   28.7406  -24.7452    5.8327 H   0  0  0  0  0  0  0  0  0  0  0  0
   28.1257  -25.6607    7.1333 H   0  0  0  0  0  0  0  0  0  0  0  0
 18 19  1  0  0  0
 18 25  1  0  0  0
 19 20  1  0  0  0
 20 21  1  0  0  0
 20 22  1  0  0  0
 20 23  1  0  0  0
 23 24  1  0  0  0
 24 25  1  0  0  0
 25 12  1  0  0  0
 12 13  1  0  0  0
 12 15  1  0  0  0
 13 14  1  0  0  0
 14 17  1  0  0  0
 15 16  1  0  0  0
 16 17  1  0  0  0
 17  1  1  0  0  0
  1  2  1  0  0  0
  1  3  1  0  0  0
  2  6  1  0  0  0
  3  4  2  0  0  0
  3  5  1  0  0  0
  5  6  2  0  0  0
  5 11  1  0  0  0
  6  7  1  0  0  0
  7  8  2  0  0  0
  8  9  1  0  0  0
  8 10  1  0  0  0
 10 11  2  0  0  0
 11 26  1  0  0  0
 26 27  2  0  0  0
 26 28  1  0  0  0
 28 29  1  0  0  0
 28 30  1  0  0  0
M  END
> <minimizedAffinity>
-9.27409

$$$$
4ZZY_D7N_A_1584


 30 33  0  0  0  0  0  0  0  0999 V2000
   20.3428  -21.4062    4.3766 N   0  0  0  0  0  0  0  0  0  0  0  0
   20.0963  -19.9550    4.2496 C   0  0  0  0  0  0  0  0  0  0  0  0
   19.8352  -21.9628    3.2966 C   0  0  0  0  0  0  0  0  0  0  0  0
   19.8716  -23.1807    3.2189 O   0  0  0  0  0  0  0  0  0  0  0  0
   19.1521  -21.0913    2.4790 C   0  0  0  0  0  0  0  0  0  0  0  0
   19.2943  -19.8602    3.0746 C   0  0  0  0  0  0  0  0  0  0  0  0
   18.7337  -18.7476    2.5531 C   0  0  0  0  0  0  0  0  0  0  0  0
   17.9774  -18.8126    1.3922 C   0  0  0  0  0  0  0  0  0  0  0  0
   17.4474  -17.6506    0.8985 F   0  0  0  0  0  0  0  0  0  0  0  0
   17.8022  -20.0471    0.7417 C   0  0  0  0  0  0  0  0  0  0  0  0
   18.3935  -21.2094    1.3024 C   0  0  0  0  0  0  0  0  0  0  0  0
   22.0567  -24.6598    6.3438 N   0  0  0  0  0  0  0  0  0  0  0  0
   20.9494  -23.9983    7.1084 C   0  0  0  0  0  0  0  0  0  0  0  0
   20.1078  -23.0641    6.2035 C   0  0  0  0  0  0  0  0  0  0  0  0
   22.9566  -23.6824    5.7238 C   0  0  0  0  0  0  0  0  0  0  0  0
   22.2130  -22.8963    4.7243 C   0  0  0  0  0  0  0  0  0  0  0  0
   21.0911  -22.1261    5.3982 C   0  0  0  0  0  0  0  0  0  0  0  0
   22.6024  -25.8396    8.5828 C   0  0  0  0  0  0  0  0  0  0  0  0
   23.3762  -27.1075    9.0567 C   0  0  0  0  0  0  0  0  0  0  0  0
   24.9041  -27.0632    8.7208 C   0  0  0  0  0  0  0  0  0  0  0  0
   25.5642  -28.1203    9.0586 F   0  0  0  0  0  0  0  0  0  0  0  0
   25.5674  -26.1879    9.3759 F   0  0  0  0  0  0  0  0  0  0  0  0
   25.1454  -26.6804    7.2659 C   0  0  0  0  0  0  0  0  0  0  0  0
   24.4007  -25.3899    6.8776 C   0  0  0  0  0  0  0  0  0  0  0  0
   22.8903  -25.6614    7.0581 C   0  0  0  0  0  0  0  0  0  0  0  0
   18.1649  -22.4035    0.5583 C   0  0  0  0  0  0  0  0  0  0  0  0
   18.9856  -22.7712   -0.3107 O   0  0  0  0  0  0  0  0  0  0  0  0
   17.1230  -23.1623    0.9082 N   0  0  0  0  0  0  0  0  0  0  0  0
   16.4930  -22.8467    1.5957 H   0  0  0  0  0  0  0  0  0  0  0  0
   16.9849  -24.0373    0.4786 H   0  0  0  0  0  0  0  0  0  0  0  0
 18 19  1  0  0  0
 18 25  1  0  0  0
 19 20  1  0  0  0
 20 21  1  0  0  0
 20 22  1  0  0  0
 20 23  1  0  0  0
 23 24  1  0  0  0
 24 25  1  0  0  0
 25 12  1  0  0  0
 12 13  1  0  0  0
 12 15  1  0  0  0
 13 14  1  0  0  0
 14 17  1  0  0  0
 15 16  1  0  0  0
 16 17  1  0  0  0
 17  1  1  0  0  0
  1  2  1  0  0  0
  1  3  1  0  0  0
  2  6  1  0  0  0
  3  4  2  0  0  0
  3  5  1  0  0  0
  5  6  2  0  0  0
  5 11  1  0  0  0
  6  7  1  0  0  0
  7  8  2  0  0  0
  8  9  1  0  0  0
  8 10  1  0  0  0
 10 11  2  0  0  0
 11 26  1  0  0  0
 26 27  2  0  0  0
 26 28  1  0  0  0
 28 29  1  0  0  0
 28 30  1  0  0  0
M  END
> <minimizedAffinity>
-9.05187

$$$$
