5OWL_B0K_A_401


 19 20  0  0  0  0  0  0  0  0999 V2000
   -6.4616  -44.7426    5.8873 C   0  0  0  0  0  0  0  0  0  0  0  0
   -5.6074  -45.6119    6.5256 C   0  0  0  0  0  0  0  0  0  0  0  0
   -4.8514  -46.5404    5.7489 C   0  0  0  0  0  0  0  0  0  0  0  0
   -4.9780  -46.5682    4.3634 C   0  0  0  0  0  0  0  0  0  0  0  0
   -5.8486  -45.6826    3.7209 C   0  0  0  0  0  0  0  0  0  0  0  0
   -7.0553  -43.9721    6.8396 N   0  0  0  0  0  0  0  0  0  0  0  0
   -6.5915  -44.7707    4.4706 C   0  0  0  0  0  0  0  0  0  0  0  0
   -6.5862  -44.3477    8.0153 C   0  0  0  0  0  0  0  0  0  0  0  0
   -5.7178  -45.3342    7.8633 N   0  0  0  0  0  0  0  0  0  0  0  0
   -3.6226  -47.7986    6.5713 Br  0  0  0  0  0  0  0  0  0  0  0  0
   -3.9338  -47.8487    3.3341 Br  0  0  0  0  0  0  0  0  0  0  0  0
   -6.0118  -45.7331    1.7853 Br  0  0  0  0  0  0  0  0  0  0  0  0
   -7.8069  -43.5295    3.5971 Br  0  0  0  0  0  0  0  0  0  0  0  0
   -5.0076  -45.9689    8.9635 C   0  0  0  0  0  0  0  0  0  0  0  0
   -4.7222  -45.0286   10.1326 C   0  0  0  0  0  0  0  0  0  0  0  0
   -3.6105  -45.5762   11.0266 C   0  0  0  0  0  0  0  0  0  0  0  0
   -3.2744  -46.9419   10.6643 N   0  0  0  0  0  0  0  0  0  0  0  0
   -4.0952  -47.5363   10.7802 H   0  0  0  0  0  0  0  0  0  0  0  0
   -2.5231  -47.2784   11.2666 H   0  0  0  0  0  0  0  0  0  0  0  0
 12  5  1  0  0  0
 13  7  1  0  0  0
  5  7  2  0  0  0
  5  4  1  0  0  0
  7  1  1  0  0  0
 11  4  1  0  0  0
  4  3  2  0  0  0
  1  6  1  0  0  0
  1  2  2  0  0  0
  6  8  2  0  0  0
  3  2  1  0  0  0
  3 10  1  0  0  0
  2  9  1  0  0  0
  8  9  1  0  0  0
  9 14  1  0  0  0
 14 15  1  0  0  0
 15 16  1  0  0  0
 16 17  1  0  0  0
 17 18  1  0  0  0
 17 19  1  0  0  0
M  END
> <minimizedAffinity>
-7.16203

$$$$
5OWL_B0K_A_401


 19 20  0  0  0  0  0  0  0  0999 V2000
   -6.2369  -44.9972    5.6736 C   0  0  0  0  0  0  0  0  0  0  0  0
   -5.5950  -45.8300    4.7863 C   0  0  0  0  0  0  0  0  0  0  0  0
   -4.6672  -46.7939    5.2834 C   0  0  0  0  0  0  0  0  0  0  0  0
   -4.4129  -46.8891    6.6481 C   0  0  0  0  0  0  0  0  0  0  0  0
   -5.0679  -46.0392    7.5445 C   0  0  0  0  0  0  0  0  0  0  0  0
   -7.0579  -44.1822    4.9561 N   0  0  0  0  0  0  0  0  0  0  0  0
   -5.9770  -45.0941    7.0692 C   0  0  0  0  0  0  0  0  0  0  0  0
   -6.9305  -44.4996    3.6808 C   0  0  0  0  0  0  0  0  0  0  0  0
   -6.0556  -45.4825    3.5430 N   0  0  0  0  0  0  0  0  0  0  0  0
   -3.7219  -48.0076    4.0992 Br  0  0  0  0  0  0  0  0  0  0  0  0
   -3.1400  -48.2134    7.2926 Br  0  0  0  0  0  0  0  0  0  0  0  0
   -4.7029  -46.1869    9.4474 Br  0  0  0  0  0  0  0  0  0  0  0  0
   -6.8997  -43.9033    8.2985 Br  0  0  0  0  0  0  0  0  0  0  0  0
   -5.6947  -46.0763    2.2643 C   0  0  0  0  0  0  0  0  0  0  0  0
   -5.0271  -45.0977    1.3006 C   0  0  0  0  0  0  0  0  0  0  0  0
   -3.5256  -45.3605    1.1943 C   0  0  0  0  0  0  0  0  0  0  0  0
   -2.9525  -44.6610    0.0578 N   0  0  0  0  0  0  0  0  0  0  0  0
   -3.3928  -44.9902   -0.8014 H   0  0  0  0  0  0  0  0  0  0  0  0
   -1.9496  -44.8428    0.0171 H   0  0  0  0  0  0  0  0  0  0  0  0
 12  5  1  0  0  0
 13  7  1  0  0  0
  5  7  2  0  0  0
  5  4  1  0  0  0
  7  1  1  0  0  0
 11  4  1  0  0  0
  4  3  2  0  0  0
  1  6  1  0  0  0
  1  2  2  0  0  0
  6  8  2  0  0  0
  3  2  1  0  0  0
  3 10  1  0  0  0
  2  9  1  0  0  0
  8  9  1  0  0  0
  9 14  1  0  0  0
 14 15  1  0  0  0
 15 16  1  0  0  0
 16 17  1  0  0  0
 17 18  1  0  0  0
 17 19  1  0  0  0
M  END
> <minimizedAffinity>
-7.13485

$$$$
5OWL_B0K_A_401


 19 20  0  0  0  0  0  0  0  0999 V2000
   -6.1294  -45.0904    6.0615 C   0  0  0  0  0  0  0  0  0  0  0  0
   -5.6476  -45.8291    5.0055 C   0  0  0  0  0  0  0  0  0  0  0  0
   -4.6816  -46.8499    5.2539 C   0  0  0  0  0  0  0  0  0  0  0  0
   -4.2306  -47.0939    6.5475 C   0  0  0  0  0  0  0  0  0  0  0  0
   -4.7236  -46.3391    7.6161 C   0  0  0  0  0  0  0  0  0  0  0  0
   -7.0263  -44.1949    5.5647 N   0  0  0  0  0  0  0  0  0  0  0  0
   -5.6684  -45.3395    7.3844 C   0  0  0  0  0  0  0  0  0  0  0  0
   -7.0973  -44.3744    4.2585 C   0  0  0  0  0  0  0  0  0  0  0  0
   -6.2781  -45.3452    3.8887 N   0  0  0  0  0  0  0  0  0  0  0  0
   -3.9535  -47.9383    3.8206 Br  0  0  0  0  0  0  0  0  0  0  0  0
   -2.9109  -48.4924    6.8512 Br  0  0  0  0  0  0  0  0  0  0  0  0
   -4.0849  -46.6943    9.4166 Br  0  0  0  0  0  0  0  0  0  0  0  0
   -6.3680  -44.2789    8.8562 Br  0  0  0  0  0  0  0  0  0  0  0  0
   -6.1259  -45.8015    2.5152 C   0  0  0  0  0  0  0  0  0  0  0  0
   -5.8430  -44.6756    1.5231 C   0  0  0  0  0  0  0  0  0  0  0  0
   -7.0015  -44.4953    0.5430 C   0  0  0  0  0  0  0  0  0  0  0  0
   -6.8337  -43.2881   -0.2470 N   0  0  0  0  0  0  0  0  0  0  0  0
   -6.8134  -42.4772    0.3714 H   0  0  0  0  0  0  0  0  0  0  0  0
   -7.6120  -43.1983   -0.9001 H   0  0  0  0  0  0  0  0  0  0  0  0
 12  5  1  0  0  0
 13  7  1  0  0  0
  5  7  2  0  0  0
  5  4  1  0  0  0
  7  1  1  0  0  0
 11  4  1  0  0  0
  4  3  2  0  0  0
  1  6  1  0  0  0
  1  2  2  0  0  0
  6  8  2  0  0  0
  3  2  1  0  0  0
  3 10  1  0  0  0
  2  9  1  0  0  0
  8  9  1  0  0  0
  9 14  1  0  0  0
 14 15  1  0  0  0
 15 16  1  0  0  0
 16 17  1  0  0  0
 17 18  1  0  0  0
 17 19  1  0  0  0
M  END
> <minimizedAffinity>
-7.12037

$$$$
5OWL_B0K_A_401


 19 20  0  0  0  0  0  0  0  0999 V2000
   -4.4260  -47.1205    5.5112 C   0  0  0  0  0  0  0  0  0  0  0  0
   -5.2766  -46.1064    5.1357 C   0  0  0  0  0  0  0  0  0  0  0  0
   -5.8228  -45.2495    6.1379 C   0  0  0  0  0  0  0  0  0  0  0  0
   -5.5012  -45.4383    7.4785 C   0  0  0  0  0  0  0  0  0  0  0  0
   -4.6368  -46.4713    7.8536 C   0  0  0  0  0  0  0  0  0  0  0  0
   -4.0492  -47.7832    4.3835 N   0  0  0  0  0  0  0  0  0  0  0  0
   -4.0969  -47.3139    6.8820 C   0  0  0  0  0  0  0  0  0  0  0  0
   -4.6397  -47.2020    3.3554 C   0  0  0  0  0  0  0  0  0  0  0  0
   -5.3884  -46.1940    3.7724 N   0  0  0  0  0  0  0  0  0  0  0  0
   -7.0281  -43.7943    5.6921 Br  0  0  0  0  0  0  0  0  0  0  0  0
   -6.2652  -44.2529    8.8204 Br  0  0  0  0  0  0  0  0  0  0  0  0
   -4.1963  -46.7196    9.7298 Br  0  0  0  0  0  0  0  0  0  0  0  0
   -2.8919  -48.7557    7.3817 Br  0  0  0  0  0  0  0  0  0  0  0  0
   -6.1639  -45.3371    2.8881 C   0  0  0  0  0  0  0  0  0  0  0  0
   -6.1820  -45.8105    1.4364 C   0  0  0  0  0  0  0  0  0  0  0  0
   -7.1504  -44.9812    0.5941 C   0  0  0  0  0  0  0  0  0  0  0  0
   -6.5610  -43.7061    0.2250 N   0  0  0  0  0  0  0  0  0  0  0  0
   -6.3415  -43.1761    1.0684 H   0  0  0  0  0  0  0  0  0  0  0  0
   -7.2216  -43.1786   -0.3458 H   0  0  0  0  0  0  0  0  0  0  0  0
 12  5  1  0  0  0
 13  7  1  0  0  0
  5  7  2  0  0  0
  5  4  1  0  0  0
  7  1  1  0  0  0
 11  4  1  0  0  0
  4  3  2  0  0  0
  1  6  1  0  0  0
  1  2  2  0  0  0
  6  8  2  0  0  0
  3  2  1  0  0  0
  3 10  1  0  0  0
  2  9  1  0  0  0
  8  9  1  0  0  0
  9 14  1  0  0  0
 14 15  1  0  0  0
 15 16  1  0  0  0
 16 17  1  0  0  0
 17 18  1  0  0  0
 17 19  1  0  0  0
M  END
> <minimizedAffinity>
-7.00189

$$$$
5OWL_B0K_A_401


 19 20  0  0  0  0  0  0  0  0999 V2000
   -5.8181  -45.6894    4.5701 C   0  0  0  0  0  0  0  0  0  0  0  0
   -5.0717  -46.4764    5.4165 C   0  0  0  0  0  0  0  0  0  0  0  0
   -5.0337  -46.1605    6.8078 C   0  0  0  0  0  0  0  0  0  0  0  0
   -5.7407  -45.0687    7.3023 C   0  0  0  0  0  0  0  0  0  0  0  0
   -6.4966  -44.2724    6.4367 C   0  0  0  0  0  0  0  0  0  0  0  0
   -5.6895  -46.1960    3.3132 N   0  0  0  0  0  0  0  0  0  0  0  0
   -6.5411  -44.5728    5.0754 C   0  0  0  0  0  0  0  0  0  0  0  0
   -4.8997  -47.2520    3.3807 C   0  0  0  0  0  0  0  0  0  0  0  0
   -4.5067  -47.4457    4.6290 N   0  0  0  0  0  0  0  0  0  0  0  0
   -4.0074  -47.2213    8.0689 Br  0  0  0  0  0  0  0  0  0  0  0  0
   -5.6656  -44.6644    9.2051 Br  0  0  0  0  0  0  0  0  0  0  0  0
   -7.4797  -42.7528    7.1441 Br  0  0  0  0  0  0  0  0  0  0  0  0
   -7.5870  -43.4792    3.8545 Br  0  0  0  0  0  0  0  0  0  0  0  0
   -3.6375  -48.5351    5.0480 C   0  0  0  0  0  0  0  0  0  0  0  0
   -2.2103  -48.4195    4.5172 C   0  0  0  0  0  0  0  0  0  0  0  0
   -1.5802  -47.0827    4.9058 C   0  0  0  0  0  0  0  0  0  0  0  0
   -0.2119  -47.2627    5.3585 N   0  0  0  0  0  0  0  0  0  0  0  0
   -0.2023  -47.8676    6.1797 H   0  0  0  0  0  0  0  0  0  0  0  0
    0.1886  -46.3561    5.5993 H   0  0  0  0  0  0  0  0  0  0  0  0
 12  5  1  0  0  0
 13  7  1  0  0  0
  5  7  2  0  0  0
  5  4  1  0  0  0
  7  1  1  0  0  0
 11  4  1  0  0  0
  4  3  2  0  0  0
  1  6  1  0  0  0
  1  2  2  0  0  0
  6  8  2  0  0  0
  3  2  1  0  0  0
  3 10  1  0  0  0
  2  9  1  0  0  0
  8  9  1  0  0  0
  9 14  1  0  0  0
 14 15  1  0  0  0
 15 16  1  0  0  0
 16 17  1  0  0  0
 17 18  1  0  0  0
 17 19  1  0  0  0
M  END
> <minimizedAffinity>
-6.95173

$$$$
5OWL_B0K_A_401


 19 20  0  0  0  0  0  0  0  0999 V2000
   -5.7681  -46.0025    3.0447 C   0  0  0  0  0  0  0  0  0  0  0  0
   -6.5205  -44.9007    3.3807 C   0  0  0  0  0  0  0  0  0  0  0  0
   -6.5813  -44.4898    4.7461 C   0  0  0  0  0  0  0  0  0  0  0  0
   -5.8903  -45.1957    5.7262 C   0  0  0  0  0  0  0  0  0  0  0  0
   -5.1281  -46.3151    5.3783 C   0  0  0  0  0  0  0  0  0  0  0  0
   -5.8743  -46.1814    1.6995 N   0  0  0  0  0  0  0  0  0  0  0  0
   -5.0614  -46.7247    4.0466 C   0  0  0  0  0  0  0  0  0  0  0  0
   -6.6565  -45.2296    1.2245 C   0  0  0  0  0  0  0  0  0  0  0  0
   -7.0662  -44.4458    2.2086 N   0  0  0  0  0  0  0  0  0  0  0  0
   -7.6175  -42.9455    5.3033 Br  0  0  0  0  0  0  0  0  0  0  0  0
   -5.9963  -44.6096    7.5795 Br  0  0  0  0  0  0  0  0  0  0  0  0
   -4.1674  -47.2881    6.7589 Br  0  0  0  0  0  0  0  0  0  0  0  0
   -4.0064  -48.2777    3.5409 Br  0  0  0  0  0  0  0  0  0  0  0  0
   -7.9327  -43.2917    2.0216 C   0  0  0  0  0  0  0  0  0  0  0  0
   -8.4928  -43.1684    0.6062 C   0  0  0  0  0  0  0  0  0  0  0  0
   -9.8081  -42.3908    0.5955 C   0  0  0  0  0  0  0  0  0  0  0  0
   -9.7845  -41.3391   -0.4059 N   0  0  0  0  0  0  0  0  0  0  0  0
   -9.0317  -40.6844   -0.1936 H   0  0  0  0  0  0  0  0  0  0  0  0
  -10.6766  -40.8447   -0.4008 H   0  0  0  0  0  0  0  0  0  0  0  0
 12  5  1  0  0  0
 13  7  1  0  0  0
  5  7  2  0  0  0
  5  4  1  0  0  0
  7  1  1  0  0  0
 11  4  1  0  0  0
  4  3  2  0  0  0
  1  6  1  0  0  0
  1  2  2  0  0  0
  6  8  2  0  0  0
  3  2  1  0  0  0
  3 10  1  0  0  0
  2  9  1  0  0  0
  8  9  1  0  0  0
  9 14  1  0  0  0
 14 15  1  0  0  0
 15 16  1  0  0  0
 16 17  1  0  0  0
 17 18  1  0  0  0
 17 19  1  0  0  0
M  END
> <minimizedAffinity>
-6.92352

$$$$
5OWL_B0K_A_401


 19 20  0  0  0  0  0  0  0  0999 V2000
   -6.5356  -44.4094    6.0987 C   0  0  0  0  0  0  0  0  0  0  0  0
   -6.5247  -44.5617    4.7313 C   0  0  0  0  0  0  0  0  0  0  0  0
   -5.7636  -45.6230    4.1557 C   0  0  0  0  0  0  0  0  0  0  0  0
   -5.0396  -46.4916    4.9665 C   0  0  0  0  0  0  0  0  0  0  0  0
   -5.0542  -46.3308    6.3553 C   0  0  0  0  0  0  0  0  0  0  0  0
   -7.3255  -43.3395    6.3894 N   0  0  0  0  0  0  0  0  0  0  0  0
   -5.7953  -45.2973    6.9282 C   0  0  0  0  0  0  0  0  0  0  0  0
   -7.7848  -42.8535    5.2508 C   0  0  0  0  0  0  0  0  0  0  0  0
   -7.3191  -43.5613    4.2346 N   0  0  0  0  0  0  0  0  0  0  0  0
   -5.6971  -45.9084    2.2365 Br  0  0  0  0  0  0  0  0  0  0  0  0
   -4.0103  -47.9274    4.1487 Br  0  0  0  0  0  0  0  0  0  0  0  0
   -4.0393  -47.5541    7.4732 Br  0  0  0  0  0  0  0  0  0  0  0  0
   -5.8304  -45.0566    8.8573 Br  0  0  0  0  0  0  0  0  0  0  0  0
   -7.6449  -43.2951    2.8415 C   0  0  0  0  0  0  0  0  0  0  0  0
   -9.1307  -43.4417    2.5205 C   0  0  0  0  0  0  0  0  0  0  0  0
   -9.3942  -43.2777    1.0243 C   0  0  0  0  0  0  0  0  0  0  0  0
   -9.0847  -41.9285    0.5847 N   0  0  0  0  0  0  0  0  0  0  0  0
   -9.6754  -41.2641    1.0846 H   0  0  0  0  0  0  0  0  0  0  0  0
   -9.2569  -41.8495   -0.4176 H   0  0  0  0  0  0  0  0  0  0  0  0
 12  5  1  0  0  0
 13  7  1  0  0  0
  5  7  2  0  0  0
  5  4  1  0  0  0
  7  1  1  0  0  0
 11  4  1  0  0  0
  4  3  2  0  0  0
  1  6  1  0  0  0
  1  2  2  0  0  0
  6  8  2  0  0  0
  3  2  1  0  0  0
  3 10  1  0  0  0
  2  9  1  0  0  0
  8  9  1  0  0  0
  9 14  1  0  0  0
 14 15  1  0  0  0
 15 16  1  0  0  0
 16 17  1  0  0  0
 17 18  1  0  0  0
 17 19  1  0  0  0
M  END
> <minimizedAffinity>
-6.90672

$$$$
5OWL_B0K_A_401


 19 20  0  0  0  0  0  0  0  0999 V2000
   -4.9925  -46.4164    5.4170 C   0  0  0  0  0  0  0  0  0  0  0  0
   -4.1435  -47.0190    6.3165 C   0  0  0  0  0  0  0  0  0  0  0  0
   -4.1551  -46.5914    7.6780 C   0  0  0  0  0  0  0  0  0  0  0  0
   -5.0124  -45.5760    8.0908 C   0  0  0  0  0  0  0  0  0  0  0  0
   -5.8721  -44.9671    7.1716 C   0  0  0  0  0  0  0  0  0  0  0  0
   -4.7893  -46.9977    4.2030 N   0  0  0  0  0  0  0  0  0  0  0  0
   -5.8693  -45.3780    5.8387 C   0  0  0  0  0  0  0  0  0  0  0  0
   -3.8567  -47.9213    4.3469 C   0  0  0  0  0  0  0  0  0  0  0  0
   -3.4435  -47.9571    5.6032 N   0  0  0  0  0  0  0  0  0  0  0  0
   -2.9910  -47.3911    9.0102 Br  0  0  0  0  0  0  0  0  0  0  0  0
   -5.0013  -45.0152    9.9550 Br  0  0  0  0  0  0  0  0  0  0  0  0
   -7.0645  -43.5522    7.7651 Br  0  0  0  0  0  0  0  0  0  0  0  0
   -7.0575  -44.5455    4.5442 Br  0  0  0  0  0  0  0  0  0  0  0  0
   -2.4286  -48.8744    6.0994 C   0  0  0  0  0  0  0  0  0  0  0  0
   -1.9140  -49.8493    5.0425 C   0  0  0  0  0  0  0  0  0  0  0  0
   -1.1056  -50.9801    5.6771 C   0  0  0  0  0  0  0  0  0  0  0  0
    0.3059  -50.6427    5.7371 N   0  0  0  0  0  0  0  0  0  0  0  0
    0.6599  -50.4923    4.7924 H   0  0  0  0  0  0  0  0  0  0  0  0
    0.8199  -51.4070    6.1751 H   0  0  0  0  0  0  0  0  0  0  0  0
 12  5  1  0  0  0
 13  7  1  0  0  0
  5  7  2  0  0  0
  5  4  1  0  0  0
  7  1  1  0  0  0
 11  4  1  0  0  0
  4  3  2  0  0  0
  1  6  1  0  0  0
  1  2  2  0  0  0
  6  8  2  0  0  0
  3  2  1  0  0  0
  3 10  1  0  0  0
  2  9  1  0  0  0
  8  9  1  0  0  0
  9 14  1  0  0  0
 14 15  1  0  0  0
 15 16  1  0  0  0
 16 17  1  0  0  0
 17 18  1  0  0  0
 17 19  1  0  0  0
M  END
> <minimizedAffinity>
-6.87299

$$$$
5OWL_B0K_A_401


 19 20  0  0  0  0  0  0  0  0999 V2000
   -4.8977  -46.5867    5.5862 C   0  0  0  0  0  0  0  0  0  0  0  0
   -5.3216  -45.9292    6.7180 C   0  0  0  0  0  0  0  0  0  0  0  0
   -6.1996  -44.8119    6.5859 C   0  0  0  0  0  0  0  0  0  0  0  0
   -6.6203  -44.3907    5.3281 C   0  0  0  0  0  0  0  0  0  0  0  0
   -6.1851  -45.0627    4.1817 C   0  0  0  0  0  0  0  0  0  0  0  0
   -4.0798  -47.6014    5.9791 N   0  0  0  0  0  0  0  0  0  0  0  0
   -5.3275  -46.1563    4.2998 C   0  0  0  0  0  0  0  0  0  0  0  0
   -4.0038  -47.5736    7.2970 C   0  0  0  0  0  0  0  0  0  0  0  0
   -4.7340  -46.5781    7.7727 N   0  0  0  0  0  0  0  0  0  0  0  0
   -6.8457  -43.8316    8.1320 Br  0  0  0  0  0  0  0  0  0  0  0  0
   -7.8164  -42.8618    5.1831 Br  0  0  0  0  0  0  0  0  0  0  0  0
   -6.7839  -44.4629    2.4331 Br  0  0  0  0  0  0  0  0  0  0  0  0
   -4.7114  -47.1056    2.7188 Br  0  0  0  0  0  0  0  0  0  0  0  0
   -4.8754  -46.2785    9.1898 C   0  0  0  0  0  0  0  0  0  0  0  0
   -3.8352  -46.9691   10.0691 C   0  0  0  0  0  0  0  0  0  0  0  0
   -3.3276  -46.0347   11.1665 C   0  0  0  0  0  0  0  0  0  0  0  0
   -2.6552  -46.7796   12.2165 N   0  0  0  0  0  0  0  0  0  0  0  0
   -3.3100  -47.4376   12.6393 H   0  0  0  0  0  0  0  0  0  0  0  0
   -2.3160  -46.1327   12.9285 H   0  0  0  0  0  0  0  0  0  0  0  0
 12  5  1  0  0  0
 13  7  1  0  0  0
  5  7  2  0  0  0
  5  4  1  0  0  0
  7  1  1  0  0  0
 11  4  1  0  0  0
  4  3  2  0  0  0
  1  6  1  0  0  0
  1  2  2  0  0  0
  6  8  2  0  0  0
  3  2  1  0  0  0
  3 10  1  0  0  0
  2  9  1  0  0  0
  8  9  1  0  0  0
  9 14  1  0  0  0
 14 15  1  0  0  0
 15 16  1  0  0  0
 16 17  1  0  0  0
 17 18  1  0  0  0
 17 19  1  0  0  0
M  END
> <minimizedAffinity>
-6.74083

$$$$
5OWL_B0K_A_401


 19 20  0  0  0  0  0  0  0  0999 V2000
   -5.9743  -45.1075    5.9750 C   0  0  0  0  0  0  0  0  0  0  0  0
   -5.3019  -46.1830    5.4421 C   0  0  0  0  0  0  0  0  0  0  0  0
   -5.3644  -46.4150    4.0353 C   0  0  0  0  0  0  0  0  0  0  0  0
   -6.0980  -45.5657    3.2126 C   0  0  0  0  0  0  0  0  0  0  0  0
   -6.7798  -44.4749    3.7606 C   0  0  0  0  0  0  0  0  0  0  0  0
   -5.7573  -45.1085    7.3189 N   0  0  0  0  0  0  0  0  0  0  0  0
   -6.7247  -44.2388    5.1342 C   0  0  0  0  0  0  0  0  0  0  0  0
   -4.9821  -46.1388    7.6035 C   0  0  0  0  0  0  0  0  0  0  0  0
   -4.6939  -46.8085    6.4994 N   0  0  0  0  0  0  0  0  0  0  0  0
   -4.4427  -47.9078    3.2039 Br  0  0  0  0  0  0  0  0  0  0  0  0
   -6.1641  -45.9119    1.2981 Br  0  0  0  0  0  0  0  0  0  0  0  0
   -7.7978  -43.2974    2.5973 Br  0  0  0  0  0  0  0  0  0  0  0  0
   -7.6644  -42.7271    5.9167 Br  0  0  0  0  0  0  0  0  0  0  0  0
   -3.8483  -47.9923    6.4640 C   0  0  0  0  0  0  0  0  0  0  0  0
   -2.3700  -47.6974    6.7087 C   0  0  0  0  0  0  0  0  0  0  0  0
   -1.5420  -47.9243    5.4446 C   0  0  0  0  0  0  0  0  0  0  0  0
   -0.3203  -47.1394    5.4731 N   0  0  0  0  0  0  0  0  0  0  0  0
   -0.5542  -46.1479    5.5242 H   0  0  0  0  0  0  0  0  0  0  0  0
    0.2186  -47.3183    4.6257 H   0  0  0  0  0  0  0  0  0  0  0  0
 12  5  1  0  0  0
 13  7  1  0  0  0
  5  7  2  0  0  0
  5  4  1  0  0  0
  7  1  1  0  0  0
 11  4  1  0  0  0
  4  3  2  0  0  0
  1  6  1  0  0  0
  1  2  2  0  0  0
  6  8  2  0  0  0
  3  2  1  0  0  0
  3 10  1  0  0  0
  2  9  1  0  0  0
  8  9  1  0  0  0
  9 14  1  0  0  0
 14 15  1  0  0  0
 15 16  1  0  0  0
 16 17  1  0  0  0
 17 18  1  0  0  0
 17 19  1  0  0  0
M  END
> <minimizedAffinity>
-6.50716

$$$$
