4RR6_A3S_A_500


 33 35  0  0  0  0  0  0  0  0999 V2000
   14.1167   -4.2131   -4.8194 C   0  0  0  0  0  0  0  0  0  0  0  0
   15.4654   -4.1712   -4.2793 O   0  0  0  0  0  0  0  0  0  0  0  0
   15.3483   -3.8275   -2.8663 C   0  0  0  0  0  0  0  0  0  0  0  0
   13.8860   -4.0027   -2.4758 C   0  0  0  0  0  0  0  0  0  0  0  0
   13.6086   -5.3642   -2.1735 O   0  0  0  0  0  0  0  0  0  0  0  0
   13.2104   -3.5798   -3.7733 C   0  0  0  0  0  0  0  0  0  0  0  0
   13.8684   -5.9214   -2.9239 H   0  0  0  0  0  0  0  0  0  0  0  0
   16.1062   -2.5234   -2.6384 N   0  0  0  0  0  0  0  0  0  0  0  0
   16.0642   -1.8161   -1.5072 C   0  0  0  0  0  0  0  0  0  0  0  0
   15.3730   -1.9946   -0.3724 N   0  0  0  0  0  0  0  0  0  0  0  0
   15.5391   -1.1254    0.6310 C   0  0  0  0  0  0  0  0  0  0  0  0
   16.3893   -0.1191    0.5160 N   0  0  0  0  0  0  0  0  0  0  0  0
   17.1079    0.1255   -0.5994 C   0  0  0  0  0  0  0  0  0  0  0  0
   17.9450    1.1708   -0.6809 N   0  0  0  0  0  0  0  0  0  0  0  0
   16.9466   -0.7626   -1.6543 C   0  0  0  0  0  0  0  0  0  0  0  0
   17.4634   -0.8369   -2.8879 N   0  0  0  0  0  0  0  0  0  0  0  0
   16.9715   -1.9293   -3.4934 C   0  0  0  0  0  0  0  0  0  0  0  0
   18.0406    1.7855    0.0820 H   0  0  0  0  0  0  0  0  0  0  0  0
   18.4637    1.3230   -1.5037 H   0  0  0  0  0  0  0  0  0  0  0  0
   11.8895   -4.1460   -3.8178 N   0  0  0  0  0  0  0  0  0  0  0  0
   10.8278   -3.4118   -3.6180 C   0  0  0  0  0  0  0  0  0  0  0  0
   10.8962   -2.0664   -3.4458 O   0  0  0  0  0  0  0  0  0  0  0  0
   11.7831   -5.1071   -4.0026 H   0  0  0  0  0  0  0  0  0  0  0  0
    9.4307   -5.1560   -4.7634 N   0  0  0  0  0  0  0  0  0  0  0  0
    9.5054   -4.1421   -3.6682 C   0  0  0  0  0  0  0  0  0  0  0  0
    8.5182   -5.6114   -4.7434 H   0  0  0  0  0  0  0  0  0  0  0  0
   10.1622   -5.8544   -4.6306 H   0  0  0  0  0  0  0  0  0  0  0  0
    9.2185   -4.8135   -2.3006 C   0  0  0  0  0  0  0  0  0  0  0  0
   10.4342   -5.4637   -1.8305 O   0  0  0  0  0  0  0  0  0  0  0  0
   10.7137   -6.1318   -2.4758 H   0  0  0  0  0  0  0  0  0  0  0  0
   13.0143   -2.4046   -5.9268 O   0  0  0  0  0  0  0  0  0  0  0  0
   14.0791   -3.3556   -6.0441 C   0  0  0  0  0  0  0  0  0  0  0  0
   12.9890   -1.8479   -6.7207 H   0  0  0  0  0  0  0  0  0  0  0  0
 31 32  1  0  0  0
 32  1  1  0  0  0
  1  2  1  0  0  0
  1  6  1  0  0  0
  2  3  1  0  0  0
  3  8  1  0  0  0
  3  4  1  0  0  0
  8  9  1  0  0  0
  8 17  1  0  0  0
  9 10  1  0  0  0
  9 15  2  0  0  0
 10 11  2  0  0  0
 11 12  1  0  0  0
 12 13  2  0  0  0
 13 14  1  0  0  0
 13 15  1  0  0  0
 15 16  1  0  0  0
 16 17  2  0  0  0
  4  5  1  0  0  0
  4  6  1  0  0  0
  6 20  1  0  0  0
 20 21  1  0  0  0
 24 25  1  0  0  0
 25 28  1  0  0  0
 25 21  1  0  0  0
 28 29  1  0  0  0
 21 22  2  0  0  0
 31 33  1  0  0  0
 14 18  1  0  0  0
 14 19  1  0  0  0
  5  7  1  0  0  0
 20 23  1  0  0  0
 24 26  1  0  0  0
 24 27  1  0  0  0
 29 30  1  0  0  0
M  END
> <minimizedAffinity>
-10.46245

$$$$
4RR6_A3S_A_500


 33 35  0  0  0  0  0  0  0  0999 V2000
   14.3601   -4.8590   -4.2281 C   0  0  0  0  0  0  0  0  0  0  0  0
   15.3450   -4.6543   -3.1789 O   0  0  0  0  0  0  0  0  0  0  0  0
   14.8108   -3.6309   -2.2867 C   0  0  0  0  0  0  0  0  0  0  0  0
   13.3324   -3.4672   -2.6168 C   0  0  0  0  0  0  0  0  0  0  0  0
   12.5587   -4.4583   -1.9526 O   0  0  0  0  0  0  0  0  0  0  0  0
   13.3653   -3.7122   -4.1193 C   0  0  0  0  0  0  0  0  0  0  0  0
   12.9001   -5.3383   -2.1759 H   0  0  0  0  0  0  0  0  0  0  0  0
   15.7848   -2.4570   -2.2864 N   0  0  0  0  0  0  0  0  0  0  0  0
   15.9823   -1.6430   -1.2471 C   0  0  0  0  0  0  0  0  0  0  0  0
   15.4042   -1.5880   -0.0388 N   0  0  0  0  0  0  0  0  0  0  0  0
   15.8169   -0.6630    0.8354 C   0  0  0  0  0  0  0  0  0  0  0  0
   16.7960    0.1691    0.5230 N   0  0  0  0  0  0  0  0  0  0  0  0
   17.4136    0.1762   -0.6765 C   0  0  0  0  0  0  0  0  0  0  0  0
   18.3898    1.0520   -0.9592 N   0  0  0  0  0  0  0  0  0  0  0  0
   16.9968   -0.7733   -1.5998 C   0  0  0  0  0  0  0  0  0  0  0  0
   17.3530   -1.0567   -2.8597 N   0  0  0  0  0  0  0  0  0  0  0  0
   16.6306   -2.1057   -3.2834 C   0  0  0  0  0  0  0  0  0  0  0  0
   18.6662    1.7152   -0.2861 H   0  0  0  0  0  0  0  0  0  0  0  0
   18.8297    1.0314   -1.8397 H   0  0  0  0  0  0  0  0  0  0  0  0
   12.0560   -4.1161   -4.5550 N   0  0  0  0  0  0  0  0  0  0  0  0
   11.4902   -3.5752   -5.6008 C   0  0  0  0  0  0  0  0  0  0  0  0
   12.1297   -2.6712   -6.3871 O   0  0  0  0  0  0  0  0  0  0  0  0
   11.5758   -4.8150   -4.0548 H   0  0  0  0  0  0  0  0  0  0  0  0
    9.5185   -4.9438   -4.8624 N   0  0  0  0  0  0  0  0  0  0  0  0
   10.1028   -4.0765   -5.9298 C   0  0  0  0  0  0  0  0  0  0  0  0
    8.5864   -5.2478   -5.1437 H   0  0  0  0  0  0  0  0  0  0  0  0
    9.4557   -4.4159   -3.9919 H   0  0  0  0  0  0  0  0  0  0  0  0
    9.1611   -2.8791   -6.2179 C   0  0  0  0  0  0  0  0  0  0  0  0
    9.5168   -2.2991   -7.5057 O   0  0  0  0  0  0  0  0  0  0  0  0
   10.4385   -1.9977   -7.4811 H   0  0  0  0  0  0  0  0  0  0  0  0
   14.8819   -3.4199   -6.0635 O   0  0  0  0  0  0  0  0  0  0  0  0
   15.0552   -4.7448   -5.5473 C   0  0  0  0  0  0  0  0  0  0  0  0
   15.3325   -3.3448   -6.9193 H   0  0  0  0  0  0  0  0  0  0  0  0
 31 32  1  0  0  0
 32  1  1  0  0  0
  1  2  1  0  0  0
  1  6  1  0  0  0
  2  3  1  0  0  0
  3  8  1  0  0  0
  3  4  1  0  0  0
  8  9  1  0  0  0
  8 17  1  0  0  0
  9 10  1  0  0  0
  9 15  2  0  0  0
 10 11  2  0  0  0
 11 12  1  0  0  0
 12 13  2  0  0  0
 13 14  1  0  0  0
 13 15  1  0  0  0
 15 16  1  0  0  0
 16 17  2  0  0  0
  4  5  1  0  0  0
  4  6  1  0  0  0
  6 20  1  0  0  0
 20 21  1  0  0  0
 24 25  1  0  0  0
 25 28  1  0  0  0
 25 21  1  0  0  0
 28 29  1  0  0  0
 21 22  2  0  0  0
 31 33  1  0  0  0
 14 18  1  0  0  0
 14 19  1  0  0  0
  5  7  1  0  0  0
 20 23  1  0  0  0
 24 26  1  0  0  0
 24 27  1  0  0  0
 29 30  1  0  0  0
M  END
> <minimizedAffinity>
-10.40970

$$$$
4RR6_A3S_A_500


 33 35  0  0  0  0  0  0  0  0999 V2000
   14.0293   -3.8133   -5.2975 C   0  0  0  0  0  0  0  0  0  0  0  0
   15.3344   -3.8571   -4.6593 O   0  0  0  0  0  0  0  0  0  0  0  0
   15.1042   -4.0398   -3.2303 C   0  0  0  0  0  0  0  0  0  0  0  0
   13.6489   -4.4548   -3.0539 C   0  0  0  0  0  0  0  0  0  0  0  0
   13.4987   -5.8534   -3.2627 O   0  0  0  0  0  0  0  0  0  0  0  0
   13.0056   -3.6592   -4.1817 C   0  0  0  0  0  0  0  0  0  0  0  0
   13.8561   -6.0906   -4.1326 H   0  0  0  0  0  0  0  0  0  0  0  0
   15.7083   -2.8425   -2.5032 N   0  0  0  0  0  0  0  0  0  0  0  0
   16.8345   -2.2280   -2.8716 C   0  0  0  0  0  0  0  0  0  0  0  0
   17.7073   -2.4867   -3.8558 N   0  0  0  0  0  0  0  0  0  0  0  0
   18.7628   -1.6800   -4.0144 C   0  0  0  0  0  0  0  0  0  0  0  0
   18.9314   -0.6297   -3.2290 N   0  0  0  0  0  0  0  0  0  0  0  0
   18.0991   -0.3170   -2.2141 C   0  0  0  0  0  0  0  0  0  0  0  0
   18.3186    0.7477   -1.4279 N   0  0  0  0  0  0  0  0  0  0  0  0
   16.9996   -1.1444   -2.0298 C   0  0  0  0  0  0  0  0  0  0  0  0
   15.9924   -1.1609   -1.1468 N   0  0  0  0  0  0  0  0  0  0  0  0
   15.1794   -2.1870   -1.4433 C   0  0  0  0  0  0  0  0  0  0  0  0
   19.1064    1.3182   -1.5803 H   0  0  0  0  0  0  0  0  0  0  0  0
   17.6919    0.9586   -0.6984 H   0  0  0  0  0  0  0  0  0  0  0  0
   11.7554   -4.2760   -4.5338 N   0  0  0  0  0  0  0  0  0  0  0  0
   10.6141   -3.6949   -4.2767 C   0  0  0  0  0  0  0  0  0  0  0  0
   10.5369   -2.4466   -3.7475 O   0  0  0  0  0  0  0  0  0  0  0  0
   11.7596   -5.1546   -4.9779 H   0  0  0  0  0  0  0  0  0  0  0  0
    8.2324   -4.2803   -3.7375 N   0  0  0  0  0  0  0  0  0  0  0  0
    9.3787   -4.4677   -4.6777 C   0  0  0  0  0  0  0  0  0  0  0  0
    7.4336   -4.8251   -4.0624 H   0  0  0  0  0  0  0  0  0  0  0  0
    7.9790   -3.2929   -3.7029 H   0  0  0  0  0  0  0  0  0  0  0  0
    8.9551   -4.0798   -6.1177 C   0  0  0  0  0  0  0  0  0  0  0  0
    9.7019   -2.8979   -6.5263 O   0  0  0  0  0  0  0  0  0  0  0  0
    9.5111   -2.1681   -5.9165 H   0  0  0  0  0  0  0  0  0  0  0  0
   12.6322   -2.0756   -6.1583 O   0  0  0  0  0  0  0  0  0  0  0  0
   13.9702   -2.5874   -6.1520 C   0  0  0  0  0  0  0  0  0  0  0  0
   12.5928   -1.2804   -6.7123 H   0  0  0  0  0  0  0  0  0  0  0  0
 31 32  1  0  0  0
 32  1  1  0  0  0
  1  2  1  0  0  0
  1  6  1  0  0  0
  2  3  1  0  0  0
  3  8  1  0  0  0
  3  4  1  0  0  0
  8  9  1  0  0  0
  8 17  1  0  0  0
  9 10  1  0  0  0
  9 15  2  0  0  0
 10 11  2  0  0  0
 11 12  1  0  0  0
 12 13  2  0  0  0
 13 14  1  0  0  0
 13 15  1  0  0  0
 15 16  1  0  0  0
 16 17  2  0  0  0
  4  5  1  0  0  0
  4  6  1  0  0  0
  6 20  1  0  0  0
 20 21  1  0  0  0
 24 25  1  0  0  0
 25 28  1  0  0  0
 25 21  1  0  0  0
 28 29  1  0  0  0
 21 22  2  0  0  0
 31 33  1  0  0  0
 14 18  1  0  0  0
 14 19  1  0  0  0
  5  7  1  0  0  0
 20 23  1  0  0  0
 24 26  1  0  0  0
 24 27  1  0  0  0
 29 30  1  0  0  0
M  END
> <minimizedAffinity>
-9.82672

$$$$
4RR6_A3S_A_500


 33 35  0  0  0  0  0  0  0  0999 V2000
   14.0054   -3.2057   -6.7648 C   0  0  0  0  0  0  0  0  0  0  0  0
   15.4247   -3.4245   -6.5406 O   0  0  0  0  0  0  0  0  0  0  0  0
   15.5943   -3.6978   -5.1176 C   0  0  0  0  0  0  0  0  0  0  0  0
   14.2130   -3.9850   -4.5423 C   0  0  0  0  0  0  0  0  0  0  0  0
   13.8503   -5.3417   -4.7655 O   0  0  0  0  0  0  0  0  0  0  0  0
   13.3689   -3.0443   -5.3917 C   0  0  0  0  0  0  0  0  0  0  0  0
   13.9139   -5.5418   -5.7125 H   0  0  0  0  0  0  0  0  0  0  0  0
   16.5142   -2.6254   -4.5425 N   0  0  0  0  0  0  0  0  0  0  0  0
   16.4030   -2.1189   -3.3126 C   0  0  0  0  0  0  0  0  0  0  0  0
   15.5099   -2.3402   -2.3375 N   0  0  0  0  0  0  0  0  0  0  0  0
   15.6501   -1.6976   -1.1724 C   0  0  0  0  0  0  0  0  0  0  0  0
   16.6666   -0.8751   -0.9754 N   0  0  0  0  0  0  0  0  0  0  0  0
   17.5944   -0.5986   -1.9151 C   0  0  0  0  0  0  0  0  0  0  0  0
   18.5992    0.2587   -1.6799 N   0  0  0  0  0  0  0  0  0  0  0  0
   17.4643   -1.2519   -3.1332 C   0  0  0  0  0  0  0  0  0  0  0  0
   18.1617   -1.2241   -4.2766 N   0  0  0  0  0  0  0  0  0  0  0  0
   17.6001   -2.0829   -5.1420 C   0  0  0  0  0  0  0  0  0  0  0  0
   18.6681    0.7088   -0.8070 H   0  0  0  0  0  0  0  0  0  0  0  0
   19.2677    0.4376   -2.3801 H   0  0  0  0  0  0  0  0  0  0  0  0
   12.0083   -3.5091   -5.3909 N   0  0  0  0  0  0  0  0  0  0  0  0
   11.1705   -3.1590   -4.4519 C   0  0  0  0  0  0  0  0  0  0  0  0
   11.5004   -2.2734   -3.4765 O   0  0  0  0  0  0  0  0  0  0  0  0
   11.7017   -4.1036   -6.1132 H   0  0  0  0  0  0  0  0  0  0  0  0
    8.7039   -2.7816   -4.1704 N   0  0  0  0  0  0  0  0  0  0  0  0
    9.7802   -3.7417   -4.5615 C   0  0  0  0  0  0  0  0  0  0  0  0
    7.7943   -3.2333   -4.2659 H   0  0  0  0  0  0  0  0  0  0  0  0
    8.7421   -1.9625   -4.7770 H   0  0  0  0  0  0  0  0  0  0  0  0
    9.5345   -4.2592   -6.0020 C   0  0  0  0  0  0  0  0  0  0  0  0
    8.2023   -4.8440   -6.0717 O   0  0  0  0  0  0  0  0  0  0  0  0
    8.1377   -5.5776   -5.4403 H   0  0  0  0  0  0  0  0  0  0  0  0
   15.0818   -1.1941   -7.4768 O   0  0  0  0  0  0  0  0  0  0  0  0
   13.8445   -1.9155   -7.5038 C   0  0  0  0  0  0  0  0  0  0  0  0
   14.9785   -0.3570   -7.9559 H   0  0  0  0  0  0  0  0  0  0  0  0
 31 32  1  0  0  0
 32  1  1  0  0  0
  1  2  1  0  0  0
  1  6  1  0  0  0
  2  3  1  0  0  0
  3  8  1  0  0  0
  3  4  1  0  0  0
  8  9  1  0  0  0
  8 17  1  0  0  0
  9 10  1  0  0  0
  9 15  2  0  0  0
 10 11  2  0  0  0
 11 12  1  0  0  0
 12 13  2  0  0  0
 13 14  1  0  0  0
 13 15  1  0  0  0
 15 16  1  0  0  0
 16 17  2  0  0  0
  4  5  1  0  0  0
  4  6  1  0  0  0
  6 20  1  0  0  0
 20 21  1  0  0  0
 24 25  1  0  0  0
 25 28  1  0  0  0
 25 21  1  0  0  0
 28 29  1  0  0  0
 21 22  2  0  0  0
 31 33  1  0  0  0
 14 18  1  0  0  0
 14 19  1  0  0  0
  5  7  1  0  0  0
 20 23  1  0  0  0
 24 26  1  0  0  0
 24 27  1  0  0  0
 29 30  1  0  0  0
M  END
> <minimizedAffinity>
-7.94310

$$$$
4RR6_A3S_A_500


 33 35  0  0  0  0  0  0  0  0999 V2000
   14.0750   -4.6020   -4.6820 C   0  0  0  0  0  0  0  0  0  0  0  0
   15.4874   -4.5268   -4.3472 O   0  0  0  0  0  0  0  0  0  0  0  0
   15.5724   -4.1665   -2.9360 C   0  0  0  0  0  0  0  0  0  0  0  0
   14.1876   -4.3647   -2.3323 C   0  0  0  0  0  0  0  0  0  0  0  0
   13.9864   -5.7271   -1.9783 O   0  0  0  0  0  0  0  0  0  0  0  0
   13.3196   -3.9723   -3.5203 C   0  0  0  0  0  0  0  0  0  0  0  0
   14.1445   -6.2892   -2.7528 H   0  0  0  0  0  0  0  0  0  0  0  0
   16.3280   -2.8452   -2.8361 N   0  0  0  0  0  0  0  0  0  0  0  0
   17.2119   -2.4134   -3.7384 C   0  0  0  0  0  0  0  0  0  0  0  0
   17.6887   -2.9785   -4.8567 N   0  0  0  0  0  0  0  0  0  0  0  0
   18.5709   -2.3006   -5.5999 C   0  0  0  0  0  0  0  0  0  0  0  0
   18.9495   -1.0826   -5.2512 N   0  0  0  0  0  0  0  0  0  0  0  0
   18.5184   -0.4592   -4.1350 C   0  0  0  0  0  0  0  0  0  0  0  0
   18.9441    0.7704   -3.8079 N   0  0  0  0  0  0  0  0  0  0  0  0
   17.6056   -1.1476   -3.3474 C   0  0  0  0  0  0  0  0  0  0  0  0
   16.9827   -0.8682   -2.1948 N   0  0  0  0  0  0  0  0  0  0  0  0
   16.1766   -1.8953   -1.8835 C   0  0  0  0  0  0  0  0  0  0  0  0
   19.5920    1.2365   -4.3841 H   0  0  0  0  0  0  0  0  0  0  0  0
   18.6084    1.2065   -2.9915 H   0  0  0  0  0  0  0  0  0  0  0  0
   12.0187   -4.5644   -3.3635 N   0  0  0  0  0  0  0  0  0  0  0  0
   10.9446   -3.8284   -3.2587 C   0  0  0  0  0  0  0  0  0  0  0  0
   10.9755   -2.4760   -3.3787 O   0  0  0  0  0  0  0  0  0  0  0  0
   11.9358   -5.5449   -3.3346 H   0  0  0  0  0  0  0  0  0  0  0  0
    9.4908   -5.1608   -1.7040 N   0  0  0  0  0  0  0  0  0  0  0  0
    9.6478   -4.5820   -3.0728 C   0  0  0  0  0  0  0  0  0  0  0  0
    8.6001   -5.6541   -1.6435 H   0  0  0  0  0  0  0  0  0  0  0  0
    9.5117   -4.4106   -1.0132 H   0  0  0  0  0  0  0  0  0  0  0  0
    8.4465   -3.6589   -3.4014 C   0  0  0  0  0  0  0  0  0  0  0  0
    7.2107   -4.3676   -3.0977 O   0  0  0  0  0  0  0  0  0  0  0  0
    7.1626   -5.1767   -3.6305 H   0  0  0  0  0  0  0  0  0  0  0  0
   13.1374   -2.5706   -5.5226 O   0  0  0  0  0  0  0  0  0  0  0  0
   13.8394   -3.7619   -5.8966 C   0  0  0  0  0  0  0  0  0  0  0  0
   12.9841   -2.0250   -6.3098 H   0  0  0  0  0  0  0  0  0  0  0  0
 31 32  1  0  0  0
 32  1  1  0  0  0
  1  2  1  0  0  0
  1  6  1  0  0  0
  2  3  1  0  0  0
  3  8  1  0  0  0
  3  4  1  0  0  0
  8  9  1  0  0  0
  8 17  1  0  0  0
  9 10  1  0  0  0
  9 15  2  0  0  0
 10 11  2  0  0  0
 11 12  1  0  0  0
 12 13  2  0  0  0
 13 14  1  0  0  0
 13 15  1  0  0  0
 15 16  1  0  0  0
 16 17  2  0  0  0
  4  5  1  0  0  0
  4  6  1  0  0  0
  6 20  1  0  0  0
 20 21  1  0  0  0
 24 25  1  0  0  0
 25 28  1  0  0  0
 25 21  1  0  0  0
 28 29  1  0  0  0
 21 22  2  0  0  0
 31 33  1  0  0  0
 14 18  1  0  0  0
 14 19  1  0  0  0
  5  7  1  0  0  0
 20 23  1  0  0  0
 24 26  1  0  0  0
 24 27  1  0  0  0
 29 30  1  0  0  0
M  END
> <minimizedAffinity>
-7.84154

$$$$
4RR6_A3S_A_500


 33 35  0  0  0  0  0  0  0  0999 V2000
   13.8130   -3.4865   -6.3180 C   0  0  0  0  0  0  0  0  0  0  0  0
   15.2386   -3.6752   -6.1065 O   0  0  0  0  0  0  0  0  0  0  0  0
   15.4280   -3.9321   -4.6829 C   0  0  0  0  0  0  0  0  0  0  0  0
   14.0585   -4.2411   -4.0909 C   0  0  0  0  0  0  0  0  0  0  0  0
   13.7205   -5.6067   -4.2982 O   0  0  0  0  0  0  0  0  0  0  0  0
   13.1875   -3.3250   -4.9399 C   0  0  0  0  0  0  0  0  0  0  0  0
   13.7784   -5.8142   -5.2439 H   0  0  0  0  0  0  0  0  0  0  0  0
   16.3323   -2.8366   -4.1270 N   0  0  0  0  0  0  0  0  0  0  0  0
   17.2654   -2.1985   -4.8368 C   0  0  0  0  0  0  0  0  0  0  0  0
   17.6788   -2.3520   -6.1029 N   0  0  0  0  0  0  0  0  0  0  0  0
   18.6381   -1.5468   -6.5734 C   0  0  0  0  0  0  0  0  0  0  0  0
   19.1547   -0.5981   -5.8107 N   0  0  0  0  0  0  0  0  0  0  0  0
   18.7935   -0.3951   -4.5267 C   0  0  0  0  0  0  0  0  0  0  0  0
   19.3581    0.5671   -3.7815 N   0  0  0  0  0  0  0  0  0  0  0  0
   17.8022   -1.2233   -4.0177 C   0  0  0  0  0  0  0  0  0  0  0  0
   17.2102   -1.3295   -2.8207 N   0  0  0  0  0  0  0  0  0  0  0  0
   16.2879   -2.3027   -2.8837 C   0  0  0  0  0  0  0  0  0  0  0  0
   20.0592    1.1407   -4.1671 H   0  0  0  0  0  0  0  0  0  0  0  0
   19.0714    0.6995   -2.8490 H   0  0  0  0  0  0  0  0  0  0  0  0
   11.8364   -3.8164   -4.9209 N   0  0  0  0  0  0  0  0  0  0  0  0
   10.9184   -3.2540   -4.1811 C   0  0  0  0  0  0  0  0  0  0  0  0
   11.1555   -2.1284   -3.4592 O   0  0  0  0  0  0  0  0  0  0  0  0
   11.5981   -4.5930   -5.4771 H   0  0  0  0  0  0  0  0  0  0  0  0
    9.2058   -4.4365   -5.5863 N   0  0  0  0  0  0  0  0  0  0  0  0
    9.5483   -3.8895   -4.2385 C   0  0  0  0  0  0  0  0  0  0  0  0
    8.2736   -4.8495   -5.5588 H   0  0  0  0  0  0  0  0  0  0  0  0
    9.8864   -5.1502   -5.8466 H   0  0  0  0  0  0  0  0  0  0  0  0
    9.4359   -5.0044   -3.1672 C   0  0  0  0  0  0  0  0  0  0  0  0
    9.5445   -4.4010   -1.8459 O   0  0  0  0  0  0  0  0  0  0  0  0
   10.3991   -3.9493   -1.7660 H   0  0  0  0  0  0  0  0  0  0  0  0
   12.2503   -2.0957   -7.4738 O   0  0  0  0  0  0  0  0  0  0  0  0
   13.6193   -2.2065   -7.0668 C   0  0  0  0  0  0  0  0  0  0  0  0
   12.1236   -1.2657   -7.9596 H   0  0  0  0  0  0  0  0  0  0  0  0
 31 32  1  0  0  0
 32  1  1  0  0  0
  1  2  1  0  0  0
  1  6  1  0  0  0
  2  3  1  0  0  0
  3  8  1  0  0  0
  3  4  1  0  0  0
  8  9  1  0  0  0
  8 17  1  0  0  0
  9 10  1  0  0  0
  9 15  2  0  0  0
 10 11  2  0  0  0
 11 12  1  0  0  0
 12 13  2  0  0  0
 13 14  1  0  0  0
 13 15  1  0  0  0
 15 16  1  0  0  0
 16 17  2  0  0  0
  4  5  1  0  0  0
  4  6  1  0  0  0
  6 20  1  0  0  0
 20 21  1  0  0  0
 24 25  1  0  0  0
 25 28  1  0  0  0
 25 21  1  0  0  0
 28 29  1  0  0  0
 21 22  2  0  0  0
 31 33  1  0  0  0
 14 18  1  0  0  0
 14 19  1  0  0  0
  5  7  1  0  0  0
 20 23  1  0  0  0
 24 26  1  0  0  0
 24 27  1  0  0  0
 29 30  1  0  0  0
M  END
> <minimizedAffinity>
-7.80532

$$$$
4RR6_A3S_A_500


 33 35  0  0  0  0  0  0  0  0999 V2000
   12.8337   -3.7124   -6.3109 C   0  0  0  0  0  0  0  0  0  0  0  0
   14.1751   -3.7169   -6.8707 O   0  0  0  0  0  0  0  0  0  0  0  0
   15.1058   -3.7009   -5.7473 C   0  0  0  0  0  0  0  0  0  0  0  0
   14.3096   -4.0380   -4.4928 C   0  0  0  0  0  0  0  0  0  0  0  0
   14.1616   -5.4458   -4.3575 O   0  0  0  0  0  0  0  0  0  0  0  0
   12.9810   -3.3766   -4.8337 C   0  0  0  0  0  0  0  0  0  0  0  0
   13.7650   -5.8083   -5.1651 H   0  0  0  0  0  0  0  0  0  0  0  0
   15.9562   -2.4397   -5.8634 N   0  0  0  0  0  0  0  0  0  0  0  0
   16.9654   -2.1345   -5.0450 C   0  0  0  0  0  0  0  0  0  0  0  0
   17.4472   -2.7543   -3.9582 N   0  0  0  0  0  0  0  0  0  0  0  0
   18.5023   -2.2276   -3.3262 C   0  0  0  0  0  0  0  0  0  0  0  0
   19.0771   -1.1261   -3.7789 N   0  0  0  0  0  0  0  0  0  0  0  0
   18.6385   -0.4464   -4.8586 C   0  0  0  0  0  0  0  0  0  0  0  0
   19.2397    0.6794   -5.2724 N   0  0  0  0  0  0  0  0  0  0  0  0
   17.5416   -0.9741   -5.5264 C   0  0  0  0  0  0  0  0  0  0  0  0
   16.8355   -0.5856   -6.5964 N   0  0  0  0  0  0  0  0  0  0  0  0
   15.8729   -1.4922   -6.8268 C   0  0  0  0  0  0  0  0  0  0  0  0
   20.0161    1.0321   -4.7804 H   0  0  0  0  0  0  0  0  0  0  0  0
   18.9046    1.1526   -6.0679 H   0  0  0  0  0  0  0  0  0  0  0  0
   11.9405   -3.9907   -4.0542 N   0  0  0  0  0  0  0  0  0  0  0  0
   11.0386   -3.2737   -3.4389 C   0  0  0  0  0  0  0  0  0  0  0  0
   10.9726   -1.9232   -3.5661 O   0  0  0  0  0  0  0  0  0  0  0  0
   11.9071   -4.9720   -3.9828 H   0  0  0  0  0  0  0  0  0  0  0  0
    8.6386   -3.9731   -3.2003 N   0  0  0  0  0  0  0  0  0  0  0  0
   10.0199   -4.0486   -2.6350 C   0  0  0  0  0  0  0  0  0  0  0  0
    8.0018   -4.5138   -2.6151 H   0  0  0  0  0  0  0  0  0  0  0  0
    8.6372   -4.3540   -4.1465 H   0  0  0  0  0  0  0  0  0  0  0  0
   10.4619   -5.5288   -2.5052 C   0  0  0  0  0  0  0  0  0  0  0  0
   11.4696   -5.6296   -1.4584 O   0  0  0  0  0  0  0  0  0  0  0  0
   12.2315   -5.0750   -1.6885 H   0  0  0  0  0  0  0  0  0  0  0  0
   10.6775   -2.7263   -6.6121 O   0  0  0  0  0  0  0  0  0  0  0  0
   12.0618   -2.6090   -6.9614 C   0  0  0  0  0  0  0  0  0  0  0  0
   10.1759   -2.0110   -7.0336 H   0  0  0  0  0  0  0  0  0  0  0  0
 31 32  1  0  0  0
 32  1  1  0  0  0
  1  2  1  0  0  0
  1  6  1  0  0  0
  2  3  1  0  0  0
  3  8  1  0  0  0
  3  4  1  0  0  0
  8  9  1  0  0  0
  8 17  1  0  0  0
  9 10  1  0  0  0
  9 15  2  0  0  0
 10 11  2  0  0  0
 11 12  1  0  0  0
 12 13  2  0  0  0
 13 14  1  0  0  0
 13 15  1  0  0  0
 15 16  1  0  0  0
 16 17  2  0  0  0
  4  5  1  0  0  0
  4  6  1  0  0  0
  6 20  1  0  0  0
 20 21  1  0  0  0
 24 25  1  0  0  0
 25 28  1  0  0  0
 25 21  1  0  0  0
 28 29  1  0  0  0
 21 22  2  0  0  0
 31 33  1  0  0  0
 14 18  1  0  0  0
 14 19  1  0  0  0
  5  7  1  0  0  0
 20 23  1  0  0  0
 24 26  1  0  0  0
 24 27  1  0  0  0
 29 30  1  0  0  0
M  END
> <minimizedAffinity>
-7.62262

$$$$
