4KZ6_ZB6_B_401


 17 17  0  0  0  0  0  0  0  0999 V2000
   79.5652    5.8440   29.5731 C   0  0  0  0  0  0  0  0  0  0  0  0
   79.7745    6.2542   28.1555 C   0  0  0  0  0  0  0  0  0  0  0  0
   80.7525    7.3752   28.1071 C   0  0  0  0  0  0  0  0  0  0  0  0
   80.1200    8.6888   28.5039 C   0  0  0  0  0  0  0  0  0  0  0  0
   78.8355    8.9388   27.7404 C   0  0  0  0  0  0  0  0  0  0  0  0
   77.8879    7.7813   27.7763 C   0  0  0  0  0  0  0  0  0  0  0  0
   78.5560    6.5565   27.4953 N   0  0  0  0  0  0  0  0  0  0  0  0
   78.1018    5.5587   26.5429 C   0  0  0  0  0  0  0  0  0  0  0  0
   78.7961    4.5661   26.4131 O   0  0  0  0  0  0  0  0  0  0  0  0
   77.0714    7.8076   29.0362 C   0  0  0  0  0  0  0  0  0  0  0  0
   77.3717    8.6430   29.9365 O   0  0  0  0  0  0  0  0  0  0  0  0
   76.1002    6.9929   29.2045 O   0  0  0  0  0  0  0  0  0  0  0  0
   75.8837    6.3768   28.5326 H   0  0  0  0  0  0  0  0  0  0  0  0
   76.8663    5.6361   25.7031 C   0  0  0  0  0  0  0  0  0  0  0  0
   77.0293    6.1502   24.3109 C   0  0  0  0  0  0  0  0  0  0  0  0
   75.5377    6.5214   23.4389 S   0  0  0  0  0  0  0  0  0  0  0  0
   74.8151    5.3815   23.2711 H   0  0  0  0  0  0  0  0  0  0  0  0
 11 10  2  0  0  0
  4  5  1  0  0  0
  4  3  1  0  0  0
 10 12  1  0  0  0
 10  6  1  0  0  0
  5  6  1  0  0  0
  1  2  1  0  0  0
  3  2  1  0  0  0
  6  7  1  0  0  0
  2  7  1  0  0  0
  7  8  1  0  0  0
  8  9  2  0  0  0
  8 14  1  0  0  0
 14 15  1  0  0  0
 15 16  1  0  0  0
 16 17  1  0  0  0
 12 13  1  0  0  0
M  END
> <minimizedAffinity>
-6.31411

$$$$
4KZ6_ZB6_B_401


 17 17  0  0  0  0  0  0  0  0999 V2000
   77.3787    7.5074   28.7712 C   0  0  0  0  0  0  0  0  0  0  0  0
   78.7881    7.9893   28.8260 C   0  0  0  0  0  0  0  0  0  0  0  0
   79.0714    8.8189   27.6231 C   0  0  0  0  0  0  0  0  0  0  0  0
   79.2996    7.9675   26.3958 C   0  0  0  0  0  0  0  0  0  0  0  0
   80.3135    6.8733   26.6607 C   0  0  0  0  0  0  0  0  0  0  0  0
   80.0229    6.0802   27.8958 C   0  0  0  0  0  0  0  0  0  0  0  0
   79.7151    6.9293   28.9957 N   0  0  0  0  0  0  0  0  0  0  0  0
   80.3003    6.8223   30.3205 C   0  0  0  0  0  0  0  0  0  0  0  0
   79.9346    7.6356   31.1505 O   0  0  0  0  0  0  0  0  0  0  0  0
   79.0234    4.9981   27.6043 C   0  0  0  0  0  0  0  0  0  0  0  0
   78.7686    4.7164   26.3983 O   0  0  0  0  0  0  0  0  0  0  0  0
   78.4292    4.3820   28.5543 O   0  0  0  0  0  0  0  0  0  0  0  0
   78.6235    4.5964   29.4455 H   0  0  0  0  0  0  0  0  0  0  0  0
   81.3122    5.8124   30.7611 C   0  0  0  0  0  0  0  0  0  0  0  0
   81.4355    5.5795   32.2307 C   0  0  0  0  0  0  0  0  0  0  0  0
   80.1187    4.6770   32.9887 S   0  0  0  0  0  0  0  0  0  0  0  0
   78.9621    5.3839   32.8779 H   0  0  0  0  0  0  0  0  0  0  0  0
 11 10  2  0  0  0
  4  5  1  0  0  0
  4  3  1  0  0  0
 10 12  1  0  0  0
 10  6  1  0  0  0
  5  6  1  0  0  0
  1  2  1  0  0  0
  3  2  1  0  0  0
  6  7  1  0  0  0
  2  7  1  0  0  0
  7  8  1  0  0  0
  8  9  2  0  0  0
  8 14  1  0  0  0
 14 15  1  0  0  0
 15 16  1  0  0  0
 16 17  1  0  0  0
 12 13  1  0  0  0
M  END
> <minimizedAffinity>
-5.87406

$$$$
4KZ6_ZB6_B_401


 17 17  0  0  0  0  0  0  0  0999 V2000
   77.9290    7.9872   26.9991 C   0  0  0  0  0  0  0  0  0  0  0  0
   78.8896    8.1547   28.1264 C   0  0  0  0  0  0  0  0  0  0  0  0
   80.1339    8.7963   27.6210 C   0  0  0  0  0  0  0  0  0  0  0  0
   81.0111    7.8133   26.8811 C   0  0  0  0  0  0  0  0  0  0  0  0
   81.2353    6.5520   27.6901 C   0  0  0  0  0  0  0  0  0  0  0  0
   79.9700    5.9502   28.2155 C   0  0  0  0  0  0  0  0  0  0  0  0
   79.1358    6.9373   28.8114 N   0  0  0  0  0  0  0  0  0  0  0  0
   78.5068    6.8204   30.1152 C   0  0  0  0  0  0  0  0  0  0  0  0
   77.8279    7.7621   30.4847 O   0  0  0  0  0  0  0  0  0  0  0  0
   79.3217    5.0899   27.1695 C   0  0  0  0  0  0  0  0  0  0  0  0
   78.3565    4.3465   27.5081 O   0  0  0  0  0  0  0  0  0  0  0  0
   79.7442    5.0956   25.9626 O   0  0  0  0  0  0  0  0  0  0  0  0
   80.4599    5.6493   25.7193 H   0  0  0  0  0  0  0  0  0  0  0  0
   78.6172    5.6568   31.0488 C   0  0  0  0  0  0  0  0  0  0  0  0
   79.0273    5.9564   32.4528 C   0  0  0  0  0  0  0  0  0  0  0  0
   80.1501    4.8121   33.1964 S   0  0  0  0  0  0  0  0  0  0  0  0
   79.5557    3.5929   33.2952 H   0  0  0  0  0  0  0  0  0  0  0  0
 11 10  2  0  0  0
  4  5  1  0  0  0
  4  3  1  0  0  0
 10 12  1  0  0  0
 10  6  1  0  0  0
  5  6  1  0  0  0
  1  2  1  0  0  0
  3  2  1  0  0  0
  6  7  1  0  0  0
  2  7  1  0  0  0
  7  8  1  0  0  0
  8  9  2  0  0  0
  8 14  1  0  0  0
 14 15  1  0  0  0
 15 16  1  0  0  0
 16 17  1  0  0  0
 12 13  1  0  0  0
M  END
> <minimizedAffinity>
-5.87309

$$$$
4KZ6_ZB6_B_401


 17 17  0  0  0  0  0  0  0  0999 V2000
   78.4779    5.8693   27.4807 C   0  0  0  0  0  0  0  0  0  0  0  0
   78.1179    6.9208   28.4739 C   0  0  0  0  0  0  0  0  0  0  0  0
   78.0963    8.2476   27.7995 C   0  0  0  0  0  0  0  0  0  0  0  0
   79.4904    8.7864   27.5772 C   0  0  0  0  0  0  0  0  0  0  0  0
   80.3128    8.7382   28.8487 C   0  0  0  0  0  0  0  0  0  0  0  0
   80.2860    7.4030   29.5236 C   0  0  0  0  0  0  0  0  0  0  0  0
   78.9593    6.8961   29.6155 N   0  0  0  0  0  0  0  0  0  0  0  0
   78.3551    6.3556   30.8204 C   0  0  0  0  0  0  0  0  0  0  0  0
   77.2028    5.9701   30.7325 O   0  0  0  0  0  0  0  0  0  0  0  0
   81.2981    6.4806   28.9075 C   0  0  0  0  0  0  0  0  0  0  0  0
   82.0297    6.9191   27.9741 O   0  0  0  0  0  0  0  0  0  0  0  0
   81.4105    5.2710   29.3066 O   0  0  0  0  0  0  0  0  0  0  0  0
   80.8648    4.9534   29.9989 H   0  0  0  0  0  0  0  0  0  0  0  0
   79.0109    6.2320   32.1592 C   0  0  0  0  0  0  0  0  0  0  0  0
   79.5815    4.8974   32.5091 C   0  0  0  0  0  0  0  0  0  0  0  0
   80.6470    4.8519   33.9182 S   0  0  0  0  0  0  0  0  0  0  0  0
   81.7487    5.6123   33.6783 H   0  0  0  0  0  0  0  0  0  0  0  0
 11 10  2  0  0  0
  4  5  1  0  0  0
  4  3  1  0  0  0
 10 12  1  0  0  0
 10  6  1  0  0  0
  5  6  1  0  0  0
  1  2  1  0  0  0
  3  2  1  0  0  0
  6  7  1  0  0  0
  2  7  1  0  0  0
  7  8  1  0  0  0
  8  9  2  0  0  0
  8 14  1  0  0  0
 14 15  1  0  0  0
 15 16  1  0  0  0
 16 17  1  0  0  0
 12 13  1  0  0  0
M  END
> <minimizedAffinity>
-5.55062

$$$$
4KZ6_ZB6_B_401


 17 17  0  0  0  0  0  0  0  0999 V2000
   79.3818    9.3577   27.9380 C   0  0  0  0  0  0  0  0  0  0  0  0
   79.9549    8.1064   27.3658 C   0  0  0  0  0  0  0  0  0  0  0  0
   79.2305    7.7622   26.1119 C   0  0  0  0  0  0  0  0  0  0  0  0
   77.8831    7.1400   26.3955 C   0  0  0  0  0  0  0  0  0  0  0  0
   77.9954    6.0039   27.3915 C   0  0  0  0  0  0  0  0  0  0  0  0
   78.7598    6.3684   28.6251 C   0  0  0  0  0  0  0  0  0  0  0  0
   79.9714    7.0420   28.3031 N   0  0  0  0  0  0  0  0  0  0  0  0
   81.2772    6.7148   28.8481 C   0  0  0  0  0  0  0  0  0  0  0  0
   82.2182    7.3849   28.4613 O   0  0  0  0  0  0  0  0  0  0  0  0
   77.8668    7.0632   29.6123 C   0  0  0  0  0  0  0  0  0  0  0  0
   78.3862    7.5729   30.6463 O   0  0  0  0  0  0  0  0  0  0  0  0
   76.6041    7.1273   29.4213 O   0  0  0  0  0  0  0  0  0  0  0  0
   76.2266    6.7472   28.6526 H   0  0  0  0  0  0  0  0  0  0  0  0
   81.5771    5.6309   29.8345 C   0  0  0  0  0  0  0  0  0  0  0  0
   81.6612    6.0314   31.2704 C   0  0  0  0  0  0  0  0  0  0  0  0
   80.5231    5.2404   32.3668 S   0  0  0  0  0  0  0  0  0  0  0  0
   79.2516    5.5765   32.0201 H   0  0  0  0  0  0  0  0  0  0  0  0
 11 10  2  0  0  0
  4  5  1  0  0  0
  4  3  1  0  0  0
 10 12  1  0  0  0
 10  6  1  0  0  0
  5  6  1  0  0  0
  1  2  1  0  0  0
  3  2  1  0  0  0
  6  7  1  0  0  0
  2  7  1  0  0  0
  7  8  1  0  0  0
  8  9  2  0  0  0
  8 14  1  0  0  0
 14 15  1  0  0  0
 15 16  1  0  0  0
 16 17  1  0  0  0
 12 13  1  0  0  0
M  END
> <minimizedAffinity>
-5.42313

$$$$
4KZ6_ZB6_B_401


 17 17  0  0  0  0  0  0  0  0999 V2000
   78.0802    8.4298   27.2774 C   0  0  0  0  0  0  0  0  0  0  0  0
   78.8844    7.7293   26.2362 C   0  0  0  0  0  0  0  0  0  0  0  0
   77.9767    6.9291   25.3694 C   0  0  0  0  0  0  0  0  0  0  0  0
   77.5413    5.6491   26.0440 C   0  0  0  0  0  0  0  0  0  0  0  0
   78.7259    4.8821   26.5953 C   0  0  0  0  0  0  0  0  0  0  0  0
   79.6397    5.7209   27.4321 C   0  0  0  0  0  0  0  0  0  0  0  0
   79.9359    6.9580   26.7942 N   0  0  0  0  0  0  0  0  0  0  0  0
   81.2672    7.5160   26.6347 C   0  0  0  0  0  0  0  0  0  0  0  0
   81.3500    8.5841   26.0549 O   0  0  0  0  0  0  0  0  0  0  0  0
   79.1257    5.8166   28.8397 C   0  0  0  0  0  0  0  0  0  0  0  0
   79.5127    6.7789   29.5628 O   0  0  0  0  0  0  0  0  0  0  0  0
   78.3239    4.9361   29.3056 O   0  0  0  0  0  0  0  0  0  0  0  0
   78.0417    4.2259   28.7635 H   0  0  0  0  0  0  0  0  0  0  0  0
   82.5458    6.9018   27.1100 C   0  0  0  0  0  0  0  0  0  0  0  0
   82.9530    7.1970   28.5157 C   0  0  0  0  0  0  0  0  0  0  0  0
   82.9595    5.8241   29.6285 S   0  0  0  0  0  0  0  0  0  0  0  0
   81.6946    5.3425   29.7616 H   0  0  0  0  0  0  0  0  0  0  0  0
 11 10  2  0  0  0
  4  5  1  0  0  0
  4  3  1  0  0  0
 10 12  1  0  0  0
 10  6  1  0  0  0
  5  6  1  0  0  0
  1  2  1  0  0  0
  3  2  1  0  0  0
  6  7  1  0  0  0
  2  7  1  0  0  0
  7  8  1  0  0  0
  8  9  2  0  0  0
  8 14  1  0  0  0
 14 15  1  0  0  0
 15 16  1  0  0  0
 16 17  1  0  0  0
 12 13  1  0  0  0
M  END
> <minimizedAffinity>
-5.36748

$$$$
4KZ6_ZB6_B_401


 17 17  0  0  0  0  0  0  0  0999 V2000
   79.8681    7.0830   29.2885 C   0  0  0  0  0  0  0  0  0  0  0  0
   80.3074    5.8138   28.6422 C   0  0  0  0  0  0  0  0  0  0  0  0
   81.7604    5.6111   28.8934 C   0  0  0  0  0  0  0  0  0  0  0  0
   82.6110    6.4834   27.9999 C   0  0  0  0  0  0  0  0  0  0  0  0
   82.1984    6.3586   26.5474 C   0  0  0  0  0  0  0  0  0  0  0  0
   80.7279    6.5306   26.3304 C   0  0  0  0  0  0  0  0  0  0  0  0
   79.9740    5.7659   27.2643 N   0  0  0  0  0  0  0  0  0  0  0  0
   78.8670    4.8899   26.9235 C   0  0  0  0  0  0  0  0  0  0  0  0
   78.3312    4.2974   27.8433 O   0  0  0  0  0  0  0  0  0  0  0  0
   80.3753    7.9875   26.2410 C   0  0  0  0  0  0  0  0  0  0  0  0
   79.1548    8.3176   26.2440 O   0  0  0  0  0  0  0  0  0  0  0  0
   81.2884    8.8779   26.1487 O   0  0  0  0  0  0  0  0  0  0  0  0
   82.1907    8.6254   26.1472 H   0  0  0  0  0  0  0  0  0  0  0  0
   78.3257    4.6423   25.5510 C   0  0  0  0  0  0  0  0  0  0  0  0
   76.9096    5.0449   25.3027 C   0  0  0  0  0  0  0  0  0  0  0  0
   76.6701    6.4183   24.2168 S   0  0  0  0  0  0  0  0  0  0  0  0
   77.2225    7.5328   24.7668 H   0  0  0  0  0  0  0  0  0  0  0  0
 11 10  2  0  0  0
  4  5  1  0  0  0
  4  3  1  0  0  0
 10 12  1  0  0  0
 10  6  1  0  0  0
  5  6  1  0  0  0
  1  2  1  0  0  0
  3  2  1  0  0  0
  6  7  1  0  0  0
  2  7  1  0  0  0
  7  8  1  0  0  0
  8  9  2  0  0  0
  8 14  1  0  0  0
 14 15  1  0  0  0
 15 16  1  0  0  0
 16 17  1  0  0  0
 12 13  1  0  0  0
M  END
> <minimizedAffinity>
-5.32440

$$$$
4KZ6_ZB6_B_401


 17 17  0  0  0  0  0  0  0  0999 V2000
   79.2150    7.0445   33.5332 C   0  0  0  0  0  0  0  0  0  0  0  0
   79.2299    5.8629   32.6247 C   0  0  0  0  0  0  0  0  0  0  0  0
   80.0705    4.7913   33.2251 C   0  0  0  0  0  0  0  0  0  0  0  0
   81.5451    5.0733   33.0543 C   0  0  0  0  0  0  0  0  0  0  0  0
   81.8825    5.4085   31.6158 C   0  0  0  0  0  0  0  0  0  0  0  0
   80.9979    6.4623   31.0278 C   0  0  0  0  0  0  0  0  0  0  0  0
   79.6267    6.2011   31.3056 N   0  0  0  0  0  0  0  0  0  0  0  0
   78.5576    6.2272   30.3231 C   0  0  0  0  0  0  0  0  0  0  0  0
   77.4361    5.9708   30.7238 O   0  0  0  0  0  0  0  0  0  0  0  0
   81.4915    7.8313   31.3975 C   0  0  0  0  0  0  0  0  0  0  0  0
   81.1125    8.8201   30.7066 O   0  0  0  0  0  0  0  0  0  0  0  0
   82.2910    7.9956   32.3820 O   0  0  0  0  0  0  0  0  0  0  0  0
   82.5673    7.2579   32.8893 H   0  0  0  0  0  0  0  0  0  0  0  0
   78.7031    6.5338   28.8661 C   0  0  0  0  0  0  0  0  0  0  0  0
   79.2530    5.4483   28.0011 C   0  0  0  0  0  0  0  0  0  0  0  0
   78.3674    5.1197   26.5075 S   0  0  0  0  0  0  0  0  0  0  0  0
   77.1169    4.6785   26.8098 H   0  0  0  0  0  0  0  0  0  0  0  0
 11 10  2  0  0  0
  4  5  1  0  0  0
  4  3  1  0  0  0
 10 12  1  0  0  0
 10  6  1  0  0  0
  5  6  1  0  0  0
  1  2  1  0  0  0
  3  2  1  0  0  0
  6  7  1  0  0  0
  2  7  1  0  0  0
  7  8  1  0  0  0
  8  9  2  0  0  0
  8 14  1  0  0  0
 14 15  1  0  0  0
 15 16  1  0  0  0
 16 17  1  0  0  0
 12 13  1  0  0  0
M  END
> <minimizedAffinity>
-5.12802

$$$$
4KZ6_ZB6_B_401


 17 17  0  0  0  0  0  0  0  0999 V2000
   78.1132    8.4701   28.0714 C   0  0  0  0  0  0  0  0  0  0  0  0
   78.0602    7.0144   28.3873 C   0  0  0  0  0  0  0  0  0  0  0  0
   78.2314    6.8226   29.8533 C   0  0  0  0  0  0  0  0  0  0  0  0
   79.6756    6.9684   30.2731 C   0  0  0  0  0  0  0  0  0  0  0  0
   80.5910    6.1196   29.4146 C   0  0  0  0  0  0  0  0  0  0  0  0
   80.3709    6.3064   27.9464 C   0  0  0  0  0  0  0  0  0  0  0  0
   78.9863    6.2615   27.6208 N   0  0  0  0  0  0  0  0  0  0  0  0
   78.4070    5.4693   26.5503 C   0  0  0  0  0  0  0  0  0  0  0  0
   77.1989    5.5360   26.4086 O   0  0  0  0  0  0  0  0  0  0  0  0
   81.1217    7.5082   27.4498 C   0  0  0  0  0  0  0  0  0  0  0  0
   81.9343    8.0814   28.2307 O   0  0  0  0  0  0  0  0  0  0  0  0
   80.9345    7.9544   26.2661 O   0  0  0  0  0  0  0  0  0  0  0  0
   80.3307    7.5241   25.6932 H   0  0  0  0  0  0  0  0  0  0  0  0
   79.1516    4.5761   25.6092 C   0  0  0  0  0  0  0  0  0  0  0  0
   79.9602    5.2426   24.5457 C   0  0  0  0  0  0  0  0  0  0  0  0
   81.6815    4.8437   24.5121 S   0  0  0  0  0  0  0  0  0  0  0  0
   82.2673    5.2662   25.6645 H   0  0  0  0  0  0  0  0  0  0  0  0
 11 10  2  0  0  0
  4  5  1  0  0  0
  4  3  1  0  0  0
 10 12  1  0  0  0
 10  6  1  0  0  0
  5  6  1  0  0  0
  1  2  1  0  0  0
  3  2  1  0  0  0
  6  7  1  0  0  0
  2  7  1  0  0  0
  7  8  1  0  0  0
  8  9  2  0  0  0
  8 14  1  0  0  0
 14 15  1  0  0  0
 15 16  1  0  0  0
 16 17  1  0  0  0
 12 13  1  0  0  0
M  END
> <minimizedAffinity>
-4.91570

$$$$
4KZ6_ZB6_B_401


 17 17  0  0  0  0  0  0  0  0999 V2000
   82.6420    5.2590   33.9162 C   0  0  0  0  0  0  0  0  0  0  0  0
   81.3478    5.1515   34.6478 C   0  0  0  0  0  0  0  0  0  0  0  0
   80.3990    4.3274   33.8503 C   0  0  0  0  0  0  0  0  0  0  0  0
   79.8054    5.1095   32.7017 C   0  0  0  0  0  0  0  0  0  0  0  0
   79.2493    6.4402   33.1658 C   0  0  0  0  0  0  0  0  0  0  0  0
   80.2122    7.2299   33.9955 C   0  0  0  0  0  0  0  0  0  0  0  0
   80.8178    6.4200   34.9968 N   0  0  0  0  0  0  0  0  0  0  0  0
   80.9285    6.7741   36.4009 C   0  0  0  0  0  0  0  0  0  0  0  0
   81.4691    5.9630   37.1316 O   0  0  0  0  0  0  0  0  0  0  0  0
   81.1556    8.0005   33.1176 C   0  0  0  0  0  0  0  0  0  0  0  0
   82.1250    8.6086   33.6554 O   0  0  0  0  0  0  0  0  0  0  0  0
   80.9768    8.0547   31.8526 O   0  0  0  0  0  0  0  0  0  0  0  0
   80.2561    7.6013   31.4614 H   0  0  0  0  0  0  0  0  0  0  0  0
   80.4377    8.0368   37.0355 C   0  0  0  0  0  0  0  0  0  0  0  0
   81.3411    9.2232   36.9612 C   0  0  0  0  0  0  0  0  0  0  0  0
   80.6484   10.6852   36.2501 S   0  0  0  0  0  0  0  0  0  0  0  0
   80.3303   10.4497   34.9490 H   0  0  0  0  0  0  0  0  0  0  0  0
 11 10  2  0  0  0
  4  5  1  0  0  0
  4  3  1  0  0  0
 10 12  1  0  0  0
 10  6  1  0  0  0
  5  6  1  0  0  0
  1  2  1  0  0  0
  3  2  1  0  0  0
  6  7  1  0  0  0
  2  7  1  0  0  0
  7  8  1  0  0  0
  8  9  2  0  0  0
  8 14  1  0  0  0
 14 15  1  0  0  0
 15 16  1  0  0  0
 16 17  1  0  0  0
 12 13  1  0  0  0
M  END
> <minimizedAffinity>
-4.83892

$$$$
