3G31_GF1_A_1


 18 20  0  0  0  0  0  0  0  0999 V2000
    0.3436   40.4937   26.5622 O   0  0  0  0  0  0  0  0  0  0  0  0
   -0.4243   40.9860   25.7526 C   0  0  0  0  0  0  0  0  0  0  0  0
   -1.6935   40.6074   25.5111 N   0  0  0  0  0  0  0  0  0  0  0  0
   -0.0338   42.1141   24.8368 C   0  0  0  0  0  0  0  0  0  0  0  0
   -1.2914   42.3584   23.9996 C   0  0  0  0  0  0  0  0  0  0  0  0
   -2.2578   41.3356   24.5327 C   0  0  0  0  0  0  0  0  0  0  0  0
   -3.3953   41.2017   24.0937 O   0  0  0  0  0  0  0  0  0  0  0  0
    0.1871   43.4799   25.4974 C   0  0  0  0  0  0  0  0  0  0  0  0
   -0.8786   43.8058   26.5458 C   0  0  0  0  0  0  0  0  0  0  0  0
   -2.1306   44.0608   25.6885 C   0  0  0  0  0  0  0  0  0  0  0  0
   -0.2496   44.4225   24.3878 C   0  0  0  0  0  0  0  0  0  0  0  0
   -1.6356   43.8282   24.2665 C   0  0  0  0  0  0  0  0  0  0  0  0
   -2.4039   39.5100   26.1885 C   0  0  0  0  0  0  0  0  0  0  0  0
   -2.4438   38.2230   25.3536 C   0  0  0  0  0  0  0  0  0  0  0  0
   -3.7903   39.9069   26.6503 C   0  0  0  0  0  0  0  0  0  0  0  0
   -4.7952   39.3328   26.1415 O   0  0  0  0  0  0  0  0  0  0  0  0
   -3.8867   40.8039   27.5192 O   0  0  0  0  0  0  0  0  0  0  0  0
   -4.6760   38.6663   25.4938 H   0  0  0  0  0  0  0  0  0  0  0  0
  1  2  2  0  0  0
  3  2  1  0  0  0
  2  4  1  0  0  0
 13  3  1  0  0  0
  3  6  1  0  0  0
 14 13  1  0  0  0
 13 15  1  0  0  0
 17 15  2  0  0  0
 15 16  1  0  0  0
  8  4  1  0  0  0
  5  4  1  0  0  0
  6  5  1  0  0  0
 12  5  1  0  0  0
  7  6  2  0  0  0
  9  8  1  0  0  0
  8 11  1  0  0  0
 10  9  1  0  0  0
 10 12  1  0  0  0
 12 11  1  0  0  0
 16 18  1  0  0  0
M  END
> <minimizedAffinity>
-5.08982

$$$$
3G31_GF1_A_1


 18 20  0  0  0  0  0  0  0  0999 V2000
   -0.3306   39.9451   25.2372 O   0  0  0  0  0  0  0  0  0  0  0  0
   -0.1009   41.0100   25.7855 C   0  0  0  0  0  0  0  0  0  0  0  0
    1.0882   41.6361   25.8656 N   0  0  0  0  0  0  0  0  0  0  0  0
   -1.1539   41.7954   26.5194 C   0  0  0  0  0  0  0  0  0  0  0  0
   -0.3961   43.0124   27.0551 C   0  0  0  0  0  0  0  0  0  0  0  0
    1.0081   42.7795   26.5673 C   0  0  0  0  0  0  0  0  0  0  0  0
    1.9343   43.5449   26.8139 O   0  0  0  0  0  0  0  0  0  0  0  0
   -2.2421   42.4443   25.6561 C   0  0  0  0  0  0  0  0  0  0  0  0
   -1.6793   43.0962   24.3915 C   0  0  0  0  0  0  0  0  0  0  0  0
   -0.9331   44.3224   24.9455 C   0  0  0  0  0  0  0  0  0  0  0  0
   -2.5615   43.6907   26.4654 C   0  0  0  0  0  0  0  0  0  0  0  0
   -1.1401   44.2087   26.4506 C   0  0  0  0  0  0  0  0  0  0  0  0
    2.3551   41.1448   25.2988 C   0  0  0  0  0  0  0  0  0  0  0  0
    3.4009   40.8199   26.3739 C   0  0  0  0  0  0  0  0  0  0  0  0
    2.9230   42.0711   24.2441 C   0  0  0  0  0  0  0  0  0  0  0  0
    3.8454   42.8743   24.5639 O   0  0  0  0  0  0  0  0  0  0  0  0
    2.4442   42.0103   23.0882 O   0  0  0  0  0  0  0  0  0  0  0  0
    4.1736   42.8854   25.4415 H   0  0  0  0  0  0  0  0  0  0  0  0
  1  2  2  0  0  0
  3  2  1  0  0  0
  2  4  1  0  0  0
 13  3  1  0  0  0
  3  6  1  0  0  0
 14 13  1  0  0  0
 13 15  1  0  0  0
 17 15  2  0  0  0
 15 16  1  0  0  0
  8  4  1  0  0  0
  5  4  1  0  0  0
  6  5  1  0  0  0
 12  5  1  0  0  0
  7  6  2  0  0  0
  9  8  1  0  0  0
  8 11  1  0  0  0
 10  9  1  0  0  0
 10 12  1  0  0  0
 12 11  1  0  0  0
 16 18  1  0  0  0
M  END
> <minimizedAffinity>
-4.87028

$$$$
3G31_GF1_A_1


 18 20  0  0  0  0  0  0  0  0999 V2000
    2.1160   43.5074   26.1941 O   0  0  0  0  0  0  0  0  0  0  0  0
    1.0893   42.9165   26.4839 C   0  0  0  0  0  0  0  0  0  0  0  0
    0.6128   42.6866   27.7219 N   0  0  0  0  0  0  0  0  0  0  0  0
    0.1847   42.2962   25.4539 C   0  0  0  0  0  0  0  0  0  0  0  0
   -0.9289   41.6534   26.2839 C   0  0  0  0  0  0  0  0  0  0  0  0
   -0.5289   41.9781   27.6976 C   0  0  0  0  0  0  0  0  0  0  0  0
   -1.1749   41.6111   28.6736 O   0  0  0  0  0  0  0  0  0  0  0  0
   -0.5955   43.2685   24.5612 C   0  0  0  0  0  0  0  0  0  0  0  0
   -1.1792   44.4465   25.3437 C   0  0  0  0  0  0  0  0  0  0  0  0
   -2.3032   43.7866   26.1615 C   0  0  0  0  0  0  0  0  0  0  0  0
   -1.8681   42.4792   24.3009 C   0  0  0  0  0  0  0  0  0  0  0  0
   -2.2094   42.3184   25.7660 C   0  0  0  0  0  0  0  0  0  0  0  0
    1.2523   43.1107   28.9785 C   0  0  0  0  0  0  0  0  0  0  0  0
    1.2295   44.6328   29.1728 C   0  0  0  0  0  0  0  0  0  0  0  0
    2.6532   42.5587   29.1380 C   0  0  0  0  0  0  0  0  0  0  0  0
    3.6408   43.3083   28.8908 O   0  0  0  0  0  0  0  0  0  0  0  0
    2.7781   41.3669   29.5025 O   0  0  0  0  0  0  0  0  0  0  0  0
    3.5004   44.1944   28.6206 H   0  0  0  0  0  0  0  0  0  0  0  0
  1  2  2  0  0  0
  3  2  1  0  0  0
  2  4  1  0  0  0
 13  3  1  0  0  0
  3  6  1  0  0  0
 14 13  1  0  0  0
 13 15  1  0  0  0
 17 15  2  0  0  0
 15 16  1  0  0  0
  8  4  1  0  0  0
  5  4  1  0  0  0
  6  5  1  0  0  0
 12  5  1  0  0  0
  7  6  2  0  0  0
  9  8  1  0  0  0
  8 11  1  0  0  0
 10  9  1  0  0  0
 10 12  1  0  0  0
 12 11  1  0  0  0
 16 18  1  0  0  0
M  END
> <minimizedAffinity>
-4.77507

$$$$
3G31_GF1_A_1


 18 20  0  0  0  0  0  0  0  0999 V2000
   -3.8976   41.9341   26.6412 O   0  0  0  0  0  0  0  0  0  0  0  0
   -2.6797   41.9950   26.6534 C   0  0  0  0  0  0  0  0  0  0  0  0
   -1.8256   41.0061   26.9777 N   0  0  0  0  0  0  0  0  0  0  0  0
   -1.9210   43.2537   26.3305 C   0  0  0  0  0  0  0  0  0  0  0  0
   -0.4547   42.8539   26.5105 C   0  0  0  0  0  0  0  0  0  0  0  0
   -0.5448   41.4090   26.9206 C   0  0  0  0  0  0  0  0  0  0  0  0
    0.4416   40.7272   27.1788 O   0  0  0  0  0  0  0  0  0  0  0  0
   -1.9557   43.7114   24.8676 C   0  0  0  0  0  0  0  0  0  0  0  0
   -1.7812   42.5525   23.8841 C   0  0  0  0  0  0  0  0  0  0  0  0
   -0.3017   42.1718   24.0679 C   0  0  0  0  0  0  0  0  0  0  0  0
   -0.5936   44.3715   24.7288 C   0  0  0  0  0  0  0  0  0  0  0  0
    0.1783   43.1382   25.1434 C   0  0  0  0  0  0  0  0  0  0  0  0
   -2.2074   39.6442   27.3866 C   0  0  0  0  0  0  0  0  0  0  0  0
   -3.0391   38.9153   26.3226 C   0  0  0  0  0  0  0  0  0  0  0  0
   -2.8920   39.6083   28.7367 C   0  0  0  0  0  0  0  0  0  0  0  0
   -4.1430   39.7806   28.7961 O   0  0  0  0  0  0  0  0  0  0  0  0
   -2.1826   39.4173   29.7512 O   0  0  0  0  0  0  0  0  0  0  0  0
   -4.6345   39.9203   28.0107 H   0  0  0  0  0  0  0  0  0  0  0  0
  1  2  2  0  0  0
  3  2  1  0  0  0
  2  4  1  0  0  0
 13  3  1  0  0  0
  3  6  1  0  0  0
 14 13  1  0  0  0
 13 15  1  0  0  0
 17 15  2  0  0  0
 15 16  1  0  0  0
  8  4  1  0  0  0
  5  4  1  0  0  0
  6  5  1  0  0  0
 12  5  1  0  0  0
  7  6  2  0  0  0
  9  8  1  0  0  0
  8 11  1  0  0  0
 10  9  1  0  0  0
 10 12  1  0  0  0
 12 11  1  0  0  0
 16 18  1  0  0  0
M  END
> <minimizedAffinity>
-4.77011

$$$$
3G31_GF1_A_1


 18 20  0  0  0  0  0  0  0  0999 V2000
   -2.1066   40.1881   26.1578 O   0  0  0  0  0  0  0  0  0  0  0  0
   -1.7163   41.3085   26.4402 C   0  0  0  0  0  0  0  0  0  0  0  0
   -0.8482   41.6384   27.4149 N   0  0  0  0  0  0  0  0  0  0  0  0
   -2.2004   42.5452   25.7330 C   0  0  0  0  0  0  0  0  0  0  0  0
   -1.4693   43.6849   26.4463 C   0  0  0  0  0  0  0  0  0  0  0  0
   -0.6517   42.9660   27.4849 C   0  0  0  0  0  0  0  0  0  0  0  0
    0.0721   43.5504   28.2845 O   0  0  0  0  0  0  0  0  0  0  0  0
   -1.7398   42.7219   24.2814 C   0  0  0  0  0  0  0  0  0  0  0  0
   -0.2631   42.3727   24.0859 C   0  0  0  0  0  0  0  0  0  0  0  0
    0.4564   43.5326   24.7961 C   0  0  0  0  0  0  0  0  0  0  0  0
   -1.6603   44.2361   24.1756 C   0  0  0  0  0  0  0  0  0  0  0  0
   -0.6899   44.3844   25.3267 C   0  0  0  0  0  0  0  0  0  0  0  0
   -0.1978   40.6943   28.3387 C   0  0  0  0  0  0  0  0  0  0  0  0
    0.7598   39.7298   27.6260 C   0  0  0  0  0  0  0  0  0  0  0  0
   -1.1891   39.9436   29.2027 C   0  0  0  0  0  0  0  0  0  0  0  0
   -1.8289   40.5734   30.0928 O   0  0  0  0  0  0  0  0  0  0  0  0
   -1.3292   38.7146   29.0052 O   0  0  0  0  0  0  0  0  0  0  0  0
   -1.6922   41.4935   30.2054 H   0  0  0  0  0  0  0  0  0  0  0  0
  1  2  2  0  0  0
  3  2  1  0  0  0
  2  4  1  0  0  0
 13  3  1  0  0  0
  3  6  1  0  0  0
 14 13  1  0  0  0
 13 15  1  0  0  0
 17 15  2  0  0  0
 15 16  1  0  0  0
  8  4  1  0  0  0
  5  4  1  0  0  0
  6  5  1  0  0  0
 12  5  1  0  0  0
  7  6  2  0  0  0
  9  8  1  0  0  0
  8 11  1  0  0  0
 10  9  1  0  0  0
 10 12  1  0  0  0
 12 11  1  0  0  0
 16 18  1  0  0  0
M  END
> <minimizedAffinity>
-4.74145

$$$$
3G31_GF1_A_1


 18 20  0  0  0  0  0  0  0  0999 V2000
    1.0111   43.9978   28.6125 O   0  0  0  0  0  0  0  0  0  0  0  0
    0.8094   43.7378   27.4382 C   0  0  0  0  0  0  0  0  0  0  0  0
    1.7174   43.3170   26.5376 N   0  0  0  0  0  0  0  0  0  0  0  0
   -0.5375   43.8944   26.7859 C   0  0  0  0  0  0  0  0  0  0  0  0
   -0.2892   43.4892   25.3311 C   0  0  0  0  0  0  0  0  0  0  0  0
    1.1767   43.1502   25.3187 C   0  0  0  0  0  0  0  0  0  0  0  0
    1.7687   42.7911   24.3062 O   0  0  0  0  0  0  0  0  0  0  0  0
   -1.6218   42.9010   27.2194 C   0  0  0  0  0  0  0  0  0  0  0  0
   -1.0956   41.4690   27.3354 C   0  0  0  0  0  0  0  0  0  0  0  0
   -0.8638   41.0730   25.8667 C   0  0  0  0  0  0  0  0  0  0  0  0
   -2.4358   42.7712   25.9423 C   0  0  0  0  0  0  0  0  0  0  0  0
   -1.2615   42.3270   25.0982 C   0  0  0  0  0  0  0  0  0  0  0  0
    3.1473   43.0892   26.8050 C   0  0  0  0  0  0  0  0  0  0  0  0
    3.3914   42.2917   28.0932 C   0  0  0  0  0  0  0  0  0  0  0  0
    3.9567   44.3688   26.7909 C   0  0  0  0  0  0  0  0  0  0  0  0
    4.4708   44.7587   25.7038 O   0  0  0  0  0  0  0  0  0  0  0  0
    4.0938   44.9901   27.8698 O   0  0  0  0  0  0  0  0  0  0  0  0
    4.3421   44.2619   24.9198 H   0  0  0  0  0  0  0  0  0  0  0  0
  1  2  2  0  0  0
  3  2  1  0  0  0
  2  4  1  0  0  0
 13  3  1  0  0  0
  3  6  1  0  0  0
 14 13  1  0  0  0
 13 15  1  0  0  0
 17 15  2  0  0  0
 15 16  1  0  0  0
  8  4  1  0  0  0
  5  4  1  0  0  0
  6  5  1  0  0  0
 12  5  1  0  0  0
  7  6  2  0  0  0
  9  8  1  0  0  0
  8 11  1  0  0  0
 10  9  1  0  0  0
 10 12  1  0  0  0
 12 11  1  0  0  0
 16 18  1  0  0  0
M  END
> <minimizedAffinity>
-4.71275

$$$$
3G31_GF1_A_1


 18 20  0  0  0  0  0  0  0  0999 V2000
   -2.2666   40.4757   23.4606 O   0  0  0  0  0  0  0  0  0  0  0  0
   -2.2381   41.0401   24.5414 C   0  0  0  0  0  0  0  0  0  0  0  0
   -2.1170   40.4612   25.7508 N   0  0  0  0  0  0  0  0  0  0  0  0
   -2.3800   42.5308   24.6890 C   0  0  0  0  0  0  0  0  0  0  0  0
   -2.3183   42.7566   26.2014 C   0  0  0  0  0  0  0  0  0  0  0  0
   -2.1515   41.3638   26.7459 C   0  0  0  0  0  0  0  0  0  0  0  0
   -2.0794   41.1221   27.9463 O   0  0  0  0  0  0  0  0  0  0  0  0
   -1.2055   43.3781   24.1858 C   0  0  0  0  0  0  0  0  0  0  0  0
    0.1528   42.7920   24.5763 C   0  0  0  0  0  0  0  0  0  0  0  0
    0.2044   43.0382   26.0943 C   0  0  0  0  0  0  0  0  0  0  0  0
   -1.2583   44.5590   25.1412 C   0  0  0  0  0  0  0  0  0  0  0  0
   -1.1317   43.7094   26.3866 C   0  0  0  0  0  0  0  0  0  0  0  0
   -1.9957   39.0152   26.0003 C   0  0  0  0  0  0  0  0  0  0  0  0
   -0.6475   38.4439   25.5411 C   0  0  0  0  0  0  0  0  0  0  0  0
   -3.1511   38.2229   25.4256 C   0  0  0  0  0  0  0  0  0  0  0  0
   -2.9900   37.6053   24.3343 O   0  0  0  0  0  0  0  0  0  0  0  0
   -4.2334   38.2195   26.0560 O   0  0  0  0  0  0  0  0  0  0  0  0
   -2.1620   37.6355   23.8967 H   0  0  0  0  0  0  0  0  0  0  0  0
  1  2  2  0  0  0
  3  2  1  0  0  0
  2  4  1  0  0  0
 13  3  1  0  0  0
  3  6  1  0  0  0
 14 13  1  0  0  0
 13 15  1  0  0  0
 17 15  2  0  0  0
 15 16  1  0  0  0
  8  4  1  0  0  0
  5  4  1  0  0  0
  6  5  1  0  0  0
 12  5  1  0  0  0
  7  6  2  0  0  0
  9  8  1  0  0  0
  8 11  1  0  0  0
 10  9  1  0  0  0
 10 12  1  0  0  0
 12 11  1  0  0  0
 16 18  1  0  0  0
M  END
> <minimizedAffinity>
-4.64616

$$$$
3G31_GF1_A_1


 18 20  0  0  0  0  0  0  0  0999 V2000
    1.3515   42.0286   27.9352 O   0  0  0  0  0  0  0  0  0  0  0  0
    0.7815   42.7170   27.1054 C   0  0  0  0  0  0  0  0  0  0  0  0
    1.2402   43.0559   25.8859 N   0  0  0  0  0  0  0  0  0  0  0  0
   -0.5618   43.3488   27.3510 C   0  0  0  0  0  0  0  0  0  0  0  0
   -0.8414   44.1272   26.0632 C   0  0  0  0  0  0  0  0  0  0  0  0
    0.3803   43.8527   25.2289 C   0  0  0  0  0  0  0  0  0  0  0  0
    0.5424   44.3268   24.1092 O   0  0  0  0  0  0  0  0  0  0  0  0
   -1.7593   42.3938   27.4199 C   0  0  0  0  0  0  0  0  0  0  0  0
   -1.7142   41.3144   26.3365 C   0  0  0  0  0  0  0  0  0  0  0  0
   -2.0093   42.1098   25.0529 C   0  0  0  0  0  0  0  0  0  0  0  0
   -2.8709   43.2681   26.8630 C   0  0  0  0  0  0  0  0  0  0  0  0
   -2.1629   43.5403   25.5540 C   0  0  0  0  0  0  0  0  0  0  0  0
    2.5370   42.6540   25.3161 C   0  0  0  0  0  0  0  0  0  0  0  0
    2.7066   41.1306   25.2409 C   0  0  0  0  0  0  0  0  0  0  0  0
    3.7114   43.3022   26.0186 C   0  0  0  0  0  0  0  0  0  0  0  0
    3.9239   44.5367   25.8486 O   0  0  0  0  0  0  0  0  0  0  0  0
    4.4378   42.5796   26.7390 O   0  0  0  0  0  0  0  0  0  0  0  0
    3.3539   45.0391   25.3003 H   0  0  0  0  0  0  0  0  0  0  0  0
  1  2  2  0  0  0
  3  2  1  0  0  0
  2  4  1  0  0  0
 13  3  1  0  0  0
  3  6  1  0  0  0
 14 13  1  0  0  0
 13 15  1  0  0  0
 17 15  2  0  0  0
 15 16  1  0  0  0
  8  4  1  0  0  0
  5  4  1  0  0  0
  6  5  1  0  0  0
 12  5  1  0  0  0
  7  6  2  0  0  0
  9  8  1  0  0  0
  8 11  1  0  0  0
 10  9  1  0  0  0
 10 12  1  0  0  0
 12 11  1  0  0  0
 16 18  1  0  0  0
M  END
> <minimizedAffinity>
-4.57359

$$$$
3G31_GF1_A_1


 18 20  0  0  0  0  0  0  0  0999 V2000
   -3.0868   40.6078   24.7866 O   0  0  0  0  0  0  0  0  0  0  0  0
   -1.9319   40.9979   24.8242 C   0  0  0  0  0  0  0  0  0  0  0  0
   -0.9642   40.7418   23.9239 N   0  0  0  0  0  0  0  0  0  0  0  0
   -1.3858   41.8278   25.9543 C   0  0  0  0  0  0  0  0  0  0  0  0
    0.0834   42.0356   25.5794 C   0  0  0  0  0  0  0  0  0  0  0  0
    0.2089   41.2949   24.2757 C   0  0  0  0  0  0  0  0  0  0  0  0
    1.2638   41.2129   23.6552 O   0  0  0  0  0  0  0  0  0  0  0  0
   -1.9033   43.2678   26.0514 C   0  0  0  0  0  0  0  0  0  0  0  0
   -1.9797   43.9587   24.6884 C   0  0  0  0  0  0  0  0  0  0  0  0
   -0.4980   44.1717   24.3327 C   0  0  0  0  0  0  0  0  0  0  0  0
   -0.6932   43.9813   26.6319 C   0  0  0  0  0  0  0  0  0  0  0  0
    0.2388   43.5595   25.5174 C   0  0  0  0  0  0  0  0  0  0  0  0
   -1.1202   39.9288   22.7063 C   0  0  0  0  0  0  0  0  0  0  0  0
   -1.9424   40.6361   21.6206 C   0  0  0  0  0  0  0  0  0  0  0  0
   -1.6648   38.5451   22.9919 C   0  0  0  0  0  0  0  0  0  0  0  0
   -2.8950   38.3190   22.8084 O   0  0  0  0  0  0  0  0  0  0  0  0
   -0.8682   37.6745   23.4121 O   0  0  0  0  0  0  0  0  0  0  0  0
   -3.4546   39.0008   22.4924 H   0  0  0  0  0  0  0  0  0  0  0  0
  1  2  2  0  0  0
  3  2  1  0  0  0
  2  4  1  0  0  0
 13  3  1  0  0  0
  3  6  1  0  0  0
 14 13  1  0  0  0
 13 15  1  0  0  0
 17 15  2  0  0  0
 15 16  1  0  0  0
  8  4  1  0  0  0
  5  4  1  0  0  0
  6  5  1  0  0  0
 12  5  1  0  0  0
  7  6  2  0  0  0
  9  8  1  0  0  0
  8 11  1  0  0  0
 10  9  1  0  0  0
 10 12  1  0  0  0
 12 11  1  0  0  0
 16 18  1  0  0  0
M  END
> <minimizedAffinity>
-4.52795

$$$$
3G31_GF1_A_1


 18 20  0  0  0  0  0  0  0  0999 V2000
    0.5775   42.0786   28.0086 O   0  0  0  0  0  0  0  0  0  0  0  0
    0.5531   42.3824   26.8278 C   0  0  0  0  0  0  0  0  0  0  0  0
    1.1268   41.7127   25.8105 N   0  0  0  0  0  0  0  0  0  0  0  0
   -0.1197   43.6280   26.3180 C   0  0  0  0  0  0  0  0  0  0  0  0
    0.1416   43.5945   24.8103 C   0  0  0  0  0  0  0  0  0  0  0  0
    0.9395   42.3314   24.6322 C   0  0  0  0  0  0  0  0  0  0  0  0
    1.3620   41.9585   23.5427 O   0  0  0  0  0  0  0  0  0  0  0  0
   -1.6514   43.6474   26.3819 C   0  0  0  0  0  0  0  0  0  0  0  0
   -2.2756   42.3212   25.9435 C   0  0  0  0  0  0  0  0  0  0  0  0
   -2.0162   42.3093   24.4269 C   0  0  0  0  0  0  0  0  0  0  0  0
   -1.9900   44.5016   25.1711 C   0  0  0  0  0  0  0  0  0  0  0  0
   -1.2603   43.6107   24.1900 C   0  0  0  0  0  0  0  0  0  0  0  0
    1.9050   40.4690   25.9342 C   0  0  0  0  0  0  0  0  0  0  0  0
    1.0955   39.3202   26.5508 C   0  0  0  0  0  0  0  0  0  0  0  0
    3.2163   40.6689   26.6644 C   0  0  0  0  0  0  0  0  0  0  0  0
    3.2284   40.6294   27.9279 O   0  0  0  0  0  0  0  0  0  0  0  0
    4.2448   40.8772   25.9804 O   0  0  0  0  0  0  0  0  0  0  0  0
    2.4343   40.4704   28.3993 H   0  0  0  0  0  0  0  0  0  0  0  0
  1  2  2  0  0  0
  3  2  1  0  0  0
  2  4  1  0  0  0
 13  3  1  0  0  0
  3  6  1  0  0  0
 14 13  1  0  0  0
 13 15  1  0  0  0
 17 15  2  0  0  0
 15 16  1  0  0  0
  8  4  1  0  0  0
  5  4  1  0  0  0
  6  5  1  0  0  0
 12  5  1  0  0  0
  7  6  2  0  0  0
  9  8  1  0  0  0
  8 11  1  0  0  0
 10  9  1  0  0  0
 10 12  1  0  0  0
 12 11  1  0  0  0
 16 18  1  0  0  0
M  END
> <minimizedAffinity>
-4.45420

$$$$
