3V5T_UW9_A_700


 33 36  0  0  0  0  0  0  0  0999 V2000
   17.5639   15.5207   63.2163 N   0  0  0  0  0  0  0  0  0  0  0  0
   16.4137   15.9256   63.4363 N   0  0  0  0  0  0  0  0  0  0  0  0
   17.6245   14.2025   63.1307 C   0  0  0  0  0  0  0  0  0  0  0  0
   18.6444   13.3583   62.9005 N   0  0  0  0  0  0  0  0  0  0  0  0
   18.4117   12.0612   62.8899 C   0  0  0  0  0  0  0  0  0  0  0  0
   17.1825   11.5648   63.0756 N   0  0  0  0  0  0  0  0  0  0  0  0
   16.1261   12.3581   63.3032 C   0  0  0  0  0  0  0  0  0  0  0  0
   14.9389   11.7894   63.4863 N   0  0  0  0  0  0  0  0  0  0  0  0
   16.3268   13.7412   63.3411 C   0  0  0  0  0  0  0  0  0  0  0  0
   15.5706   14.9070   63.5405 C   0  0  0  0  0  0  0  0  0  0  0  0
   14.8515   10.8095   63.4497 H   0  0  0  0  0  0  0  0  0  0  0  0
   14.1468   12.3481   63.6587 H   0  0  0  0  0  0  0  0  0  0  0  0
   14.2082   14.9833   63.8052 C   0  0  0  0  0  0  0  0  0  0  0  0
   13.6711   14.4481   64.9759 C   0  0  0  0  0  0  0  0  0  0  0  0
   13.3605   15.6311   62.9259 C   0  0  0  0  0  0  0  0  0  0  0  0
   11.9912   15.7267   63.1833 C   0  0  0  0  0  0  0  0  0  0  0  0
   11.4564   15.1749   64.3307 C   0  0  0  0  0  0  0  0  0  0  0  0
   10.1093   15.2701   64.5754 C   0  0  0  0  0  0  0  0  0  0  0  0
   12.3055   14.5505   65.2486 C   0  0  0  0  0  0  0  0  0  0  0  0
   11.7756   14.0086   66.4041 C   0  0  0  0  0  0  0  0  0  0  0  0
   10.4205   14.0918   66.6490 C   0  0  0  0  0  0  0  0  0  0  0  0
    9.5734   14.7155   65.7352 C   0  0  0  0  0  0  0  0  0  0  0  0
    8.2200   14.7714   65.9962 O   0  0  0  0  0  0  0  0  0  0  0  0
    7.4326   14.2554   64.9023 C   0  0  0  0  0  0  0  0  0  0  0  0
    6.2696   13.4678   65.5556 C   0  0  0  0  0  0  0  0  0  0  0  0
   18.7451   16.3932   63.0527 C   0  0  0  0  0  0  0  0  0  0  0  0
   18.8351   16.9759   61.6157 C   0  0  0  0  0  0  0  0  0  0  0  0
   21.0870   15.7496   61.8174 C   0  0  0  0  0  0  0  0  0  0  0  0
   20.1747   16.6275   60.9454 C   0  0  0  0  0  0  0  0  0  0  0  0
   19.9183   15.9675   59.5879 C   0  0  0  0  0  0  0  0  0  0  0  0
   18.5507   18.4351   61.5524 N   0  0  0  0  0  0  0  0  0  0  0  0
   18.3827   19.0394   62.8851 C   0  0  0  0  0  0  0  0  0  0  0  0
   17.3250   18.6656   60.7765 C   0  0  0  0  0  0  0  0  0  0  0  0
 30 29  1  0  0  0
 29 28  1  0  0  0
 29 27  1  0  0  0
 27 31  1  0  0  0
 27 26  1  0  0  0
 31 33  1  0  0  0
 31 32  1  0  0  0
  4  5  2  0  0  0
  4  3  1  0  0  0
  5  6  1  0  0  0
 26  1  1  0  0  0
 15 16  2  0  0  0
 15 13  1  0  0  0
  3  1  1  0  0  0
  3  9  2  0  0  0
  1  2  1  0  0  0
  6  7  2  0  0  0
 16 17  1  0  0  0
  9  7  1  0  0  0
  9 10  1  0  0  0
  7  8  1  0  0  0
  2 10  2  0  0  0
 10 13  1  0  0  0
 13 14  2  0  0  0
 17 18  2  0  0  0
 17 19  1  0  0  0
 18 22  1  0  0  0
 14 19  1  0  0  0
 24 25  1  0  0  0
 24 23  1  0  0  0
 19 20  2  0  0  0
 22 23  1  0  0  0
 22 21  2  0  0  0
 20 21  1  0  0  0
  8 11  1  0  0  0
  8 12  1  0  0  0
M  END
> <minimizedAffinity>
-9.57554

$$$$
3V5T_UW9_A_700


 33 36  0  0  0  0  0  0  0  0999 V2000
   17.2144   15.5667   63.0069 N   0  0  0  0  0  0  0  0  0  0  0  0
   16.1085   15.8727   63.4746 N   0  0  0  0  0  0  0  0  0  0  0  0
   17.3570   14.2593   62.8690 C   0  0  0  0  0  0  0  0  0  0  0  0
   18.3676   13.5051   62.4046 N   0  0  0  0  0  0  0  0  0  0  0  0
   18.2386   12.1936   62.4018 C   0  0  0  0  0  0  0  0  0  0  0  0
   17.1181   11.5954   62.8240 N   0  0  0  0  0  0  0  0  0  0  0  0
   16.0752   12.2960   63.2918 C   0  0  0  0  0  0  0  0  0  0  0  0
   15.0005   11.6292   63.7005 N   0  0  0  0  0  0  0  0  0  0  0  0
   16.1722   13.6902   63.3306 C   0  0  0  0  0  0  0  0  0  0  0  0
   15.3873   14.7870   63.7201 C   0  0  0  0  0  0  0  0  0  0  0  0
   14.9832   10.6461   63.6519 H   0  0  0  0  0  0  0  0  0  0  0  0
   14.2218   12.1185   64.0517 H   0  0  0  0  0  0  0  0  0  0  0  0
   14.1094   14.7474   64.2654 C   0  0  0  0  0  0  0  0  0  0  0  0
   12.9794   14.9110   63.4642 C   0  0  0  0  0  0  0  0  0  0  0  0
   13.9322   14.5034   65.6146 C   0  0  0  0  0  0  0  0  0  0  0  0
   12.6544   14.4488   66.1755 C   0  0  0  0  0  0  0  0  0  0  0  0
   11.5369   14.6355   65.3858 C   0  0  0  0  0  0  0  0  0  0  0  0
   10.2845   14.5835   65.9446 C   0  0  0  0  0  0  0  0  0  0  0  0
   11.6973   14.8446   64.0132 C   0  0  0  0  0  0  0  0  0  0  0  0
   10.5807   15.0189   63.2179 C   0  0  0  0  0  0  0  0  0  0  0  0
    9.3201   14.9789   63.7769 C   0  0  0  0  0  0  0  0  0  0  0  0
    9.1592   14.7688   65.1450 C   0  0  0  0  0  0  0  0  0  0  0  0
    7.8885   14.7489   65.6816 O   0  0  0  0  0  0  0  0  0  0  0  0
    6.8830   14.4526   64.6896 C   0  0  0  0  0  0  0  0  0  0  0  0
    5.7395   13.7364   65.4503 C   0  0  0  0  0  0  0  0  0  0  0  0
   18.2638   16.5354   62.6282 C   0  0  0  0  0  0  0  0  0  0  0  0
   17.7104   17.6480   61.6963 C   0  0  0  0  0  0  0  0  0  0  0  0
   19.1129   16.2566   60.0493 C   0  0  0  0  0  0  0  0  0  0  0  0
   18.2730   17.5252   60.2702 C   0  0  0  0  0  0  0  0  0  0  0  0
   17.1307   17.6067   59.2540 C   0  0  0  0  0  0  0  0  0  0  0  0
   17.8919   19.0198   62.2436 N   0  0  0  0  0  0  0  0  0  0  0  0
   19.2038   19.5974   61.9049 C   0  0  0  0  0  0  0  0  0  0  0  0
   17.7581   18.9890   63.7061 C   0  0  0  0  0  0  0  0  0  0  0  0
 30 29  1  0  0  0
 29 28  1  0  0  0
 29 27  1  0  0  0
 27 31  1  0  0  0
 27 26  1  0  0  0
 31 33  1  0  0  0
 31 32  1  0  0  0
  4  5  2  0  0  0
  4  3  1  0  0  0
  5  6  1  0  0  0
 26  1  1  0  0  0
 15 16  2  0  0  0
 15 13  1  0  0  0
  3  1  1  0  0  0
  3  9  2  0  0  0
  1  2  1  0  0  0
  6  7  2  0  0  0
 16 17  1  0  0  0
  9  7  1  0  0  0
  9 10  1  0  0  0
  7  8  1  0  0  0
  2 10  2  0  0  0
 10 13  1  0  0  0
 13 14  2  0  0  0
 17 18  2  0  0  0
 17 19  1  0  0  0
 18 22  1  0  0  0
 14 19  1  0  0  0
 24 25  1  0  0  0
 24 23  1  0  0  0
 19 20  2  0  0  0
 22 23  1  0  0  0
 22 21  2  0  0  0
 20 21  1  0  0  0
  8 11  1  0  0  0
  8 12  1  0  0  0
M  END
> <minimizedAffinity>
-9.22809

$$$$
3V5T_UW9_A_700


 33 36  0  0  0  0  0  0  0  0999 V2000
   19.6390   15.9405   60.3813 N   0  0  0  0  0  0  0  0  0  0  0  0
   18.7802   15.2486   60.9462 N   0  0  0  0  0  0  0  0  0  0  0  0
   19.6120   17.2004   60.7821 C   0  0  0  0  0  0  0  0  0  0  0  0
   20.3522   18.2707   60.4470 N   0  0  0  0  0  0  0  0  0  0  0  0
   20.0836   19.4344   61.0039 C   0  0  0  0  0  0  0  0  0  0  0  0
   19.1113   19.5720   61.9136 N   0  0  0  0  0  0  0  0  0  0  0  0
   18.3448   18.5392   62.2915 C   0  0  0  0  0  0  0  0  0  0  0  0
   17.3939   18.7572   63.1941 N   0  0  0  0  0  0  0  0  0  0  0  0
   18.5808   17.2876   61.7147 C   0  0  0  0  0  0  0  0  0  0  0  0
   18.0635   15.9845   61.7853 C   0  0  0  0  0  0  0  0  0  0  0  0
   17.2691   19.6587   63.5697 H   0  0  0  0  0  0  0  0  0  0  0  0
   16.8143   18.0173   63.4871 H   0  0  0  0  0  0  0  0  0  0  0  0
   17.0030   15.5486   62.5710 C   0  0  0  0  0  0  0  0  0  0  0  0
   15.7405   16.1316   62.4641 C   0  0  0  0  0  0  0  0  0  0  0  0
   17.1712   14.4949   63.4501 C   0  0  0  0  0  0  0  0  0  0  0  0
   16.1126   14.0374   64.2377 C   0  0  0  0  0  0  0  0  0  0  0  0
   14.8691   14.6316   64.1492 C   0  0  0  0  0  0  0  0  0  0  0  0
   13.8343   14.1786   64.9286 C   0  0  0  0  0  0  0  0  0  0  0  0
   14.6724   15.6724   63.2374 C   0  0  0  0  0  0  0  0  0  0  0  0
   13.4260   16.2606   63.1368 C   0  0  0  0  0  0  0  0  0  0  0  0
   12.3857   15.8163   63.9264 C   0  0  0  0  0  0  0  0  0  0  0  0
   12.5804   14.7775   64.8346 C   0  0  0  0  0  0  0  0  0  0  0  0
   11.5278   14.3627   65.6237 O   0  0  0  0  0  0  0  0  0  0  0  0
   10.2987   15.0438   65.2945 C   0  0  0  0  0  0  0  0  0  0  0  0
    9.1983   14.3611   66.1444 C   0  0  0  0  0  0  0  0  0  0  0  0
   20.6013   15.4343   59.3809 C   0  0  0  0  0  0  0  0  0  0  0  0
   21.9874   15.1365   60.0154 C   0  0  0  0  0  0  0  0  0  0  0  0
   22.6926   16.4079   57.8936 C   0  0  0  0  0  0  0  0  0  0  0  0
   23.1217   15.8495   59.2602 C   0  0  0  0  0  0  0  0  0  0  0  0
   23.7144   16.9543   60.1390 C   0  0  0  0  0  0  0  0  0  0  0  0
   22.2619   13.6829   60.1767 N   0  0  0  0  0  0  0  0  0  0  0  0
   21.8109   13.1607   61.4779 C   0  0  0  0  0  0  0  0  0  0  0  0
   23.7042   13.4361   60.0483 C   0  0  0  0  0  0  0  0  0  0  0  0
 30 29  1  0  0  0
 29 28  1  0  0  0
 29 27  1  0  0  0
 27 31  1  0  0  0
 27 26  1  0  0  0
 31 33  1  0  0  0
 31 32  1  0  0  0
  4  5  2  0  0  0
  4  3  1  0  0  0
  5  6  1  0  0  0
 26  1  1  0  0  0
 15 16  2  0  0  0
 15 13  1  0  0  0
  3  1  1  0  0  0
  3  9  2  0  0  0
  1  2  1  0  0  0
  6  7  2  0  0  0
 16 17  1  0  0  0
  9  7  1  0  0  0
  9 10  1  0  0  0
  7  8  1  0  0  0
  2 10  2  0  0  0
 10 13  1  0  0  0
 13 14  2  0  0  0
 17 18  2  0  0  0
 17 19  1  0  0  0
 18 22  1  0  0  0
 14 19  1  0  0  0
 24 25  1  0  0  0
 24 23  1  0  0  0
 19 20  2  0  0  0
 22 23  1  0  0  0
 22 21  2  0  0  0
 20 21  1  0  0  0
  8 11  1  0  0  0
  8 12  1  0  0  0
M  END
> <minimizedAffinity>
-8.42569

$$$$
3V5T_UW9_A_700


 33 36  0  0  0  0  0  0  0  0999 V2000
   17.6153   15.0731   61.8216 N   0  0  0  0  0  0  0  0  0  0  0  0
   16.7752   14.5494   62.5668 N   0  0  0  0  0  0  0  0  0  0  0  0
   17.3210   16.3308   61.5385 C   0  0  0  0  0  0  0  0  0  0  0  0
   17.9441   17.2580   60.7916 N   0  0  0  0  0  0  0  0  0  0  0  0
   17.3991   18.4514   60.6670 C   0  0  0  0  0  0  0  0  0  0  0  0
   16.2564   18.7718   61.2861 N   0  0  0  0  0  0  0  0  0  0  0  0
   15.5938   17.8906   62.0487 C   0  0  0  0  0  0  0  0  0  0  0  0
   14.4611   18.2814   62.6239 N   0  0  0  0  0  0  0  0  0  0  0  0
   16.1242   16.6055   62.1967 C   0  0  0  0  0  0  0  0  0  0  0  0
   15.8045   15.4067   62.8533 C   0  0  0  0  0  0  0  0  0  0  0  0
   14.1307   19.1987   62.4875 H   0  0  0  0  0  0  0  0  0  0  0  0
   13.9526   17.6536   63.1864 H   0  0  0  0  0  0  0  0  0  0  0  0
   14.6869   15.1590   63.6417 C   0  0  0  0  0  0  0  0  0  0  0  0
   13.4007   15.4218   63.1704 C   0  0  0  0  0  0  0  0  0  0  0  0
   14.8283   14.6060   64.9009 C   0  0  0  0  0  0  0  0  0  0  0  0
   13.7146   14.3401   65.7006 C   0  0  0  0  0  0  0  0  0  0  0  0
   12.4429   14.6237   65.2428 C   0  0  0  0  0  0  0  0  0  0  0  0
   11.3534   14.3625   66.0355 C   0  0  0  0  0  0  0  0  0  0  0  0
   12.2803   15.1468   63.9570 C   0  0  0  0  0  0  0  0  0  0  0  0
   11.0084   15.4197   63.4908 C   0  0  0  0  0  0  0  0  0  0  0  0
    9.9108   15.1696   64.2883 C   0  0  0  0  0  0  0  0  0  0  0  0
   10.0718   14.6464   65.5698 C   0  0  0  0  0  0  0  0  0  0  0  0
    8.9590   14.4203   66.3529 O   0  0  0  0  0  0  0  0  0  0  0  0
    7.9247   13.7118   65.6380 C   0  0  0  0  0  0  0  0  0  0  0  0
    6.5845   14.3052   66.1390 C   0  0  0  0  0  0  0  0  0  0  0  0
   18.8216   14.3929   61.3063 C   0  0  0  0  0  0  0  0  0  0  0  0
   20.1235   15.0260   61.8691 C   0  0  0  0  0  0  0  0  0  0  0  0
   20.4959   15.2466   59.3337 C   0  0  0  0  0  0  0  0  0  0  0  0
   21.0655   15.4821   60.7421 C   0  0  0  0  0  0  0  0  0  0  0  0
   21.4364   16.9542   60.9412 C   0  0  0  0  0  0  0  0  0  0  0  0
   20.8234   14.1575   62.8540 N   0  0  0  0  0  0  0  0  0  0  0  0
   22.0668   13.5781   62.3176 C   0  0  0  0  0  0  0  0  0  0  0  0
   19.9355   13.0615   63.2637 C   0  0  0  0  0  0  0  0  0  0  0  0
 30 29  1  0  0  0
 29 28  1  0  0  0
 29 27  1  0  0  0
 27 31  1  0  0  0
 27 26  1  0  0  0
 31 33  1  0  0  0
 31 32  1  0  0  0
  4  5  2  0  0  0
  4  3  1  0  0  0
  5  6  1  0  0  0
 26  1  1  0  0  0
 15 16  2  0  0  0
 15 13  1  0  0  0
  3  1  1  0  0  0
  3  9  2  0  0  0
  1  2  1  0  0  0
  6  7  2  0  0  0
 16 17  1  0  0  0
  9  7  1  0  0  0
  9 10  1  0  0  0
  7  8  1  0  0  0
  2 10  2  0  0  0
 10 13  1  0  0  0
 13 14  2  0  0  0
 17 18  2  0  0  0
 17 19  1  0  0  0
 18 22  1  0  0  0
 14 19  1  0  0  0
 24 25  1  0  0  0
 24 23  1  0  0  0
 19 20  2  0  0  0
 22 23  1  0  0  0
 22 21  2  0  0  0
 20 21  1  0  0  0
  8 11  1  0  0  0
  8 12  1  0  0  0
M  END
> <minimizedAffinity>
-8.27937

$$$$
3V5T_UW9_A_700


 33 36  0  0  0  0  0  0  0  0999 V2000
   19.7305   16.0726   60.2951 N   0  0  0  0  0  0  0  0  0  0  0  0
   18.8594   15.3731   60.8311 N   0  0  0  0  0  0  0  0  0  0  0  0
   19.7476   17.3060   60.7716 C   0  0  0  0  0  0  0  0  0  0  0  0
   20.5150   18.3725   60.4897 N   0  0  0  0  0  0  0  0  0  0  0  0
   20.2899   19.5076   61.1202 C   0  0  0  0  0  0  0  0  0  0  0  0
   19.3356   19.6181   62.0523 N   0  0  0  0  0  0  0  0  0  0  0  0
   18.5437   18.5871   62.3796 C   0  0  0  0  0  0  0  0  0  0  0  0
   17.6130   18.7777   63.3092 N   0  0  0  0  0  0  0  0  0  0  0  0
   18.7332   17.3665   61.7245 C   0  0  0  0  0  0  0  0  0  0  0  0
   18.1777   16.0773   61.7247 C   0  0  0  0  0  0  0  0  0  0  0  0
   17.5211   19.6579   63.7406 H   0  0  0  0  0  0  0  0  0  0  0  0
   17.0156   18.0387   63.5664 H   0  0  0  0  0  0  0  0  0  0  0  0
   17.1160   15.6258   62.4999 C   0  0  0  0  0  0  0  0  0  0  0  0
   15.8496   16.2001   62.3910 C   0  0  0  0  0  0  0  0  0  0  0  0
   17.2872   14.5650   63.3699 C   0  0  0  0  0  0  0  0  0  0  0  0
   16.2276   14.0919   64.1469 C   0  0  0  0  0  0  0  0  0  0  0  0
   14.9800   14.6773   64.0566 C   0  0  0  0  0  0  0  0  0  0  0  0
   13.9442   14.2089   64.8255 C   0  0  0  0  0  0  0  0  0  0  0  0
   14.7807   15.7252   63.1536 C   0  0  0  0  0  0  0  0  0  0  0  0
   13.5304   16.3048   63.0512 C   0  0  0  0  0  0  0  0  0  0  0  0
   12.4889   15.8450   63.8303 C   0  0  0  0  0  0  0  0  0  0  0  0
   12.6863   14.7991   64.7297 C   0  0  0  0  0  0  0  0  0  0  0  0
   11.6323   14.3685   65.5086 O   0  0  0  0  0  0  0  0  0  0  0  0
   10.4126   15.0832   65.2178 C   0  0  0  0  0  0  0  0  0  0  0  0
    9.3230   14.4361   66.1084 C   0  0  0  0  0  0  0  0  0  0  0  0
   20.6624   15.6001   59.2503 C   0  0  0  0  0  0  0  0  0  0  0  0
   21.9479   14.9804   59.8636 C   0  0  0  0  0  0  0  0  0  0  0  0
   21.9438   13.3403   61.8449 C   0  0  0  0  0  0  0  0  0  0  0  0
   21.8209   14.8024   61.3859 C   0  0  0  0  0  0  0  0  0  0  0  0
   22.8490   15.6857   62.0981 C   0  0  0  0  0  0  0  0  0  0  0  0
   23.1891   15.7145   59.4967 N   0  0  0  0  0  0  0  0  0  0  0  0
   22.9658   16.7147   58.4387 C   0  0  0  0  0  0  0  0  0  0  0  0
   24.2065   14.7621   59.0326 C   0  0  0  0  0  0  0  0  0  0  0  0
 30 29  1  0  0  0
 29 28  1  0  0  0
 29 27  1  0  0  0
 27 31  1  0  0  0
 27 26  1  0  0  0
 31 33  1  0  0  0
 31 32  1  0  0  0
  4  5  2  0  0  0
  4  3  1  0  0  0
  5  6  1  0  0  0
 26  1  1  0  0  0
 15 16  2  0  0  0
 15 13  1  0  0  0
  3  1  1  0  0  0
  3  9  2  0  0  0
  1  2  1  0  0  0
  6  7  2  0  0  0
 16 17  1  0  0  0
  9  7  1  0  0  0
  9 10  1  0  0  0
  7  8  1  0  0  0
  2 10  2  0  0  0
 10 13  1  0  0  0
 13 14  2  0  0  0
 17 18  2  0  0  0
 17 19  1  0  0  0
 18 22  1  0  0  0
 14 19  1  0  0  0
 24 25  1  0  0  0
 24 23  1  0  0  0
 19 20  2  0  0  0
 22 23  1  0  0  0
 22 21  2  0  0  0
 20 21  1  0  0  0
  8 11  1  0  0  0
  8 12  1  0  0  0
M  END
> <minimizedAffinity>
-8.25175

$$$$
3V5T_UW9_A_700


 33 36  0  0  0  0  0  0  0  0999 V2000
   17.6701   16.2171   61.3032 N   0  0  0  0  0  0  0  0  0  0  0  0
   16.5726   16.3229   61.8686 N   0  0  0  0  0  0  0  0  0  0  0  0
   18.2745   15.0763   61.5893 C   0  0  0  0  0  0  0  0  0  0  0  0
   19.4500   14.5545   61.1997 N   0  0  0  0  0  0  0  0  0  0  0  0
   19.8159   13.3792   61.6702 C   0  0  0  0  0  0  0  0  0  0  0  0
   19.0358   12.6805   62.5039 N   0  0  0  0  0  0  0  0  0  0  0  0
   17.8506   13.1473   62.9219 C   0  0  0  0  0  0  0  0  0  0  0  0
   17.1372   12.3982   63.7564 N   0  0  0  0  0  0  0  0  0  0  0  0
   17.4274   14.3984   62.4633 C   0  0  0  0  0  0  0  0  0  0  0  0
   16.3277   15.2570   62.6190 C   0  0  0  0  0  0  0  0  0  0  0  0
   17.4811   11.5235   64.0493 H   0  0  0  0  0  0  0  0  0  0  0  0
   16.2648   12.7182   64.0818 H   0  0  0  0  0  0  0  0  0  0  0  0
   15.2054   15.0412   63.4101 C   0  0  0  0  0  0  0  0  0  0  0  0
   13.9352   15.4206   62.9766 C   0  0  0  0  0  0  0  0  0  0  0  0
   15.3233   14.4056   64.6322 C   0  0  0  0  0  0  0  0  0  0  0  0
   14.2038   14.1708   65.4334 C   0  0  0  0  0  0  0  0  0  0  0  0
   12.9497   14.5691   65.0144 C   0  0  0  0  0  0  0  0  0  0  0  0
   11.8545   14.3377   65.8086 C   0  0  0  0  0  0  0  0  0  0  0  0
   12.8082   15.1780   63.7644 C   0  0  0  0  0  0  0  0  0  0  0  0
   11.5529   15.5661   63.3363 C   0  0  0  0  0  0  0  0  0  0  0  0
   10.4506   15.3460   64.1360 C   0  0  0  0  0  0  0  0  0  0  0  0
   10.5904   14.7374   65.3818 C   0  0  0  0  0  0  0  0  0  0  0  0
    9.4744   14.5431   66.1689 O   0  0  0  0  0  0  0  0  0  0  0  0
    8.2482   14.7124   65.4267 C   0  0  0  0  0  0  0  0  0  0  0  0
    7.1994   13.8214   66.1376 C   0  0  0  0  0  0  0  0  0  0  0  0
   18.2509   17.2312   60.3991 C   0  0  0  0  0  0  0  0  0  0  0  0
   19.2301   18.1762   61.1480 C   0  0  0  0  0  0  0  0  0  0  0  0
   17.2676   19.8185   60.8885 C   0  0  0  0  0  0  0  0  0  0  0  0
   18.5092   19.4168   61.7014 C   0  0  0  0  0  0  0  0  0  0  0  0
   18.1487   19.1931   63.1726 C   0  0  0  0  0  0  0  0  0  0  0  0
   20.4240   18.5473   60.3412 N   0  0  0  0  0  0  0  0  0  0  0  0
   21.5118   17.5601   60.4491 C   0  0  0  0  0  0  0  0  0  0  0  0
   20.9318   19.8528   60.7834 C   0  0  0  0  0  0  0  0  0  0  0  0
 30 29  1  0  0  0
 29 28  1  0  0  0
 29 27  1  0  0  0
 27 31  1  0  0  0
 27 26  1  0  0  0
 31 33  1  0  0  0
 31 32  1  0  0  0
  4  5  2  0  0  0
  4  3  1  0  0  0
  5  6  1  0  0  0
 26  1  1  0  0  0
 15 16  2  0  0  0
 15 13  1  0  0  0
  3  1  1  0  0  0
  3  9  2  0  0  0
  1  2  1  0  0  0
  6  7  2  0  0  0
 16 17  1  0  0  0
  9  7  1  0  0  0
  9 10  1  0  0  0
  7  8  1  0  0  0
  2 10  2  0  0  0
 10 13  1  0  0  0
 13 14  2  0  0  0
 17 18  2  0  0  0
 17 19  1  0  0  0
 18 22  1  0  0  0
 14 19  1  0  0  0
 24 25  1  0  0  0
 24 23  1  0  0  0
 19 20  2  0  0  0
 22 23  1  0  0  0
 22 21  2  0  0  0
 20 21  1  0  0  0
  8 11  1  0  0  0
  8 12  1  0  0  0
M  END
> <minimizedAffinity>
-8.17148

$$$$
3V5T_UW9_A_700


 33 36  0  0  0  0  0  0  0  0999 V2000
   21.6317   14.2697   62.2559 N   0  0  0  0  0  0  0  0  0  0  0  0
   20.5155   14.1184   62.7722 N   0  0  0  0  0  0  0  0  0  0  0  0
   21.6005   15.0987   61.2262 C   0  0  0  0  0  0  0  0  0  0  0  0
   22.5591   15.5459   60.3974 N   0  0  0  0  0  0  0  0  0  0  0  0
   22.2297   16.3700   59.4232 C   0  0  0  0  0  0  0  0  0  0  0  0
   20.9712   16.7937   59.2546 N   0  0  0  0  0  0  0  0  0  0  0  0
   19.9747   16.3867   60.0537 C   0  0  0  0  0  0  0  0  0  0  0  0
   18.7500   16.8455   59.8173 N   0  0  0  0  0  0  0  0  0  0  0  0
   20.2726   15.4979   61.0911 C   0  0  0  0  0  0  0  0  0  0  0  0
   19.6000   14.8262   62.1240 C   0  0  0  0  0  0  0  0  0  0  0  0
   18.5936   17.4706   59.0729 H   0  0  0  0  0  0  0  0  0  0  0  0
   17.9991   16.5604   60.3866 H   0  0  0  0  0  0  0  0  0  0  0  0
   18.2407   14.8812   62.4094 C   0  0  0  0  0  0  0  0  0  0  0  0
   17.5305   16.0769   62.3030 C   0  0  0  0  0  0  0  0  0  0  0  0
   17.5547   13.7356   62.7673 C   0  0  0  0  0  0  0  0  0  0  0  0
   16.1866   13.7720   63.0455 C   0  0  0  0  0  0  0  0  0  0  0  0
   15.4892   14.9612   62.9640 C   0  0  0  0  0  0  0  0  0  0  0  0
   14.1454   14.9899   63.2419 C   0  0  0  0  0  0  0  0  0  0  0  0
   16.1599   16.1209   62.5658 C   0  0  0  0  0  0  0  0  0  0  0  0
   15.4624   17.3100   62.4706 C   0  0  0  0  0  0  0  0  0  0  0  0
   14.1140   17.3461   62.7600 C   0  0  0  0  0  0  0  0  0  0  0  0
   13.4440   16.1900   63.1554 C   0  0  0  0  0  0  0  0  0  0  0  0
   12.0990   16.2563   63.4543 O   0  0  0  0  0  0  0  0  0  0  0  0
   11.6232   15.0530   64.0935 C   0  0  0  0  0  0  0  0  0  0  0  0
   10.3901   15.4793   64.9286 C   0  0  0  0  0  0  0  0  0  0  0  0
   22.8711   13.6182   62.7277 C   0  0  0  0  0  0  0  0  0  0  0  0
   23.2323   12.3770   61.8665 C   0  0  0  0  0  0  0  0  0  0  0  0
   24.5827   10.5161   63.0193 C   0  0  0  0  0  0  0  0  0  0  0  0
   23.1905   11.0812   62.6937 C   0  0  0  0  0  0  0  0  0  0  0  0
   22.3818   11.3098   63.9736 C   0  0  0  0  0  0  0  0  0  0  0  0
   24.5198   12.5218   61.1346 N   0  0  0  0  0  0  0  0  0  0  0  0
   25.1969   13.7976   61.4232 C   0  0  0  0  0  0  0  0  0  0  0  0
   24.2771   12.4378   59.6883 C   0  0  0  0  0  0  0  0  0  0  0  0
 30 29  1  0  0  0
 29 28  1  0  0  0
 29 27  1  0  0  0
 27 31  1  0  0  0
 27 26  1  0  0  0
 31 33  1  0  0  0
 31 32  1  0  0  0
  4  5  2  0  0  0
  4  3  1  0  0  0
  5  6  1  0  0  0
 26  1  1  0  0  0
 15 16  2  0  0  0
 15 13  1  0  0  0
  3  1  1  0  0  0
  3  9  2  0  0  0
  1  2  1  0  0  0
  6  7  2  0  0  0
 16 17  1  0  0  0
  9  7  1  0  0  0
  9 10  1  0  0  0
  7  8  1  0  0  0
  2 10  2  0  0  0
 10 13  1  0  0  0
 13 14  2  0  0  0
 17 18  2  0  0  0
 17 19  1  0  0  0
 18 22  1  0  0  0
 14 19  1  0  0  0
 24 25  1  0  0  0
 24 23  1  0  0  0
 19 20  2  0  0  0
 22 23  1  0  0  0
 22 21  2  0  0  0
 20 21  1  0  0  0
  8 11  1  0  0  0
  8 12  1  0  0  0
M  END
> <minimizedAffinity>
-7.55396

$$$$
3V5T_UW9_A_700


 33 36  0  0  0  0  0  0  0  0999 V2000
   23.7175   15.7713   62.2473 N   0  0  0  0  0  0  0  0  0  0  0  0
   22.5995   15.7206   62.7791 N   0  0  0  0  0  0  0  0  0  0  0  0
   23.8986   14.8024   61.3657 C   0  0  0  0  0  0  0  0  0  0  0  0
   24.9342   14.4884   60.5689 N   0  0  0  0  0  0  0  0  0  0  0  0
   24.8429   13.4313   59.7874 C   0  0  0  0  0  0  0  0  0  0  0  0
   23.7366   12.6789   59.7471 N   0  0  0  0  0  0  0  0  0  0  0  0
   22.6703   12.9470   60.5141 C   0  0  0  0  0  0  0  0  0  0  0  0
   21.6118   12.1483   60.4234 N   0  0  0  0  0  0  0  0  0  0  0  0
   22.7269   14.0489   61.3729 C   0  0  0  0  0  0  0  0  0  0  0  0
   21.9078   14.6873   62.3173 C   0  0  0  0  0  0  0  0  0  0  0  0
   21.6231   11.3848   59.8019 H   0  0  0  0  0  0  0  0  0  0  0  0
   20.8165   12.3201   60.9776 H   0  0  0  0  0  0  0  0  0  0  0  0
   20.6270   14.3092   62.7031 C   0  0  0  0  0  0  0  0  0  0  0  0
   19.5416   15.1692   62.5367 C   0  0  0  0  0  0  0  0  0  0  0  0
   20.3974   13.0499   63.2252 C   0  0  0  0  0  0  0  0  0  0  0  0
   19.1146   12.6506   63.6064 C   0  0  0  0  0  0  0  0  0  0  0  0
   18.0444   13.5118   63.4643 C   0  0  0  0  0  0  0  0  0  0  0  0
   16.7871   13.1136   63.8440 C   0  0  0  0  0  0  0  0  0  0  0  0
   18.2532   14.7742   62.9022 C   0  0  0  0  0  0  0  0  0  0  0  0
   17.1824   15.6337   62.7465 C   0  0  0  0  0  0  0  0  0  0  0  0
   15.9186   15.2422   63.1373 C   0  0  0  0  0  0  0  0  0  0  0  0
   15.7091   13.9831   63.6963 C   0  0  0  0  0  0  0  0  0  0  0  0
   14.4384   13.6220   64.0934 O   0  0  0  0  0  0  0  0  0  0  0  0
   13.6571   14.7585   64.5186 C   0  0  0  0  0  0  0  0  0  0  0  0
   13.4884   14.6039   66.0506 C   0  0  0  0  0  0  0  0  0  0  0  0
   24.7418   16.7951   62.5402 C   0  0  0  0  0  0  0  0  0  0  0  0
   24.5571   18.0617   61.6603 C   0  0  0  0  0  0  0  0  0  0  0  0
   24.8120   19.1293   63.9865 C   0  0  0  0  0  0  0  0  0  0  0  0
   24.4079   19.3303   62.5168 C   0  0  0  0  0  0  0  0  0  0  0  0
   25.2008   20.4777   61.8853 C   0  0  0  0  0  0  0  0  0  0  0  0
   23.4557   17.9346   60.6679 N   0  0  0  0  0  0  0  0  0  0  0  0
   23.9100   18.1537   59.2840 C   0  0  0  0  0  0  0  0  0  0  0  0
   22.4011   18.9102   60.9738 C   0  0  0  0  0  0  0  0  0  0  0  0
 30 29  1  0  0  0
 29 28  1  0  0  0
 29 27  1  0  0  0
 27 31  1  0  0  0
 27 26  1  0  0  0
 31 33  1  0  0  0
 31 32  1  0  0  0
  4  5  2  0  0  0
  4  3  1  0  0  0
  5  6  1  0  0  0
 26  1  1  0  0  0
 15 16  2  0  0  0
 15 13  1  0  0  0
  3  1  1  0  0  0
  3  9  2  0  0  0
  1  2  1  0  0  0
  6  7  2  0  0  0
 16 17  1  0  0  0
  9  7  1  0  0  0
  9 10  1  0  0  0
  7  8  1  0  0  0
  2 10  2  0  0  0
 10 13  1  0  0  0
 13 14  2  0  0  0
 17 18  2  0  0  0
 17 19  1  0  0  0
 18 22  1  0  0  0
 14 19  1  0  0  0
 24 25  1  0  0  0
 24 23  1  0  0  0
 19 20  2  0  0  0
 22 23  1  0  0  0
 22 21  2  0  0  0
 20 21  1  0  0  0
  8 11  1  0  0  0
  8 12  1  0  0  0
M  END
> <minimizedAffinity>
-7.03802

$$$$
3V5T_UW9_A_700


 33 36  0  0  0  0  0  0  0  0999 V2000
   14.9052   17.3965   62.3488 N   0  0  0  0  0  0  0  0  0  0  0  0
   16.1012   17.0753   62.3076 N   0  0  0  0  0  0  0  0  0  0  0  0
   14.6236   18.3910   61.5239 C   0  0  0  0  0  0  0  0  0  0  0  0
   13.4785   19.0370   61.2457 N   0  0  0  0  0  0  0  0  0  0  0  0
   13.4968   20.0257   60.3748 C   0  0  0  0  0  0  0  0  0  0  0  0
   14.6196   20.3851   59.7409 N   0  0  0  0  0  0  0  0  0  0  0  0
   15.7897   19.7734   59.9729 C   0  0  0  0  0  0  0  0  0  0  0  0
   16.8626   20.1930   59.3100 N   0  0  0  0  0  0  0  0  0  0  0  0
   15.8236   18.7295   60.9024 C   0  0  0  0  0  0  0  0  0  0  0  0
   16.7628   17.8424   61.4514 C   0  0  0  0  0  0  0  0  0  0  0  0
   16.7846   20.9331   58.6654 H   0  0  0  0  0  0  0  0  0  0  0  0
   17.7352   19.7638   59.4635 H   0  0  0  0  0  0  0  0  0  0  0  0
   18.1216   17.7823   61.1646 C   0  0  0  0  0  0  0  0  0  0  0  0
   18.6417   16.7768   60.3499 C   0  0  0  0  0  0  0  0  0  0  0  0
   18.9823   18.7480   61.6523 C   0  0  0  0  0  0  0  0  0  0  0  0
   20.3481   18.7084   61.3634 C   0  0  0  0  0  0  0  0  0  0  0  0
   20.8662   17.6984   60.5768 C   0  0  0  0  0  0  0  0  0  0  0  0
   22.2099   17.6642   60.2997 C   0  0  0  0  0  0  0  0  0  0  0  0
   20.0035   16.7364   60.0442 C   0  0  0  0  0  0  0  0  0  0  0  0
   20.5166   15.7317   59.2461 C   0  0  0  0  0  0  0  0  0  0  0  0
   21.8683   15.6866   58.9741 C   0  0  0  0  0  0  0  0  0  0  0  0
   22.7290   16.6463   59.5033 C   0  0  0  0  0  0  0  0  0  0  0  0
   24.0787   16.5695   59.2291 O   0  0  0  0  0  0  0  0  0  0  0  0
   24.6063   15.2456   59.4568 C   0  0  0  0  0  0  0  0  0  0  0  0
   24.9801   15.1941   60.9591 C   0  0  0  0  0  0  0  0  0  0  0  0
   13.8899   16.7484   63.2046 C   0  0  0  0  0  0  0  0  0  0  0  0
   14.4402   15.4596   63.8745 C   0  0  0  0  0  0  0  0  0  0  0  0
   16.5750   14.1837   63.2183 C   0  0  0  0  0  0  0  0  0  0  0  0
   15.1242   14.5367   62.8519 C   0  0  0  0  0  0  0  0  0  0  0  0
   14.2873   13.2696   62.6569 C   0  0  0  0  0  0  0  0  0  0  0  0
   13.4211   14.7316   64.6779 N   0  0  0  0  0  0  0  0  0  0  0  0
   12.1047   15.3920   64.6585 C   0  0  0  0  0  0  0  0  0  0  0  0
   13.8726   14.6299   66.0720 C   0  0  0  0  0  0  0  0  0  0  0  0
 30 29  1  0  0  0
 29 28  1  0  0  0
 29 27  1  0  0  0
 27 31  1  0  0  0
 27 26  1  0  0  0
 31 33  1  0  0  0
 31 32  1  0  0  0
  4  5  2  0  0  0
  4  3  1  0  0  0
  5  6  1  0  0  0
 26  1  1  0  0  0
 15 16  2  0  0  0
 15 13  1  0  0  0
  3  1  1  0  0  0
  3  9  2  0  0  0
  1  2  1  0  0  0
  6  7  2  0  0  0
 16 17  1  0  0  0
  9  7  1  0  0  0
  9 10  1  0  0  0
  7  8  1  0  0  0
  2 10  2  0  0  0
 10 13  1  0  0  0
 13 14  2  0  0  0
 17 18  2  0  0  0
 17 19  1  0  0  0
 18 22  1  0  0  0
 14 19  1  0  0  0
 24 25  1  0  0  0
 24 23  1  0  0  0
 19 20  2  0  0  0
 22 23  1  0  0  0
 22 21  2  0  0  0
 20 21  1  0  0  0
  8 11  1  0  0  0
  8 12  1  0  0  0
M  END
> <minimizedAffinity>
-6.93658

$$$$
3V5T_UW9_A_700


 33 36  0  0  0  0  0  0  0  0999 V2000
   14.5223   14.8504   62.9976 N   0  0  0  0  0  0  0  0  0  0  0  0
   14.8810   16.0056   62.7290 N   0  0  0  0  0  0  0  0  0  0  0  0
   15.5390   14.0059   63.0397 C   0  0  0  0  0  0  0  0  0  0  0  0
   15.6088   12.6886   63.2959 N   0  0  0  0  0  0  0  0  0  0  0  0
   16.7811   12.0884   63.2477 C   0  0  0  0  0  0  0  0  0  0  0  0
   17.9061   12.7614   62.9770 N   0  0  0  0  0  0  0  0  0  0  0  0
   17.8989   14.0770   62.7197 C   0  0  0  0  0  0  0  0  0  0  0  0
   19.0562   14.6729   62.4513 N   0  0  0  0  0  0  0  0  0  0  0  0
   16.6759   14.7541   62.7419 C   0  0  0  0  0  0  0  0  0  0  0  0
   16.1932   16.0571   62.5424 C   0  0  0  0  0  0  0  0  0  0  0  0
   19.8903   14.1498   62.4484 H   0  0  0  0  0  0  0  0  0  0  0  0
   19.0795   15.6375   62.2554 H   0  0  0  0  0  0  0  0  0  0  0  0
   16.9384   17.1811   62.2058 C   0  0  0  0  0  0  0  0  0  0  0  0
   16.7046   17.8702   61.0159 C   0  0  0  0  0  0  0  0  0  0  0  0
   17.9044   17.6637   63.0692 C   0  0  0  0  0  0  0  0  0  0  0  0
   18.6533   18.7987   62.7510 C   0  0  0  0  0  0  0  0  0  0  0  0
   18.4381   19.4659   61.5612 C   0  0  0  0  0  0  0  0  0  0  0  0
   19.1801   20.5789   61.2539 C   0  0  0  0  0  0  0  0  0  0  0  0
   17.4387   19.0138   60.6951 C   0  0  0  0  0  0  0  0  0  0  0  0
   17.2120   19.6867   59.5097 C   0  0  0  0  0  0  0  0  0  0  0  0
   17.9630   20.7992   59.1911 C   0  0  0  0  0  0  0  0  0  0  0  0
   18.9585   21.2518   60.0548 C   0  0  0  0  0  0  0  0  0  0  0  0
   19.7060   22.3572   59.7053 O   0  0  0  0  0  0  0  0  0  0  0  0
   20.9984   22.3659   60.3477 C   0  0  0  0  0  0  0  0  0  0  0  0
   22.0388   22.3305   59.2007 C   0  0  0  0  0  0  0  0  0  0  0  0
   13.1260   14.4429   63.2569 C   0  0  0  0  0  0  0  0  0  0  0  0
   12.5360   15.1681   64.4973 C   0  0  0  0  0  0  0  0  0  0  0  0
   12.8816   12.8554   65.5687 C   0  0  0  0  0  0  0  0  0  0  0  0
   12.7852   14.3737   65.7904 C   0  0  0  0  0  0  0  0  0  0  0  0
   14.0400   14.9033   66.4899 C   0  0  0  0  0  0  0  0  0  0  0  0
   11.1012   15.5302   64.3414 N   0  0  0  0  0  0  0  0  0  0  0  0
   10.2911   15.1597   65.5144 C   0  0  0  0  0  0  0  0  0  0  0  0
   10.5480   14.8562   63.1593 C   0  0  0  0  0  0  0  0  0  0  0  0
 30 29  1  0  0  0
 29 28  1  0  0  0
 29 27  1  0  0  0
 27 31  1  0  0  0
 27 26  1  0  0  0
 31 33  1  0  0  0
 31 32  1  0  0  0
  4  5  2  0  0  0
  4  3  1  0  0  0
  5  6  1  0  0  0
 26  1  1  0  0  0
 15 16  2  0  0  0
 15 13  1  0  0  0
  3  1  1  0  0  0
  3  9  2  0  0  0
  1  2  1  0  0  0
  6  7  2  0  0  0
 16 17  1  0  0  0
  9  7  1  0  0  0
  9 10  1  0  0  0
  7  8  1  0  0  0
  2 10  2  0  0  0
 10 13  1  0  0  0
 13 14  2  0  0  0
 17 18  2  0  0  0
 17 19  1  0  0  0
 18 22  1  0  0  0
 14 19  1  0  0  0
 24 25  1  0  0  0
 24 23  1  0  0  0
 19 20  2  0  0  0
 22 23  1  0  0  0
 22 21  2  0  0  0
 20 21  1  0  0  0
  8 11  1  0  0  0
  8 12  1  0  0  0
M  END
> <minimizedAffinity>
-6.92057

$$$$
