2CF9_348_H_1247


 36 40  0  0  0  0  0  0  0  0999 V2000
   15.7890  -11.2990   19.7552 C   0  0  0  0  0  0  0  0  0  0  0  0
   15.6052  -12.3404   18.6969 N   0  0  0  0  0  0  0  0  0  0  0  0
   14.6776  -11.8844   17.6369 C   0  0  0  0  0  0  0  0  0  0  0  0
   15.4536  -11.9187   16.3125 C   0  0  0  0  0  0  0  0  0  0  0  0
   16.9294  -11.9369   16.7010 C   0  0  0  0  0  0  0  0  0  0  0  0
   16.9362  -12.5698   18.0889 C   0  0  0  0  0  0  0  0  0  0  0  0
   17.9780  -12.0315   19.0686 C   0  0  0  0  0  0  0  0  0  0  0  0
   18.9552  -13.1350   19.5123 C   0  0  0  0  0  0  0  0  0  0  0  0
   18.4107  -13.4868   20.8464 N   0  0  0  0  0  0  0  0  0  0  0  0
   17.4321  -12.6762   21.2679 C   0  0  0  0  0  0  0  0  0  0  0  0
   16.8261  -12.8457   22.3185 O   0  0  0  0  0  0  0  0  0  0  0  0
   17.2111  -11.5483   20.2977 C   0  0  0  0  0  0  0  0  0  0  0  0
   12.6317  -11.0066   22.6866 C   0  0  0  0  0  0  0  0  0  0  0  0
   12.8009  -12.1930   21.9600 C   0  0  0  0  0  0  0  0  0  0  0  0
   13.8267  -12.2837   21.0113 C   0  0  0  0  0  0  0  0  0  0  0  0
   14.6928  -11.2151   20.7737 C   0  0  0  0  0  0  0  0  0  0  0  0
   14.5135  -10.0294   21.4995 C   0  0  0  0  0  0  0  0  0  0  0  0
   13.4860   -9.9327   22.4483 C   0  0  0  0  0  0  0  0  0  0  0  0
   10.8113  -11.9951   24.0340 N   0  0  0  0  0  0  0  0  0  0  0  0
   11.5321  -10.9137   23.7143 C   0  0  0  0  0  0  0  0  0  0  0  0
   11.2594   -9.7639   24.3007 N   0  0  0  0  0  0  0  0  0  0  0  0
   10.0946  -11.9281   24.7057 H   0  0  0  0  0  0  0  0  0  0  0  0
   10.9976  -12.8576   23.5974 H   0  0  0  0  0  0  0  0  0  0  0  0
   10.5399   -9.7114   24.9707 H   0  0  0  0  0  0  0  0  0  0  0  0
   20.4278  -12.6349   19.5317 C   0  0  0  0  0  0  0  0  0  0  0  0
   20.9735  -12.2324   18.1604 C   0  0  0  0  0  0  0  0  0  0  0  0
   20.7281  -11.5088   20.5215 C   0  0  0  0  0  0  0  0  0  0  0  0
   18.9298  -14.6828   21.5470 C   0  0  0  0  0  0  0  0  0  0  0  0
   19.7789  -14.2542   22.7318 C   0  0  0  0  0  0  0  0  0  0  0  0
   21.1305  -13.9539   22.5535 C   0  0  0  0  0  0  0  0  0  0  0  0
   21.9246  -13.5278   23.6253 C   0  0  0  0  0  0  0  0  0  0  0  0
   21.3549  -13.3991   24.8927 C   0  0  0  0  0  0  0  0  0  0  0  0
   20.0047  -13.7085   25.0786 C   0  0  0  0  0  0  0  0  0  0  0  0
   19.2151  -14.1301   24.0089 C   0  0  0  0  0  0  0  0  0  0  0  0
   22.1239  -12.9830   25.9517 O   0  0  0  0  0  0  0  0  0  0  0  0
   21.5754  -12.8987   27.2730 C   0  0  0  0  0  0  0  0  0  0  0  0
 19 20  1  0  0  0
 20 21  2  0  0  0
 20 13  1  0  0  0
 13 14  2  0  0  0
 13 18  1  0  0  0
 14 15  1  0  0  0
 15 16  2  0  0  0
 16 17  1  0  0  0
 16  1  1  0  0  0
 17 18  2  0  0  0
  1  2  1  0  0  0
  1 12  1  0  0  0
  2  3  1  0  0  0
  2  6  1  0  0  0
  3  4  1  0  0  0
  4  5  1  0  0  0
  5  6  1  0  0  0
  6  7  1  0  0  0
  7  8  1  0  0  0
  7 12  1  0  0  0
  8  9  1  0  0  0
  8 25  1  0  0  0
  9 10  1  0  0  0
  9 28  1  0  0  0
 10 11  2  0  0  0
 10 12  1  0  0  0
 28 29  1  0  0  0
 29 30  2  0  0  0
 29 34  1  0  0  0
 30 31  1  0  0  0
 31 32  2  0  0  0
 32 35  1  0  0  0
 32 33  1  0  0  0
 35 36  1  0  0  0
 33 34  2  0  0  0
 25 26  1  0  0  0
 25 27  1  0  0  0
 19 22  1  0  0  0
 19 23  1  0  0  0
 21 24  1  0  0  0
M  END
> <minimizedAffinity>
-11.41044

$$$$
2CF9_348_H_1247


 36 40  0  0  0  0  0  0  0  0999 V2000
   15.8351  -11.1882   19.8336 C   0  0  0  0  0  0  0  0  0  0  0  0
   15.6176  -12.1666   18.7228 N   0  0  0  0  0  0  0  0  0  0  0  0
   14.7205  -11.6188   17.6802 C   0  0  0  0  0  0  0  0  0  0  0  0
   15.5072  -11.6202   16.3617 C   0  0  0  0  0  0  0  0  0  0  0  0
   16.9771  -11.7211   16.7599 C   0  0  0  0  0  0  0  0  0  0  0  0
   16.9435  -12.4222   18.1142 C   0  0  0  0  0  0  0  0  0  0  0  0
   17.9976  -11.9788   19.1277 C   0  0  0  0  0  0  0  0  0  0  0  0
   18.9227  -13.1440   19.5227 C   0  0  0  0  0  0  0  0  0  0  0  0
   18.3508  -13.5383   20.8332 N   0  0  0  0  0  0  0  0  0  0  0  0
   17.4035  -12.7086   21.2875 C   0  0  0  0  0  0  0  0  0  0  0  0
   16.7807  -12.9042   22.3237 O   0  0  0  0  0  0  0  0  0  0  0  0
   17.2400  -11.5252   20.3737 C   0  0  0  0  0  0  0  0  0  0  0  0
   12.6607  -10.9076   22.7476 C   0  0  0  0  0  0  0  0  0  0  0  0
   12.8752  -12.1121   22.0639 C   0  0  0  0  0  0  0  0  0  0  0  0
   13.9063  -12.1987   21.1207 C   0  0  0  0  0  0  0  0  0  0  0  0
   14.7336  -11.1084   20.8467 C   0  0  0  0  0  0  0  0  0  0  0  0
   14.5092   -9.9050   21.5296 C   0  0  0  0  0  0  0  0  0  0  0  0
   13.4760   -9.8123   22.4727 C   0  0  0  0  0  0  0  0  0  0  0  0
   10.8593  -11.9096   24.1105 N   0  0  0  0  0  0  0  0  0  0  0  0
   11.5554  -10.8186   23.7695 C   0  0  0  0  0  0  0  0  0  0  0  0
   11.2534   -9.6630   24.3298 N   0  0  0  0  0  0  0  0  0  0  0  0
   10.1388  -11.8450   24.7784 H   0  0  0  0  0  0  0  0  0  0  0  0
   11.0677  -12.7767   23.6935 H   0  0  0  0  0  0  0  0  0  0  0  0
   10.5304   -9.6131   24.9962 H   0  0  0  0  0  0  0  0  0  0  0  0
   20.4150  -12.7092   19.5783 C   0  0  0  0  0  0  0  0  0  0  0  0
   20.9529  -12.1374   18.2654 C   0  0  0  0  0  0  0  0  0  0  0  0
   20.7791  -11.7476   20.7101 C   0  0  0  0  0  0  0  0  0  0  0  0
   18.8118  -14.7891   21.4766 C   0  0  0  0  0  0  0  0  0  0  0  0
   17.6736  -15.7948   21.5155 C   0  0  0  0  0  0  0  0  0  0  0  0
   17.3664  -16.4603   22.7035 C   0  0  0  0  0  0  0  0  0  0  0  0
   16.3026  -17.3685   22.7700 C   0  0  0  0  0  0  0  0  0  0  0  0
   15.5352  -17.6110   21.6300 C   0  0  0  0  0  0  0  0  0  0  0  0
   15.8451  -16.9552   20.4353 C   0  0  0  0  0  0  0  0  0  0  0  0
   16.9035  -16.0488   20.3723 C   0  0  0  0  0  0  0  0  0  0  0  0
   14.4900  -18.5003   21.6827 O   0  0  0  0  0  0  0  0  0  0  0  0
   13.2505  -18.2214   21.0196 C   0  0  0  0  0  0  0  0  0  0  0  0
 19 20  1  0  0  0
 20 21  2  0  0  0
 20 13  1  0  0  0
 13 14  2  0  0  0
 13 18  1  0  0  0
 14 15  1  0  0  0
 15 16  2  0  0  0
 16 17  1  0  0  0
 16  1  1  0  0  0
 17 18  2  0  0  0
  1  2  1  0  0  0
  1 12  1  0  0  0
  2  3  1  0  0  0
  2  6  1  0  0  0
  3  4  1  0  0  0
  4  5  1  0  0  0
  5  6  1  0  0  0
  6  7  1  0  0  0
  7  8  1  0  0  0
  7 12  1  0  0  0
  8  9  1  0  0  0
  8 25  1  0  0  0
  9 10  1  0  0  0
  9 28  1  0  0  0
 10 11  2  0  0  0
 10 12  1  0  0  0
 28 29  1  0  0  0
 29 30  2  0  0  0
 29 34  1  0  0  0
 30 31  1  0  0  0
 31 32  2  0  0  0
 32 35  1  0  0  0
 32 33  1  0  0  0
 35 36  1  0  0  0
 33 34  2  0  0  0
 25 26  1  0  0  0
 25 27  1  0  0  0
 19 22  1  0  0  0
 19 23  1  0  0  0
 21 24  1  0  0  0
M  END
> <minimizedAffinity>
-10.34354

$$$$
2CF9_348_H_1247


 36 40  0  0  0  0  0  0  0  0999 V2000
   14.5414  -12.6195   19.0379 C   0  0  0  0  0  0  0  0  0  0  0  0
   15.0203  -14.0362   19.0808 N   0  0  0  0  0  0  0  0  0  0  0  0
   13.9610  -14.9837   18.6657 C   0  0  0  0  0  0  0  0  0  0  0  0
   14.4955  -15.7537   17.4497 C   0  0  0  0  0  0  0  0  0  0  0  0
   15.6465  -14.9131   16.9039 C   0  0  0  0  0  0  0  0  0  0  0  0
   16.1425  -14.1362   18.1194 C   0  0  0  0  0  0  0  0  0  0  0  0
   16.6362  -12.7147   17.8536 C   0  0  0  0  0  0  0  0  0  0  0  0
   18.1195  -12.5549   18.2329 C   0  0  0  0  0  0  0  0  0  0  0  0
   18.0122  -11.8839   19.5514 N   0  0  0  0  0  0  0  0  0  0  0  0
   16.7677  -11.5110   19.8746 C   0  0  0  0  0  0  0  0  0  0  0  0
   16.4791  -10.9944   20.9468 O   0  0  0  0  0  0  0  0  0  0  0  0
   15.8110  -11.7927   18.7487 C   0  0  0  0  0  0  0  0  0  0  0  0
   12.1843  -11.3960   22.4430 C   0  0  0  0  0  0  0  0  0  0  0  0
   12.3406  -10.5270   21.3546 C   0  0  0  0  0  0  0  0  0  0  0  0
   13.1049  -10.9284   20.2523 C   0  0  0  0  0  0  0  0  0  0  0  0
   13.7150  -12.1830   20.2095 C   0  0  0  0  0  0  0  0  0  0  0  0
   13.5597  -13.0445   21.3045 C   0  0  0  0  0  0  0  0  0  0  0  0
   12.7980  -12.6460   22.4119 C   0  0  0  0  0  0  0  0  0  0  0  0
   11.1763   -9.6660   23.8912 N   0  0  0  0  0  0  0  0  0  0  0  0
   11.3536  -10.9657   23.6256 C   0  0  0  0  0  0  0  0  0  0  0  0
   10.8027  -11.8642   24.4191 N   0  0  0  0  0  0  0  0  0  0  0  0
   10.6328   -9.3913   24.6648 H   0  0  0  0  0  0  0  0  0  0  0  0
   11.5893   -8.9846   23.3130 H   0  0  0  0  0  0  0  0  0  0  0  0
   10.2617  -11.5753   25.1892 H   0  0  0  0  0  0  0  0  0  0  0  0
   18.9096  -11.7471   17.1641 C   0  0  0  0  0  0  0  0  0  0  0  0
   20.4128  -12.0302   17.1459 C   0  0  0  0  0  0  0  0  0  0  0  0
   18.3799  -11.8535   15.7336 C   0  0  0  0  0  0  0  0  0  0  0  0
   19.2236  -11.7376   20.3891 C   0  0  0  0  0  0  0  0  0  0  0  0
   19.5298  -13.0551   21.0813 C   0  0  0  0  0  0  0  0  0  0  0  0
   20.4557  -13.9401   20.5261 C   0  0  0  0  0  0  0  0  0  0  0  0
   20.7756  -15.1459   21.1622 C   0  0  0  0  0  0  0  0  0  0  0  0
   20.1603  -15.4674   22.3726 C   0  0  0  0  0  0  0  0  0  0  0  0
   19.2248  -14.5897   22.9275 C   0  0  0  0  0  0  0  0  0  0  0  0
   18.9098  -13.3879   22.2934 C   0  0  0  0  0  0  0  0  0  0  0  0
   20.4653  -16.6475   23.0054 O   0  0  0  0  0  0  0  0  0  0  0  0
   19.8845  -16.9757   24.2737 C   0  0  0  0  0  0  0  0  0  0  0  0
 19 20  1  0  0  0
 20 21  2  0  0  0
 20 13  1  0  0  0
 13 14  2  0  0  0
 13 18  1  0  0  0
 14 15  1  0  0  0
 15 16  2  0  0  0
 16 17  1  0  0  0
 16  1  1  0  0  0
 17 18  2  0  0  0
  1  2  1  0  0  0
  1 12  1  0  0  0
  2  3  1  0  0  0
  2  6  1  0  0  0
  3  4  1  0  0  0
  4  5  1  0  0  0
  5  6  1  0  0  0
  6  7  1  0  0  0
  7  8  1  0  0  0
  7 12  1  0  0  0
  8  9  1  0  0  0
  8 25  1  0  0  0
  9 10  1  0  0  0
  9 28  1  0  0  0
 10 11  2  0  0  0
 10 12  1  0  0  0
 28 29  1  0  0  0
 29 30  2  0  0  0
 29 34  1  0  0  0
 30 31  1  0  0  0
 31 32  2  0  0  0
 32 35  1  0  0  0
 32 33  1  0  0  0
 35 36  1  0  0  0
 33 34  2  0  0  0
 25 26  1  0  0  0
 25 27  1  0  0  0
 19 22  1  0  0  0
 19 23  1  0  0  0
 21 24  1  0  0  0
M  END
> <minimizedAffinity>
-9.74983

$$$$
2CF9_348_H_1247


 36 40  0  0  0  0  0  0  0  0999 V2000
   13.7770  -12.4167   19.0804 C   0  0  0  0  0  0  0  0  0  0  0  0
   14.1764  -13.8364   19.3317 N   0  0  0  0  0  0  0  0  0  0  0  0
   12.9962  -14.7146   19.4985 C   0  0  0  0  0  0  0  0  0  0  0  0
   13.0804  -15.7953   18.4112 C   0  0  0  0  0  0  0  0  0  0  0  0
   14.0381  -15.2452   17.3578 C   0  0  0  0  0  0  0  0  0  0  0  0
   14.9301  -14.2848   18.1381 C   0  0  0  0  0  0  0  0  0  0  0  0
   15.3816  -13.0298   17.3925 C   0  0  0  0  0  0  0  0  0  0  0  0
   16.9146  -12.9736   17.2636 C   0  0  0  0  0  0  0  0  0  0  0  0
   17.2626  -12.0185   18.3437 N   0  0  0  0  0  0  0  0  0  0  0  0
   16.2040  -11.4328   18.9168 C   0  0  0  0  0  0  0  0  0  0  0  0
   16.2949  -10.6594   19.8621 O   0  0  0  0  0  0  0  0  0  0  0  0
   14.9276  -11.8376   18.2320 C   0  0  0  0  0  0  0  0  0  0  0  0
   12.6241  -10.1256   22.5544 C   0  0  0  0  0  0  0  0  0  0  0  0
   13.0361  -11.4569   22.7024 C   0  0  0  0  0  0  0  0  0  0  0  0
   13.4101  -12.1956   21.5733 C   0  0  0  0  0  0  0  0  0  0  0  0
   13.3862  -11.6325   20.2963 C   0  0  0  0  0  0  0  0  0  0  0  0
   12.9668  -10.3024   20.1551 C   0  0  0  0  0  0  0  0  0  0  0  0
   12.5884   -9.5596   21.2822 C   0  0  0  0  0  0  0  0  0  0  0  0
   10.9951   -9.4308   24.2779 N   0  0  0  0  0  0  0  0  0  0  0  0
   12.2301   -9.3286   23.7724 C   0  0  0  0  0  0  0  0  0  0  0  0
   13.0933   -8.5125   24.3463 N   0  0  0  0  0  0  0  0  0  0  0  0
   10.7439   -8.9079   25.0733 H   0  0  0  0  0  0  0  0  0  0  0  0
   10.3378  -10.0289   23.8542 H   0  0  0  0  0  0  0  0  0  0  0  0
   12.8285   -7.9956   25.1413 H   0  0  0  0  0  0  0  0  0  0  0  0
   17.3630  -12.5271   15.8428 C   0  0  0  0  0  0  0  0  0  0  0  0
   16.7254  -13.3231   14.7028 C   0  0  0  0  0  0  0  0  0  0  0  0
   17.2045  -11.0366   15.5402 C   0  0  0  0  0  0  0  0  0  0  0  0
   18.6826  -11.8401   18.7215 C   0  0  0  0  0  0  0  0  0  0  0  0
   19.1264  -12.9937   19.6051 C   0  0  0  0  0  0  0  0  0  0  0  0
   20.4796  -13.3228   19.7013 C   0  0  0  0  0  0  0  0  0  0  0  0
   20.9142  -14.3624   20.5327 C   0  0  0  0  0  0  0  0  0  0  0  0
   19.9791  -15.0804   21.2793 C   0  0  0  0  0  0  0  0  0  0  0  0
   18.6220  -14.7618   21.1786 C   0  0  0  0  0  0  0  0  0  0  0  0
   18.1918  -13.7239   20.3519 C   0  0  0  0  0  0  0  0  0  0  0  0
   20.3932  -16.1027   22.0975 O   0  0  0  0  0  0  0  0  0  0  0  0
   19.4707  -16.7710   22.9671 C   0  0  0  0  0  0  0  0  0  0  0  0
 19 20  1  0  0  0
 20 21  2  0  0  0
 20 13  1  0  0  0
 13 14  2  0  0  0
 13 18  1  0  0  0
 14 15  1  0  0  0
 15 16  2  0  0  0
 16 17  1  0  0  0
 16  1  1  0  0  0
 17 18  2  0  0  0
  1  2  1  0  0  0
  1 12  1  0  0  0
  2  3  1  0  0  0
  2  6  1  0  0  0
  3  4  1  0  0  0
  4  5  1  0  0  0
  5  6  1  0  0  0
  6  7  1  0  0  0
  7  8  1  0  0  0
  7 12  1  0  0  0
  8  9  1  0  0  0
  8 25  1  0  0  0
  9 10  1  0  0  0
  9 28  1  0  0  0
 10 11  2  0  0  0
 10 12  1  0  0  0
 28 29  1  0  0  0
 29 30  2  0  0  0
 29 34  1  0  0  0
 30 31  1  0  0  0
 31 32  2  0  0  0
 32 35  1  0  0  0
 32 33  1  0  0  0
 35 36  1  0  0  0
 33 34  2  0  0  0
 25 26  1  0  0  0
 25 27  1  0  0  0
 19 22  1  0  0  0
 19 23  1  0  0  0
 21 24  1  0  0  0
M  END
> <minimizedAffinity>
-9.47058

$$$$
2CF9_348_H_1247


 36 40  0  0  0  0  0  0  0  0999 V2000
   18.3979  -12.7026   20.9869 C   0  0  0  0  0  0  0  0  0  0  0  0
   19.4101  -13.2808   20.0490 N   0  0  0  0  0  0  0  0  0  0  0  0
   19.3591  -12.6290   18.7207 C   0  0  0  0  0  0  0  0  0  0  0  0
   20.7455  -12.0221   18.4622 C   0  0  0  0  0  0  0  0  0  0  0  0
   21.4138  -11.9253   19.8310 C   0  0  0  0  0  0  0  0  0  0  0  0
   20.7407  -13.0244   20.6470 C   0  0  0  0  0  0  0  0  0  0  0  0
   20.5185  -12.7222   22.1282 C   0  0  0  0  0  0  0  0  0  0  0  0
   21.2730  -13.7205   23.0248 C   0  0  0  0  0  0  0  0  0  0  0  0
   20.1792  -14.6410   23.4200 N   0  0  0  0  0  0  0  0  0  0  0  0
   18.9610  -14.2367   23.0399 C   0  0  0  0  0  0  0  0  0  0  0  0
   17.9459  -14.8952   23.2291 O   0  0  0  0  0  0  0  0  0  0  0  0
   19.0218  -12.8836   22.3857 C   0  0  0  0  0  0  0  0  0  0  0  0
   14.3433  -14.1048   20.4957 C   0  0  0  0  0  0  0  0  0  0  0  0
   15.3981  -14.7915   19.8793 C   0  0  0  0  0  0  0  0  0  0  0  0
   16.7112  -14.3338   20.0421 C   0  0  0  0  0  0  0  0  0  0  0  0
   16.9969  -13.2053   20.8124 C   0  0  0  0  0  0  0  0  0  0  0  0
   15.9363  -12.5197   21.4207 C   0  0  0  0  0  0  0  0  0  0  0  0
   14.6194  -12.9723   21.2581 C   0  0  0  0  0  0  0  0  0  0  0  0
   12.4409  -15.5411   21.1472 N   0  0  0  0  0  0  0  0  0  0  0  0
   12.9305  -14.6041   20.3266 C   0  0  0  0  0  0  0  0  0  0  0  0
   12.1651  -14.1329   19.3608 N   0  0  0  0  0  0  0  0  0  0  0  0
   11.5178  -15.8630   21.0317 H   0  0  0  0  0  0  0  0  0  0  0  0
   13.0040  -15.9085   21.8665 H   0  0  0  0  0  0  0  0  0  0  0  0
   11.2438  -14.4640   19.2570 H   0  0  0  0  0  0  0  0  0  0  0  0
   21.9791  -13.0135   24.2167 C   0  0  0  0  0  0  0  0  0  0  0  0
   21.1432  -12.9523   25.4964 C   0  0  0  0  0  0  0  0  0  0  0  0
   23.3674  -13.5478   24.5706 C   0  0  0  0  0  0  0  0  0  0  0  0
   20.5126  -15.9014   24.1209 C   0  0  0  0  0  0  0  0  0  0  0  0
   21.5102  -16.6975   23.2966 C   0  0  0  0  0  0  0  0  0  0  0  0
   22.7215  -17.1015   23.8605 C   0  0  0  0  0  0  0  0  0  0  0  0
   23.6424  -17.8616   23.1291 C   0  0  0  0  0  0  0  0  0  0  0  0
   23.3434  -18.2233   21.8148 C   0  0  0  0  0  0  0  0  0  0  0  0
   22.1366  -17.8124   21.2421 C   0  0  0  0  0  0  0  0  0  0  0  0
   21.2196  -17.0577   21.9736 C   0  0  0  0  0  0  0  0  0  0  0  0
   24.2391  -18.9678   21.0873 O   0  0  0  0  0  0  0  0  0  0  0  0
   25.6457  -18.8946   21.3521 C   0  0  0  0  0  0  0  0  0  0  0  0
 19 20  1  0  0  0
 20 21  2  0  0  0
 20 13  1  0  0  0
 13 14  2  0  0  0
 13 18  1  0  0  0
 14 15  1  0  0  0
 15 16  2  0  0  0
 16 17  1  0  0  0
 16  1  1  0  0  0
 17 18  2  0  0  0
  1  2  1  0  0  0
  1 12  1  0  0  0
  2  3  1  0  0  0
  2  6  1  0  0  0
  3  4  1  0  0  0
  4  5  1  0  0  0
  5  6  1  0  0  0
  6  7  1  0  0  0
  7  8  1  0  0  0
  7 12  1  0  0  0
  8  9  1  0  0  0
  8 25  1  0  0  0
  9 10  1  0  0  0
  9 28  1  0  0  0
 10 11  2  0  0  0
 10 12  1  0  0  0
 28 29  1  0  0  0
 29 30  2  0  0  0
 29 34  1  0  0  0
 30 31  1  0  0  0
 31 32  2  0  0  0
 32 35  1  0  0  0
 32 33  1  0  0  0
 35 36  1  0  0  0
 33 34  2  0  0  0
 25 26  1  0  0  0
 25 27  1  0  0  0
 19 22  1  0  0  0
 19 23  1  0  0  0
 21 24  1  0  0  0
M  END
> <minimizedAffinity>
-8.69169

$$$$
2CF9_348_H_1247


 36 40  0  0  0  0  0  0  0  0999 V2000
   18.7379  -13.3800   20.4245 C   0  0  0  0  0  0  0  0  0  0  0  0
   19.4433  -12.2358   19.7676 N   0  0  0  0  0  0  0  0  0  0  0  0
   20.7967  -12.6205   19.3067 C   0  0  0  0  0  0  0  0  0  0  0  0
   20.8404  -12.3868   17.7899 C   0  0  0  0  0  0  0  0  0  0  0  0
   19.3830  -12.3256   17.3410 C   0  0  0  0  0  0  0  0  0  0  0  0
   18.6346  -11.8585   18.5855 C   0  0  0  0  0  0  0  0  0  0  0  0
   17.2378  -12.4435   18.7897 C   0  0  0  0  0  0  0  0  0  0  0  0
   16.1620  -11.3424   18.7909 C   0  0  0  0  0  0  0  0  0  0  0  0
   15.9127  -11.1807   20.2441 N   0  0  0  0  0  0  0  0  0  0  0  0
   16.5278  -12.0916   21.0083 C   0  0  0  0  0  0  0  0  0  0  0  0
   16.4828  -12.0814   22.2322 O   0  0  0  0  0  0  0  0  0  0  0  0
   17.2418  -13.1107   20.1634 C   0  0  0  0  0  0  0  0  0  0  0  0
   19.8490  -14.1966   24.5166 C   0  0  0  0  0  0  0  0  0  0  0  0
   20.3961  -13.0900   23.8531 C   0  0  0  0  0  0  0  0  0  0  0  0
   20.0321  -12.8285   22.5267 C   0  0  0  0  0  0  0  0  0  0  0  0
   19.1283  -13.6465   21.8467 C   0  0  0  0  0  0  0  0  0  0  0  0
   18.5901  -14.7552   22.5146 C   0  0  0  0  0  0  0  0  0  0  0  0
   18.9538  -15.0230   23.8417 C   0  0  0  0  0  0  0  0  0  0  0  0
   20.9956  -13.6016   26.6233 N   0  0  0  0  0  0  0  0  0  0  0  0
   20.2353  -14.4718   25.9481 C   0  0  0  0  0  0  0  0  0  0  0  0
   19.8393  -15.5784   26.5474 N   0  0  0  0  0  0  0  0  0  0  0  0
   21.2444  -13.7869   27.5576 H   0  0  0  0  0  0  0  0  0  0  0  0
   21.3060  -12.7762   26.1856 H   0  0  0  0  0  0  0  0  0  0  0  0
   20.0956  -15.7507   27.4821 H   0  0  0  0  0  0  0  0  0  0  0  0
   14.9087  -11.7526   17.9664 C   0  0  0  0  0  0  0  0  0  0  0  0
   15.0392  -11.5116   16.4614 C   0  0  0  0  0  0  0  0  0  0  0  0
   14.4147  -13.1829   18.1863 C   0  0  0  0  0  0  0  0  0  0  0  0
   15.0882  -10.0450   20.7143 C   0  0  0  0  0  0  0  0  0  0  0  0
   13.9871  -10.5554   21.6285 C   0  0  0  0  0  0  0  0  0  0  0  0
   13.4698   -9.7322   22.6302 C   0  0  0  0  0  0  0  0  0  0  0  0
   12.4343  -10.1710   23.4644 C   0  0  0  0  0  0  0  0  0  0  0  0
   11.9089  -11.4520   23.2903 C   0  0  0  0  0  0  0  0  0  0  0  0
   12.4304  -12.2840   22.2957 C   0  0  0  0  0  0  0  0  0  0  0  0
   13.4600  -11.8436   21.4641 C   0  0  0  0  0  0  0  0  0  0  0  0
   10.8938  -11.8937   24.1029 O   0  0  0  0  0  0  0  0  0  0  0  0
   11.1229  -12.1550   25.4933 C   0  0  0  0  0  0  0  0  0  0  0  0
 19 20  1  0  0  0
 20 21  2  0  0  0
 20 13  1  0  0  0
 13 14  2  0  0  0
 13 18  1  0  0  0
 14 15  1  0  0  0
 15 16  2  0  0  0
 16 17  1  0  0  0
 16  1  1  0  0  0
 17 18  2  0  0  0
  1  2  1  0  0  0
  1 12  1  0  0  0
  2  3  1  0  0  0
  2  6  1  0  0  0
  3  4  1  0  0  0
  4  5  1  0  0  0
  5  6  1  0  0  0
  6  7  1  0  0  0
  7  8  1  0  0  0
  7 12  1  0  0  0
  8  9  1  0  0  0
  8 25  1  0  0  0
  9 10  1  0  0  0
  9 28  1  0  0  0
 10 11  2  0  0  0
 10 12  1  0  0  0
 28 29  1  0  0  0
 29 30  2  0  0  0
 29 34  1  0  0  0
 30 31  1  0  0  0
 31 32  2  0  0  0
 32 35  1  0  0  0
 32 33  1  0  0  0
 35 36  1  0  0  0
 33 34  2  0  0  0
 25 26  1  0  0  0
 25 27  1  0  0  0
 19 22  1  0  0  0
 19 23  1  0  0  0
 21 24  1  0  0  0
M  END
> <minimizedAffinity>
-8.63308

$$$$
2CF9_348_H_1247


 36 40  0  0  0  0  0  0  0  0999 V2000
   15.5147  -14.9793   18.4979 C   0  0  0  0  0  0  0  0  0  0  0  0
   14.3298  -15.0911   19.4044 N   0  0  0  0  0  0  0  0  0  0  0  0
   13.1637  -15.6816   18.7091 C   0  0  0  0  0  0  0  0  0  0  0  0
   12.7779  -16.9544   19.4761 C   0  0  0  0  0  0  0  0  0  0  0  0
   14.0057  -17.3240   20.3038 C   0  0  0  0  0  0  0  0  0  0  0  0
   14.7231  -15.9938   20.5108 C   0  0  0  0  0  0  0  0  0  0  0  0
   16.2501  -16.0483   20.5267 C   0  0  0  0  0  0  0  0  0  0  0  0
   16.8155  -15.5702   21.8763 C   0  0  0  0  0  0  0  0  0  0  0  0
   17.2288  -14.1849   21.5444 N   0  0  0  0  0  0  0  0  0  0  0  0
   17.1416  -13.8862   20.2424 C   0  0  0  0  0  0  0  0  0  0  0  0
   17.3870  -12.7745   19.7910 O   0  0  0  0  0  0  0  0  0  0  0  0
   16.7313  -15.0900   19.4394 C   0  0  0  0  0  0  0  0  0  0  0  0
   15.4586  -11.5783   15.8376 C   0  0  0  0  0  0  0  0  0  0  0  0
   16.2867  -12.6726   15.5530 C   0  0  0  0  0  0  0  0  0  0  0  0
   16.3008  -13.7736   16.4179 C   0  0  0  0  0  0  0  0  0  0  0  0
   15.5014  -13.8092   17.5616 C   0  0  0  0  0  0  0  0  0  0  0  0
   14.6805  -12.7084   17.8433 C   0  0  0  0  0  0  0  0  0  0  0  0
   14.6652  -11.6023   16.9821 C   0  0  0  0  0  0  0  0  0  0  0  0
   16.2257  -10.3774   13.8187 N   0  0  0  0  0  0  0  0  0  0  0  0
   15.4380  -10.3971   14.9005 C   0  0  0  0  0  0  0  0  0  0  0  0
   14.6532   -9.3645   15.1422 N   0  0  0  0  0  0  0  0  0  0  0  0
   16.2077   -9.6034   13.2106 H   0  0  0  0  0  0  0  0  0  0  0  0
   16.8232  -11.1371   13.6310 H   0  0  0  0  0  0  0  0  0  0  0  0
   14.6455   -8.5971   14.5255 H   0  0  0  0  0  0  0  0  0  0  0  0
   17.9711  -16.4819   22.3789 C   0  0  0  0  0  0  0  0  0  0  0  0
   17.7921  -16.9934   23.8094 C   0  0  0  0  0  0  0  0  0  0  0  0
   18.3113  -17.6704   21.4790 C   0  0  0  0  0  0  0  0  0  0  0  0
   17.6322  -13.2696   22.6354 C   0  0  0  0  0  0  0  0  0  0  0  0
   19.1322  -13.3666   22.8571 C   0  0  0  0  0  0  0  0  0  0  0  0
   20.0158  -13.0335   21.8290 C   0  0  0  0  0  0  0  0  0  0  0  0
   21.4019  -13.0865   22.0206 C   0  0  0  0  0  0  0  0  0  0  0  0
   21.9088  -13.4768   23.2608 C   0  0  0  0  0  0  0  0  0  0  0  0
   21.0284  -13.8214   24.2902 C   0  0  0  0  0  0  0  0  0  0  0  0
   19.6481  -13.7651   24.0978 C   0  0  0  0  0  0  0  0  0  0  0  0
   23.2663  -13.5335   23.4604 O   0  0  0  0  0  0  0  0  0  0  0  0
   23.8125  -14.0989   24.6586 C   0  0  0  0  0  0  0  0  0  0  0  0
 19 20  1  0  0  0
 20 21  2  0  0  0
 20 13  1  0  0  0
 13 14  2  0  0  0
 13 18  1  0  0  0
 14 15  1  0  0  0
 15 16  2  0  0  0
 16 17  1  0  0  0
 16  1  1  0  0  0
 17 18  2  0  0  0
  1  2  1  0  0  0
  1 12  1  0  0  0
  2  3  1  0  0  0
  2  6  1  0  0  0
  3  4  1  0  0  0
  4  5  1  0  0  0
  5  6  1  0  0  0
  6  7  1  0  0  0
  7  8  1  0  0  0
  7 12  1  0  0  0
  8  9  1  0  0  0
  8 25  1  0  0  0
  9 10  1  0  0  0
  9 28  1  0  0  0
 10 11  2  0  0  0
 10 12  1  0  0  0
 28 29  1  0  0  0
 29 30  2  0  0  0
 29 34  1  0  0  0
 30 31  1  0  0  0
 31 32  2  0  0  0
 32 35  1  0  0  0
 32 33  1  0  0  0
 35 36  1  0  0  0
 33 34  2  0  0  0
 25 26  1  0  0  0
 25 27  1  0  0  0
 19 22  1  0  0  0
 19 23  1  0  0  0
 21 24  1  0  0  0
M  END
> <minimizedAffinity>
-8.57672

$$$$
2CF9_348_H_1247


 36 40  0  0  0  0  0  0  0  0999 V2000
   16.1885  -14.8368   20.3542 C   0  0  0  0  0  0  0  0  0  0  0  0
   15.6999  -16.1917   20.7588 N   0  0  0  0  0  0  0  0  0  0  0  0
   14.8153  -16.7833   19.7295 C   0  0  0  0  0  0  0  0  0  0  0  0
   15.4601  -18.1040   19.2852 C   0  0  0  0  0  0  0  0  0  0  0  0
   16.9217  -18.0132   19.7150 C   0  0  0  0  0  0  0  0  0  0  0  0
   16.8973  -17.0521   20.8994 C   0  0  0  0  0  0  0  0  0  0  0  0
   18.1042  -16.1255   21.0388 C   0  0  0  0  0  0  0  0  0  0  0  0
   18.8476  -16.3666   22.3651 C   0  0  0  0  0  0  0  0  0  0  0  0
   18.3442  -15.2411   23.1897 N   0  0  0  0  0  0  0  0  0  0  0  0
   17.6024  -14.3566   22.5118 C   0  0  0  0  0  0  0  0  0  0  0  0
   17.0573  -13.3946   23.0383 O   0  0  0  0  0  0  0  0  0  0  0  0
   17.5591  -14.6989   21.0478 C   0  0  0  0  0  0  0  0  0  0  0  0
   13.4085  -11.5805   20.9157 C   0  0  0  0  0  0  0  0  0  0  0  0
   13.2547  -12.7633   21.6515 C   0  0  0  0  0  0  0  0  0  0  0  0
   14.1591  -13.8161   21.4669 C   0  0  0  0  0  0  0  0  0  0  0  0
   15.2194  -13.7131   20.5650 C   0  0  0  0  0  0  0  0  0  0  0  0
   15.3632  -12.5295   19.8278 C   0  0  0  0  0  0  0  0  0  0  0  0
   14.4584  -11.4737   20.0068 C   0  0  0  0  0  0  0  0  0  0  0  0
   12.4329   -9.3990   20.2862 N   0  0  0  0  0  0  0  0  0  0  0  0
   12.4388  -10.4442   21.1221 C   0  0  0  0  0  0  0  0  0  0  0  0
   11.5941  -10.4608   22.1354 N   0  0  0  0  0  0  0  0  0  0  0  0
   11.7974   -8.6603   20.4263 H   0  0  0  0  0  0  0  0  0  0  0  0
   13.0641   -9.3690   19.5313 H   0  0  0  0  0  0  0  0  0  0  0  0
   10.9641   -9.7152   22.2633 H   0  0  0  0  0  0  0  0  0  0  0  0
   20.3909  -16.3813   22.1727 C   0  0  0  0  0  0  0  0  0  0  0  0
   20.9722  -17.7604   21.8561 C   0  0  0  0  0  0  0  0  0  0  0  0
   20.9373  -15.3804   21.1541 C   0  0  0  0  0  0  0  0  0  0  0  0
   18.6417  -15.2172   24.6394 C   0  0  0  0  0  0  0  0  0  0  0  0
   20.0237  -14.6291   24.8691 C   0  0  0  0  0  0  0  0  0  0  0  0
   20.9476  -15.3020   25.6705 C   0  0  0  0  0  0  0  0  0  0  0  0
   22.2369  -14.7938   25.8713 C   0  0  0  0  0  0  0  0  0  0  0  0
   22.6053  -13.5955   25.2584 C   0  0  0  0  0  0  0  0  0  0  0  0
   21.6806  -12.9125   24.4635 C   0  0  0  0  0  0  0  0  0  0  0  0
   20.3978  -13.4222   24.2627 C   0  0  0  0  0  0  0  0  0  0  0  0
   23.8666  -13.0868   25.4487 O   0  0  0  0  0  0  0  0  0  0  0  0
   24.8145  -13.0446   24.3747 C   0  0  0  0  0  0  0  0  0  0  0  0
 19 20  1  0  0  0
 20 21  2  0  0  0
 20 13  1  0  0  0
 13 14  2  0  0  0
 13 18  1  0  0  0
 14 15  1  0  0  0
 15 16  2  0  0  0
 16 17  1  0  0  0
 16  1  1  0  0  0
 17 18  2  0  0  0
  1  2  1  0  0  0
  1 12  1  0  0  0
  2  3  1  0  0  0
  2  6  1  0  0  0
  3  4  1  0  0  0
  4  5  1  0  0  0
  5  6  1  0  0  0
  6  7  1  0  0  0
  7  8  1  0  0  0
  7 12  1  0  0  0
  8  9  1  0  0  0
  8 25  1  0  0  0
  9 10  1  0  0  0
  9 28  1  0  0  0
 10 11  2  0  0  0
 10 12  1  0  0  0
 28 29  1  0  0  0
 29 30  2  0  0  0
 29 34  1  0  0  0
 30 31  1  0  0  0
 31 32  2  0  0  0
 32 35  1  0  0  0
 32 33  1  0  0  0
 35 36  1  0  0  0
 33 34  2  0  0  0
 25 26  1  0  0  0
 25 27  1  0  0  0
 19 22  1  0  0  0
 19 23  1  0  0  0
 21 24  1  0  0  0
M  END
> <minimizedAffinity>
-8.44179

$$$$
2CF9_348_H_1247


 36 40  0  0  0  0  0  0  0  0999 V2000
   17.5594  -14.9375   22.1253 C   0  0  0  0  0  0  0  0  0  0  0  0
   17.6490  -15.6146   20.7943 N   0  0  0  0  0  0  0  0  0  0  0  0
   18.0167  -17.0422   20.9311 C   0  0  0  0  0  0  0  0  0  0  0  0
   16.8831  -17.8628   20.2996 C   0  0  0  0  0  0  0  0  0  0  0  0
   15.6804  -16.9251   20.2400 C   0  0  0  0  0  0  0  0  0  0  0  0
   16.3022  -15.5333   20.1832 C   0  0  0  0  0  0  0  0  0  0  0  0
   15.5423  -14.4267   20.9130 C   0  0  0  0  0  0  0  0  0  0  0  0
   15.0958  -13.3177   19.9432 C   0  0  0  0  0  0  0  0  0  0  0  0
   16.1249  -12.2795   20.1946 N   0  0  0  0  0  0  0  0  0  0  0  0
   16.9372  -12.5535   21.2228 C   0  0  0  0  0  0  0  0  0  0  0  0
   17.8797  -11.8397   21.5422 O   0  0  0  0  0  0  0  0  0  0  0  0
   16.5176  -13.8191   21.9189 C   0  0  0  0  0  0  0  0  0  0  0  0
   21.3136  -13.7636   23.9073 C   0  0  0  0  0  0  0  0  0  0  0  0
   21.2570  -14.0752   22.5421 C   0  0  0  0  0  0  0  0  0  0  0  0
   20.0374  -14.4543   21.9684 C   0  0  0  0  0  0  0  0  0  0  0  0
   18.8684  -14.5255   22.7278 C   0  0  0  0  0  0  0  0  0  0  0  0
   18.9338  -14.2187   24.0941 C   0  0  0  0  0  0  0  0  0  0  0  0
   20.1532  -13.8416   24.6738 C   0  0  0  0  0  0  0  0  0  0  0  0
   23.7482  -13.3559   23.7923 N   0  0  0  0  0  0  0  0  0  0  0  0
   22.6261  -13.3469   24.5218 C   0  0  0  0  0  0  0  0  0  0  0  0
   22.6862  -12.9810   25.7879 N   0  0  0  0  0  0  0  0  0  0  0  0
   24.6020  -13.0828   24.1992 H   0  0  0  0  0  0  0  0  0  0  0  0
   23.7197  -13.6357   22.8489 H   0  0  0  0  0  0  0  0  0  0  0  0
   23.5470  -12.7103   26.1817 H   0  0  0  0  0  0  0  0  0  0  0  0
   13.6367  -12.8555   20.2199 C   0  0  0  0  0  0  0  0  0  0  0  0
   12.5911  -13.9650   20.0951 C   0  0  0  0  0  0  0  0  0  0  0  0
   13.4162  -12.1298   21.5476 C   0  0  0  0  0  0  0  0  0  0  0  0
   16.2029  -11.1061   19.2958 C   0  0  0  0  0  0  0  0  0  0  0  0
   16.7895  -11.5238   17.9579 C   0  0  0  0  0  0  0  0  0  0  0  0
   15.9886  -11.5366   16.8147 C   0  0  0  0  0  0  0  0  0  0  0  0
   16.5155  -11.8889   15.5660 C   0  0  0  0  0  0  0  0  0  0  0  0
   17.8644  -12.2309   15.4621 C   0  0  0  0  0  0  0  0  0  0  0  0
   18.6681  -12.2298   16.6056 C   0  0  0  0  0  0  0  0  0  0  0  0
   18.1417  -11.8758   17.8478 C   0  0  0  0  0  0  0  0  0  0  0  0
   18.3922  -12.5791   14.2431 O   0  0  0  0  0  0  0  0  0  0  0  0
   17.5413  -12.9146   13.1398 C   0  0  0  0  0  0  0  0  0  0  0  0
 19 20  1  0  0  0
 20 21  2  0  0  0
 20 13  1  0  0  0
 13 14  2  0  0  0
 13 18  1  0  0  0
 14 15  1  0  0  0
 15 16  2  0  0  0
 16 17  1  0  0  0
 16  1  1  0  0  0
 17 18  2  0  0  0
  1  2  1  0  0  0
  1 12  1  0  0  0
  2  3  1  0  0  0
  2  6  1  0  0  0
  3  4  1  0  0  0
  4  5  1  0  0  0
  5  6  1  0  0  0
  6  7  1  0  0  0
  7  8  1  0  0  0
  7 12  1  0  0  0
  8  9  1  0  0  0
  8 25  1  0  0  0
  9 10  1  0  0  0
  9 28  1  0  0  0
 10 11  2  0  0  0
 10 12  1  0  0  0
 28 29  1  0  0  0
 29 30  2  0  0  0
 29 34  1  0  0  0
 30 31  1  0  0  0
 31 32  2  0  0  0
 32 35  1  0  0  0
 32 33  1  0  0  0
 35 36  1  0  0  0
 33 34  2  0  0  0
 25 26  1  0  0  0
 25 27  1  0  0  0
 19 22  1  0  0  0
 19 23  1  0  0  0
 21 24  1  0  0  0
M  END
> <minimizedAffinity>
-8.44174

$$$$
