4Z07_PCG_A_401


 28 31  0  0  0  0  0  0  0  0999 V2000
   26.1331  -21.8821  -27.4639 P   0  0  0  0  0  0  0  0  0  0  0  0
   25.3017  -23.1124  -26.7592 O   0  0  0  0  0  0  0  0  0  0  0  0
   26.3911  -21.9512  -28.8966 O   0  0  0  0  0  0  0  0  0  0  0  0
   25.3065  -20.6263  -27.1873 O   0  0  0  0  0  0  0  0  0  0  0  0
   25.1113  -20.5181  -25.6695 C   0  0  0  0  0  0  0  0  0  0  0  0
   26.4281  -20.1747  -25.0772 C   0  0  0  0  0  0  0  0  0  0  0  0
   26.6309  -19.8096  -23.6961 O   0  0  0  0  0  0  0  0  0  0  0  0
   27.3607  -21.3501  -25.2290 C   0  0  0  0  0  0  0  0  0  0  0  0
   27.5420  -21.7852  -26.6186 O   0  0  0  0  0  0  0  0  0  0  0  0
   28.6142  -20.9835  -24.4639 C   0  0  0  0  0  0  0  0  0  0  0  0
   29.6753  -20.5926  -25.2624 O   0  0  0  0  0  0  0  0  0  0  0  0
   28.0565  -20.0082  -23.4052 C   0  0  0  0  0  0  0  0  0  0  0  0
   24.4510  -23.2281  -27.2108 H   0  0  0  0  0  0  0  0  0  0  0  0
   29.4100  -19.8324  -25.8034 H   0  0  0  0  0  0  0  0  0  0  0  0
   28.1984  -20.5278  -22.0179 N   0  0  0  0  0  0  0  0  0  0  0  0
   28.7884  -19.8291  -20.8692 C   0  0  0  0  0  0  0  0  0  0  0  0
   28.8410  -20.7754  -19.7649 N   0  0  0  0  0  0  0  0  0  0  0  0
   28.0331  -21.9394  -20.1696 C   0  0  0  0  0  0  0  0  0  0  0  0
   27.5960  -23.1551  -19.4057 C   0  0  0  0  0  0  0  0  0  0  0  0
   27.9929  -23.2901  -18.0778 O   0  0  0  0  0  0  0  0  0  0  0  0
   26.8116  -24.1182  -20.0065 N   0  0  0  0  0  0  0  0  0  0  0  0
   26.4201  -23.9714  -21.3602 C   0  0  0  0  0  0  0  0  0  0  0  0
   25.6303  -25.0138  -21.9961 N   0  0  0  0  0  0  0  0  0  0  0  0
   26.8514  -22.7559  -22.1392 N   0  0  0  0  0  0  0  0  0  0  0  0
   27.6341  -21.7982  -21.5255 C   0  0  0  0  0  0  0  0  0  0  0  0
   26.5237  -24.9080  -19.4941 H   0  0  0  0  0  0  0  0  0  0  0  0
   25.3525  -25.8048  -21.4801 H   0  0  0  0  0  0  0  0  0  0  0  0
   25.3734  -24.9284  -22.9426 H   0  0  0  0  0  0  0  0  0  0  0  0
  1  2  1  0  0  0
  1  3  2  0  0  0
  1  4  1  0  0  0
  1  9  1  0  0  0
  4  5  1  0  0  0
  5  6  1  0  0  0
  6  7  1  0  0  0
  6  8  1  0  0  0
  7 12  1  0  0  0
  8  9  1  0  0  0
  8 10  1  0  0  0
 10 11  1  0  0  0
 10 12  1  0  0  0
 12 15  1  0  0  0
 15 16  1  0  0  0
 15 25  1  0  0  0
 16 17  2  0  0  0
 17 18  1  0  0  0
 18 19  1  0  0  0
 18 25  2  0  0  0
 19 20  2  0  0  0
 19 21  1  0  0  0
 21 22  1  0  0  0
 22 23  1  0  0  0
 22 24  2  0  0  0
 24 25  1  0  0  0
  2 13  1  0  0  0
 11 14  1  0  0  0
 21 26  1  0  0  0
 23 27  1  0  0  0
 23 28  1  0  0  0
M  END
> <minimizedAffinity>
-10.26216

$$$$
4Z07_PCG_A_401


 28 31  0  0  0  0  0  0  0  0999 V2000
   26.1291  -21.9091  -27.4758 P   0  0  0  0  0  0  0  0  0  0  0  0
   25.2961  -23.2024  -26.8972 O   0  0  0  0  0  0  0  0  0  0  0  0
   26.4470  -21.8692  -28.8976 O   0  0  0  0  0  0  0  0  0  0  0  0
   25.2652  -20.6921  -27.1451 O   0  0  0  0  0  0  0  0  0  0  0  0
   25.0058  -20.6981  -25.6331 C   0  0  0  0  0  0  0  0  0  0  0  0
   26.2895  -20.3744  -24.9624 C   0  0  0  0  0  0  0  0  0  0  0  0
   26.4277  -20.1069  -23.5513 O   0  0  0  0  0  0  0  0  0  0  0  0
   27.2525  -21.5183  -25.1585 C   0  0  0  0  0  0  0  0  0  0  0  0
   27.4999  -21.8479  -26.5669 O   0  0  0  0  0  0  0  0  0  0  0  0
   28.4655  -21.1852  -24.3166 C   0  0  0  0  0  0  0  0  0  0  0  0
   29.5498  -20.7178  -25.0393 O   0  0  0  0  0  0  0  0  0  0  0  0
   27.8441  -20.2998  -23.2152 C   0  0  0  0  0  0  0  0  0  0  0  0
   24.4673  -23.3007  -27.3916 H   0  0  0  0  0  0  0  0  0  0  0  0
   29.2906  -19.9254  -25.5351 H   0  0  0  0  0  0  0  0  0  0  0  0
   27.9402  -20.9160  -21.8641 N   0  0  0  0  0  0  0  0  0  0  0  0
   26.9336  -21.7558  -21.2028 C   0  0  0  0  0  0  0  0  0  0  0  0
   27.3992  -22.0066  -19.8470 N   0  0  0  0  0  0  0  0  0  0  0  0
   28.8006  -21.5545  -19.7933 C   0  0  0  0  0  0  0  0  0  0  0  0
   29.8436  -21.6878  -18.7223 C   0  0  0  0  0  0  0  0  0  0  0  0
   29.5039  -22.3267  -17.5325 O   0  0  0  0  0  0  0  0  0  0  0  0
   31.1163  -21.1909  -18.9150 N   0  0  0  0  0  0  0  0  0  0  0  0
   31.4467  -20.5373  -20.1278 C   0  0  0  0  0  0  0  0  0  0  0  0
   32.7779  -19.9788  -20.3027 N   0  0  0  0  0  0  0  0  0  0  0  0
   30.4097  -20.3966  -21.2119 N   0  0  0  0  0  0  0  0  0  0  0  0
   29.1406  -20.9006  -21.0075 C   0  0  0  0  0  0  0  0  0  0  0  0
   31.7954  -21.2905  -18.2091 H   0  0  0  0  0  0  0  0  0  0  0  0
   33.4497  -20.0751  -19.5896 H   0  0  0  0  0  0  0  0  0  0  0  0
   33.0073  -19.5043  -21.1343 H   0  0  0  0  0  0  0  0  0  0  0  0
  1  2  1  0  0  0
  1  3  2  0  0  0
  1  4  1  0  0  0
  1  9  1  0  0  0
  4  5  1  0  0  0
  5  6  1  0  0  0
  6  7  1  0  0  0
  6  8  1  0  0  0
  7 12  1  0  0  0
  8  9  1  0  0  0
  8 10  1  0  0  0
 10 11  1  0  0  0
 10 12  1  0  0  0
 12 15  1  0  0  0
 15 16  1  0  0  0
 15 25  1  0  0  0
 16 17  2  0  0  0
 17 18  1  0  0  0
 18 19  1  0  0  0
 18 25  2  0  0  0
 19 20  2  0  0  0
 19 21  1  0  0  0
 21 22  1  0  0  0
 22 23  1  0  0  0
 22 24  2  0  0  0
 24 25  1  0  0  0
  2 13  1  0  0  0
 11 14  1  0  0  0
 21 26  1  0  0  0
 23 27  1  0  0  0
 23 28  1  0  0  0
M  END
> <minimizedAffinity>
-9.30809

$$$$
4Z07_PCG_A_401


 28 31  0  0  0  0  0  0  0  0999 V2000
   27.3740  -21.4804  -25.6128 P   0  0  0  0  0  0  0  0  0  0  0  0
   26.2538  -22.2487  -24.6875 O   0  0  0  0  0  0  0  0  0  0  0  0
   27.3834  -21.7388  -27.0471 O   0  0  0  0  0  0  0  0  0  0  0  0
   27.1202  -19.9884  -25.3977 O   0  0  0  0  0  0  0  0  0  0  0  0
   27.1950  -19.7124  -23.8905 C   0  0  0  0  0  0  0  0  0  0  0  0
   28.6145  -19.8602  -23.4834 C   0  0  0  0  0  0  0  0  0  0  0  0
   29.1307  -19.5089  -22.1826 O   0  0  0  0  0  0  0  0  0  0  0  0
   29.0131  -21.3103  -23.5955 C   0  0  0  0  0  0  0  0  0  0  0  0
   28.8223  -21.8737  -24.9370 O   0  0  0  0  0  0  0  0  0  0  0  0
   30.4075  -21.4010  -23.0137 C   0  0  0  0  0  0  0  0  0  0  0  0
   31.4140  -21.5003  -23.9590 O   0  0  0  0  0  0  0  0  0  0  0  0
   30.4066  -20.2179  -22.0220 C   0  0  0  0  0  0  0  0  0  0  0  0
   25.3664  -22.0600  -25.0309 H   0  0  0  0  0  0  0  0  0  0  0  0
   31.3762  -20.7345  -24.5532 H   0  0  0  0  0  0  0  0  0  0  0  0
   30.5395  -20.6580  -20.6066 N   0  0  0  0  0  0  0  0  0  0  0  0
   31.4519  -20.1122  -19.5940 C   0  0  0  0  0  0  0  0  0  0  0  0
   31.3322  -20.9452  -18.4067 N   0  0  0  0  0  0  0  0  0  0  0  0
   30.1554  -21.8072  -18.6146 C   0  0  0  0  0  0  0  0  0  0  0  0
   29.4492  -22.7580  -17.6928 C   0  0  0  0  0  0  0  0  0  0  0  0
   29.9370  -22.9229  -16.3989 O   0  0  0  0  0  0  0  0  0  0  0  0
   28.3349  -23.4519  -18.1178 N   0  0  0  0  0  0  0  0  0  0  0  0
   27.8530  -23.2796  -19.4389 C   0  0  0  0  0  0  0  0  0  0  0  0
   26.7043  -24.0488  -19.8901 N   0  0  0  0  0  0  0  0  0  0  0  0
   28.5518  -22.3281  -20.3752 N   0  0  0  0  0  0  0  0  0  0  0  0
   29.6643  -21.6378  -19.9367 C   0  0  0  0  0  0  0  0  0  0  0  0
   27.8744  -24.0673  -17.5026 H   0  0  0  0  0  0  0  0  0  0  0  0
   26.2533  -24.6684  -19.2720 H   0  0  0  0  0  0  0  0  0  0  0  0
   26.3777  -23.9501  -20.8135 H   0  0  0  0  0  0  0  0  0  0  0  0
  1  2  1  0  0  0
  1  3  2  0  0  0
  1  4  1  0  0  0
  1  9  1  0  0  0
  4  5  1  0  0  0
  5  6  1  0  0  0
  6  7  1  0  0  0
  6  8  1  0  0  0
  7 12  1  0  0  0
  8  9  1  0  0  0
  8 10  1  0  0  0
 10 11  1  0  0  0
 10 12  1  0  0  0
 12 15  1  0  0  0
 15 16  1  0  0  0
 15 25  1  0  0  0
 16 17  2  0  0  0
 17 18  1  0  0  0
 18 19  1  0  0  0
 18 25  2  0  0  0
 19 20  2  0  0  0
 19 21  1  0  0  0
 21 22  1  0  0  0
 22 23  1  0  0  0
 22 24  2  0  0  0
 24 25  1  0  0  0
  2 13  1  0  0  0
 11 14  1  0  0  0
 21 26  1  0  0  0
 23 27  1  0  0  0
 23 28  1  0  0  0
M  END
> <minimizedAffinity>
-8.18730

$$$$
4Z07_PCG_A_401


 28 31  0  0  0  0  0  0  0  0999 V2000
   27.1067  -19.7680  -24.6889 P   0  0  0  0  0  0  0  0  0  0  0  0
   27.5109  -18.4810  -23.7500 O   0  0  0  0  0  0  0  0  0  0  0  0
   26.2197  -19.5465  -25.8239 O   0  0  0  0  0  0  0  0  0  0  0  0
   28.4330  -20.3133  -25.2183 O   0  0  0  0  0  0  0  0  0  0  0  0
   29.3287  -20.6213  -24.0116 C   0  0  0  0  0  0  0  0  0  0  0  0
   28.7490  -21.7990  -23.3191 C   0  0  0  0  0  0  0  0  0  0  0  0
   29.3934  -22.5109  -22.2421 O   0  0  0  0  0  0  0  0  0  0  0  0
   27.4352  -21.4066  -22.6910 C   0  0  0  0  0  0  0  0  0  0  0  0
   26.4614  -20.8659  -23.6463 O   0  0  0  0  0  0  0  0  0  0  0  0
   26.9937  -22.6036  -21.8764 C   0  0  0  0  0  0  0  0  0  0  0  0
   25.9918  -23.3555  -22.4655 O   0  0  0  0  0  0  0  0  0  0  0  0
   28.3473  -23.2658  -21.5409 C   0  0  0  0  0  0  0  0  0  0  0  0
   27.9016  -17.7869  -24.3036 H   0  0  0  0  0  0  0  0  0  0  0  0
   26.2893  -23.6661  -23.3350 H   0  0  0  0  0  0  0  0  0  0  0  0
   28.6417  -23.2579  -20.0821 N   0  0  0  0  0  0  0  0  0  0  0  0
   27.8205  -22.6662  -19.0186 C   0  0  0  0  0  0  0  0  0  0  0  0
   28.5725  -22.7745  -17.7774 N   0  0  0  0  0  0  0  0  0  0  0  0
   29.7079  -23.6730  -18.0506 C   0  0  0  0  0  0  0  0  0  0  0  0
   30.7356  -24.2757  -17.1378 C   0  0  0  0  0  0  0  0  0  0  0  0
   30.6857  -23.9716  -15.7798 O   0  0  0  0  0  0  0  0  0  0  0  0
   31.7084  -25.1189  -17.6342 N   0  0  0  0  0  0  0  0  0  0  0  0
   31.7515  -25.4149  -19.0191 C   0  0  0  0  0  0  0  0  0  0  0  0
   32.8074  -26.2697  -19.5379 N   0  0  0  0  0  0  0  0  0  0  0  0
   30.7260  -24.8171  -19.9471 N   0  0  0  0  0  0  0  0  0  0  0  0
   29.7562  -23.9769  -19.4373 C   0  0  0  0  0  0  0  0  0  0  0  0
   32.3730  -25.5153  -17.0256 H   0  0  0  0  0  0  0  0  0  0  0  0
   33.4736  -26.6563  -18.9248 H   0  0  0  0  0  0  0  0  0  0  0  0
   32.8561  -26.4617  -20.5022 H   0  0  0  0  0  0  0  0  0  0  0  0
  1  2  1  0  0  0
  1  3  2  0  0  0
  1  4  1  0  0  0
  1  9  1  0  0  0
  4  5  1  0  0  0
  5  6  1  0  0  0
  6  7  1  0  0  0
  6  8  1  0  0  0
  7 12  1  0  0  0
  8  9  1  0  0  0
  8 10  1  0  0  0
 10 11  1  0  0  0
 10 12  1  0  0  0
 12 15  1  0  0  0
 15 16  1  0  0  0
 15 25  1  0  0  0
 16 17  2  0  0  0
 17 18  1  0  0  0
 18 19  1  0  0  0
 18 25  2  0  0  0
 19 20  2  0  0  0
 19 21  1  0  0  0
 21 22  1  0  0  0
 22 23  1  0  0  0
 22 24  2  0  0  0
 24 25  1  0  0  0
  2 13  1  0  0  0
 11 14  1  0  0  0
 21 26  1  0  0  0
 23 27  1  0  0  0
 23 28  1  0  0  0
M  END
> <minimizedAffinity>
-7.69943

$$$$
4Z07_PCG_A_401


 28 31  0  0  0  0  0  0  0  0999 V2000
   32.4602  -26.4594  -16.2294 P   0  0  0  0  0  0  0  0  0  0  0  0
   31.7627  -27.7399  -16.9879 O   0  0  0  0  0  0  0  0  0  0  0  0
   33.0462  -26.6696  -14.9116 O   0  0  0  0  0  0  0  0  0  0  0  0
   33.5647  -25.9844  -17.1733 O   0  0  0  0  0  0  0  0  0  0  0  0
   32.9227  -25.6865  -18.5344 C   0  0  0  0  0  0  0  0  0  0  0  0
   32.0896  -24.4688  -18.3738 C   0  0  0  0  0  0  0  0  0  0  0  0
   31.4629  -23.7598  -19.4631 O   0  0  0  0  0  0  0  0  0  0  0  0
   30.9097  -24.7893  -17.4909 C   0  0  0  0  0  0  0  0  0  0  0  0
   31.2834  -25.3103  -16.1709 O   0  0  0  0  0  0  0  0  0  0  0  0
   30.0332  -23.5554  -17.5098 C   0  0  0  0  0  0  0  0  0  0  0  0
   30.1225  -22.7754  -16.3697 O   0  0  0  0  0  0  0  0  0  0  0  0
   30.3890  -22.9441  -18.8821 C   0  0  0  0  0  0  0  0  0  0  0  0
   32.4052  -28.4631  -17.0585 H   0  0  0  0  0  0  0  0  0  0  0  0
   31.0429  -22.4987  -16.2385 H   0  0  0  0  0  0  0  0  0  0  0  0
   29.2328  -22.9299  -19.8189 N   0  0  0  0  0  0  0  0  0  0  0  0
   27.8481  -23.3146  -19.5187 C   0  0  0  0  0  0  0  0  0  0  0  0
   27.1053  -23.2770  -20.7696 N   0  0  0  0  0  0  0  0  0  0  0  0
   27.9727  -22.6058  -21.7536 C   0  0  0  0  0  0  0  0  0  0  0  0
   27.7067  -22.1468  -23.1576 C   0  0  0  0  0  0  0  0  0  0  0  0
   26.4466  -22.3687  -23.7073 O   0  0  0  0  0  0  0  0  0  0  0  0
   28.6906  -21.5126  -23.8880 N   0  0  0  0  0  0  0  0  0  0  0  0
   29.9703  -21.2989  -23.3189 C   0  0  0  0  0  0  0  0  0  0  0  0
   31.0131  -20.6691  -24.1130 N   0  0  0  0  0  0  0  0  0  0  0  0
   30.2514  -21.7542  -21.9103 N   0  0  0  0  0  0  0  0  0  0  0  0
   29.2573  -22.3852  -21.1891 C   0  0  0  0  0  0  0  0  0  0  0  0
   28.5033  -21.2084  -24.8054 H   0  0  0  0  0  0  0  0  0  0  0  0
   30.8213  -20.3744  -25.0326 H   0  0  0  0  0  0  0  0  0  0  0  0
   31.9109  -20.5374  -23.7311 H   0  0  0  0  0  0  0  0  0  0  0  0
  1  2  1  0  0  0
  1  3  2  0  0  0
  1  4  1  0  0  0
  1  9  1  0  0  0
  4  5  1  0  0  0
  5  6  1  0  0  0
  6  7  1  0  0  0
  6  8  1  0  0  0
  7 12  1  0  0  0
  8  9  1  0  0  0
  8 10  1  0  0  0
 10 11  1  0  0  0
 10 12  1  0  0  0
 12 15  1  0  0  0
 15 16  1  0  0  0
 15 25  1  0  0  0
 16 17  2  0  0  0
 17 18  1  0  0  0
 18 19  1  0  0  0
 18 25  2  0  0  0
 19 20  2  0  0  0
 19 21  1  0  0  0
 21 22  1  0  0  0
 22 23  1  0  0  0
 22 24  2  0  0  0
 24 25  1  0  0  0
  2 13  1  0  0  0
 11 14  1  0  0  0
 21 26  1  0  0  0
 23 27  1  0  0  0
 23 28  1  0  0  0
M  END
> <minimizedAffinity>
-7.55425

$$$$
4Z07_PCG_A_401


 28 31  0  0  0  0  0  0  0  0999 V2000
   27.7683  -21.2164  -24.4420 P   0  0  0  0  0  0  0  0  0  0  0  0
   26.6147  -22.2815  -23.9560 O   0  0  0  0  0  0  0  0  0  0  0  0
   27.6940  -20.6847  -25.7969 O   0  0  0  0  0  0  0  0  0  0  0  0
   27.6743  -20.0458  -23.4634 O   0  0  0  0  0  0  0  0  0  0  0  0
   27.8369  -20.6061  -22.0447 C   0  0  0  0  0  0  0  0  0  0  0  0
   29.2496  -21.0366  -21.8980 C   0  0  0  0  0  0  0  0  0  0  0  0
   29.8504  -21.4534  -20.6541 O   0  0  0  0  0  0  0  0  0  0  0  0
   29.4959  -22.2350  -22.7798 C   0  0  0  0  0  0  0  0  0  0  0  0
   29.1958  -21.9980  -24.1966 O   0  0  0  0  0  0  0  0  0  0  0  0
   30.8964  -22.7069  -22.4529 C   0  0  0  0  0  0  0  0  0  0  0  0
   31.8491  -22.3607  -23.3957 O   0  0  0  0  0  0  0  0  0  0  0  0
   31.0540  -22.2219  -20.9957 C   0  0  0  0  0  0  0  0  0  0  0  0
   25.7377  -21.8841  -24.0734 H   0  0  0  0  0  0  0  0  0  0  0  0
   31.8645  -21.3966  -23.5009 H   0  0  0  0  0  0  0  0  0  0  0  0
   31.1990  -23.3461  -20.0314 N   0  0  0  0  0  0  0  0  0  0  0  0
   31.5475  -24.7378  -20.3433 C   0  0  0  0  0  0  0  0  0  0  0  0
   31.4306  -25.5022  -19.1104 N   0  0  0  0  0  0  0  0  0  0  0  0
   31.2869  -24.5217  -18.0198 C   0  0  0  0  0  0  0  0  0  0  0  0
   31.2749  -24.6938  -16.5289 C   0  0  0  0  0  0  0  0  0  0  0  0
   31.4033  -25.9763  -16.0018 O   0  0  0  0  0  0  0  0  0  0  0  0
   31.1440  -23.6012  -15.6964 N   0  0  0  0  0  0  0  0  0  0  0  0
   31.0077  -22.3026  -16.2461 C   0  0  0  0  0  0  0  0  0  0  0  0
   30.8263  -21.1636  -15.3605 N   0  0  0  0  0  0  0  0  0  0  0  0
   31.0184  -22.1149  -17.7411 N   0  0  0  0  0  0  0  0  0  0  0  0
   31.1528  -23.2162  -18.5631 C   0  0  0  0  0  0  0  0  0  0  0  0
   31.1452  -23.7242  -14.7196 H   0  0  0  0  0  0  0  0  0  0  0  0
   30.8205  -21.2947  -14.3848 H   0  0  0  0  0  0  0  0  0  0  0  0
   30.7092  -20.2613  -15.7366 H   0  0  0  0  0  0  0  0  0  0  0  0
  1  2  1  0  0  0
  1  3  2  0  0  0
  1  4  1  0  0  0
  1  9  1  0  0  0
  4  5  1  0  0  0
  5  6  1  0  0  0
  6  7  1  0  0  0
  6  8  1  0  0  0
  7 12  1  0  0  0
  8  9  1  0  0  0
  8 10  1  0  0  0
 10 11  1  0  0  0
 10 12  1  0  0  0
 12 15  1  0  0  0
 15 16  1  0  0  0
 15 25  1  0  0  0
 16 17  2  0  0  0
 17 18  1  0  0  0
 18 19  1  0  0  0
 18 25  2  0  0  0
 19 20  2  0  0  0
 19 21  1  0  0  0
 21 22  1  0  0  0
 22 23  1  0  0  0
 22 24  2  0  0  0
 24 25  1  0  0  0
  2 13  1  0  0  0
 11 14  1  0  0  0
 21 26  1  0  0  0
 23 27  1  0  0  0
 23 28  1  0  0  0
M  END
> <minimizedAffinity>
-7.54084

$$$$
4Z07_PCG_A_401


 28 31  0  0  0  0  0  0  0  0999 V2000
   30.2060  -23.8762  -17.5819 P   0  0  0  0  0  0  0  0  0  0  0  0
   30.7134  -22.3697  -17.1641 O   0  0  0  0  0  0  0  0  0  0  0  0
   30.8991  -25.0241  -17.0109 O   0  0  0  0  0  0  0  0  0  0  0  0
   28.7402  -23.9413  -17.1531 O   0  0  0  0  0  0  0  0  0  0  0  0
   28.0024  -22.7768  -17.8262 C   0  0  0  0  0  0  0  0  0  0  0  0
   27.9280  -23.0795  -19.2772 C   0  0  0  0  0  0  0  0  0  0  0  0
   27.1564  -22.3193  -20.2305 O   0  0  0  0  0  0  0  0  0  0  0  0
   29.3131  -23.0076  -19.8694 C   0  0  0  0  0  0  0  0  0  0  0  0
   30.2785  -23.9060  -19.2259 O   0  0  0  0  0  0  0  0  0  0  0  0
   29.1314  -23.1654  -21.3638 C   0  0  0  0  0  0  0  0  0  0  0  0
   29.4595  -24.4199  -21.8485 O   0  0  0  0  0  0  0  0  0  0  0  0
   27.6998  -22.6221  -21.5606 C   0  0  0  0  0  0  0  0  0  0  0  0
   30.6965  -22.2790  -16.1985 H   0  0  0  0  0  0  0  0  0  0  0  0
   28.9219  -25.0908  -21.3992 H   0  0  0  0  0  0  0  0  0  0  0  0
   27.6660  -21.3861  -22.3888 N   0  0  0  0  0  0  0  0  0  0  0  0
   28.2743  -20.0895  -22.0655 C   0  0  0  0  0  0  0  0  0  0  0  0
   27.8611  -19.1468  -23.0942 N   0  0  0  0  0  0  0  0  0  0  0  0
   27.2435  -19.9422  -24.1700 C   0  0  0  0  0  0  0  0  0  0  0  0
   26.7675  -19.5546  -25.5396 C   0  0  0  0  0  0  0  0  0  0  0  0
   26.8815  -18.2247  -25.9367 O   0  0  0  0  0  0  0  0  0  0  0  0
   26.2316  -20.4991  -26.3908 N   0  0  0  0  0  0  0  0  0  0  0  0
   26.1156  -21.8475  -25.9716 C   0  0  0  0  0  0  0  0  0  0  0  0
   25.5090  -22.8258  -26.8603 N   0  0  0  0  0  0  0  0  0  0  0  0
   26.5896  -22.2509  -24.5994 N   0  0  0  0  0  0  0  0  0  0  0  0
   27.1264  -21.2966  -23.7583 C   0  0  0  0  0  0  0  0  0  0  0  0
   25.9296  -20.2358  -27.2901 H   0  0  0  0  0  0  0  0  0  0  0  0
   25.2019  -22.5540  -27.7553 H   0  0  0  0  0  0  0  0  0  0  0  0
   25.4054  -23.7598  -26.5669 H   0  0  0  0  0  0  0  0  0  0  0  0
  1  2  1  0  0  0
  1  3  2  0  0  0
  1  4  1  0  0  0
  1  9  1  0  0  0
  4  5  1  0  0  0
  5  6  1  0  0  0
  6  7  1  0  0  0
  6  8  1  0  0  0
  7 12  1  0  0  0
  8  9  1  0  0  0
  8 10  1  0  0  0
 10 11  1  0  0  0
 10 12  1  0  0  0
 12 15  1  0  0  0
 15 16  1  0  0  0
 15 25  1  0  0  0
 16 17  2  0  0  0
 17 18  1  0  0  0
 18 19  1  0  0  0
 18 25  2  0  0  0
 19 20  2  0  0  0
 19 21  1  0  0  0
 21 22  1  0  0  0
 22 23  1  0  0  0
 22 24  2  0  0  0
 24 25  1  0  0  0
  2 13  1  0  0  0
 11 14  1  0  0  0
 21 26  1  0  0  0
 23 27  1  0  0  0
 23 28  1  0  0  0
M  END
> <minimizedAffinity>
-7.46345

$$$$
4Z07_PCG_A_401


 28 31  0  0  0  0  0  0  0  0999 V2000
   27.7799  -20.2213  -24.3514 P   0  0  0  0  0  0  0  0  0  0  0  0
   26.9357  -21.5608  -23.9106 O   0  0  0  0  0  0  0  0  0  0  0  0
   27.3518  -19.4916  -25.5382 O   0  0  0  0  0  0  0  0  0  0  0  0
   27.6928  -19.2769  -23.1525 O   0  0  0  0  0  0  0  0  0  0  0  0
   28.2237  -20.0276  -21.9246 C   0  0  0  0  0  0  0  0  0  0  0  0
   29.6883  -20.1883  -22.1030 C   0  0  0  0  0  0  0  0  0  0  0  0
   30.5843  -20.6838  -21.0863 O   0  0  0  0  0  0  0  0  0  0  0  0
   29.9463  -21.1458  -23.2392 C   0  0  0  0  0  0  0  0  0  0  0  0
   29.3357  -20.7349  -24.5087 O   0  0  0  0  0  0  0  0  0  0  0  0
   31.4417  -21.3797  -23.2501 C   0  0  0  0  0  0  0  0  0  0  0  0
   32.1182  -20.6960  -24.2457 O   0  0  0  0  0  0  0  0  0  0  0  0
   31.8049  -21.1289  -21.7707 C   0  0  0  0  0  0  0  0  0  0  0  0
   26.0000  -21.3309  -23.7986 H   0  0  0  0  0  0  0  0  0  0  0  0
   31.9548  -19.7444  -24.1528 H   0  0  0  0  0  0  0  0  0  0  0  0
   32.3202  -22.3498  -21.0935 N   0  0  0  0  0  0  0  0  0  0  0  0
   33.6354  -22.9749  -21.2806 C   0  0  0  0  0  0  0  0  0  0  0  0
   33.6376  -24.2182  -20.5242 N   0  0  0  0  0  0  0  0  0  0  0  0
   32.4367  -24.1931  -19.6705 C   0  0  0  0  0  0  0  0  0  0  0  0
   31.9800  -25.1139  -18.5768 C   0  0  0  0  0  0  0  0  0  0  0  0
   32.7660  -26.2188  -18.2598 O   0  0  0  0  0  0  0  0  0  0  0  0
   30.8059  -24.8674  -17.8952 N   0  0  0  0  0  0  0  0  0  0  0  0
   30.0125  -23.7431  -18.2322 C   0  0  0  0  0  0  0  0  0  0  0  0
   28.7552  -23.5174  -17.5372 N   0  0  0  0  0  0  0  0  0  0  0  0
   30.4588  -22.8100  -19.3279 N   0  0  0  0  0  0  0  0  0  0  0  0
   31.6371  -23.0665  -20.0005 C   0  0  0  0  0  0  0  0  0  0  0  0
   30.5194  -25.4733  -17.1740 H   0  0  0  0  0  0  0  0  0  0  0  0
   28.4707  -24.1318  -16.8224 H   0  0  0  0  0  0  0  0  0  0  0  0
   28.1885  -22.7504  -17.7814 H   0  0  0  0  0  0  0  0  0  0  0  0
  1  2  1  0  0  0
  1  3  2  0  0  0
  1  4  1  0  0  0
  1  9  1  0  0  0
  4  5  1  0  0  0
  5  6  1  0  0  0
  6  7  1  0  0  0
  6  8  1  0  0  0
  7 12  1  0  0  0
  8  9  1  0  0  0
  8 10  1  0  0  0
 10 11  1  0  0  0
 10 12  1  0  0  0
 12 15  1  0  0  0
 15 16  1  0  0  0
 15 25  1  0  0  0
 16 17  2  0  0  0
 17 18  1  0  0  0
 18 19  1  0  0  0
 18 25  2  0  0  0
 19 20  2  0  0  0
 19 21  1  0  0  0
 21 22  1  0  0  0
 22 23  1  0  0  0
 22 24  2  0  0  0
 24 25  1  0  0  0
  2 13  1  0  0  0
 11 14  1  0  0  0
 21 26  1  0  0  0
 23 27  1  0  0  0
 23 28  1  0  0  0
M  END
> <minimizedAffinity>
-7.36316

$$$$
4Z07_PCG_A_401


 28 31  0  0  0  0  0  0  0  0999 V2000
   31.3940  -23.9506  -17.0705 P   0  0  0  0  0  0  0  0  0  0  0  0
   32.4832  -24.1108  -18.2909 O   0  0  0  0  0  0  0  0  0  0  0  0
   31.6225  -24.6907  -15.8359 O   0  0  0  0  0  0  0  0  0  0  0  0
   31.3782  -22.4587  -16.7373 O   0  0  0  0  0  0  0  0  0  0  0  0
   31.0546  -21.6935  -18.0269 C   0  0  0  0  0  0  0  0  0  0  0  0
   29.6337  -21.9652  -18.3581 C   0  0  0  0  0  0  0  0  0  0  0  0
   28.8949  -21.2898  -19.3974 O   0  0  0  0  0  0  0  0  0  0  0  0
   29.4872  -23.4111  -18.7610 C   0  0  0  0  0  0  0  0  0  0  0  0
   29.9466  -24.3589  -17.7392 O   0  0  0  0  0  0  0  0  0  0  0  0
   28.0578  -23.5645  -19.2347 C   0  0  0  0  0  0  0  0  0  0  0  0
   27.2189  -24.1836  -18.3241 O   0  0  0  0  0  0  0  0  0  0  0  0
   27.7366  -22.1337  -19.7174 C   0  0  0  0  0  0  0  0  0  0  0  0
   33.3685  -23.8839  -17.9659 H   0  0  0  0  0  0  0  0  0  0  0  0
   27.2172  -23.6825  -17.4935 H   0  0  0  0  0  0  0  0  0  0  0  0
   27.4813  -22.0680  -21.1820 N   0  0  0  0  0  0  0  0  0  0  0  0
   26.2044  -22.3040  -21.8674 C   0  0  0  0  0  0  0  0  0  0  0  0
   26.4667  -22.2722  -23.2985 N   0  0  0  0  0  0  0  0  0  0  0  0
   27.8323  -21.7440  -23.4641 C   0  0  0  0  0  0  0  0  0  0  0  0
   28.5981  -21.3467  -24.6923 C   0  0  0  0  0  0  0  0  0  0  0  0
   27.9866  -21.4830  -25.9359 O   0  0  0  0  0  0  0  0  0  0  0  0
   29.8818  -20.8512  -24.5904 N   0  0  0  0  0  0  0  0  0  0  0  0
   30.4943  -20.7236  -23.3193 C   0  0  0  0  0  0  0  0  0  0  0  0
   31.8632  -20.2417  -23.2272 N   0  0  0  0  0  0  0  0  0  0  0  0
   29.7373  -21.1184  -22.0778 N   0  0  0  0  0  0  0  0  0  0  0  0
   28.4524  -21.6104  -22.1932 C   0  0  0  0  0  0  0  0  0  0  0  0
   30.3724  -20.5860  -25.4017 H   0  0  0  0  0  0  0  0  0  0  0  0
   32.3509  -19.9857  -24.0433 H   0  0  0  0  0  0  0  0  0  0  0  0
   32.3023  -20.1713  -22.3489 H   0  0  0  0  0  0  0  0  0  0  0  0
  1  2  1  0  0  0
  1  3  2  0  0  0
  1  4  1  0  0  0
  1  9  1  0  0  0
  4  5  1  0  0  0
  5  6  1  0  0  0
  6  7  1  0  0  0
  6  8  1  0  0  0
  7 12  1  0  0  0
  8  9  1  0  0  0
  8 10  1  0  0  0
 10 11  1  0  0  0
 10 12  1  0  0  0
 12 15  1  0  0  0
 15 16  1  0  0  0
 15 25  1  0  0  0
 16 17  2  0  0  0
 17 18  1  0  0  0
 18 19  1  0  0  0
 18 25  2  0  0  0
 19 20  2  0  0  0
 19 21  1  0  0  0
 21 22  1  0  0  0
 22 23  1  0  0  0
 22 24  2  0  0  0
 24 25  1  0  0  0
  2 13  1  0  0  0
 11 14  1  0  0  0
 21 26  1  0  0  0
 23 27  1  0  0  0
 23 28  1  0  0  0
M  END
> <minimizedAffinity>
-7.35465

$$$$
