1Y3V_UIR_A_1994


 37 43  0  0  0  0  0  0  0  0999 V2000
   -1.0029    4.4707   21.7199 C   0  0  0  0  0  0  0  0  0  0  0  0
   -1.9146    3.2725   21.6652 N   0  0  0  0  0  0  0  0  0  0  0  0
   -2.0695    2.7652   20.2598 C   0  0  0  0  0  0  0  0  0  0  0  0
   -1.0522    1.6168   20.1228 C   0  0  0  0  0  0  0  0  0  0  0  0
   -0.3407    1.4285   21.4473 C   0  0  0  0  0  0  0  0  0  0  0  0
   -1.1397    2.2498   22.4732 C   0  0  0  0  0  0  0  0  0  0  0  0
   -0.1292    3.0251   23.3833 C   0  0  0  0  0  0  0  0  0  0  0  0
   -0.5218    2.7871   24.8915 C   0  0  0  0  0  0  0  0  0  0  0  0
   -1.6148    3.6905   25.1192 N   0  0  0  0  0  0  0  0  0  0  0  0
   -1.6780    4.7118   24.1944 C   0  0  0  0  0  0  0  0  0  0  0  0
   -2.6122    5.5873   24.1465 O   0  0  0  0  0  0  0  0  0  0  0  0
   -0.5303    4.5251   23.1799 C   0  0  0  0  0  0  0  0  0  0  0  0
   -3.0331    7.9629   20.0841 C   0  0  0  0  0  0  0  0  0  0  0  0
   -3.7761    6.9626   20.7425 C   0  0  0  0  0  0  0  0  0  0  0  0
   -3.1421    5.8052   21.2465 C   0  0  0  0  0  0  0  0  0  0  0  0
   -1.7565    5.6232   21.0924 C   0  0  0  0  0  0  0  0  0  0  0  0
   -0.9994    6.5946   20.3944 C   0  0  0  0  0  0  0  0  0  0  0  0
   -1.6448    7.7355   19.9035 C   0  0  0  0  0  0  0  0  0  0  0  0
   -4.9692    9.2875   19.4163 N   0  0  0  0  0  0  0  0  0  0  0  0
   -3.6538    9.1560   19.5849 C   0  0  0  0  0  0  0  0  0  0  0  0
   -2.9606   10.2972   19.2211 N   0  0  0  0  0  0  0  0  0  0  0  0
   -5.5712    8.5416   19.6405 H   0  0  0  0  0  0  0  0  0  0  0  0
   -5.3389   10.1307   19.0675 H   0  0  0  0  0  0  0  0  0  0  0  0
   -3.4485   11.0835   18.8851 H   0  0  0  0  0  0  0  0  0  0  0  0
    0.5276    2.8998   25.9813 C   0  0  0  0  0  0  0  0  0  0  0  0
    0.4165    1.8432   27.0887 C   0  0  0  0  0  0  0  0  0  0  0  0
    1.5269    1.7174   26.0120 C   0  0  0  0  0  0  0  0  0  0  0  0
   -2.7538    3.6674   26.1361 C   0  0  0  0  0  0  0  0  0  0  0  0
   -2.6890    4.8262   27.1357 C   0  0  0  0  0  0  0  0  0  0  0  0
   -1.4513    5.2464   27.6473 C   0  0  0  0  0  0  0  0  0  0  0  0
   -1.4517    6.3049   28.6523 C   0  0  0  0  0  0  0  0  0  0  0  0
   -0.3445    6.8658   29.2972 O   0  0  0  0  0  0  0  0  0  0  0  0
   -0.9201    7.8710   30.1802 C   0  0  0  0  0  0  0  0  0  0  0  0
   -2.3740    7.8616   30.0360 O   0  0  0  0  0  0  0  0  0  0  0  0
   -2.6496    6.8916   29.0960 C   0  0  0  0  0  0  0  0  0  0  0  0
   -3.8834    6.4627   28.5950 C   0  0  0  0  0  0  0  0  0  0  0  0
   -3.8919    5.4436   27.6122 C   0  0  0  0  0  0  0  0  0  0  0  0
 19 20  1  0  0  0
 20 13  1  0  0  0
 20 21  2  0  0  0
 13 14  2  0  0  0
 13 18  1  0  0  0
 14 15  1  0  0  0
 15 16  2  0  0  0
 16  1  1  0  0  0
 16 17  1  0  0  0
  1  2  1  0  0  0
  1 12  1  0  0  0
  2  3  1  0  0  0
  2  6  1  0  0  0
  3  4  1  0  0  0
  4  5  1  0  0  0
  5  6  1  0  0  0
  6  7  1  0  0  0
  7  8  1  0  0  0
  7 12  1  0  0  0
 25  8  1  0  0  0
 25 26  1  0  0  0
 25 27  1  0  0  0
  8  9  1  0  0  0
 26 27  1  0  0  0
  9 10  1  0  0  0
  9 28  1  0  0  0
 10 11  2  0  0  0
 10 12  1  0  0  0
 28 29  1  0  0  0
 29 30  2  0  0  0
 29 37  1  0  0  0
 30 31  1  0  0  0
 31 32  1  0  0  0
 31 35  2  0  0  0
 32 33  1  0  0  0
 33 34  1  0  0  0
 34 35  1  0  0  0
 35 36  1  0  0  0
 36 37  2  0  0  0
 17 18  2  0  0  0
 19 22  1  0  0  0
 19 23  1  0  0  0
 21 24  1  0  0  0
M  END
> <minimizedAffinity>
-10.68111

$$$$
1Y3V_UIR_A_1994


 37 43  0  0  0  0  0  0  0  0999 V2000
   -2.8832    4.0976   21.5271 C   0  0  0  0  0  0  0  0  0  0  0  0
   -4.3500    3.7926   21.6860 N   0  0  0  0  0  0  0  0  0  0  0  0
   -5.0148    3.5879   20.3546 C   0  0  0  0  0  0  0  0  0  0  0  0
   -5.0326    2.0636   20.1341 C   0  0  0  0  0  0  0  0  0  0  0  0
   -4.4226    1.3839   21.3432 C   0  0  0  0  0  0  0  0  0  0  0  0
   -4.3185    2.4701   22.4270 C   0  0  0  0  0  0  0  0  0  0  0  0
   -2.9217    2.3446   23.1227 C   0  0  0  0  0  0  0  0  0  0  0  0
   -3.1336    2.3395   24.6848 C   0  0  0  0  0  0  0  0  0  0  0  0
   -3.3178    3.7235   25.0213 N   0  0  0  0  0  0  0  0  0  0  0  0
   -2.8411    4.5860   24.0562 C   0  0  0  0  0  0  0  0  0  0  0  0
   -2.9687    5.8601   24.0984 O   0  0  0  0  0  0  0  0  0  0  0  0
   -2.2705    3.7499   22.8915 C   0  0  0  0  0  0  0  0  0  0  0  0
   -2.4386    8.1880   20.0905 C   0  0  0  0  0  0  0  0  0  0  0  0
   -3.7122    7.7049   20.4521 C   0  0  0  0  0  0  0  0  0  0  0  0
   -3.8832    6.3709   20.8843 C   0  0  0  0  0  0  0  0  0  0  0  0
   -2.7861    5.4943   20.9529 C   0  0  0  0  0  0  0  0  0  0  0  0
   -1.5063    5.9467   20.5510 C   0  0  0  0  0  0  0  0  0  0  0  0
   -1.3562    7.2722   20.1271 C   0  0  0  0  0  0  0  0  0  0  0  0
   -3.1897   10.2885   19.1041 N   0  0  0  0  0  0  0  0  0  0  0  0
   -2.2397    9.5453   19.6706 C   0  0  0  0  0  0  0  0  0  0  0  0
   -1.0448   10.2309   19.8027 N   0  0  0  0  0  0  0  0  0  0  0  0
   -4.0868    9.9112   18.9557 H   0  0  0  0  0  0  0  0  0  0  0  0
   -2.9944   11.2149   18.8341 H   0  0  0  0  0  0  0  0  0  0  0  0
   -0.9752   11.1630   19.4933 H   0  0  0  0  0  0  0  0  0  0  0  0
   -2.1130    1.6788   25.5923 C   0  0  0  0  0  0  0  0  0  0  0  0
   -1.5313    0.3654   25.0521 C   0  0  0  0  0  0  0  0  0  0  0  0
   -0.6780    1.6609   25.0110 C   0  0  0  0  0  0  0  0  0  0  0  0
   -4.0186    4.3954   26.2000 C   0  0  0  0  0  0  0  0  0  0  0  0
   -3.0419    5.0015   27.2123 C   0  0  0  0  0  0  0  0  0  0  0  0
   -3.4437    6.0748   28.0229 C   0  0  0  0  0  0  0  0  0  0  0  0
   -2.4521    6.6632   28.9178 C   0  0  0  0  0  0  0  0  0  0  0  0
   -2.6310    7.7352   29.7983 O   0  0  0  0  0  0  0  0  0  0  0  0
   -1.3317    7.8891   30.4381 C   0  0  0  0  0  0  0  0  0  0  0  0
   -0.4080    6.8954   29.8958 O   0  0  0  0  0  0  0  0  0  0  0  0
   -1.1356    6.1736   28.9737 C   0  0  0  0  0  0  0  0  0  0  0  0
   -0.7328    5.1125   28.1558 C   0  0  0  0  0  0  0  0  0  0  0  0
   -1.6908    4.5288   27.2920 C   0  0  0  0  0  0  0  0  0  0  0  0
 19 20  1  0  0  0
 20 13  1  0  0  0
 20 21  2  0  0  0
 13 14  2  0  0  0
 13 18  1  0  0  0
 14 15  1  0  0  0
 15 16  2  0  0  0
 16  1  1  0  0  0
 16 17  1  0  0  0
  1  2  1  0  0  0
  1 12  1  0  0  0
  2  3  1  0  0  0
  2  6  1  0  0  0
  3  4  1  0  0  0
  4  5  1  0  0  0
  5  6  1  0  0  0
  6  7  1  0  0  0
  7  8  1  0  0  0
  7 12  1  0  0  0
 25  8  1  0  0  0
 25 26  1  0  0  0
 25 27  1  0  0  0
  8  9  1  0  0  0
 26 27  1  0  0  0
  9 10  1  0  0  0
  9 28  1  0  0  0
 10 11  2  0  0  0
 10 12  1  0  0  0
 28 29  1  0  0  0
 29 30  2  0  0  0
 29 37  1  0  0  0
 30 31  1  0  0  0
 31 32  1  0  0  0
 31 35  2  0  0  0
 32 33  1  0  0  0
 33 34  1  0  0  0
 34 35  1  0  0  0
 35 36  1  0  0  0
 36 37  2  0  0  0
 17 18  2  0  0  0
 19 22  1  0  0  0
 19 23  1  0  0  0
 21 24  1  0  0  0
M  END
> <minimizedAffinity>
-9.08028

$$$$
1Y3V_UIR_A_1994


 37 43  0  0  0  0  0  0  0  0999 V2000
   -2.5911    3.7199   20.0952 C   0  0  0  0  0  0  0  0  0  0  0  0
   -3.5415    3.4010   21.2200 N   0  0  0  0  0  0  0  0  0  0  0  0
   -4.9708    3.6028   20.8040 C   0  0  0  0  0  0  0  0  0  0  0  0
   -5.4778    2.2098   20.3860 C   0  0  0  0  0  0  0  0  0  0  0  0
   -4.3689    1.1986   20.5957 C   0  0  0  0  0  0  0  0  0  0  0  0
   -3.2961    1.9194   21.4293 C   0  0  0  0  0  0  0  0  0  0  0  0
   -1.8904    1.5780   20.8309 C   0  0  0  0  0  0  0  0  0  0  0  0
   -0.9402    1.1194   22.0022 C   0  0  0  0  0  0  0  0  0  0  0  0
   -0.5199    2.3471   22.6179 N   0  0  0  0  0  0  0  0  0  0  0  0
   -0.6808    3.4476   21.8021 C   0  0  0  0  0  0  0  0  0  0  0  0
   -0.4532    4.6553   22.1638 O   0  0  0  0  0  0  0  0  0  0  0  0
   -1.2974    2.9808   20.4668 C   0  0  0  0  0  0  0  0  0  0  0  0
   -2.4163    8.0573   19.7079 C   0  0  0  0  0  0  0  0  0  0  0  0
   -3.4605    7.4589   20.4414 C   0  0  0  0  0  0  0  0  0  0  0  0
   -3.5562    6.0535   20.5472 C   0  0  0  0  0  0  0  0  0  0  0  0
   -2.6158    5.2221   19.9138 C   0  0  0  0  0  0  0  0  0  0  0  0
   -1.5857    5.8019   19.1349 C   0  0  0  0  0  0  0  0  0  0  0  0
   -1.5062    7.1963   19.0430 C   0  0  0  0  0  0  0  0  0  0  0  0
   -3.2884   10.2896   19.2549 N   0  0  0  0  0  0  0  0  0  0  0  0
   -2.2881    9.4825   19.6068 C   0  0  0  0  0  0  0  0  0  0  0  0
   -1.1171   10.1758   19.8585 N   0  0  0  0  0  0  0  0  0  0  0  0
   -4.1750    9.9140   19.0497 H   0  0  0  0  0  0  0  0  0  0  0  0
   -3.1409   11.2614   19.2002 H   0  0  0  0  0  0  0  0  0  0  0  0
   -1.0968   11.1562   19.7705 H   0  0  0  0  0  0  0  0  0  0  0  0
    0.2397    0.2092   21.7173 C   0  0  0  0  0  0  0  0  0  0  0  0
   -0.1383   -1.2295   21.3399 C   0  0  0  0  0  0  0  0  0  0  0  0
    0.3377   -0.2437   20.2399 C   0  0  0  0  0  0  0  0  0  0  0  0
   -0.0184    2.6545   24.0271 C   0  0  0  0  0  0  0  0  0  0  0  0
   -1.1283    3.1340   24.9674 C   0  0  0  0  0  0  0  0  0  0  0  0
   -0.9933    4.3515   25.6530 C   0  0  0  0  0  0  0  0  0  0  0  0
   -2.0453    4.7262   26.5929 C   0  0  0  0  0  0  0  0  0  0  0  0
   -2.1097    5.8793   27.3818 O   0  0  0  0  0  0  0  0  0  0  0  0
   -3.3633    5.7410   28.1103 C   0  0  0  0  0  0  0  0  0  0  0  0
   -4.0028    4.4829   27.7321 O   0  0  0  0  0  0  0  0  0  0  0  0
   -3.1626    3.9005   26.8071 C   0  0  0  0  0  0  0  0  0  0  0  0
   -3.2895    2.6812   26.1331 C   0  0  0  0  0  0  0  0  0  0  0  0
   -2.2789    2.3144   25.2119 C   0  0  0  0  0  0  0  0  0  0  0  0
 19 20  1  0  0  0
 20 13  1  0  0  0
 20 21  2  0  0  0
 13 14  2  0  0  0
 13 18  1  0  0  0
 14 15  1  0  0  0
 15 16  2  0  0  0
 16  1  1  0  0  0
 16 17  1  0  0  0
  1  2  1  0  0  0
  1 12  1  0  0  0
  2  3  1  0  0  0
  2  6  1  0  0  0
  3  4  1  0  0  0
  4  5  1  0  0  0
  5  6  1  0  0  0
  6  7  1  0  0  0
  7  8  1  0  0  0
  7 12  1  0  0  0
 25  8  1  0  0  0
 25 26  1  0  0  0
 25 27  1  0  0  0
  8  9  1  0  0  0
 26 27  1  0  0  0
  9 10  1  0  0  0
  9 28  1  0  0  0
 10 11  2  0  0  0
 10 12  1  0  0  0
 28 29  1  0  0  0
 29 30  2  0  0  0
 29 37  1  0  0  0
 30 31  1  0  0  0
 31 32  1  0  0  0
 31 35  2  0  0  0
 32 33  1  0  0  0
 33 34  1  0  0  0
 34 35  1  0  0  0
 35 36  1  0  0  0
 36 37  2  0  0  0
 17 18  2  0  0  0
 19 22  1  0  0  0
 19 23  1  0  0  0
 21 24  1  0  0  0
M  END
> <minimizedAffinity>
-8.75055

$$$$
1Y3V_UIR_A_1994


 37 43  0  0  0  0  0  0  0  0999 V2000
   -3.9294    3.6031   24.7919 C   0  0  0  0  0  0  0  0  0  0  0  0
   -3.0434    2.4941   24.2867 N   0  0  0  0  0  0  0  0  0  0  0  0
   -2.8763    1.4135   25.3169 C   0  0  0  0  0  0  0  0  0  0  0  0
   -3.9161    0.3364   24.9552 C   0  0  0  0  0  0  0  0  0  0  0  0
   -4.6535    0.7646   23.7026 C   0  0  0  0  0  0  0  0  0  0  0  0
   -3.8539    1.9462   23.1283 C   0  0  0  0  0  0  0  0  0  0  0  0
   -4.8622    3.0574   22.6819 C   0  0  0  0  0  0  0  0  0  0  0  0
   -4.5001    3.5091   21.2156 C   0  0  0  0  0  0  0  0  0  0  0  0
   -3.3914    4.4062   21.3854 N   0  0  0  0  0  0  0  0  0  0  0  0
   -3.2904    4.9097   22.6656 C   0  0  0  0  0  0  0  0  0  0  0  0
   -2.3365    5.6613   23.0739 O   0  0  0  0  0  0  0  0  0  0  0  0
   -4.4249    4.3060   23.5198 C   0  0  0  0  0  0  0  0  0  0  0  0
   -1.6359    5.5061   27.9719 C   0  0  0  0  0  0  0  0  0  0  0  0
   -2.9578    5.9211   27.7140 C   0  0  0  0  0  0  0  0  0  0  0  0
   -3.7049    5.3432   26.6635 C   0  0  0  0  0  0  0  0  0  0  0  0
   -3.1403    4.3477   25.8468 C   0  0  0  0  0  0  0  0  0  0  0  0
   -1.7988    3.9489   26.0604 C   0  0  0  0  0  0  0  0  0  0  0  0
   -1.0750    4.5318   27.1070 C   0  0  0  0  0  0  0  0  0  0  0  0
   -0.7015    7.3731   29.2328 N   0  0  0  0  0  0  0  0  0  0  0  0
   -0.8680    6.0640   29.0475 C   0  0  0  0  0  0  0  0  0  0  0  0
   -0.2147    5.3100   30.0067 N   0  0  0  0  0  0  0  0  0  0  0  0
   -1.1188    8.0149   28.6138 H   0  0  0  0  0  0  0  0  0  0  0  0
   -0.1611    7.6984   29.9888 H   0  0  0  0  0  0  0  0  0  0  0  0
    0.2964    5.7566   30.7199 H   0  0  0  0  0  0  0  0  0  0  0  0
   -5.5647    4.1069   20.3151 C   0  0  0  0  0  0  0  0  0  0  0  0
   -6.3564    3.0818   19.4919 C   0  0  0  0  0  0  0  0  0  0  0  0
   -7.0115    3.7457   20.7322 C   0  0  0  0  0  0  0  0  0  0  0  0
   -2.2703    4.8231   20.4362 C   0  0  0  0  0  0  0  0  0  0  0  0
   -2.2818    6.3208   20.1155 C   0  0  0  0  0  0  0  0  0  0  0  0
   -1.1081    7.0788   20.2505 C   0  0  0  0  0  0  0  0  0  0  0  0
   -1.1907    8.5151   20.0040 C   0  0  0  0  0  0  0  0  0  0  0  0
   -0.1569    9.4534   20.0885 O   0  0  0  0  0  0  0  0  0  0  0  0
   -0.7932   10.7149   19.7349 C   0  0  0  0  0  0  0  0  0  0  0  0
   -2.2091   10.4793   19.4619 O   0  0  0  0  0  0  0  0  0  0  0  0
   -2.4031    9.1259   19.6395 C   0  0  0  0  0  0  0  0  0  0  0  0
   -3.5750    8.3714   19.5182 C   0  0  0  0  0  0  0  0  0  0  0  0
   -3.5021    6.9759   19.7454 C   0  0  0  0  0  0  0  0  0  0  0  0
 19 20  1  0  0  0
 20 13  1  0  0  0
 20 21  2  0  0  0
 13 14  2  0  0  0
 13 18  1  0  0  0
 14 15  1  0  0  0
 15 16  2  0  0  0
 16  1  1  0  0  0
 16 17  1  0  0  0
  1  2  1  0  0  0
  1 12  1  0  0  0
  2  3  1  0  0  0
  2  6  1  0  0  0
  3  4  1  0  0  0
  4  5  1  0  0  0
  5  6  1  0  0  0
  6  7  1  0  0  0
  7  8  1  0  0  0
  7 12  1  0  0  0
 25  8  1  0  0  0
 25 26  1  0  0  0
 25 27  1  0  0  0
  8  9  1  0  0  0
 26 27  1  0  0  0
  9 10  1  0  0  0
  9 28  1  0  0  0
 10 11  2  0  0  0
 10 12  1  0  0  0
 28 29  1  0  0  0
 29 30  2  0  0  0
 29 37  1  0  0  0
 30 31  1  0  0  0
 31 32  1  0  0  0
 31 35  2  0  0  0
 32 33  1  0  0  0
 33 34  1  0  0  0
 34 35  1  0  0  0
 35 36  1  0  0  0
 36 37  2  0  0  0
 17 18  2  0  0  0
 19 22  1  0  0  0
 19 23  1  0  0  0
 21 24  1  0  0  0
M  END
> <minimizedAffinity>
-8.57888

$$$$
1Y3V_UIR_A_1994


 37 43  0  0  0  0  0  0  0  0999 V2000
   -1.0446    4.4917   21.7469 C   0  0  0  0  0  0  0  0  0  0  0  0
   -1.9410    3.2891   21.6045 N   0  0  0  0  0  0  0  0  0  0  0  0
   -2.0105    2.8231   20.1780 C   0  0  0  0  0  0  0  0  0  0  0  0
   -0.9769    1.6866   20.0661 C   0  0  0  0  0  0  0  0  0  0  0  0
   -0.3410    1.4638   21.4233 C   0  0  0  0  0  0  0  0  0  0  0  0
   -1.2047    2.2482   22.4252 C   0  0  0  0  0  0  0  0  0  0  0  0
   -0.2550    3.0031   23.4146 C   0  0  0  0  0  0  0  0  0  0  0  0
   -0.7314    2.7173   24.8899 C   0  0  0  0  0  0  0  0  0  0  0  0
   -1.8437    3.6057   25.0808 N   0  0  0  0  0  0  0  0  0  0  0  0
   -1.8627    4.6538   24.1843 C   0  0  0  0  0  0  0  0  0  0  0  0
   -2.8003    5.5236   24.1086 O   0  0  0  0  0  0  0  0  0  0  0  0
   -0.6571    4.5056   23.2327 C   0  0  0  0  0  0  0  0  0  0  0  0
   -2.9965    8.0184   20.0900 C   0  0  0  0  0  0  0  0  0  0  0  0
   -3.7643    7.0285   20.7356 C   0  0  0  0  0  0  0  0  0  0  0  0
   -3.1557    5.8603   21.2460 C   0  0  0  0  0  0  0  0  0  0  0  0
   -1.7711    5.6571   21.1113 C   0  0  0  0  0  0  0  0  0  0  0  0
   -0.9890    6.6178   20.4262 C   0  0  0  0  0  0  0  0  0  0  0  0
   -1.6095    7.7696   19.9287 C   0  0  0  0  0  0  0  0  0  0  0  0
   -4.9069    9.4059   19.4783 N   0  0  0  0  0  0  0  0  0  0  0  0
   -3.5913    9.2220   19.5846 C   0  0  0  0  0  0  0  0  0  0  0  0
   -2.8703   10.3204   19.1498 N   0  0  0  0  0  0  0  0  0  0  0  0
   -5.5275    8.6940   19.7565 H   0  0  0  0  0  0  0  0  0  0  0  0
   -5.2583   10.2536   19.1217 H   0  0  0  0  0  0  0  0  0  0  0  0
   -3.3414   11.1169   18.8138 H   0  0  0  0  0  0  0  0  0  0  0  0
    0.2526    2.8048   26.0413 C   0  0  0  0  0  0  0  0  0  0  0  0
    0.5068    1.4775   26.7684 C   0  0  0  0  0  0  0  0  0  0  0  0
    1.5753    2.0390   25.7931 C   0  0  0  0  0  0  0  0  0  0  0  0
   -3.0389    3.5440   26.0292 C   0  0  0  0  0  0  0  0  0  0  0  0
   -4.0228    2.4226   25.6822 C   0  0  0  0  0  0  0  0  0  0  0  0
   -4.0514    1.2481   26.4505 C   0  0  0  0  0  0  0  0  0  0  0  0
   -4.9551    0.1808   26.0328 C   0  0  0  0  0  0  0  0  0  0  0  0
   -5.1373   -1.0658   26.6405 O   0  0  0  0  0  0  0  0  0  0  0  0
   -6.1510   -1.7151   25.8207 C   0  0  0  0  0  0  0  0  0  0  0  0
   -6.5313   -0.8216   24.7290 O   0  0  0  0  0  0  0  0  0  0  0  0
   -5.7760    0.3190   24.9001 C   0  0  0  0  0  0  0  0  0  0  0  0
   -5.7369    1.4848   24.1276 C   0  0  0  0  0  0  0  0  0  0  0  0
   -4.8708    2.5295   24.5312 C   0  0  0  0  0  0  0  0  0  0  0  0
 19 20  1  0  0  0
 20 13  1  0  0  0
 20 21  2  0  0  0
 13 14  2  0  0  0
 13 18  1  0  0  0
 14 15  1  0  0  0
 15 16  2  0  0  0
 16  1  1  0  0  0
 16 17  1  0  0  0
  1  2  1  0  0  0
  1 12  1  0  0  0
  2  3  1  0  0  0
  2  6  1  0  0  0
  3  4  1  0  0  0
  4  5  1  0  0  0
  5  6  1  0  0  0
  6  7  1  0  0  0
  7  8  1  0  0  0
  7 12  1  0  0  0
 25  8  1  0  0  0
 25 26  1  0  0  0
 25 27  1  0  0  0
  8  9  1  0  0  0
 26 27  1  0  0  0
  9 10  1  0  0  0
  9 28  1  0  0  0
 10 11  2  0  0  0
 10 12  1  0  0  0
 28 29  1  0  0  0
 29 30  2  0  0  0
 29 37  1  0  0  0
 30 31  1  0  0  0
 31 32  1  0  0  0
 31 35  2  0  0  0
 32 33  1  0  0  0
 33 34  1  0  0  0
 34 35  1  0  0  0
 35 36  1  0  0  0
 36 37  2  0  0  0
 17 18  2  0  0  0
 19 22  1  0  0  0
 19 23  1  0  0  0
 21 24  1  0  0  0
M  END
> <minimizedAffinity>
-8.47228

$$$$
1Y3V_UIR_A_1994


 37 43  0  0  0  0  0  0  0  0999 V2000
   -4.3822    4.0608   26.0237 C   0  0  0  0  0  0  0  0  0  0  0  0
   -3.6332    2.7790   25.7673 N   0  0  0  0  0  0  0  0  0  0  0  0
   -3.6159    1.9009   26.9861 C   0  0  0  0  0  0  0  0  0  0  0  0
   -4.7758    0.9062   26.7925 C   0  0  0  0  0  0  0  0  0  0  0  0
   -5.4364    1.1741   25.4554 C   0  0  0  0  0  0  0  0  0  0  0  0
   -4.4885    2.1219   24.7015 C   0  0  0  0  0  0  0  0  0  0  0  0
   -5.3449    3.2403   24.0187 C   0  0  0  0  0  0  0  0  0  0  0  0
   -4.9086    3.3600   22.5085 C   0  0  0  0  0  0  0  0  0  0  0  0
   -3.6999    4.1347   22.5498 N   0  0  0  0  0  0  0  0  0  0  0  0
   -3.5558    4.8558   23.7167 C   0  0  0  0  0  0  0  0  0  0  0  0
   -2.5222    5.5523   24.0134 O   0  0  0  0  0  0  0  0  0  0  0  0
   -4.7685    4.5640   24.6253 C   0  0  0  0  0  0  0  0  0  0  0  0
   -1.8369    6.2191   28.8267 C   0  0  0  0  0  0  0  0  0  0  0  0
   -3.2198    6.4877   28.7831 C   0  0  0  0  0  0  0  0  0  0  0  0
   -4.0557    5.8263   27.8561 C   0  0  0  0  0  0  0  0  0  0  0  0
   -3.5222    4.8926   26.9504 C   0  0  0  0  0  0  0  0  0  0  0  0
   -2.1289    4.6420   26.9473 C   0  0  0  0  0  0  0  0  0  0  0  0
   -1.3170    5.3058   27.8742 C   0  0  0  0  0  0  0  0  0  0  0  0
   -1.0188    6.6326   31.0869 N   0  0  0  0  0  0  0  0  0  0  0  0
   -0.9745    6.8631   29.7751 C   0  0  0  0  0  0  0  0  0  0  0  0
   -0.0070    7.7932   29.4372 N   0  0  0  0  0  0  0  0  0  0  0  0
   -1.6678    5.9886   31.4519 H   0  0  0  0  0  0  0  0  0  0  0  0
   -0.4024    7.1064   31.6910 H   0  0  0  0  0  0  0  0  0  0  0  0
    0.5526    8.1983   30.1386 H   0  0  0  0  0  0  0  0  0  0  0  0
   -5.8780    3.8988   21.4733 C   0  0  0  0  0  0  0  0  0  0  0  0
   -5.7843    3.2259   20.0972 C   0  0  0  0  0  0  0  0  0  0  0  0
   -6.9642    2.8820   21.0447 C   0  0  0  0  0  0  0  0  0  0  0  0
   -2.5223    4.2281   21.5822 C   0  0  0  0  0  0  0  0  0  0  0  0
   -2.3087    5.6415   21.0320 C   0  0  0  0  0  0  0  0  0  0  0  0
   -3.3875    6.5359   20.9504 C   0  0  0  0  0  0  0  0  0  0  0  0
   -3.1459    7.8442   20.3500 C   0  0  0  0  0  0  0  0  0  0  0  0
   -4.0700    8.8770   20.1614 O   0  0  0  0  0  0  0  0  0  0  0  0
   -3.2928    9.9383   19.5361 C   0  0  0  0  0  0  0  0  0  0  0  0
   -1.9149    9.4853   19.3601 O   0  0  0  0  0  0  0  0  0  0  0  0
   -1.8751    8.2050   19.8698 C   0  0  0  0  0  0  0  0  0  0  0  0
   -0.8039    7.3078   19.9396 C   0  0  0  0  0  0  0  0  0  0  0  0
   -1.0265    6.0402   20.5298 C   0  0  0  0  0  0  0  0  0  0  0  0
 19 20  1  0  0  0
 20 13  1  0  0  0
 20 21  2  0  0  0
 13 14  2  0  0  0
 13 18  1  0  0  0
 14 15  1  0  0  0
 15 16  2  0  0  0
 16  1  1  0  0  0
 16 17  1  0  0  0
  1  2  1  0  0  0
  1 12  1  0  0  0
  2  3  1  0  0  0
  2  6  1  0  0  0
  3  4  1  0  0  0
  4  5  1  0  0  0
  5  6  1  0  0  0
  6  7  1  0  0  0
  7  8  1  0  0  0
  7 12  1  0  0  0
 25  8  1  0  0  0
 25 26  1  0  0  0
 25 27  1  0  0  0
  8  9  1  0  0  0
 26 27  1  0  0  0
  9 10  1  0  0  0
  9 28  1  0  0  0
 10 11  2  0  0  0
 10 12  1  0  0  0
 28 29  1  0  0  0
 29 30  2  0  0  0
 29 37  1  0  0  0
 30 31  1  0  0  0
 31 32  1  0  0  0
 31 35  2  0  0  0
 32 33  1  0  0  0
 33 34  1  0  0  0
 34 35  1  0  0  0
 35 36  1  0  0  0
 36 37  2  0  0  0
 17 18  2  0  0  0
 19 22  1  0  0  0
 19 23  1  0  0  0
 21 24  1  0  0  0
M  END
> <minimizedAffinity>
-8.21283

$$$$
1Y3V_UIR_A_1994


 37 43  0  0  0  0  0  0  0  0999 V2000
   -2.9454    2.9465   21.6099 C   0  0  0  0  0  0  0  0  0  0  0  0
   -3.5093    2.8906   23.0059 N   0  0  0  0  0  0  0  0  0  0  0  0
   -5.0112    2.9190   22.9920 C   0  0  0  0  0  0  0  0  0  0  0  0
   -5.4510    1.4456   23.0820 C   0  0  0  0  0  0  0  0  0  0  0  0
   -4.2193    0.5696   23.1896 C   0  0  0  0  0  0  0  0  0  0  0  0
   -3.0489    1.5250   23.4773 C   0  0  0  0  0  0  0  0  0  0  0  0
   -1.8309    1.0985   22.5911 C   0  0  0  0  0  0  0  0  0  0  0  0
   -0.5508    0.9981   23.5058 C   0  0  0  0  0  0  0  0  0  0  0  0
   -0.1211    2.3595   23.6633 N   0  0  0  0  0  0  0  0  0  0  0  0
   -0.6232    3.2038   22.6951 C   0  0  0  0  0  0  0  0  0  0  0  0
   -0.4445    4.4724   22.6786 O   0  0  0  0  0  0  0  0  0  0  0  0
   -1.5240    2.3825   21.7489 C   0  0  0  0  0  0  0  0  0  0  0  0
   -3.3733    7.0302   20.1492 C   0  0  0  0  0  0  0  0  0  0  0  0
   -4.0031    6.6436   21.3493 C   0  0  0  0  0  0  0  0  0  0  0  0
   -3.9078    5.3152   21.8201 C   0  0  0  0  0  0  0  0  0  0  0  0
   -3.1898    4.3482   21.0947 C   0  0  0  0  0  0  0  0  0  0  0  0
   -2.5880    4.7049   19.8640 C   0  0  0  0  0  0  0  0  0  0  0  0
   -2.6919    6.0264   19.4144 C   0  0  0  0  0  0  0  0  0  0  0  0
   -4.5760    9.0622   19.5380 N   0  0  0  0  0  0  0  0  0  0  0  0
   -3.4389    8.3790   19.6652 C   0  0  0  0  0  0  0  0  0  0  0  0
   -2.3355    9.1177   19.2750 N   0  0  0  0  0  0  0  0  0  0  0  0
   -5.4322    8.6432   19.7842 H   0  0  0  0  0  0  0  0  0  0  0  0
   -4.5599    9.9859   19.1977 H   0  0  0  0  0  0  0  0  0  0  0  0
   -2.4502   10.0404   18.9515 H   0  0  0  0  0  0  0  0  0  0  0  0
    0.6020    0.0945   23.1105 C   0  0  0  0  0  0  0  0  0  0  0  0
    0.3827   -1.3935   23.4155 C   0  0  0  0  0  0  0  0  0  0  0  0
    0.2649   -0.8804   21.9557 C   0  0  0  0  0  0  0  0  0  0  0  0
    0.7081    3.0413   24.7493 C   0  0  0  0  0  0  0  0  0  0  0  0
   -0.0624    3.2361   26.0587 C   0  0  0  0  0  0  0  0  0  0  0  0
   -1.0070    4.2681   26.1731 C   0  0  0  0  0  0  0  0  0  0  0  0
   -1.6591    4.4567   27.4652 C   0  0  0  0  0  0  0  0  0  0  0  0
   -2.6159    5.4196   27.8025 O   0  0  0  0  0  0  0  0  0  0  0  0
   -2.9202    5.1429   29.1997 C   0  0  0  0  0  0  0  0  0  0  0  0
   -2.1098    4.0153   29.6540 O   0  0  0  0  0  0  0  0  0  0  0  0
   -1.3581    3.6326   28.5635 C   0  0  0  0  0  0  0  0  0  0  0  0
   -0.4069    2.6129   28.4519 C   0  0  0  0  0  0  0  0  0  0  0  0
    0.2233    2.4160   27.1994 C   0  0  0  0  0  0  0  0  0  0  0  0
 19 20  1  0  0  0
 20 13  1  0  0  0
 20 21  2  0  0  0
 13 14  2  0  0  0
 13 18  1  0  0  0
 14 15  1  0  0  0
 15 16  2  0  0  0
 16  1  1  0  0  0
 16 17  1  0  0  0
  1  2  1  0  0  0
  1 12  1  0  0  0
  2  3  1  0  0  0
  2  6  1  0  0  0
  3  4  1  0  0  0
  4  5  1  0  0  0
  5  6  1  0  0  0
  6  7  1  0  0  0
  7  8  1  0  0  0
  7 12  1  0  0  0
 25  8  1  0  0  0
 25 26  1  0  0  0
 25 27  1  0  0  0
  8  9  1  0  0  0
 26 27  1  0  0  0
  9 10  1  0  0  0
  9 28  1  0  0  0
 10 11  2  0  0  0
 10 12  1  0  0  0
 28 29  1  0  0  0
 29 30  2  0  0  0
 29 37  1  0  0  0
 30 31  1  0  0  0
 31 32  1  0  0  0
 31 35  2  0  0  0
 32 33  1  0  0  0
 33 34  1  0  0  0
 34 35  1  0  0  0
 35 36  1  0  0  0
 36 37  2  0  0  0
 17 18  2  0  0  0
 19 22  1  0  0  0
 19 23  1  0  0  0
 21 24  1  0  0  0
M  END
> <minimizedAffinity>
-7.86935

$$$$
