2JKH_BI7_A_1244


 32 36  0  0  0  0  0  0  0  0999 V2000
   -3.1634   10.4469   22.3382 O   0  0  0  0  0  0  0  0  0  0  0  0
   -3.8205   11.4417   22.0296 C   0  0  0  0  0  0  0  0  0  0  0  0
   -4.7858   11.3927   21.0541 N   0  0  0  0  0  0  0  0  0  0  0  0
   -3.6349   12.8350   22.5832 C   0  0  0  0  0  0  0  0  0  0  0  0
   -3.6295   13.0044   24.1042 C   0  0  0  0  0  0  0  0  0  0  0  0
   -5.0373   13.1499   24.5094 N   0  0  0  0  0  0  0  0  0  0  0  0
   -5.1683   14.0067   25.7003 C   0  0  0  0  0  0  0  0  0  0  0  0
   -5.3656   15.4392   25.2099 C   0  0  0  0  0  0  0  0  0  0  0  0
   -5.6492   15.3536   23.7130 C   0  0  0  0  0  0  0  0  0  0  0  0
   -5.6783   13.8610   23.3768 C   0  0  0  0  0  0  0  0  0  0  0  0
   -4.8892   13.5556   22.1179 C   0  0  0  0  0  0  0  0  0  0  0  0
   -5.5441   12.5335   21.2362 C   0  0  0  0  0  0  0  0  0  0  0  0
   -6.6289   12.6841   20.6829 O   0  0  0  0  0  0  0  0  0  0  0  0
   -2.7168   12.0444   24.7840 C   0  0  0  0  0  0  0  0  0  0  0  0
   -3.1906   11.0530   25.6728 C   0  0  0  0  0  0  0  0  0  0  0  0
   -1.3763   11.9963   24.5933 N   0  0  0  0  0  0  0  0  0  0  0  0
   -0.9426   10.9181   25.4164 O   0  0  0  0  0  0  0  0  0  0  0  0
   -2.0065   10.4209   26.0794 C   0  0  0  0  0  0  0  0  0  0  0  0
   -1.8913    9.2865   26.8761 C   0  0  0  0  0  0  0  0  0  0  0  0
   -2.7747    8.8268   27.8448 C   0  0  0  0  0  0  0  0  0  0  0  0
   -2.3375    7.6055   28.3592 C   0  0  0  0  0  0  0  0  0  0  0  0
   -0.5000    8.3053   26.5330 S   0  0  0  0  0  0  0  0  0  0  0  0
   -1.1642    7.2436   27.7129 C   0  0  0  0  0  0  0  0  0  0  0  0
   -0.2544    5.7225   28.0565 Cl  0  0  0  0  0  0  0  0  0  0  0  0
   -5.5202   10.1187   20.9011 C   0  0  0  0  0  0  0  0  0  0  0  0
   -5.2333    9.7828   19.4426 C   0  0  0  0  0  0  0  0  0  0  0  0
   -4.7150    8.3772   19.2020 C   0  0  0  0  0  0  0  0  0  0  0  0
   -5.5224    7.5863   18.2514 N   0  0  0  0  0  0  0  0  0  0  0  0
   -5.3476    8.0170   16.8618 C   0  0  0  0  0  0  0  0  0  0  0  0
   -5.0339    6.2111   18.3296 C   0  0  0  0  0  0  0  0  0  0  0  0
   -6.9593    7.5900   18.6040 C   0  0  0  0  0  0  0  0  0  0  0  0
   -4.6911    7.3769   18.8040 H   0  0  0  0  0  0  0  0  0  0  0  0
  1  2  2  0  0  0
  2  3  1  0  0  0
  2  4  1  0  0  0
  3 25  1  0  0  0
  3 12  1  0  0  0
 25 26  1  0  0  0
 26 27  1  0  0  0
 27 28  1  0  0  0
 28 29  1  0  0  0
 28 30  1  0  0  0
 28 31  1  0  0  0
  4  5  1  0  0  0
  4 11  1  0  0  0
  5  6  1  0  0  0
  5 14  1  0  0  0
  6  7  1  0  0  0
  6 10  1  0  0  0
  7  8  1  0  0  0
  8  9  1  0  0  0
  9 10  1  0  0  0
 10 11  1  0  0  0
 11 12  1  0  0  0
 12 13  2  0  0  0
 14 15  1  0  0  0
 14 16  2  0  0  0
 15 18  2  0  0  0
 16 17  1  0  0  0
 17 18  1  0  0  0
 18 19  1  0  0  0
 19 20  2  0  0  0
 19 22  1  0  0  0
 20 21  1  0  0  0
 21 23  2  0  0  0
 22 23  1  0  0  0
 23 24  1  0  0  0
 28 32  1  0  0  0
M  END
> <minimizedAffinity>
-10.44732

$$$$
2JKH_BI7_A_1244


 32 36  0  0  0  0  0  0  0  0999 V2000
   -4.4578   10.9250   22.0260 O   0  0  0  0  0  0  0  0  0  0  0  0
   -5.3448   11.7779   21.9781 C   0  0  0  0  0  0  0  0  0  0  0  0
   -6.5540   11.5262   21.3780 N   0  0  0  0  0  0  0  0  0  0  0  0
   -5.2356   13.2010   22.4732 C   0  0  0  0  0  0  0  0  0  0  0  0
   -4.7565   13.4228   23.9097 C   0  0  0  0  0  0  0  0  0  0  0  0
   -5.9528   13.3342   24.7632 N   0  0  0  0  0  0  0  0  0  0  0  0
   -5.8310   14.1967   25.9509 C   0  0  0  0  0  0  0  0  0  0  0  0
   -6.4295   15.5543   25.5898 C   0  0  0  0  0  0  0  0  0  0  0  0
   -7.1732   15.3671   24.2706 C   0  0  0  0  0  0  0  0  0  0  0  0
   -7.0478   13.8814   23.9261 C   0  0  0  0  0  0  0  0  0  0  0  0
   -6.6796   13.6741   22.4693 C   0  0  0  0  0  0  0  0  0  0  0  0
   -7.3981   12.5225   21.8302 C   0  0  0  0  0  0  0  0  0  0  0  0
   -8.6134   12.4612   21.6727 O   0  0  0  0  0  0  0  0  0  0  0  0
   -3.5157   12.6620   24.2234 C   0  0  0  0  0  0  0  0  0  0  0  0
   -3.5156   11.5396   25.0822 C   0  0  0  0  0  0  0  0  0  0  0  0
   -2.2969   12.9348   23.6983 N   0  0  0  0  0  0  0  0  0  0  0  0
   -1.4433   11.9409   24.2562 O   0  0  0  0  0  0  0  0  0  0  0  0
   -2.1614   11.1753   25.1029 C   0  0  0  0  0  0  0  0  0  0  0  0
   -1.6027   10.0548   25.7089 C   0  0  0  0  0  0  0  0  0  0  0  0
   -0.4208    9.4028   25.3799 C   0  0  0  0  0  0  0  0  0  0  0  0
   -0.1684    8.3709   26.2847 C   0  0  0  0  0  0  0  0  0  0  0  0
   -2.4757    9.4763   27.0943 S   0  0  0  0  0  0  0  0  0  0  0  0
   -1.1818    8.3505   27.2323 C   0  0  0  0  0  0  0  0  0  0  0  0
   -1.2520    7.1802   28.6052 Cl  0  0  0  0  0  0  0  0  0  0  0  0
   -7.0602   10.1387   21.4460 C   0  0  0  0  0  0  0  0  0  0  0  0
   -6.9363    9.7047   19.9905 C   0  0  0  0  0  0  0  0  0  0  0  0
   -7.1450    8.2216   19.7473 C   0  0  0  0  0  0  0  0  0  0  0  0
   -6.2654    7.6463   18.7097 N   0  0  0  0  0  0  0  0  0  0  0  0
   -4.8444    7.8925   18.9691 C   0  0  0  0  0  0  0  0  0  0  0  0
   -6.4559    6.1981   18.7548 C   0  0  0  0  0  0  0  0  0  0  0  0
   -6.6204    8.1200   17.3538 C   0  0  0  0  0  0  0  0  0  0  0  0
   -6.8311    7.2347   19.4519 H   0  0  0  0  0  0  0  0  0  0  0  0
  1  2  2  0  0  0
  2  3  1  0  0  0
  2  4  1  0  0  0
  3 25  1  0  0  0
  3 12  1  0  0  0
 25 26  1  0  0  0
 26 27  1  0  0  0
 27 28  1  0  0  0
 28 29  1  0  0  0
 28 30  1  0  0  0
 28 31  1  0  0  0
  4  5  1  0  0  0
  4 11  1  0  0  0
  5  6  1  0  0  0
  5 14  1  0  0  0
  6  7  1  0  0  0
  6 10  1  0  0  0
  7  8  1  0  0  0
  8  9  1  0  0  0
  9 10  1  0  0  0
 10 11  1  0  0  0
 11 12  1  0  0  0
 12 13  2  0  0  0
 14 15  1  0  0  0
 14 16  2  0  0  0
 15 18  2  0  0  0
 16 17  1  0  0  0
 17 18  1  0  0  0
 18 19  1  0  0  0
 19 20  2  0  0  0
 19 22  1  0  0  0
 20 21  1  0  0  0
 21 23  2  0  0  0
 22 23  1  0  0  0
 23 24  1  0  0  0
 28 32  1  0  0  0
M  END
> <minimizedAffinity>
-9.33244

$$$$
2JKH_BI7_A_1244


 32 36  0  0  0  0  0  0  0  0999 V2000
   -1.8934   10.2348   21.7989 O   0  0  0  0  0  0  0  0  0  0  0  0
   -2.4600   11.2029   21.2908 C   0  0  0  0  0  0  0  0  0  0  0  0
   -3.1973   11.0825   20.1385 N   0  0  0  0  0  0  0  0  0  0  0  0
   -2.3817   12.6319   21.7746 C   0  0  0  0  0  0  0  0  0  0  0  0
   -2.6968   12.9058   23.2470 C   0  0  0  0  0  0  0  0  0  0  0  0
   -4.1569   13.0726   23.3336 N   0  0  0  0  0  0  0  0  0  0  0  0
   -4.5284   14.0089   24.4083 C   0  0  0  0  0  0  0  0  0  0  0  0
   -4.6027   15.4032   23.7904 C   0  0  0  0  0  0  0  0  0  0  0  0
   -4.5636   15.2134   22.2769 C   0  0  0  0  0  0  0  0  0  0  0  0
   -4.5362   13.7010   22.0450 C   0  0  0  0  0  0  0  0  0  0  0  0
   -3.5015   13.3131   21.0059 C   0  0  0  0  0  0  0  0  0  0  0  0
   -3.9653   12.2297   20.0773 C   0  0  0  0  0  0  0  0  0  0  0  0
   -4.9066   12.3368   19.2976 O   0  0  0  0  0  0  0  0  0  0  0  0
   -1.9586   11.9991   24.1688 C   0  0  0  0  0  0  0  0  0  0  0  0
   -2.6213   11.0870   25.0211 C   0  0  0  0  0  0  0  0  0  0  0  0
   -0.6083   11.9271   24.2534 N   0  0  0  0  0  0  0  0  0  0  0  0
   -0.3706   10.9174   25.2291 O   0  0  0  0  0  0  0  0  0  0  0  0
   -1.5557   10.4829   25.7041 C   0  0  0  0  0  0  0  0  0  0  0  0
   -1.6261    9.4170   26.5950 C   0  0  0  0  0  0  0  0  0  0  0  0
   -2.6218    9.1412   27.5238 C   0  0  0  0  0  0  0  0  0  0  0  0
   -2.3631    7.9301   28.1668 C   0  0  0  0  0  0  0  0  0  0  0  0
   -0.3343    8.2662   26.4427 S   0  0  0  0  0  0  0  0  0  0  0  0
   -1.1958    7.3893   27.6466 C   0  0  0  0  0  0  0  0  0  0  0  0
   -0.4908    5.8156   28.1813 Cl  0  0  0  0  0  0  0  0  0  0  0  0
   -3.8956    9.7976   19.9207 C   0  0  0  0  0  0  0  0  0  0  0  0
   -4.8675    9.7840   21.0944 C   0  0  0  0  0  0  0  0  0  0  0  0
   -6.1642    9.0383   20.8399 C   0  0  0  0  0  0  0  0  0  0  0  0
   -7.3778    9.8712   20.9612 N   0  0  0  0  0  0  0  0  0  0  0  0
   -8.0037   10.1551   19.6671 C   0  0  0  0  0  0  0  0  0  0  0  0
   -8.3443    9.0933   21.7336 C   0  0  0  0  0  0  0  0  0  0  0  0
   -7.1154   11.1355   21.6832 C   0  0  0  0  0  0  0  0  0  0  0  0
   -7.1702    8.9012   21.1987 H   0  0  0  0  0  0  0  0  0  0  0  0
  1  2  2  0  0  0
  2  3  1  0  0  0
  2  4  1  0  0  0
  3 25  1  0  0  0
  3 12  1  0  0  0
 25 26  1  0  0  0
 26 27  1  0  0  0
 27 28  1  0  0  0
 28 29  1  0  0  0
 28 30  1  0  0  0
 28 31  1  0  0  0
  4  5  1  0  0  0
  4 11  1  0  0  0
  5  6  1  0  0  0
  5 14  1  0  0  0
  6  7  1  0  0  0
  6 10  1  0  0  0
  7  8  1  0  0  0
  8  9  1  0  0  0
  9 10  1  0  0  0
 10 11  1  0  0  0
 11 12  1  0  0  0
 12 13  2  0  0  0
 14 15  1  0  0  0
 14 16  2  0  0  0
 15 18  2  0  0  0
 16 17  1  0  0  0
 17 18  1  0  0  0
 18 19  1  0  0  0
 19 20  2  0  0  0
 19 22  1  0  0  0
 20 21  1  0  0  0
 21 23  2  0  0  0
 22 23  1  0  0  0
 23 24  1  0  0  0
 28 32  1  0  0  0
M  END
> <minimizedAffinity>
-8.83754

$$$$
2JKH_BI7_A_1244


 32 36  0  0  0  0  0  0  0  0999 V2000
   -3.2522   11.8592   19.8608 O   0  0  0  0  0  0  0  0  0  0  0  0
   -4.3911   12.1613   19.5028 C   0  0  0  0  0  0  0  0  0  0  0  0
   -4.9172   11.7088   18.3178 N   0  0  0  0  0  0  0  0  0  0  0  0
   -5.3300   13.0978   20.2265 C   0  0  0  0  0  0  0  0  0  0  0  0
   -5.5988   12.8343   21.7099 C   0  0  0  0  0  0  0  0  0  0  0  0
   -6.7032   11.8623   21.7640 N   0  0  0  0  0  0  0  0  0  0  0  0
   -7.5312   12.0557   22.9668 C   0  0  0  0  0  0  0  0  0  0  0  0
   -8.6566   13.0178   22.5937 C   0  0  0  0  0  0  0  0  0  0  0  0
   -8.6404   13.1409   21.0729 C   0  0  0  0  0  0  0  0  0  0  0  0
   -7.5444   12.1898   20.5873 C   0  0  0  0  0  0  0  0  0  0  0  0
   -6.6614   12.8417   19.5403 C   0  0  0  0  0  0  0  0  0  0  0  0
   -6.2793   11.9173   18.4222 C   0  0  0  0  0  0  0  0  0  0  0  0
   -7.0729   11.4122   17.6345 O   0  0  0  0  0  0  0  0  0  0  0  0
   -4.3475   12.6384   22.4926 C   0  0  0  0  0  0  0  0  0  0  0  0
   -4.0149   11.3997   23.0862 C   0  0  0  0  0  0  0  0  0  0  0  0
   -3.4024   13.5915   22.6767 N   0  0  0  0  0  0  0  0  0  0  0  0
   -2.3959   12.9441   23.4486 O   0  0  0  0  0  0  0  0  0  0  0  0
   -2.7994   11.6871   23.7241 C   0  0  0  0  0  0  0  0  0  0  0  0
   -1.9603   10.7891   24.3756 C   0  0  0  0  0  0  0  0  0  0  0  0
   -0.7564   10.2612   23.9262 C   0  0  0  0  0  0  0  0  0  0  0  0
   -0.1792    9.4615   24.9133 C   0  0  0  0  0  0  0  0  0  0  0  0
   -2.4723   10.3603   25.9788 S   0  0  0  0  0  0  0  0  0  0  0  0
   -0.9983    9.4742   26.0333 C   0  0  0  0  0  0  0  0  0  0  0  0
   -0.6308    8.5812   27.5587 Cl  0  0  0  0  0  0  0  0  0  0  0  0
   -4.4780   10.3750   17.8554 C   0  0  0  0  0  0  0  0  0  0  0  0
   -4.9675    9.4887   18.9943 C   0  0  0  0  0  0  0  0  0  0  0  0
   -5.0835    8.0153   18.6511 C   0  0  0  0  0  0  0  0  0  0  0  0
   -6.4588    7.4816   18.7214 N   0  0  0  0  0  0  0  0  0  0  0  0
   -6.4976    6.0185   18.7909 C   0  0  0  0  0  0  0  0  0  0  0  0
   -7.0372    7.9769   19.9687 C   0  0  0  0  0  0  0  0  0  0  0  0
   -7.2980    7.9560   17.5991 C   0  0  0  0  0  0  0  0  0  0  0  0
   -5.8704    7.9847   19.3855 H   0  0  0  0  0  0  0  0  0  0  0  0
  1  2  2  0  0  0
  2  3  1  0  0  0
  2  4  1  0  0  0
  3 25  1  0  0  0
  3 12  1  0  0  0
 25 26  1  0  0  0
 26 27  1  0  0  0
 27 28  1  0  0  0
 28 29  1  0  0  0
 28 30  1  0  0  0
 28 31  1  0  0  0
  4  5  1  0  0  0
  4 11  1  0  0  0
  5  6  1  0  0  0
  5 14  1  0  0  0
  6  7  1  0  0  0
  6 10  1  0  0  0
  7  8  1  0  0  0
  8  9  1  0  0  0
  9 10  1  0  0  0
 10 11  1  0  0  0
 11 12  1  0  0  0
 12 13  2  0  0  0
 14 15  1  0  0  0
 14 16  2  0  0  0
 15 18  2  0  0  0
 16 17  1  0  0  0
 17 18  1  0  0  0
 18 19  1  0  0  0
 19 20  2  0  0  0
 19 22  1  0  0  0
 20 21  1  0  0  0
 21 23  2  0  0  0
 22 23  1  0  0  0
 23 24  1  0  0  0
 28 32  1  0  0  0
M  END
> <minimizedAffinity>
-8.05687

$$$$
2JKH_BI7_A_1244


 32 36  0  0  0  0  0  0  0  0999 V2000
   -1.8589   11.3237   19.8196 O   0  0  0  0  0  0  0  0  0  0  0  0
   -1.3002   11.2702   20.9157 C   0  0  0  0  0  0  0  0  0  0  0  0
   -0.0563   11.8160   21.1172 N   0  0  0  0  0  0  0  0  0  0  0  0
   -1.8217   10.5627   22.1443 C   0  0  0  0  0  0  0  0  0  0  0  0
   -3.2435   10.8890   22.6072 C   0  0  0  0  0  0  0  0  0  0  0  0
   -3.1351   12.0758   23.4716 N   0  0  0  0  0  0  0  0  0  0  0  0
   -4.1701   12.0738   24.5197 C   0  0  0  0  0  0  0  0  0  0  0  0
   -3.5789   11.3728   25.7406 C   0  0  0  0  0  0  0  0  0  0  0  0
   -2.0808   11.2376   25.4842 C   0  0  0  0  0  0  0  0  0  0  0  0
   -1.8212   11.9275   24.1432 C   0  0  0  0  0  0  0  0  0  0  0  0
   -0.9236   11.0932   23.2493 C   0  0  0  0  0  0  0  0  0  0  0  0
    0.0830   11.9056   22.4891 C   0  0  0  0  0  0  0  0  0  0  0  0
    0.9805   12.5632   23.0064 O   0  0  0  0  0  0  0  0  0  0  0  0
   -4.2366   10.8178   21.5001 C   0  0  0  0  0  0  0  0  0  0  0  0
   -4.5344    9.6095   20.8302 C   0  0  0  0  0  0  0  0  0  0  0  0
   -4.9691   11.8690   21.0597 N   0  0  0  0  0  0  0  0  0  0  0  0
   -5.7866   11.3212   20.0304 O   0  0  0  0  0  0  0  0  0  0  0  0
   -5.4761   10.0181   19.8746 C   0  0  0  0  0  0  0  0  0  0  0  0
   -6.1985    9.2056   19.0069 C   0  0  0  0  0  0  0  0  0  0  0  0
   -6.5299    7.8656   19.1644 C   0  0  0  0  0  0  0  0  0  0  0  0
   -7.3368    7.4385   18.1092 C   0  0  0  0  0  0  0  0  0  0  0  0
   -6.8150   10.0217   17.6034 S   0  0  0  0  0  0  0  0  0  0  0  0
   -7.5574    8.5092   17.2545 C   0  0  0  0  0  0  0  0  0  0  0  0
   -8.5619    8.4111   15.7576 Cl  0  0  0  0  0  0  0  0  0  0  0  0
    0.2825   13.0210   20.3303 C   0  0  0  0  0  0  0  0  0  0  0  0
   -1.0556   13.7500   20.3107 C   0  0  0  0  0  0  0  0  0  0  0  0
   -1.0988   14.9796   19.4228 C   0  0  0  0  0  0  0  0  0  0  0  0
   -2.1706   14.9581   18.4069 N   0  0  0  0  0  0  0  0  0  0  0  0
   -3.5094   14.8661   18.9953 C   0  0  0  0  0  0  0  0  0  0  0  0
   -2.1076   16.2379   17.7042 C   0  0  0  0  0  0  0  0  0  0  0  0
   -1.9784   13.8747   17.4179 C   0  0  0  0  0  0  0  0  0  0  0  0
   -1.5410   15.6872   18.7421 H   0  0  0  0  0  0  0  0  0  0  0  0
  1  2  2  0  0  0
  2  3  1  0  0  0
  2  4  1  0  0  0
  3 25  1  0  0  0
  3 12  1  0  0  0
 25 26  1  0  0  0
 26 27  1  0  0  0
 27 28  1  0  0  0
 28 29  1  0  0  0
 28 30  1  0  0  0
 28 31  1  0  0  0
  4  5  1  0  0  0
  4 11  1  0  0  0
  5  6  1  0  0  0
  5 14  1  0  0  0
  6  7  1  0  0  0
  6 10  1  0  0  0
  7  8  1  0  0  0
  8  9  1  0  0  0
  9 10  1  0  0  0
 10 11  1  0  0  0
 11 12  1  0  0  0
 12 13  2  0  0  0
 14 15  1  0  0  0
 14 16  2  0  0  0
 15 18  2  0  0  0
 16 17  1  0  0  0
 17 18  1  0  0  0
 18 19  1  0  0  0
 19 20  2  0  0  0
 19 22  1  0  0  0
 20 21  1  0  0  0
 21 23  2  0  0  0
 22 23  1  0  0  0
 23 24  1  0  0  0
 28 32  1  0  0  0
M  END
> <minimizedAffinity>
-7.70069

$$$$
2JKH_BI7_A_1244


 32 36  0  0  0  0  0  0  0  0999 V2000
   -5.8927   12.5205   21.2791 O   0  0  0  0  0  0  0  0  0  0  0  0
   -5.0065   12.8888   22.0506 C   0  0  0  0  0  0  0  0  0  0  0  0
   -5.2964   13.3646   23.3058 N   0  0  0  0  0  0  0  0  0  0  0  0
   -3.5295   12.9543   21.7397 C   0  0  0  0  0  0  0  0  0  0  0  0
   -2.8614   11.6974   21.1776 C   0  0  0  0  0  0  0  0  0  0  0  0
   -2.4685   10.8829   22.3393 N   0  0  0  0  0  0  0  0  0  0  0  0
   -1.2543   10.0974   22.0593 C   0  0  0  0  0  0  0  0  0  0  0  0
   -0.0576   10.9408   22.4931 C   0  0  0  0  0  0  0  0  0  0  0  0
   -0.6150   12.1041   23.3081 C   0  0  0  0  0  0  0  0  0  0  0  0
   -2.1257   11.8733   23.3886 C   0  0  0  0  0  0  0  0  0  0  0  0
   -2.9017   13.1465   23.1100 C   0  0  0  0  0  0  0  0  0  0  0  0
   -4.0999   13.3211   23.9959 C   0  0  0  0  0  0  0  0  0  0  0  0
   -4.0511   13.4561   25.2144 O   0  0  0  0  0  0  0  0  0  0  0  0
   -3.6128   11.1128   20.0327 C   0  0  0  0  0  0  0  0  0  0  0  0
   -4.3435    9.9084   20.1459 C   0  0  0  0  0  0  0  0  0  0  0  0
   -3.7055   11.6825   18.8069 N   0  0  0  0  0  0  0  0  0  0  0  0
   -4.5351   10.7921   18.0674 O   0  0  0  0  0  0  0  0  0  0  0  0
   -4.8476    9.7379   18.8483 C   0  0  0  0  0  0  0  0  0  0  0  0
   -5.7391    8.7617   18.4156 C   0  0  0  0  0  0  0  0  0  0  0  0
   -6.9187    8.9346   17.7024 C   0  0  0  0  0  0  0  0  0  0  0  0
   -7.4809    7.6968   17.3877 C   0  0  0  0  0  0  0  0  0  0  0  0
   -5.2423    7.1328   18.7560 S   0  0  0  0  0  0  0  0  0  0  0  0
   -6.6572    6.6946   17.8803 C   0  0  0  0  0  0  0  0  0  0  0  0
   -6.9937    4.9312   17.6891 Cl  0  0  0  0  0  0  0  0  0  0  0  0
   -6.4801   12.7929   23.9824 C   0  0  0  0  0  0  0  0  0  0  0  0
   -7.3953   14.0089   24.0597 C   0  0  0  0  0  0  0  0  0  0  0  0
   -7.1823   14.8912   25.2756 C   0  0  0  0  0  0  0  0  0  0  0  0
   -7.4936   16.3177   25.0532 N   0  0  0  0  0  0  0  0  0  0  0  0
   -8.9333   16.5899   25.0416 C   0  0  0  0  0  0  0  0  0  0  0  0
   -6.9368   17.0500   26.1888 C   0  0  0  0  0  0  0  0  0  0  0  0
   -6.8716   16.8367   23.8152 C   0  0  0  0  0  0  0  0  0  0  0  0
   -7.1022   15.8033   25.8423 H   0  0  0  0  0  0  0  0  0  0  0  0
  1  2  2  0  0  0
  2  3  1  0  0  0
  2  4  1  0  0  0
  3 25  1  0  0  0
  3 12  1  0  0  0
 25 26  1  0  0  0
 26 27  1  0  0  0
 27 28  1  0  0  0
 28 29  1  0  0  0
 28 30  1  0  0  0
 28 31  1  0  0  0
  4  5  1  0  0  0
  4 11  1  0  0  0
  5  6  1  0  0  0
  5 14  1  0  0  0
  6  7  1  0  0  0
  6 10  1  0  0  0
  7  8  1  0  0  0
  8  9  1  0  0  0
  9 10  1  0  0  0
 10 11  1  0  0  0
 11 12  1  0  0  0
 12 13  2  0  0  0
 14 15  1  0  0  0
 14 16  2  0  0  0
 15 18  2  0  0  0
 16 17  1  0  0  0
 17 18  1  0  0  0
 18 19  1  0  0  0
 19 20  2  0  0  0
 19 22  1  0  0  0
 20 21  1  0  0  0
 21 23  2  0  0  0
 22 23  1  0  0  0
 23 24  1  0  0  0
 28 32  1  0  0  0
M  END
> <minimizedAffinity>
-7.55659

$$$$
2JKH_BI7_A_1244


 32 36  0  0  0  0  0  0  0  0999 V2000
   -4.8404   10.3205   19.6710 O   0  0  0  0  0  0  0  0  0  0  0  0
   -4.5116   10.9888   18.6903 C   0  0  0  0  0  0  0  0  0  0  0  0
   -5.0111   10.7247   17.4387 N   0  0  0  0  0  0  0  0  0  0  0  0
   -3.4941   12.1054   18.6777 C   0  0  0  0  0  0  0  0  0  0  0  0
   -3.6567   13.2316   19.7012 C   0  0  0  0  0  0  0  0  0  0  0  0
   -4.5754   14.2104   19.0969 N   0  0  0  0  0  0  0  0  0  0  0  0
   -4.2752   15.5799   19.5487 C   0  0  0  0  0  0  0  0  0  0  0  0
   -3.2896   16.1820   18.5499 C   0  0  0  0  0  0  0  0  0  0  0  0
   -3.2586   15.2440   17.3468 C   0  0  0  0  0  0  0  0  0  0  0  0
   -4.2831   14.1469   17.6443 C   0  0  0  0  0  0  0  0  0  0  0  0
   -3.7334   12.7683   17.3314 C   0  0  0  0  0  0  0  0  0  0  0  0
   -4.7386   11.8557   16.6929 C   0  0  0  0  0  0  0  0  0  0  0  0
   -5.2554   12.0474   15.5967 O   0  0  0  0  0  0  0  0  0  0  0  0
   -3.8589   12.7224   21.0856 C   0  0  0  0  0  0  0  0  0  0  0  0
   -2.8132   12.1368   21.8345 C   0  0  0  0  0  0  0  0  0  0  0  0
   -5.0263   12.8036   21.7684 N   0  0  0  0  0  0  0  0  0  0  0  0
   -4.7332   12.2246   23.0359 O   0  0  0  0  0  0  0  0  0  0  0  0
   -3.4560   11.7914   23.0321 C   0  0  0  0  0  0  0  0  0  0  0  0
   -2.8673   11.2785   24.1833 C   0  0  0  0  0  0  0  0  0  0  0  0
   -3.3974   11.2268   25.4664 C   0  0  0  0  0  0  0  0  0  0  0  0
   -2.5247   10.5571   26.3249 C   0  0  0  0  0  0  0  0  0  0  0  0
   -1.3119   10.5482   23.9311 S   0  0  0  0  0  0  0  0  0  0  0  0
   -1.4151   10.1451   25.6006 C   0  0  0  0  0  0  0  0  0  0  0  0
   -0.0331    9.2271   26.3126 Cl  0  0  0  0  0  0  0  0  0  0  0  0
   -6.3878   10.1907   17.3654 C   0  0  0  0  0  0  0  0  0  0  0  0
   -6.1331    8.7797   16.8491 C   0  0  0  0  0  0  0  0  0  0  0  0
   -7.0093    7.7065   17.4675 C   0  0  0  0  0  0  0  0  0  0  0  0
   -6.3358    6.8923   18.4995 N   0  0  0  0  0  0  0  0  0  0  0  0
   -4.8813    7.0697   18.5032 C   0  0  0  0  0  0  0  0  0  0  0  0
   -6.8206    7.3703   19.7926 C   0  0  0  0  0  0  0  0  0  0  0  0
   -6.6688    5.4558   18.3801 C   0  0  0  0  0  0  0  0  0  0  0  0
   -6.9271    7.7224   18.5411 H   0  0  0  0  0  0  0  0  0  0  0  0
  1  2  2  0  0  0
  2  3  1  0  0  0
  2  4  1  0  0  0
  3 25  1  0  0  0
  3 12  1  0  0  0
 25 26  1  0  0  0
 26 27  1  0  0  0
 27 28  1  0  0  0
 28 29  1  0  0  0
 28 30  1  0  0  0
 28 31  1  0  0  0
  4  5  1  0  0  0
  4 11  1  0  0  0
  5  6  1  0  0  0
  5 14  1  0  0  0
  6  7  1  0  0  0
  6 10  1  0  0  0
  7  8  1  0  0  0
  8  9  1  0  0  0
  9 10  1  0  0  0
 10 11  1  0  0  0
 11 12  1  0  0  0
 12 13  2  0  0  0
 14 15  1  0  0  0
 14 16  2  0  0  0
 15 18  2  0  0  0
 16 17  1  0  0  0
 17 18  1  0  0  0
 18 19  1  0  0  0
 19 20  2  0  0  0
 19 22  1  0  0  0
 20 21  1  0  0  0
 21 23  2  0  0  0
 22 23  1  0  0  0
 23 24  1  0  0  0
 28 32  1  0  0  0
M  END
> <minimizedAffinity>
-7.51977

$$$$
2JKH_BI7_A_1244


 32 36  0  0  0  0  0  0  0  0999 V2000
   -6.4769   12.0784   22.9708 O   0  0  0  0  0  0  0  0  0  0  0  0
   -6.0889   13.2403   23.0965 C   0  0  0  0  0  0  0  0  0  0  0  0
   -5.5693   13.7017   24.2809 N   0  0  0  0  0  0  0  0  0  0  0  0
   -6.1851   14.3264   22.0508 C   0  0  0  0  0  0  0  0  0  0  0  0
   -5.6261   14.0283   20.6576 C   0  0  0  0  0  0  0  0  0  0  0  0
   -4.1920   14.3569   20.7083 N   0  0  0  0  0  0  0  0  0  0  0  0
   -3.7013   14.8256   19.4010 C   0  0  0  0  0  0  0  0  0  0  0  0
   -3.8482   16.3453   19.3789 C   0  0  0  0  0  0  0  0  0  0  0  0
   -4.1507   16.7761   20.8111 C   0  0  0  0  0  0  0  0  0  0  0  0
   -4.1053   15.4980   21.6514 C   0  0  0  0  0  0  0  0  0  0  0  0
   -5.2811   15.4141   22.6061 C   0  0  0  0  0  0  0  0  0  0  0  0
   -4.9152   14.8753   23.9577 C   0  0  0  0  0  0  0  0  0  0  0  0
   -4.1444   15.4225   24.7400 O   0  0  0  0  0  0  0  0  0  0  0  0
   -6.1109   12.7306   20.1118 C   0  0  0  0  0  0  0  0  0  0  0  0
   -5.2519   11.6251   19.9191 C   0  0  0  0  0  0  0  0  0  0  0  0
   -7.4009   12.4690   19.7909 N   0  0  0  0  0  0  0  0  0  0  0  0
   -7.3854   11.1156   19.3482 O   0  0  0  0  0  0  0  0  0  0  0  0
   -6.1156   10.6624   19.3767 C   0  0  0  0  0  0  0  0  0  0  0  0
   -5.8204    9.3322   19.0969 C   0  0  0  0  0  0  0  0  0  0  0  0
   -4.5709    8.7501   18.9238 C   0  0  0  0  0  0  0  0  0  0  0  0
   -4.6986    7.3724   18.7426 C   0  0  0  0  0  0  0  0  0  0  0  0
   -7.2043    8.2842   19.0451 S   0  0  0  0  0  0  0  0  0  0  0  0
   -6.0429    7.0358   18.8146 C   0  0  0  0  0  0  0  0  0  0  0  0
   -6.6683    5.3505   18.6470 Cl  0  0  0  0  0  0  0  0  0  0  0  0
   -4.8275   12.7294   25.1115 C   0  0  0  0  0  0  0  0  0  0  0  0
   -3.8029   12.2048   24.1128 C   0  0  0  0  0  0  0  0  0  0  0  0
   -2.3648   12.2432   24.5949 C   0  0  0  0  0  0  0  0  0  0  0  0
   -1.5133   11.1651   24.0529 N   0  0  0  0  0  0  0  0  0  0  0  0
   -2.0922   10.5248   22.8689 C   0  0  0  0  0  0  0  0  0  0  0  0
   -0.2654   11.7928   23.6232 C   0  0  0  0  0  0  0  0  0  0  0  0
   -1.1923   10.1431   25.0733 C   0  0  0  0  0  0  0  0  0  0  0  0
   -1.4298   12.1816   24.0643 H   0  0  0  0  0  0  0  0  0  0  0  0
  1  2  2  0  0  0
  2  3  1  0  0  0
  2  4  1  0  0  0
  3 25  1  0  0  0
  3 12  1  0  0  0
 25 26  1  0  0  0
 26 27  1  0  0  0
 27 28  1  0  0  0
 28 29  1  0  0  0
 28 30  1  0  0  0
 28 31  1  0  0  0
  4  5  1  0  0  0
  4 11  1  0  0  0
  5  6  1  0  0  0
  5 14  1  0  0  0
  6  7  1  0  0  0
  6 10  1  0  0  0
  7  8  1  0  0  0
  8  9  1  0  0  0
  9 10  1  0  0  0
 10 11  1  0  0  0
 11 12  1  0  0  0
 12 13  2  0  0  0
 14 15  1  0  0  0
 14 16  2  0  0  0
 15 18  2  0  0  0
 16 17  1  0  0  0
 17 18  1  0  0  0
 18 19  1  0  0  0
 19 20  2  0  0  0
 19 22  1  0  0  0
 20 21  1  0  0  0
 21 23  2  0  0  0
 22 23  1  0  0  0
 23 24  1  0  0  0
 28 32  1  0  0  0
M  END
> <minimizedAffinity>
-7.46122

$$$$
