1MU8_CDB_B_248


 36 38  0  0  0  0  0  0  0  0999 V2000
   18.2912  -15.6986   22.7105 C   0  0  0  0  0  0  0  0  0  0  0  0
   17.6893  -14.3573   22.4242 C   0  0  0  0  0  0  0  0  0  0  0  0
   18.3664  -13.5642   21.5041 N   0  0  0  0  0  0  0  0  0  0  0  0
   19.5514  -14.0497   20.8334 C   0  0  0  0  0  0  0  0  0  0  0  0
   20.0460  -15.3310   21.1536 C   0  0  0  0  0  0  0  0  0  0  0  0
   19.4291  -16.0831   22.0706 N   0  0  0  0  0  0  0  0  0  0  0  0
   16.6532  -13.9644   22.9641 O   0  0  0  0  0  0  0  0  0  0  0  0
   20.2880  -13.2571   19.8225 C   0  0  0  0  0  0  0  0  0  0  0  0
   19.8177  -16.9596   22.2944 H   0  0  0  0  0  0  0  0  0  0  0  0
   17.6729  -16.4945   23.6516 N   0  0  0  0  0  0  0  0  0  0  0  0
   16.6921  -16.4414   23.7185 H   0  0  0  0  0  0  0  0  0  0  0  0
   18.3696  -17.4199   24.5664 C   0  0  0  0  0  0  0  0  0  0  0  0
   18.6409  -16.8105   25.9395 C   0  0  0  0  0  0  0  0  0  0  0  0
   17.5169  -16.1761   26.3584 F   0  0  0  0  0  0  0  0  0  0  0  0
   18.8589  -17.8536   26.7550 F   0  0  0  0  0  0  0  0  0  0  0  0
   20.9736  -16.3283   25.1199 N   0  0  0  0  0  0  0  0  0  0  0  0
   19.8976  -15.9351   25.9477 C   0  0  0  0  0  0  0  0  0  0  0  0
   19.9598  -14.6865   26.6996 C   0  0  0  0  0  0  0  0  0  0  0  0
   21.1632  -13.8964   26.5263 C   0  0  0  0  0  0  0  0  0  0  0  0
   22.2257  -14.3296   25.6277 C   0  0  0  0  0  0  0  0  0  0  0  0
   22.1257  -15.5873   24.9107 C   0  0  0  0  0  0  0  0  0  0  0  0
   20.8989  -17.1939   24.6570 H   0  0  0  0  0  0  0  0  0  0  0  0
   17.8106  -12.2243   21.1931 C   0  0  0  0  0  0  0  0  0  0  0  0
   16.4286  -12.3721   20.5721 C   0  0  0  0  0  0  0  0  0  0  0  0
   15.4166  -11.7231   21.2167 N   0  0  0  0  0  0  0  0  0  0  0  0
   16.2793  -13.0281   19.5476 O   0  0  0  0  0  0  0  0  0  0  0  0
   15.6172  -11.1704   22.0063 H   0  0  0  0  0  0  0  0  0  0  0  0
   14.0207  -11.8415   20.7411 C   0  0  0  0  0  0  0  0  0  0  0  0
   12.9783  -11.7298   21.8558 C   0  0  0  0  0  0  0  0  0  0  0  0
   12.9074  -10.5546   22.6493 C   0  0  0  0  0  0  0  0  0  0  0  0
   11.9478  -10.4661   23.7170 C   0  0  0  0  0  0  0  0  0  0  0  0
   11.0561  -11.5653   23.9908 C   0  0  0  0  0  0  0  0  0  0  0  0
   12.0953  -12.7613   22.1391 N   0  0  0  0  0  0  0  0  0  0  0  0
   13.7491   -9.5485   22.3778 F   0  0  0  0  0  0  0  0  0  0  0  0
   11.1532  -12.7316   23.1560 C   0  0  0  0  0  0  0  0  0  0  0  0
   11.8495   -9.2377   24.5517 C   0  0  0  0  0  0  0  0  0  0  0  0
 16 17  2  0  0  0
 16 21  1  0  0  0
 17 18  1  0  0  0
 17 13  1  0  0  0
 18 19  2  0  0  0
 19 20  1  0  0  0
 20 21  2  0  0  0
 13 12  1  0  0  0
 13 14  1  0  0  0
 13 15  1  0  0  0
 12 10  1  0  0  0
 10  1  1  0  0  0
  1  2  1  0  0  0
  1  6  2  0  0  0
  2  3  1  0  0  0
  2  7  2  0  0  0
  3  4  1  0  0  0
  3 23  1  0  0  0
  4  5  2  0  0  0
  4  8  1  0  0  0
  5  6  1  0  0  0
 23 24  1  0  0  0
 24 25  1  0  0  0
 24 26  2  0  0  0
 25 28  1  0  0  0
 28 29  1  0  0  0
 29 30  2  0  0  0
 29 33  1  0  0  0
 30 31  1  0  0  0
 30 34  1  0  0  0
 31 32  2  0  0  0
 31 36  1  0  0  0
 32 35  1  0  0  0
 33 35  2  0  0  0
 16 22  1  0  0  0
 10 11  1  0  0  0
  6  9  1  0  0  0
 25 27  1  0  0  0
M  CHG 1   6   1
M  CHG 1  16   1
M  END
> <minimizedAffinity>
-9.42205

$$$$
1MU8_CDB_B_248


 36 38  0  0  0  0  0  0  0  0999 V2000
   16.1651  -16.6628   22.2503 C   0  0  0  0  0  0  0  0  0  0  0  0
   15.8432  -15.9621   20.9664 C   0  0  0  0  0  0  0  0  0  0  0  0
   14.5352  -16.0863   20.5103 N   0  0  0  0  0  0  0  0  0  0  0  0
   13.5457  -16.8096   21.2770 C   0  0  0  0  0  0  0  0  0  0  0  0
   13.9306  -17.4314   22.4828 C   0  0  0  0  0  0  0  0  0  0  0  0
   15.1962  -17.3572   22.9069 N   0  0  0  0  0  0  0  0  0  0  0  0
   16.6779  -15.3080   20.3382 O   0  0  0  0  0  0  0  0  0  0  0  0
   12.1338  -16.9417   20.8509 C   0  0  0  0  0  0  0  0  0  0  0  0
   15.4396  -17.8288   23.7361 H   0  0  0  0  0  0  0  0  0  0  0  0
   17.4636  -16.6003   22.7102 N   0  0  0  0  0  0  0  0  0  0  0  0
   18.1597  -17.0368   22.1678 H   0  0  0  0  0  0  0  0  0  0  0  0
   17.8894  -15.9288   23.9537 C   0  0  0  0  0  0  0  0  0  0  0  0
   19.1448  -15.0792   23.7737 C   0  0  0  0  0  0  0  0  0  0  0  0
   19.2476  -14.2340   24.8303 F   0  0  0  0  0  0  0  0  0  0  0  0
   20.1702  -15.9429   23.8299 F   0  0  0  0  0  0  0  0  0  0  0  0
   18.2661  -13.3388   22.1784 N   0  0  0  0  0  0  0  0  0  0  0  0
   19.1860  -14.3869   22.4080 C   0  0  0  0  0  0  0  0  0  0  0  0
   20.1955  -14.7183   21.4084 C   0  0  0  0  0  0  0  0  0  0  0  0
   20.1946  -13.9064   20.2070 C   0  0  0  0  0  0  0  0  0  0  0  0
   19.2486  -12.8105   20.0393 C   0  0  0  0  0  0  0  0  0  0  0  0
   18.2523  -12.5269   21.0557 C   0  0  0  0  0  0  0  0  0  0  0  0
   17.5836  -13.1731   22.8683 H   0  0  0  0  0  0  0  0  0  0  0  0
   14.1710  -15.4138   19.2391 C   0  0  0  0  0  0  0  0  0  0  0  0
   14.1288  -13.9065   19.4482 C   0  0  0  0  0  0  0  0  0  0  0  0
   13.2722  -13.4658   20.4140 N   0  0  0  0  0  0  0  0  0  0  0  0
   14.8472  -13.1706   18.7816 O   0  0  0  0  0  0  0  0  0  0  0  0
   12.7629  -14.1175   20.9479 H   0  0  0  0  0  0  0  0  0  0  0  0
   13.1008  -12.0184   20.6672 C   0  0  0  0  0  0  0  0  0  0  0  0
   12.3872  -11.7032   21.9836 C   0  0  0  0  0  0  0  0  0  0  0  0
   12.6550  -10.4869   22.6653 C   0  0  0  0  0  0  0  0  0  0  0  0
   12.0067  -10.2086   23.9187 C   0  0  0  0  0  0  0  0  0  0  0  0
   11.0861  -11.1585   24.4918 C   0  0  0  0  0  0  0  0  0  0  0  0
   11.4853  -12.5868   22.5579 N   0  0  0  0  0  0  0  0  0  0  0  0
   13.5171   -9.6221   22.1144 F   0  0  0  0  0  0  0  0  0  0  0  0
   10.8343  -12.3718   23.7631 C   0  0  0  0  0  0  0  0  0  0  0  0
   12.2648   -8.9336   24.6421 C   0  0  0  0  0  0  0  0  0  0  0  0
 16 17  2  0  0  0
 16 21  1  0  0  0
 17 18  1  0  0  0
 17 13  1  0  0  0
 18 19  2  0  0  0
 19 20  1  0  0  0
 20 21  2  0  0  0
 13 12  1  0  0  0
 13 14  1  0  0  0
 13 15  1  0  0  0
 12 10  1  0  0  0
 10  1  1  0  0  0
  1  2  1  0  0  0
  1  6  2  0  0  0
  2  3  1  0  0  0
  2  7  2  0  0  0
  3  4  1  0  0  0
  3 23  1  0  0  0
  4  5  2  0  0  0
  4  8  1  0  0  0
  5  6  1  0  0  0
 23 24  1  0  0  0
 24 25  1  0  0  0
 24 26  2  0  0  0
 25 28  1  0  0  0
 28 29  1  0  0  0
 29 30  2  0  0  0
 29 33  1  0  0  0
 30 31  1  0  0  0
 30 34  1  0  0  0
 31 32  2  0  0  0
 31 36  1  0  0  0
 32 35  1  0  0  0
 33 35  2  0  0  0
 16 22  1  0  0  0
 10 11  1  0  0  0
  6  9  1  0  0  0
 25 27  1  0  0  0
M  CHG 1   6   1
M  CHG 1  16   1
M  END
> <minimizedAffinity>
-8.85074

$$$$
1MU8_CDB_B_248


 36 38  0  0  0  0  0  0  0  0999 V2000
   13.0292  -15.1732   22.0776 C   0  0  0  0  0  0  0  0  0  0  0  0
   14.4600  -15.5154   21.7964 C   0  0  0  0  0  0  0  0  0  0  0  0
   14.6959  -16.7781   21.2634 N   0  0  0  0  0  0  0  0  0  0  0  0
   13.6021  -17.6716   20.9551 C   0  0  0  0  0  0  0  0  0  0  0  0
   12.2820  -17.2662   21.2413 C   0  0  0  0  0  0  0  0  0  0  0  0
   12.0475  -16.0729   21.7966 N   0  0  0  0  0  0  0  0  0  0  0  0
   15.3868  -14.7336   22.0181 O   0  0  0  0  0  0  0  0  0  0  0  0
   13.7993  -19.0115   20.3564 C   0  0  0  0  0  0  0  0  0  0  0  0
   11.1177  -15.8329   22.0132 H   0  0  0  0  0  0  0  0  0  0  0  0
   12.7605  -13.9473   22.6490 N   0  0  0  0  0  0  0  0  0  0  0  0
   13.1639  -13.7564   23.5265 H   0  0  0  0  0  0  0  0  0  0  0  0
   11.9139  -12.8997   22.0453 C   0  0  0  0  0  0  0  0  0  0  0  0
   12.7002  -11.6542   21.6446 C   0  0  0  0  0  0  0  0  0  0  0  0
   11.8272  -10.7256   21.1788 F   0  0  0  0  0  0  0  0  0  0  0  0
   13.2347  -11.1887   22.7840 F   0  0  0  0  0  0  0  0  0  0  0  0
   15.1648  -11.7220   21.1281 N   0  0  0  0  0  0  0  0  0  0  0  0
   13.8479  -11.9769   20.6830 C   0  0  0  0  0  0  0  0  0  0  0  0
   13.6130  -12.6157   19.3927 C   0  0  0  0  0  0  0  0  0  0  0  0
   14.7952  -12.9730   18.6329 C   0  0  0  0  0  0  0  0  0  0  0  0
   16.1317  -12.7238   19.1579 C   0  0  0  0  0  0  0  0  0  0  0  0
   16.3163  -12.0724   20.4415 C   0  0  0  0  0  0  0  0  0  0  0  0
   15.2722  -11.2607   21.9912 H   0  0  0  0  0  0  0  0  0  0  0  0
   16.0988  -17.1638   20.9737 C   0  0  0  0  0  0  0  0  0  0  0  0
   16.7790  -17.6300   22.2533 C   0  0  0  0  0  0  0  0  0  0  0  0
   17.5655  -16.7063   22.8770 N   0  0  0  0  0  0  0  0  0  0  0  0
   16.5926  -18.7665   22.6724 O   0  0  0  0  0  0  0  0  0  0  0  0
   17.6287  -15.7941   22.5121 H   0  0  0  0  0  0  0  0  0  0  0  0
   18.3245  -17.0615   24.0961 C   0  0  0  0  0  0  0  0  0  0  0  0
   19.4700  -16.0972   24.4117 C   0  0  0  0  0  0  0  0  0  0  0  0
   19.5647  -15.5003   25.6965 C   0  0  0  0  0  0  0  0  0  0  0  0
   20.6242  -14.5696   25.9793 C   0  0  0  0  0  0  0  0  0  0  0  0
   21.5925  -14.2347   24.9652 C   0  0  0  0  0  0  0  0  0  0  0  0
   20.4274  -15.7621   23.4657 N   0  0  0  0  0  0  0  0  0  0  0  0
   18.6508  -15.8246   26.6207 F   0  0  0  0  0  0  0  0  0  0  0  0
   21.4670  -14.8707   23.6822 C   0  0  0  0  0  0  0  0  0  0  0  0
   20.7476  -13.9431   27.3239 C   0  0  0  0  0  0  0  0  0  0  0  0
 16 17  2  0  0  0
 16 21  1  0  0  0
 17 18  1  0  0  0
 17 13  1  0  0  0
 18 19  2  0  0  0
 19 20  1  0  0  0
 20 21  2  0  0  0
 13 12  1  0  0  0
 13 14  1  0  0  0
 13 15  1  0  0  0
 12 10  1  0  0  0
 10  1  1  0  0  0
  1  2  1  0  0  0
  1  6  2  0  0  0
  2  3  1  0  0  0
  2  7  2  0  0  0
  3  4  1  0  0  0
  3 23  1  0  0  0
  4  5  2  0  0  0
  4  8  1  0  0  0
  5  6  1  0  0  0
 23 24  1  0  0  0
 24 25  1  0  0  0
 24 26  2  0  0  0
 25 28  1  0  0  0
 28 29  1  0  0  0
 29 30  2  0  0  0
 29 33  1  0  0  0
 30 31  1  0  0  0
 30 34  1  0  0  0
 31 32  2  0  0  0
 31 36  1  0  0  0
 32 35  1  0  0  0
 33 35  2  0  0  0
 16 22  1  0  0  0
 10 11  1  0  0  0
  6  9  1  0  0  0
 25 27  1  0  0  0
M  CHG 1   6   1
M  CHG 1  16   1
M  END
> <minimizedAffinity>
-8.71099

$$$$
1MU8_CDB_B_248


 36 38  0  0  0  0  0  0  0  0999 V2000
   16.5472  -15.9477   21.8050 C   0  0  0  0  0  0  0  0  0  0  0  0
   16.0244  -15.1605   20.6430 C   0  0  0  0  0  0  0  0  0  0  0  0
   14.6982  -15.3901   20.2928 N   0  0  0  0  0  0  0  0  0  0  0  0
   13.8743  -16.3004   21.0559 C   0  0  0  0  0  0  0  0  0  0  0  0
   14.4429  -16.9941   22.1442 C   0  0  0  0  0  0  0  0  0  0  0  0
   15.7294  -16.8157   22.4607 N   0  0  0  0  0  0  0  0  0  0  0  0
   16.7167  -14.3511   20.0226 O   0  0  0  0  0  0  0  0  0  0  0  0
   12.4490  -16.5532   20.7436 C   0  0  0  0  0  0  0  0  0  0  0  0
   16.1042  -17.3386   23.2059 H   0  0  0  0  0  0  0  0  0  0  0  0
   17.8710  -15.7806   22.1528 N   0  0  0  0  0  0  0  0  0  0  0  0
   18.3305  -16.5431   22.5732 H   0  0  0  0  0  0  0  0  0  0  0  0
   18.6517  -14.5456   21.9428 C   0  0  0  0  0  0  0  0  0  0  0  0
   20.1596  -14.7749   22.0037 C   0  0  0  0  0  0  0  0  0  0  0  0
   20.4400  -15.9569   21.3991 F   0  0  0  0  0  0  0  0  0  0  0  0
   20.6992  -13.7918   21.2668 F   0  0  0  0  0  0  0  0  0  0  0  0
   22.0991  -14.8233   23.6105 N   0  0  0  0  0  0  0  0  0  0  0  0
   20.7082  -14.6512   23.4284 C   0  0  0  0  0  0  0  0  0  0  0  0
   19.8558  -14.2727   24.5502 C   0  0  0  0  0  0  0  0  0  0  0  0
   20.5243  -14.0764   25.8218 C   0  0  0  0  0  0  0  0  0  0  0  0
   21.9686  -14.2276   25.9447 C   0  0  0  0  0  0  0  0  0  0  0  0
   22.7745  -14.6195   24.8032 C   0  0  0  0  0  0  0  0  0  0  0  0
   22.6281  -15.1097   22.8312 H   0  0  0  0  0  0  0  0  0  0  0  0
   14.1379  -14.6372   19.1438 C   0  0  0  0  0  0  0  0  0  0  0  0
   14.0397  -13.1594   19.4958 C   0  0  0  0  0  0  0  0  0  0  0  0
   13.9615  -12.8710   20.8268 N   0  0  0  0  0  0  0  0  0  0  0  0
   14.0500  -12.3121   18.6104 O   0  0  0  0  0  0  0  0  0  0  0  0
   14.0113  -13.5996   21.4870 H   0  0  0  0  0  0  0  0  0  0  0  0
   13.8028  -11.4744   21.2882 C   0  0  0  0  0  0  0  0  0  0  0  0
   12.7952  -11.3128   22.4285 C   0  0  0  0  0  0  0  0  0  0  0  0
   12.7319  -10.0949   23.1555 C   0  0  0  0  0  0  0  0  0  0  0  0
   11.8059   -9.9581   24.2476 C   0  0  0  0  0  0  0  0  0  0  0  0
   10.9404  -11.0515   24.6129 C   0  0  0  0  0  0  0  0  0  0  0  0
   11.9376  -12.3380   22.7992 N   0  0  0  0  0  0  0  0  0  0  0  0
   13.5490   -9.0950   22.7994 F   0  0  0  0  0  0  0  0  0  0  0  0
   11.0284  -12.2624   23.8432 C   0  0  0  0  0  0  0  0  0  0  0  0
   11.7158   -8.6850   25.0136 C   0  0  0  0  0  0  0  0  0  0  0  0
 16 17  2  0  0  0
 16 21  1  0  0  0
 17 18  1  0  0  0
 17 13  1  0  0  0
 18 19  2  0  0  0
 19 20  1  0  0  0
 20 21  2  0  0  0
 13 12  1  0  0  0
 13 14  1  0  0  0
 13 15  1  0  0  0
 12 10  1  0  0  0
 10  1  1  0  0  0
  1  2  1  0  0  0
  1  6  2  0  0  0
  2  3  1  0  0  0
  2  7  2  0  0  0
  3  4  1  0  0  0
  3 23  1  0  0  0
  4  5  2  0  0  0
  4  8  1  0  0  0
  5  6  1  0  0  0
 23 24  1  0  0  0
 24 25  1  0  0  0
 24 26  2  0  0  0
 25 28  1  0  0  0
 28 29  1  0  0  0
 29 30  2  0  0  0
 29 33  1  0  0  0
 30 31  1  0  0  0
 30 34  1  0  0  0
 31 32  2  0  0  0
 31 36  1  0  0  0
 32 35  1  0  0  0
 33 35  2  0  0  0
 16 22  1  0  0  0
 10 11  1  0  0  0
  6  9  1  0  0  0
 25 27  1  0  0  0
M  CHG 1   6   1
M  CHG 1  16   1
M  END
> <minimizedAffinity>
-8.68773

$$$$
1MU8_CDB_B_248


 36 38  0  0  0  0  0  0  0  0999 V2000
   16.2289  -13.6895   21.8380 C   0  0  0  0  0  0  0  0  0  0  0  0
   17.1722  -14.8189   22.1168 C   0  0  0  0  0  0  0  0  0  0  0  0
   18.4525  -14.6943   21.5880 N   0  0  0  0  0  0  0  0  0  0  0  0
   18.8447  -13.5080   20.8608 C   0  0  0  0  0  0  0  0  0  0  0  0
   17.8966  -12.4850   20.6523 C   0  0  0  0  0  0  0  0  0  0  0  0
   16.6497  -12.6151   21.1164 N   0  0  0  0  0  0  0  0  0  0  0  0
   16.8483  -15.8087   22.7761 O   0  0  0  0  0  0  0  0  0  0  0  0
   20.2045  -13.3137   20.3078 C   0  0  0  0  0  0  0  0  0  0  0  0
   16.0032  -11.8973   20.9266 H   0  0  0  0  0  0  0  0  0  0  0  0
   14.9368  -13.7986   22.3072 N   0  0  0  0  0  0  0  0  0  0  0  0
   14.7484  -13.4458   23.2068 H   0  0  0  0  0  0  0  0  0  0  0  0
   13.8148  -14.4041   21.5635 C   0  0  0  0  0  0  0  0  0  0  0  0
   12.8513  -13.3687   20.9893 C   0  0  0  0  0  0  0  0  0  0  0  0
   13.4635  -12.7378   19.9557 F   0  0  0  0  0  0  0  0  0  0  0  0
   11.8226  -14.0750   20.4957 F   0  0  0  0  0  0  0  0  0  0  0  0
   11.4293  -12.9758   23.0312 N   0  0  0  0  0  0  0  0  0  0  0  0
   12.3030  -12.4268   22.0654 C   0  0  0  0  0  0  0  0  0  0  0  0
   12.7342  -11.0366   22.1624 C   0  0  0  0  0  0  0  0  0  0  0  0
   12.2284  -10.2891   23.2973 C   0  0  0  0  0  0  0  0  0  0  0  0
   11.3618  -10.9168   24.2867 C   0  0  0  0  0  0  0  0  0  0  0  0
   10.9475  -12.3000   24.1408 C   0  0  0  0  0  0  0  0  0  0  0  0
   11.1413  -13.9089   22.9062 H   0  0  0  0  0  0  0  0  0  0  0  0
   19.4203  -15.7916   21.8335 C   0  0  0  0  0  0  0  0  0  0  0  0
   20.0853  -15.5974   23.1890 C   0  0  0  0  0  0  0  0  0  0  0  0
   21.2596  -14.9032   23.1792 N   0  0  0  0  0  0  0  0  0  0  0  0
   19.5582  -16.0382   24.2038 O   0  0  0  0  0  0  0  0  0  0  0  0
   21.5992  -14.5322   22.3329 H   0  0  0  0  0  0  0  0  0  0  0  0
   22.0278  -14.7024   24.4274 C   0  0  0  0  0  0  0  0  0  0  0  0
   23.0434  -15.8112   24.7111 C   0  0  0  0  0  0  0  0  0  0  0  0
   22.7702  -16.7905   25.7023 C   0  0  0  0  0  0  0  0  0  0  0  0
   23.7412  -17.8122   25.9888 C   0  0  0  0  0  0  0  0  0  0  0  0
   24.9946  -17.8490   25.2775 C   0  0  0  0  0  0  0  0  0  0  0  0
   24.2535  -15.8864   24.0373 N   0  0  0  0  0  0  0  0  0  0  0  0
   21.6003  -16.7328   26.3521 F   0  0  0  0  0  0  0  0  0  0  0  0
   25.2258  -16.8462   24.2739 C   0  0  0  0  0  0  0  0  0  0  0  0
   23.4680  -18.8549   27.0152 C   0  0  0  0  0  0  0  0  0  0  0  0
 16 17  2  0  0  0
 16 21  1  0  0  0
 17 18  1  0  0  0
 17 13  1  0  0  0
 18 19  2  0  0  0
 19 20  1  0  0  0
 20 21  2  0  0  0
 13 12  1  0  0  0
 13 14  1  0  0  0
 13 15  1  0  0  0
 12 10  1  0  0  0
 10  1  1  0  0  0
  1  2  1  0  0  0
  1  6  2  0  0  0
  2  3  1  0  0  0
  2  7  2  0  0  0
  3  4  1  0  0  0
  3 23  1  0  0  0
  4  5  2  0  0  0
  4  8  1  0  0  0
  5  6  1  0  0  0
 23 24  1  0  0  0
 24 25  1  0  0  0
 24 26  2  0  0  0
 25 28  1  0  0  0
 28 29  1  0  0  0
 29 30  2  0  0  0
 29 33  1  0  0  0
 30 31  1  0  0  0
 30 34  1  0  0  0
 31 32  2  0  0  0
 31 36  1  0  0  0
 32 35  1  0  0  0
 33 35  2  0  0  0
 16 22  1  0  0  0
 10 11  1  0  0  0
  6  9  1  0  0  0
 25 27  1  0  0  0
M  CHG 1   6   1
M  CHG 1  16   1
M  END
> <minimizedAffinity>
-8.66219

$$$$
1MU8_CDB_B_248


 36 38  0  0  0  0  0  0  0  0999 V2000
   16.5007  -16.0134   22.1831 C   0  0  0  0  0  0  0  0  0  0  0  0
   16.4276  -14.6322   21.6087 C   0  0  0  0  0  0  0  0  0  0  0  0
   16.0383  -14.5410   20.2766 N   0  0  0  0  0  0  0  0  0  0  0  0
   15.6764  -15.7217   19.5250 C   0  0  0  0  0  0  0  0  0  0  0  0
   15.7627  -16.9849   20.1460 C   0  0  0  0  0  0  0  0  0  0  0  0
   16.1801  -17.0879   21.4118 N   0  0  0  0  0  0  0  0  0  0  0  0
   16.6930  -13.6237   22.2658 O   0  0  0  0  0  0  0  0  0  0  0  0
   15.2241  -15.6735   18.1158 C   0  0  0  0  0  0  0  0  0  0  0  0
   16.2596  -17.9866   21.8060 H   0  0  0  0  0  0  0  0  0  0  0  0
   16.9272  -16.1468   23.4876 N   0  0  0  0  0  0  0  0  0  0  0  0
   16.4248  -15.6624   24.1821 H   0  0  0  0  0  0  0  0  0  0  0  0
   18.0795  -16.9603   23.9222 C   0  0  0  0  0  0  0  0  0  0  0  0
   18.4210  -16.7716   25.3979 C   0  0  0  0  0  0  0  0  0  0  0  0
   17.3054  -16.3539   26.0478 F   0  0  0  0  0  0  0  0  0  0  0  0
   18.7329  -17.9958   25.8505 F   0  0  0  0  0  0  0  0  0  0  0  0
   20.5318  -15.7199   24.5123 N   0  0  0  0  0  0  0  0  0  0  0  0
   19.6420  -15.8692   25.6001 C   0  0  0  0  0  0  0  0  0  0  0  0
   19.8401  -15.1078   26.8286 C   0  0  0  0  0  0  0  0  0  0  0  0
   20.9729  -14.2028   26.8429 C   0  0  0  0  0  0  0  0  0  0  0  0
   21.8356  -14.0576   25.6773 C   0  0  0  0  0  0  0  0  0  0  0  0
   21.6076  -14.8472   24.4812 C   0  0  0  0  0  0  0  0  0  0  0  0
   20.3754  -16.2780   23.7165 H   0  0  0  0  0  0  0  0  0  0  0  0
   15.9571  -13.1930   19.6625 C   0  0  0  0  0  0  0  0  0  0  0  0
   14.5097  -12.7217   19.6455 C   0  0  0  0  0  0  0  0  0  0  0  0
   13.8043  -12.9319   20.7940 N   0  0  0  0  0  0  0  0  0  0  0  0
   14.0496  -12.1772   18.6486 O   0  0  0  0  0  0  0  0  0  0  0  0
   14.2528  -13.3282   21.5757 H   0  0  0  0  0  0  0  0  0  0  0  0
   12.3722  -12.5702   20.8769 C   0  0  0  0  0  0  0  0  0  0  0  0
   11.9652  -11.9695   22.2241 C   0  0  0  0  0  0  0  0  0  0  0  0
   12.4375  -10.6852   22.6029 C   0  0  0  0  0  0  0  0  0  0  0  0
   12.0790  -10.1376   23.8837 C   0  0  0  0  0  0  0  0  0  0  0  0
   11.2435  -10.8851   24.7900 C   0  0  0  0  0  0  0  0  0  0  0  0
   11.1520  -12.6535   23.1156 N   0  0  0  0  0  0  0  0  0  0  0  0
   13.2156  -10.0119   21.7452 F   0  0  0  0  0  0  0  0  0  0  0  0
   10.7773  -12.1759   24.3621 C   0  0  0  0  0  0  0  0  0  0  0  0
   12.5538   -8.7878   24.2937 C   0  0  0  0  0  0  0  0  0  0  0  0
 16 17  2  0  0  0
 16 21  1  0  0  0
 17 18  1  0  0  0
 17 13  1  0  0  0
 18 19  2  0  0  0
 19 20  1  0  0  0
 20 21  2  0  0  0
 13 12  1  0  0  0
 13 14  1  0  0  0
 13 15  1  0  0  0
 12 10  1  0  0  0
 10  1  1  0  0  0
  1  2  1  0  0  0
  1  6  2  0  0  0
  2  3  1  0  0  0
  2  7  2  0  0  0
  3  4  1  0  0  0
  3 23  1  0  0  0
  4  5  2  0  0  0
  4  8  1  0  0  0
  5  6  1  0  0  0
 23 24  1  0  0  0
 24 25  1  0  0  0
 24 26  2  0  0  0
 25 28  1  0  0  0
 28 29  1  0  0  0
 29 30  2  0  0  0
 29 33  1  0  0  0
 30 31  1  0  0  0
 30 34  1  0  0  0
 31 32  2  0  0  0
 31 36  1  0  0  0
 32 35  1  0  0  0
 33 35  2  0  0  0
 16 22  1  0  0  0
 10 11  1  0  0  0
  6  9  1  0  0  0
 25 27  1  0  0  0
M  CHG 1   6   1
M  CHG 1  16   1
M  END
> <minimizedAffinity>
-8.61648

$$$$
1MU8_CDB_B_248


 36 38  0  0  0  0  0  0  0  0999 V2000
   17.1663  -13.6618   20.2146 C   0  0  0  0  0  0  0  0  0  0  0  0
   16.1778  -14.7845   20.2904 C   0  0  0  0  0  0  0  0  0  0  0  0
   15.4658  -15.0551   19.1268 N   0  0  0  0  0  0  0  0  0  0  0  0
   15.7214  -14.3179   17.9098 C   0  0  0  0  0  0  0  0  0  0  0  0
   16.6784  -13.2821   17.9220 C   0  0  0  0  0  0  0  0  0  0  0  0
   17.3354  -12.9830   19.0472 N   0  0  0  0  0  0  0  0  0  0  0  0
   15.9948  -15.4413   21.3172 O   0  0  0  0  0  0  0  0  0  0  0  0
   15.0140  -14.5906   16.6379 C   0  0  0  0  0  0  0  0  0  0  0  0
   17.9738  -12.2338   19.0305 H   0  0  0  0  0  0  0  0  0  0  0  0
   17.8582  -13.3344   21.3616 N   0  0  0  0  0  0  0  0  0  0  0  0
   17.5032  -12.6000   21.9129 H   0  0  0  0  0  0  0  0  0  0  0  0
   19.0907  -14.0009   21.8256 C   0  0  0  0  0  0  0  0  0  0  0  0
   18.8913  -14.7946   23.1142 C   0  0  0  0  0  0  0  0  0  0  0  0
   17.7066  -14.4291   23.6658 F   0  0  0  0  0  0  0  0  0  0  0  0
   18.7943  -16.0769   22.7311 F   0  0  0  0  0  0  0  0  0  0  0  0
   21.3771  -14.8763   23.5139 N   0  0  0  0  0  0  0  0  0  0  0  0
   20.0895  -14.6748   24.0607 C   0  0  0  0  0  0  0  0  0  0  0  0
   19.9315  -14.2713   25.4537 C   0  0  0  0  0  0  0  0  0  0  0  0
   21.1564  -14.0823   26.2063 C   0  0  0  0  0  0  0  0  0  0  0  0
   22.4602  -14.2644   25.5810 C   0  0  0  0  0  0  0  0  0  0  0  0
   22.5679  -14.6804   24.1949 C   0  0  0  0  0  0  0  0  0  0  0  0
   21.4321  -15.1786   22.5786 H   0  0  0  0  0  0  0  0  0  0  0  0
   14.4708  -16.1552   19.1557 C   0  0  0  0  0  0  0  0  0  0  0  0
   13.2953  -15.7627   20.0397 C   0  0  0  0  0  0  0  0  0  0  0  0
   13.0422  -14.4253   20.1301 N   0  0  0  0  0  0  0  0  0  0  0  0
   12.6327  -16.6253   20.6044 O   0  0  0  0  0  0  0  0  0  0  0  0
   13.5834  -13.7905   19.6071 H   0  0  0  0  0  0  0  0  0  0  0  0
   11.9629  -13.9191   21.0060 C   0  0  0  0  0  0  0  0  0  0  0  0
   12.2948  -12.5901   21.6879 C   0  0  0  0  0  0  0  0  0  0  0  0
   11.5403  -12.1577   22.8103 C   0  0  0  0  0  0  0  0  0  0  0  0
   11.8343  -10.8928   23.4287 C   0  0  0  0  0  0  0  0  0  0  0  0
   12.8903  -10.0564   22.9152 C   0  0  0  0  0  0  0  0  0  0  0  0
   13.3122  -11.7658   21.2303 N   0  0  0  0  0  0  0  0  0  0  0  0
   10.5618  -12.9507   23.2664 F   0  0  0  0  0  0  0  0  0  0  0  0
   13.6371  -10.5374   21.7851 C   0  0  0  0  0  0  0  0  0  0  0  0
   11.0630  -10.4279   24.6138 C   0  0  0  0  0  0  0  0  0  0  0  0
 16 17  2  0  0  0
 16 21  1  0  0  0
 17 18  1  0  0  0
 17 13  1  0  0  0
 18 19  2  0  0  0
 19 20  1  0  0  0
 20 21  2  0  0  0
 13 12  1  0  0  0
 13 14  1  0  0  0
 13 15  1  0  0  0
 12 10  1  0  0  0
 10  1  1  0  0  0
  1  2  1  0  0  0
  1  6  2  0  0  0
  2  3  1  0  0  0
  2  7  2  0  0  0
  3  4  1  0  0  0
  3 23  1  0  0  0
  4  5  2  0  0  0
  4  8  1  0  0  0
  5  6  1  0  0  0
 23 24  1  0  0  0
 24 25  1  0  0  0
 24 26  2  0  0  0
 25 28  1  0  0  0
 28 29  1  0  0  0
 29 30  2  0  0  0
 29 33  1  0  0  0
 30 31  1  0  0  0
 30 34  1  0  0  0
 31 32  2  0  0  0
 31 36  1  0  0  0
 32 35  1  0  0  0
 33 35  2  0  0  0
 16 22  1  0  0  0
 10 11  1  0  0  0
  6  9  1  0  0  0
 25 27  1  0  0  0
M  CHG 1   6   1
M  CHG 1  16   1
M  END
> <minimizedAffinity>
-8.61565

$$$$
1MU8_CDB_B_248


 36 38  0  0  0  0  0  0  0  0999 V2000
   17.5179  -15.6662   23.4860 C   0  0  0  0  0  0  0  0  0  0  0  0
   16.7083  -16.1801   22.3355 C   0  0  0  0  0  0  0  0  0  0  0  0
   16.7912  -15.4527   21.1531 N   0  0  0  0  0  0  0  0  0  0  0  0
   17.6589  -14.3012   21.0474 C   0  0  0  0  0  0  0  0  0  0  0  0
   18.3965  -13.8906   22.1770 C   0  0  0  0  0  0  0  0  0  0  0  0
   18.2887  -14.5552   23.3319 N   0  0  0  0  0  0  0  0  0  0  0  0
   16.0045  -17.1888   22.4155 O   0  0  0  0  0  0  0  0  0  0  0  0
   17.8070  -13.5146   19.8016 C   0  0  0  0  0  0  0  0  0  0  0  0
   18.7924  -14.2242   24.1104 H   0  0  0  0  0  0  0  0  0  0  0  0
   17.4254  -16.3350   24.6884 N   0  0  0  0  0  0  0  0  0  0  0  0
   16.7038  -16.0683   25.3028 H   0  0  0  0  0  0  0  0  0  0  0  0
   18.3257  -17.4203   25.1244 C   0  0  0  0  0  0  0  0  0  0  0  0
   19.0579  -17.1021   26.4255 C   0  0  0  0  0  0  0  0  0  0  0  0
   18.1376  -16.7852   27.3708 F   0  0  0  0  0  0  0  0  0  0  0  0
   19.6512  -18.2493   26.7898 F   0  0  0  0  0  0  0  0  0  0  0  0
   21.2212  -16.3647   25.3661 N   0  0  0  0  0  0  0  0  0  0  0  0
   20.1511  -16.0467   26.2329 C   0  0  0  0  0  0  0  0  0  0  0  0
   20.0553  -14.7218   26.8358 C   0  0  0  0  0  0  0  0  0  0  0  0
   21.0982  -13.7805   26.4772 C   0  0  0  0  0  0  0  0  0  0  0  0
   22.1571  -14.1483   25.5458 C   0  0  0  0  0  0  0  0  0  0  0  0
   22.2195  -15.4839   24.9816 C   0  0  0  0  0  0  0  0  0  0  0  0
   21.2604  -17.2811   25.0086 H   0  0  0  0  0  0  0  0  0  0  0  0
   16.0018  -15.9207   19.9874 C   0  0  0  0  0  0  0  0  0  0  0  0
   14.5550  -15.4694   20.1312 C   0  0  0  0  0  0  0  0  0  0  0  0
   14.3280  -14.1375   19.9428 N   0  0  0  0  0  0  0  0  0  0  0  0
   13.6763  -16.2852   20.3846 O   0  0  0  0  0  0  0  0  0  0  0  0
   15.0741  -13.5471   19.6897 H   0  0  0  0  0  0  0  0  0  0  0  0
   12.9721  -13.5715   20.1148 C   0  0  0  0  0  0  0  0  0  0  0  0
   12.9083  -12.4189   21.1193 C   0  0  0  0  0  0  0  0  0  0  0  0
   12.0588  -12.5089   22.2534 C   0  0  0  0  0  0  0  0  0  0  0  0
   11.9771  -11.4103   23.1782 C   0  0  0  0  0  0  0  0  0  0  0  0
   12.7513  -10.2137   22.9613 C   0  0  0  0  0  0  0  0  0  0  0  0
   13.6489  -11.2582   20.9507 N   0  0  0  0  0  0  0  0  0  0  0  0
   11.3466  -13.6295   22.4309 F   0  0  0  0  0  0  0  0  0  0  0  0
   13.6075  -10.1689   21.8075 C   0  0  0  0  0  0  0  0  0  0  0  0
   11.1019  -11.4906   24.3795 C   0  0  0  0  0  0  0  0  0  0  0  0
 16 17  2  0  0  0
 16 21  1  0  0  0
 17 18  1  0  0  0
 17 13  1  0  0  0
 18 19  2  0  0  0
 19 20  1  0  0  0
 20 21  2  0  0  0
 13 12  1  0  0  0
 13 14  1  0  0  0
 13 15  1  0  0  0
 12 10  1  0  0  0
 10  1  1  0  0  0
  1  2  1  0  0  0
  1  6  2  0  0  0
  2  3  1  0  0  0
  2  7  2  0  0  0
  3  4  1  0  0  0
  3 23  1  0  0  0
  4  5  2  0  0  0
  4  8  1  0  0  0
  5  6  1  0  0  0
 23 24  1  0  0  0
 24 25  1  0  0  0
 24 26  2  0  0  0
 25 28  1  0  0  0
 28 29  1  0  0  0
 29 30  2  0  0  0
 29 33  1  0  0  0
 30 31  1  0  0  0
 30 34  1  0  0  0
 31 32  2  0  0  0
 31 36  1  0  0  0
 32 35  1  0  0  0
 33 35  2  0  0  0
 16 22  1  0  0  0
 10 11  1  0  0  0
  6  9  1  0  0  0
 25 27  1  0  0  0
M  CHG 1   6   1
M  CHG 1  16   1
M  END
> <minimizedAffinity>
-8.46926

$$$$
1MU8_CDB_B_248


 36 38  0  0  0  0  0  0  0  0999 V2000
   16.4557  -16.9403   23.4354 C   0  0  0  0  0  0  0  0  0  0  0  0
   15.8977  -16.6507   22.0760 C   0  0  0  0  0  0  0  0  0  0  0  0
   14.9487  -17.5478   21.5979 N   0  0  0  0  0  0  0  0  0  0  0  0
   14.5010  -18.6587   22.4076 C   0  0  0  0  0  0  0  0  0  0  0  0
   15.0707  -18.8531   23.6829 C   0  0  0  0  0  0  0  0  0  0  0  0
   16.0173  -18.0234   24.1332 N   0  0  0  0  0  0  0  0  0  0  0  0
   16.2484  -15.6768   21.4068 O   0  0  0  0  0  0  0  0  0  0  0  0
   13.4696  -19.6210   21.9571 C   0  0  0  0  0  0  0  0  0  0  0  0
   16.4174  -18.2050   25.0142 H   0  0  0  0  0  0  0  0  0  0  0  0
   17.4326  -16.0983   23.9235 N   0  0  0  0  0  0  0  0  0  0  0  0
   17.1399  -15.3160   24.4447 H   0  0  0  0  0  0  0  0  0  0  0  0
   18.8837  -16.2805   23.7241 C   0  0  0  0  0  0  0  0  0  0  0  0
   19.6386  -14.9604   23.5922 C   0  0  0  0  0  0  0  0  0  0  0  0
   19.3100  -14.1697   24.6449 F   0  0  0  0  0  0  0  0  0  0  0  0
   20.9372  -15.2805   23.7011 F   0  0  0  0  0  0  0  0  0  0  0  0
   18.3092  -13.4554   22.0712 N   0  0  0  0  0  0  0  0  0  0  0  0
   19.4278  -14.3056   22.2237 C   0  0  0  0  0  0  0  0  0  0  0  0
   20.3903  -14.4647   21.1390 C   0  0  0  0  0  0  0  0  0  0  0  0
   20.1300  -13.6964   19.9371 C   0  0  0  0  0  0  0  0  0  0  0  0
   18.9823  -12.8027   19.8483 C   0  0  0  0  0  0  0  0  0  0  0  0
   18.0432  -12.6876   20.9487 C   0  0  0  0  0  0  0  0  0  0  0  0
   17.6708  -13.4047   22.8189 H   0  0  0  0  0  0  0  0  0  0  0  0
   14.3718  -17.3049   20.2529 C   0  0  0  0  0  0  0  0  0  0  0  0
   13.0984  -16.4804   20.3805 C   0  0  0  0  0  0  0  0  0  0  0  0
   13.2744  -15.1586   20.6681 N   0  0  0  0  0  0  0  0  0  0  0  0
   12.0039  -17.0053   20.2116 O   0  0  0  0  0  0  0  0  0  0  0  0
   14.1855  -14.7925   20.7391 H   0  0  0  0  0  0  0  0  0  0  0  0
   12.1099  -14.2699   20.8746 C   0  0  0  0  0  0  0  0  0  0  0  0
   12.4696  -12.9155   21.4894 C   0  0  0  0  0  0  0  0  0  0  0  0
   11.6747  -12.3740   22.5338 C   0  0  0  0  0  0  0  0  0  0  0  0
   11.9970  -11.0860   23.0871 C   0  0  0  0  0  0  0  0  0  0  0  0
   13.1224  -10.3368   22.5869 C   0  0  0  0  0  0  0  0  0  0  0  0
   13.5528  -12.1729   21.0432 N   0  0  0  0  0  0  0  0  0  0  0  0
   10.6320  -13.0875   22.9788 F   0  0  0  0  0  0  0  0  0  0  0  0
   13.9078  -10.9270   21.5374 C   0  0  0  0  0  0  0  0  0  0  0  0
   11.1833  -10.5071   24.1909 C   0  0  0  0  0  0  0  0  0  0  0  0
 16 17  2  0  0  0
 16 21  1  0  0  0
 17 18  1  0  0  0
 17 13  1  0  0  0
 18 19  2  0  0  0
 19 20  1  0  0  0
 20 21  2  0  0  0
 13 12  1  0  0  0
 13 14  1  0  0  0
 13 15  1  0  0  0
 12 10  1  0  0  0
 10  1  1  0  0  0
  1  2  1  0  0  0
  1  6  2  0  0  0
  2  3  1  0  0  0
  2  7  2  0  0  0
  3  4  1  0  0  0
  3 23  1  0  0  0
  4  5  2  0  0  0
  4  8  1  0  0  0
  5  6  1  0  0  0
 23 24  1  0  0  0
 24 25  1  0  0  0
 24 26  2  0  0  0
 25 28  1  0  0  0
 28 29  1  0  0  0
 29 30  2  0  0  0
 29 33  1  0  0  0
 30 31  1  0  0  0
 30 34  1  0  0  0
 31 32  2  0  0  0
 31 36  1  0  0  0
 32 35  1  0  0  0
 33 35  2  0  0  0
 16 22  1  0  0  0
 10 11  1  0  0  0
  6  9  1  0  0  0
 25 27  1  0  0  0
M  CHG 1   6   1
M  CHG 1  16   1
M  END
> <minimizedAffinity>
-8.46059

$$$$
1MU8_CDB_B_248


 36 38  0  0  0  0  0  0  0  0999 V2000
   16.1892  -12.8335   20.4482 C   0  0  0  0  0  0  0  0  0  0  0  0
   15.3473  -14.0456   20.1927 C   0  0  0  0  0  0  0  0  0  0  0  0
   14.0223  -13.9717   20.6090 N   0  0  0  0  0  0  0  0  0  0  0  0
   13.4954  -12.7634   21.2023 C   0  0  0  0  0  0  0  0  0  0  0  0
   14.3546  -11.6622   21.3973 C   0  0  0  0  0  0  0  0  0  0  0  0
   15.6414  -11.7388   21.0431 N   0  0  0  0  0  0  0  0  0  0  0  0
   15.7880  -15.0581   19.6452 O   0  0  0  0  0  0  0  0  0  0  0  0
   12.0848  -12.6240   21.6308 C   0  0  0  0  0  0  0  0  0  0  0  0
   16.2221  -10.9642   21.2217 H   0  0  0  0  0  0  0  0  0  0  0  0
   17.5199  -12.8865   20.0907 N   0  0  0  0  0  0  0  0  0  0  0  0
   17.7304  -12.9671   19.1324 H   0  0  0  0  0  0  0  0  0  0  0  0
   18.6527  -12.8315   21.0354 C   0  0  0  0  0  0  0  0  0  0  0  0
   19.3742  -14.1688   21.1807 C   0  0  0  0  0  0  0  0  0  0  0  0
   18.5659  -15.1482   20.7023 F   0  0  0  0  0  0  0  0  0  0  0  0
   20.4461  -14.0841   20.3778 F   0  0  0  0  0  0  0  0  0  0  0  0
   21.2625  -14.5868   22.7949 N   0  0  0  0  0  0  0  0  0  0  0  0
   19.8731  -14.4066   22.6092 C   0  0  0  0  0  0  0  0  0  0  0  0
   18.9736  -14.3532   23.7565 C   0  0  0  0  0  0  0  0  0  0  0  0
   19.5946  -14.4781   25.0608 C   0  0  0  0  0  0  0  0  0  0  0  0
   21.0386  -14.6215   25.1968 C   0  0  0  0  0  0  0  0  0  0  0  0
   21.8927  -14.6839   24.0251 C   0  0  0  0  0  0  0  0  0  0  0  0
   21.8251  -14.6480   21.9893 H   0  0  0  0  0  0  0  0  0  0  0  0
   13.1513  -15.1510   20.3820 C   0  0  0  0  0  0  0  0  0  0  0  0
   13.4115  -16.1973   21.4566 C   0  0  0  0  0  0  0  0  0  0  0  0
   14.2529  -17.2118   21.1049 N   0  0  0  0  0  0  0  0  0  0  0  0
   12.8916  -16.0899   22.5613 O   0  0  0  0  0  0  0  0  0  0  0  0
   14.6769  -17.2073   20.2164 H   0  0  0  0  0  0  0  0  0  0  0  0
   14.5346  -18.3187   22.0451 C   0  0  0  0  0  0  0  0  0  0  0  0
   15.8635  -18.1719   22.7894 C   0  0  0  0  0  0  0  0  0  0  0  0
   17.0863  -18.1591   22.0678 C   0  0  0  0  0  0  0  0  0  0  0  0
   18.3352  -18.0534   22.7734 C   0  0  0  0  0  0  0  0  0  0  0  0
   18.3561  -17.9626   24.2119 C   0  0  0  0  0  0  0  0  0  0  0  0
   15.9217  -18.0684   24.1714 N   0  0  0  0  0  0  0  0  0  0  0  0
   17.0408  -18.2487   20.7320 F   0  0  0  0  0  0  0  0  0  0  0  0
   17.0954  -17.9669   24.9026 C   0  0  0  0  0  0  0  0  0  0  0  0
   19.6267  -18.0257   22.0339 C   0  0  0  0  0  0  0  0  0  0  0  0
 16 17  2  0  0  0
 16 21  1  0  0  0
 17 18  1  0  0  0
 17 13  1  0  0  0
 18 19  2  0  0  0
 19 20  1  0  0  0
 20 21  2  0  0  0
 13 12  1  0  0  0
 13 14  1  0  0  0
 13 15  1  0  0  0
 12 10  1  0  0  0
 10  1  1  0  0  0
  1  2  1  0  0  0
  1  6  2  0  0  0
  2  3  1  0  0  0
  2  7  2  0  0  0
  3  4  1  0  0  0
  3 23  1  0  0  0
  4  5  2  0  0  0
  4  8  1  0  0  0
  5  6  1  0  0  0
 23 24  1  0  0  0
 24 25  1  0  0  0
 24 26  2  0  0  0
 25 28  1  0  0  0
 28 29  1  0  0  0
 29 30  2  0  0  0
 29 33  1  0  0  0
 30 31  1  0  0  0
 30 34  1  0  0  0
 31 32  2  0  0  0
 31 36  1  0  0  0
 32 35  1  0  0  0
 33 35  2  0  0  0
 16 22  1  0  0  0
 10 11  1  0  0  0
  6  9  1  0  0  0
 25 27  1  0  0  0
M  CHG 1   6   1
M  CHG 1  16   1
M  END
> <minimizedAffinity>
-8.43405

$$$$
