1PXP_CK8_A_500


 24 26  0  0  0  0  0  0  0  0999 V2000
   26.1705   39.0106    7.8763 C   0  0  0  0  0  0  0  0  0  0  0  0
   25.1507   39.6794    7.2889 N   0  0  0  0  0  0  0  0  0  0  0  0
   24.9783   40.9620    7.6031 C   0  0  0  0  0  0  0  0  0  0  0  0
   25.7398   41.6439    8.4567 N   0  0  0  0  0  0  0  0  0  0  0  0
   26.7773   41.0499    9.0786 C   0  0  0  0  0  0  0  0  0  0  0  0
   27.0435   39.6507    8.8050 C   0  0  0  0  0  0  0  0  0  0  0  0
   27.5376   41.8838    9.9845 C   0  0  0  0  0  0  0  0  0  0  0  0
   28.8933   41.9480   10.3826 C   0  0  0  0  0  0  0  0  0  0  0  0
   29.1835   42.9320   11.2990 N   0  0  0  0  0  0  0  0  0  0  0  0
   28.0847   43.6211   11.6117 C   0  0  0  0  0  0  0  0  0  0  0  0
   26.6558   43.1362   10.8308 S   0  0  0  0  0  0  0  0  0  0  0  0
   30.0523   41.0702    9.9231 C   0  0  0  0  0  0  0  0  0  0  0  0
   28.0572   44.7735   12.5950 C   0  0  0  0  0  0  0  0  0  0  0  0
   23.8805   41.6180    6.9530 N   0  0  0  0  0  0  0  0  0  0  0  0
   23.5300   41.0910    6.1989 H   0  0  0  0  0  0  0  0  0  0  0  0
   23.1550   42.8681    7.1293 C   0  0  0  0  0  0  0  0  0  0  0  0
   23.5031   43.8426    8.1180 C   0  0  0  0  0  0  0  0  0  0  0  0
   22.7619   45.0384    8.2385 C   0  0  0  0  0  0  0  0  0  0  0  0
   21.6427   45.3078    7.3740 C   0  0  0  0  0  0  0  0  0  0  0  0
   21.3065   44.3120    6.3890 C   0  0  0  0  0  0  0  0  0  0  0  0
   22.0495   43.1150    6.2735 C   0  0  0  0  0  0  0  0  0  0  0  0
   20.8581   46.5854    7.4996 N   0  0  0  0  0  0  0  0  0  0  0  0
   19.5662   46.8137    6.7856 C   0  0  0  0  0  0  0  0  0  0  0  0
   21.3137   47.7277    8.3490 C   0  0  0  0  0  0  0  0  0  0  0  0
  1  2  2  0  0  0
  1  6  1  0  0  0
  2  3  1  0  0  0
  3  4  2  0  0  0
  3 14  1  0  0  0
  4  5  1  0  0  0
  5  6  2  0  0  0
  5  7  1  0  0  0
  7  8  2  0  0  0
  7 11  1  0  0  0
  8  9  1  0  0  0
  8 12  1  0  0  0
  9 10  2  0  0  0
 10 11  1  0  0  0
 10 13  1  0  0  0
 14 16  1  0  0  0
 16 17  2  0  0  0
 16 21  1  0  0  0
 17 18  1  0  0  0
 18 19  2  0  0  0
 19 20  1  0  0  0
 19 22  1  0  0  0
 20 21  2  0  0  0
 22 23  1  0  0  0
 22 24  1  0  0  0
 14 15  1  0  0  0
M  END
> <minimizedAffinity>
-9.15378

$$$$
1PXP_CK8_A_500


 24 26  0  0  0  0  0  0  0  0999 V2000
   28.4160   41.6847   10.2369 C   0  0  0  0  0  0  0  0  0  0  0  0
   28.4186   42.3193   11.4325 N   0  0  0  0  0  0  0  0  0  0  0  0
   27.4000   43.1294   11.7149 C   0  0  0  0  0  0  0  0  0  0  0  0
   26.3688   43.3638   10.9054 N   0  0  0  0  0  0  0  0  0  0  0  0
   26.2913   42.7663    9.6999 C   0  0  0  0  0  0  0  0  0  0  0  0
   27.3573   41.8684    9.2989 C   0  0  0  0  0  0  0  0  0  0  0  0
   25.1285   43.0920    8.9024 C   0  0  0  0  0  0  0  0  0  0  0  0
   24.4841   42.5030    7.7897 C   0  0  0  0  0  0  0  0  0  0  0  0
   23.3714   43.1754    7.3400 N   0  0  0  0  0  0  0  0  0  0  0  0
   23.1492   44.2630    8.0799 C   0  0  0  0  0  0  0  0  0  0  0  0
   24.2480   44.5376    9.3465 S   0  0  0  0  0  0  0  0  0  0  0  0
   24.8702   41.2313    7.0423 C   0  0  0  0  0  0  0  0  0  0  0  0
   22.0030   45.2266    7.8490 C   0  0  0  0  0  0  0  0  0  0  0  0
   27.4582   43.7769   12.9937 N   0  0  0  0  0  0  0  0  0  0  0  0
   27.3236   43.1430   13.7349 H   0  0  0  0  0  0  0  0  0  0  0  0
   27.6665   45.1371   13.4699 C   0  0  0  0  0  0  0  0  0  0  0  0
   27.5332   46.2893   12.6314 C   0  0  0  0  0  0  0  0  0  0  0  0
   27.7457   47.5842   13.1528 C   0  0  0  0  0  0  0  0  0  0  0  0
   28.0997   47.7787   14.5346 C   0  0  0  0  0  0  0  0  0  0  0  0
   28.2332   46.6057   15.3599 C   0  0  0  0  0  0  0  0  0  0  0  0
   28.0222   45.3109   14.8333 C   0  0  0  0  0  0  0  0  0  0  0  0
   28.3194   49.1597   15.0900 N   0  0  0  0  0  0  0  0  0  0  0  0
   27.3866   50.2954   14.8237 C   0  0  0  0  0  0  0  0  0  0  0  0
   29.4920   49.5020   15.9511 C   0  0  0  0  0  0  0  0  0  0  0  0
  1  2  2  0  0  0
  1  6  1  0  0  0
  2  3  1  0  0  0
  3  4  2  0  0  0
  3 14  1  0  0  0
  4  5  1  0  0  0
  5  6  2  0  0  0
  5  7  1  0  0  0
  7  8  2  0  0  0
  7 11  1  0  0  0
  8  9  1  0  0  0
  8 12  1  0  0  0
  9 10  2  0  0  0
 10 11  1  0  0  0
 10 13  1  0  0  0
 14 16  1  0  0  0
 16 17  2  0  0  0
 16 21  1  0  0  0
 17 18  1  0  0  0
 18 19  2  0  0  0
 19 20  1  0  0  0
 19 22  1  0  0  0
 20 21  2  0  0  0
 22 23  1  0  0  0
 22 24  1  0  0  0
 14 15  1  0  0  0
M  END
> <minimizedAffinity>
-9.11458

$$$$
1PXP_CK8_A_500


 24 26  0  0  0  0  0  0  0  0999 V2000
   23.1301   44.5181    8.1514 C   0  0  0  0  0  0  0  0  0  0  0  0
   23.1703   45.3523    9.2166 N   0  0  0  0  0  0  0  0  0  0  0  0
   24.1148   45.1529   10.1341 C   0  0  0  0  0  0  0  0  0  0  0  0
   25.0321   44.1888   10.0828 N   0  0  0  0  0  0  0  0  0  0  0  0
   25.0609   43.3210    9.0522 C   0  0  0  0  0  0  0  0  0  0  0  0
   24.0680   43.4538    8.0033 C   0  0  0  0  0  0  0  0  0  0  0  0
   26.0994   42.3143    9.0974 C   0  0  0  0  0  0  0  0  0  0  0  0
   26.2728   41.0322    8.5258 C   0  0  0  0  0  0  0  0  0  0  0  0
   27.4549   40.4073    8.8489 N   0  0  0  0  0  0  0  0  0  0  0  0
   28.1891   41.1784    9.6528 C   0  0  0  0  0  0  0  0  0  0  0  0
   27.5130   42.6828   10.0607 S   0  0  0  0  0  0  0  0  0  0  0  0
   25.3201   40.2736    7.6083 C   0  0  0  0  0  0  0  0  0  0  0  0
   29.5478   40.7858   10.1964 C   0  0  0  0  0  0  0  0  0  0  0  0
   24.1066   46.0648   11.2415 N   0  0  0  0  0  0  0  0  0  0  0  0
   23.5048   45.7660   11.9611 H   0  0  0  0  0  0  0  0  0  0  0  0
   24.7655   47.3218   11.5676 C   0  0  0  0  0  0  0  0  0  0  0  0
   24.1080   48.5912   11.4991 C   0  0  0  0  0  0  0  0  0  0  0  0
   24.8004   49.7762   11.8307 C   0  0  0  0  0  0  0  0  0  0  0  0
   26.1787   49.7390   12.2449 C   0  0  0  0  0  0  0  0  0  0  0  0
   26.8227   48.4518   12.3026 C   0  0  0  0  0  0  0  0  0  0  0  0
   26.1266   47.2681   11.9672 C   0  0  0  0  0  0  0  0  0  0  0  0
   26.9130   51.0022   12.6041 N   0  0  0  0  0  0  0  0  0  0  0  0
   27.2796   52.0389   11.5934 C   0  0  0  0  0  0  0  0  0  0  0  0
   27.3346   51.3160   14.0033 C   0  0  0  0  0  0  0  0  0  0  0  0
  1  2  2  0  0  0
  1  6  1  0  0  0
  2  3  1  0  0  0
  3  4  2  0  0  0
  3 14  1  0  0  0
  4  5  1  0  0  0
  5  6  2  0  0  0
  5  7  1  0  0  0
  7  8  2  0  0  0
  7 11  1  0  0  0
  8  9  1  0  0  0
  8 12  1  0  0  0
  9 10  2  0  0  0
 10 11  1  0  0  0
 10 13  1  0  0  0
 14 16  1  0  0  0
 16 17  2  0  0  0
 16 21  1  0  0  0
 17 18  1  0  0  0
 18 19  2  0  0  0
 19 20  1  0  0  0
 19 22  1  0  0  0
 20 21  2  0  0  0
 22 23  1  0  0  0
 22 24  1  0  0  0
 14 15  1  0  0  0
M  END
> <minimizedAffinity>
-8.64441

$$$$
1PXP_CK8_A_500


 24 26  0  0  0  0  0  0  0  0999 V2000
   28.1033   41.7435    9.9896 C   0  0  0  0  0  0  0  0  0  0  0  0
   28.2602   42.2974   11.2146 N   0  0  0  0  0  0  0  0  0  0  0  0
   27.3424   43.1676   11.6317 C   0  0  0  0  0  0  0  0  0  0  0  0
   26.2716   43.5365   10.9312 N   0  0  0  0  0  0  0  0  0  0  0  0
   26.0427   43.0263    9.7050 C   0  0  0  0  0  0  0  0  0  0  0  0
   26.9901   42.0725    9.1608 C   0  0  0  0  0  0  0  0  0  0  0  0
   24.8501   43.4960    9.0333 C   0  0  0  0  0  0  0  0  0  0  0  0
   23.9909   44.6090    9.1860 C   0  0  0  0  0  0  0  0  0  0  0  0
   22.9417   44.6589    8.2977 N   0  0  0  0  0  0  0  0  0  0  0  0
   22.9769   43.6129    7.4704 C   0  0  0  0  0  0  0  0  0  0  0  0
   24.2583   42.5222    7.7053 S   0  0  0  0  0  0  0  0  0  0  0  0
   24.0888   45.7418   10.2019 C   0  0  0  0  0  0  0  0  0  0  0  0
   21.9627   43.3653    6.3723 C   0  0  0  0  0  0  0  0  0  0  0  0
   27.5625   43.7245   12.9354 N   0  0  0  0  0  0  0  0  0  0  0  0
   27.6267   43.0280   13.6282 H   0  0  0  0  0  0  0  0  0  0  0  0
   27.7147   45.0621   13.4903 C   0  0  0  0  0  0  0  0  0  0  0  0
   27.9244   45.3125   14.8838 C   0  0  0  0  0  0  0  0  0  0  0  0
   28.0676   46.6335   15.3615 C   0  0  0  0  0  0  0  0  0  0  0  0
   28.0073   47.7575   14.4640 C   0  0  0  0  0  0  0  0  0  0  0  0
   27.7911   47.4838   13.0665 C   0  0  0  0  0  0  0  0  0  0  0  0
   27.6455   46.1599   12.5928 C   0  0  0  0  0  0  0  0  0  0  0  0
   28.1666   49.1641   14.9740 N   0  0  0  0  0  0  0  0  0  0  0  0
   29.2798   49.5731   15.8818 C   0  0  0  0  0  0  0  0  0  0  0  0
   27.2193   50.2620   14.6118 C   0  0  0  0  0  0  0  0  0  0  0  0
  1  2  2  0  0  0
  1  6  1  0  0  0
  2  3  1  0  0  0
  3  4  2  0  0  0
  3 14  1  0  0  0
  4  5  1  0  0  0
  5  6  2  0  0  0
  5  7  1  0  0  0
  7  8  2  0  0  0
  7 11  1  0  0  0
  8  9  1  0  0  0
  8 12  1  0  0  0
  9 10  2  0  0  0
 10 11  1  0  0  0
 10 13  1  0  0  0
 14 16  1  0  0  0
 16 17  2  0  0  0
 16 21  1  0  0  0
 17 18  1  0  0  0
 18 19  2  0  0  0
 19 20  1  0  0  0
 19 22  1  0  0  0
 20 21  2  0  0  0
 22 23  1  0  0  0
 22 24  1  0  0  0
 14 15  1  0  0  0
M  END
> <minimizedAffinity>
-8.63065

$$$$
1PXP_CK8_A_500


 24 26  0  0  0  0  0  0  0  0999 V2000
   26.7633   46.1948   10.6800 C   0  0  0  0  0  0  0  0  0  0  0  0
   25.4712   46.5316   10.4582 N   0  0  0  0  0  0  0  0  0  0  0  0
   24.6583   45.6036    9.9567 C   0  0  0  0  0  0  0  0  0  0  0  0
   25.0213   44.3581    9.6558 N   0  0  0  0  0  0  0  0  0  0  0  0
   26.2888   43.9449    9.8521 C   0  0  0  0  0  0  0  0  0  0  0  0
   27.2516   44.8862   10.3910 C   0  0  0  0  0  0  0  0  0  0  0  0
   26.5734   42.5727    9.4912 C   0  0  0  0  0  0  0  0  0  0  0  0
   26.1004   41.6825    8.4991 C   0  0  0  0  0  0  0  0  0  0  0  0
   26.6675   40.4295    8.5250 N   0  0  0  0  0  0  0  0  0  0  0  0
   27.5612   40.3390    9.5115 C   0  0  0  0  0  0  0  0  0  0  0  0
   27.7733   41.7375   10.4528 S   0  0  0  0  0  0  0  0  0  0  0  0
   25.0539   41.9436    7.4213 C   0  0  0  0  0  0  0  0  0  0  0  0
   28.3647   39.0912    9.8164 C   0  0  0  0  0  0  0  0  0  0  0  0
   23.3022   46.0184    9.7396 N   0  0  0  0  0  0  0  0  0  0  0  0
   22.9271   46.4793   10.5245 H   0  0  0  0  0  0  0  0  0  0  0  0
   22.3417   45.9283    8.6488 C   0  0  0  0  0  0  0  0  0  0  0  0
   22.0966   44.7217    7.9191 C   0  0  0  0  0  0  0  0  0  0  0  0
   21.1496   44.6966    6.8721 C   0  0  0  0  0  0  0  0  0  0  0  0
   20.4090   45.8778    6.5132 C   0  0  0  0  0  0  0  0  0  0  0  0
   20.6742   47.0825    7.2570 C   0  0  0  0  0  0  0  0  0  0  0  0
   21.6251   47.1039    8.3028 C   0  0  0  0  0  0  0  0  0  0  0  0
   19.3956   45.8475    5.4015 N   0  0  0  0  0  0  0  0  0  0  0  0
   17.9544   46.1777    5.6128 C   0  0  0  0  0  0  0  0  0  0  0  0
   19.7542   45.4818    3.9974 C   0  0  0  0  0  0  0  0  0  0  0  0
  1  2  2  0  0  0
  1  6  1  0  0  0
  2  3  1  0  0  0
  3  4  2  0  0  0
  3 14  1  0  0  0
  4  5  1  0  0  0
  5  6  2  0  0  0
  5  7  1  0  0  0
  7  8  2  0  0  0
  7 11  1  0  0  0
  8  9  1  0  0  0
  8 12  1  0  0  0
  9 10  2  0  0  0
 10 11  1  0  0  0
 10 13  1  0  0  0
 14 16  1  0  0  0
 16 17  2  0  0  0
 16 21  1  0  0  0
 17 18  1  0  0  0
 18 19  2  0  0  0
 19 20  1  0  0  0
 19 22  1  0  0  0
 20 21  2  0  0  0
 22 23  1  0  0  0
 22 24  1  0  0  0
 14 15  1  0  0  0
M  END
> <minimizedAffinity>
-8.53831

$$$$
1PXP_CK8_A_500


 24 26  0  0  0  0  0  0  0  0999 V2000
   24.1949   45.7464   10.1790 C   0  0  0  0  0  0  0  0  0  0  0  0
   25.1839   46.4601   10.7660 N   0  0  0  0  0  0  0  0  0  0  0  0
   26.3843   45.8943   10.8777 C   0  0  0  0  0  0  0  0  0  0  0  0
   26.6899   44.6703   10.4509 N   0  0  0  0  0  0  0  0  0  0  0  0
   25.7611   43.8990    9.8521 C   0  0  0  0  0  0  0  0  0  0  0  0
   24.4199   44.4262    9.6883 C   0  0  0  0  0  0  0  0  0  0  0  0
   26.2014   42.5876    9.4275 C   0  0  0  0  0  0  0  0  0  0  0  0
   25.8444   41.7046    8.3818 C   0  0  0  0  0  0  0  0  0  0  0  0
   26.5467   40.5220    8.3551 N   0  0  0  0  0  0  0  0  0  0  0  0
   27.4308   40.4784    9.3533 C   0  0  0  0  0  0  0  0  0  0  0  0
   27.4729   41.8399   10.3689 S   0  0  0  0  0  0  0  0  0  0  0  0
   24.7908   41.9054    7.2981 C   0  0  0  0  0  0  0  0  0  0  0  0
   28.3635   39.3124    9.6102 C   0  0  0  0  0  0  0  0  0  0  0  0
   27.3916   46.6959   11.5109 N   0  0  0  0  0  0  0  0  0  0  0  0
   28.2781   46.5642   11.1034 H   0  0  0  0  0  0  0  0  0  0  0  0
   27.4310   47.6555   12.6053 C   0  0  0  0  0  0  0  0  0  0  0  0
   28.0384   47.3755   13.8707 C   0  0  0  0  0  0  0  0  0  0  0  0
   28.0471   48.3492   14.8932 C   0  0  0  0  0  0  0  0  0  0  0  0
   27.4489   49.6429   14.6907 C   0  0  0  0  0  0  0  0  0  0  0  0
   26.8391   49.9025   13.4118 C   0  0  0  0  0  0  0  0  0  0  0  0
   26.8302   48.9239   12.3918 C   0  0  0  0  0  0  0  0  0  0  0  0
   27.4648   50.6816   15.7792 N   0  0  0  0  0  0  0  0  0  0  0  0
   28.7295   51.2217   16.3621 C   0  0  0  0  0  0  0  0  0  0  0  0
   26.2131   51.2522   16.3635 C   0  0  0  0  0  0  0  0  0  0  0  0
  1  2  2  0  0  0
  1  6  1  0  0  0
  2  3  1  0  0  0
  3  4  2  0  0  0
  3 14  1  0  0  0
  4  5  1  0  0  0
  5  6  2  0  0  0
  5  7  1  0  0  0
  7  8  2  0  0  0
  7 11  1  0  0  0
  8  9  1  0  0  0
  8 12  1  0  0  0
  9 10  2  0  0  0
 10 11  1  0  0  0
 10 13  1  0  0  0
 14 16  1  0  0  0
 16 17  2  0  0  0
 16 21  1  0  0  0
 17 18  1  0  0  0
 18 19  2  0  0  0
 19 20  1  0  0  0
 19 22  1  0  0  0
 20 21  2  0  0  0
 22 23  1  0  0  0
 22 24  1  0  0  0
 14 15  1  0  0  0
M  END
> <minimizedAffinity>
-8.31421

$$$$
1PXP_CK8_A_500


 24 26  0  0  0  0  0  0  0  0999 V2000
   28.1750   45.2980   15.3161 C   0  0  0  0  0  0  0  0  0  0  0  0
   28.4511   44.5536   14.2198 N   0  0  0  0  0  0  0  0  0  0  0  0
   28.3530   45.1351   13.0258 C   0  0  0  0  0  0  0  0  0  0  0  0
   28.0029   46.4043   12.8254 N   0  0  0  0  0  0  0  0  0  0  0  0
   27.7169   47.2113   13.8662 C   0  0  0  0  0  0  0  0  0  0  0  0
   27.7910   46.6674   15.2087 C   0  0  0  0  0  0  0  0  0  0  0  0
   27.3489   48.5708   13.5342 C   0  0  0  0  0  0  0  0  0  0  0  0
   27.4694   49.8237   14.1794 C   0  0  0  0  0  0  0  0  0  0  0  0
   26.9645   50.8912   13.4738 N   0  0  0  0  0  0  0  0  0  0  0  0
   26.4611   50.4865   12.3065 C   0  0  0  0  0  0  0  0  0  0  0  0
   26.5659   48.8206   11.9894 S   0  0  0  0  0  0  0  0  0  0  0  0
   28.0834   50.1261   15.5419 C   0  0  0  0  0  0  0  0  0  0  0  0
   25.8249   51.4128   11.2901 C   0  0  0  0  0  0  0  0  0  0  0  0
   28.6539   44.2972   11.9009 N   0  0  0  0  0  0  0  0  0  0  0  0
   29.6234   44.2155   11.7504 H   0  0  0  0  0  0  0  0  0  0  0  0
   27.8842   43.5372   10.9259 C   0  0  0  0  0  0  0  0  0  0  0  0
   26.7480   44.0702   10.2380 C   0  0  0  0  0  0  0  0  0  0  0  0
   26.0433   43.2839    9.3006 C   0  0  0  0  0  0  0  0  0  0  0  0
   26.4474   41.9323    9.0131 C   0  0  0  0  0  0  0  0  0  0  0  0
   27.5905   41.4139    9.7197 C   0  0  0  0  0  0  0  0  0  0  0  0
   28.2916   42.2037   10.6594 C   0  0  0  0  0  0  0  0  0  0  0  0
   25.6992   41.0981    8.0091 N   0  0  0  0  0  0  0  0  0  0  0  0
   24.7373   41.6842    7.0282 C   0  0  0  0  0  0  0  0  0  0  0  0
   25.8601   39.6150    7.9176 C   0  0  0  0  0  0  0  0  0  0  0  0
  1  2  2  0  0  0
  1  6  1  0  0  0
  2  3  1  0  0  0
  3  4  2  0  0  0
  3 14  1  0  0  0
  4  5  1  0  0  0
  5  6  2  0  0  0
  5  7  1  0  0  0
  7  8  2  0  0  0
  7 11  1  0  0  0
  8  9  1  0  0  0
  8 12  1  0  0  0
  9 10  2  0  0  0
 10 11  1  0  0  0
 10 13  1  0  0  0
 14 16  1  0  0  0
 16 17  2  0  0  0
 16 21  1  0  0  0
 17 18  1  0  0  0
 18 19  2  0  0  0
 19 20  1  0  0  0
 19 22  1  0  0  0
 20 21  2  0  0  0
 22 23  1  0  0  0
 22 24  1  0  0  0
 14 15  1  0  0  0
M  END
> <minimizedAffinity>
-8.24049

$$$$
1PXP_CK8_A_500


 24 26  0  0  0  0  0  0  0  0999 V2000
   24.7082   46.8222   10.7808 C   0  0  0  0  0  0  0  0  0  0  0  0
   23.6711   46.2553   10.1211 N   0  0  0  0  0  0  0  0  0  0  0  0
   23.8101   45.0020    9.6927 C   0  0  0  0  0  0  0  0  0  0  0  0
   24.8997   44.2562    9.8666 N   0  0  0  0  0  0  0  0  0  0  0  0
   25.9726   44.7474   10.5175 C   0  0  0  0  0  0  0  0  0  0  0  0
   25.9194   46.1075   11.0185 C   0  0  0  0  0  0  0  0  0  0  0  0
   27.1012   43.8515   10.6499 C   0  0  0  0  0  0  0  0  0  0  0  0
   28.3063   43.8662   11.3901 C   0  0  0  0  0  0  0  0  0  0  0  0
   29.1156   42.7695   11.2041 N   0  0  0  0  0  0  0  0  0  0  0  0
   28.5603   41.9173   10.3408 C   0  0  0  0  0  0  0  0  0  0  0  0
   27.0501   42.3754    9.7114 S   0  0  0  0  0  0  0  0  0  0  0  0
   28.8060   44.9363   12.3545 C   0  0  0  0  0  0  0  0  0  0  0  0
   29.1935   40.6086    9.9143 C   0  0  0  0  0  0  0  0  0  0  0  0
   22.6807   44.4550    8.9975 N   0  0  0  0  0  0  0  0  0  0  0  0
   22.1693   43.8288    9.5594 H   0  0  0  0  0  0  0  0  0  0  0  0
   22.1013   44.5941    7.6689 C   0  0  0  0  0  0  0  0  0  0  0  0
   22.0005   43.5089    6.7412 C   0  0  0  0  0  0  0  0  0  0  0  0
   21.4254   43.7060    5.4667 C   0  0  0  0  0  0  0  0  0  0  0  0
   20.9274   44.9970    5.0691 C   0  0  0  0  0  0  0  0  0  0  0  0
   21.0428   46.0764    6.0159 C   0  0  0  0  0  0  0  0  0  0  0  0
   21.6217   45.8753    7.2898 C   0  0  0  0  0  0  0  0  0  0  0  0
   20.3091   45.2036    3.7131 N   0  0  0  0  0  0  0  0  0  0  0  0
   20.1632   44.1018    2.7153 C   0  0  0  0  0  0  0  0  0  0  0  0
   19.7941   46.5311    3.2589 C   0  0  0  0  0  0  0  0  0  0  0  0
  1  2  2  0  0  0
  1  6  1  0  0  0
  2  3  1  0  0  0
  3  4  2  0  0  0
  3 14  1  0  0  0
  4  5  1  0  0  0
  5  6  2  0  0  0
  5  7  1  0  0  0
  7  8  2  0  0  0
  7 11  1  0  0  0
  8  9  1  0  0  0
  8 12  1  0  0  0
  9 10  2  0  0  0
 10 11  1  0  0  0
 10 13  1  0  0  0
 14 16  1  0  0  0
 16 17  2  0  0  0
 16 21  1  0  0  0
 17 18  1  0  0  0
 18 19  2  0  0  0
 19 20  1  0  0  0
 19 22  1  0  0  0
 20 21  2  0  0  0
 22 23  1  0  0  0
 22 24  1  0  0  0
 14 15  1  0  0  0
M  END
> <minimizedAffinity>
-8.18007

$$$$
1PXP_CK8_A_500


 24 26  0  0  0  0  0  0  0  0999 V2000
   25.8666   48.8055   11.5843 C   0  0  0  0  0  0  0  0  0  0  0  0
   25.3943   47.6753   11.0084 N   0  0  0  0  0  0  0  0  0  0  0  0
   25.8309   46.5055   11.4717 C   0  0  0  0  0  0  0  0  0  0  0  0
   26.7025   46.3607   12.4680 N   0  0  0  0  0  0  0  0  0  0  0  0
   27.2151   47.4376   13.0954 C   0  0  0  0  0  0  0  0  0  0  0  0
   26.8036   48.7580   12.6587 C   0  0  0  0  0  0  0  0  0  0  0  0
   28.1525   47.1650   14.1635 C   0  0  0  0  0  0  0  0  0  0  0  0
   28.7526   47.9358   15.1864 C   0  0  0  0  0  0  0  0  0  0  0  0
   29.6128   47.2433   16.0066 N   0  0  0  0  0  0  0  0  0  0  0  0
   29.6858   45.9635   15.6369 C   0  0  0  0  0  0  0  0  0  0  0  0
   28.7348   45.5205   14.3005 S   0  0  0  0  0  0  0  0  0  0  0  0
   28.5614   49.4192   15.4828 C   0  0  0  0  0  0  0  0  0  0  0  0
   30.5467   44.9277   16.3310 C   0  0  0  0  0  0  0  0  0  0  0  0
   25.2989   45.3429   10.8211 N   0  0  0  0  0  0  0  0  0  0  0  0
   24.3466   45.4495   10.5954 H   0  0  0  0  0  0  0  0  0  0  0  0
   25.8150   44.0444   10.4110 C   0  0  0  0  0  0  0  0  0  0  0  0
   25.5851   43.4846    9.1140 C   0  0  0  0  0  0  0  0  0  0  0  0
   26.1147   42.2206    8.7743 C   0  0  0  0  0  0  0  0  0  0  0  0
   26.8965   41.4657    9.7186 C   0  0  0  0  0  0  0  0  0  0  0  0
   27.1120   42.0452   11.0196 C   0  0  0  0  0  0  0  0  0  0  0  0
   26.5777   43.3098   11.3565 C   0  0  0  0  0  0  0  0  0  0  0  0
   27.4655   40.1218    9.3526 N   0  0  0  0  0  0  0  0  0  0  0  0
   28.7626   39.6185    9.8959 C   0  0  0  0  0  0  0  0  0  0  0  0
   26.7756   39.1861    8.4133 C   0  0  0  0  0  0  0  0  0  0  0  0
  1  2  2  0  0  0
  1  6  1  0  0  0
  2  3  1  0  0  0
  3  4  2  0  0  0
  3 14  1  0  0  0
  4  5  1  0  0  0
  5  6  2  0  0  0
  5  7  1  0  0  0
  7  8  2  0  0  0
  7 11  1  0  0  0
  8  9  1  0  0  0
  8 12  1  0  0  0
  9 10  2  0  0  0
 10 11  1  0  0  0
 10 13  1  0  0  0
 14 16  1  0  0  0
 16 17  2  0  0  0
 16 21  1  0  0  0
 17 18  1  0  0  0
 18 19  2  0  0  0
 19 20  1  0  0  0
 19 22  1  0  0  0
 20 21  2  0  0  0
 22 23  1  0  0  0
 22 24  1  0  0  0
 14 15  1  0  0  0
M  END
> <minimizedAffinity>
-8.16722

$$$$
1PXP_CK8_A_500


 24 26  0  0  0  0  0  0  0  0999 V2000
   25.4174   41.3323    7.4590 C   0  0  0  0  0  0  0  0  0  0  0  0
   26.3770   41.7341    8.3250 N   0  0  0  0  0  0  0  0  0  0  0  0
   26.1782   42.8638    9.0016 C   0  0  0  0  0  0  0  0  0  0  0  0
   25.0975   43.6345    8.8924 N   0  0  0  0  0  0  0  0  0  0  0  0
   24.0961   43.3000    8.0549 C   0  0  0  0  0  0  0  0  0  0  0  0
   24.2223   42.0874    7.2694 C   0  0  0  0  0  0  0  0  0  0  0  0
   22.9701   44.2080    8.0156 C   0  0  0  0  0  0  0  0  0  0  0  0
   22.6461   45.4254    8.6586 C   0  0  0  0  0  0  0  0  0  0  0  0
   21.4274   45.9599    8.3102 N   0  0  0  0  0  0  0  0  0  0  0  0
   20.8116   45.1824    7.4179 C   0  0  0  0  0  0  0  0  0  0  0  0
   21.6510   43.7820    6.9476 S   0  0  0  0  0  0  0  0  0  0  0  0
   23.4747   46.2030    9.6753 C   0  0  0  0  0  0  0  0  0  0  0  0
   19.4488   45.4830    6.8280 C   0  0  0  0  0  0  0  0  0  0  0  0
   27.2297   43.2414    9.9015 N   0  0  0  0  0  0  0  0  0  0  0  0
   28.0359   42.6898    9.7792 H   0  0  0  0  0  0  0  0  0  0  0  0
   27.4030   44.2364   10.9505 C   0  0  0  0  0  0  0  0  0  0  0  0
   27.5388   43.8992   12.3347 C   0  0  0  0  0  0  0  0  0  0  0  0
   27.7070   44.9101   13.3060 C   0  0  0  0  0  0  0  0  0  0  0  0
   27.7467   46.2996   12.9313 C   0  0  0  0  0  0  0  0  0  0  0  0
   27.6036   46.6174   11.5337 C   0  0  0  0  0  0  0  0  0  0  0  0
   27.4327   45.6023   10.5649 C   0  0  0  0  0  0  0  0  0  0  0  0
   27.9325   47.3751   13.9670 N   0  0  0  0  0  0  0  0  0  0  0  0
   28.6398   47.1373   15.2608 C   0  0  0  0  0  0  0  0  0  0  0  0
   27.4204   48.7668   13.7806 C   0  0  0  0  0  0  0  0  0  0  0  0
  1  2  2  0  0  0
  1  6  1  0  0  0
  2  3  1  0  0  0
  3  4  2  0  0  0
  3 14  1  0  0  0
  4  5  1  0  0  0
  5  6  2  0  0  0
  5  7  1  0  0  0
  7  8  2  0  0  0
  7 11  1  0  0  0
  8  9  1  0  0  0
  8 12  1  0  0  0
  9 10  2  0  0  0
 10 11  1  0  0  0
 10 13  1  0  0  0
 14 16  1  0  0  0
 16 17  2  0  0  0
 16 21  1  0  0  0
 17 18  1  0  0  0
 18 19  2  0  0  0
 19 20  1  0  0  0
 19 22  1  0  0  0
 20 21  2  0  0  0
 22 23  1  0  0  0
 22 24  1  0  0  0
 14 15  1  0  0  0
M  END
> <minimizedAffinity>
-8.16037

$$$$
