6G38_TBN_A_800


 24 26  0  0  0  0  0  0  0  0999 V2000
   50.9392   44.3258    7.7552 C   0  0  0  0  0  0  0  0  0  0  0  0
   49.5093   44.1875    7.9410 O   0  0  0  0  0  0  0  0  0  0  0  0
   48.8210   44.7360    6.8283 C   0  0  0  0  0  0  0  0  0  0  0  0
   49.8910   45.1317    5.8042 C   0  0  0  0  0  0  0  0  0  0  0  0
   50.0853   44.0165    4.9322 O   0  0  0  0  0  0  0  0  0  0  0  0
   51.0832   45.4148    6.7075 C   0  0  0  0  0  0  0  0  0  0  0  0
   52.3729   45.3397    6.0708 O   0  0  0  0  0  0  0  0  0  0  0  0
   50.2860   43.2263    5.4577 H   0  0  0  0  0  0  0  0  0  0  0  0
   52.4986   44.4529    5.6986 H   0  0  0  0  0  0  0  0  0  0  0  0
   47.9993   45.8577    7.2843 N   0  0  0  0  0  0  0  0  0  0  0  0
   48.1064   46.5005    8.5106 C   0  0  0  0  0  0  0  0  0  0  0  0
   47.2120   47.5144    8.5854 C   0  0  0  0  0  0  0  0  0  0  0  0
   46.5016   47.5324    7.3389 C   0  0  0  0  0  0  0  0  0  0  0  0
   45.4589   48.2957    6.7295 C   0  0  0  0  0  0  0  0  0  0  0  0
   45.0288   47.9702    5.4953 N   0  0  0  0  0  0  0  0  0  0  0  0
   45.6080   46.9308    4.8808 C   0  0  0  0  0  0  0  0  0  0  0  0
   46.6011   46.1420    5.3256 N   0  0  0  0  0  0  0  0  0  0  0  0
   47.0132   46.4818    6.5595 C   0  0  0  0  0  0  0  0  0  0  0  0
   44.9098   49.3550    7.3351 N   0  0  0  0  0  0  0  0  0  0  0  0
   45.2061   49.6145    8.2374 H   0  0  0  0  0  0  0  0  0  0  0  0
   44.2096   49.8749    6.8784 H   0  0  0  0  0  0  0  0  0  0  0  0
   51.3154   43.6408   10.0790 O   0  0  0  0  0  0  0  0  0  0  0  0
   51.6084   44.6023    9.0748 C   0  0  0  0  0  0  0  0  0  0  0  0
   51.7763   43.8787   10.8987 H   0  0  0  0  0  0  0  0  0  0  0  0
 22 23  1  0  0  0
 23  1  1  0  0  0
  1  2  1  0  0  0
  1  6  1  0  0  0
  2  3  1  0  0  0
  3 10  1  0  0  0
  3  4  1  0  0  0
 10 11  1  0  0  0
 10 18  1  0  0  0
 11 12  2  0  0  0
 12 13  1  0  0  0
 13 14  2  0  0  0
 13 18  1  0  0  0
 14 15  1  0  0  0
 14 19  1  0  0  0
 15 16  2  0  0  0
 16 17  1  0  0  0
 17 18  2  0  0  0
  4  5  1  0  0  0
  4  6  1  0  0  0
  6  7  1  0  0  0
 22 24  1  0  0  0
 19 20  1  0  0  0
 19 21  1  0  0  0
  5  8  1  0  0  0
  7  9  1  0  0  0
M  END
> <minimizedAffinity>
-8.78982

$$$$
6G38_TBN_A_800


 24 26  0  0  0  0  0  0  0  0999 V2000
   49.1880   44.0983    5.6629 C   0  0  0  0  0  0  0  0  0  0  0  0
   48.1632   44.2311    6.6781 O   0  0  0  0  0  0  0  0  0  0  0  0
   47.4020   45.4058    6.4471 C   0  0  0  0  0  0  0  0  0  0  0  0
   47.8926   45.9902    5.1173 C   0  0  0  0  0  0  0  0  0  0  0  0
   47.0734   45.4468    4.0802 O   0  0  0  0  0  0  0  0  0  0  0  0
   49.3311   45.4935    5.0819 C   0  0  0  0  0  0  0  0  0  0  0  0
   49.9348   45.4401    3.7754 O   0  0  0  0  0  0  0  0  0  0  0  0
   47.0813   44.4784    4.1360 H   0  0  0  0  0  0  0  0  0  0  0  0
   49.4147   44.8552    3.2025 H   0  0  0  0  0  0  0  0  0  0  0  0
   47.5686   46.3108    7.5848 N   0  0  0  0  0  0  0  0  0  0  0  0
   48.4842   46.1607    8.6181 C   0  0  0  0  0  0  0  0  0  0  0  0
   48.3856   47.1978    9.4830 C   0  0  0  0  0  0  0  0  0  0  0  0
   47.3626   48.0656    8.9737 C   0  0  0  0  0  0  0  0  0  0  0  0
   46.7446   49.2992    9.3443 C   0  0  0  0  0  0  0  0  0  0  0  0
   45.7533   49.8028    8.5840 N   0  0  0  0  0  0  0  0  0  0  0  0
   45.3857   49.1168    7.4941 C   0  0  0  0  0  0  0  0  0  0  0  0
   45.8870   47.9625    7.0223 N   0  0  0  0  0  0  0  0  0  0  0  0
   46.8722   47.4759    7.7971 C   0  0  0  0  0  0  0  0  0  0  0  0
   47.1416   49.9970   10.4148 N   0  0  0  0  0  0  0  0  0  0  0  0
   47.8642   49.6515   10.9873 H   0  0  0  0  0  0  0  0  0  0  0  0
   46.7112   50.8559   10.6298 H   0  0  0  0  0  0  0  0  0  0  0  0
   51.2426   42.8020    5.3326 O   0  0  0  0  0  0  0  0  0  0  0  0
   50.4385   43.5138    6.2629 C   0  0  0  0  0  0  0  0  0  0  0  0
   52.0277   42.4540    5.7837 H   0  0  0  0  0  0  0  0  0  0  0  0
 22 23  1  0  0  0
 23  1  1  0  0  0
  1  2  1  0  0  0
  1  6  1  0  0  0
  2  3  1  0  0  0
  3 10  1  0  0  0
  3  4  1  0  0  0
 10 11  1  0  0  0
 10 18  1  0  0  0
 11 12  2  0  0  0
 12 13  1  0  0  0
 13 14  2  0  0  0
 13 18  1  0  0  0
 14 15  1  0  0  0
 14 19  1  0  0  0
 15 16  2  0  0  0
 16 17  1  0  0  0
 17 18  2  0  0  0
  4  5  1  0  0  0
  4  6  1  0  0  0
  6  7  1  0  0  0
 22 24  1  0  0  0
 19 20  1  0  0  0
 19 21  1  0  0  0
  5  8  1  0  0  0
  7  9  1  0  0  0
M  END
> <minimizedAffinity>
-8.49479

$$$$
6G38_TBN_A_800


 24 26  0  0  0  0  0  0  0  0999 V2000
   50.6162   44.3252    7.5161 C   0  0  0  0  0  0  0  0  0  0  0  0
   49.5139   44.4492    8.4478 O   0  0  0  0  0  0  0  0  0  0  0  0
   48.7002   45.5553    8.0911 C   0  0  0  0  0  0  0  0  0  0  0  0
   49.2493   46.0919    6.7641 C   0  0  0  0  0  0  0  0  0  0  0  0
   48.5432   45.4356    5.7094 O   0  0  0  0  0  0  0  0  0  0  0  0
   50.7146   45.6903    6.8595 C   0  0  0  0  0  0  0  0  0  0  0  0
   51.4141   45.6006    5.6037 O   0  0  0  0  0  0  0  0  0  0  0  0
   48.6069   44.4748    5.8266 H   0  0  0  0  0  0  0  0  0  0  0  0
   50.9743   44.9500    5.0344 H   0  0  0  0  0  0  0  0  0  0  0  0
   48.7271   46.5344    9.1782 N   0  0  0  0  0  0  0  0  0  0  0  0
   49.6152   46.5425   10.2457 C   0  0  0  0  0  0  0  0  0  0  0  0
   49.3744   47.6087   11.0449 C   0  0  0  0  0  0  0  0  0  0  0  0
   48.2835   48.3302   10.4546 C   0  0  0  0  0  0  0  0  0  0  0  0
   47.5235   49.5074   10.7332 C   0  0  0  0  0  0  0  0  0  0  0  0
   46.5123   49.8570    9.9149 N   0  0  0  0  0  0  0  0  0  0  0  0
   46.2605   49.0759    8.8566 C   0  0  0  0  0  0  0  0  0  0  0  0
   46.8996   47.9590    8.4689 N   0  0  0  0  0  0  0  0  0  0  0  0
   47.9025   47.6264    9.3004 C   0  0  0  0  0  0  0  0  0  0  0  0
   47.8041   50.3024   11.7722 N   0  0  0  0  0  0  0  0  0  0  0  0
   48.5381   50.0700   12.3857 H   0  0  0  0  0  0  0  0  0  0  0  0
   47.2764   51.1197   11.9233 H   0  0  0  0  0  0  0  0  0  0  0  0
   51.6321   43.5278    9.6001 O   0  0  0  0  0  0  0  0  0  0  0  0
   51.8534   43.8610    8.2367 C   0  0  0  0  0  0  0  0  0  0  0  0
   52.4662   43.2383   10.0017 H   0  0  0  0  0  0  0  0  0  0  0  0
 22 23  1  0  0  0
 23  1  1  0  0  0
  1  2  1  0  0  0
  1  6  1  0  0  0
  2  3  1  0  0  0
  3 10  1  0  0  0
  3  4  1  0  0  0
 10 11  1  0  0  0
 10 18  1  0  0  0
 11 12  2  0  0  0
 12 13  1  0  0  0
 13 14  2  0  0  0
 13 18  1  0  0  0
 14 15  1  0  0  0
 14 19  1  0  0  0
 15 16  2  0  0  0
 16 17  1  0  0  0
 17 18  2  0  0  0
  4  5  1  0  0  0
  4  6  1  0  0  0
  6  7  1  0  0  0
 22 24  1  0  0  0
 19 20  1  0  0  0
 19 21  1  0  0  0
  5  8  1  0  0  0
  7  9  1  0  0  0
M  END
> <minimizedAffinity>
-8.24817

$$$$
6G38_TBN_A_800


 24 26  0  0  0  0  0  0  0  0999 V2000
   51.0155   45.1992    8.1293 C   0  0  0  0  0  0  0  0  0  0  0  0
   49.6080   45.0089    8.4142 O   0  0  0  0  0  0  0  0  0  0  0  0
   48.9100   44.6959    7.2193 C   0  0  0  0  0  0  0  0  0  0  0  0
   49.9688   44.5475    6.1206 C   0  0  0  0  0  0  0  0  0  0  0  0
   50.3480   43.1706    6.0717 O   0  0  0  0  0  0  0  0  0  0  0  0
   51.0687   45.4652    6.6357 C   0  0  0  0  0  0  0  0  0  0  0  0
   52.3870   45.2006    6.1194 O   0  0  0  0  0  0  0  0  0  0  0  0
   50.6231   42.8794    6.9551 H   0  0  0  0  0  0  0  0  0  0  0  0
   52.6443   44.2918    6.3401 H   0  0  0  0  0  0  0  0  0  0  0  0
   47.9290   45.7485    6.9530 N   0  0  0  0  0  0  0  0  0  0  0  0
   47.2547   45.9498    5.7559 C   0  0  0  0  0  0  0  0  0  0  0  0
   46.3990   46.9928    5.8722 C   0  0  0  0  0  0  0  0  0  0  0  0
   46.5202   47.4796    7.2165 C   0  0  0  0  0  0  0  0  0  0  0  0
   45.9486   48.5135    8.0199 C   0  0  0  0  0  0  0  0  0  0  0  0
   46.3627   48.6753    9.2913 N   0  0  0  0  0  0  0  0  0  0  0  0
   47.3049   47.8452    9.7568 C   0  0  0  0  0  0  0  0  0  0  0  0
   47.9128   46.8282    9.1224 N   0  0  0  0  0  0  0  0  0  0  0  0
   47.4876   46.6861    7.8549 C   0  0  0  0  0  0  0  0  0  0  0  0
   44.9819   49.3158    7.5593 N   0  0  0  0  0  0  0  0  0  0  0  0
   44.6609   49.2186    6.6337 H   0  0  0  0  0  0  0  0  0  0  0  0
   44.5917   50.0034    8.1460 H   0  0  0  0  0  0  0  0  0  0  0  0
   52.7673   46.8752    8.4939 O   0  0  0  0  0  0  0  0  0  0  0  0
   51.5778   46.2882    9.0029 C   0  0  0  0  0  0  0  0  0  0  0  0
   53.0736   47.5653    9.1028 H   0  0  0  0  0  0  0  0  0  0  0  0
 22 23  1  0  0  0
 23  1  1  0  0  0
  1  2  1  0  0  0
  1  6  1  0  0  0
  2  3  1  0  0  0
  3 10  1  0  0  0
  3  4  1  0  0  0
 10 11  1  0  0  0
 10 18  1  0  0  0
 11 12  2  0  0  0
 12 13  1  0  0  0
 13 14  2  0  0  0
 13 18  1  0  0  0
 14 15  1  0  0  0
 14 19  1  0  0  0
 15 16  2  0  0  0
 16 17  1  0  0  0
 17 18  2  0  0  0
  4  5  1  0  0  0
  4  6  1  0  0  0
  6  7  1  0  0  0
 22 24  1  0  0  0
 19 20  1  0  0  0
 19 21  1  0  0  0
  5  8  1  0  0  0
  7  9  1  0  0  0
M  END
> <minimizedAffinity>
-8.11364

$$$$
6G38_TBN_A_800


 24 26  0  0  0  0  0  0  0  0999 V2000
   53.2266   44.5330    7.8739 C   0  0  0  0  0  0  0  0  0  0  0  0
   52.3297   45.6665    7.7797 O   0  0  0  0  0  0  0  0  0  0  0  0
   51.0191   45.2802    8.1617 C   0  0  0  0  0  0  0  0  0  0  0  0
   51.1173   43.8335    8.6592 C   0  0  0  0  0  0  0  0  0  0  0  0
   51.3438   43.8779   10.0694 O   0  0  0  0  0  0  0  0  0  0  0  0
   52.3114   43.3219    7.8656 C   0  0  0  0  0  0  0  0  0  0  0  0
   52.9805   42.1758    8.4249 O   0  0  0  0  0  0  0  0  0  0  0  0
   52.1164   44.4341   10.2555 H   0  0  0  0  0  0  0  0  0  0  0  0
   53.2983   42.3899    9.3160 H   0  0  0  0  0  0  0  0  0  0  0  0
   50.1220   45.4497    7.0181 N   0  0  0  0  0  0  0  0  0  0  0  0
   50.4135   45.1276    5.6991 C   0  0  0  0  0  0  0  0  0  0  0  0
   49.3442   45.3841    4.9090 C   0  0  0  0  0  0  0  0  0  0  0  0
   48.3077   45.8855    5.7654 C   0  0  0  0  0  0  0  0  0  0  0  0
   46.9604   46.3426    5.6351 C   0  0  0  0  0  0  0  0  0  0  0  0
   46.2968   46.7794    6.7228 N   0  0  0  0  0  0  0  0  0  0  0  0
   46.9368   46.7634    7.8991 C   0  0  0  0  0  0  0  0  0  0  0  0
   48.1869   46.3487    8.1668 N   0  0  0  0  0  0  0  0  0  0  0  0
   48.8321   45.9200    7.0679 C   0  0  0  0  0  0  0  0  0  0  0  0
   46.3155   46.3219    4.4629 N   0  0  0  0  0  0  0  0  0  0  0  0
   46.7775   46.0072    3.6524 H   0  0  0  0  0  0  0  0  0  0  0  0
   45.3792   46.6214    4.4108 H   0  0  0  0  0  0  0  0  0  0  0  0
   54.1257   43.5248    5.8279 O   0  0  0  0  0  0  0  0  0  0  0  0
   54.2446   44.5849    6.7665 C   0  0  0  0  0  0  0  0  0  0  0  0
   54.8085   43.6192    5.1454 H   0  0  0  0  0  0  0  0  0  0  0  0
 22 23  1  0  0  0
 23  1  1  0  0  0
  1  2  1  0  0  0
  1  6  1  0  0  0
  2  3  1  0  0  0
  3 10  1  0  0  0
  3  4  1  0  0  0
 10 11  1  0  0  0
 10 18  1  0  0  0
 11 12  2  0  0  0
 12 13  1  0  0  0
 13 14  2  0  0  0
 13 18  1  0  0  0
 14 15  1  0  0  0
 14 19  1  0  0  0
 15 16  2  0  0  0
 16 17  1  0  0  0
 17 18  2  0  0  0
  4  5  1  0  0  0
  4  6  1  0  0  0
  6  7  1  0  0  0
 22 24  1  0  0  0
 19 20  1  0  0  0
 19 21  1  0  0  0
  5  8  1  0  0  0
  7  9  1  0  0  0
M  END
> <minimizedAffinity>
-8.06293

$$$$
6G38_TBN_A_800


 24 26  0  0  0  0  0  0  0  0999 V2000
   45.6837   48.6993    8.4772 C   0  0  0  0  0  0  0  0  0  0  0  0
   45.9126   47.3268    8.0743 O   0  0  0  0  0  0  0  0  0  0  0  0
   46.9909   46.7779    8.8152 C   0  0  0  0  0  0  0  0  0  0  0  0
   47.3894   47.8329    9.8538 C   0  0  0  0  0  0  0  0  0  0  0  0
   46.6448   47.5674   11.0442 O   0  0  0  0  0  0  0  0  0  0  0  0
   46.9777   49.1189    9.1509 C   0  0  0  0  0  0  0  0  0  0  0  0
   46.7575   50.2515   10.0128 O   0  0  0  0  0  0  0  0  0  0  0  0
   45.6990   47.5302   10.8324 H   0  0  0  0  0  0  0  0  0  0  0  0
   46.0615   50.0392   10.6542 H   0  0  0  0  0  0  0  0  0  0  0  0
   48.0696   46.4241    7.8920 N   0  0  0  0  0  0  0  0  0  0  0  0
   48.0133   46.4979    6.5064 C   0  0  0  0  0  0  0  0  0  0  0  0
   49.1998   46.1254    5.9708 C   0  0  0  0  0  0  0  0  0  0  0  0
   50.0676   45.8072    7.0684 C   0  0  0  0  0  0  0  0  0  0  0  0
   51.4120   45.3615    7.2556 C   0  0  0  0  0  0  0  0  0  0  0  0
   51.8734   45.1407    8.5017 N   0  0  0  0  0  0  0  0  0  0  0  0
   51.0405   45.3548    9.5283 C   0  0  0  0  0  0  0  0  0  0  0  0
   49.7677   45.7854    9.4985 N   0  0  0  0  0  0  0  0  0  0  0  0
   49.3263   45.9965    8.2462 C   0  0  0  0  0  0  0  0  0  0  0  0
   52.2494   45.1843    6.2271 N   0  0  0  0  0  0  0  0  0  0  0  0
   51.9375   45.3389    5.3062 H   0  0  0  0  0  0  0  0  0  0  0  0
   53.1773   44.8994    6.3913 H   0  0  0  0  0  0  0  0  0  0  0  0
   44.8914   48.7550    6.1577 O   0  0  0  0  0  0  0  0  0  0  0  0
   45.2732   49.5261    7.2884 C   0  0  0  0  0  0  0  0  0  0  0  0
   44.6403   49.3476    5.4320 H   0  0  0  0  0  0  0  0  0  0  0  0
 22 23  1  0  0  0
 23  1  1  0  0  0
  1  2  1  0  0  0
  1  6  1  0  0  0
  2  3  1  0  0  0
  3 10  1  0  0  0
  3  4  1  0  0  0
 10 11  1  0  0  0
 10 18  1  0  0  0
 11 12  2  0  0  0
 12 13  1  0  0  0
 13 14  2  0  0  0
 13 18  1  0  0  0
 14 15  1  0  0  0
 14 19  1  0  0  0
 15 16  2  0  0  0
 16 17  1  0  0  0
 17 18  2  0  0  0
  4  5  1  0  0  0
  4  6  1  0  0  0
  6  7  1  0  0  0
 22 24  1  0  0  0
 19 20  1  0  0  0
 19 21  1  0  0  0
  5  8  1  0  0  0
  7  9  1  0  0  0
M  END
> <minimizedAffinity>
-7.85954

$$$$
6G38_TBN_A_800


 24 26  0  0  0  0  0  0  0  0999 V2000
   52.1158   44.8636    8.5886 C   0  0  0  0  0  0  0  0  0  0  0  0
   51.1170   44.8774    9.6377 O   0  0  0  0  0  0  0  0  0  0  0  0
   49.8544   45.2369    9.0996 C   0  0  0  0  0  0  0  0  0  0  0  0
   50.0371   45.3297    7.5803 C   0  0  0  0  0  0  0  0  0  0  0  0
   49.7282   44.0473    7.0307 O   0  0  0  0  0  0  0  0  0  0  0  0
   51.5101   45.6994    7.4755 C   0  0  0  0  0  0  0  0  0  0  0  0
   52.1357   45.3956    6.2143 O   0  0  0  0  0  0  0  0  0  0  0  0
   50.2627   43.3690    7.4723 H   0  0  0  0  0  0  0  0  0  0  0  0
   52.0652   44.4441    6.0393 H   0  0  0  0  0  0  0  0  0  0  0  0
   49.4143   46.4885    9.7169 N   0  0  0  0  0  0  0  0  0  0  0  0
   50.0891   47.1898   10.7075 C   0  0  0  0  0  0  0  0  0  0  0  0
   49.4127   48.3198   11.0223 C   0  0  0  0  0  0  0  0  0  0  0  0
   48.2495   48.3532   10.1829 C   0  0  0  0  0  0  0  0  0  0  0  0
   47.1271   49.2108    9.9686 C   0  0  0  0  0  0  0  0  0  0  0  0
   46.1885   48.8670    9.0658 N   0  0  0  0  0  0  0  0  0  0  0  0
   46.3513   47.7197    8.3945 C   0  0  0  0  0  0  0  0  0  0  0  0
   47.3573   46.8329    8.4832 N   0  0  0  0  0  0  0  0  0  0  0  0
   48.2809   47.1933    9.3914 C   0  0  0  0  0  0  0  0  0  0  0  0
   46.9898   50.3731   10.6171 N   0  0  0  0  0  0  0  0  0  0  0  0
   47.6617   50.6483   11.2820 H   0  0  0  0  0  0  0  0  0  0  0  0
   46.2168   50.9532   10.4293 H   0  0  0  0  0  0  0  0  0  0  0  0
   53.8753   46.5702    8.5377 O   0  0  0  0  0  0  0  0  0  0  0  0
   53.4349   45.3530    9.1234 C   0  0  0  0  0  0  0  0  0  0  0  0
   54.7265   46.8265    8.9259 H   0  0  0  0  0  0  0  0  0  0  0  0
 22 23  1  0  0  0
 23  1  1  0  0  0
  1  2  1  0  0  0
  1  6  1  0  0  0
  2  3  1  0  0  0
  3 10  1  0  0  0
  3  4  1  0  0  0
 10 11  1  0  0  0
 10 18  1  0  0  0
 11 12  2  0  0  0
 12 13  1  0  0  0
 13 14  2  0  0  0
 13 18  1  0  0  0
 14 15  1  0  0  0
 14 19  1  0  0  0
 15 16  2  0  0  0
 16 17  1  0  0  0
 17 18  2  0  0  0
  4  5  1  0  0  0
  4  6  1  0  0  0
  6  7  1  0  0  0
 22 24  1  0  0  0
 19 20  1  0  0  0
 19 21  1  0  0  0
  5  8  1  0  0  0
  7  9  1  0  0  0
M  END
> <minimizedAffinity>
-7.74265

$$$$
6G38_TBN_A_800


 24 26  0  0  0  0  0  0  0  0999 V2000
   45.6490   48.8784    8.5964 C   0  0  0  0  0  0  0  0  0  0  0  0
   45.7949   47.4672    8.3038 O   0  0  0  0  0  0  0  0  0  0  0  0
   46.8074   46.9049    9.1232 C   0  0  0  0  0  0  0  0  0  0  0  0
   47.2440   48.0061   10.0963 C   0  0  0  0  0  0  0  0  0  0  0  0
   46.4441   47.8818   11.2738 O   0  0  0  0  0  0  0  0  0  0  0  0
   46.9462   49.2601    9.2862 C   0  0  0  0  0  0  0  0  0  0  0  0
   46.7772   50.4667   10.0541 O   0  0  0  0  0  0  0  0  0  0  0  0
   45.5054   47.8921   11.0296 H   0  0  0  0  0  0  0  0  0  0  0  0
   46.0473   50.3505   10.6824 H   0  0  0  0  0  0  0  0  0  0  0  0
   47.8886   46.4109    8.2699 N   0  0  0  0  0  0  0  0  0  0  0  0
   49.1667   46.0677    8.6908 C   0  0  0  0  0  0  0  0  0  0  0  0
   49.8981   45.6191    7.6432 C   0  0  0  0  0  0  0  0  0  0  0  0
   49.0431   45.6647    6.4918 C   0  0  0  0  0  0  0  0  0  0  0  0
   49.1303   45.3550    5.0999 C   0  0  0  0  0  0  0  0  0  0  0  0
   48.0674   45.5710    4.3012 N   0  0  0  0  0  0  0  0  0  0  0  0
   46.9555   46.0715    4.8550 C   0  0  0  0  0  0  0  0  0  0  0  0
   46.7310   46.3909    6.1411 N   0  0  0  0  0  0  0  0  0  0  0  0
   47.8047   46.1708    6.9198 C   0  0  0  0  0  0  0  0  0  0  0  0
   50.2325   44.8216    4.5605 N   0  0  0  0  0  0  0  0  0  0  0  0
   51.0235   44.6534    5.1221 H   0  0  0  0  0  0  0  0  0  0  0  0
   50.2526   44.5972    3.6022 H   0  0  0  0  0  0  0  0  0  0  0  0
   44.9017   48.8156    6.2622 O   0  0  0  0  0  0  0  0  0  0  0  0
   45.3362   49.6388    7.3356 C   0  0  0  0  0  0  0  0  0  0  0  0
   44.7185   49.3671    5.4855 H   0  0  0  0  0  0  0  0  0  0  0  0
 22 23  1  0  0  0
 23  1  1  0  0  0
  1  2  1  0  0  0
  1  6  1  0  0  0
  2  3  1  0  0  0
  3 10  1  0  0  0
  3  4  1  0  0  0
 10 11  1  0  0  0
 10 18  1  0  0  0
 11 12  2  0  0  0
 12 13  1  0  0  0
 13 14  2  0  0  0
 13 18  1  0  0  0
 14 15  1  0  0  0
 14 19  1  0  0  0
 15 16  2  0  0  0
 16 17  1  0  0  0
 17 18  2  0  0  0
  4  5  1  0  0  0
  4  6  1  0  0  0
  6  7  1  0  0  0
 22 24  1  0  0  0
 19 20  1  0  0  0
 19 21  1  0  0  0
  5  8  1  0  0  0
  7  9  1  0  0  0
M  END
> <minimizedAffinity>
-7.64870

$$$$
6G38_TBN_A_800


 24 26  0  0  0  0  0  0  0  0999 V2000
   51.8493   45.4797    9.6174 C   0  0  0  0  0  0  0  0  0  0  0  0
   50.4854   44.9917    9.6077 O   0  0  0  0  0  0  0  0  0  0  0  0
   50.2193   44.3218    8.3858 C   0  0  0  0  0  0  0  0  0  0  0  0
   51.5463   44.2655    7.6202 C   0  0  0  0  0  0  0  0  0  0  0  0
   52.1921   43.0391    7.9680 O   0  0  0  0  0  0  0  0  0  0  0  0
   52.2559   45.5015    8.1550 C   0  0  0  0  0  0  0  0  0  0  0  0
   53.6904   45.4952    8.0266 O   0  0  0  0  0  0  0  0  0  0  0  0
   52.2668   42.9754    8.9330 H   0  0  0  0  0  0  0  0  0  0  0  0
   54.0538   44.7290    8.4975 H   0  0  0  0  0  0  0  0  0  0  0  0
   49.1590   45.0360    7.6740 N   0  0  0  0  0  0  0  0  0  0  0  0
   48.4307   46.1122    8.1638 C   0  0  0  0  0  0  0  0  0  0  0  0
   47.5542   46.5470    7.2277 C   0  0  0  0  0  0  0  0  0  0  0  0
   47.7365   45.7159    6.0723 C   0  0  0  0  0  0  0  0  0  0  0  0
   47.1832   45.5963    4.7606 C   0  0  0  0  0  0  0  0  0  0  0  0
   47.6218   44.6238    3.9384 N   0  0  0  0  0  0  0  0  0  0  0  0
   48.5753   43.7995    4.3911 C   0  0  0  0  0  0  0  0  0  0  0  0
   49.1911   43.8070    5.5857 N   0  0  0  0  0  0  0  0  0  0  0  0
   48.7365   44.7827    6.3915 C   0  0  0  0  0  0  0  0  0  0  0  0
   46.2565   46.4460    4.3025 N   0  0  0  0  0  0  0  0  0  0  0  0
   45.9188   47.1658    4.8829 H   0  0  0  0  0  0  0  0  0  0  0  0
   45.9125   46.3512    3.3849 H   0  0  0  0  0  0  0  0  0  0  0  0
   53.2397   47.3146   10.4603 O   0  0  0  0  0  0  0  0  0  0  0  0
   51.9205   46.8032   10.3307 C   0  0  0  0  0  0  0  0  0  0  0  0
   53.2125   48.1647   10.9267 H   0  0  0  0  0  0  0  0  0  0  0  0
 22 23  1  0  0  0
 23  1  1  0  0  0
  1  2  1  0  0  0
  1  6  1  0  0  0
  2  3  1  0  0  0
  3 10  1  0  0  0
  3  4  1  0  0  0
 10 11  1  0  0  0
 10 18  1  0  0  0
 11 12  2  0  0  0
 12 13  1  0  0  0
 13 14  2  0  0  0
 13 18  1  0  0  0
 14 15  1  0  0  0
 14 19  1  0  0  0
 15 16  2  0  0  0
 16 17  1  0  0  0
 17 18  2  0  0  0
  4  5  1  0  0  0
  4  6  1  0  0  0
  6  7  1  0  0  0
 22 24  1  0  0  0
 19 20  1  0  0  0
 19 21  1  0  0  0
  5  8  1  0  0  0
  7  9  1  0  0  0
M  END
> <minimizedAffinity>
-7.48608

$$$$
6G38_TBN_A_800


 24 26  0  0  0  0  0  0  0  0999 V2000
   50.6524   44.9435    7.2538 C   0  0  0  0  0  0  0  0  0  0  0  0
   49.6664   44.9520    8.3150 O   0  0  0  0  0  0  0  0  0  0  0  0
   48.3888   45.2698    7.7864 C   0  0  0  0  0  0  0  0  0  0  0  0
   48.5505   45.3388    6.2635 C   0  0  0  0  0  0  0  0  0  0  0  0
   48.2672   44.0392    5.7414 O   0  0  0  0  0  0  0  0  0  0  0  0
   50.0124   45.7431    6.1334 C   0  0  0  0  0  0  0  0  0  0  0  0
   50.6300   45.4316    4.8701 O   0  0  0  0  0  0  0  0  0  0  0  0
   48.8240   43.3827    6.1885 H   0  0  0  0  0  0  0  0  0  0  0  0
   50.5812   44.4756    4.7134 H   0  0  0  0  0  0  0  0  0  0  0  0
   47.9249   46.5213    8.3863 N   0  0  0  0  0  0  0  0  0  0  0  0
   46.8335   47.2706    7.9668 C   0  0  0  0  0  0  0  0  0  0  0  0
   46.6735   48.3505    8.7678 C   0  0  0  0  0  0  0  0  0  0  0  0
   47.7074   48.2862    9.7606 C   0  0  0  0  0  0  0  0  0  0  0  0
   48.1392   49.0537   10.8856 C   0  0  0  0  0  0  0  0  0  0  0  0
   49.2215   48.6608   11.5845 N   0  0  0  0  0  0  0  0  0  0  0  0
   49.8548   47.5482   11.1913 C   0  0  0  0  0  0  0  0  0  0  0  0
   49.5513   46.7280   10.1708 N   0  0  0  0  0  0  0  0  0  0  0  0
   48.4706   47.1397    9.4850 C   0  0  0  0  0  0  0  0  0  0  0  0
   47.4802   50.1442   11.2942 N   0  0  0  0  0  0  0  0  0  0  0  0
   46.6859   50.4529   10.8012 H   0  0  0  0  0  0  0  0  0  0  0  0
   47.7896   50.6378   12.0878 H   0  0  0  0  0  0  0  0  0  0  0  0
   52.0278   45.5904    9.1775 O   0  0  0  0  0  0  0  0  0  0  0  0
   51.9652   45.4755    7.7628 C   0  0  0  0  0  0  0  0  0  0  0  0
   52.8961   45.9372    9.4356 H   0  0  0  0  0  0  0  0  0  0  0  0
 22 23  1  0  0  0
 23  1  1  0  0  0
  1  2  1  0  0  0
  1  6  1  0  0  0
  2  3  1  0  0  0
  3 10  1  0  0  0
  3  4  1  0  0  0
 10 11  1  0  0  0
 10 18  1  0  0  0
 11 12  2  0  0  0
 12 13  1  0  0  0
 13 14  2  0  0  0
 13 18  1  0  0  0
 14 15  1  0  0  0
 14 19  1  0  0  0
 15 16  2  0  0  0
 16 17  1  0  0  0
 17 18  2  0  0  0
  4  5  1  0  0  0
  4  6  1  0  0  0
  6  7  1  0  0  0
 22 24  1  0  0  0
 19 20  1  0  0  0
 19 21  1  0  0  0
  5  8  1  0  0  0
  7  9  1  0  0  0
M  END
> <minimizedAffinity>
-7.37553

$$$$
