5K9W_OTA_A_402


 22 23  0  0  0  0  0  0  0  0999 V2000
   32.4453  -34.2701  -17.9454 N   0  0  0  0  0  0  0  0  0  0  0  0
   33.3908  -34.9875  -17.0848 C   0  0  0  0  0  0  0  0  0  0  0  0
   34.3801  -34.1370  -16.2841 C   0  0  0  0  0  0  0  0  0  0  0  0
   34.1937  -32.7172  -16.3591 C   0  0  0  0  0  0  0  0  0  0  0  0
   33.0711  -32.0486  -17.0904 C   0  0  0  0  0  0  0  0  0  0  0  0
   31.9624  -32.9566  -17.4605 C   0  0  0  0  0  0  0  0  0  0  0  0
   35.6675  -34.5037  -15.4058 S   0  0  0  0  0  0  0  0  0  0  0  0
   36.1215  -33.0652  -14.9565 C   0  0  0  0  0  0  0  0  0  0  0  0
   35.3252  -32.0578  -15.5138 C   0  0  0  0  0  0  0  0  0  0  0  0
   31.6302  -34.8696  -18.0747 H   0  0  0  0  0  0  0  0  0  0  0  0
   35.4868  -30.5201  -15.3084 C   0  0  0  0  0  0  0  0  0  0  0  0
   35.6955  -29.7839  -16.2936 O   0  0  0  0  0  0  0  0  0  0  0  0
   35.4218  -30.0068  -14.1199 O   0  0  0  0  0  0  0  0  0  0  0  0
   35.7427  -30.1538  -17.1532 H   0  0  0  0  0  0  0  0  0  0  0  0
   37.1946  -32.6431  -14.1521 N   0  0  0  0  0  0  0  0  0  0  0  0
   37.1245  -32.5945  -12.7691 C   0  0  0  0  0  0  0  0  0  0  0  0
   36.1230  -32.8778  -12.0932 O   0  0  0  0  0  0  0  0  0  0  0  0
   38.0327  -32.3702  -14.5907 H   0  0  0  0  0  0  0  0  0  0  0  0
   38.4258  -32.1765  -12.1386 C   0  0  0  0  0  0  0  0  0  0  0  0
   39.4601  -32.7232  -12.6493 O   0  0  0  0  0  0  0  0  0  0  0  0
   38.3894  -31.2925  -11.2537 O   0  0  0  0  0  0  0  0  0  0  0  0
   39.3646  -33.3797  -13.3110 H   0  0  0  0  0  0  0  0  0  0  0  0
  1  2  1  0  0  0
  1  6  1  0  0  0
  2  3  1  0  0  0
  3  4  2  0  0  0
  3  7  1  0  0  0
  4  5  1  0  0  0
  4  9  1  0  0  0
  5  6  1  0  0  0
  7  8  1  0  0  0
  8  9  2  0  0  0
  8 15  1  0  0  0
  9 11  1  0  0  0
 11 12  1  0  0  0
 11 13  2  0  0  0
 15 16  1  0  0  0
 16 19  1  0  0  0
 16 17  2  0  0  0
 19 20  1  0  0  0
 19 21  2  0  0  0
  1 10  1  0  0  0
 12 14  1  0  0  0
 15 18  1  0  0  0
 20 22  1  0  0  0
M  END
> <minimizedAffinity>
-8.24483

$$$$
5K9W_OTA_A_402


 22 23  0  0  0  0  0  0  0  0999 V2000
   33.2716  -31.3322  -20.0023 N   0  0  0  0  0  0  0  0  0  0  0  0
   34.3071  -30.6018  -19.2651 C   0  0  0  0  0  0  0  0  0  0  0  0
   34.5410  -31.0138  -17.8095 C   0  0  0  0  0  0  0  0  0  0  0  0
   33.8116  -32.1618  -17.3556 C   0  0  0  0  0  0  0  0  0  0  0  0
   32.9241  -32.9983  -18.2243 C   0  0  0  0  0  0  0  0  0  0  0  0
   33.1029  -32.7669  -19.6753 C   0  0  0  0  0  0  0  0  0  0  0  0
   35.4031  -30.3725  -16.6225 S   0  0  0  0  0  0  0  0  0  0  0  0
   35.0834  -31.3864  -15.4620 C   0  0  0  0  0  0  0  0  0  0  0  0
   34.1665  -32.3695  -15.8521 C   0  0  0  0  0  0  0  0  0  0  0  0
   33.4959  -31.2667  -20.9952 H   0  0  0  0  0  0  0  0  0  0  0  0
   33.6044  -33.5246  -14.9674 C   0  0  0  0  0  0  0  0  0  0  0  0
   34.3448  -34.0765  -14.1286 O   0  0  0  0  0  0  0  0  0  0  0  0
   32.3795  -33.9239  -15.1107 O   0  0  0  0  0  0  0  0  0  0  0  0
   35.2304  -33.7887  -14.0242 H   0  0  0  0  0  0  0  0  0  0  0  0
   35.5192  -31.4303  -14.1259 N   0  0  0  0  0  0  0  0  0  0  0  0
   36.6520  -32.1209  -13.7263 C   0  0  0  0  0  0  0  0  0  0  0  0
   37.3804  -32.7934  -14.4728 O   0  0  0  0  0  0  0  0  0  0  0  0
   34.9965  -30.9491  -13.4444 H   0  0  0  0  0  0  0  0  0  0  0  0
   36.9425  -31.9552  -12.2588 C   0  0  0  0  0  0  0  0  0  0  0  0
   38.1130  -31.5176  -11.9979 O   0  0  0  0  0  0  0  0  0  0  0  0
   36.0123  -32.1719  -11.4504 O   0  0  0  0  0  0  0  0  0  0  0  0
   38.7318  -31.3933  -12.6905 H   0  0  0  0  0  0  0  0  0  0  0  0
  1  2  1  0  0  0
  1  6  1  0  0  0
  2  3  1  0  0  0
  3  4  2  0  0  0
  3  7  1  0  0  0
  4  5  1  0  0  0
  4  9  1  0  0  0
  5  6  1  0  0  0
  7  8  1  0  0  0
  8  9  2  0  0  0
  8 15  1  0  0  0
  9 11  1  0  0  0
 11 12  1  0  0  0
 11 13  2  0  0  0
 15 16  1  0  0  0
 16 19  1  0  0  0
 16 17  2  0  0  0
 19 20  1  0  0  0
 19 21  2  0  0  0
  1 10  1  0  0  0
 12 14  1  0  0  0
 15 18  1  0  0  0
 20 22  1  0  0  0
M  END
> <minimizedAffinity>
-6.12098

$$$$
5K9W_OTA_A_402


 22 23  0  0  0  0  0  0  0  0999 V2000
   36.4326  -31.2922  -13.5291 N   0  0  0  0  0  0  0  0  0  0  0  0
   35.6687  -30.6232  -14.5865 C   0  0  0  0  0  0  0  0  0  0  0  0
   35.0297  -31.5188  -15.6508 C   0  0  0  0  0  0  0  0  0  0  0  0
   35.1355  -32.9317  -15.4301 C   0  0  0  0  0  0  0  0  0  0  0  0
   35.7474  -33.5548  -14.2138 C   0  0  0  0  0  0  0  0  0  0  0  0
   35.9425  -32.6174  -13.0851 C   0  0  0  0  0  0  0  0  0  0  0  0
   34.3040  -31.2057  -17.0431 S   0  0  0  0  0  0  0  0  0  0  0  0
   33.9698  -32.6673  -17.5220 C   0  0  0  0  0  0  0  0  0  0  0  0
   34.4624  -33.6403  -16.6445 C   0  0  0  0  0  0  0  0  0  0  0  0
   36.4370  -30.6768  -12.7156 H   0  0  0  0  0  0  0  0  0  0  0  0
   34.3377  -35.1871  -16.8015 C   0  0  0  0  0  0  0  0  0  0  0  0
   35.3686  -35.8847  -16.8840 O   0  0  0  0  0  0  0  0  0  0  0  0
   33.1707  -35.7481  -16.8628 O   0  0  0  0  0  0  0  0  0  0  0  0
   36.2127  -35.4803  -16.8398 H   0  0  0  0  0  0  0  0  0  0  0  0
   33.3210  -33.1362  -18.6779 N   0  0  0  0  0  0  0  0  0  0  0  0
   31.9415  -33.1816  -18.8003 C   0  0  0  0  0  0  0  0  0  0  0  0
   31.1337  -32.8545  -17.9168 O   0  0  0  0  0  0  0  0  0  0  0  0
   33.8710  -33.4458  -19.4335 H   0  0  0  0  0  0  0  0  0  0  0  0
   31.4970  -33.6566  -20.1577 C   0  0  0  0  0  0  0  0  0  0  0  0
   30.7295  -34.6764  -20.1354 O   0  0  0  0  0  0  0  0  0  0  0  0
   31.8376  -32.9807  -21.1541 O   0  0  0  0  0  0  0  0  0  0  0  0
   30.5439  -35.1055  -19.3234 H   0  0  0  0  0  0  0  0  0  0  0  0
  1  2  1  0  0  0
  1  6  1  0  0  0
  2  3  1  0  0  0
  3  4  2  0  0  0
  3  7  1  0  0  0
  4  5  1  0  0  0
  4  9  1  0  0  0
  5  6  1  0  0  0
  7  8  1  0  0  0
  8  9  2  0  0  0
  8 15  1  0  0  0
  9 11  1  0  0  0
 11 12  1  0  0  0
 11 13  2  0  0  0
 15 16  1  0  0  0
 16 19  1  0  0  0
 16 17  2  0  0  0
 19 20  1  0  0  0
 19 21  2  0  0  0
  1 10  1  0  0  0
 12 14  1  0  0  0
 15 18  1  0  0  0
 20 22  1  0  0  0
M  END
> <minimizedAffinity>
-5.56702

$$$$
5K9W_OTA_A_402


 22 23  0  0  0  0  0  0  0  0999 V2000
   36.0575  -32.0329  -11.8159 N   0  0  0  0  0  0  0  0  0  0  0  0
   35.5388  -33.2265  -12.4908 C   0  0  0  0  0  0  0  0  0  0  0  0
   35.1235  -33.0676  -13.9556 C   0  0  0  0  0  0  0  0  0  0  0  0
   35.4072  -31.7966  -14.5556 C   0  0  0  0  0  0  0  0  0  0  0  0
   36.1360  -30.6817  -13.8716 C   0  0  0  0  0  0  0  0  0  0  0  0
   36.8474  -31.0883  -12.6390 C   0  0  0  0  0  0  0  0  0  0  0  0
   34.3490  -34.0271  -14.9769 S   0  0  0  0  0  0  0  0  0  0  0  0
   34.3092  -33.1070  -16.2532 C   0  0  0  0  0  0  0  0  0  0  0  0
   34.8662  -31.8448  -16.0167 C   0  0  0  0  0  0  0  0  0  0  0  0
   36.6531  -32.3465  -11.0495 H   0  0  0  0  0  0  0  0  0  0  0  0
   34.9836  -30.6708  -17.0370 C   0  0  0  0  0  0  0  0  0  0  0  0
   35.6282  -29.6479  -16.7300 O   0  0  0  0  0  0  0  0  0  0  0  0
   34.4023  -30.7462  -18.1931 O   0  0  0  0  0  0  0  0  0  0  0  0
   36.0488  -29.5923  -15.8945 H   0  0  0  0  0  0  0  0  0  0  0  0
   33.7754  -33.3265  -17.5353 N   0  0  0  0  0  0  0  0  0  0  0  0
   32.4162  -33.2858  -17.8014 C   0  0  0  0  0  0  0  0  0  0  0  0
   31.5276  -33.0892  -16.9577 O   0  0  0  0  0  0  0  0  0  0  0  0
   34.3945  -33.5176  -18.2765 H   0  0  0  0  0  0  0  0  0  0  0  0
   32.1067  -33.4838  -19.2611 C   0  0  0  0  0  0  0  0  0  0  0  0
   30.9578  -33.9891  -19.4939 O   0  0  0  0  0  0  0  0  0  0  0  0
   32.9407  -33.0698  -20.0970 O   0  0  0  0  0  0  0  0  0  0  0  0
   30.4150  -34.2664  -18.7822 H   0  0  0  0  0  0  0  0  0  0  0  0
  1  2  1  0  0  0
  1  6  1  0  0  0
  2  3  1  0  0  0
  3  4  2  0  0  0
  3  7  1  0  0  0
  4  5  1  0  0  0
  4  9  1  0  0  0
  5  6  1  0  0  0
  7  8  1  0  0  0
  8  9  2  0  0  0
  8 15  1  0  0  0
  9 11  1  0  0  0
 11 12  1  0  0  0
 11 13  2  0  0  0
 15 16  1  0  0  0
 16 19  1  0  0  0
 16 17  2  0  0  0
 19 20  1  0  0  0
 19 21  2  0  0  0
  1 10  1  0  0  0
 12 14  1  0  0  0
 15 18  1  0  0  0
 20 22  1  0  0  0
M  END
> <minimizedAffinity>
-5.31826

$$$$
