3PCF_FHB_M_550


 13 13  0  0  0  0  0  0  0  0999 V2000
   14.3798   12.7839   41.0427 C   0  0  0  0  0  0  0  0  0  0  0  0
   15.4675   13.3942   40.3708 C   0  0  0  0  0  0  0  0  0  0  0  0
   15.8065   14.6990   40.6524 C   0  0  0  0  0  0  0  0  0  0  0  0
   16.8358   15.2916   39.9892 F   0  0  0  0  0  0  0  0  0  0  0  0
   15.1382   15.3910   41.6743 C   0  0  0  0  0  0  0  0  0  0  0  0
   15.5491   16.6830   41.9236 O   0  0  0  0  0  0  0  0  0  0  0  0
   14.0792   14.8055   42.3441 C   0  0  0  0  0  0  0  0  0  0  0  0
   13.7069   13.4859   42.0409 C   0  0  0  0  0  0  0  0  0  0  0  0
   16.2714   17.0447   41.4488 H   0  0  0  0  0  0  0  0  0  0  0  0
   14.0034   11.3685   40.6575 C   0  0  0  0  0  0  0  0  0  0  0  0
   14.7838   10.6516   40.0291 O   0  0  0  0  0  0  0  0  0  0  0  0
   12.9427   10.8995   41.0198 O   0  0  0  0  0  0  0  0  0  0  0  0
   12.3357   11.4286   41.4989 H   0  0  0  0  0  0  0  0  0  0  0  0
  1  2  2  0  0  0
  1  8  1  0  0  0
  1 10  1  0  0  0
  2  3  1  0  0  0
  3  4  1  0  0  0
  3  5  2  0  0  0
  5  6  1  0  0  0
  5  7  1  0  0  0
  7  8  2  0  0  0
 10 11  2  0  0  0
 10 12  1  0  0  0
  6  9  1  0  0  0
 12 13  1  0  0  0
M  END
> <minimizedAffinity>
-6.72004

$$$$
3PCF_FHB_M_550


 13 13  0  0  0  0  0  0  0  0999 V2000
   15.1755   13.6969   40.8051 C   0  0  0  0  0  0  0  0  0  0  0  0
   15.7660   12.6479   40.0580 C   0  0  0  0  0  0  0  0  0  0  0  0
   15.1954   11.3945   40.0606 C   0  0  0  0  0  0  0  0  0  0  0  0
   15.7767   10.3822   39.3624 F   0  0  0  0  0  0  0  0  0  0  0  0
   13.9762   11.1818   40.7225 C   0  0  0  0  0  0  0  0  0  0  0  0
   13.4464    9.9107   40.6588 O   0  0  0  0  0  0  0  0  0  0  0  0
   13.3840   12.1982   41.4498 C   0  0  0  0  0  0  0  0  0  0  0  0
   13.9762   13.4712   41.4780 C   0  0  0  0  0  0  0  0  0  0  0  0
   13.8771    9.2483   40.1550 H   0  0  0  0  0  0  0  0  0  0  0  0
   15.8704   15.0423   40.8233 C   0  0  0  0  0  0  0  0  0  0  0  0
   16.8110   15.2825   40.0648 O   0  0  0  0  0  0  0  0  0  0  0  0
   15.4655   15.9281   41.5498 O   0  0  0  0  0  0  0  0  0  0  0  0
   14.7511   15.7651   42.1338 H   0  0  0  0  0  0  0  0  0  0  0  0
  1  2  2  0  0  0
  1  8  1  0  0  0
  1 10  1  0  0  0
  2  3  1  0  0  0
  3  4  1  0  0  0
  3  5  2  0  0  0
  5  6  1  0  0  0
  5  7  1  0  0  0
  7  8  2  0  0  0
 10 11  2  0  0  0
 10 12  1  0  0  0
  6  9  1  0  0  0
 12 13  1  0  0  0
M  END
> <minimizedAffinity>
-6.70884

$$$$
3PCF_FHB_M_550


 13 13  0  0  0  0  0  0  0  0999 V2000
   15.3016   13.7560   40.6951 C   0  0  0  0  0  0  0  0  0  0  0  0
   14.1335   13.5497   41.4699 C   0  0  0  0  0  0  0  0  0  0  0  0
   13.4793   12.3389   41.4208 C   0  0  0  0  0  0  0  0  0  0  0  0
   12.3444   12.1502   42.1465 F   0  0  0  0  0  0  0  0  0  0  0  0
   14.0244   11.2782   40.6807 C   0  0  0  0  0  0  0  0  0  0  0  0
   13.3336   10.0854   40.7003 O   0  0  0  0  0  0  0  0  0  0  0  0
   15.1682   11.4624   39.9253 C   0  0  0  0  0  0  0  0  0  0  0  0
   15.8240   12.7040   39.9453 C   0  0  0  0  0  0  0  0  0  0  0  0
   12.5622    9.9993   41.2252 H   0  0  0  0  0  0  0  0  0  0  0  0
   15.9533   15.1225   40.7321 C   0  0  0  0  0  0  0  0  0  0  0  0
   15.5947   15.9763   41.5445 O   0  0  0  0  0  0  0  0  0  0  0  0
   16.8864   15.3732   39.9953 O   0  0  0  0  0  0  0  0  0  0  0  0
   17.1742   14.7369   39.3707 H   0  0  0  0  0  0  0  0  0  0  0  0
  1  2  2  0  0  0
  1  8  1  0  0  0
  1 10  1  0  0  0
  2  3  1  0  0  0
  3  4  1  0  0  0
  3  5  2  0  0  0
  5  6  1  0  0  0
  5  7  1  0  0  0
  7  8  2  0  0  0
 10 11  2  0  0  0
 10 12  1  0  0  0
  6  9  1  0  0  0
 12 13  1  0  0  0
M  END
> <minimizedAffinity>
-6.66171

$$$$
3PCF_FHB_M_550


 13 13  0  0  0  0  0  0  0  0999 V2000
   14.4118   11.1153   40.6651 C   0  0  0  0  0  0  0  0  0  0  0  0
   15.2954   12.1052   40.1683 C   0  0  0  0  0  0  0  0  0  0  0  0
   15.1652   13.4133   40.5791 C   0  0  0  0  0  0  0  0  0  0  0  0
   15.9987   14.3670   40.0830 F   0  0  0  0  0  0  0  0  0  0  0  0
   14.2221   13.7474   41.5633 C   0  0  0  0  0  0  0  0  0  0  0  0
   14.1666   15.0696   41.9494 O   0  0  0  0  0  0  0  0  0  0  0  0
   13.3578   12.7903   42.0629 C   0  0  0  0  0  0  0  0  0  0  0  0
   13.4633   11.4599   41.6259 C   0  0  0  0  0  0  0  0  0  0  0  0
   14.7700   15.6889   41.5881 H   0  0  0  0  0  0  0  0  0  0  0  0
   14.5518    9.7019   40.1396 C   0  0  0  0  0  0  0  0  0  0  0  0
   15.3567    9.4321   39.2468 O   0  0  0  0  0  0  0  0  0  0  0  0
   13.9098    8.7993   40.6390 O   0  0  0  0  0  0  0  0  0  0  0  0
   13.2926    8.9840   41.3194 H   0  0  0  0  0  0  0  0  0  0  0  0
  1  2  2  0  0  0
  1  8  1  0  0  0
  1 10  1  0  0  0
  2  3  1  0  0  0
  3  4  1  0  0  0
  3  5  2  0  0  0
  5  6  1  0  0  0
  5  7  1  0  0  0
  7  8  2  0  0  0
 10 11  2  0  0  0
 10 12  1  0  0  0
  6  9  1  0  0  0
 12 13  1  0  0  0
M  END
> <minimizedAffinity>
-6.50923

$$$$
3PCF_FHB_M_550


 13 13  0  0  0  0  0  0  0  0999 V2000
   14.3918   12.5688   40.8527 C   0  0  0  0  0  0  0  0  0  0  0  0
   13.7550   13.3003   41.8856 C   0  0  0  0  0  0  0  0  0  0  0  0
   14.2193   14.5499   42.2316 C   0  0  0  0  0  0  0  0  0  0  0  0
   13.6223   15.2410   43.2396 F   0  0  0  0  0  0  0  0  0  0  0  0
   15.2593   15.1388   41.4958 C   0  0  0  0  0  0  0  0  0  0  0  0
   15.6536   16.4034   41.8773 O   0  0  0  0  0  0  0  0  0  0  0  0
   15.8856   14.4397   40.4800 C   0  0  0  0  0  0  0  0  0  0  0  0
   15.4386   13.1522   40.1416 C   0  0  0  0  0  0  0  0  0  0  0  0
   15.2040   16.8452   42.5706 H   0  0  0  0  0  0  0  0  0  0  0  0
   13.8870   11.1741   40.5472 C   0  0  0  0  0  0  0  0  0  0  0  0
   14.5005   10.4293   39.7813 O   0  0  0  0  0  0  0  0  0  0  0  0
   12.8955   10.7484   41.1059 O   0  0  0  0  0  0  0  0  0  0  0  0
   12.4151   11.2993   41.6921 H   0  0  0  0  0  0  0  0  0  0  0  0
  1  2  2  0  0  0
  1  8  1  0  0  0
  1 10  1  0  0  0
  2  3  1  0  0  0
  3  4  1  0  0  0
  3  5  2  0  0  0
  5  6  1  0  0  0
  5  7  1  0  0  0
  7  8  2  0  0  0
 10 11  2  0  0  0
 10 12  1  0  0  0
  6  9  1  0  0  0
 12 13  1  0  0  0
M  END
> <minimizedAffinity>
-6.49197

$$$$
3PCF_FHB_M_550


 13 13  0  0  0  0  0  0  0  0999 V2000
   14.5572   11.1938   40.5263 C   0  0  0  0  0  0  0  0  0  0  0  0
   13.5733   11.5840   41.4680 C   0  0  0  0  0  0  0  0  0  0  0  0
   13.5397   12.8802   41.9321 C   0  0  0  0  0  0  0  0  0  0  0  0
   12.6097   13.2475   42.8543 F   0  0  0  0  0  0  0  0  0  0  0  0
   14.4165   13.8376   41.3988 C   0  0  0  0  0  0  0  0  0  0  0  0
   14.3076   15.1222   41.8870 O   0  0  0  0  0  0  0  0  0  0  0  0
   15.3775   13.4731   40.4734 C   0  0  0  0  0  0  0  0  0  0  0  0
   15.4387   12.1460   40.0182 C   0  0  0  0  0  0  0  0  0  0  0  0
   13.6429   15.3305   42.5136 H   0  0  0  0  0  0  0  0  0  0  0  0
   14.5958    9.7441   40.0900 C   0  0  0  0  0  0  0  0  0  0  0  0
   15.3499    9.3705   39.1903 O   0  0  0  0  0  0  0  0  0  0  0  0
   13.9219    8.9150   40.6687 O   0  0  0  0  0  0  0  0  0  0  0  0
   13.3422    9.1792   41.3558 H   0  0  0  0  0  0  0  0  0  0  0  0
  1  2  2  0  0  0
  1  8  1  0  0  0
  1 10  1  0  0  0
  2  3  1  0  0  0
  3  4  1  0  0  0
  3  5  2  0  0  0
  5  6  1  0  0  0
  5  7  1  0  0  0
  7  8  2  0  0  0
 10 11  2  0  0  0
 10 12  1  0  0  0
  6  9  1  0  0  0
 12 13  1  0  0  0
M  END
> <minimizedAffinity>
-6.47075

$$$$
3PCF_FHB_M_550


 13 13  0  0  0  0  0  0  0  0999 V2000
   14.8308   14.5617   41.5127 C   0  0  0  0  0  0  0  0  0  0  0  0
   15.3740   13.6480   40.5760 C   0  0  0  0  0  0  0  0  0  0  0  0
   14.8689   12.3699   40.4879 C   0  0  0  0  0  0  0  0  0  0  0  0
   15.4072   11.4862   39.6050 F   0  0  0  0  0  0  0  0  0  0  0  0
   13.7525   12.0039   41.2559 C   0  0  0  0  0  0  0  0  0  0  0  0
   13.2805   10.7187   41.0955 O   0  0  0  0  0  0  0  0  0  0  0  0
   13.2069   12.8876   42.1692 C   0  0  0  0  0  0  0  0  0  0  0  0
   13.7363   14.1829   42.2875 C   0  0  0  0  0  0  0  0  0  0  0  0
   13.6768   10.1492   40.4657 H   0  0  0  0  0  0  0  0  0  0  0  0
   15.4574   15.9363   41.6182 C   0  0  0  0  0  0  0  0  0  0  0  0
   15.4029   16.5813   42.6664 O   0  0  0  0  0  0  0  0  0  0  0  0
   16.0788   16.3968   40.6811 O   0  0  0  0  0  0  0  0  0  0  0  0
   16.1320   15.9215   39.8754 H   0  0  0  0  0  0  0  0  0  0  0  0
  1  2  2  0  0  0
  1  8  1  0  0  0
  1 10  1  0  0  0
  2  3  1  0  0  0
  3  4  1  0  0  0
  3  5  2  0  0  0
  5  6  1  0  0  0
  5  7  1  0  0  0
  7  8  2  0  0  0
 10 11  2  0  0  0
 10 12  1  0  0  0
  6  9  1  0  0  0
 12 13  1  0  0  0
M  END
> <minimizedAffinity>
-6.36691

$$$$
3PCF_FHB_M_550


 13 13  0  0  0  0  0  0  0  0999 V2000
   14.9631   14.5820   41.8394 C   0  0  0  0  0  0  0  0  0  0  0  0
   13.9466   13.5956   41.8739 C   0  0  0  0  0  0  0  0  0  0  0  0
   13.1347   13.4817   42.9805 C   0  0  0  0  0  0  0  0  0  0  0  0
   12.1750   12.5187   43.0224 F   0  0  0  0  0  0  0  0  0  0  0  0
   13.2495   14.4054   44.0310 C   0  0  0  0  0  0  0  0  0  0  0  0
   12.3848   14.2508   45.0935 O   0  0  0  0  0  0  0  0  0  0  0  0
   14.2321   15.3783   44.0078 C   0  0  0  0  0  0  0  0  0  0  0  0
   15.0848   15.4813   42.8968 C   0  0  0  0  0  0  0  0  0  0  0  0
   11.7316   13.5793   45.0721 H   0  0  0  0  0  0  0  0  0  0  0  0
   15.8721   14.6312   40.6291 C   0  0  0  0  0  0  0  0  0  0  0  0
   15.9448   13.6803   39.8492 O   0  0  0  0  0  0  0  0  0  0  0  0
   16.4994   15.6411   40.3783 O   0  0  0  0  0  0  0  0  0  0  0  0
   16.4572   16.3752   40.9591 H   0  0  0  0  0  0  0  0  0  0  0  0
  1  2  2  0  0  0
  1  8  1  0  0  0
  1 10  1  0  0  0
  2  3  1  0  0  0
  3  4  1  0  0  0
  3  5  2  0  0  0
  5  6  1  0  0  0
  5  7  1  0  0  0
  7  8  2  0  0  0
 10 11  2  0  0  0
 10 12  1  0  0  0
  6  9  1  0  0  0
 12 13  1  0  0  0
M  END
> <minimizedAffinity>
-6.30596

$$$$
3PCF_FHB_M_550


 13 13  0  0  0  0  0  0  0  0999 V2000
   13.1466   13.4680   42.9418 C   0  0  0  0  0  0  0  0  0  0  0  0
   14.0726   14.4857   42.6044 C   0  0  0  0  0  0  0  0  0  0  0  0
   14.9101   14.3240   41.5231 C   0  0  0  0  0  0  0  0  0  0  0  0
   15.8153   15.2913   41.2146 F   0  0  0  0  0  0  0  0  0  0  0  0
   14.7783   13.1963   40.6981 C   0  0  0  0  0  0  0  0  0  0  0  0
   15.6284   13.1134   39.6160 O   0  0  0  0  0  0  0  0  0  0  0  0
   13.8736   12.1980   41.0107 C   0  0  0  0  0  0  0  0  0  0  0  0
   13.0375   12.3408   42.1299 C   0  0  0  0  0  0  0  0  0  0  0  0
   16.2278   13.8109   39.4367 H   0  0  0  0  0  0  0  0  0  0  0  0
   12.2884   13.6609   44.1746 C   0  0  0  0  0  0  0  0  0  0  0  0
   11.1925   13.1079   44.2796 O   0  0  0  0  0  0  0  0  0  0  0  0
   12.7014   14.3201   45.1081 O   0  0  0  0  0  0  0  0  0  0  0  0
   13.5325   14.7484   45.0477 H   0  0  0  0  0  0  0  0  0  0  0  0
  1  2  2  0  0  0
  1  8  1  0  0  0
  1 10  1  0  0  0
  2  3  1  0  0  0
  3  4  1  0  0  0
  3  5  2  0  0  0
  5  6  1  0  0  0
  5  7  1  0  0  0
  7  8  2  0  0  0
 10 11  2  0  0  0
 10 12  1  0  0  0
  6  9  1  0  0  0
 12 13  1  0  0  0
M  END
> <minimizedAffinity>
-6.27660

$$$$
3PCF_FHB_M_550


 13 13  0  0  0  0  0  0  0  0999 V2000
   14.8110   14.3767   41.7950 C   0  0  0  0  0  0  0  0  0  0  0  0
   14.7781   15.1876   42.9563 C   0  0  0  0  0  0  0  0  0  0  0  0
   13.8437   14.9460   43.9388 C   0  0  0  0  0  0  0  0  0  0  0  0
   13.7976   15.7403   45.0421 F   0  0  0  0  0  0  0  0  0  0  0  0
   12.9897   13.8371   43.8353 C   0  0  0  0  0  0  0  0  0  0  0  0
   12.0998   13.6376   44.8690 O   0  0  0  0  0  0  0  0  0  0  0  0
   13.0153   13.0322   42.7109 C   0  0  0  0  0  0  0  0  0  0  0  0
   13.9443   13.2906   41.6899 C   0  0  0  0  0  0  0  0  0  0  0  0
   12.1134   14.2047   45.6148 H   0  0  0  0  0  0  0  0  0  0  0  0
   15.8143   14.7164   40.7127 C   0  0  0  0  0  0  0  0  0  0  0  0
   16.2489   15.8621   40.5853 O   0  0  0  0  0  0  0  0  0  0  0  0
   16.2517   13.8425   39.9906 O   0  0  0  0  0  0  0  0  0  0  0  0
   15.9340   12.9648   40.0720 H   0  0  0  0  0  0  0  0  0  0  0  0
  1  2  2  0  0  0
  1  8  1  0  0  0
  1 10  1  0  0  0
  2  3  1  0  0  0
  3  4  1  0  0  0
  3  5  2  0  0  0
  5  6  1  0  0  0
  5  7  1  0  0  0
  7  8  2  0  0  0
 10 11  2  0  0  0
 10 12  1  0  0  0
  6  9  1  0  0  0
 12 13  1  0  0  0
M  END
> <minimizedAffinity>
-6.24932

$$$$
