1GRP_ICT_A_418


 17 16  0  0  0  0  0  0  0  0999 V2000
   84.5059   65.8012    1.7042 C   0  0  0  0  0  0  0  0  0  0  0  0
   82.9882   65.7440    1.9725 C   0  0  0  0  0  0  0  0  0  0  0  0
   82.6072   65.1727    2.9913 O   0  0  0  0  0  0  0  0  0  0  0  0
   82.1885   66.2410    1.1784 O   0  0  0  0  0  0  0  0  0  0  0  0
   82.5005   66.6723    0.4073 H   0  0  0  0  0  0  0  0  0  0  0  0
   85.0674   67.2261    1.9062 C   0  0  0  0  0  0  0  0  0  0  0  0
   84.2848   68.1702    1.1961 O   0  0  0  0  0  0  0  0  0  0  0  0
   83.3771   68.1603    1.5380 H   0  0  0  0  0  0  0  0  0  0  0  0
   85.0986   67.6021    3.3847 C   0  0  0  0  0  0  0  0  0  0  0  0
   85.4939   66.7607    4.1782 O   0  0  0  0  0  0  0  0  0  0  0  0
   84.7249   68.7144    3.7385 O   0  0  0  0  0  0  0  0  0  0  0  0
   84.4283   69.3337    3.1009 H   0  0  0  0  0  0  0  0  0  0  0  0
   84.7604   65.2778    0.2836 C   0  0  0  0  0  0  0  0  0  0  0  0
   84.6751   63.7788    0.1454 C   0  0  0  0  0  0  0  0  0  0  0  0
   83.9487   63.2974   -0.7201 O   0  0  0  0  0  0  0  0  0  0  0  0
   85.3311   63.0976    0.9224 O   0  0  0  0  0  0  0  0  0  0  0  0
   85.8715   63.5110    1.5665 H   0  0  0  0  0  0  0  0  0  0  0  0
  9 10  2  0  0  0
  9 11  1  0  0  0
  9  6  1  0  0  0
  6  7  1  0  0  0
  6  1  1  0  0  0
  1 13  1  0  0  0
  1  2  1  0  0  0
 13 14  1  0  0  0
 14 15  2  0  0  0
 14 16  1  0  0  0
  2  3  2  0  0  0
  2  4  1  0  0  0
 11 12  1  0  0  0
  7  8  1  0  0  0
 16 17  1  0  0  0
  4  5  1  0  0  0
M  END
> <minimizedAffinity>
-6.56330

$$$$
1GRP_ICT_A_418


 17 16  0  0  0  0  0  0  0  0999 V2000
   85.0743   66.3836    2.2815 C   0  0  0  0  0  0  0  0  0  0  0  0
   84.3834   67.1536    3.4253 C   0  0  0  0  0  0  0  0  0  0  0  0
   85.0670   67.4772    4.3936 O   0  0  0  0  0  0  0  0  0  0  0  0
   83.1813   67.4167    3.3722 O   0  0  0  0  0  0  0  0  0  0  0  0
   82.6783   67.1607    2.6243 H   0  0  0  0  0  0  0  0  0  0  0  0
   85.2879   67.2775    1.0399 C   0  0  0  0  0  0  0  0  0  0  0  0
   84.2620   68.2510    0.9502 O   0  0  0  0  0  0  0  0  0  0  0  0
   84.2898   68.8231    1.7331 H   0  0  0  0  0  0  0  0  0  0  0  0
   86.6451   67.9734    1.0882 C   0  0  0  0  0  0  0  0  0  0  0  0
   87.5939   67.3411    1.5284 O   0  0  0  0  0  0  0  0  0  0  0  0
   86.7501   69.1314    0.7011 O   0  0  0  0  0  0  0  0  0  0  0  0
   85.9999   69.5844    0.3696 H   0  0  0  0  0  0  0  0  0  0  0  0
   84.2277   65.1440    1.9600 C   0  0  0  0  0  0  0  0  0  0  0  0
   83.2656   65.3247    0.8131 C   0  0  0  0  0  0  0  0  0  0  0  0
   82.2660   66.0200    0.9735 O   0  0  0  0  0  0  0  0  0  0  0  0
   83.5188   64.7504   -0.2377 O   0  0  0  0  0  0  0  0  0  0  0  0
   84.2947   64.2304   -0.3123 H   0  0  0  0  0  0  0  0  0  0  0  0
  9 10  2  0  0  0
  9 11  1  0  0  0
  9  6  1  0  0  0
  6  7  1  0  0  0
  6  1  1  0  0  0
  1 13  1  0  0  0
  1  2  1  0  0  0
 13 14  1  0  0  0
 14 15  2  0  0  0
 14 16  1  0  0  0
  2  3  2  0  0  0
  2  4  1  0  0  0
 11 12  1  0  0  0
  7  8  1  0  0  0
 16 17  1  0  0  0
  4  5  1  0  0  0
M  END
> <minimizedAffinity>
-6.29337

$$$$
1GRP_ICT_A_418


 17 16  0  0  0  0  0  0  0  0999 V2000
   84.5661   66.9187    2.0672 C   0  0  0  0  0  0  0  0  0  0  0  0
   84.9236   67.4929    3.4532 C   0  0  0  0  0  0  0  0  0  0  0  0
   85.4923   66.7521    4.2515 O   0  0  0  0  0  0  0  0  0  0  0  0
   84.6299   68.6516    3.7505 O   0  0  0  0  0  0  0  0  0  0  0  0
   84.1962   69.1998    3.1265 H   0  0  0  0  0  0  0  0  0  0  0  0
   83.9969   65.4865    2.1728 C   0  0  0  0  0  0  0  0  0  0  0  0
   82.8787   65.4627    3.0430 O   0  0  0  0  0  0  0  0  0  0  0  0
   82.1791   66.0320    2.6861 H   0  0  0  0  0  0  0  0  0  0  0  0
   83.5856   64.9542    0.8032 C   0  0  0  0  0  0  0  0  0  0  0  0
   83.8027   63.7759    0.5614 O   0  0  0  0  0  0  0  0  0  0  0  0
   83.0655   65.7070   -0.0120 O   0  0  0  0  0  0  0  0  0  0  0  0
   82.9146   66.6049    0.2092 H   0  0  0  0  0  0  0  0  0  0  0  0
   85.8229   66.9756    1.1874 C   0  0  0  0  0  0  0  0  0  0  0  0
   85.7915   68.0413    0.1212 C   0  0  0  0  0  0  0  0  0  0  0  0
   85.0921   67.8723   -0.8742 O   0  0  0  0  0  0  0  0  0  0  0  0
   86.4856   69.0352    0.2895 O   0  0  0  0  0  0  0  0  0  0  0  0
   87.0028   69.1193    1.0663 H   0  0  0  0  0  0  0  0  0  0  0  0
  9 10  2  0  0  0
  9 11  1  0  0  0
  9  6  1  0  0  0
  6  7  1  0  0  0
  6  1  1  0  0  0
  1 13  1  0  0  0
  1  2  1  0  0  0
 13 14  1  0  0  0
 14 15  2  0  0  0
 14 16  1  0  0  0
  2  3  2  0  0  0
  2  4  1  0  0  0
 11 12  1  0  0  0
  7  8  1  0  0  0
 16 17  1  0  0  0
  4  5  1  0  0  0
M  END
> <minimizedAffinity>
-6.06906

$$$$
1GRP_ICT_A_418


 17 16  0  0  0  0  0  0  0  0999 V2000
   85.7252   67.5763    1.7923 C   0  0  0  0  0  0  0  0  0  0  0  0
   86.9041   68.0849    2.6467 C   0  0  0  0  0  0  0  0  0  0  0  0
   86.7085   69.0559    3.3736 O   0  0  0  0  0  0  0  0  0  0  0  0
   88.0081   67.5422    2.5844 O   0  0  0  0  0  0  0  0  0  0  0  0
   88.1356   66.8027    2.0234 H   0  0  0  0  0  0  0  0  0  0  0  0
   84.9268   66.4730    2.5212 C   0  0  0  0  0  0  0  0  0  0  0  0
   85.3907   66.3255    3.8521 O   0  0  0  0  0  0  0  0  0  0  0  0
   85.2550   67.1553    4.3356 H   0  0  0  0  0  0  0  0  0  0  0  0
   83.4344   66.7907    2.5363 C   0  0  0  0  0  0  0  0  0  0  0  0
   82.8235   66.6073    3.5789 O   0  0  0  0  0  0  0  0  0  0  0  0
   82.8896   67.2058    1.5200 O   0  0  0  0  0  0  0  0  0  0  0  0
   83.3908   67.3342    0.7388 H   0  0  0  0  0  0  0  0  0  0  0  0
   86.2841   67.0900    0.4477 C   0  0  0  0  0  0  0  0  0  0  0  0
   85.4250   67.4271   -0.7447 C   0  0  0  0  0  0  0  0  0  0  0  0
   84.5079   66.6714   -1.0552 O   0  0  0  0  0  0  0  0  0  0  0  0
   85.6923   68.4454   -1.3688 O   0  0  0  0  0  0  0  0  0  0  0  0
   86.4024   68.9911   -1.0931 H   0  0  0  0  0  0  0  0  0  0  0  0
  9 10  2  0  0  0
  9 11  1  0  0  0
  9  6  1  0  0  0
  6  7  1  0  0  0
  6  1  1  0  0  0
  1 13  1  0  0  0
  1  2  1  0  0  0
 13 14  1  0  0  0
 14 15  2  0  0  0
 14 16  1  0  0  0
  2  3  2  0  0  0
  2  4  1  0  0  0
 11 12  1  0  0  0
  7  8  1  0  0  0
 16 17  1  0  0  0
  4  5  1  0  0  0
M  END
> <minimizedAffinity>
-5.98645

$$$$
1GRP_ICT_A_418


 17 16  0  0  0  0  0  0  0  0999 V2000
   84.4583   65.8094    1.7111 C   0  0  0  0  0  0  0  0  0  0  0  0
   83.2453   65.8694    0.7604 C   0  0  0  0  0  0  0  0  0  0  0  0
   82.1659   66.2216    1.2297 O   0  0  0  0  0  0  0  0  0  0  0  0
   83.3576   65.5559   -0.4254 O   0  0  0  0  0  0  0  0  0  0  0  0
   84.1903   65.2902   -0.7630 H   0  0  0  0  0  0  0  0  0  0  0  0
   85.0950   67.2024    1.9118 C   0  0  0  0  0  0  0  0  0  0  0  0
   84.3484   68.1903    1.2228 O   0  0  0  0  0  0  0  0  0  0  0  0
   83.4479   68.2238    1.5816 H   0  0  0  0  0  0  0  0  0  0  0  0
   85.1724   67.5653    3.3920 C   0  0  0  0  0  0  0  0  0  0  0  0
   85.7281   66.7774    4.1432 O   0  0  0  0  0  0  0  0  0  0  0  0
   84.6772   68.6136    3.7889 O   0  0  0  0  0  0  0  0  0  0  0  0
   84.2591   69.1932    3.1830 H   0  0  0  0  0  0  0  0  0  0  0  0
   85.4605   64.7943    1.1438 C   0  0  0  0  0  0  0  0  0  0  0  0
   86.7609   65.3958    0.6741 C   0  0  0  0  0  0  0  0  0  0  0  0
   87.7193   65.4248    1.4416 O   0  0  0  0  0  0  0  0  0  0  0  0
   86.8007   65.8486   -0.4623 O   0  0  0  0  0  0  0  0  0  0  0  0
   86.0429   65.8033   -1.0115 H   0  0  0  0  0  0  0  0  0  0  0  0
  9 10  2  0  0  0
  9 11  1  0  0  0
  9  6  1  0  0  0
  6  7  1  0  0  0
  6  1  1  0  0  0
  1 13  1  0  0  0
  1  2  1  0  0  0
 13 14  1  0  0  0
 14 15  2  0  0  0
 14 16  1  0  0  0
  2  3  2  0  0  0
  2  4  1  0  0  0
 11 12  1  0  0  0
  7  8  1  0  0  0
 16 17  1  0  0  0
  4  5  1  0  0  0
M  END
> <minimizedAffinity>
-5.94858

$$$$
1GRP_ICT_A_418


 17 16  0  0  0  0  0  0  0  0999 V2000
   84.7118   66.5855    1.0178 C   0  0  0  0  0  0  0  0  0  0  0  0
   83.8350   65.4227    0.5100 C   0  0  0  0  0  0  0  0  0  0  0  0
   83.0963   65.6375   -0.4480 O   0  0  0  0  0  0  0  0  0  0  0  0
   83.8656   64.3222    1.0623 O   0  0  0  0  0  0  0  0  0  0  0  0
   84.4365   64.1797    1.7915 H   0  0  0  0  0  0  0  0  0  0  0  0
   85.9579   66.7907    0.1283 C   0  0  0  0  0  0  0  0  0  0  0  0
   86.1969   65.6377   -0.6601 O   0  0  0  0  0  0  0  0  0  0  0  0
   85.4393   65.4838   -1.2458 H   0  0  0  0  0  0  0  0  0  0  0  0
   85.7912   68.0032   -0.7831 C   0  0  0  0  0  0  0  0  0  0  0  0
   86.5935   68.9179   -0.6666 O   0  0  0  0  0  0  0  0  0  0  0  0
   84.8691   68.0369   -1.5897 O   0  0  0  0  0  0  0  0  0  0  0  0
   84.2733   67.3162   -1.6505 H   0  0  0  0  0  0  0  0  0  0  0  0
   85.0876   66.2983    2.4783 C   0  0  0  0  0  0  0  0  0  0  0  0
   84.3322   67.1211    3.4912 C   0  0  0  0  0  0  0  0  0  0  0  0
   84.8627   67.3801    4.5682 O   0  0  0  0  0  0  0  0  0  0  0  0
   83.2017   67.4872    3.1977 O   0  0  0  0  0  0  0  0  0  0  0  0
   82.8392   67.2647    2.3628 H   0  0  0  0  0  0  0  0  0  0  0  0
  9 10  2  0  0  0
  9 11  1  0  0  0
  9  6  1  0  0  0
  6  7  1  0  0  0
  6  1  1  0  0  0
  1 13  1  0  0  0
  1  2  1  0  0  0
 13 14  1  0  0  0
 14 15  2  0  0  0
 14 16  1  0  0  0
  2  3  2  0  0  0
  2  4  1  0  0  0
 11 12  1  0  0  0
  7  8  1  0  0  0
 16 17  1  0  0  0
  4  5  1  0  0  0
M  END
> <minimizedAffinity>
-5.73060

$$$$
1GRP_ICT_A_418


 17 16  0  0  0  0  0  0  0  0999 V2000
   84.8237   66.4279    2.0605 C   0  0  0  0  0  0  0  0  0  0  0  0
   83.7205   66.8601    3.0478 C   0  0  0  0  0  0  0  0  0  0  0  0
   82.5778   66.9822    2.6131 O   0  0  0  0  0  0  0  0  0  0  0  0
   83.9859   67.0912    4.2281 O   0  0  0  0  0  0  0  0  0  0  0  0
   84.8642   66.9917    4.5390 H   0  0  0  0  0  0  0  0  0  0  0  0
   84.6272   64.9704    1.5881 C   0  0  0  0  0  0  0  0  0  0  0  0
   83.7655   64.2764    2.4735 O   0  0  0  0  0  0  0  0  0  0  0  0
   82.8949   64.7041    2.4789 H   0  0  0  0  0  0  0  0  0  0  0  0
   84.0505   64.9213    0.1761 C   0  0  0  0  0  0  0  0  0  0  0  0
   84.5886   64.1805   -0.6335 O   0  0  0  0  0  0  0  0  0  0  0  0
   83.0853   65.6192   -0.1123 O   0  0  0  0  0  0  0  0  0  0  0  0
   82.6989   66.1752    0.5354 H   0  0  0  0  0  0  0  0  0  0  0  0
   86.1834   66.6338    2.7430 C   0  0  0  0  0  0  0  0  0  0  0  0
   86.7656   68.0142    2.5722 C   0  0  0  0  0  0  0  0  0  0  0  0
   86.5305   68.8724    3.4188 O   0  0  0  0  0  0  0  0  0  0  0  0
   87.4441   68.2262    1.5759 O   0  0  0  0  0  0  0  0  0  0  0  0
   87.5959   67.5388    0.9575 H   0  0  0  0  0  0  0  0  0  0  0  0
  9 10  2  0  0  0
  9 11  1  0  0  0
  9  6  1  0  0  0
  6  7  1  0  0  0
  6  1  1  0  0  0
  1 13  1  0  0  0
  1  2  1  0  0  0
 13 14  1  0  0  0
 14 15  2  0  0  0
 14 16  1  0  0  0
  2  3  2  0  0  0
  2  4  1  0  0  0
 11 12  1  0  0  0
  7  8  1  0  0  0
 16 17  1  0  0  0
  4  5  1  0  0  0
M  END
> <minimizedAffinity>
-5.71772

$$$$
1GRP_ICT_A_418


 17 16  0  0  0  0  0  0  0  0999 V2000
   86.0922   66.7276    2.7754 C   0  0  0  0  0  0  0  0  0  0  0  0
   85.0376   67.5080    3.5861 C   0  0  0  0  0  0  0  0  0  0  0  0
   84.0848   66.8801    4.0418 O   0  0  0  0  0  0  0  0  0  0  0  0
   85.1432   68.7238    3.7527 O   0  0  0  0  0  0  0  0  0  0  0  0
   85.8781   69.1833    3.3966 H   0  0  0  0  0  0  0  0  0  0  0  0
   87.3448   67.5866    2.4932 C   0  0  0  0  0  0  0  0  0  0  0  0
   87.8489   68.1352    3.6987 O   0  0  0  0  0  0  0  0  0  0  0  0
   88.1125   67.4172    4.2952 H   0  0  0  0  0  0  0  0  0  0  0  0
   88.4362   66.7640    1.8145 C   0  0  0  0  0  0  0  0  0  0  0  0
   88.6889   65.6612    2.2770 O   0  0  0  0  0  0  0  0  0  0  0  0
   89.0304   67.2218    0.8454 O   0  0  0  0  0  0  0  0  0  0  0  0
   88.8090   68.0716    0.5187 H   0  0  0  0  0  0  0  0  0  0  0  0
   85.4303   66.2321    1.4819 C   0  0  0  0  0  0  0  0  0  0  0  0
   85.0241   67.3274    0.5286 C   0  0  0  0  0  0  0  0  0  0  0  0
   85.5568   67.3878   -0.5764 O   0  0  0  0  0  0  0  0  0  0  0  0
   84.1804   68.1284    0.9086 O   0  0  0  0  0  0  0  0  0  0  0  0
   83.8020   68.0411    1.7613 H   0  0  0  0  0  0  0  0  0  0  0  0
  9 10  2  0  0  0
  9 11  1  0  0  0
  9  6  1  0  0  0
  6  7  1  0  0  0
  6  1  1  0  0  0
  1 13  1  0  0  0
  1  2  1  0  0  0
 13 14  1  0  0  0
 14 15  2  0  0  0
 14 16  1  0  0  0
  2  3  2  0  0  0
  2  4  1  0  0  0
 11 12  1  0  0  0
  7  8  1  0  0  0
 16 17  1  0  0  0
  4  5  1  0  0  0
M  END
> <minimizedAffinity>
-5.70044

$$$$
1GRP_ICT_A_418


 17 16  0  0  0  0  0  0  0  0999 V2000
   84.3203   66.8798    1.3358 C   0  0  0  0  0  0  0  0  0  0  0  0
   83.3709   66.2075    2.3484 C   0  0  0  0  0  0  0  0  0  0  0  0
   82.4813   66.8949    2.8440 O   0  0  0  0  0  0  0  0  0  0  0  0
   83.5161   65.0246    2.6594 O   0  0  0  0  0  0  0  0  0  0  0  0
   84.2013   64.5183    2.2693 H   0  0  0  0  0  0  0  0  0  0  0  0
   84.4600   66.0447    0.0438 C   0  0  0  0  0  0  0  0  0  0  0  0
   83.1926   65.5704   -0.3769 O   0  0  0  0  0  0  0  0  0  0  0  0
   82.6147   66.3240   -0.5745 H   0  0  0  0  0  0  0  0  0  0  0  0
   85.0928   66.8644   -1.0770 C   0  0  0  0  0  0  0  0  0  0  0  0
   85.8069   66.2788   -1.8776 O   0  0  0  0  0  0  0  0  0  0  0  0
   84.8830   68.0701   -1.1431 O   0  0  0  0  0  0  0  0  0  0  0  0
   84.3293   68.4846   -0.5110 H   0  0  0  0  0  0  0  0  0  0  0  0
   85.6733   67.1046    2.0255 C   0  0  0  0  0  0  0  0  0  0  0  0
   85.5760   67.5204    3.4716 C   0  0  0  0  0  0  0  0  0  0  0  0
   86.1270   66.8362    4.3299 O   0  0  0  0  0  0  0  0  0  0  0  0
   84.9306   68.5272    3.7319 O   0  0  0  0  0  0  0  0  0  0  0  0
   84.5279   69.0170    3.0421 H   0  0  0  0  0  0  0  0  0  0  0  0
  9 10  2  0  0  0
  9 11  1  0  0  0
  9  6  1  0  0  0
  6  7  1  0  0  0
  6  1  1  0  0  0
  1 13  1  0  0  0
  1  2  1  0  0  0
 13 14  1  0  0  0
 14 15  2  0  0  0
 14 16  1  0  0  0
  2  3  2  0  0  0
  2  4  1  0  0  0
 11 12  1  0  0  0
  7  8  1  0  0  0
 16 17  1  0  0  0
  4  5  1  0  0  0
M  END
> <minimizedAffinity>
-5.64069

$$$$
1GRP_ICT_A_418


 17 16  0  0  0  0  0  0  0  0999 V2000
   85.6872   66.7982    0.9236 C   0  0  0  0  0  0  0  0  0  0  0  0
   85.3031   66.9792   -0.5590 C   0  0  0  0  0  0  0  0  0  0  0  0
   85.3191   65.9852   -1.2810 O   0  0  0  0  0  0  0  0  0  0  0  0
   85.0085   68.0897   -1.0030 O   0  0  0  0  0  0  0  0  0  0  0  0
   85.0024   68.8348   -0.4349 H   0  0  0  0  0  0  0  0  0  0  0  0
   84.6770   67.4931    1.8633 C   0  0  0  0  0  0  0  0  0  0  0  0
   83.3646   67.3925    1.3382 O   0  0  0  0  0  0  0  0  0  0  0  0
   83.1126   66.4580    1.2744 H   0  0  0  0  0  0  0  0  0  0  0  0
   84.7128   66.8813    3.2608 C   0  0  0  0  0  0  0  0  0  0  0  0
   85.0520   67.6006    4.1889 O   0  0  0  0  0  0  0  0  0  0  0  0
   84.4157   65.7027    3.4177 O   0  0  0  0  0  0  0  0  0  0  0  0
   84.1603   65.1820    2.6818 H   0  0  0  0  0  0  0  0  0  0  0  0
   87.1139   67.3312    1.1164 C   0  0  0  0  0  0  0  0  0  0  0  0
   87.1902   68.7858    1.5059 C   0  0  0  0  0  0  0  0  0  0  0  0
   86.9888   69.6458    0.6525 O   0  0  0  0  0  0  0  0  0  0  0  0
   87.4682   69.0497    2.6683 O   0  0  0  0  0  0  0  0  0  0  0  0
   87.6133   68.3584    3.2838 H   0  0  0  0  0  0  0  0  0  0  0  0
  9 10  2  0  0  0
  9 11  1  0  0  0
  9  6  1  0  0  0
  6  7  1  0  0  0
  6  1  1  0  0  0
  1 13  1  0  0  0
  1  2  1  0  0  0
 13 14  1  0  0  0
 14 15  2  0  0  0
 14 16  1  0  0  0
  2  3  2  0  0  0
  2  4  1  0  0  0
 11 12  1  0  0  0
  7  8  1  0  0  0
 16 17  1  0  0  0
  4  5  1  0  0  0
M  END
> <minimizedAffinity>
-5.58924

$$$$
