4F39_KAI_A_301


 18 18  0  0  0  0  0  0  0  0999 V2000
    2.6462   23.4473   13.9847 N   0  0  0  0  0  0  0  0  0  0  0  0
    2.5458   22.2866   14.9246 C   0  0  0  0  0  0  0  0  0  0  0  0
    3.0122   24.6440   14.8482 C   0  0  0  0  0  0  0  0  0  0  0  0
    2.3785   24.2239   16.2177 C   0  0  0  0  0  0  0  0  0  0  0  0
    2.8533   22.7813   16.3109 C   0  0  0  0  0  0  0  0  0  0  0  0
    1.7533   23.6053   13.5177 H   0  0  0  0  0  0  0  0  0  0  0  0
    4.5233   24.9082   14.8760 C   0  0  0  0  0  0  0  0  0  0  0  0
    5.2370   24.5264   13.9826 O   0  0  0  0  0  0  0  0  0  0  0  0
    4.9204   25.8507   15.7934 O   0  0  0  0  0  0  0  0  0  0  0  0
    4.3337   26.1195   16.4727 H   0  0  0  0  0  0  0  0  0  0  0  0
    1.3092   21.1376   17.3092 C   0  0  0  0  0  0  0  0  0  0  0  0
    2.5579   22.5197   18.8735 C   0  0  0  0  0  0  0  0  0  0  0  0
    2.1981   22.1486   17.4862 C   0  0  0  0  0  0  0  0  0  0  0  0
    0.8534   24.4101   16.3980 C   0  0  0  0  0  0  0  0  0  0  0  0
    0.2854   25.7817   16.7507 C   0  0  0  0  0  0  0  0  0  0  0  0
   -0.8429   25.9364   17.2396 O   0  0  0  0  0  0  0  0  0  0  0  0
    1.2594   26.7515   16.8610 O   0  0  0  0  0  0  0  0  0  0  0  0
   -1.4881   25.2627   17.1514 H   0  0  0  0  0  0  0  0  0  0  0  0
  1  2  1  0  0  0
  1  3  1  0  0  0
  2  5  1  0  0  0
 11 13  2  0  0  0
 12 13  1  0  0  0
  3  4  1  0  0  0
  3  7  1  0  0  0
  4 14  1  0  0  0
  4  5  1  0  0  0
 14 15  1  0  0  0
  5 13  1  0  0  0
 15 16  1  0  0  0
 15 17  2  0  0  0
  7  8  2  0  0  0
  7  9  1  0  0  0
  1  6  1  0  0  0
 16 18  1  0  0  0
  9 10  1  0  0  0
M  END
> <minimizedAffinity>
-8.18026

$$$$
4F39_KAI_A_301


 18 18  0  0  0  0  0  0  0  0999 V2000
    2.6522   25.2886   17.0729 N   0  0  0  0  0  0  0  0  0  0  0  0
    1.2229   25.7291   17.0123 C   0  0  0  0  0  0  0  0  0  0  0  0
    2.7904   24.1982   16.0223 C   0  0  0  0  0  0  0  0  0  0  0  0
    1.3306   23.6311   15.9926 C   0  0  0  0  0  0  0  0  0  0  0  0
    0.5322   24.9255   15.9455 C   0  0  0  0  0  0  0  0  0  0  0  0
    2.8722   24.9208   17.9985 H   0  0  0  0  0  0  0  0  0  0  0  0
    3.3150   24.7350   14.6841 C   0  0  0  0  0  0  0  0  0  0  0  0
    4.1462   25.6074   14.6478 O   0  0  0  0  0  0  0  0  0  0  0  0
    3.0133   23.9502   13.5976 O   0  0  0  0  0  0  0  0  0  0  0  0
    2.3598   23.2825   13.6689 H   0  0  0  0  0  0  0  0  0  0  0  0
   -1.7109   25.3462   16.8805 C   0  0  0  0  0  0  0  0  0  0  0  0
   -1.5382   23.5033   15.3024 C   0  0  0  0  0  0  0  0  0  0  0  0
   -0.9097   24.5906   16.0862 C   0  0  0  0  0  0  0  0  0  0  0  0
    0.9084   22.6576   17.1182 C   0  0  0  0  0  0  0  0  0  0  0  0
    0.8907   21.1532   16.8636 C   0  0  0  0  0  0  0  0  0  0  0  0
    0.0485   20.3962   17.3672 O   0  0  0  0  0  0  0  0  0  0  0  0
    1.6070   20.7924   15.7420 O   0  0  0  0  0  0  0  0  0  0  0  0
   -0.4257   20.6640   18.1297 H   0  0  0  0  0  0  0  0  0  0  0  0
  1  2  1  0  0  0
  1  3  1  0  0  0
  2  5  1  0  0  0
 11 13  2  0  0  0
 12 13  1  0  0  0
  3  4  1  0  0  0
  3  7  1  0  0  0
  4 14  1  0  0  0
  4  5  1  0  0  0
 14 15  1  0  0  0
  5 13  1  0  0  0
 15 16  1  0  0  0
 15 17  2  0  0  0
  7  8  2  0  0  0
  7  9  1  0  0  0
  1  6  1  0  0  0
 16 18  1  0  0  0
  9 10  1  0  0  0
M  END
> <minimizedAffinity>
-6.62029

$$$$
4F39_KAI_A_301


 18 18  0  0  0  0  0  0  0  0999 V2000
    1.4381   26.0639   16.6505 N   0  0  0  0  0  0  0  0  0  0  0  0
    1.9521   25.4623   17.9211 C   0  0  0  0  0  0  0  0  0  0  0  0
    0.8891   24.9015   15.8387 C   0  0  0  0  0  0  0  0  0  0  0  0
    1.7778   23.7259   16.3695 C   0  0  0  0  0  0  0  0  0  0  0  0
    1.7059   23.9798   17.8680 C   0  0  0  0  0  0  0  0  0  0  0  0
    2.1938   26.5258   16.1444 H   0  0  0  0  0  0  0  0  0  0  0  0
   -0.6230   24.7184   16.0234 C   0  0  0  0  0  0  0  0  0  0  0  0
   -1.2895   25.5645   16.5649 O   0  0  0  0  0  0  0  0  0  0  0  0
   -1.1717   23.7111   15.2671 O   0  0  0  0  0  0  0  0  0  0  0  0
   -0.6169   23.0731   14.8632 H   0  0  0  0  0  0  0  0  0  0  0  0
    3.8077   23.5129   19.0710 C   0  0  0  0  0  0  0  0  0  0  0  0
    2.3102   21.6215   18.7598 C   0  0  0  0  0  0  0  0  0  0  0  0
    2.6453   23.0474   18.5457 C   0  0  0  0  0  0  0  0  0  0  0  0
    3.2138   23.5930   15.8096 C   0  0  0  0  0  0  0  0  0  0  0  0
    3.6011   24.3052   14.5169 C   0  0  0  0  0  0  0  0  0  0  0  0
    3.1791   23.9564   13.4050 O   0  0  0  0  0  0  0  0  0  0  0  0
    4.1049   25.5703   14.7338 O   0  0  0  0  0  0  0  0  0  0  0  0
    2.8415   23.0910   13.2824 H   0  0  0  0  0  0  0  0  0  0  0  0
  1  2  1  0  0  0
  1  3  1  0  0  0
  2  5  1  0  0  0
 11 13  2  0  0  0
 12 13  1  0  0  0
  3  4  1  0  0  0
  3  7  1  0  0  0
  4 14  1  0  0  0
  4  5  1  0  0  0
 14 15  1  0  0  0
  5 13  1  0  0  0
 15 16  1  0  0  0
 15 17  2  0  0  0
  7  8  2  0  0  0
  7  9  1  0  0  0
  1  6  1  0  0  0
 16 18  1  0  0  0
  9 10  1  0  0  0
M  END
> <minimizedAffinity>
-6.58150

$$$$
4F39_KAI_A_301


 18 18  0  0  0  0  0  0  0  0999 V2000
    2.9722   24.5361   15.4424 N   0  0  0  0  0  0  0  0  0  0  0  0
    3.8235   24.4556   16.6710 C   0  0  0  0  0  0  0  0  0  0  0  0
    1.5426   24.3362   15.9199 C   0  0  0  0  0  0  0  0  0  0  0  0
    1.7782   23.4583   17.1955 C   0  0  0  0  0  0  0  0  0  0  0  0
    2.9197   24.2223   17.8499 C   0  0  0  0  0  0  0  0  0  0  0  0
    3.2320   23.8044   14.7810 H   0  0  0  0  0  0  0  0  0  0  0  0
    0.8127   25.6641   16.1608 C   0  0  0  0  0  0  0  0  0  0  0  0
    1.3062   26.7130   15.8298 O   0  0  0  0  0  0  0  0  0  0  0  0
   -0.5197   25.5342   16.4697 O   0  0  0  0  0  0  0  0  0  0  0  0
   -0.8628   24.6998   16.7227 H   0  0  0  0  0  0  0  0  0  0  0  0
    4.7312   23.3933   19.3039 C   0  0  0  0  0  0  0  0  0  0  0  0
    2.4723   22.7515   19.9378 C   0  0  0  0  0  0  0  0  0  0  0  0
    3.4057   23.4318   19.0118 C   0  0  0  0  0  0  0  0  0  0  0  0
    2.0482   21.9482   16.9961 C   0  0  0  0  0  0  0  0  0  0  0  0
    0.9813   20.9231   17.3692 C   0  0  0  0  0  0  0  0  0  0  0  0
   -0.1188   20.8611   16.8017 O   0  0  0  0  0  0  0  0  0  0  0  0
    1.4909   19.8539   18.0752 O   0  0  0  0  0  0  0  0  0  0  0  0
   -0.4438   21.6012   16.3279 H   0  0  0  0  0  0  0  0  0  0  0  0
  1  2  1  0  0  0
  1  3  1  0  0  0
  2  5  1  0  0  0
 11 13  2  0  0  0
 12 13  1  0  0  0
  3  4  1  0  0  0
  3  7  1  0  0  0
  4 14  1  0  0  0
  4  5  1  0  0  0
 14 15  1  0  0  0
  5 13  1  0  0  0
 15 16  1  0  0  0
 15 17  2  0  0  0
  7  8  2  0  0  0
  7  9  1  0  0  0
  1  6  1  0  0  0
 16 18  1  0  0  0
  9 10  1  0  0  0
M  END
> <minimizedAffinity>
-6.46251

$$$$
4F39_KAI_A_301


 18 18  0  0  0  0  0  0  0  0999 V2000
    0.8651   22.4410   16.1835 N   0  0  0  0  0  0  0  0  0  0  0  0
    1.6428   21.9178   17.3506 C   0  0  0  0  0  0  0  0  0  0  0  0
    1.5890   23.7024   15.7403 C   0  0  0  0  0  0  0  0  0  0  0  0
    2.2343   24.1619   17.0915 C   0  0  0  0  0  0  0  0  0  0  0  0
    2.8050   22.8418   17.5883 C   0  0  0  0  0  0  0  0  0  0  0  0
   -0.0915   22.6591   16.4624 H   0  0  0  0  0  0  0  0  0  0  0  0
    2.5762   23.4414   14.5950 C   0  0  0  0  0  0  0  0  0  0  0  0
    3.4372   24.2401   14.3232 O   0  0  0  0  0  0  0  0  0  0  0  0
    2.5984   22.1430   14.1465 O   0  0  0  0  0  0  0  0  0  0  0  0
    1.9084   21.5542   14.3816 H   0  0  0  0  0  0  0  0  0  0  0  0
    2.7111   22.4398   20.0198 C   0  0  0  0  0  0  0  0  0  0  0  0
    4.5546   23.8182   19.2339 C   0  0  0  0  0  0  0  0  0  0  0  0
    3.3204   23.0451   18.9682 C   0  0  0  0  0  0  0  0  0  0  0  0
    1.3329   24.8957   18.1124 C   0  0  0  0  0  0  0  0  0  0  0  0
    0.8845   26.3298   17.8469 C   0  0  0  0  0  0  0  0  0  0  0  0
    0.5866   27.1197   18.7542 O   0  0  0  0  0  0  0  0  0  0  0  0
    1.2296   26.7733   16.5877 O   0  0  0  0  0  0  0  0  0  0  0  0
    0.3555   26.7940   19.6018 H   0  0  0  0  0  0  0  0  0  0  0  0
  1  2  1  0  0  0
  1  3  1  0  0  0
  2  5  1  0  0  0
 11 13  2  0  0  0
 12 13  1  0  0  0
  3  4  1  0  0  0
  3  7  1  0  0  0
  4 14  1  0  0  0
  4  5  1  0  0  0
 14 15  1  0  0  0
  5 13  1  0  0  0
 15 16  1  0  0  0
 15 17  2  0  0  0
  7  8  2  0  0  0
  7  9  1  0  0  0
  1  6  1  0  0  0
 16 18  1  0  0  0
  9 10  1  0  0  0
M  END
> <minimizedAffinity>
-6.43006

$$$$
4F39_KAI_A_301


 18 18  0  0  0  0  0  0  0  0999 V2000
    3.6148   23.6466   19.5620 N   0  0  0  0  0  0  0  0  0  0  0  0
    4.4389   23.8977   18.3379 C   0  0  0  0  0  0  0  0  0  0  0  0
    2.2878   23.1015   19.0586 C   0  0  0  0  0  0  0  0  0  0  0  0
    2.2131   23.7686   17.6434 C   0  0  0  0  0  0  0  0  0  0  0  0
    3.6234   23.5028   17.1378 C   0  0  0  0  0  0  0  0  0  0  0  0
    3.4703   24.5146   20.0778 H   0  0  0  0  0  0  0  0  0  0  0  0
    2.2419   21.5679   19.0663 C   0  0  0  0  0  0  0  0  0  0  0  0
    2.6491   20.9391   20.0107 O   0  0  0  0  0  0  0  0  0  0  0  0
    1.4394   21.0169   18.0967 O   0  0  0  0  0  0  0  0  0  0  0  0
    1.1447   21.5416   17.3786 H   0  0  0  0  0  0  0  0  0  0  0  0
    4.6499   25.2820   15.7728 C   0  0  0  0  0  0  0  0  0  0  0  0
    3.1528   23.7643   14.6016 C   0  0  0  0  0  0  0  0  0  0  0  0
    3.8020   24.2243   15.8500 C   0  0  0  0  0  0  0  0  0  0  0  0
    1.7710   25.2488   17.5624 C   0  0  0  0  0  0  0  0  0  0  0  0
    0.8123   25.7033   16.4658 C   0  0  0  0  0  0  0  0  0  0  0  0
   -0.3913   25.4076   16.4603 O   0  0  0  0  0  0  0  0  0  0  0  0
    1.2967   26.7719   15.7414 O   0  0  0  0  0  0  0  0  0  0  0  0
   -0.6964   24.6767   16.9609 H   0  0  0  0  0  0  0  0  0  0  0  0
  1  2  1  0  0  0
  1  3  1  0  0  0
  2  5  1  0  0  0
 11 13  2  0  0  0
 12 13  1  0  0  0
  3  4  1  0  0  0
  3  7  1  0  0  0
  4 14  1  0  0  0
  4  5  1  0  0  0
 14 15  1  0  0  0
  5 13  1  0  0  0
 15 16  1  0  0  0
 15 17  2  0  0  0
  7  8  2  0  0  0
  7  9  1  0  0  0
  1  6  1  0  0  0
 16 18  1  0  0  0
  9 10  1  0  0  0
M  END
> <minimizedAffinity>
-6.09979

$$$$
4F39_KAI_A_301


 18 18  0  0  0  0  0  0  0  0999 V2000
    2.3134   25.9266   16.2195 N   0  0  0  0  0  0  0  0  0  0  0  0
    1.1377   25.0458   15.9318 C   0  0  0  0  0  0  0  0  0  0  0  0
    3.5078   24.9927   16.3330 C   0  0  0  0  0  0  0  0  0  0  0  0
    2.8089   23.6787   16.8215 C   0  0  0  0  0  0  0  0  0  0  0  0
    1.6247   23.6246   15.8677 C   0  0  0  0  0  0  0  0  0  0  0  0
    2.1732   26.4329   17.0938 H   0  0  0  0  0  0  0  0  0  0  0  0
    4.2871   24.8731   15.0168 C   0  0  0  0  0  0  0  0  0  0  0  0
    4.9872   25.7732   14.6255 O   0  0  0  0  0  0  0  0  0  0  0  0
    4.3710   23.5956   14.5182 O   0  0  0  0  0  0  0  0  0  0  0  0
    3.8075   22.9250   14.8507 H   0  0  0  0  0  0  0  0  0  0  0  0
   -0.6135   22.6976   16.3302 C   0  0  0  0  0  0  0  0  0  0  0  0
    1.2552   21.1627   16.5924 C   0  0  0  0  0  0  0  0  0  0  0  0
    0.7315   22.5148   16.2940 C   0  0  0  0  0  0  0  0  0  0  0  0
    2.4325   23.5715   18.3181 C   0  0  0  0  0  0  0  0  0  0  0  0
    3.4473   23.0426   19.3275 C   0  0  0  0  0  0  0  0  0  0  0  0
    4.2154   23.7825   19.9588 O   0  0  0  0  0  0  0  0  0  0  0  0
    3.1553   21.7665   19.7605 O   0  0  0  0  0  0  0  0  0  0  0  0
    4.3983   24.6459   19.6442 H   0  0  0  0  0  0  0  0  0  0  0  0
  1  2  1  0  0  0
  1  3  1  0  0  0
  2  5  1  0  0  0
 11 13  2  0  0  0
 12 13  1  0  0  0
  3  4  1  0  0  0
  3  7  1  0  0  0
  4 14  1  0  0  0
  4  5  1  0  0  0
 14 15  1  0  0  0
  5 13  1  0  0  0
 15 16  1  0  0  0
 15 17  2  0  0  0
  7  8  2  0  0  0
  7  9  1  0  0  0
  1  6  1  0  0  0
 16 18  1  0  0  0
  9 10  1  0  0  0
M  END
> <minimizedAffinity>
-6.05071

$$$$
4F39_KAI_A_301


 18 18  0  0  0  0  0  0  0  0999 V2000
    1.2951   26.3924   15.8126 N   0  0  0  0  0  0  0  0  0  0  0  0
    2.1967   25.2251   15.5570 C   0  0  0  0  0  0  0  0  0  0  0  0
    0.3243   25.9331   16.8888 C   0  0  0  0  0  0  0  0  0  0  0  0
    0.2897   24.3911   16.6156 C   0  0  0  0  0  0  0  0  0  0  0  0
    1.7763   24.1035   16.4660 C   0  0  0  0  0  0  0  0  0  0  0  0
    0.7907   26.6451   14.9628 H   0  0  0  0  0  0  0  0  0  0  0  0
    0.7732   26.3416   18.2979 C   0  0  0  0  0  0  0  0  0  0  0  0
    0.4386   27.3971   18.7747 O   0  0  0  0  0  0  0  0  0  0  0  0
    1.2877   25.3150   19.0522 O   0  0  0  0  0  0  0  0  0  0  0  0
    1.5354   24.5102   18.6413 H   0  0  0  0  0  0  0  0  0  0  0  0
    2.4361   22.4151   14.7936 C   0  0  0  0  0  0  0  0  0  0  0  0
    1.6615   21.5558   16.9332 C   0  0  0  0  0  0  0  0  0  0  0  0
    1.9375   22.6924   16.0258 C   0  0  0  0  0  0  0  0  0  0  0  0
   -0.5831   23.8821   15.4443 C   0  0  0  0  0  0  0  0  0  0  0  0
   -1.8903   23.1469   15.7258 C   0  0  0  0  0  0  0  0  0  0  0  0
   -2.9250   23.3414   15.0721 O   0  0  0  0  0  0  0  0  0  0  0  0
   -1.7084   21.9970   16.4648 O   0  0  0  0  0  0  0  0  0  0  0  0
   -3.0253   24.1310   14.5776 H   0  0  0  0  0  0  0  0  0  0  0  0
  1  2  1  0  0  0
  1  3  1  0  0  0
  2  5  1  0  0  0
 11 13  2  0  0  0
 12 13  1  0  0  0
  3  4  1  0  0  0
  3  7  1  0  0  0
  4 14  1  0  0  0
  4  5  1  0  0  0
 14 15  1  0  0  0
  5 13  1  0  0  0
 15 16  1  0  0  0
 15 17  2  0  0  0
  7  8  2  0  0  0
  7  9  1  0  0  0
  1  6  1  0  0  0
 16 18  1  0  0  0
  9 10  1  0  0  0
M  END
> <minimizedAffinity>
-5.91529

$$$$
4F39_KAI_A_301


 18 18  0  0  0  0  0  0  0  0999 V2000
    2.1766   21.8443   17.0621 N   0  0  0  0  0  0  0  0  0  0  0  0
    0.9263   22.6118   16.7644 C   0  0  0  0  0  0  0  0  0  0  0  0
    3.1797   22.8717   17.5618 C   0  0  0  0  0  0  0  0  0  0  0  0
    2.6745   24.1588   16.8257 C   0  0  0  0  0  0  0  0  0  0  0  0
    1.1792   24.0583   17.0881 C   0  0  0  0  0  0  0  0  0  0  0  0
    2.5240   21.3891   16.2180 H   0  0  0  0  0  0  0  0  0  0  0  0
    3.2157   22.9610   19.0931 C   0  0  0  0  0  0  0  0  0  0  0  0
    2.6652   22.1345   19.7765 O   0  0  0  0  0  0  0  0  0  0  0  0
    4.1543   23.8318   19.5913 O   0  0  0  0  0  0  0  0  0  0  0  0
    4.5584   24.4595   19.0249 H   0  0  0  0  0  0  0  0  0  0  0  0
   -0.7866   24.9492   15.8944 C   0  0  0  0  0  0  0  0  0  0  0  0
    1.1368   26.4308   16.0432 C   0  0  0  0  0  0  0  0  0  0  0  0
    0.4951   25.1233   16.3078 C   0  0  0  0  0  0  0  0  0  0  0  0
    3.0538   24.3380   15.3367 C   0  0  0  0  0  0  0  0  0  0  0  0
    4.4779   24.7267   14.9502 C   0  0  0  0  0  0  0  0  0  0  0  0
    5.0134   24.3548   13.8962 O   0  0  0  0  0  0  0  0  0  0  0  0
    4.9414   25.8215   15.6486 O   0  0  0  0  0  0  0  0  0  0  0  0
    4.6800   23.6077   13.4395 H   0  0  0  0  0  0  0  0  0  0  0  0
  1  2  1  0  0  0
  1  3  1  0  0  0
  2  5  1  0  0  0
 11 13  2  0  0  0
 12 13  1  0  0  0
  3  4  1  0  0  0
  3  7  1  0  0  0
  4 14  1  0  0  0
  4  5  1  0  0  0
 14 15  1  0  0  0
  5 13  1  0  0  0
 15 16  1  0  0  0
 15 17  2  0  0  0
  7  8  2  0  0  0
  7  9  1  0  0  0
  1  6  1  0  0  0
 16 18  1  0  0  0
  9 10  1  0  0  0
M  END
> <minimizedAffinity>
-5.75029

$$$$
4F39_KAI_A_301


 18 18  0  0  0  0  0  0  0  0999 V2000
    1.9300   23.0197   18.2594 N   0  0  0  0  0  0  0  0  0  0  0  0
    3.3352   23.4313   17.9484 C   0  0  0  0  0  0  0  0  0  0  0  0
    1.2748   22.7477   16.9147 C   0  0  0  0  0  0  0  0  0  0  0  0
    2.0974   23.7052   15.9872 C   0  0  0  0  0  0  0  0  0  0  0  0
    3.5117   23.3959   16.4555 C   0  0  0  0  0  0  0  0  0  0  0  0
    1.4401   23.7684   18.7490 H   0  0  0  0  0  0  0  0  0  0  0  0
    1.3170   21.2629   16.5303 C   0  0  0  0  0  0  0  0  0  0  0  0
    1.7148   20.9128   15.4475 O   0  0  0  0  0  0  0  0  0  0  0  0
    1.1797   20.3964   17.5876 O   0  0  0  0  0  0  0  0  0  0  0  0
    0.8667   20.7103   18.4130 H   0  0  0  0  0  0  0  0  0  0  0  0
    5.1130   25.2699   16.5359 C   0  0  0  0  0  0  0  0  0  0  0  0
    4.7438   24.2714   14.3489 C   0  0  0  0  0  0  0  0  0  0  0  0
    4.4417   24.3504   15.7959 C   0  0  0  0  0  0  0  0  0  0  0  0
    1.7341   25.2089   15.9936 C   0  0  0  0  0  0  0  0  0  0  0  0
    0.4935   25.6943   16.7375 C   0  0  0  0  0  0  0  0  0  0  0  0
   -0.6577   25.5062   16.3189 O   0  0  0  0  0  0  0  0  0  0  0  0
    0.7423   25.9779   18.0638 O   0  0  0  0  0  0  0  0  0  0  0  0
   -0.8014   25.3149   15.4130 H   0  0  0  0  0  0  0  0  0  0  0  0
  1  2  1  0  0  0
  1  3  1  0  0  0
  2  5  1  0  0  0
 11 13  2  0  0  0
 12 13  1  0  0  0
  3  4  1  0  0  0
  3  7  1  0  0  0
  4 14  1  0  0  0
  4  5  1  0  0  0
 14 15  1  0  0  0
  5 13  1  0  0  0
 15 16  1  0  0  0
 15 17  2  0  0  0
  7  8  2  0  0  0
  7  9  1  0  0  0
  1  6  1  0  0  0
 16 18  1  0  0  0
  9 10  1  0  0  0
M  END
> <minimizedAffinity>
-5.56995

$$$$
