5ABA_UL7_A_1291


 25 27  0  0  0  0  0  0  0  0999 V2000
   90.9377   97.7904  -43.8416 N   0  0  0  0  0  0  0  0  0  0  0  0
   91.6235   98.4255  -45.0139 C   0  0  0  0  0  0  0  0  0  0  0  0
   91.8219  100.4869  -43.6494 C   0  0  0  0  0  0  0  0  0  0  0  0
   91.2144   99.7745  -42.4427 C   0  0  0  0  0  0  0  0  0  0  0  0
   90.2120   98.7553  -42.9355 C   0  0  0  0  0  0  0  0  0  0  0  0
   92.5855   99.5009  -44.5421 C   0  0  0  0  0  0  0  0  0  0  0  0
   92.6872  101.6426  -43.1680 N   0  0  0  0  0  0  0  0  0  0  0  0
   92.4872  101.9368  -41.6926 C   0  0  0  0  0  0  0  0  0  0  0  0
   92.6302  102.9080  -43.9987 C   0  0  0  0  0  0  0  0  0  0  0  0
   93.7950  103.7961  -43.5766 C   0  0  0  0  0  0  0  0  0  0  0  0
   93.6450  104.1621  -42.1079 C   0  0  0  0  0  0  0  0  0  0  0  0
   94.7729  104.9204  -41.7086 O   0  0  0  0  0  0  0  0  0  0  0  0
   93.5588  102.9169  -41.2333 C   0  0  0  0  0  0  0  0  0  0  0  0
   95.5768  104.3902  -41.8250 H   0  0  0  0  0  0  0  0  0  0  0  0
   89.9840   96.7625  -44.3613 C   0  0  0  0  0  0  0  0  0  0  0  0
   90.9915   93.2239  -45.2695 C   0  0  0  0  0  0  0  0  0  0  0  0
   90.5301   95.3712  -44.2340 C   0  0  0  0  0  0  0  0  0  0  0  0
   91.0818   95.7723  -41.9371 O   0  0  0  0  0  0  0  0  0  0  0  0
   91.5207   92.7657  -44.0536 C   0  0  0  0  0  0  0  0  0  0  0  0
   90.4970   94.5319  -45.3517 C   0  0  0  0  0  0  0  0  0  0  0  0
   91.5588   93.6126  -42.9371 C   0  0  0  0  0  0  0  0  0  0  0  0
   91.0616   94.9165  -43.0161 C   0  0  0  0  0  0  0  0  0  0  0  0
   90.9236   92.2297  -46.6683 Cl  0  0  0  0  0  0  0  0  0  0  0  0
   92.2679   92.9490  -41.3206 Br  0  0  0  0  0  0  0  0  0  0  0  0
   90.7408   96.6410  -42.0217 H   0  0  0  0  0  0  0  0  0  0  0  0
  7  8  1  0  0  0
  7  9  1  0  0  0
  7  3  1  0  0  0
  8 13  1  0  0  0
 16 19  1  0  0  0
 16 20  2  0  0  0
 16 23  1  0  0  0
 17 15  1  0  0  0
 17 20  1  0  0  0
 17 22  2  0  0  0
  1 15  1  0  0  0
  1  2  1  0  0  0
  1  5  1  0  0  0
 18 22  1  0  0  0
 19 21  2  0  0  0
  2  6  1  0  0  0
  9 10  1  0  0  0
 21 22  1  0  0  0
 21 24  1  0  0  0
 10 11  1  0  0  0
 11 12  1  0  0  0
 11 13  1  0  0  0
  3  4  1  0  0  0
  3  6  1  0  0  0
  4  5  1  0  0  0
 18 25  1  0  0  0
 12 14  1  0  0  0
M  END
> <minimizedAffinity>
-6.18154

$$$$
5ABA_UL7_A_1291


 25 27  0  0  0  0  0  0  0  0999 V2000
   90.7195   97.8688  -43.7526 N   0  0  0  0  0  0  0  0  0  0  0  0
   91.5010   98.7253  -44.7031 C   0  0  0  0  0  0  0  0  0  0  0  0
   91.2318  100.5859  -43.0855 C   0  0  0  0  0  0  0  0  0  0  0  0
   90.5309   99.6559  -42.0972 C   0  0  0  0  0  0  0  0  0  0  0  0
   89.7490   98.6219  -42.8754 C   0  0  0  0  0  0  0  0  0  0  0  0
   92.2400   99.8137  -43.9456 C   0  0  0  0  0  0  0  0  0  0  0  0
   91.8648  101.7425  -42.3255 N   0  0  0  0  0  0  0  0  0  0  0  0
   93.1697  102.1986  -42.9522 C   0  0  0  0  0  0  0  0  0  0  0  0
   92.0029  101.5591  -40.8282 C   0  0  0  0  0  0  0  0  0  0  0  0
   92.3189  102.9200  -40.2186 C   0  0  0  0  0  0  0  0  0  0  0  0
   93.6384  103.4299  -40.7776 C   0  0  0  0  0  0  0  0  0  0  0  0
   93.8807  104.7279  -40.2645 O   0  0  0  0  0  0  0  0  0  0  0  0
   93.6026  103.5048  -42.2995 C   0  0  0  0  0  0  0  0  0  0  0  0
   93.1659  105.3230  -40.5398 H   0  0  0  0  0  0  0  0  0  0  0  0
   89.9906   96.8347  -44.5499 C   0  0  0  0  0  0  0  0  0  0  0  0
   91.6630   93.8929  -42.8439 C   0  0  0  0  0  0  0  0  0  0  0  0
   90.5394   95.4573  -44.3225 C   0  0  0  0  0  0  0  0  0  0  0  0
   89.8670   94.7997  -46.5262 O   0  0  0  0  0  0  0  0  0  0  0  0
   91.5905   92.9136  -43.8459 C   0  0  0  0  0  0  0  0  0  0  0  0
   91.1334   95.1659  -43.0908 C   0  0  0  0  0  0  0  0  0  0  0  0
   90.9878   93.2073  -45.0771 C   0  0  0  0  0  0  0  0  0  0  0  0
   90.4629   94.4784  -45.3267 C   0  0  0  0  0  0  0  0  0  0  0  0
   92.3874   93.5856  -41.3173 Cl  0  0  0  0  0  0  0  0  0  0  0  0
   90.9244   91.8630  -46.3982 Br  0  0  0  0  0  0  0  0  0  0  0  0
   89.5244   95.6609  -46.6633 H   0  0  0  0  0  0  0  0  0  0  0  0
  7  8  1  0  0  0
  7  9  1  0  0  0
  7  3  1  0  0  0
  8 13  1  0  0  0
 16 19  1  0  0  0
 16 20  2  0  0  0
 16 23  1  0  0  0
 17 15  1  0  0  0
 17 20  1  0  0  0
 17 22  2  0  0  0
  1 15  1  0  0  0
  1  2  1  0  0  0
  1  5  1  0  0  0
 18 22  1  0  0  0
 19 21  2  0  0  0
  2  6  1  0  0  0
  9 10  1  0  0  0
 21 22  1  0  0  0
 21 24  1  0  0  0
 10 11  1  0  0  0
 11 12  1  0  0  0
 11 13  1  0  0  0
  3  4  1  0  0  0
  3  6  1  0  0  0
  4  5  1  0  0  0
 18 25  1  0  0  0
 12 14  1  0  0  0
M  END
> <minimizedAffinity>
-5.94924

$$$$
5ABA_UL7_A_1291


 25 27  0  0  0  0  0  0  0  0999 V2000
   91.3294  100.1961  -42.8905 N   0  0  0  0  0  0  0  0  0  0  0  0
   91.2087   99.3193  -41.6805 C   0  0  0  0  0  0  0  0  0  0  0  0
   90.4455   97.5099  -43.1952 C   0  0  0  0  0  0  0  0  0  0  0  0
   90.6805   98.3997  -44.4142 C   0  0  0  0  0  0  0  0  0  0  0  0
   90.4041   99.8350  -44.0272 C   0  0  0  0  0  0  0  0  0  0  0  0
   91.4157   97.8644  -42.0614 C   0  0  0  0  0  0  0  0  0  0  0  0
   90.5324   96.0495  -43.6144 N   0  0  0  0  0  0  0  0  0  0  0  0
   91.2119   95.1882  -42.5656 C   0  0  0  0  0  0  0  0  0  0  0  0
   91.0929   95.7858  -44.9967 C   0  0  0  0  0  0  0  0  0  0  0  0
   90.7779   94.3392  -45.3598 C   0  0  0  0  0  0  0  0  0  0  0  0
   91.4570   93.4095  -44.3657 C   0  0  0  0  0  0  0  0  0  0  0  0
   91.0923   92.0742  -44.6667 O   0  0  0  0  0  0  0  0  0  0  0  0
   91.0315   93.7220  -42.9360 C   0  0  0  0  0  0  0  0  0  0  0  0
   90.1303   91.9765  -44.5895 H   0  0  0  0  0  0  0  0  0  0  0  0
   91.0895  101.6100  -42.4664 C   0  0  0  0  0  0  0  0  0  0  0  0
   93.5065  102.8082  -39.8049 C   0  0  0  0  0  0  0  0  0  0  0  0
   92.3027  102.2214  -41.8304 C   0  0  0  0  0  0  0  0  0  0  0  0
   93.2084  102.7290  -43.9897 O   0  0  0  0  0  0  0  0  0  0  0  0
   94.5319  103.3581  -40.5890 C   0  0  0  0  0  0  0  0  0  0  0  0
   92.3922  102.2399  -40.4352 C   0  0  0  0  0  0  0  0  0  0  0  0
   94.4419  103.3312  -41.9878 C   0  0  0  0  0  0  0  0  0  0  0  0
   93.3285  102.7687  -42.6182 C   0  0  0  0  0  0  0  0  0  0  0  0
   93.5676  102.8117  -38.0886 Cl  0  0  0  0  0  0  0  0  0  0  0  0
   95.8385  104.0935  -43.0001 Br  0  0  0  0  0  0  0  0  0  0  0  0
   92.4495  102.3449  -44.3827 H   0  0  0  0  0  0  0  0  0  0  0  0
  7  8  1  0  0  0
  7  9  1  0  0  0
  7  3  1  0  0  0
  8 13  1  0  0  0
 16 19  1  0  0  0
 16 20  2  0  0  0
 16 23  1  0  0  0
 17 15  1  0  0  0
 17 20  1  0  0  0
 17 22  2  0  0  0
  1 15  1  0  0  0
  1  2  1  0  0  0
  1  5  1  0  0  0
 18 22  1  0  0  0
 19 21  2  0  0  0
  2  6  1  0  0  0
  9 10  1  0  0  0
 21 22  1  0  0  0
 21 24  1  0  0  0
 10 11  1  0  0  0
 11 12  1  0  0  0
 11 13  1  0  0  0
  3  4  1  0  0  0
  3  6  1  0  0  0
  4  5  1  0  0  0
 18 25  1  0  0  0
 12 14  1  0  0  0
M  END
> <minimizedAffinity>
-5.76767

$$$$
5ABA_UL7_A_1291


 25 27  0  0  0  0  0  0  0  0999 V2000
   91.4071   99.7473  -42.9415 N   0  0  0  0  0  0  0  0  0  0  0  0
   90.3946   98.8582  -42.2842 C   0  0  0  0  0  0  0  0  0  0  0  0
   90.7613   97.2468  -44.1335 C   0  0  0  0  0  0  0  0  0  0  0  0
   91.8619   98.1309  -44.7165 C   0  0  0  0  0  0  0  0  0  0  0  0
   91.5209   99.5773  -44.4371 C   0  0  0  0  0  0  0  0  0  0  0  0
   90.6808   97.4033  -42.6098 C   0  0  0  0  0  0  0  0  0  0  0  0
   90.9890   95.8067  -44.5698 N   0  0  0  0  0  0  0  0  0  0  0  0
   89.9351   95.3285  -45.5517 C   0  0  0  0  0  0  0  0  0  0  0  0
   91.2087   94.8012  -43.4585 C   0  0  0  0  0  0  0  0  0  0  0  0
   91.7553   93.5241  -44.0861 C   0  0  0  0  0  0  0  0  0  0  0  0
   90.7335   92.9643  -45.0640 C   0  0  0  0  0  0  0  0  0  0  0  0
   91.2850   91.8238  -45.6978 O   0  0  0  0  0  0  0  0  0  0  0  0
   90.3703   93.9892  -46.1320 C   0  0  0  0  0  0  0  0  0  0  0  0
   92.0851   92.0788  -46.1832 H   0  0  0  0  0  0  0  0  0  0  0  0
   91.0638  101.1653  -42.6136 C   0  0  0  0  0  0  0  0  0  0  0  0
   94.2831  103.0895  -42.0698 C   0  0  0  0  0  0  0  0  0  0  0  0
   92.1886  101.8707  -41.9153 C   0  0  0  0  0  0  0  0  0  0  0  0
   91.1891  101.4086  -39.7873 O   0  0  0  0  0  0  0  0  0  0  0  0
   94.3159  103.1850  -40.6704 C   0  0  0  0  0  0  0  0  0  0  0  0
   93.2127  102.4290  -42.6863 C   0  0  0  0  0  0  0  0  0  0  0  0
   93.2836  102.6301  -39.9011 C   0  0  0  0  0  0  0  0  0  0  0  0
   92.2172  101.9667  -40.5144 C   0  0  0  0  0  0  0  0  0  0  0  0
   95.5194  103.7538  -43.0596 Cl  0  0  0  0  0  0  0  0  0  0  0  0
   93.3768  102.7722  -38.0229 Br  0  0  0  0  0  0  0  0  0  0  0  0
   90.4879  100.9701  -40.2278 H   0  0  0  0  0  0  0  0  0  0  0  0
  7  8  1  0  0  0
  7  9  1  0  0  0
  7  3  1  0  0  0
  8 13  1  0  0  0
 16 19  1  0  0  0
 16 20  2  0  0  0
 16 23  1  0  0  0
 17 15  1  0  0  0
 17 20  1  0  0  0
 17 22  2  0  0  0
  1 15  1  0  0  0
  1  2  1  0  0  0
  1  5  1  0  0  0
 18 22  1  0  0  0
 19 21  2  0  0  0
  2  6  1  0  0  0
  9 10  1  0  0  0
 21 22  1  0  0  0
 21 24  1  0  0  0
 10 11  1  0  0  0
 11 12  1  0  0  0
 11 13  1  0  0  0
  3  4  1  0  0  0
  3  6  1  0  0  0
  4  5  1  0  0  0
 18 25  1  0  0  0
 12 14  1  0  0  0
M  END
> <minimizedAffinity>
-5.69225

$$$$
5ABA_UL7_A_1291


 25 27  0  0  0  0  0  0  0  0999 V2000
   90.0838  100.5735  -42.9181 N   0  0  0  0  0  0  0  0  0  0  0  0
   89.0455   99.8094  -43.6836 C   0  0  0  0  0  0  0  0  0  0  0  0
   90.4835   97.8046  -43.4312 C   0  0  0  0  0  0  0  0  0  0  0  0
   91.4671   98.5905  -42.5665 C   0  0  0  0  0  0  0  0  0  0  0  0
   91.4859  100.0273  -43.0373 C   0  0  0  0  0  0  0  0  0  0  0  0
   89.0579   98.3479  -43.2732 C   0  0  0  0  0  0  0  0  0  0  0  0
   90.5933   96.3236  -43.0984 N   0  0  0  0  0  0  0  0  0  0  0  0
   91.3201   96.0794  -41.7887 C   0  0  0  0  0  0  0  0  0  0  0  0
   91.1231   95.4309  -44.2016 C   0  0  0  0  0  0  0  0  0  0  0  0
   90.8324   93.9860  -43.8127 C   0  0  0  0  0  0  0  0  0  0  0  0
   91.5589   93.6554  -42.5178 C   0  0  0  0  0  0  0  0  0  0  0  0
   91.2175   92.3375  -42.1263 O   0  0  0  0  0  0  0  0  0  0  0  0
   91.1640   94.6147  -41.4013 C   0  0  0  0  0  0  0  0  0  0  0  0
   90.2604   92.2817  -41.9786 H   0  0  0  0  0  0  0  0  0  0  0  0
   90.0491  101.9957  -43.3793 C   0  0  0  0  0  0  0  0  0  0  0  0
   92.2764  104.6671  -41.8748 C   0  0  0  0  0  0  0  0  0  0  0  0
   90.6556  102.9293  -42.3741 C   0  0  0  0  0  0  0  0  0  0  0  0
   89.1923  102.0876  -40.6738 O   0  0  0  0  0  0  0  0  0  0  0  0
   91.8325  104.6809  -40.5439 C   0  0  0  0  0  0  0  0  0  0  0  0
   91.6809  103.7860  -42.7863 C   0  0  0  0  0  0  0  0  0  0  0  0
   90.7993  103.8255  -40.1360 C   0  0  0  0  0  0  0  0  0  0  0  0
   90.2072  102.9424  -41.0432 C   0  0  0  0  0  0  0  0  0  0  0  0
   93.5356  105.6956  -42.4280 Cl  0  0  0  0  0  0  0  0  0  0  0  0
   90.2443  103.8704  -38.3343 Br  0  0  0  0  0  0  0  0  0  0  0  0
   88.8155  101.5071  -41.3054 H   0  0  0  0  0  0  0  0  0  0  0  0
  7  8  1  0  0  0
  7  9  1  0  0  0
  7  3  1  0  0  0
  8 13  1  0  0  0
 16 19  1  0  0  0
 16 20  2  0  0  0
 16 23  1  0  0  0
 17 15  1  0  0  0
 17 20  1  0  0  0
 17 22  2  0  0  0
  1 15  1  0  0  0
  1  2  1  0  0  0
  1  5  1  0  0  0
 18 22  1  0  0  0
 19 21  2  0  0  0
  2  6  1  0  0  0
  9 10  1  0  0  0
 21 22  1  0  0  0
 21 24  1  0  0  0
 10 11  1  0  0  0
 11 12  1  0  0  0
 11 13  1  0  0  0
  3  4  1  0  0  0
  3  6  1  0  0  0
  4  5  1  0  0  0
 18 25  1  0  0  0
 12 14  1  0  0  0
M  END
> <minimizedAffinity>
-5.56794

$$$$
5ABA_UL7_A_1291


 25 27  0  0  0  0  0  0  0  0999 V2000
   90.0658   97.9667  -43.6859 N   0  0  0  0  0  0  0  0  0  0  0  0
   91.1878   98.9509  -43.8280 C   0  0  0  0  0  0  0  0  0  0  0  0
   89.8247  100.5401  -42.4987 C   0  0  0  0  0  0  0  0  0  0  0  0
   88.7492   99.4765  -42.2870 C   0  0  0  0  0  0  0  0  0  0  0  0
   88.7008   98.5861  -43.5082 C   0  0  0  0  0  0  0  0  0  0  0  0
   91.2105   99.8986  -42.6424 C   0  0  0  0  0  0  0  0  0  0  0  0
   89.7567  101.5562  -41.3678 N   0  0  0  0  0  0  0  0  0  0  0  0
   89.2945  102.9205  -41.8457 C   0  0  0  0  0  0  0  0  0  0  0  0
   90.9891  101.6629  -40.4936 C   0  0  0  0  0  0  0  0  0  0  0  0
   90.6083  102.4488  -39.2442 C   0  0  0  0  0  0  0  0  0  0  0  0
   90.1631  103.8474  -39.6432 C   0  0  0  0  0  0  0  0  0  0  0  0
   89.7375  104.5396  -38.4829 O   0  0  0  0  0  0  0  0  0  0  0  0
   89.0066  103.7982  -40.6347 C   0  0  0  0  0  0  0  0  0  0  0  0
   88.9903  104.0690  -38.0814 H   0  0  0  0  0  0  0  0  0  0  0  0
   90.0707   97.0786  -44.8891 C   0  0  0  0  0  0  0  0  0  0  0  0
   90.8097   93.3819  -45.2763 C   0  0  0  0  0  0  0  0  0  0  0  0
   90.4947   95.6790  -44.5550 C   0  0  0  0  0  0  0  0  0  0  0  0
   91.0021   96.3432  -42.3095 O   0  0  0  0  0  0  0  0  0  0  0  0
   91.2588   93.0526  -43.9885 C   0  0  0  0  0  0  0  0  0  0  0  0
   90.4287   94.7012  -45.5523 C   0  0  0  0  0  0  0  0  0  0  0  0
   91.3304   94.0374  -42.9931 C   0  0  0  0  0  0  0  0  0  0  0  0
   90.9462   95.3533  -43.2656 C   0  0  0  0  0  0  0  0  0  0  0  0
   90.7054   92.2158  -46.5328 Cl  0  0  0  0  0  0  0  0  0  0  0  0
   91.9284   93.5454  -41.2736 Br  0  0  0  0  0  0  0  0  0  0  0  0
   90.7375   97.2163  -42.5231 H   0  0  0  0  0  0  0  0  0  0  0  0
  7  8  1  0  0  0
  7  9  1  0  0  0
  7  3  1  0  0  0
  8 13  1  0  0  0
 16 19  1  0  0  0
 16 20  2  0  0  0
 16 23  1  0  0  0
 17 15  1  0  0  0
 17 20  1  0  0  0
 17 22  2  0  0  0
  1 15  1  0  0  0
  1  2  1  0  0  0
  1  5  1  0  0  0
 18 22  1  0  0  0
 19 21  2  0  0  0
  2  6  1  0  0  0
  9 10  1  0  0  0
 21 22  1  0  0  0
 21 24  1  0  0  0
 10 11  1  0  0  0
 11 12  1  0  0  0
 11 13  1  0  0  0
  3  4  1  0  0  0
  3  6  1  0  0  0
  4  5  1  0  0  0
 18 25  1  0  0  0
 12 14  1  0  0  0
M  END
> <minimizedAffinity>
-5.51564

$$$$
5ABA_UL7_A_1291


 25 27  0  0  0  0  0  0  0  0999 V2000
   91.0102  100.2705  -43.9881 N   0  0  0  0  0  0  0  0  0  0  0  0
   89.9029   99.8722  -43.0591 C   0  0  0  0  0  0  0  0  0  0  0  0
   90.3319   97.5211  -43.7217 C   0  0  0  0  0  0  0  0  0  0  0  0
   91.5207   97.9548  -44.5770 C   0  0  0  0  0  0  0  0  0  0  0  0
   91.2346   99.3268  -45.1447 C   0  0  0  0  0  0  0  0  0  0  0  0
   90.1376   98.4684  -42.5311 C   0  0  0  0  0  0  0  0  0  0  0  0
   90.5181   96.0706  -43.3004 N   0  0  0  0  0  0  0  0  0  0  0  0
   91.2089   95.9453  -41.9548 C   0  0  0  0  0  0  0  0  0  0  0  0
   91.1414   95.1526  -44.3316 C   0  0  0  0  0  0  0  0  0  0  0  0
   90.9238   93.7163  -43.8698 C   0  0  0  0  0  0  0  0  0  0  0  0
   91.6200   93.5040  -42.5342 C   0  0  0  0  0  0  0  0  0  0  0  0
   91.3442   92.1912  -42.0789 O   0  0  0  0  0  0  0  0  0  0  0  0
   91.1269   94.4975  -41.4890 C   0  0  0  0  0  0  0  0  0  0  0  0
   90.3874   92.0844  -41.9607 H   0  0  0  0  0  0  0  0  0  0  0  0
   90.7165  101.6446  -44.4999 C   0  0  0  0  0  0  0  0  0  0  0  0
   90.7188  104.7673  -42.3528 C   0  0  0  0  0  0  0  0  0  0  0  0
   91.1875  102.7106  -43.5555 C   0  0  0  0  0  0  0  0  0  0  0  0
   93.3161  101.6285  -43.3578 O   0  0  0  0  0  0  0  0  0  0  0  0
   92.0130  104.7310  -41.8123 C   0  0  0  0  0  0  0  0  0  0  0  0
   90.3125  103.7501  -43.2260 C   0  0  0  0  0  0  0  0  0  0  0  0
   92.8851  103.6832  -42.1395 C   0  0  0  0  0  0  0  0  0  0  0  0
   92.4828  102.6700  -43.0142 C   0  0  0  0  0  0  0  0  0  0  0  0
   89.6098  106.0254  -41.9831 Cl  0  0  0  0  0  0  0  0  0  0  0  0
   94.6192  103.6831  -41.3985 Br  0  0  0  0  0  0  0  0  0  0  0  0
   93.0171  100.9641  -43.9471 H   0  0  0  0  0  0  0  0  0  0  0  0
  7  8  1  0  0  0
  7  9  1  0  0  0
  7  3  1  0  0  0
  8 13  1  0  0  0
 16 19  1  0  0  0
 16 20  2  0  0  0
 16 23  1  0  0  0
 17 15  1  0  0  0
 17 20  1  0  0  0
 17 22  2  0  0  0
  1 15  1  0  0  0
  1  2  1  0  0  0
  1  5  1  0  0  0
 18 22  1  0  0  0
 19 21  2  0  0  0
  2  6  1  0  0  0
  9 10  1  0  0  0
 21 22  1  0  0  0
 21 24  1  0  0  0
 10 11  1  0  0  0
 11 12  1  0  0  0
 11 13  1  0  0  0
  3  4  1  0  0  0
  3  6  1  0  0  0
  4  5  1  0  0  0
 18 25  1  0  0  0
 12 14  1  0  0  0
M  END
> <minimizedAffinity>
-5.47263

$$$$
5ABA_UL7_A_1291


 25 27  0  0  0  0  0  0  0  0999 V2000
   90.8289  100.3127  -44.0147 N   0  0  0  0  0  0  0  0  0  0  0  0
   89.6789   99.8695  -43.1609 C   0  0  0  0  0  0  0  0  0  0  0  0
   90.2596   97.5367  -43.7703 C   0  0  0  0  0  0  0  0  0  0  0  0
   91.4840   98.0195  -44.5453 C   0  0  0  0  0  0  0  0  0  0  0  0
   91.1760   99.3733  -45.1441 C   0  0  0  0  0  0  0  0  0  0  0  0
   89.9399   98.4813  -42.6050 C   0  0  0  0  0  0  0  0  0  0  0  0
   90.4818   96.0989  -43.3237 N   0  0  0  0  0  0  0  0  0  0  0  0
   91.1804   96.0145  -41.9789 C   0  0  0  0  0  0  0  0  0  0  0  0
   91.1230   95.1774  -44.3407 C   0  0  0  0  0  0  0  0  0  0  0  0
   90.9414   93.7450  -43.8521 C   0  0  0  0  0  0  0  0  0  0  0  0
   91.6474   93.5736  -42.5158 C   0  0  0  0  0  0  0  0  0  0  0  0
   91.4046   92.2631  -42.0357 O   0  0  0  0  0  0  0  0  0  0  0  0
   91.1346   94.5739  -41.4866 C   0  0  0  0  0  0  0  0  0  0  0  0
   90.4510   92.1357  -41.9117 H   0  0  0  0  0  0  0  0  0  0  0  0
   90.5093  101.6687  -44.5584 C   0  0  0  0  0  0  0  0  0  0  0  0
   93.1571  104.0754  -45.8067 C   0  0  0  0  0  0  0  0  0  0  0  0
   91.7093  102.5687  -44.5698 C   0  0  0  0  0  0  0  0  0  0  0  0
   92.1314  102.0749  -42.2636 O   0  0  0  0  0  0  0  0  0  0  0  0
   93.9402  104.2475  -44.6554 C   0  0  0  0  0  0  0  0  0  0  0  0
   92.0399  103.2320  -45.7554 C   0  0  0  0  0  0  0  0  0  0  0  0
   93.6013  103.5863  -43.4664 C   0  0  0  0  0  0  0  0  0  0  0  0
   92.4896  102.7408  -43.4148 C   0  0  0  0  0  0  0  0  0  0  0  0
   93.5252  104.8634  -47.2876 Cl  0  0  0  0  0  0  0  0  0  0  0  0
   94.6904  103.8385  -41.9477 Br  0  0  0  0  0  0  0  0  0  0  0  0
   91.3803  101.5147  -42.2607 H   0  0  0  0  0  0  0  0  0  0  0  0
  7  8  1  0  0  0
  7  9  1  0  0  0
  7  3  1  0  0  0
  8 13  1  0  0  0
 16 19  1  0  0  0
 16 20  2  0  0  0
 16 23  1  0  0  0
 17 15  1  0  0  0
 17 20  1  0  0  0
 17 22  2  0  0  0
  1 15  1  0  0  0
  1  2  1  0  0  0
  1  5  1  0  0  0
 18 22  1  0  0  0
 19 21  2  0  0  0
  2  6  1  0  0  0
  9 10  1  0  0  0
 21 22  1  0  0  0
 21 24  1  0  0  0
 10 11  1  0  0  0
 11 12  1  0  0  0
 11 13  1  0  0  0
  3  4  1  0  0  0
  3  6  1  0  0  0
  4  5  1  0  0  0
 18 25  1  0  0  0
 12 14  1  0  0  0
M  END
> <minimizedAffinity>
-5.23105

$$$$
5ABA_UL7_A_1291


 25 27  0  0  0  0  0  0  0  0999 V2000
   90.1544  100.4423  -44.0505 N   0  0  0  0  0  0  0  0  0  0  0  0
   91.3964  100.1290  -43.2714 C   0  0  0  0  0  0  0  0  0  0  0  0
   90.3743   97.9373  -42.7214 C   0  0  0  0  0  0  0  0  0  0  0  0
   89.1713   98.2494  -43.6091 C   0  0  0  0  0  0  0  0  0  0  0  0
   88.9102   99.7382  -43.5660 C   0  0  0  0  0  0  0  0  0  0  0  0
   91.6381   98.6305  -43.2456 C   0  0  0  0  0  0  0  0  0  0  0  0
   90.5328   96.4284  -42.6014 N   0  0  0  0  0  0  0  0  0  0  0  0
   91.2744   96.0252  -41.3402 C   0  0  0  0  0  0  0  0  0  0  0  0
   91.0843   95.7179  -43.8203 C   0  0  0  0  0  0  0  0  0  0  0  0
   90.8416   94.2240  -43.6391 C   0  0  0  0  0  0  0  0  0  0  0  0
   91.5856   93.7374  -42.4049 C   0  0  0  0  0  0  0  0  0  0  0  0
   91.2883   92.3671  -42.2031 O   0  0  0  0  0  0  0  0  0  0  0  0
   91.1670   94.5162  -41.1635 C   0  0  0  0  0  0  0  0  0  0  0  0
   90.3343   92.2603  -42.0637 H   0  0  0  0  0  0  0  0  0  0  0  0
   89.9475  101.9230  -44.0206 C   0  0  0  0  0  0  0  0  0  0  0  0
   92.7799  104.3368  -44.7368 C   0  0  0  0  0  0  0  0  0  0  0  0
   91.0257  102.6580  -44.7606 C   0  0  0  0  0  0  0  0  0  0  0  0
   90.5331  101.4227  -46.7536 O   0  0  0  0  0  0  0  0  0  0  0  0
   93.0376  104.0682  -46.0895 C   0  0  0  0  0  0  0  0  0  0  0  0
   91.7695  103.6250  -44.0776 C   0  0  0  0  0  0  0  0  0  0  0  0
   92.2944  103.0928  -46.7691 C   0  0  0  0  0  0  0  0  0  0  0  0
   91.2828  102.3850  -46.1141 C   0  0  0  0  0  0  0  0  0  0  0  0
   93.6620  105.5184  -43.8563 Cl  0  0  0  0  0  0  0  0  0  0  0  0
   92.6679  102.7749  -48.5900 Br  0  0  0  0  0  0  0  0  0  0  0  0
   89.8615  100.9652  -46.2871 H   0  0  0  0  0  0  0  0  0  0  0  0
  7  8  1  0  0  0
  7  9  1  0  0  0
  7  3  1  0  0  0
  8 13  1  0  0  0
 16 19  1  0  0  0
 16 20  2  0  0  0
 16 23  1  0  0  0
 17 15  1  0  0  0
 17 20  1  0  0  0
 17 22  2  0  0  0
  1 15  1  0  0  0
  1  2  1  0  0  0
  1  5  1  0  0  0
 18 22  1  0  0  0
 19 21  2  0  0  0
  2  6  1  0  0  0
  9 10  1  0  0  0
 21 22  1  0  0  0
 21 24  1  0  0  0
 10 11  1  0  0  0
 11 12  1  0  0  0
 11 13  1  0  0  0
  3  4  1  0  0  0
  3  6  1  0  0  0
  4  5  1  0  0  0
 18 25  1  0  0  0
 12 14  1  0  0  0
M  END
> <minimizedAffinity>
-4.89802

$$$$
5ABA_UL7_A_1291


 25 27  0  0  0  0  0  0  0  0999 V2000
   90.6182  100.4444  -44.6760 N   0  0  0  0  0  0  0  0  0  0  0  0
   91.3803  100.2338  -43.4022 C   0  0  0  0  0  0  0  0  0  0  0  0
   90.3349   97.9888  -43.2690 C   0  0  0  0  0  0  0  0  0  0  0  0
   89.6571   98.1987  -44.6215 C   0  0  0  0  0  0  0  0  0  0  0  0
   89.3285   99.6664  -44.7766 C   0  0  0  0  0  0  0  0  0  0  0  0
   91.6606   98.7564  -43.1942 C   0  0  0  0  0  0  0  0  0  0  0  0
   90.4988   96.4973  -43.0146 N   0  0  0  0  0  0  0  0  0  0  0  0
   91.2017   96.2105  -41.7005 C   0  0  0  0  0  0  0  0  0  0  0  0
   91.0938   95.6898  -44.1498 C   0  0  0  0  0  0  0  0  0  0  0  0
   90.8548   94.2148  -43.8484 C   0  0  0  0  0  0  0  0  0  0  0  0
   91.5614   93.8426  -42.5539 C   0  0  0  0  0  0  0  0  0  0  0  0
   91.2663   92.4921  -42.2445 O   0  0  0  0  0  0  0  0  0  0  0  0
   91.0980   94.7214  -41.3981 C   0  0  0  0  0  0  0  0  0  0  0  0
   90.3090   92.3891  -42.1267 H   0  0  0  0  0  0  0  0  0  0  0  0
   90.3441  101.9077  -44.8178 C   0  0  0  0  0  0  0  0  0  0  0  0
   89.5694  103.3163  -48.2496 C   0  0  0  0  0  0  0  0  0  0  0  0
   90.5370  102.3834  -46.2273 C   0  0  0  0  0  0  0  0  0  0  0  0
   92.8718  101.8580  -46.1105 O   0  0  0  0  0  0  0  0  0  0  0  0
   90.8322  103.2710  -48.8593 C   0  0  0  0  0  0  0  0  0  0  0  0
   89.4299  102.8695  -46.9294 C   0  0  0  0  0  0  0  0  0  0  0  0
   91.9413  102.7896  -48.1497 C   0  0  0  0  0  0  0  0  0  0  0  0
   91.8030  102.3391  -46.8339 C   0  0  0  0  0  0  0  0  0  0  0  0
   88.1789  103.8993  -49.0717 Cl  0  0  0  0  0  0  0  0  0  0  0  0
   93.6163  102.7360  -49.0145 Br  0  0  0  0  0  0  0  0  0  0  0  0
   92.7469  101.5631  -45.2299 H   0  0  0  0  0  0  0  0  0  0  0  0
  7  8  1  0  0  0
  7  9  1  0  0  0
  7  3  1  0  0  0
  8 13  1  0  0  0
 16 19  1  0  0  0
 16 20  2  0  0  0
 16 23  1  0  0  0
 17 15  1  0  0  0
 17 20  1  0  0  0
 17 22  2  0  0  0
  1 15  1  0  0  0
  1  2  1  0  0  0
  1  5  1  0  0  0
 18 22  1  0  0  0
 19 21  2  0  0  0
  2  6  1  0  0  0
  9 10  1  0  0  0
 21 22  1  0  0  0
 21 24  1  0  0  0
 10 11  1  0  0  0
 11 12  1  0  0  0
 11 13  1  0  0  0
  3  4  1  0  0  0
  3  6  1  0  0  0
  4  5  1  0  0  0
 18 25  1  0  0  0
 12 14  1  0  0  0
M  END
> <minimizedAffinity>
-4.78513

$$$$
