3W9R_A8S_A_201


 21 21  0  0  0  0  0  0  0  0999 V2000
   38.3427  -46.4297   -7.4297 C   0  0  0  0  0  0  0  0  0  0  0  0
   39.4166  -45.8961   -6.6573 O   0  0  0  0  0  0  0  0  0  0  0  0
   37.4110  -47.1759   -6.4841 C   0  0  0  0  0  0  0  0  0  0  0  0
   36.7301  -48.2565   -6.9139 C   0  0  0  0  0  0  0  0  0  0  0  0
   36.8533  -48.7621   -8.2998 C   0  0  0  0  0  0  0  0  0  0  0  0
   36.1564  -49.7056   -8.6886 O   0  0  0  0  0  0  0  0  0  0  0  0
   37.8282  -48.0981   -9.2675 C   0  0  0  0  0  0  0  0  0  0  0  0
   38.9395  -47.3661   -8.5028 C   0  0  0  0  0  0  0  0  0  0  0  0
   37.2650  -46.6677   -5.0702 C   0  0  0  0  0  0  0  0  0  0  0  0
   39.8899  -48.3833   -7.8926 C   0  0  0  0  0  0  0  0  0  0  0  0
   39.6895  -46.5316   -9.5522 C   0  0  0  0  0  0  0  0  0  0  0  0
   40.0255  -45.4148   -7.2392 H   0  0  0  0  0  0  0  0  0  0  0  0
   37.8281  -43.9801   -7.6757 C   0  0  0  0  0  0  0  0  0  0  0  0
   37.5920  -45.2718   -8.0457 C   0  0  0  0  0  0  0  0  0  0  0  0
   37.4585  -41.5443   -8.1753 C   0  0  0  0  0  0  0  0  0  0  0  0
   37.1295  -42.8577   -8.3182 C   0  0  0  0  0  0  0  0  0  0  0  0
   35.9777  -43.1408   -9.2537 C   0  0  0  0  0  0  0  0  0  0  0  0
   38.5797  -41.0013   -7.3557 C   0  0  0  0  0  0  0  0  0  0  0  0
   39.7259  -40.9804   -7.8123 O   0  0  0  0  0  0  0  0  0  0  0  0
   38.3276  -40.5280   -6.2250 O   0  0  0  0  0  0  0  0  0  0  0  0
   39.8989  -41.3388   -8.6606 H   0  0  0  0  0  0  0  0  0  0  0  0
 19 18  1  0  0  0
 20 18  2  0  0  0
 18 15  1  0  0  0
 15 16  2  0  0  0
 16 13  1  0  0  0
 16 17  1  0  0  0
 13 14  2  0  0  0
 14  1  1  0  0  0
  2  1  1  0  0  0
  1  8  1  0  0  0
  1  3  1  0  0  0
  3  9  1  0  0  0
  3  4  2  0  0  0
  4  5  1  0  0  0
  7  5  1  0  0  0
  5  6  2  0  0  0
  8  7  1  0  0  0
 11  8  1  0  0  0
 10  8  1  0  0  0
  2 12  1  0  0  0
 19 21  1  0  0  0
M  END
> <minimizedAffinity>
-8.32333

$$$$
3W9R_A8S_A_201


 21 21  0  0  0  0  0  0  0  0999 V2000
   39.3290  -45.6312   -7.5285 C   0  0  0  0  0  0  0  0  0  0  0  0
   40.7256  -45.3476   -7.4672 O   0  0  0  0  0  0  0  0  0  0  0  0
   38.8175  -45.7772   -6.1015 C   0  0  0  0  0  0  0  0  0  0  0  0
   37.8023  -46.6199   -5.8268 C   0  0  0  0  0  0  0  0  0  0  0  0
   37.1482  -47.4305   -6.8788 C   0  0  0  0  0  0  0  0  0  0  0  0
   36.1678  -48.1336   -6.6114 O   0  0  0  0  0  0  0  0  0  0  0  0
   37.6688  -47.3792   -8.3120 C   0  0  0  0  0  0  0  0  0  0  0  0
   39.1359  -46.9296   -8.3417 C   0  0  0  0  0  0  0  0  0  0  0  0
   39.4659  -44.9502   -5.0179 C   0  0  0  0  0  0  0  0  0  0  0  0
   40.0207  -48.0518   -7.8236 C   0  0  0  0  0  0  0  0  0  0  0  0
   39.4618  -46.6630   -9.8191 C   0  0  0  0  0  0  0  0  0  0  0  0
   41.0755  -45.2500   -8.3666 H   0  0  0  0  0  0  0  0  0  0  0  0
   37.5485  -43.8571   -7.6196 C   0  0  0  0  0  0  0  0  0  0  0  0
   38.6424  -44.4517   -8.1774 C   0  0  0  0  0  0  0  0  0  0  0  0
   37.3552  -41.3957   -8.0925 C   0  0  0  0  0  0  0  0  0  0  0  0
   36.9197  -42.6781   -8.2323 C   0  0  0  0  0  0  0  0  0  0  0  0
   35.7199  -42.8624   -9.1313 C   0  0  0  0  0  0  0  0  0  0  0  0
   38.5413  -40.9490   -7.3068 C   0  0  0  0  0  0  0  0  0  0  0  0
   39.5793  -40.6199   -7.8871 O   0  0  0  0  0  0  0  0  0  0  0  0
   38.4463  -40.8700   -6.0615 O   0  0  0  0  0  0  0  0  0  0  0  0
   39.6351  -40.6847   -8.8202 H   0  0  0  0  0  0  0  0  0  0  0  0
 19 18  1  0  0  0
 20 18  2  0  0  0
 18 15  1  0  0  0
 15 16  2  0  0  0
 16 13  1  0  0  0
 16 17  1  0  0  0
 13 14  2  0  0  0
 14  1  1  0  0  0
  2  1  1  0  0  0
  1  8  1  0  0  0
  1  3  1  0  0  0
  3  9  1  0  0  0
  3  4  2  0  0  0
  4  5  1  0  0  0
  7  5  1  0  0  0
  5  6  2  0  0  0
  8  7  1  0  0  0
 11  8  1  0  0  0
 10  8  1  0  0  0
  2 12  1  0  0  0
 19 21  1  0  0  0
M  END
> <minimizedAffinity>
-7.89739

$$$$
3W9R_A8S_A_201


 21 21  0  0  0  0  0  0  0  0999 V2000
   37.2805  -43.2465   -6.7798 C   0  0  0  0  0  0  0  0  0  0  0  0
   36.1683  -43.0823   -5.9018 O   0  0  0  0  0  0  0  0  0  0  0  0
   38.5476  -42.9375   -5.9937 C   0  0  0  0  0  0  0  0  0  0  0  0
   39.6146  -42.3936   -6.6117 C   0  0  0  0  0  0  0  0  0  0  0  0
   39.6065  -42.0748   -8.0573 C   0  0  0  0  0  0  0  0  0  0  0  0
   40.6259  -41.6518   -8.6130 O   0  0  0  0  0  0  0  0  0  0  0  0
   38.3388  -42.2946   -8.8773 C   0  0  0  0  0  0  0  0  0  0  0  0
   37.0983  -42.2842   -7.9738 C   0  0  0  0  0  0  0  0  0  0  0  0
   38.5772  -43.2661   -4.5207 C   0  0  0  0  0  0  0  0  0  0  0  0
   36.8201  -40.8635   -7.5106 C   0  0  0  0  0  0  0  0  0  0  0  0
   35.9364  -42.7716   -8.8528 C   0  0  0  0  0  0  0  0  0  0  0  0
   35.3470  -43.2741   -6.3809 H   0  0  0  0  0  0  0  0  0  0  0  0
   37.6599  -45.6981   -6.3657 C   0  0  0  0  0  0  0  0  0  0  0  0
   37.3166  -44.6916   -7.2203 C   0  0  0  0  0  0  0  0  0  0  0  0
   38.5983  -47.7079   -7.5487 C   0  0  0  0  0  0  0  0  0  0  0  0
   37.6415  -47.1052   -6.7903 C   0  0  0  0  0  0  0  0  0  0  0  0
   36.5136  -48.0010   -6.3352 C   0  0  0  0  0  0  0  0  0  0  0  0
   39.8343  -47.0656   -8.0810 C   0  0  0  0  0  0  0  0  0  0  0  0
   40.0406  -47.0345   -9.2972 O   0  0  0  0  0  0  0  0  0  0  0  0
   40.6262  -46.5219   -7.2790 O   0  0  0  0  0  0  0  0  0  0  0  0
   39.4383  -47.4464   -9.8852 H   0  0  0  0  0  0  0  0  0  0  0  0
 19 18  1  0  0  0
 20 18  2  0  0  0
 18 15  1  0  0  0
 15 16  2  0  0  0
 16 13  1  0  0  0
 16 17  1  0  0  0
 13 14  2  0  0  0
 14  1  1  0  0  0
  2  1  1  0  0  0
  1  8  1  0  0  0
  1  3  1  0  0  0
  3  9  1  0  0  0
  3  4  2  0  0  0
  4  5  1  0  0  0
  7  5  1  0  0  0
  5  6  2  0  0  0
  8  7  1  0  0  0
 11  8  1  0  0  0
 10  8  1  0  0  0
  2 12  1  0  0  0
 19 21  1  0  0  0
M  END
> <minimizedAffinity>
-7.39251

$$$$
3W9R_A8S_A_201


 21 21  0  0  0  0  0  0  0  0999 V2000
   38.2020  -43.8035   -5.0805 C   0  0  0  0  0  0  0  0  0  0  0  0
   38.2578  -42.9171   -3.9643 O   0  0  0  0  0  0  0  0  0  0  0  0
   36.8671  -44.5348   -5.0319 C   0  0  0  0  0  0  0  0  0  0  0  0
   36.7668  -45.7968   -5.4938 C   0  0  0  0  0  0  0  0  0  0  0  0
   37.9278  -46.5206   -6.0592 C   0  0  0  0  0  0  0  0  0  0  0  0
   37.7885  -47.6467   -6.5485 O   0  0  0  0  0  0  0  0  0  0  0  0
   39.3046  -45.8632   -6.0643 C   0  0  0  0  0  0  0  0  0  0  0  0
   39.3939  -44.7802   -4.9805 C   0  0  0  0  0  0  0  0  0  0  0  0
   35.6701  -43.8080   -4.4683 C   0  0  0  0  0  0  0  0  0  0  0  0
   39.4663  -45.4373   -3.6118 C   0  0  0  0  0  0  0  0  0  0  0  0
   40.7023  -44.0226   -5.2531 C   0  0  0  0  0  0  0  0  0  0  0  0
   39.1014  -42.4384   -3.9734 H   0  0  0  0  0  0  0  0  0  0  0  0
   38.6302  -41.6577   -6.3206 C   0  0  0  0  0  0  0  0  0  0  0  0
   38.2594  -42.9705   -6.3401 C   0  0  0  0  0  0  0  0  0  0  0  0
   38.2360  -39.6151   -7.7319 C   0  0  0  0  0  0  0  0  0  0  0  0
   38.7328  -40.8708   -7.5579 C   0  0  0  0  0  0  0  0  0  0  0  0
   39.4782  -41.4440   -8.7400 C   0  0  0  0  0  0  0  0  0  0  0  0
   37.5082  -38.8066   -6.7118 C   0  0  0  0  0  0  0  0  0  0  0  0
   36.2752  -38.7603   -6.7242 O   0  0  0  0  0  0  0  0  0  0  0  0
   38.1662  -38.2211   -5.8230 O   0  0  0  0  0  0  0  0  0  0  0  0
   35.7964  -39.2040   -7.3965 H   0  0  0  0  0  0  0  0  0  0  0  0
 19 18  1  0  0  0
 20 18  2  0  0  0
 18 15  1  0  0  0
 15 16  2  0  0  0
 16 13  1  0  0  0
 16 17  1  0  0  0
 13 14  2  0  0  0
 14  1  1  0  0  0
  2  1  1  0  0  0
  1  8  1  0  0  0
  1  3  1  0  0  0
  3  9  1  0  0  0
  3  4  2  0  0  0
  4  5  1  0  0  0
  7  5  1  0  0  0
  5  6  2  0  0  0
  8  7  1  0  0  0
 11  8  1  0  0  0
 10  8  1  0  0  0
  2 12  1  0  0  0
 19 21  1  0  0  0
M  END
> <minimizedAffinity>
-7.37609

$$$$
3W9R_A8S_A_201


 21 21  0  0  0  0  0  0  0  0999 V2000
   37.8395  -46.3850   -7.9619 C   0  0  0  0  0  0  0  0  0  0  0  0
   37.1445  -47.3835   -8.7067 O   0  0  0  0  0  0  0  0  0  0  0  0
   39.2000  -46.1766   -8.6135 C   0  0  0  0  0  0  0  0  0  0  0  0
   40.2670  -45.8359   -7.8640 C   0  0  0  0  0  0  0  0  0  0  0  0
   40.1705  -45.6524   -6.3982 C   0  0  0  0  0  0  0  0  0  0  0  0
   41.1463  -45.2617   -5.7485 O   0  0  0  0  0  0  0  0  0  0  0  0
   38.8494  -45.9206   -5.6837 C   0  0  0  0  0  0  0  0  0  0  0  0
   37.9720  -46.8761   -6.5039 C   0  0  0  0  0  0  0  0  0  0  0  0
   39.3143  -46.3491  -10.1087 C   0  0  0  0  0  0  0  0  0  0  0  0
   38.5506  -48.2800   -6.4362 C   0  0  0  0  0  0  0  0  0  0  0  0
   36.5918  -46.8595   -5.8294 C   0  0  0  0  0  0  0  0  0  0  0  0
   36.2723  -47.5343   -8.3099 H   0  0  0  0  0  0  0  0  0  0  0  0
   37.6114  -43.9373   -8.4936 C   0  0  0  0  0  0  0  0  0  0  0  0
   37.0491  -45.1003   -8.0548 C   0  0  0  0  0  0  0  0  0  0  0  0
   37.2028  -41.4758   -8.1879 C   0  0  0  0  0  0  0  0  0  0  0  0
   36.8206  -42.7058   -8.6293 C   0  0  0  0  0  0  0  0  0  0  0  0
   35.4927  -42.7543   -9.3478 C   0  0  0  0  0  0  0  0  0  0  0  0
   38.4828  -41.1465   -7.4972 C   0  0  0  0  0  0  0  0  0  0  0  0
   39.4782  -40.8335   -8.1559 O   0  0  0  0  0  0  0  0  0  0  0  0
   38.5120  -41.1476   -6.2462 O   0  0  0  0  0  0  0  0  0  0  0  0
   39.4407  -40.8374   -9.0921 H   0  0  0  0  0  0  0  0  0  0  0  0
 19 18  1  0  0  0
 20 18  2  0  0  0
 18 15  1  0  0  0
 15 16  2  0  0  0
 16 13  1  0  0  0
 16 17  1  0  0  0
 13 14  2  0  0  0
 14  1  1  0  0  0
  2  1  1  0  0  0
  1  8  1  0  0  0
  1  3  1  0  0  0
  3  9  1  0  0  0
  3  4  2  0  0  0
  4  5  1  0  0  0
  7  5  1  0  0  0
  5  6  2  0  0  0
  8  7  1  0  0  0
 11  8  1  0  0  0
 10  8  1  0  0  0
  2 12  1  0  0  0
 19 21  1  0  0  0
M  END
> <minimizedAffinity>
-7.26049

$$$$
3W9R_A8S_A_201


 21 21  0  0  0  0  0  0  0  0999 V2000
   37.7963  -43.8569   -7.2495 C   0  0  0  0  0  0  0  0  0  0  0  0
   36.5026  -44.1800   -6.7430 O   0  0  0  0  0  0  0  0  0  0  0  0
   38.6942  -43.5261   -6.0648 C   0  0  0  0  0  0  0  0  0  0  0  0
   39.6849  -42.6219   -6.1951 C   0  0  0  0  0  0  0  0  0  0  0  0
   39.9430  -41.9183   -7.4718 C   0  0  0  0  0  0  0  0  0  0  0  0
   40.9080  -41.1548   -7.5843 O   0  0  0  0  0  0  0  0  0  0  0  0
   39.0281  -42.1561   -8.6694 C   0  0  0  0  0  0  0  0  0  0  0  0
   37.6518  -42.6572   -8.2111 C   0  0  0  0  0  0  0  0  0  0  0  0
   38.4520  -44.2420   -4.7582 C   0  0  0  0  0  0  0  0  0  0  0  0
   36.8841  -41.5136   -7.5682 C   0  0  0  0  0  0  0  0  0  0  0  0
   36.9242  -43.1071   -9.4871 C   0  0  0  0  0  0  0  0  0  0  0  0
   35.9109  -44.3950   -7.4809 H   0  0  0  0  0  0  0  0  0  0  0  0
   37.7937  -46.3169   -7.7731 C   0  0  0  0  0  0  0  0  0  0  0  0
   38.3405  -45.0797   -7.9511 C   0  0  0  0  0  0  0  0  0  0  0  0
   37.5234  -48.4799   -9.0252 C   0  0  0  0  0  0  0  0  0  0  0  0
   38.2978  -47.4907   -8.5001 C   0  0  0  0  0  0  0  0  0  0  0  0
   39.7819  -47.6282   -8.7457 C   0  0  0  0  0  0  0  0  0  0  0  0
   36.0352  -48.5570   -8.9690 C   0  0  0  0  0  0  0  0  0  0  0  0
   35.4744  -48.9458   -7.9409 O   0  0  0  0  0  0  0  0  0  0  0  0
   35.3726  -48.1770   -9.9603 O   0  0  0  0  0  0  0  0  0  0  0  0
   35.9843  -49.2272   -7.2069 H   0  0  0  0  0  0  0  0  0  0  0  0
 19 18  1  0  0  0
 20 18  2  0  0  0
 18 15  1  0  0  0
 15 16  2  0  0  0
 16 13  1  0  0  0
 16 17  1  0  0  0
 13 14  2  0  0  0
 14  1  1  0  0  0
  2  1  1  0  0  0
  1  8  1  0  0  0
  1  3  1  0  0  0
  3  9  1  0  0  0
  3  4  2  0  0  0
  4  5  1  0  0  0
  7  5  1  0  0  0
  5  6  2  0  0  0
  8  7  1  0  0  0
 11  8  1  0  0  0
 10  8  1  0  0  0
  2 12  1  0  0  0
 19 21  1  0  0  0
M  END
> <minimizedAffinity>
-7.25642

$$$$
3W9R_A8S_A_201


 21 21  0  0  0  0  0  0  0  0999 V2000
   39.5465  -45.6360   -7.2603 C   0  0  0  0  0  0  0  0  0  0  0  0
   40.9506  -45.4553   -7.0853 O   0  0  0  0  0  0  0  0  0  0  0  0
   38.9181  -45.7870   -5.8814 C   0  0  0  0  0  0  0  0  0  0  0  0
   37.8289  -46.5625   -5.7126 C   0  0  0  0  0  0  0  0  0  0  0  0
   37.2029  -47.2926   -6.8380 C   0  0  0  0  0  0  0  0  0  0  0  0
   36.1585  -47.9312   -6.6690 O   0  0  0  0  0  0  0  0  0  0  0  0
   37.8342  -47.2366   -8.2258 C   0  0  0  0  0  0  0  0  0  0  0  0
   39.3269  -46.8927   -8.1304 C   0  0  0  0  0  0  0  0  0  0  0  0
   39.5372  -45.0410   -4.7243 C   0  0  0  0  0  0  0  0  0  0  0  0
   40.0894  -48.0902   -7.5873 C   0  0  0  0  0  0  0  0  0  0  0  0
   39.7830  -46.6067   -9.5692 C   0  0  0  0  0  0  0  0  0  0  0  0
   41.3744  -45.3565   -7.9522 H   0  0  0  0  0  0  0  0  0  0  0  0
   39.3807  -43.1411   -7.5317 C   0  0  0  0  0  0  0  0  0  0  0  0
   38.9951  -44.3917   -7.9171 C   0  0  0  0  0  0  0  0  0  0  0  0
   37.5685  -41.5738   -8.2925 C   0  0  0  0  0  0  0  0  0  0  0  0
   38.8776  -41.9391   -8.2119 C   0  0  0  0  0  0  0  0  0  0  0  0
   39.8592  -40.9825   -8.8470 C   0  0  0  0  0  0  0  0  0  0  0  0
   36.4110  -42.3105   -7.7082 C   0  0  0  0  0  0  0  0  0  0  0  0
   35.7153  -43.0366   -8.4234 O   0  0  0  0  0  0  0  0  0  0  0  0
   36.1918  -42.2151   -6.4799 O   0  0  0  0  0  0  0  0  0  0  0  0
   35.8919  -43.0975   -9.3416 H   0  0  0  0  0  0  0  0  0  0  0  0
 19 18  1  0  0  0
 20 18  2  0  0  0
 18 15  1  0  0  0
 15 16  2  0  0  0
 16 13  1  0  0  0
 16 17  1  0  0  0
 13 14  2  0  0  0
 14  1  1  0  0  0
  2  1  1  0  0  0
  1  8  1  0  0  0
  1  3  1  0  0  0
  3  9  1  0  0  0
  3  4  2  0  0  0
  4  5  1  0  0  0
  7  5  1  0  0  0
  5  6  2  0  0  0
  8  7  1  0  0  0
 11  8  1  0  0  0
 10  8  1  0  0  0
  2 12  1  0  0  0
 19 21  1  0  0  0
M  END
> <minimizedAffinity>
-7.18363

$$$$
3W9R_A8S_A_201


 21 21  0  0  0  0  0  0  0  0999 V2000
   37.7203  -44.8637   -5.8404 C   0  0  0  0  0  0  0  0  0  0  0  0
   36.8147  -45.9605   -5.7319 O   0  0  0  0  0  0  0  0  0  0  0  0
   38.8086  -45.2511   -6.8327 C   0  0  0  0  0  0  0  0  0  0  0  0
   40.0611  -44.7758   -6.6870 C   0  0  0  0  0  0  0  0  0  0  0  0
   40.4335  -43.8719   -5.5753 C   0  0  0  0  0  0  0  0  0  0  0  0
   41.5687  -43.3878   -5.5126 O   0  0  0  0  0  0  0  0  0  0  0  0
   39.4018  -43.5108   -4.5108 C   0  0  0  0  0  0  0  0  0  0  0  0
   38.2999  -44.5765   -4.4382 C   0  0  0  0  0  0  0  0  0  0  0  0
   38.4439  -46.1635   -7.9787 C   0  0  0  0  0  0  0  0  0  0  0  0
   38.8542  -45.8360   -3.7926 C   0  0  0  0  0  0  0  0  0  0  0  0
   37.2028  -43.9833   -3.5412 C   0  0  0  0  0  0  0  0  0  0  0  0
   36.1103  -45.7372   -5.1035 H   0  0  0  0  0  0  0  0  0  0  0  0
   37.3453  -43.0327   -7.5235 C   0  0  0  0  0  0  0  0  0  0  0  0
   36.9557  -43.6808   -6.3879 C   0  0  0  0  0  0  0  0  0  0  0  0
   36.8995  -40.6002   -7.9744 C   0  0  0  0  0  0  0  0  0  0  0  0
   36.5653  -41.9161   -8.0760 C   0  0  0  0  0  0  0  0  0  0  0  0
   35.3102  -42.2086   -8.8641 C   0  0  0  0  0  0  0  0  0  0  0  0
   38.1083  -40.0482   -7.2976 C   0  0  0  0  0  0  0  0  0  0  0  0
   39.2315  -40.2778   -7.7538 O   0  0  0  0  0  0  0  0  0  0  0  0
   37.9574  -39.3148   -6.2950 O   0  0  0  0  0  0  0  0  0  0  0  0
   39.3283  -40.8291   -8.5052 H   0  0  0  0  0  0  0  0  0  0  0  0
 19 18  1  0  0  0
 20 18  2  0  0  0
 18 15  1  0  0  0
 15 16  2  0  0  0
 16 13  1  0  0  0
 16 17  1  0  0  0
 13 14  2  0  0  0
 14  1  1  0  0  0
  2  1  1  0  0  0
  1  8  1  0  0  0
  1  3  1  0  0  0
  3  9  1  0  0  0
  3  4  2  0  0  0
  4  5  1  0  0  0
  7  5  1  0  0  0
  5  6  2  0  0  0
  8  7  1  0  0  0
 11  8  1  0  0  0
 10  8  1  0  0  0
  2 12  1  0  0  0
 19 21  1  0  0  0
M  END
> <minimizedAffinity>
-7.17587

$$$$
3W9R_A8S_A_201


 21 21  0  0  0  0  0  0  0  0999 V2000
   38.1097  -45.2107   -7.8291 C   0  0  0  0  0  0  0  0  0  0  0  0
   38.5280  -45.2423   -9.1925 O   0  0  0  0  0  0  0  0  0  0  0  0
   37.1322  -44.0546   -7.6656 C   0  0  0  0  0  0  0  0  0  0  0  0
   37.0637  -43.3827   -6.4994 C   0  0  0  0  0  0  0  0  0  0  0  0
   37.9204  -43.7285   -5.3426 C   0  0  0  0  0  0  0  0  0  0  0  0
   37.7795  -43.1481   -4.2608 O   0  0  0  0  0  0  0  0  0  0  0  0
   38.9689  -44.8290   -5.4750 C   0  0  0  0  0  0  0  0  0  0  0  0
   39.3627  -45.0307   -6.9446 C   0  0  0  0  0  0  0  0  0  0  0  0
   36.2433  -43.6952   -8.8315 C   0  0  0  0  0  0  0  0  0  0  0  0
   40.2114  -43.8578   -7.4077 C   0  0  0  0  0  0  0  0  0  0  0  0
   40.2043  -46.3154   -6.9795 C   0  0  0  0  0  0  0  0  0  0  0  0
   39.1531  -45.9726   -9.3221 H   0  0  0  0  0  0  0  0  0  0  0  0
   37.1314  -47.4269   -8.5054 C   0  0  0  0  0  0  0  0  0  0  0  0
   37.3911  -46.5065   -7.5323 C   0  0  0  0  0  0  0  0  0  0  0  0
   35.7518  -49.4491   -9.0770 C   0  0  0  0  0  0  0  0  0  0  0  0
   36.4781  -48.7068   -8.1965 C   0  0  0  0  0  0  0  0  0  0  0  0
   36.6357  -49.3046   -6.8182 C   0  0  0  0  0  0  0  0  0  0  0  0
   35.4894  -49.1127  -10.5060 C   0  0  0  0  0  0  0  0  0  0  0  0
   34.5692  -48.3456  -10.8018 O   0  0  0  0  0  0  0  0  0  0  0  0
   36.2451  -49.5824  -11.3859 O   0  0  0  0  0  0  0  0  0  0  0  0
   34.0118  -48.0022  -10.1315 H   0  0  0  0  0  0  0  0  0  0  0  0
 19 18  1  0  0  0
 20 18  2  0  0  0
 18 15  1  0  0  0
 15 16  2  0  0  0
 16 13  1  0  0  0
 16 17  1  0  0  0
 13 14  2  0  0  0
 14  1  1  0  0  0
  2  1  1  0  0  0
  1  8  1  0  0  0
  1  3  1  0  0  0
  3  9  1  0  0  0
  3  4  2  0  0  0
  4  5  1  0  0  0
  7  5  1  0  0  0
  5  6  2  0  0  0
  8  7  1  0  0  0
 11  8  1  0  0  0
 10  8  1  0  0  0
  2 12  1  0  0  0
 19 21  1  0  0  0
M  END
> <minimizedAffinity>
-7.17175

$$$$
3W9R_A8S_A_201


 21 21  0  0  0  0  0  0  0  0999 V2000
   38.5678  -44.5453   -5.9200 C   0  0  0  0  0  0  0  0  0  0  0  0
   38.3054  -43.9692   -4.6417 O   0  0  0  0  0  0  0  0  0  0  0  0
   37.9159  -45.9211   -5.9566 C   0  0  0  0  0  0  0  0  0  0  0  0
   38.4696  -46.9161   -6.6773 C   0  0  0  0  0  0  0  0  0  0  0  0
   39.7158  -46.7242   -7.4529 C   0  0  0  0  0  0  0  0  0  0  0  0
   40.1563  -47.6304   -8.1684 O   0  0  0  0  0  0  0  0  0  0  0  0
   40.4510  -45.3887   -7.3925 C   0  0  0  0  0  0  0  0  0  0  0  0
   40.0985  -44.6319   -6.1047 C   0  0  0  0  0  0  0  0  0  0  0  0
   36.6386  -46.1315   -5.1801 C   0  0  0  0  0  0  0  0  0  0  0  0
   40.7682  -45.3083   -4.9196 C   0  0  0  0  0  0  0  0  0  0  0  0
   40.6751  -43.2187   -6.2789 C   0  0  0  0  0  0  0  0  0  0  0  0
   38.7118  -43.0897   -4.5939 H   0  0  0  0  0  0  0  0  0  0  0  0
   37.0918  -42.6382   -6.6343 C   0  0  0  0  0  0  0  0  0  0  0  0
   37.9219  -43.6683   -6.9676 C   0  0  0  0  0  0  0  0  0  0  0  0
   36.9366  -40.4978   -7.9435 C   0  0  0  0  0  0  0  0  0  0  0  0
   36.5101  -41.7591   -7.6586 C   0  0  0  0  0  0  0  0  0  0  0  0
   35.3769  -42.2708   -8.5164 C   0  0  0  0  0  0  0  0  0  0  0  0
   38.0646  -39.7794   -7.2836 C   0  0  0  0  0  0  0  0  0  0  0  0
   39.2213  -39.9495   -7.6782 O   0  0  0  0  0  0  0  0  0  0  0  0
   37.8101  -38.9721   -6.3620 O   0  0  0  0  0  0  0  0  0  0  0  0
   39.3959  -40.5576   -8.3693 H   0  0  0  0  0  0  0  0  0  0  0  0
 19 18  1  0  0  0
 20 18  2  0  0  0
 18 15  1  0  0  0
 15 16  2  0  0  0
 16 13  1  0  0  0
 16 17  1  0  0  0
 13 14  2  0  0  0
 14  1  1  0  0  0
  2  1  1  0  0  0
  1  8  1  0  0  0
  1  3  1  0  0  0
  3  9  1  0  0  0
  3  4  2  0  0  0
  4  5  1  0  0  0
  7  5  1  0  0  0
  5  6  2  0  0  0
  8  7  1  0  0  0
 11  8  1  0  0  0
 10  8  1  0  0  0
  2 12  1  0  0  0
 19 21  1  0  0  0
M  END
> <minimizedAffinity>
-7.10609

$$$$
