4PP5_2W0_A_500


 24 25  0  0  0  0  0  0  0  0999 V2000
   67.7112   46.2010   34.3335 C   0  0  0  0  0  0  0  0  0  0  0  0
   66.6333   47.1110   33.7399 C   0  0  0  0  0  0  0  0  0  0  0  0
   65.8668   47.8797   34.6098 C   0  0  0  0  0  0  0  0  0  0  0  0
   64.8721   48.7087   34.1048 C   0  0  0  0  0  0  0  0  0  0  0  0
   64.6503   48.7558   32.7330 C   0  0  0  0  0  0  0  0  0  0  0  0
   65.4181   47.9816   31.8667 C   0  0  0  0  0  0  0  0  0  0  0  0
   66.4249   47.1528   32.3617 C   0  0  0  0  0  0  0  0  0  0  0  0
   67.3034   46.3235   31.4209 C   0  0  0  0  0  0  0  0  0  0  0  0
   66.5229   45.8569   30.1899 C   0  0  0  0  0  0  0  0  0  0  0  0
   65.8241   47.0340   29.5051 C   0  0  0  0  0  0  0  0  0  0  0  0
   65.1561   47.9912   30.4984 C   0  0  0  0  0  0  0  0  0  0  0  0
   64.2486   48.9225   30.0005 C   0  0  0  0  0  0  0  0  0  0  0  0
   63.9109   49.0163   28.6533 C   0  0  0  0  0  0  0  0  0  0  0  0
   64.7892   49.8378   27.7084 C   0  0  0  0  0  0  0  0  0  0  0  0
   62.7581   48.4217   28.1494 C   0  0  0  0  0  0  0  0  0  0  0  0
   61.8623   47.7060   28.9370 C   0  0  0  0  0  0  0  0  0  0  0  0
   60.5178   47.6623   28.5860 C   0  0  0  0  0  0  0  0  0  0  0  0
   59.5876   46.9642   29.3499 C   0  0  0  0  0  0  0  0  0  0  0  0
   60.0575   46.0518   30.4856 C   0  0  0  0  0  0  0  0  0  0  0  0
   58.2371   47.1129   29.0454 C   0  0  0  0  0  0  0  0  0  0  0  0
   57.2051   46.4801   29.7319 C   0  0  0  0  0  0  0  0  0  0  0  0
   56.7537   47.0549   30.7452 O   0  0  0  0  0  0  0  0  0  0  0  0
   56.7822   45.3834   29.3066 O   0  0  0  0  0  0  0  0  0  0  0  0
   57.1611   45.0006   28.5398 H   0  0  0  0  0  0  0  0  0  0  0  0
 14 13  1  0  0  0
 15 13  2  0  0  0
 15 16  1  0  0  0
 13 12  1  0  0  0
 17 16  2  0  0  0
 17 18  1  0  0  0
 20 18  2  0  0  0
 20 21  1  0  0  0
 18 19  1  0  0  0
 10  9  1  0  0  0
 10 11  1  0  0  0
 22 21  2  0  0  0
 21 23  1  0  0  0
 12 11  2  0  0  0
  9  8  1  0  0  0
 11  6  1  0  0  0
  8  7  1  0  0  0
  6  7  2  0  0  0
  6  5  1  0  0  0
  7  2  1  0  0  0
  5  4  2  0  0  0
  2  1  1  0  0  0
  2  3  2  0  0  0
  4  3  1  0  0  0
 23 24  1  0  0  0
M  END
> <minimizedAffinity>
-11.61522

$$$$
4PP5_2W0_A_500


 24 25  0  0  0  0  0  0  0  0999 V2000
   66.4236   46.9807   34.7410 C   0  0  0  0  0  0  0  0  0  0  0  0
   66.3753   46.7690   33.2261 C   0  0  0  0  0  0  0  0  0  0  0  0
   67.1393   45.7433   32.6788 C   0  0  0  0  0  0  0  0  0  0  0  0
   67.1269   45.5305   31.3054 C   0  0  0  0  0  0  0  0  0  0  0  0
   66.3535   46.3511   30.4917 C   0  0  0  0  0  0  0  0  0  0  0  0
   65.5932   47.3788   31.0443 C   0  0  0  0  0  0  0  0  0  0  0  0
   65.5912   47.5957   32.4221 C   0  0  0  0  0  0  0  0  0  0  0  0
   64.7321   48.6967   33.0502 C   0  0  0  0  0  0  0  0  0  0  0  0
   64.6133   49.9114   32.1268 C   0  0  0  0  0  0  0  0  0  0  0  0
   64.1556   49.4936   30.7272 C   0  0  0  0  0  0  0  0  0  0  0  0
   64.8629   48.2321   30.2200 C   0  0  0  0  0  0  0  0  0  0  0  0
   64.7588   47.9229   28.8663 C   0  0  0  0  0  0  0  0  0  0  0  0
   64.0583   48.7075   27.9545 C   0  0  0  0  0  0  0  0  0  0  0  0
   64.8109   49.7271   27.0984 C   0  0  0  0  0  0  0  0  0  0  0  0
   62.6741   48.6259   27.8374 C   0  0  0  0  0  0  0  0  0  0  0  0
   61.8919   47.7761   28.6126 C   0  0  0  0  0  0  0  0  0  0  0  0
   60.5065   47.8839   28.5703 C   0  0  0  0  0  0  0  0  0  0  0  0
   59.6877   47.0586   29.3350 C   0  0  0  0  0  0  0  0  0  0  0  0
   60.3063   46.0710   30.3275 C   0  0  0  0  0  0  0  0  0  0  0  0
   58.3092   47.1522   29.1628 C   0  0  0  0  0  0  0  0  0  0  0  0
   57.3787   46.3928   29.8660 C   0  0  0  0  0  0  0  0  0  0  0  0
   57.1331   46.7332   31.0428 O   0  0  0  0  0  0  0  0  0  0  0  0
   56.8378   45.4218   29.2941 O   0  0  0  0  0  0  0  0  0  0  0  0
   57.0630   45.2148   28.4085 H   0  0  0  0  0  0  0  0  0  0  0  0
 14 13  1  0  0  0
 15 13  2  0  0  0
 15 16  1  0  0  0
 13 12  1  0  0  0
 17 16  2  0  0  0
 17 18  1  0  0  0
 20 18  2  0  0  0
 20 21  1  0  0  0
 18 19  1  0  0  0
 10  9  1  0  0  0
 10 11  1  0  0  0
 22 21  2  0  0  0
 21 23  1  0  0  0
 12 11  2  0  0  0
  9  8  1  0  0  0
 11  6  1  0  0  0
  8  7  1  0  0  0
  6  7  2  0  0  0
  6  5  1  0  0  0
  7  2  1  0  0  0
  5  4  2  0  0  0
  2  1  1  0  0  0
  2  3  2  0  0  0
  4  3  1  0  0  0
 23 24  1  0  0  0
M  END
> <minimizedAffinity>
-10.63326

$$$$
