4M2V_BZ1_A_302


 26 27  0  0  0  0  0  0  0  0999 V2000
   -0.7350    2.9066   84.6028 C   0  0  0  0  0  0  0  0  0  0  0  0
   -1.2550    4.0577   85.0653 C   0  0  0  0  0  0  0  0  0  0  0  0
    0.0382    2.5211   83.3776 C   0  0  0  0  0  0  0  0  0  0  0  0
   -0.0980    3.7681   82.4662 C   0  0  0  0  0  0  0  0  0  0  0  0
   -2.0918    3.8963   86.5005 S   0  0  0  0  0  0  0  0  0  0  0  0
   -1.8268    2.2171   86.6789 C   0  0  0  0  0  0  0  0  0  0  0  0
   -1.0173    1.6830   85.5050 C   0  0  0  0  0  0  0  0  0  0  0  0
   -1.0397    5.5295   84.2088 S   0  0  0  0  0  0  0  0  0  0  0  0
   -0.5316    6.5696   85.1078 O   0  0  0  0  0  0  0  0  0  0  0  0
   -2.2488    5.9618   83.5045 O   0  0  0  0  0  0  0  0  0  0  0  0
    0.1246    5.0328   83.1877 N   0  0  0  0  0  0  0  0  0  0  0  0
   -2.4400    1.3784   88.0629 S   0  0  0  0  0  0  0  0  0  0  0  0
   -1.5049    0.0985   88.3204 N   0  0  0  0  0  0  0  0  0  0  0  0
   -2.3551    2.3106   89.1745 O   0  0  0  0  0  0  0  0  0  0  0  0
   -3.8291    1.0919   87.7061 O   0  0  0  0  0  0  0  0  0  0  0  0
   -1.8464   -0.4140   89.1334 H   0  0  0  0  0  0  0  0  0  0  0  0
   -0.5471    0.4058   88.4900 H   0  0  0  0  0  0  0  0  0  0  0  0
   -0.6471    1.4077   82.7445 N   0  0  0  0  0  0  0  0  0  0  0  0
   -1.2568    1.7747   82.0138 H   0  0  0  0  0  0  0  0  0  0  0  0
    0.0223   -0.9837   82.4860 C   0  0  0  0  0  0  0  0  0  0  0  0
    0.2512    0.4575   82.1553 C   0  0  0  0  0  0  0  0  0  0  0  0
    1.5539    5.0980   83.2531 C   0  0  0  0  0  0  0  0  0  0  0  0
    2.3194    5.1178   81.9735 C   0  0  0  0  0  0  0  0  0  0  0  0
    3.4590    4.1634   81.8514 C   0  0  0  0  0  0  0  0  0  0  0  0
    3.2020    2.8719   81.4540 O   0  0  0  0  0  0  0  0  0  0  0  0
    2.6154    2.6333   80.2280 C   0  0  0  0  0  0  0  0  0  0  0  0
 23 24  1  0  0  0
 23 22  1  0  0  0
  1  2  2  0  0  0
  1  3  1  0  0  0
  1  7  1  0  0  0
  2  5  1  0  0  0
  2  8  1  0  0  0
  3  4  1  0  0  0
  3 18  1  0  0  0
  4 11  1  0  0  0
 12 13  1  0  0  0
 12 14  2  0  0  0
 12 15  2  0  0  0
 12  6  1  0  0  0
 24 25  1  0  0  0
 20 21  1  0  0  0
 21 18  1  0  0  0
  5  6  1  0  0  0
  6  7  2  0  0  0
  8  9  2  0  0  0
  8 10  2  0  0  0
  8 11  1  0  0  0
 11 22  1  0  0  0
 25 26  1  0  0  0
 13 16  1  0  0  0
 13 17  1  0  0  0
 18 19  1  0  0  0
M  END
> <minimizedAffinity>
-6.38235

$$$$
4M2V_BZ1_A_302


 26 27  0  0  0  0  0  0  0  0999 V2000
   -0.5213    3.8608   85.2131 C   0  0  0  0  0  0  0  0  0  0  0  0
   -1.5488    4.6709   85.5246 C   0  0  0  0  0  0  0  0  0  0  0  0
    0.6407    3.9537   84.2703 C   0  0  0  0  0  0  0  0  0  0  0  0
    0.2861    5.1808   83.3913 C   0  0  0  0  0  0  0  0  0  0  0  0
   -2.6127    4.0216   86.6348 S   0  0  0  0  0  0  0  0  0  0  0  0
   -1.7797    2.5437   86.8438 C   0  0  0  0  0  0  0  0  0  0  0  0
   -0.5423    2.5056   85.9572 C   0  0  0  0  0  0  0  0  0  0  0  0
   -1.6949    6.2247   84.8100 S   0  0  0  0  0  0  0  0  0  0  0  0
   -1.8906    7.2428   85.8458 O   0  0  0  0  0  0  0  0  0  0  0  0
   -2.7378    6.2846   83.7835 O   0  0  0  0  0  0  0  0  0  0  0  0
   -0.2002    6.3278   84.1772 N   0  0  0  0  0  0  0  0  0  0  0  0
   -2.3713    1.3575   87.9563 S   0  0  0  0  0  0  0  0  0  0  0  0
   -1.4723    0.0366   87.7958 N   0  0  0  0  0  0  0  0  0  0  0  0
   -2.2145    1.9295   89.2830 O   0  0  0  0  0  0  0  0  0  0  0  0
   -3.7814    1.2171   87.5944 O   0  0  0  0  0  0  0  0  0  0  0  0
   -1.8019   -0.6798   88.4428 H   0  0  0  0  0  0  0  0  0  0  0  0
   -0.4990    0.2604   88.0034 H   0  0  0  0  0  0  0  0  0  0  0  0
    0.6366    2.7672   83.4323 N   0  0  0  0  0  0  0  0  0  0  0  0
    0.3217    1.9750   83.9924 H   0  0  0  0  0  0  0  0  0  0  0  0
   -1.0117    1.6778   81.9059 C   0  0  0  0  0  0  0  0  0  0  0  0
   -0.2224    2.8894   82.2904 C   0  0  0  0  0  0  0  0  0  0  0  0
    1.0179    6.8945   84.6737 C   0  0  0  0  0  0  0  0  0  0  0  0
    1.0349    8.3467   85.0124 C   0  0  0  0  0  0  0  0  0  0  0  0
    0.6459    9.2985   83.9320 C   0  0  0  0  0  0  0  0  0  0  0  0
   -0.6066    9.8660   83.9681 O   0  0  0  0  0  0  0  0  0  0  0  0
   -1.5061    9.6123   82.9530 C   0  0  0  0  0  0  0  0  0  0  0  0
 23 24  1  0  0  0
 23 22  1  0  0  0
  1  2  2  0  0  0
  1  3  1  0  0  0
  1  7  1  0  0  0
  2  5  1  0  0  0
  2  8  1  0  0  0
  3  4  1  0  0  0
  3 18  1  0  0  0
  4 11  1  0  0  0
 12 13  1  0  0  0
 12 14  2  0  0  0
 12 15  2  0  0  0
 12  6  1  0  0  0
 24 25  1  0  0  0
 20 21  1  0  0  0
 21 18  1  0  0  0
  5  6  1  0  0  0
  6  7  2  0  0  0
  8  9  2  0  0  0
  8 10  2  0  0  0
  8 11  1  0  0  0
 11 22  1  0  0  0
 25 26  1  0  0  0
 13 16  1  0  0  0
 13 17  1  0  0  0
 18 19  1  0  0  0
M  END
> <minimizedAffinity>
-6.34262

$$$$
4M2V_BZ1_A_302


 26 27  0  0  0  0  0  0  0  0999 V2000
   -0.4574    3.2497   84.1187 C   0  0  0  0  0  0  0  0  0  0  0  0
   -0.1996    4.0366   83.0587 C   0  0  0  0  0  0  0  0  0  0  0  0
   -0.6606    3.4948   85.5836 C   0  0  0  0  0  0  0  0  0  0  0  0
   -0.2028    4.9653   85.7634 C   0  0  0  0  0  0  0  0  0  0  0  0
   -0.0080    3.2033   81.6252 S   0  0  0  0  0  0  0  0  0  0  0  0
   -0.2763    1.6475   82.2807 C   0  0  0  0  0  0  0  0  0  0  0  0
   -0.5293    1.7429   83.7792 C   0  0  0  0  0  0  0  0  0  0  0  0
   -0.0918    5.7410   83.2312 S   0  0  0  0  0  0  0  0  0  0  0  0
   -0.9473    6.4056   82.2440 O   0  0  0  0  0  0  0  0  0  0  0  0
    1.2863    6.2337   83.1770 O   0  0  0  0  0  0  0  0  0  0  0  0
   -0.7318    5.8620   84.7213 N   0  0  0  0  0  0  0  0  0  0  0  0
   -0.2501    0.2523   81.2574 S   0  0  0  0  0  0  0  0  0  0  0  0
    1.1327    0.2632   80.4410 N   0  0  0  0  0  0  0  0  0  0  0  0
   -0.3188   -0.9008   82.1393 O   0  0  0  0  0  0  0  0  0  0  0  0
   -1.4655    0.3890   80.4553 O   0  0  0  0  0  0  0  0  0  0  0  0
    1.1725   -0.5517   79.8287 H   0  0  0  0  0  0  0  0  0  0  0  0
    1.9143    0.2350   81.0957 H   0  0  0  0  0  0  0  0  0  0  0  0
    0.2519    2.6331   86.3151 N   0  0  0  0  0  0  0  0  0  0  0  0
    0.9067    3.2188   86.8334 H   0  0  0  0  0  0  0  0  0  0  0  0
   -1.8676    2.0310   87.4893 C   0  0  0  0  0  0  0  0  0  0  0  0
   -0.4162    1.7652   87.2411 C   0  0  0  0  0  0  0  0  0  0  0  0
   -2.0675    6.1042   85.1781 C   0  0  0  0  0  0  0  0  0  0  0  0
   -2.4906    7.5157   85.4072 C   0  0  0  0  0  0  0  0  0  0  0  0
   -1.4101    8.5394   85.5028 C   0  0  0  0  0  0  0  0  0  0  0  0
   -1.0753    9.2564   84.3777 O   0  0  0  0  0  0  0  0  0  0  0  0
    0.2494    9.5310   84.1061 C   0  0  0  0  0  0  0  0  0  0  0  0
 23 24  1  0  0  0
 23 22  1  0  0  0
  1  2  2  0  0  0
  1  3  1  0  0  0
  1  7  1  0  0  0
  2  5  1  0  0  0
  2  8  1  0  0  0
  3  4  1  0  0  0
  3 18  1  0  0  0
  4 11  1  0  0  0
 12 13  1  0  0  0
 12 14  2  0  0  0
 12 15  2  0  0  0
 12  6  1  0  0  0
 24 25  1  0  0  0
 20 21  1  0  0  0
 21 18  1  0  0  0
  5  6  1  0  0  0
  6  7  2  0  0  0
  8  9  2  0  0  0
  8 10  2  0  0  0
  8 11  1  0  0  0
 11 22  1  0  0  0
 25 26  1  0  0  0
 13 16  1  0  0  0
 13 17  1  0  0  0
 18 19  1  0  0  0
M  END
> <minimizedAffinity>
-6.21926

$$$$
4M2V_BZ1_A_302


 26 27  0  0  0  0  0  0  0  0999 V2000
   -0.1348    4.3823   85.5230 C   0  0  0  0  0  0  0  0  0  0  0  0
   -1.4017    4.8335   85.5448 C   0  0  0  0  0  0  0  0  0  0  0  0
    1.1576    4.9072   84.9736 C   0  0  0  0  0  0  0  0  0  0  0  0
    0.7067    6.0886   84.0761 C   0  0  0  0  0  0  0  0  0  0  0  0
   -2.4837    3.7843   86.2621 S   0  0  0  0  0  0  0  0  0  0  0  0
   -1.3372    2.5784   86.6535 C   0  0  0  0  0  0  0  0  0  0  0  0
    0.0479    2.9922   86.1750 C   0  0  0  0  0  0  0  0  0  0  0  0
   -1.8046    6.3633   84.8787 S   0  0  0  0  0  0  0  0  0  0  0  0
   -2.5716    7.1518   85.8471 O   0  0  0  0  0  0  0  0  0  0  0  0
   -2.4950    6.2608   83.5912 O   0  0  0  0  0  0  0  0  0  0  0  0
   -0.2960    6.9511   84.7244 N   0  0  0  0  0  0  0  0  0  0  0  0
   -1.8274    1.1469   87.4932 S   0  0  0  0  0  0  0  0  0  0  0  0
   -1.0799   -0.1036   86.8178 N   0  0  0  0  0  0  0  0  0  0  0  0
   -1.4022    1.3180   88.8722 O   0  0  0  0  0  0  0  0  0  0  0  0
   -3.2852    1.1586   87.3745 O   0  0  0  0  0  0  0  0  0  0  0  0
   -1.3530   -0.9620   87.2963 H   0  0  0  0  0  0  0  0  0  0  0  0
   -0.0705    0.0219   86.8942 H   0  0  0  0  0  0  0  0  0  0  0  0
    1.7382    3.8786   84.1279 N   0  0  0  0  0  0  0  0  0  0  0  0
    1.5421    2.9678   84.5432 H   0  0  0  0  0  0  0  0  0  0  0  0
    0.6178    2.6185   82.2867 C   0  0  0  0  0  0  0  0  0  0  0  0
    1.2194    3.8923   82.7909 C   0  0  0  0  0  0  0  0  0  0  0  0
    0.5120    7.7648   85.5825 C   0  0  0  0  0  0  0  0  0  0  0  0
    1.5355    8.6511   84.9573 C   0  0  0  0  0  0  0  0  0  0  0  0
    2.7276    8.9970   85.7842 C   0  0  0  0  0  0  0  0  0  0  0  0
    3.1274   10.3113   85.8532 O   0  0  0  0  0  0  0  0  0  0  0  0
    4.3571   10.6288   86.3925 C   0  0  0  0  0  0  0  0  0  0  0  0
 23 24  1  0  0  0
 23 22  1  0  0  0
  1  2  2  0  0  0
  1  3  1  0  0  0
  1  7  1  0  0  0
  2  5  1  0  0  0
  2  8  1  0  0  0
  3  4  1  0  0  0
  3 18  1  0  0  0
  4 11  1  0  0  0
 12 13  1  0  0  0
 12 14  2  0  0  0
 12 15  2  0  0  0
 12  6  1  0  0  0
 24 25  1  0  0  0
 20 21  1  0  0  0
 21 18  1  0  0  0
  5  6  1  0  0  0
  6  7  2  0  0  0
  8  9  2  0  0  0
  8 10  2  0  0  0
  8 11  1  0  0  0
 11 22  1  0  0  0
 25 26  1  0  0  0
 13 16  1  0  0  0
 13 17  1  0  0  0
 18 19  1  0  0  0
M  END
> <minimizedAffinity>
-6.20654

$$$$
4M2V_BZ1_A_302


 26 27  0  0  0  0  0  0  0  0999 V2000
   -1.3407    4.3254   84.8973 C   0  0  0  0  0  0  0  0  0  0  0  0
   -0.1151    3.7879   85.0320 C   0  0  0  0  0  0  0  0  0  0  0  0
   -1.9150    5.4364   84.0705 C   0  0  0  0  0  0  0  0  0  0  0  0
   -0.6563    6.1482   83.5108 C   0  0  0  0  0  0  0  0  0  0  0  0
   -0.0290    2.5712   86.1714 S   0  0  0  0  0  0  0  0  0  0  0  0
   -1.6799    2.6162   86.6123 C   0  0  0  0  0  0  0  0  0  0  0  0
   -2.4080    3.6944   85.8212 C   0  0  0  0  0  0  0  0  0  0  0  0
    1.2022    4.3473   84.0843 S   0  0  0  0  0  0  0  0  0  0  0  0
    1.8783    3.2182   83.4394 O   0  0  0  0  0  0  0  0  0  0  0  0
    2.1374    5.1807   84.8431 O   0  0  0  0  0  0  0  0  0  0  0  0
    0.3532    5.2072   82.9959 N   0  0  0  0  0  0  0  0  0  0  0  0
   -2.2978    1.5162   87.7967 S   0  0  0  0  0  0  0  0  0  0  0  0
   -1.4222    0.1718   87.7280 N   0  0  0  0  0  0  0  0  0  0  0  0
   -2.1364    2.1710   89.0840 O   0  0  0  0  0  0  0  0  0  0  0  0
   -3.7086    1.3776   87.4370 O   0  0  0  0  0  0  0  0  0  0  0  0
   -1.7677   -0.4946   88.4186 H   0  0  0  0  0  0  0  0  0  0  0  0
   -0.4460    0.3913   87.9260 H   0  0  0  0  0  0  0  0  0  0  0  0
   -2.6058    6.3510   84.9629 N   0  0  0  0  0  0  0  0  0  0  0  0
   -2.4351    6.0575   85.9247 H   0  0  0  0  0  0  0  0  0  0  0  0
   -1.6387    8.3848   86.0408 C   0  0  0  0  0  0  0  0  0  0  0  0
   -2.1743    7.7109   84.8170 C   0  0  0  0  0  0  0  0  0  0  0  0
   -0.1709    4.8756   81.7048 C   0  0  0  0  0  0  0  0  0  0  0  0
    0.1368    3.5292   81.1422 C   0  0  0  0  0  0  0  0  0  0  0  0
   -0.8559    2.4457   81.3975 C   0  0  0  0  0  0  0  0  0  0  0  0
   -0.4021    1.1592   81.5730 O   0  0  0  0  0  0  0  0  0  0  0  0
   -0.3700    0.6076   82.8374 C   0  0  0  0  0  0  0  0  0  0  0  0
 23 24  1  0  0  0
 23 22  1  0  0  0
  1  2  2  0  0  0
  1  3  1  0  0  0
  1  7  1  0  0  0
  2  5  1  0  0  0
  2  8  1  0  0  0
  3  4  1  0  0  0
  3 18  1  0  0  0
  4 11  1  0  0  0
 12 13  1  0  0  0
 12 14  2  0  0  0
 12 15  2  0  0  0
 12  6  1  0  0  0
 24 25  1  0  0  0
 20 21  1  0  0  0
 21 18  1  0  0  0
  5  6  1  0  0  0
  6  7  2  0  0  0
  8  9  2  0  0  0
  8 10  2  0  0  0
  8 11  1  0  0  0
 11 22  1  0  0  0
 25 26  1  0  0  0
 13 16  1  0  0  0
 13 17  1  0  0  0
 18 19  1  0  0  0
M  END
> <minimizedAffinity>
-5.98766

$$$$
4M2V_BZ1_A_302


 26 27  0  0  0  0  0  0  0  0999 V2000
   -0.2331    3.4571   84.4773 C   0  0  0  0  0  0  0  0  0  0  0  0
    0.0346    2.2553   83.9358 C   0  0  0  0  0  0  0  0  0  0  0  0
    0.0384    4.8749   84.0729 C   0  0  0  0  0  0  0  0  0  0  0  0
    1.0481    4.7230   82.9059 C   0  0  0  0  0  0  0  0  0  0  0  0
   -0.4623    0.9641   84.8697 S   0  0  0  0  0  0  0  0  0  0  0  0
   -1.1300    1.8996   86.1349 C   0  0  0  0  0  0  0  0  0  0  0  0
   -0.9513    3.3837   85.8446 C   0  0  0  0  0  0  0  0  0  0  0  0
    0.8187    2.1285   82.4142 S   0  0  0  0  0  0  0  0  0  0  0  0
    0.0646    1.2376   81.5279 O   0  0  0  0  0  0  0  0  0  0  0  0
    2.2217    1.7238   82.5275 O   0  0  0  0  0  0  0  0  0  0  0  0
    0.6596    3.6772   81.9441 N   0  0  0  0  0  0  0  0  0  0  0  0
   -1.8865    1.1277   87.4863 S   0  0  0  0  0  0  0  0  0  0  0  0
   -3.4706    1.3639   87.3682 N   0  0  0  0  0  0  0  0  0  0  0  0
   -1.5669   -0.2859   87.3792 O   0  0  0  0  0  0  0  0  0  0  0  0
   -1.2349    1.7402   88.6437 O   0  0  0  0  0  0  0  0  0  0  0  0
   -3.9406    0.9171   88.1556 H   0  0  0  0  0  0  0  0  0  0  0  0
   -3.8104    0.9597   86.4955 H   0  0  0  0  0  0  0  0  0  0  0  0
    0.7060    5.5387   85.1793 N   0  0  0  0  0  0  0  0  0  0  0  0
    1.7137    5.4365   85.0590 H   0  0  0  0  0  0  0  0  0  0  0  0
   -0.4995    7.3619   86.3860 C   0  0  0  0  0  0  0  0  0  0  0  0
    0.3956    6.9363   85.2651 C   0  0  0  0  0  0  0  0  0  0  0  0
   -0.3282    4.3454   81.1509 C   0  0  0  0  0  0  0  0  0  0  0  0
    0.0711    5.5828   80.4206 C   0  0  0  0  0  0  0  0  0  0  0  0
    0.7624    5.4030   79.1113 C   0  0  0  0  0  0  0  0  0  0  0  0
    1.2343    4.1549   78.7770 O   0  0  0  0  0  0  0  0  0  0  0  0
    2.5849    3.8852   78.8605 C   0  0  0  0  0  0  0  0  0  0  0  0
 23 24  1  0  0  0
 23 22  1  0  0  0
  1  2  2  0  0  0
  1  3  1  0  0  0
  1  7  1  0  0  0
  2  5  1  0  0  0
  2  8  1  0  0  0
  3  4  1  0  0  0
  3 18  1  0  0  0
  4 11  1  0  0  0
 12 13  1  0  0  0
 12 14  2  0  0  0
 12 15  2  0  0  0
 12  6  1  0  0  0
 24 25  1  0  0  0
 20 21  1  0  0  0
 21 18  1  0  0  0
  5  6  1  0  0  0
  6  7  2  0  0  0
  8  9  2  0  0  0
  8 10  2  0  0  0
  8 11  1  0  0  0
 11 22  1  0  0  0
 25 26  1  0  0  0
 13 16  1  0  0  0
 13 17  1  0  0  0
 18 19  1  0  0  0
M  END
> <minimizedAffinity>
-5.98211

$$$$
4M2V_BZ1_A_302


 26 27  0  0  0  0  0  0  0  0999 V2000
   -0.1829    3.4733   82.6027 C   0  0  0  0  0  0  0  0  0  0  0  0
    0.3906    4.4909   83.2697 C   0  0  0  0  0  0  0  0  0  0  0  0
   -0.8269    2.1819   83.0089 C   0  0  0  0  0  0  0  0  0  0  0  0
   -0.4436    2.0507   84.5056 C   0  0  0  0  0  0  0  0  0  0  0  0
    1.0126    5.6846   82.2827 S   0  0  0  0  0  0  0  0  0  0  0  0
    0.5521    4.9589   80.8052 C   0  0  0  0  0  0  0  0  0  0  0  0
   -0.1499    3.6329   81.0650 C   0  0  0  0  0  0  0  0  0  0  0  0
    0.4437    4.5020   84.9853 S   0  0  0  0  0  0  0  0  0  0  0  0
   -0.0648    5.7766   85.5000 O   0  0  0  0  0  0  0  0  0  0  0  0
    1.7725    4.1913   85.5169 O   0  0  0  0  0  0  0  0  0  0  0  0
   -0.6240    3.3054   85.2559 N   0  0  0  0  0  0  0  0  0  0  0  0
    0.8892    5.7477   79.3023 S   0  0  0  0  0  0  0  0  0  0  0  0
    0.5421    4.7222   78.1163 N   0  0  0  0  0  0  0  0  0  0  0  0
    0.0195    6.9108   79.2488 O   0  0  0  0  0  0  0  0  0  0  0  0
    2.2952    6.1325   79.4217 O   0  0  0  0  0  0  0  0  0  0  0  0
    0.7329    5.1648   77.2174 H   0  0  0  0  0  0  0  0  0  0  0  0
   -0.4438    4.4655   78.1664 H   0  0  0  0  0  0  0  0  0  0  0  0
   -0.1859    1.1074   82.2709 N   0  0  0  0  0  0  0  0  0  0  0  0
    0.7813    1.3728   82.0850 H   0  0  0  0  0  0  0  0  0  0  0  0
    0.4036   -1.3187   82.2735 C   0  0  0  0  0  0  0  0  0  0  0  0
   -0.1892   -0.1398   82.9789 C   0  0  0  0  0  0  0  0  0  0  0  0
   -2.0349    3.3122   85.5021 C   0  0  0  0  0  0  0  0  0  0  0  0
   -2.5050    3.3981   86.9148 C   0  0  0  0  0  0  0  0  0  0  0  0
   -3.1639    2.1870   87.4839 C   0  0  0  0  0  0  0  0  0  0  0  0
   -2.6154    0.9520   87.2273 O   0  0  0  0  0  0  0  0  0  0  0  0
   -1.8780    0.3110   88.2016 C   0  0  0  0  0  0  0  0  0  0  0  0
 23 24  1  0  0  0
 23 22  1  0  0  0
  1  2  2  0  0  0
  1  3  1  0  0  0
  1  7  1  0  0  0
  2  5  1  0  0  0
  2  8  1  0  0  0
  3  4  1  0  0  0
  3 18  1  0  0  0
  4 11  1  0  0  0
 12 13  1  0  0  0
 12 14  2  0  0  0
 12 15  2  0  0  0
 12  6  1  0  0  0
 24 25  1  0  0  0
 20 21  1  0  0  0
 21 18  1  0  0  0
  5  6  1  0  0  0
  6  7  2  0  0  0
  8  9  2  0  0  0
  8 10  2  0  0  0
  8 11  1  0  0  0
 11 22  1  0  0  0
 25 26  1  0  0  0
 13 16  1  0  0  0
 13 17  1  0  0  0
 18 19  1  0  0  0
M  END
> <minimizedAffinity>
-5.96714

$$$$
4M2V_BZ1_A_302


 26 27  0  0  0  0  0  0  0  0999 V2000
   -0.6014    3.3733   84.6085 C   0  0  0  0  0  0  0  0  0  0  0  0
   -1.3943    4.3138   85.1525 C   0  0  0  0  0  0  0  0  0  0  0  0
    0.3032    3.3252   83.4140 C   0  0  0  0  0  0  0  0  0  0  0  0
   -0.0658    4.6161   82.6383 C   0  0  0  0  0  0  0  0  0  0  0  0
   -2.2468    3.7926   86.4896 S   0  0  0  0  0  0  0  0  0  0  0  0
   -1.6151    2.2043   86.5015 C   0  0  0  0  0  0  0  0  0  0  0  0
   -0.6441    2.0140   85.3442 C   0  0  0  0  0  0  0  0  0  0  0  0
   -1.4757    5.8928   84.4844 S   0  0  0  0  0  0  0  0  0  0  0  0
   -1.2669    6.8975   85.5308 O   0  0  0  0  0  0  0  0  0  0  0  0
   -2.7126    6.1331   83.7378 O   0  0  0  0  0  0  0  0  0  0  0  0
   -0.1764    5.7976   83.5109 N   0  0  0  0  0  0  0  0  0  0  0  0
   -2.0929    1.0837   87.7306 S   0  0  0  0  0  0  0  0  0  0  0  0
   -3.6977    1.0306   87.7553 N   0  0  0  0  0  0  0  0  0  0  0  0
   -1.5406   -0.2039   87.3446 O   0  0  0  0  0  0  0  0  0  0  0  0
   -1.4532    1.6027   88.9391 O   0  0  0  0  0  0  0  0  0  0  0  0
   -4.0052    0.3751   88.4737 H   0  0  0  0  0  0  0  0  0  0  0  0
   -4.0418    0.7239   86.8454 H   0  0  0  0  0  0  0  0  0  0  0  0
   -0.0752    2.1769   82.6086 N   0  0  0  0  0  0  0  0  0  0  0  0
   -0.4380    2.5116   81.7160 H   0  0  0  0  0  0  0  0  0  0  0  0
    2.2949    1.9040   81.8726 C   0  0  0  0  0  0  0  0  0  0  0  0
    1.0191    1.2862   82.3518 C   0  0  0  0  0  0  0  0  0  0  0  0
    1.1947    6.1674   83.6972 C   0  0  0  0  0  0  0  0  0  0  0  0
    1.9928    6.5489   82.4967 C   0  0  0  0  0  0  0  0  0  0  0  0
    3.4411    6.1928   82.5053 C   0  0  0  0  0  0  0  0  0  0  0  0
    4.0228    5.7550   81.3382 O   0  0  0  0  0  0  0  0  0  0  0  0
    3.2395    5.2091   80.3420 C   0  0  0  0  0  0  0  0  0  0  0  0
 23 24  1  0  0  0
 23 22  1  0  0  0
  1  2  2  0  0  0
  1  3  1  0  0  0
  1  7  1  0  0  0
  2  5  1  0  0  0
  2  8  1  0  0  0
  3  4  1  0  0  0
  3 18  1  0  0  0
  4 11  1  0  0  0
 12 13  1  0  0  0
 12 14  2  0  0  0
 12 15  2  0  0  0
 12  6  1  0  0  0
 24 25  1  0  0  0
 20 21  1  0  0  0
 21 18  1  0  0  0
  5  6  1  0  0  0
  6  7  2  0  0  0
  8  9  2  0  0  0
  8 10  2  0  0  0
  8 11  1  0  0  0
 11 22  1  0  0  0
 25 26  1  0  0  0
 13 16  1  0  0  0
 13 17  1  0  0  0
 18 19  1  0  0  0
M  END
> <minimizedAffinity>
-5.88017

$$$$
4M2V_BZ1_A_302


 26 27  0  0  0  0  0  0  0  0999 V2000
   -0.8025    4.1121   84.9179 C   0  0  0  0  0  0  0  0  0  0  0  0
   -0.2030    3.0638   84.3258 C   0  0  0  0  0  0  0  0  0  0  0  0
   -0.8622    5.5836   84.6375 C   0  0  0  0  0  0  0  0  0  0  0  0
    0.2406    5.7848   83.5663 C   0  0  0  0  0  0  0  0  0  0  0  0
   -0.4335    1.6131   85.1186 S   0  0  0  0  0  0  0  0  0  0  0  0
   -1.4089    2.2432   86.3731 C   0  0  0  0  0  0  0  0  0  0  0  0
   -1.5834    3.7461   86.2013 C   0  0  0  0  0  0  0  0  0  0  0  0
    0.7032    3.2660   82.8822 S   0  0  0  0  0  0  0  0  0  0  0  0
    0.2655    2.3014   81.8694 O   0  0  0  0  0  0  0  0  0  0  0  0
    2.1497    3.2046   83.1034 O   0  0  0  0  0  0  0  0  0  0  0  0
    0.2004    4.7656   82.5035 N   0  0  0  0  0  0  0  0  0  0  0  0
   -2.0516    1.1944   87.5902 S   0  0  0  0  0  0  0  0  0  0  0  0
   -3.6537    1.2795   87.5213 N   0  0  0  0  0  0  0  0  0  0  0  0
   -1.5920   -0.1438   87.2586 O   0  0  0  0  0  0  0  0  0  0  0  0
   -1.4395    1.6825   88.8256 O   0  0  0  0  0  0  0  0  0  0  0  0
   -4.0575    0.6684   88.2311 H   0  0  0  0  0  0  0  0  0  0  0  0
   -3.9705    0.9839   86.5979 H   0  0  0  0  0  0  0  0  0  0  0  0
   -0.4686    6.2885   85.8452 N   0  0  0  0  0  0  0  0  0  0  0  0
    0.5446    6.4058   85.8373 H   0  0  0  0  0  0  0  0  0  0  0  0
   -2.5010    7.7016   85.5201 C   0  0  0  0  0  0  0  0  0  0  0  0
   -1.0772    7.5816   85.9641 C   0  0  0  0  0  0  0  0  0  0  0  0
   -0.8583    5.2424   81.6649 C   0  0  0  0  0  0  0  0  0  0  0  0
   -0.4964    6.0005   80.4327 C   0  0  0  0  0  0  0  0  0  0  0  0
   -0.9956    7.4021   80.3289 C   0  0  0  0  0  0  0  0  0  0  0  0
   -0.5572    8.3311   81.2437 O   0  0  0  0  0  0  0  0  0  0  0  0
   -1.4601    8.9444   82.0878 C   0  0  0  0  0  0  0  0  0  0  0  0
 23 24  1  0  0  0
 23 22  1  0  0  0
  1  2  2  0  0  0
  1  3  1  0  0  0
  1  7  1  0  0  0
  2  5  1  0  0  0
  2  8  1  0  0  0
  3  4  1  0  0  0
  3 18  1  0  0  0
  4 11  1  0  0  0
 12 13  1  0  0  0
 12 14  2  0  0  0
 12 15  2  0  0  0
 12  6  1  0  0  0
 24 25  1  0  0  0
 20 21  1  0  0  0
 21 18  1  0  0  0
  5  6  1  0  0  0
  6  7  2  0  0  0
  8  9  2  0  0  0
  8 10  2  0  0  0
  8 11  1  0  0  0
 11 22  1  0  0  0
 25 26  1  0  0  0
 13 16  1  0  0  0
 13 17  1  0  0  0
 18 19  1  0  0  0
M  END
> <minimizedAffinity>
-5.78262

$$$$
4M2V_BZ1_A_302


 26 27  0  0  0  0  0  0  0  0999 V2000
   -0.5535    4.1900   84.6988 C   0  0  0  0  0  0  0  0  0  0  0  0
   -1.6214    4.7806   85.2645 C   0  0  0  0  0  0  0  0  0  0  0  0
    0.3567    4.5361   83.5590 C   0  0  0  0  0  0  0  0  0  0  0  0
   -0.3793    5.7095   82.8620 C   0  0  0  0  0  0  0  0  0  0  0  0
   -2.3055    3.9000   86.5066 S   0  0  0  0  0  0  0  0  0  0  0  0
   -1.2017    2.5967   86.4364 C   0  0  0  0  0  0  0  0  0  0  0  0
   -0.1844    2.8261   85.3268 C   0  0  0  0  0  0  0  0  0  0  0  0
   -2.1802    6.3069   84.7130 S   0  0  0  0  0  0  0  0  0  0  0  0
   -2.3354    7.2283   85.8421 O   0  0  0  0  0  0  0  0  0  0  0  0
   -3.4048    6.2119   83.9155 O   0  0  0  0  0  0  0  0  0  0  0  0
   -0.8880    6.7130   83.8128 N   0  0  0  0  0  0  0  0  0  0  0  0
   -1.3364    1.2773   87.5479 S   0  0  0  0  0  0  0  0  0  0  0  0
   -1.6568    1.8840   88.9998 N   0  0  0  0  0  0  0  0  0  0  0  0
   -2.4408    0.4588   87.0764 O   0  0  0  0  0  0  0  0  0  0  0  0
   -0.0567    0.5817   87.4156 O   0  0  0  0  0  0  0  0  0  0  0  0
   -1.7412    1.1240   89.6749 H   0  0  0  0  0  0  0  0  0  0  0  0
   -2.5324    2.4062   88.9645 H   0  0  0  0  0  0  0  0  0  0  0  0
    0.3894    3.4042   82.6491 N   0  0  0  0  0  0  0  0  0  0  0  0
   -0.2517    3.5890   81.8776 H   0  0  0  0  0  0  0  0  0  0  0  0
    2.0991    1.7237   81.9521 C   0  0  0  0  0  0  0  0  0  0  0  0
    1.6945    3.1556   82.1090 C   0  0  0  0  0  0  0  0  0  0  0  0
    0.2874    7.4770   84.1061 C   0  0  0  0  0  0  0  0  0  0  0  0
    0.6996    8.5373   83.1418 C   0  0  0  0  0  0  0  0  0  0  0  0
   -0.1730    9.7431   83.0475 C   0  0  0  0  0  0  0  0  0  0  0  0
    0.0925   10.6787   82.0747 O   0  0  0  0  0  0  0  0  0  0  0  0
   -0.9096   11.0812   81.2158 C   0  0  0  0  0  0  0  0  0  0  0  0
 23 24  1  0  0  0
 23 22  1  0  0  0
  1  2  2  0  0  0
  1  3  1  0  0  0
  1  7  1  0  0  0
  2  5  1  0  0  0
  2  8  1  0  0  0
  3  4  1  0  0  0
  3 18  1  0  0  0
  4 11  1  0  0  0
 12 13  1  0  0  0
 12 14  2  0  0  0
 12 15  2  0  0  0
 12  6  1  0  0  0
 24 25  1  0  0  0
 20 21  1  0  0  0
 21 18  1  0  0  0
  5  6  1  0  0  0
  6  7  2  0  0  0
  8  9  2  0  0  0
  8 10  2  0  0  0
  8 11  1  0  0  0
 11 22  1  0  0  0
 25 26  1  0  0  0
 13 16  1  0  0  0
 13 17  1  0  0  0
 18 19  1  0  0  0
M  END
> <minimizedAffinity>
-5.38473

$$$$
