4ZYF_4T4_A_201


 47 52  0  0  0  0  0  0  0  0999 V2000
   -6.6363  -10.6782   -1.7850 C   0  0  0  0  0  0  0  0  0  0  0  0
   -7.2234   -9.9491   -4.1117 C   0  0  0  0  0  0  0  0  0  0  0  0
   -5.8535   -9.3694   -4.3505 C   0  0  0  0  0  0  0  0  0  0  0  0
   -5.0934   -9.0759   -3.0388 C   0  0  0  0  0  0  0  0  0  0  0  0
   -5.4605   -9.7064   -1.8350 C   0  0  0  0  0  0  0  0  0  0  0  0
   -4.7802   -9.4586   -0.6350 C   0  0  0  0  0  0  0  0  0  0  0  0
   -3.6847   -8.5651   -0.6146 C   0  0  0  0  0  0  0  0  0  0  0  0
   -3.2984   -7.9301   -1.8014 C   0  0  0  0  0  0  0  0  0  0  0  0
   -3.9929   -8.1780   -3.0293 C   0  0  0  0  0  0  0  0  0  0  0  0
   -7.5658  -10.5358   -2.9339 N   0  0  0  0  0  0  0  0  0  0  0  0
   -8.0316   -9.8718   -5.0196 O   0  0  0  0  0  0  0  0  0  0  0  0
   -5.0243  -14.7418   -1.5810 C   0  0  0  0  0  0  0  0  0  0  0  0
   -5.9806  -14.3521   -0.6215 C   0  0  0  0  0  0  0  0  0  0  0  0
   -4.3017  -16.3514   -1.6113 Cl  0  0  0  0  0  0  0  0  0  0  0  0
   -6.5141  -13.0313   -0.6699 C   0  0  0  0  0  0  0  0  0  0  0  0
   -6.0776  -12.1242   -1.6798 C   0  0  0  0  0  0  0  0  0  0  0  0
   -5.1241  -12.5531   -2.6330 C   0  0  0  0  0  0  0  0  0  0  0  0
   -4.5926  -13.8549   -2.5861 C   0  0  0  0  0  0  0  0  0  0  0  0
   -8.8292  -11.0909   -2.6423 C   0  0  0  0  0  0  0  0  0  0  0  0
   -9.2323  -12.3023   -3.2374 C   0  0  0  0  0  0  0  0  0  0  0  0
  -10.4798  -12.8120   -2.8805 C   0  0  0  0  0  0  0  0  0  0  0  0
  -11.3376  -12.1466   -1.9789 C   0  0  0  0  0  0  0  0  0  0  0  0
  -10.9119  -10.9362   -1.3889 C   0  0  0  0  0  0  0  0  0  0  0  0
   -9.6652  -10.4185   -1.7348 C   0  0  0  0  0  0  0  0  0  0  0  0
  -12.5155  -12.7336   -1.6750 N   0  0  0  0  0  0  0  0  0  0  0  0
  -12.6900  -14.1864   -1.9141 C   0  0  0  0  0  0  0  0  0  0  0  0
  -13.6357  -12.0096   -1.0609 C   0  0  0  0  0  0  0  0  0  0  0  0
  -14.5727  -11.2795   -2.0375 C   0  0  0  0  0  0  0  0  0  0  0  0
  -15.3753  -10.2051   -1.2256 C   0  0  0  0  0  0  0  0  0  0  0  0
  -16.4075   -9.4740   -2.1535 C   0  0  0  0  0  0  0  0  0  0  0  0
  -17.3632  -10.4620   -2.9318 C   0  0  0  0  0  0  0  0  0  0  0  0
  -16.4840  -11.4556   -3.7573 C   0  0  0  0  0  0  0  0  0  0  0  0
  -15.5491  -12.2423   -2.7839 C   0  0  0  0  0  0  0  0  0  0  0  0
  -21.6256   -7.9114   -5.8664 C   0  0  0  0  0  0  0  0  0  0  0  0
  -18.4389   -9.7783   -3.7482 N   0  0  0  0  0  0  0  0  0  0  0  0
  -18.2378   -8.3677   -4.2278 C   0  0  0  0  0  0  0  0  0  0  0  0
  -19.6293   -7.7008   -4.4280 C   0  0  0  0  0  0  0  0  0  0  0  0
  -20.5059   -8.5540   -5.2424 N   0  0  0  0  0  0  0  0  0  0  0  0
  -20.3016   -9.9018   -5.4346 C   0  0  0  0  0  0  0  0  0  0  0  0
  -19.1269  -10.6022   -4.7867 C   0  0  0  0  0  0  0  0  0  0  0  0
  -21.0266  -10.6226   -6.1214 O   0  0  0  0  0  0  0  0  0  0  0  0
   -1.5096   -6.5239   -2.7947 C   0  0  0  0  0  0  0  0  0  0  0  0
   -2.2097   -7.0693   -1.6559 O   0  0  0  0  0  0  0  0  0  0  0  0
   -2.9628   -8.2794    0.5592 O   0  0  0  0  0  0  0  0  0  0  0  0
   -3.4393   -8.6626    1.8727 C   0  0  0  0  0  0  0  0  0  0  0  0
   -2.8568   -7.6342    2.8771 C   0  0  0  0  0  0  0  0  0  0  0  0
   -2.9962  -10.0849    2.3065 C   0  0  0  0  0  0  0  0  0  0  0  0
 41 39  2  0  0  0
 34 38  1  0  0  0
 39 38  1  0  0  0
 39 40  1  0  0  0
 38 37  1  0  0  0
 11  2  2  0  0  0
 40 35  1  0  0  0
  3  2  1  0  0  0
  3  4  1  0  0  0
  2 10  1  0  0  0
 37 36  1  0  0  0
 32 33  1  0  0  0
 32 31  1  0  0  0
 35 36  1  0  0  0
 35 31  1  0  0  0
  9  4  2  0  0  0
  9  8  1  0  0  0
  4  5  1  0  0  0
 20 21  2  0  0  0
 20 19  1  0  0  0
 10 19  1  0  0  0
 10  1  1  0  0  0
 33 28  1  0  0  0
 31 30  1  0  0  0
 42 43  1  0  0  0
 21 22  1  0  0  0
 19 24  2  0  0  0
 17 18  2  0  0  0
 17 16  1  0  0  0
 18 12  1  0  0  0
 22 25  1  0  0  0
 22 23  2  0  0  0
 26 25  1  0  0  0
 24 23  1  0  0  0
  8 43  1  0  0  0
  8  7  2  0  0  0
 28 27  1  0  0  0
 28 29  1  0  0  0
  5  1  1  0  0  0
  5  6  2  0  0  0
  1 16  1  0  0  0
 30 29  1  0  0  0
 25 27  1  0  0  0
 16 15  2  0  0  0
 12 14  1  0  0  0
 12 13  2  0  0  0
  6  7  1  0  0  0
  7 44  1  0  0  0
 15 13  1  0  0  0
 44 45  1  0  0  0
 45 47  1  0  0  0
 45 46  1  0  0  0
M  END
> <minimizedAffinity>
-10.28109

$$$$
4ZYF_4T4_A_201


 47 52  0  0  0  0  0  0  0  0999 V2000
   -6.6850  -10.7849   -1.8182 C   0  0  0  0  0  0  0  0  0  0  0  0
   -7.2882  -10.0306   -4.1328 C   0  0  0  0  0  0  0  0  0  0  0  0
   -5.9264   -9.4307   -4.3674 C   0  0  0  0  0  0  0  0  0  0  0  0
   -5.1658   -9.1463   -3.0539 C   0  0  0  0  0  0  0  0  0  0  0  0
   -5.5214   -9.7980   -1.8580 C   0  0  0  0  0  0  0  0  0  0  0  0
   -4.8405   -9.5587   -0.6566 C   0  0  0  0  0  0  0  0  0  0  0  0
   -3.7560   -8.6521   -0.6270 C   0  0  0  0  0  0  0  0  0  0  0  0
   -3.3812   -7.9958   -1.8058 C   0  0  0  0  0  0  0  0  0  0  0  0
   -4.0764   -8.2351   -3.0351 C   0  0  0  0  0  0  0  0  0  0  0  0
   -7.6198  -10.6378   -2.9623 N   0  0  0  0  0  0  0  0  0  0  0  0
   -8.1002   -9.9505   -5.0371 O   0  0  0  0  0  0  0  0  0  0  0  0
   -5.1022  -14.8521   -1.4934 C   0  0  0  0  0  0  0  0  0  0  0  0
   -4.5884  -14.0124   -2.5023 C   0  0  0  0  0  0  0  0  0  0  0  0
   -4.5458  -16.5094   -1.2538 Cl  0  0  0  0  0  0  0  0  0  0  0  0
   -5.0944  -12.6856   -2.6257 C   0  0  0  0  0  0  0  0  0  0  0  0
   -6.1083  -12.2252   -1.7350 C   0  0  0  0  0  0  0  0  0  0  0  0
   -6.5931  -13.0920   -0.7275 C   0  0  0  0  0  0  0  0  0  0  0  0
   -6.0986  -14.4034   -0.6050 C   0  0  0  0  0  0  0  0  0  0  0  0
   -8.8754  -11.2125   -2.6748 C   0  0  0  0  0  0  0  0  0  0  0  0
   -9.7394  -10.6110   -1.7390 C   0  0  0  0  0  0  0  0  0  0  0  0
  -10.9786  -11.2129   -1.5262 C   0  0  0  0  0  0  0  0  0  0  0  0
  -11.3680  -12.3953   -2.1909 C   0  0  0  0  0  0  0  0  0  0  0  0
  -10.4893  -12.9791   -3.1297 C   0  0  0  0  0  0  0  0  0  0  0  0
   -9.2490  -12.3846   -3.3539 C   0  0  0  0  0  0  0  0  0  0  0  0
  -12.6000  -12.8879   -1.9378 N   0  0  0  0  0  0  0  0  0  0  0  0
  -12.7382  -14.1483   -1.1695 C   0  0  0  0  0  0  0  0  0  0  0  0
  -13.8344  -12.2042   -2.3440 C   0  0  0  0  0  0  0  0  0  0  0  0
  -14.4370  -11.2440   -1.3051 C   0  0  0  0  0  0  0  0  0  0  0  0
  -15.9985  -11.3358   -1.4102 C   0  0  0  0  0  0  0  0  0  0  0  0
  -16.6758  -10.3206   -0.4246 C   0  0  0  0  0  0  0  0  0  0  0  0
  -16.1582   -8.8379   -0.5955 C   0  0  0  0  0  0  0  0  0  0  0  0
  -14.6059   -8.8305   -0.4170 C   0  0  0  0  0  0  0  0  0  0  0  0
  -13.9628   -9.7678   -1.4886 C   0  0  0  0  0  0  0  0  0  0  0  0
  -18.7073   -4.9835    2.8586 C   0  0  0  0  0  0  0  0  0  0  0  0
  -16.8750   -7.8219    0.2676 N   0  0  0  0  0  0  0  0  0  0  0  0
  -17.2897   -6.4989   -0.3138 C   0  0  0  0  0  0  0  0  0  0  0  0
  -17.3751   -5.4499    0.8322 C   0  0  0  0  0  0  0  0  0  0  0  0
  -18.1826   -5.9599    1.9491 N   0  0  0  0  0  0  0  0  0  0  0  0
  -18.4573   -7.2938    2.1508 C   0  0  0  0  0  0  0  0  0  0  0  0
  -17.9150   -8.3428    1.2044 C   0  0  0  0  0  0  0  0  0  0  0  0
  -19.1391   -7.7292    3.0794 O   0  0  0  0  0  0  0  0  0  0  0  0
   -1.6095   -6.5582   -2.7846 C   0  0  0  0  0  0  0  0  0  0  0  0
   -2.3027   -7.1239   -1.6515 O   0  0  0  0  0  0  0  0  0  0  0  0
   -3.0340   -8.3741    0.5486 O   0  0  0  0  0  0  0  0  0  0  0  0
   -3.4654   -8.8423    1.8501 C   0  0  0  0  0  0  0  0  0  0  0  0
   -2.9339   -7.8224    2.8908 C   0  0  0  0  0  0  0  0  0  0  0  0
   -2.9267  -10.2505    2.2163 C   0  0  0  0  0  0  0  0  0  0  0  0
 41 39  2  0  0  0
 34 38  1  0  0  0
 39 38  1  0  0  0
 39 40  1  0  0  0
 38 37  1  0  0  0
 11  2  2  0  0  0
 40 35  1  0  0  0
  3  2  1  0  0  0
  3  4  1  0  0  0
  2 10  1  0  0  0
 37 36  1  0  0  0
 32 33  1  0  0  0
 32 31  1  0  0  0
 35 36  1  0  0  0
 35 31  1  0  0  0
  9  4  2  0  0  0
  9  8  1  0  0  0
  4  5  1  0  0  0
 20 21  2  0  0  0
 20 19  1  0  0  0
 10 19  1  0  0  0
 10  1  1  0  0  0
 33 28  1  0  0  0
 31 30  1  0  0  0
 42 43  1  0  0  0
 21 22  1  0  0  0
 19 24  2  0  0  0
 17 18  2  0  0  0
 17 16  1  0  0  0
 18 12  1  0  0  0
 22 25  1  0  0  0
 22 23  2  0  0  0
 26 25  1  0  0  0
 24 23  1  0  0  0
  8 43  1  0  0  0
  8  7  2  0  0  0
 28 27  1  0  0  0
 28 29  1  0  0  0
  5  1  1  0  0  0
  5  6  2  0  0  0
  1 16  1  0  0  0
 30 29  1  0  0  0
 25 27  1  0  0  0
 16 15  2  0  0  0
 12 14  1  0  0  0
 12 13  2  0  0  0
  6  7  1  0  0  0
  7 44  1  0  0  0
 15 13  1  0  0  0
 44 45  1  0  0  0
 45 47  1  0  0  0
 45 46  1  0  0  0
M  END
> <minimizedAffinity>
-9.48523

$$$$
4ZYF_4T4_A_201


 47 52  0  0  0  0  0  0  0  0999 V2000
   -4.6594   -7.5659    0.0840 C   0  0  0  0  0  0  0  0  0  0  0  0
   -3.2908   -8.7545    1.8173 C   0  0  0  0  0  0  0  0  0  0  0  0
   -2.8503   -7.4629    2.4555 C   0  0  0  0  0  0  0  0  0  0  0  0
   -3.0018   -6.2496    1.5123 C   0  0  0  0  0  0  0  0  0  0  0  0
   -3.8664   -6.3013    0.4027 C   0  0  0  0  0  0  0  0  0  0  0  0
   -4.0230   -5.2097   -0.4622 C   0  0  0  0  0  0  0  0  0  0  0  0
   -3.3126   -4.0108   -0.2234 C   0  0  0  0  0  0  0  0  0  0  0  0
   -2.4506   -3.9347    0.8775 C   0  0  0  0  0  0  0  0  0  0  0  0
   -2.2852   -5.0491    1.7620 C   0  0  0  0  0  0  0  0  0  0  0  0
   -4.1099   -8.7832    0.7324 N   0  0  0  0  0  0  0  0  0  0  0  0
   -2.8810   -9.7913    2.3077 O   0  0  0  0  0  0  0  0  0  0  0  0
   -8.8652   -6.9068    1.0987 C   0  0  0  0  0  0  0  0  0  0  0  0
   -7.8916   -6.6627    2.0884 C   0  0  0  0  0  0  0  0  0  0  0  0
  -10.5920   -6.6752    1.3788 Cl  0  0  0  0  0  0  0  0  0  0  0  0
   -6.5170   -6.8753    1.7774 C   0  0  0  0  0  0  0  0  0  0  0  0
   -6.1436   -7.3305    0.4786 C   0  0  0  0  0  0  0  0  0  0  0  0
   -7.1469   -7.5552   -0.4932 C   0  0  0  0  0  0  0  0  0  0  0  0
   -8.5050   -7.3499   -0.1887 C   0  0  0  0  0  0  0  0  0  0  0  0
   -4.5541   -9.9540    0.0833 C   0  0  0  0  0  0  0  0  0  0  0  0
   -5.1440  -10.9997    0.8198 C   0  0  0  0  0  0  0  0  0  0  0  0
   -5.5905  -12.1146    0.1119 C   0  0  0  0  0  0  0  0  0  0  0  0
   -5.4462  -12.2283   -1.2873 C   0  0  0  0  0  0  0  0  0  0  0  0
   -4.8574  -11.1659   -2.0076 C   0  0  0  0  0  0  0  0  0  0  0  0
   -4.4104  -10.0445   -1.3116 C   0  0  0  0  0  0  0  0  0  0  0  0
   -5.9350  -13.3358   -1.8866 N   0  0  0  0  0  0  0  0  0  0  0  0
   -5.2791  -14.6439   -1.6487 C   0  0  0  0  0  0  0  0  0  0  0  0
   -7.1335  -13.3240   -2.7348 C   0  0  0  0  0  0  0  0  0  0  0  0
   -8.4303  -12.8619   -2.0497 C   0  0  0  0  0  0  0  0  0  0  0  0
   -9.6392  -13.4550   -2.8525 C   0  0  0  0  0  0  0  0  0  0  0  0
  -10.9978  -12.9567   -2.2468 C   0  0  0  0  0  0  0  0  0  0  0  0
  -11.0892  -11.3851   -2.1163 C   0  0  0  0  0  0  0  0  0  0  0  0
   -9.8840  -10.8876   -1.2552 C   0  0  0  0  0  0  0  0  0  0  0  0
   -8.5497  -11.3084   -1.9503 C   0  0  0  0  0  0  0  0  0  0  0  0
  -16.2140   -9.2924   -0.4908 C   0  0  0  0  0  0  0  0  0  0  0  0
  -12.4312  -10.8742   -1.6377 N   0  0  0  0  0  0  0  0  0  0  0  0
  -13.5324  -11.8437   -1.3095 C   0  0  0  0  0  0  0  0  0  0  0  0
  -14.9028  -11.1298   -1.4925 C   0  0  0  0  0  0  0  0  0  0  0  0
  -14.9228   -9.8452   -0.7790 N   0  0  0  0  0  0  0  0  0  0  0  0
  -13.7903   -9.1723   -0.3787 C   0  0  0  0  0  0  0  0  0  0  0  0
  -12.4166   -9.7358   -0.6711 C   0  0  0  0  0  0  0  0  0  0  0  0
  -13.7980   -8.0995    0.2261 O   0  0  0  0  0  0  0  0  0  0  0  0
   -0.6812   -2.5231    1.8975 C   0  0  0  0  0  0  0  0  0  0  0  0
   -1.8028   -2.7055    1.0069 O   0  0  0  0  0  0  0  0  0  0  0  0
   -3.4316   -2.8821   -1.0556 O   0  0  0  0  0  0  0  0  0  0  0  0
   -3.2034   -2.9477   -2.4848 C   0  0  0  0  0  0  0  0  0  0  0  0
   -4.5951   -3.0969   -3.1532 C   0  0  0  0  0  0  0  0  0  0  0  0
   -2.3138   -4.1419   -2.9203 C   0  0  0  0  0  0  0  0  0  0  0  0
 41 39  2  0  0  0
 34 38  1  0  0  0
 39 38  1  0  0  0
 39 40  1  0  0  0
 38 37  1  0  0  0
 11  2  2  0  0  0
 40 35  1  0  0  0
  3  2  1  0  0  0
  3  4  1  0  0  0
  2 10  1  0  0  0
 37 36  1  0  0  0
 32 33  1  0  0  0
 32 31  1  0  0  0
 35 36  1  0  0  0
 35 31  1  0  0  0
  9  4  2  0  0  0
  9  8  1  0  0  0
  4  5  1  0  0  0
 20 21  2  0  0  0
 20 19  1  0  0  0
 10 19  1  0  0  0
 10  1  1  0  0  0
 33 28  1  0  0  0
 31 30  1  0  0  0
 42 43  1  0  0  0
 21 22  1  0  0  0
 19 24  2  0  0  0
 17 18  2  0  0  0
 17 16  1  0  0  0
 18 12  1  0  0  0
 22 25  1  0  0  0
 22 23  2  0  0  0
 26 25  1  0  0  0
 24 23  1  0  0  0
  8 43  1  0  0  0
  8  7  2  0  0  0
 28 27  1  0  0  0
 28 29  1  0  0  0
  5  1  1  0  0  0
  5  6  2  0  0  0
  1 16  1  0  0  0
 30 29  1  0  0  0
 25 27  1  0  0  0
 16 15  2  0  0  0
 12 14  1  0  0  0
 12 13  2  0  0  0
  6  7  1  0  0  0
  7 44  1  0  0  0
 15 13  1  0  0  0
 44 45  1  0  0  0
 45 47  1  0  0  0
 45 46  1  0  0  0
M  END
> <minimizedAffinity>
-8.06133

$$$$
4ZYF_4T4_A_201


 47 52  0  0  0  0  0  0  0  0999 V2000
   -6.8703   -8.9937   -1.3661 C   0  0  0  0  0  0  0  0  0  0  0  0
   -7.4909   -8.2259   -3.6716 C   0  0  0  0  0  0  0  0  0  0  0  0
   -6.0502   -8.0613   -4.0800 C   0  0  0  0  0  0  0  0  0  0  0  0
   -5.0980   -7.9378   -2.8706 C   0  0  0  0  0  0  0  0  0  0  0  0
   -5.4871   -8.3910   -1.5961 C   0  0  0  0  0  0  0  0  0  0  0  0
   -4.6361   -8.2937   -0.4868 C   0  0  0  0  0  0  0  0  0  0  0  0
   -3.3431   -7.7409   -0.6338 C   0  0  0  0  0  0  0  0  0  0  0  0
   -2.9326   -7.2879   -1.8936 C   0  0  0  0  0  0  0  0  0  0  0  0
   -3.8003   -7.3826   -3.0292 C   0  0  0  0  0  0  0  0  0  0  0  0
   -7.8473   -8.6450   -2.4282 N   0  0  0  0  0  0  0  0  0  0  0  0
   -8.3430   -7.9637   -4.5014 O   0  0  0  0  0  0  0  0  0  0  0  0
   -6.4437  -13.3170   -0.8368 C   0  0  0  0  0  0  0  0  0  0  0  0
   -6.2241  -12.7747   -2.1193 C   0  0  0  0  0  0  0  0  0  0  0  0
   -6.2987  -15.0412   -0.4904 Cl  0  0  0  0  0  0  0  0  0  0  0  0
   -6.3620  -11.3691   -2.3116 C   0  0  0  0  0  0  0  0  0  0  0  0
   -6.7193  -10.5325   -1.2135 C   0  0  0  0  0  0  0  0  0  0  0  0
   -6.9218  -11.1100    0.0620 C   0  0  0  0  0  0  0  0  0  0  0  0
   -6.7900  -12.4974    0.2548 C   0  0  0  0  0  0  0  0  0  0  0  0
   -9.1738   -8.8136   -1.9792 C   0  0  0  0  0  0  0  0  0  0  0  0
   -9.9408   -9.9127   -2.4123 C   0  0  0  0  0  0  0  0  0  0  0  0
  -11.2331  -10.0369   -1.9046 C   0  0  0  0  0  0  0  0  0  0  0  0
  -11.7861   -9.0971   -1.0088 C   0  0  0  0  0  0  0  0  0  0  0  0
  -10.9982   -8.0054   -0.5825 C   0  0  0  0  0  0  0  0  0  0  0  0
   -9.7034   -7.8724   -1.0802 C   0  0  0  0  0  0  0  0  0  0  0  0
  -13.0376   -9.3184   -0.5512 N   0  0  0  0  0  0  0  0  0  0  0  0
  -13.7710   -8.2228    0.1268 C   0  0  0  0  0  0  0  0  0  0  0  0
  -13.7446  -10.5918   -0.7380 C   0  0  0  0  0  0  0  0  0  0  0  0
  -15.0082  -10.5304   -1.6122 C   0  0  0  0  0  0  0  0  0  0  0  0
  -15.4199  -12.0000   -1.9707 C   0  0  0  0  0  0  0  0  0  0  0  0
  -16.6634  -12.0039   -2.9271 C   0  0  0  0  0  0  0  0  0  0  0  0
  -16.4671  -11.1138   -4.2172 C   0  0  0  0  0  0  0  0  0  0  0  0
  -16.1194   -9.6583   -3.7678 C   0  0  0  0  0  0  0  0  0  0  0  0
  -14.8138   -9.6852   -2.9104 C   0  0  0  0  0  0  0  0  0  0  0  0
  -20.7391  -11.6221   -8.0613 C   0  0  0  0  0  0  0  0  0  0  0  0
  -17.6087  -11.1885   -5.2083 N   0  0  0  0  0  0  0  0  0  0  0  0
  -19.0208  -10.9523   -4.7494 C   0  0  0  0  0  0  0  0  0  0  0  0
  -19.9932  -11.6978   -5.7083 C   0  0  0  0  0  0  0  0  0  0  0  0
  -19.6944  -11.3755   -7.1106 N   0  0  0  0  0  0  0  0  0  0  0  0
  -18.4943  -10.8542   -7.5391 C   0  0  0  0  0  0  0  0  0  0  0  0
  -17.3770  -10.5850   -6.5546 C   0  0  0  0  0  0  0  0  0  0  0  0
  -18.2383  -10.5741   -8.7108 O   0  0  0  0  0  0  0  0  0  0  0  0
   -0.9797   -6.4050   -3.1467 C   0  0  0  0  0  0  0  0  0  0  0  0
   -1.6412   -6.7596   -1.9134 O   0  0  0  0  0  0  0  0  0  0  0  0
   -2.4449   -7.6199    0.4429 O   0  0  0  0  0  0  0  0  0  0  0  0
   -2.8910   -7.5729    1.8206 C   0  0  0  0  0  0  0  0  0  0  0  0
   -1.8561   -6.7168    2.5965 C   0  0  0  0  0  0  0  0  0  0  0  0
   -2.9848   -8.9677    2.4937 C   0  0  0  0  0  0  0  0  0  0  0  0
 41 39  2  0  0  0
 34 38  1  0  0  0
 39 38  1  0  0  0
 39 40  1  0  0  0
 38 37  1  0  0  0
 11  2  2  0  0  0
 40 35  1  0  0  0
  3  2  1  0  0  0
  3  4  1  0  0  0
  2 10  1  0  0  0
 37 36  1  0  0  0
 32 33  1  0  0  0
 32 31  1  0  0  0
 35 36  1  0  0  0
 35 31  1  0  0  0
  9  4  2  0  0  0
  9  8  1  0  0  0
  4  5  1  0  0  0
 20 21  2  0  0  0
 20 19  1  0  0  0
 10 19  1  0  0  0
 10  1  1  0  0  0
 33 28  1  0  0  0
 31 30  1  0  0  0
 42 43  1  0  0  0
 21 22  1  0  0  0
 19 24  2  0  0  0
 17 18  2  0  0  0
 17 16  1  0  0  0
 18 12  1  0  0  0
 22 25  1  0  0  0
 22 23  2  0  0  0
 26 25  1  0  0  0
 24 23  1  0  0  0
  8 43  1  0  0  0
  8  7  2  0  0  0
 28 27  1  0  0  0
 28 29  1  0  0  0
  5  1  1  0  0  0
  5  6  2  0  0  0
  1 16  1  0  0  0
 30 29  1  0  0  0
 25 27  1  0  0  0
 16 15  2  0  0  0
 12 14  1  0  0  0
 12 13  2  0  0  0
  6  7  1  0  0  0
  7 44  1  0  0  0
 15 13  1  0  0  0
 44 45  1  0  0  0
 45 47  1  0  0  0
 45 46  1  0  0  0
M  END
> <minimizedAffinity>
-7.70009

$$$$
4ZYF_4T4_A_201


 47 52  0  0  0  0  0  0  0  0999 V2000
   -9.3112  -10.5664   -1.3085 C   0  0  0  0  0  0  0  0  0  0  0  0
   -9.8833   -8.5967    0.1348 C   0  0  0  0  0  0  0  0  0  0  0  0
   -8.4478   -8.3900    0.5423 C   0  0  0  0  0  0  0  0  0  0  0  0
   -7.5804   -9.6498    0.3298 C   0  0  0  0  0  0  0  0  0  0  0  0
   -7.9882  -10.6665   -0.5541 C   0  0  0  0  0  0  0  0  0  0  0  0
   -7.2132  -11.8148   -0.7659 C   0  0  0  0  0  0  0  0  0  0  0  0
   -5.9791  -11.9689   -0.0934 C   0  0  0  0  0  0  0  0  0  0  0  0
   -5.5507  -10.9678    0.7870 C   0  0  0  0  0  0  0  0  0  0  0  0
   -6.3412   -9.7941    1.0087 C   0  0  0  0  0  0  0  0  0  0  0  0
  -10.2606   -9.5981   -0.7040 N   0  0  0  0  0  0  0  0  0  0  0  0
  -10.7122   -7.8292    0.5903 O   0  0  0  0  0  0  0  0  0  0  0  0
   -8.4943   -9.6732   -5.5142 C   0  0  0  0  0  0  0  0  0  0  0  0
   -7.9153   -8.8471   -4.5297 C   0  0  0  0  0  0  0  0  0  0  0  0
   -8.2396   -9.4234   -7.2424 Cl  0  0  0  0  0  0  0  0  0  0  0  0
   -8.1730   -9.1204   -3.1548 C   0  0  0  0  0  0  0  0  0  0  0  0
   -9.0086  -10.2175   -2.7920 C   0  0  0  0  0  0  0  0  0  0  0  0
   -9.5644  -11.0319   -3.8065 C   0  0  0  0  0  0  0  0  0  0  0  0
   -9.3152  -10.7630   -5.1648 C   0  0  0  0  0  0  0  0  0  0  0  0
  -11.5844   -9.8514   -1.1197 C   0  0  0  0  0  0  0  0  0  0  0  0
  -12.3142   -8.8704   -1.8190 C   0  0  0  0  0  0  0  0  0  0  0  0
  -13.6057   -9.1980   -2.2289 C   0  0  0  0  0  0  0  0  0  0  0  0
  -14.1938  -10.4490   -1.9448 C   0  0  0  0  0  0  0  0  0  0  0  0
  -13.4428  -11.4207   -1.2476 C   0  0  0  0  0  0  0  0  0  0  0  0
  -12.1492  -11.1064   -0.8357 C   0  0  0  0  0  0  0  0  0  0  0  0
  -15.4411  -10.6823   -2.4076 N   0  0  0  0  0  0  0  0  0  0  0  0
  -15.8417  -12.0655   -2.7604 C   0  0  0  0  0  0  0  0  0  0  0  0
  -16.4579   -9.6304   -2.5336 C   0  0  0  0  0  0  0  0  0  0  0  0
  -17.6040   -9.6853   -1.5099 C   0  0  0  0  0  0  0  0  0  0  0  0
  -18.5021   -8.4179   -1.7211 C   0  0  0  0  0  0  0  0  0  0  0  0
  -19.6511   -8.3752   -0.6538 C   0  0  0  0  0  0  0  0  0  0  0  0
  -19.1320   -8.4904    0.8337 C   0  0  0  0  0  0  0  0  0  0  0  0
  -18.3002   -9.8062    0.9686 C   0  0  0  0  0  0  0  0  0  0  0  0
  -17.1024   -9.7598   -0.0333 C   0  0  0  0  0  0  0  0  0  0  0  0
  -23.0645   -7.9019    5.0140 C   0  0  0  0  0  0  0  0  0  0  0  0
  -20.2101   -8.3413    1.8856 N   0  0  0  0  0  0  0  0  0  0  0  0
  -21.2803   -7.2978    1.7243 C   0  0  0  0  0  0  0  0  0  0  0  0
  -21.8161   -6.9044    3.1311 C   0  0  0  0  0  0  0  0  0  0  0  0
  -22.1742   -8.0996    3.9075 N   0  0  0  0  0  0  0  0  0  0  0  0
  -21.7136   -9.3655    3.6232 C   0  0  0  0  0  0  0  0  0  0  0  0
  -20.7735   -9.5993    2.4605 C   0  0  0  0  0  0  0  0  0  0  0  0
  -22.0146  -10.3735    4.2637 O   0  0  0  0  0  0  0  0  0  0  0  0
   -3.5458  -10.1971    2.0320 C   0  0  0  0  0  0  0  0  0  0  0  0
   -4.3224  -11.2334    1.3937 O   0  0  0  0  0  0  0  0  0  0  0  0
   -5.1578  -13.0983   -0.2682 O   0  0  0  0  0  0  0  0  0  0  0  0
   -5.2459  -13.9444   -1.4411 C   0  0  0  0  0  0  0  0  0  0  0  0
   -5.1860  -15.4110   -0.9398 C   0  0  0  0  0  0  0  0  0  0  0  0
   -4.0962  -13.7212   -2.4589 C   0  0  0  0  0  0  0  0  0  0  0  0
 41 39  2  0  0  0
 34 38  1  0  0  0
 39 38  1  0  0  0
 39 40  1  0  0  0
 38 37  1  0  0  0
 11  2  2  0  0  0
 40 35  1  0  0  0
  3  2  1  0  0  0
  3  4  1  0  0  0
  2 10  1  0  0  0
 37 36  1  0  0  0
 32 33  1  0  0  0
 32 31  1  0  0  0
 35 36  1  0  0  0
 35 31  1  0  0  0
  9  4  2  0  0  0
  9  8  1  0  0  0
  4  5  1  0  0  0
 20 21  2  0  0  0
 20 19  1  0  0  0
 10 19  1  0  0  0
 10  1  1  0  0  0
 33 28  1  0  0  0
 31 30  1  0  0  0
 42 43  1  0  0  0
 21 22  1  0  0  0
 19 24  2  0  0  0
 17 18  2  0  0  0
 17 16  1  0  0  0
 18 12  1  0  0  0
 22 25  1  0  0  0
 22 23  2  0  0  0
 26 25  1  0  0  0
 24 23  1  0  0  0
  8 43  1  0  0  0
  8  7  2  0  0  0
 28 27  1  0  0  0
 28 29  1  0  0  0
  5  1  1  0  0  0
  5  6  2  0  0  0
  1 16  1  0  0  0
 30 29  1  0  0  0
 25 27  1  0  0  0
 16 15  2  0  0  0
 12 14  1  0  0  0
 12 13  2  0  0  0
  6  7  1  0  0  0
  7 44  1  0  0  0
 15 13  1  0  0  0
 44 45  1  0  0  0
 45 47  1  0  0  0
 45 46  1  0  0  0
M  END
> <minimizedAffinity>
-7.42125

$$$$
