1N46_PFA_A_462


 29 31  0  0  0  0  0  0  0  0999 V2000
   19.3853    5.5885    4.3834 C   0  0  0  0  0  0  0  0  0  0  0  0
   20.5562    6.3558    4.7747 C   0  0  0  0  0  0  0  0  0  0  0  0
   20.9446    7.4534    3.9604 C   0  0  0  0  0  0  0  0  0  0  0  0
   22.1048    8.2806    4.2817 C   0  0  0  0  0  0  0  0  0  0  0  0
   18.6817    5.9407    3.2461 C   0  0  0  0  0  0  0  0  0  0  0  0
   19.1098    6.9668    2.3822 C   0  0  0  0  0  0  0  0  0  0  0  0
   18.2888    7.3287    1.1272 C   0  0  0  0  0  0  0  0  0  0  0  0
   20.2341    7.7452    2.7610 C   0  0  0  0  0  0  0  0  0  0  0  0
   17.1608    5.2474    5.8479 O   0  0  0  0  0  0  0  0  0  0  0  0
   18.0032    4.4227    6.0419 C   0  0  0  0  0  0  0  0  0  0  0  0
   17.9344    3.3753    6.9313 N   0  0  0  0  0  0  0  0  0  0  0  0
   18.9586    2.4834    7.0699 C   0  0  0  0  0  0  0  0  0  0  0  0
   18.9478    1.5557    7.8480 O   0  0  0  0  0  0  0  0  0  0  0  0
   19.0829    4.5483    5.2849 N   0  0  0  0  0  0  0  0  0  0  0  0
   20.1538    3.6226    5.3761 N   0  0  0  0  0  0  0  0  0  0  0  0
   20.1217    2.6334    6.1956 C   0  0  0  0  0  0  0  0  0  0  0  0
   17.1256    3.2661    7.4819 H   0  0  0  0  0  0  0  0  0  0  0  0
   20.5342    8.8071    1.9345 O   0  0  0  0  0  0  0  0  0  0  0  0
   21.5344    8.6503    0.9873 C   0  0  0  0  0  0  0  0  0  0  0  0
   21.7781    7.3880    0.3284 C   0  0  0  0  0  0  0  0  0  0  0  0
   22.3135    9.8301    0.7059 C   0  0  0  0  0  0  0  0  0  0  0  0
   23.3482    9.7516   -0.2610 C   0  0  0  0  0  0  0  0  0  0  0  0
   23.6209    8.5035   -0.8701 C   0  0  0  0  0  0  0  0  0  0  0  0
   22.8142    7.3665   -0.6155 C   0  0  0  0  0  0  0  0  0  0  0  0
   24.6370    8.3729   -1.7910 O   0  0  0  0  0  0  0  0  0  0  0  0
   25.1906    9.1036   -1.9847 H   0  0  0  0  0  0  0  0  0  0  0  0
   24.2417   10.9803   -0.5485 C   0  0  0  0  0  0  0  0  0  0  0  0
   23.3308   12.2458   -0.5073 C   0  0  0  0  0  0  0  0  0  0  0  0
   25.3192   10.9968    0.5648 C   0  0  0  0  0  0  0  0  0  0  0  0
  9 10  2  0  0  0
 10 11  1  0  0  0
 10 14  1  0  0  0
 11 12  1  0  0  0
 12 13  2  0  0  0
 12 16  1  0  0  0
 14 15  1  0  0  0
 14  1  1  0  0  0
 15 16  2  0  0  0
  1  2  2  0  0  0
  1  5  1  0  0  0
  2  3  1  0  0  0
  3  4  1  0  0  0
  3  8  2  0  0  0
  5  6  2  0  0  0
  6  7  1  0  0  0
  6  8  1  0  0  0
  8 18  1  0  0  0
 18 19  1  0  0  0
 19 20  2  0  0  0
 19 21  1  0  0  0
 20 24  1  0  0  0
 21 22  2  0  0  0
 22 27  1  0  0  0
 22 23  1  0  0  0
 27 28  1  0  0  0
 27 29  1  0  0  0
 23 24  2  0  0  0
 23 25  1  0  0  0
 11 17  1  0  0  0
 25 26  1  0  0  0
M  END
> <minimizedAffinity>
-12.28836

$$$$
1N46_PFA_A_462


 29 31  0  0  0  0  0  0  0  0999 V2000
   19.5412    5.7662    4.5228 C   0  0  0  0  0  0  0  0  0  0  0  0
   18.7167    5.9129    3.3346 C   0  0  0  0  0  0  0  0  0  0  0  0
   19.0119    6.9744    2.4375 C   0  0  0  0  0  0  0  0  0  0  0  0
   18.2381    7.1922    1.2179 C   0  0  0  0  0  0  0  0  0  0  0  0
   20.5830    6.6471    4.7491 C   0  0  0  0  0  0  0  0  0  0  0  0
   20.8268    7.7564    3.9168 C   0  0  0  0  0  0  0  0  0  0  0  0
   22.0051    8.7093    4.2055 C   0  0  0  0  0  0  0  0  0  0  0  0
   20.0509    7.9010    2.7376 C   0  0  0  0  0  0  0  0  0  0  0  0
   17.2460    5.3675    5.8580 O   0  0  0  0  0  0  0  0  0  0  0  0
   18.0566    4.5036    6.0133 C   0  0  0  0  0  0  0  0  0  0  0  0
   17.9206    3.3855    6.8034 N   0  0  0  0  0  0  0  0  0  0  0  0
   18.9135    2.4540    6.9052 C   0  0  0  0  0  0  0  0  0  0  0  0
   18.8435    1.4630    7.5975 O   0  0  0  0  0  0  0  0  0  0  0  0
   19.1715    4.6614    5.3158 N   0  0  0  0  0  0  0  0  0  0  0  0
   20.2121    3.6989    5.3694 N   0  0  0  0  0  0  0  0  0  0  0  0
   20.1174    2.6437    6.0965 C   0  0  0  0  0  0  0  0  0  0  0  0
   17.0858    3.2538    7.3083 H   0  0  0  0  0  0  0  0  0  0  0  0
   20.4129    8.9388    1.9052 O   0  0  0  0  0  0  0  0  0  0  0  0
   21.4276    8.7292    0.9841 C   0  0  0  0  0  0  0  0  0  0  0  0
   21.6383    7.4481    0.3506 C   0  0  0  0  0  0  0  0  0  0  0  0
   22.2570    9.8742    0.7027 C   0  0  0  0  0  0  0  0  0  0  0  0
   23.3096    9.7412   -0.2384 C   0  0  0  0  0  0  0  0  0  0  0  0
   23.5487    8.4741   -0.8217 C   0  0  0  0  0  0  0  0  0  0  0  0
   22.6940    7.3724   -0.5685 C   0  0  0  0  0  0  0  0  0  0  0  0
   24.5798    8.2905   -1.7166 O   0  0  0  0  0  0  0  0  0  0  0  0
   25.1649    8.9967   -1.9086 H   0  0  0  0  0  0  0  0  0  0  0  0
   24.2554   10.9308   -0.5239 C   0  0  0  0  0  0  0  0  0  0  0  0
   23.3978   12.2332   -0.4920 C   0  0  0  0  0  0  0  0  0  0  0  0
   25.3258   10.9059    0.5960 C   0  0  0  0  0  0  0  0  0  0  0  0
  9 10  2  0  0  0
 10 11  1  0  0  0
 10 14  1  0  0  0
 11 12  1  0  0  0
 12 13  2  0  0  0
 12 16  1  0  0  0
 14 15  1  0  0  0
 14  1  1  0  0  0
 15 16  2  0  0  0
  1  2  2  0  0  0
  1  5  1  0  0  0
  2  3  1  0  0  0
  3  4  1  0  0  0
  3  8  2  0  0  0
  5  6  2  0  0  0
  6  7  1  0  0  0
  6  8  1  0  0  0
  8 18  1  0  0  0
 18 19  1  0  0  0
 19 20  2  0  0  0
 19 21  1  0  0  0
 20 24  1  0  0  0
 21 22  2  0  0  0
 22 27  1  0  0  0
 22 23  1  0  0  0
 27 28  1  0  0  0
 27 29  1  0  0  0
 23 24  2  0  0  0
 23 25  1  0  0  0
 11 17  1  0  0  0
 25 26  1  0  0  0
M  END
> <minimizedAffinity>
-12.14661

$$$$
