6FO5_DZH_A_201


 40 44  0  0  0  0  0  0  0  0999 V2000
   57.9767    3.6450    4.6006 C   0  0  0  0  0  0  0  0  0  0  0  0
   57.6500    1.3660    5.3875 C   0  0  0  0  0  0  0  0  0  0  0  0
   58.1457    2.6486    5.5539 C   0  0  0  0  0  0  0  0  0  0  0  0
   57.2208    3.3820    3.4597 C   0  0  0  0  0  0  0  0  0  0  0  0
   56.7191    2.0940    3.3017 C   0  0  0  0  0  0  0  0  0  0  0  0
   56.8852    1.0911    4.2618 C   0  0  0  0  0  0  0  0  0  0  0  0
   57.9521    0.3036    6.3931 C   0  0  0  0  0  0  0  0  0  0  0  0
   57.2874    0.5446    7.6886 N   0  0  0  0  0  0  0  0  0  0  0  0
   56.5554    1.2381    7.5344 H   0  0  0  0  0  0  0  0  0  0  0  0
   58.2148    1.0762    8.9045 S   0  0  0  0  0  0  0  0  0  0  0  0
   59.5253    1.2465    8.3995 O   0  0  0  0  0  0  0  0  0  0  0  0
   57.9747    0.1477    9.9949 O   0  0  0  0  0  0  0  0  0  0  0  0
   55.1916    6.7634   11.1139 C   0  0  0  0  0  0  0  0  0  0  0  0
   56.7509    5.1338   10.1677 C   0  0  0  0  0  0  0  0  0  0  0  0
   56.4682    4.0231   10.9711 C   0  0  0  0  0  0  0  0  0  0  0  0
   57.4979    4.9812    9.0167 C   0  0  0  0  0  0  0  0  0  0  0  0
   57.9516    3.7843    8.6598 C   0  0  0  0  0  0  0  0  0  0  0  0
   57.6236    2.6682    9.4092 C   0  0  0  0  0  0  0  0  0  0  0  0
   56.9059    2.7781   10.5354 C   0  0  0  0  0  0  0  0  0  0  0  0
   56.3516    6.4243   10.5800 N   0  0  0  0  0  0  0  0  0  0  0  0
   54.1475    5.7159   11.1492 C   0  0  0  0  0  0  0  0  0  0  0  0
   55.8383    4.2459   12.3060 C   0  0  0  0  0  0  0  0  0  0  0  0
   54.3852    4.6421   12.2506 C   0  0  0  0  0  0  0  0  0  0  0  0
   54.9400    7.9109   11.4741 O   0  0  0  0  0  0  0  0  0  0  0  0
   57.0073    7.1481   10.4563 H   0  0  0  0  0  0  0  0  0  0  0  0
   56.9969    4.4573    2.4236 C   0  0  0  0  0  0  0  0  0  0  0  0
   58.2631    4.9073    1.7842 N   0  0  0  0  0  0  0  0  0  0  0  0
   58.7027    4.1881    0.7009 C   0  0  0  0  0  0  0  0  0  0  0  0
   59.0051    5.9786    2.2401 C   0  0  0  0  0  0  0  0  0  0  0  0
   60.1373    6.3872    1.6083 C   0  0  0  0  0  0  0  0  0  0  0  0
   60.6574    5.7253    0.4689 C   0  0  0  0  0  0  0  0  0  0  0  0
   59.8662    4.6308    0.1045 N   0  0  0  0  0  0  0  0  0  0  0  0
   58.6982    6.7443    3.3024 N   0  0  0  0  0  0  0  0  0  0  0  0
   59.6908    7.6434    3.3200 C   0  0  0  0  0  0  0  0  0  0  0  0
   60.5660    7.4821    2.3320 N   0  0  0  0  0  0  0  0  0  0  0  0
   61.6639    6.0206   -0.1855 O   0  0  0  0  0  0  0  0  0  0  0  0
   58.1105    3.2372    0.2286 O   0  0  0  0  0  0  0  0  0  0  0  0
   60.1773    4.1126   -0.6727 H   0  0  0  0  0  0  0  0  0  0  0  0
   61.6797    8.3924    1.9679 C   0  0  0  0  0  0  0  0  0  0  0  0
   61.2846    9.8191    2.2844 C   0  0  0  0  0  0  0  0  0  0  0  0
 24 13  2  0  0  0
 13 20  1  0  0  0
 13 21  1  0  0  0
 20 14  1  0  0  0
 21 23  1  0  0  0
 16 14  2  0  0  0
 16 17  1  0  0  0
 14 15  1  0  0  0
 17 18  2  0  0  0
 23 22  1  0  0  0
 15 22  1  0  0  0
 15 19  2  0  0  0
 18 19  1  0  0  0
 18 10  1  0  0  0
 12 10  2  0  0  0
 10  8  1  0  0  0
 10 11  2  0  0  0
  8  7  1  0  0  0
  7  2  1  0  0  0
  3  2  2  0  0  0
  3  1  1  0  0  0
  2  6  1  0  0  0
  1  4  2  0  0  0
  6  5  2  0  0  0
 37 28  2  0  0  0
  4  5  1  0  0  0
  4 26  1  0  0  0
 26 27  1  0  0  0
 28 27  1  0  0  0
 28 32  1  0  0  0
 27 29  1  0  0  0
 32 31  1  0  0  0
 29 30  2  0  0  0
 29 33  1  0  0  0
 31 36  2  0  0  0
 31 30  1  0  0  0
 30 35  1  0  0  0
 33 34  2  0  0  0
 35 34  1  0  0  0
 35 39  1  0  0  0
 40 39  1  0  0  0
 20 25  1  0  0  0
  8  9  1  0  0  0
 32 38  1  0  0  0
M  END
> <minimizedAffinity>
-8.89496

$$$$
6FO5_DZH_A_201


 40 44  0  0  0  0  0  0  0  0999 V2000
   58.3717    2.3700    4.1119 C   0  0  0  0  0  0  0  0  0  0  0  0
   59.5279    0.7545    5.5165 C   0  0  0  0  0  0  0  0  0  0  0  0
   58.3695    1.3814    5.0879 C   0  0  0  0  0  0  0  0  0  0  0  0
   59.5666    2.7058    3.4779 C   0  0  0  0  0  0  0  0  0  0  0  0
   60.7257    2.0673    3.9074 C   0  0  0  0  0  0  0  0  0  0  0  0
   60.7247    1.0696    4.8872 C   0  0  0  0  0  0  0  0  0  0  0  0
   59.4837   -0.2242    6.6440 C   0  0  0  0  0  0  0  0  0  0  0  0
   59.5282    0.4318    7.9654 N   0  0  0  0  0  0  0  0  0  0  0  0
   60.2551   -0.0289    8.5130 H   0  0  0  0  0  0  0  0  0  0  0  0
   58.1685    0.4110    8.8441 S   0  0  0  0  0  0  0  0  0  0  0  0
   58.4667   -0.2131   10.0781 O   0  0  0  0  0  0  0  0  0  0  0  0
   57.1627   -0.1625    7.9677 O   0  0  0  0  0  0  0  0  0  0  0  0
   55.5795    6.4885   10.4950 C   0  0  0  0  0  0  0  0  0  0  0  0
   57.0058    4.6675    9.7003 C   0  0  0  0  0  0  0  0  0  0  0  0
   56.6674    3.6671   10.6188 C   0  0  0  0  0  0  0  0  0  0  0  0
   57.7158    4.3468    8.5605 C   0  0  0  0  0  0  0  0  0  0  0  0
   58.0809    3.0913    8.3232 C   0  0  0  0  0  0  0  0  0  0  0  0
   57.6957    2.0831    9.1893 C   0  0  0  0  0  0  0  0  0  0  0  0
   57.0116    2.3570   10.3084 C   0  0  0  0  0  0  0  0  0  0  0  0
   56.7024    6.0178    9.9821 N   0  0  0  0  0  0  0  0  0  0  0  0
   54.4690    5.5242   10.6544 C   0  0  0  0  0  0  0  0  0  0  0  0
   56.0829    4.0685   11.9325 C   0  0  0  0  0  0  0  0  0  0  0  0
   54.6586    4.5554   11.8577 C   0  0  0  0  0  0  0  0  0  0  0  0
   55.4128    7.6815   10.7377 O   0  0  0  0  0  0  0  0  0  0  0  0
   57.4020    6.6785    9.7742 H   0  0  0  0  0  0  0  0  0  0  0  0
   59.5901    3.7552    2.3926 C   0  0  0  0  0  0  0  0  0  0  0  0
   59.7163    5.1353    2.9346 N   0  0  0  0  0  0  0  0  0  0  0  0
   58.5563    5.8540    3.0827 C   0  0  0  0  0  0  0  0  0  0  0  0
   60.9256    5.7138    3.2648 C   0  0  0  0  0  0  0  0  0  0  0  0
   61.0016    6.9634    3.7948 C   0  0  0  0  0  0  0  0  0  0  0  0
   59.8591    7.7732    4.0084 C   0  0  0  0  0  0  0  0  0  0  0  0
   58.6866    7.1239    3.6077 N   0  0  0  0  0  0  0  0  0  0  0  0
   62.1300    5.1279    3.1418 N   0  0  0  0  0  0  0  0  0  0  0  0
   62.9674    6.0653    3.6045 C   0  0  0  0  0  0  0  0  0  0  0  0
   62.3493    7.1695    4.0127 N   0  0  0  0  0  0  0  0  0  0  0  0
   59.8155    8.9094    4.4940 O   0  0  0  0  0  0  0  0  0  0  0  0
   57.4496    5.4222    2.8245 O   0  0  0  0  0  0  0  0  0  0  0  0
   57.8521    7.6355    3.7131 H   0  0  0  0  0  0  0  0  0  0  0  0
   62.9565    8.3225    4.7223 C   0  0  0  0  0  0  0  0  0  0  0  0
   63.2314    9.4328    3.7306 C   0  0  0  0  0  0  0  0  0  0  0  0
 24 13  2  0  0  0
 13 20  1  0  0  0
 13 21  1  0  0  0
 20 14  1  0  0  0
 21 23  1  0  0  0
 16 14  2  0  0  0
 16 17  1  0  0  0
 14 15  1  0  0  0
 17 18  2  0  0  0
 23 22  1  0  0  0
 15 22  1  0  0  0
 15 19  2  0  0  0
 18 19  1  0  0  0
 18 10  1  0  0  0
 12 10  2  0  0  0
 10  8  1  0  0  0
 10 11  2  0  0  0
  8  7  1  0  0  0
  7  2  1  0  0  0
  3  2  2  0  0  0
  3  1  1  0  0  0
  2  6  1  0  0  0
  1  4  2  0  0  0
  6  5  2  0  0  0
 37 28  2  0  0  0
  4  5  1  0  0  0
  4 26  1  0  0  0
 26 27  1  0  0  0
 28 27  1  0  0  0
 28 32  1  0  0  0
 27 29  1  0  0  0
 32 31  1  0  0  0
 29 30  2  0  0  0
 29 33  1  0  0  0
 31 36  2  0  0  0
 31 30  1  0  0  0
 30 35  1  0  0  0
 33 34  2  0  0  0
 35 34  1  0  0  0
 35 39  1  0  0  0
 40 39  1  0  0  0
 20 25  1  0  0  0
  8  9  1  0  0  0
 32 38  1  0  0  0
M  END
> <minimizedAffinity>
-8.87853

$$$$
6FO5_DZH_A_201


 40 44  0  0  0  0  0  0  0  0999 V2000
   57.2550    3.1448    4.0461 C   0  0  0  0  0  0  0  0  0  0  0  0
   58.9078    1.7651    5.1794 C   0  0  0  0  0  0  0  0  0  0  0  0
   57.6359    1.9621    4.6676 C   0  0  0  0  0  0  0  0  0  0  0  0
   58.1964    4.1552    3.8579 C   0  0  0  0  0  0  0  0  0  0  0  0
   59.4743    3.9485    4.3675 C   0  0  0  0  0  0  0  0  0  0  0  0
   59.8603    2.7573    4.9901 C   0  0  0  0  0  0  0  0  0  0  0  0
   59.2333    0.5173    5.9331 C   0  0  0  0  0  0  0  0  0  0  0  0
   59.4842    0.7699    7.3654 N   0  0  0  0  0  0  0  0  0  0  0  0
   60.1972    0.1089    7.6739 H   0  0  0  0  0  0  0  0  0  0  0  0
   58.2222    0.6305    8.3700 S   0  0  0  0  0  0  0  0  0  0  0  0
   58.6672   -0.0592    9.5221 O   0  0  0  0  0  0  0  0  0  0  0  0
   57.1555    0.0710    7.5589 O   0  0  0  0  0  0  0  0  0  0  0  0
   55.5447    6.4747   10.6151 C   0  0  0  0  0  0  0  0  0  0  0  0
   56.9925    4.7647    9.6346 C   0  0  0  0  0  0  0  0  0  0  0  0
   56.6878    3.6767   10.4607 C   0  0  0  0  0  0  0  0  0  0  0  0
   57.6903    4.5655    8.4600 C   0  0  0  0  0  0  0  0  0  0  0  0
   58.0754    3.3451    8.1018 C   0  0  0  0  0  0  0  0  0  0  0  0
   57.7232    2.2534    8.8757 C   0  0  0  0  0  0  0  0  0  0  0  0
   57.0519    2.4083   10.0250 C   0  0  0  0  0  0  0  0  0  0  0  0
   56.6680    6.0765   10.0449 N   0  0  0  0  0  0  0  0  0  0  0  0
   54.4554    5.4773   10.6997 C   0  0  0  0  0  0  0  0  0  0  0  0
   56.1168    3.9426   11.8141 C   0  0  0  0  0  0  0  0  0  0  0  0
   54.6824    4.4052   11.8049 C   0  0  0  0  0  0  0  0  0  0  0  0
   55.3592    7.6364   10.9699 O   0  0  0  0  0  0  0  0  0  0  0  0
   57.3516    6.7678    9.8896 H   0  0  0  0  0  0  0  0  0  0  0  0
   57.8150    5.4376    3.1580 C   0  0  0  0  0  0  0  0  0  0  0  0
   58.4462    5.5661    1.8166 N   0  0  0  0  0  0  0  0  0  0  0  0
   59.5742    6.3437    1.7317 C   0  0  0  0  0  0  0  0  0  0  0  0
   57.9417    4.9673    0.6794 C   0  0  0  0  0  0  0  0  0  0  0  0
   58.5657    5.0734   -0.5237 C   0  0  0  0  0  0  0  0  0  0  0  0
   59.7477    5.8325   -0.7068 C   0  0  0  0  0  0  0  0  0  0  0  0
   60.1614    6.4353    0.4859 N   0  0  0  0  0  0  0  0  0  0  0  0
   56.8340    4.2065    0.6245 N   0  0  0  0  0  0  0  0  0  0  0  0
   56.7804    3.8488   -0.6651 C   0  0  0  0  0  0  0  0  0  0  0  0
   57.7881    4.3285   -1.3878 N   0  0  0  0  0  0  0  0  0  0  0  0
   60.3988    5.9822   -1.7471 O   0  0  0  0  0  0  0  0  0  0  0  0
   60.0905    6.9011    2.6808 O   0  0  0  0  0  0  0  0  0  0  0  0
   60.9706    6.9931    0.4298 H   0  0  0  0  0  0  0  0  0  0  0  0
   58.1166    3.9934   -2.7955 C   0  0  0  0  0  0  0  0  0  0  0  0
   57.5976    5.0867   -3.7050 C   0  0  0  0  0  0  0  0  0  0  0  0
 24 13  2  0  0  0
 13 20  1  0  0  0
 13 21  1  0  0  0
 20 14  1  0  0  0
 21 23  1  0  0  0
 16 14  2  0  0  0
 16 17  1  0  0  0
 14 15  1  0  0  0
 17 18  2  0  0  0
 23 22  1  0  0  0
 15 22  1  0  0  0
 15 19  2  0  0  0
 18 19  1  0  0  0
 18 10  1  0  0  0
 12 10  2  0  0  0
 10  8  1  0  0  0
 10 11  2  0  0  0
  8  7  1  0  0  0
  7  2  1  0  0  0
  3  2  2  0  0  0
  3  1  1  0  0  0
  2  6  1  0  0  0
  1  4  2  0  0  0
  6  5  2  0  0  0
 37 28  2  0  0  0
  4  5  1  0  0  0
  4 26  1  0  0  0
 26 27  1  0  0  0
 28 27  1  0  0  0
 28 32  1  0  0  0
 27 29  1  0  0  0
 32 31  1  0  0  0
 29 30  2  0  0  0
 29 33  1  0  0  0
 31 36  2  0  0  0
 31 30  1  0  0  0
 30 35  1  0  0  0
 33 34  2  0  0  0
 35 34  1  0  0  0
 35 39  1  0  0  0
 40 39  1  0  0  0
 20 25  1  0  0  0
  8  9  1  0  0  0
 32 38  1  0  0  0
M  END
> <minimizedAffinity>
-8.70937

$$$$
6FO5_DZH_A_201


 40 44  0  0  0  0  0  0  0  0999 V2000
   58.8199   -0.5818    5.8673 C   0  0  0  0  0  0  0  0  0  0  0  0
   56.6006   -1.1095    5.0213 C   0  0  0  0  0  0  0  0  0  0  0  0
   57.9118   -1.4630    5.2939 C   0  0  0  0  0  0  0  0  0  0  0  0
   58.3935    0.6870    6.2554 C   0  0  0  0  0  0  0  0  0  0  0  0
   57.0733    1.0337    5.9857 C   0  0  0  0  0  0  0  0  0  0  0  0
   56.1571    0.1468    5.4119 C   0  0  0  0  0  0  0  0  0  0  0  0
   55.6960   -2.0587    4.3059 C   0  0  0  0  0  0  0  0  0  0  0  0
   55.1936   -1.5103    3.0310 N   0  0  0  0  0  0  0  0  0  0  0  0
   54.4062   -2.0881    2.7368 H   0  0  0  0  0  0  0  0  0  0  0  0
   56.2380   -1.4433    1.7957 S   0  0  0  0  0  0  0  0  0  0  0  0
   55.4903   -1.2197    0.6157 O   0  0  0  0  0  0  0  0  0  0  0  0
   57.0484   -2.6416    1.9224 O   0  0  0  0  0  0  0  0  0  0  0  0
   59.7105    4.3989    2.2140 C   0  0  0  0  0  0  0  0  0  0  0  0
   58.9604    2.0795    2.4131 C   0  0  0  0  0  0  0  0  0  0  0  0
   57.5743    2.2690    2.4578 C   0  0  0  0  0  0  0  0  0  0  0  0
   59.4783    0.8158    2.2112 C   0  0  0  0  0  0  0  0  0  0  0  0
   58.6708   -0.2281    2.0552 C   0  0  0  0  0  0  0  0  0  0  0  0
   57.2995   -0.0445    2.0310 C   0  0  0  0  0  0  0  0  0  0  0  0
   56.7603    1.1660    2.2296 C   0  0  0  0  0  0  0  0  0  0  0  0
   59.8304    3.1631    2.6654 N   0  0  0  0  0  0  0  0  0  0  0  0
   58.6388    4.6408    1.2232 C   0  0  0  0  0  0  0  0  0  0  0  0
   57.0463    3.6005    2.8783 C   0  0  0  0  0  0  0  0  0  0  0  0
   57.2154    4.6901    1.8510 C   0  0  0  0  0  0  0  0  0  0  0  0
   60.5015    5.2909    2.5114 O   0  0  0  0  0  0  0  0  0  0  0  0
   60.6090    2.9778    3.2387 H   0  0  0  0  0  0  0  0  0  0  0  0
   59.3536    1.6521    6.9085 C   0  0  0  0  0  0  0  0  0  0  0  0
   58.6641    2.8272    7.5070 N   0  0  0  0  0  0  0  0  0  0  0  0
   58.6532    3.9845    6.7690 C   0  0  0  0  0  0  0  0  0  0  0  0
   58.0698    2.8055    8.7531 C   0  0  0  0  0  0  0  0  0  0  0  0
   57.4140    3.8861    9.2534 C   0  0  0  0  0  0  0  0  0  0  0  0
   57.3268    5.1166    8.5569 C   0  0  0  0  0  0  0  0  0  0  0  0
   57.9906    5.0592    7.3269 N   0  0  0  0  0  0  0  0  0  0  0  0
   58.0353    1.7473    9.5825 N   0  0  0  0  0  0  0  0  0  0  0  0
   57.3415    2.2109   10.6302 C   0  0  0  0  0  0  0  0  0  0  0  0
   56.9419    3.4704   10.4824 N   0  0  0  0  0  0  0  0  0  0  0  0
   56.7468    6.1491    8.9120 O   0  0  0  0  0  0  0  0  0  0  0  0
   59.1445    4.0913    5.6621 O   0  0  0  0  0  0  0  0  0  0  0  0
   57.9845    5.8868    6.7938 H   0  0  0  0  0  0  0  0  0  0  0  0
   56.0258    4.2269   11.3713 C   0  0  0  0  0  0  0  0  0  0  0  0
   54.5936    3.9567   10.9617 C   0  0  0  0  0  0  0  0  0  0  0  0
 24 13  2  0  0  0
 13 20  1  0  0  0
 13 21  1  0  0  0
 20 14  1  0  0  0
 21 23  1  0  0  0
 16 14  2  0  0  0
 16 17  1  0  0  0
 14 15  1  0  0  0
 17 18  2  0  0  0
 23 22  1  0  0  0
 15 22  1  0  0  0
 15 19  2  0  0  0
 18 19  1  0  0  0
 18 10  1  0  0  0
 12 10  2  0  0  0
 10  8  1  0  0  0
 10 11  2  0  0  0
  8  7  1  0  0  0
  7  2  1  0  0  0
  3  2  2  0  0  0
  3  1  1  0  0  0
  2  6  1  0  0  0
  1  4  2  0  0  0
  6  5  2  0  0  0
 37 28  2  0  0  0
  4  5  1  0  0  0
  4 26  1  0  0  0
 26 27  1  0  0  0
 28 27  1  0  0  0
 28 32  1  0  0  0
 27 29  1  0  0  0
 32 31  1  0  0  0
 29 30  2  0  0  0
 29 33  1  0  0  0
 31 36  2  0  0  0
 31 30  1  0  0  0
 30 35  1  0  0  0
 33 34  2  0  0  0
 35 34  1  0  0  0
 35 39  1  0  0  0
 40 39  1  0  0  0
 20 25  1  0  0  0
  8  9  1  0  0  0
 32 38  1  0  0  0
M  END
> <minimizedAffinity>
-8.61864

$$$$
6FO5_DZH_A_201


 40 44  0  0  0  0  0  0  0  0999 V2000
   55.0757   -0.6036    2.7317 C   0  0  0  0  0  0  0  0  0  0  0  0
   56.1734    0.2269    4.7379 C   0  0  0  0  0  0  0  0  0  0  0  0
   55.6591    0.4209    3.4666 C   0  0  0  0  0  0  0  0  0  0  0  0
   54.9290   -1.8640    3.3081 C   0  0  0  0  0  0  0  0  0  0  0  0
   55.4407   -2.0508    4.5883 C   0  0  0  0  0  0  0  0  0  0  0  0
   56.0251   -1.0199    5.3306 C   0  0  0  0  0  0  0  0  0  0  0  0
   56.8864    1.3352    5.4410 C   0  0  0  0  0  0  0  0  0  0  0  0
   57.5442    0.8868    6.6839 N   0  0  0  0  0  0  0  0  0  0  0  0
   56.8286    0.8341    7.4088 H   0  0  0  0  0  0  0  0  0  0  0  0
   58.7486    1.8071    7.2530 S   0  0  0  0  0  0  0  0  0  0  0  0
   59.4525    2.3254    6.1407 O   0  0  0  0  0  0  0  0  0  0  0  0
   59.4376    0.9701    8.2191 O   0  0  0  0  0  0  0  0  0  0  0  0
   55.3579    6.5148   10.8174 C   0  0  0  0  0  0  0  0  0  0  0  0
   56.9961    5.3090    9.4594 C   0  0  0  0  0  0  0  0  0  0  0  0
   56.8763    4.0259   10.0055 C   0  0  0  0  0  0  0  0  0  0  0  0
   57.6732    5.4927    8.2703 C   0  0  0  0  0  0  0  0  0  0  0  0
   58.2129    4.4587    7.6337 C   0  0  0  0  0  0  0  0  0  0  0  0
   58.0449    3.1772    8.1282 C   0  0  0  0  0  0  0  0  0  0  0  0
   57.3992    2.9607    9.2823 C   0  0  0  0  0  0  0  0  0  0  0  0
   56.5053    6.4276   10.1682 N   0  0  0  0  0  0  0  0  0  0  0  0
   54.4230    5.3784   10.6652 C   0  0  0  0  0  0  0  0  0  0  0  0
   56.3215    3.8828   11.3840 C   0  0  0  0  0  0  0  0  0  0  0  0
   54.8370    4.1223   11.4858 C   0  0  0  0  0  0  0  0  0  0  0  0
   55.0238    7.5220   11.4368 O   0  0  0  0  0  0  0  0  0  0  0  0
   57.0792    7.2274   10.1799 H   0  0  0  0  0  0  0  0  0  0  0  0
   54.2705   -2.9858    2.5413 C   0  0  0  0  0  0  0  0  0  0  0  0
   53.6675   -2.5259    1.2610 N   0  0  0  0  0  0  0  0  0  0  0  0
   54.4558   -2.6005    0.1398 C   0  0  0  0  0  0  0  0  0  0  0  0
   52.3867   -2.0194    1.1635 C   0  0  0  0  0  0  0  0  0  0  0  0
   51.8529   -1.6446   -0.0292 C   0  0  0  0  0  0  0  0  0  0  0  0
   52.5784   -1.7076   -1.2442 C   0  0  0  0  0  0  0  0  0  0  0  0
   53.8755   -2.1917   -1.0440 N   0  0  0  0  0  0  0  0  0  0  0  0
   51.5271   -1.8699    2.1871 N   0  0  0  0  0  0  0  0  0  0  0  0
   50.4352   -1.3739    1.5907 C   0  0  0  0  0  0  0  0  0  0  0  0
   50.5720   -1.2292    0.2761 N   0  0  0  0  0  0  0  0  0  0  0  0
   52.1862   -1.4074   -2.3776 O   0  0  0  0  0  0  0  0  0  0  0  0
   55.5898   -3.0385    0.1322 O   0  0  0  0  0  0  0  0  0  0  0  0
   54.4441   -2.2478   -1.8457 H   0  0  0  0  0  0  0  0  0  0  0  0
   49.5132   -0.8644   -0.6973 C   0  0  0  0  0  0  0  0  0  0  0  0
   48.1842   -0.7673    0.0210 C   0  0  0  0  0  0  0  0  0  0  0  0
 24 13  2  0  0  0
 13 20  1  0  0  0
 13 21  1  0  0  0
 20 14  1  0  0  0
 21 23  1  0  0  0
 16 14  2  0  0  0
 16 17  1  0  0  0
 14 15  1  0  0  0
 17 18  2  0  0  0
 23 22  1  0  0  0
 15 22  1  0  0  0
 15 19  2  0  0  0
 18 19  1  0  0  0
 18 10  1  0  0  0
 12 10  2  0  0  0
 10  8  1  0  0  0
 10 11  2  0  0  0
  8  7  1  0  0  0
  7  2  1  0  0  0
  3  2  2  0  0  0
  3  1  1  0  0  0
  2  6  1  0  0  0
  1  4  2  0  0  0
  6  5  2  0  0  0
 37 28  2  0  0  0
  4  5  1  0  0  0
  4 26  1  0  0  0
 26 27  1  0  0  0
 28 27  1  0  0  0
 28 32  1  0  0  0
 27 29  1  0  0  0
 32 31  1  0  0  0
 29 30  2  0  0  0
 29 33  1  0  0  0
 31 36  2  0  0  0
 31 30  1  0  0  0
 30 35  1  0  0  0
 33 34  2  0  0  0
 35 34  1  0  0  0
 35 39  1  0  0  0
 40 39  1  0  0  0
 20 25  1  0  0  0
  8  9  1  0  0  0
 32 38  1  0  0  0
M  END
> <minimizedAffinity>
-8.57383

$$$$
6FO5_DZH_A_201


 40 44  0  0  0  0  0  0  0  0999 V2000
   56.0030   -0.8438    5.0870 C   0  0  0  0  0  0  0  0  0  0  0  0
   57.8657   -0.5875    6.6311 C   0  0  0  0  0  0  0  0  0  0  0  0
   56.5378   -0.3945    6.2879 C   0  0  0  0  0  0  0  0  0  0  0  0
   56.8005   -1.5815    4.2140 C   0  0  0  0  0  0  0  0  0  0  0  0
   58.1315   -1.7787    4.5676 C   0  0  0  0  0  0  0  0  0  0  0  0
   58.6704   -1.3302    5.7775 C   0  0  0  0  0  0  0  0  0  0  0  0
   58.4158    0.0093    7.8849 C   0  0  0  0  0  0  0  0  0  0  0  0
   57.6855    1.2219    8.3028 N   0  0  0  0  0  0  0  0  0  0  0  0
   56.7515    1.1740    7.8957 H   0  0  0  0  0  0  0  0  0  0  0  0
   58.3271    2.6486    7.8854 S   0  0  0  0  0  0  0  0  0  0  0  0
   58.0014    2.8831    6.5289 O   0  0  0  0  0  0  0  0  0  0  0  0
   59.7190    2.5687    8.2917 O   0  0  0  0  0  0  0  0  0  0  0  0
   54.7019    6.9180   11.7577 C   0  0  0  0  0  0  0  0  0  0  0  0
   56.3962    5.8964   10.3196 C   0  0  0  0  0  0  0  0  0  0  0  0
   56.3515    4.5759   10.7815 C   0  0  0  0  0  0  0  0  0  0  0  0
   57.0544    6.1945    9.1432 C   0  0  0  0  0  0  0  0  0  0  0  0
   57.6469    5.2357    8.4392 C   0  0  0  0  0  0  0  0  0  0  0  0
   57.5537    3.9175    8.8498 C   0  0  0  0  0  0  0  0  0  0  0  0
   56.9285    3.5908    9.9891 C   0  0  0  0  0  0  0  0  0  0  0  0
   55.8483    6.9375   11.1011 N   0  0  0  0  0  0  0  0  0  0  0  0
   53.8309    5.7432   11.5344 C   0  0  0  0  0  0  0  0  0  0  0  0
   55.8144    4.3130   12.1492 C   0  0  0  0  0  0  0  0  0  0  0  0
   54.3195    4.4618   12.2704 C   0  0  0  0  0  0  0  0  0  0  0  0
   54.3162    7.8627   12.4421 O   0  0  0  0  0  0  0  0  0  0  0  0
   56.3767    7.7658   11.1631 H   0  0  0  0  0  0  0  0  0  0  0  0
   56.2340   -2.1072    2.9168 C   0  0  0  0  0  0  0  0  0  0  0  0
   55.0442   -2.9766    3.1235 N   0  0  0  0  0  0  0  0  0  0  0  0
   53.8198   -2.4398    2.8123 C   0  0  0  0  0  0  0  0  0  0  0  0
   55.1200   -4.2611    3.6241 C   0  0  0  0  0  0  0  0  0  0  0  0
   54.0163   -5.0424    3.7636 C   0  0  0  0  0  0  0  0  0  0  0  0
   52.7130   -4.5870    3.4462 C   0  0  0  0  0  0  0  0  0  0  0  0
   52.7277   -3.2655    2.9877 N   0  0  0  0  0  0  0  0  0  0  0  0
   56.2510   -4.8899    3.9906 N   0  0  0  0  0  0  0  0  0  0  0  0
   55.8116   -6.0944    4.3780 C   0  0  0  0  0  0  0  0  0  0  0  0
   54.4957   -6.2403    4.2551 N   0  0  0  0  0  0  0  0  0  0  0  0
   51.6511   -5.2157    3.5217 O   0  0  0  0  0  0  0  0  0  0  0  0
   53.6608   -1.3224    2.3606 O   0  0  0  0  0  0  0  0  0  0  0  0
   51.8517   -2.8767    2.7624 H   0  0  0  0  0  0  0  0  0  0  0  0
   53.7145   -7.4884    4.4383 C   0  0  0  0  0  0  0  0  0  0  0  0
   54.0216   -8.0767    5.7990 C   0  0  0  0  0  0  0  0  0  0  0  0
 24 13  2  0  0  0
 13 20  1  0  0  0
 13 21  1  0  0  0
 20 14  1  0  0  0
 21 23  1  0  0  0
 16 14  2  0  0  0
 16 17  1  0  0  0
 14 15  1  0  0  0
 17 18  2  0  0  0
 23 22  1  0  0  0
 15 22  1  0  0  0
 15 19  2  0  0  0
 18 19  1  0  0  0
 18 10  1  0  0  0
 12 10  2  0  0  0
 10  8  1  0  0  0
 10 11  2  0  0  0
  8  7  1  0  0  0
  7  2  1  0  0  0
  3  2  2  0  0  0
  3  1  1  0  0  0
  2  6  1  0  0  0
  1  4  2  0  0  0
  6  5  2  0  0  0
 37 28  2  0  0  0
  4  5  1  0  0  0
  4 26  1  0  0  0
 26 27  1  0  0  0
 28 27  1  0  0  0
 28 32  1  0  0  0
 27 29  1  0  0  0
 32 31  1  0  0  0
 29 30  2  0  0  0
 29 33  1  0  0  0
 31 36  2  0  0  0
 31 30  1  0  0  0
 30 35  1  0  0  0
 33 34  2  0  0  0
 35 34  1  0  0  0
 35 39  1  0  0  0
 40 39  1  0  0  0
 20 25  1  0  0  0
  8  9  1  0  0  0
 32 38  1  0  0  0
M  END
> <minimizedAffinity>
-8.48614

$$$$
6FO5_DZH_A_201


 40 44  0  0  0  0  0  0  0  0999 V2000
   59.3146    1.3156    5.4414 C   0  0  0  0  0  0  0  0  0  0  0  0
   57.3564    1.1014    4.0134 C   0  0  0  0  0  0  0  0  0  0  0  0
   58.7087    1.3425    4.1915 C   0  0  0  0  0  0  0  0  0  0  0  0
   58.5629    0.9638    6.5610 C   0  0  0  0  0  0  0  0  0  0  0  0
   57.2068    0.7153    6.3747 C   0  0  0  0  0  0  0  0  0  0  0  0
   56.5961    0.7386    5.1170 C   0  0  0  0  0  0  0  0  0  0  0  0
   56.7348    1.2487    2.6633 C   0  0  0  0  0  0  0  0  0  0  0  0
   56.3373    2.6398    2.3715 N   0  0  0  0  0  0  0  0  0  0  0  0
   55.4107    2.6120    1.9458 H   0  0  0  0  0  0  0  0  0  0  0  0
   57.3012    3.4902    1.3872 S   0  0  0  0  0  0  0  0  0  0  0  0
   56.4726    4.2090    0.4939 O   0  0  0  0  0  0  0  0  0  0  0  0
   58.2566    2.5261    0.8708 O   0  0  0  0  0  0  0  0  0  0  0  0
   61.4054    7.9358    4.5106 C   0  0  0  0  0  0  0  0  0  0  0  0
   59.5377    6.4883    3.8795 C   0  0  0  0  0  0  0  0  0  0  0  0
   59.6378    6.5465    2.4847 C   0  0  0  0  0  0  0  0  0  0  0  0
   58.7345    5.5362    4.4750 C   0  0  0  0  0  0  0  0  0  0  0  0
   58.0539    4.6679    3.7343 C   0  0  0  0  0  0  0  0  0  0  0  0
   58.1956    4.6719    2.3578 C   0  0  0  0  0  0  0  0  0  0  0  0
   58.9611    5.5846    1.7443 C   0  0  0  0  0  0  0  0  0  0  0  0
   60.1843    7.4593    4.6757 N   0  0  0  0  0  0  0  0  0  0  0  0
   62.2374    7.2816    3.4770 C   0  0  0  0  0  0  0  0  0  0  0  0
   60.3456    7.7054    1.8648 C   0  0  0  0  0  0  0  0  0  0  0  0
   61.8440    7.6776    2.0241 C   0  0  0  0  0  0  0  0  0  0  0  0
   61.8785    8.8073    5.2363 O   0  0  0  0  0  0  0  0  0  0  0  0
   59.6704    7.8193    5.4343 H   0  0  0  0  0  0  0  0  0  0  0  0
   59.2054    0.8975    7.9258 C   0  0  0  0  0  0  0  0  0  0  0  0
   58.4394    1.6512    8.9553 N   0  0  0  0  0  0  0  0  0  0  0  0
   58.0382    0.9532   10.0670 C   0  0  0  0  0  0  0  0  0  0  0  0
   58.1060    2.9850    8.8285 C   0  0  0  0  0  0  0  0  0  0  0  0
   57.4388    3.6532    9.8064 C   0  0  0  0  0  0  0  0  0  0  0  0
   57.0047    3.0265   11.0003 C   0  0  0  0  0  0  0  0  0  0  0  0
   57.3484    1.6707   11.0234 N   0  0  0  0  0  0  0  0  0  0  0  0
   58.4148    3.7700    7.7809 N   0  0  0  0  0  0  0  0  0  0  0  0
   57.9035    4.9562    8.1350 C   0  0  0  0  0  0  0  0  0  0  0  0
   57.3218    4.9441    9.3306 N   0  0  0  0  0  0  0  0  0  0  0  0
   56.4076    3.5412   11.9527 O   0  0  0  0  0  0  0  0  0  0  0  0
   58.2931   -0.2190   10.2642 O   0  0  0  0  0  0  0  0  0  0  0  0
   57.0635    1.1664   11.8195 H   0  0  0  0  0  0  0  0  0  0  0  0
   56.8060    6.1131   10.0848 C   0  0  0  0  0  0  0  0  0  0  0  0
   55.2927    6.1075   10.0444 C   0  0  0  0  0  0  0  0  0  0  0  0
 24 13  2  0  0  0
 13 20  1  0  0  0
 13 21  1  0  0  0
 20 14  1  0  0  0
 21 23  1  0  0  0
 16 14  2  0  0  0
 16 17  1  0  0  0
 14 15  1  0  0  0
 17 18  2  0  0  0
 23 22  1  0  0  0
 15 22  1  0  0  0
 15 19  2  0  0  0
 18 19  1  0  0  0
 18 10  1  0  0  0
 12 10  2  0  0  0
 10  8  1  0  0  0
 10 11  2  0  0  0
  8  7  1  0  0  0
  7  2  1  0  0  0
  3  2  2  0  0  0
  3  1  1  0  0  0
  2  6  1  0  0  0
  1  4  2  0  0  0
  6  5  2  0  0  0
 37 28  2  0  0  0
  4  5  1  0  0  0
  4 26  1  0  0  0
 26 27  1  0  0  0
 28 27  1  0  0  0
 28 32  1  0  0  0
 27 29  1  0  0  0
 32 31  1  0  0  0
 29 30  2  0  0  0
 29 33  1  0  0  0
 31 36  2  0  0  0
 31 30  1  0  0  0
 30 35  1  0  0  0
 33 34  2  0  0  0
 35 34  1  0  0  0
 35 39  1  0  0  0
 40 39  1  0  0  0
 20 25  1  0  0  0
  8  9  1  0  0  0
 32 38  1  0  0  0
M  END
> <minimizedAffinity>
-8.29715

$$$$
6FO5_DZH_A_201


 40 44  0  0  0  0  0  0  0  0999 V2000
   58.9422   -0.8242    6.2956 C   0  0  0  0  0  0  0  0  0  0  0  0
   56.8005   -1.2567    5.2253 C   0  0  0  0  0  0  0  0  0  0  0  0
   58.1333   -1.5646    5.4426 C   0  0  0  0  0  0  0  0  0  0  0  0
   58.3899    0.2281    7.0236 C   0  0  0  0  0  0  0  0  0  0  0  0
   57.0487    0.5278    6.8068 C   0  0  0  0  0  0  0  0  0  0  0  0
   56.2324   -0.2185    5.9512 C   0  0  0  0  0  0  0  0  0  0  0  0
   56.0044   -2.0185    4.2168 C   0  0  0  0  0  0  0  0  0  0  0  0
   55.6354   -1.1961    3.0480 N   0  0  0  0  0  0  0  0  0  0  0  0
   54.8264   -1.6338    2.6073 H   0  0  0  0  0  0  0  0  0  0  0  0
   56.7636   -0.9930    1.9047 S   0  0  0  0  0  0  0  0  0  0  0  0
   56.1063   -0.5675    0.7266 O   0  0  0  0  0  0  0  0  0  0  0  0
   57.5241   -2.2301    1.9023 O   0  0  0  0  0  0  0  0  0  0  0  0
   60.3438    4.5808    3.4795 C   0  0  0  0  0  0  0  0  0  0  0  0
   59.5523    2.2827    3.2069 C   0  0  0  0  0  0  0  0  0  0  0  0
   58.1702    2.4826    3.3002 C   0  0  0  0  0  0  0  0  0  0  0  0
   60.0463    1.0782    2.7473 C   0  0  0  0  0  0  0  0  0  0  0  0
   59.2193    0.1021    2.3879 C   0  0  0  0  0  0  0  0  0  0  0  0
   57.8514    0.3100    2.4124 C   0  0  0  0  0  0  0  0  0  0  0  0
   57.3353    1.4634    2.8580 C   0  0  0  0  0  0  0  0  0  0  0  0
   60.4430    3.2769    3.6683 N   0  0  0  0  0  0  0  0  0  0  0  0
   59.2725    5.0381    2.5674 C   0  0  0  0  0  0  0  0  0  0  0  0
   57.6683    3.7089    3.9877 C   0  0  0  0  0  0  0  0  0  0  0  0
   57.8529    4.9824    3.2031 C   0  0  0  0  0  0  0  0  0  0  0  0
   61.1522    5.3797    3.9465 O   0  0  0  0  0  0  0  0  0  0  0  0
   61.2205    2.9653    4.1856 H   0  0  0  0  0  0  0  0  0  0  0  0
   59.2411    1.0284    7.9802 C   0  0  0  0  0  0  0  0  0  0  0  0
   58.4306    1.7608    8.9907 N   0  0  0  0  0  0  0  0  0  0  0  0
   58.0570    1.0635   10.1125 C   0  0  0  0  0  0  0  0  0  0  0  0
   58.0313    3.0735    8.8373 C   0  0  0  0  0  0  0  0  0  0  0  0
   57.3241    3.7247    9.7985 C   0  0  0  0  0  0  0  0  0  0  0  0
   56.9135    3.0984   11.0009 C   0  0  0  0  0  0  0  0  0  0  0  0
   57.3250    1.7624   11.0512 N   0  0  0  0  0  0  0  0  0  0  0  0
   58.3076    3.8541    7.7774 N   0  0  0  0  0  0  0  0  0  0  0  0
   57.7345    5.0191    8.1063 C   0  0  0  0  0  0  0  0  0  0  0  0
   57.1456    4.9991    9.2983 N   0  0  0  0  0  0  0  0  0  0  0  0
   56.2844    3.5994   11.9400 O   0  0  0  0  0  0  0  0  0  0  0  0
   58.3693   -0.0905   10.3329 O   0  0  0  0  0  0  0  0  0  0  0  0
   57.0601    1.2588   11.8546 H   0  0  0  0  0  0  0  0  0  0  0  0
   56.5660    6.1541   10.0276 C   0  0  0  0  0  0  0  0  0  0  0  0
   55.0565    6.0397   10.0286 C   0  0  0  0  0  0  0  0  0  0  0  0
 24 13  2  0  0  0
 13 20  1  0  0  0
 13 21  1  0  0  0
 20 14  1  0  0  0
 21 23  1  0  0  0
 16 14  2  0  0  0
 16 17  1  0  0  0
 14 15  1  0  0  0
 17 18  2  0  0  0
 23 22  1  0  0  0
 15 22  1  0  0  0
 15 19  2  0  0  0
 18 19  1  0  0  0
 18 10  1  0  0  0
 12 10  2  0  0  0
 10  8  1  0  0  0
 10 11  2  0  0  0
  8  7  1  0  0  0
  7  2  1  0  0  0
  3  2  2  0  0  0
  3  1  1  0  0  0
  2  6  1  0  0  0
  1  4  2  0  0  0
  6  5  2  0  0  0
 37 28  2  0  0  0
  4  5  1  0  0  0
  4 26  1  0  0  0
 26 27  1  0  0  0
 28 27  1  0  0  0
 28 32  1  0  0  0
 27 29  1  0  0  0
 32 31  1  0  0  0
 29 30  2  0  0  0
 29 33  1  0  0  0
 31 36  2  0  0  0
 31 30  1  0  0  0
 30 35  1  0  0  0
 33 34  2  0  0  0
 35 34  1  0  0  0
 35 39  1  0  0  0
 40 39  1  0  0  0
 20 25  1  0  0  0
  8  9  1  0  0  0
 32 38  1  0  0  0
M  END
> <minimizedAffinity>
-8.14656

$$$$
6FO5_DZH_A_201


 40 44  0  0  0  0  0  0  0  0999 V2000
   55.5483   -0.6067    2.6232 C   0  0  0  0  0  0  0  0  0  0  0  0
   56.2401    0.2347    4.7988 C   0  0  0  0  0  0  0  0  0  0  0  0
   56.0448    0.4031    3.4379 C   0  0  0  0  0  0  0  0  0  0  0  0
   55.1590   -1.8181    3.1918 C   0  0  0  0  0  0  0  0  0  0  0  0
   55.3506   -1.9787    4.5605 C   0  0  0  0  0  0  0  0  0  0  0  0
   55.8469   -0.9622    5.3824 C   0  0  0  0  0  0  0  0  0  0  0  0
   56.8773    1.3154    5.6094 C   0  0  0  0  0  0  0  0  0  0  0  0
   57.5540    0.7958    6.8138 N   0  0  0  0  0  0  0  0  0  0  0  0
   56.8475    0.6897    7.5418 H   0  0  0  0  0  0  0  0  0  0  0  0
   58.7560    1.6905    7.4269 S   0  0  0  0  0  0  0  0  0  0  0  0
   59.5203    2.1804    6.3419 O   0  0  0  0  0  0  0  0  0  0  0  0
   59.3811    0.8454    8.4288 O   0  0  0  0  0  0  0  0  0  0  0  0
   55.3506    6.5072   10.8280 C   0  0  0  0  0  0  0  0  0  0  0  0
   57.0000    5.2565    9.5252 C   0  0  0  0  0  0  0  0  0  0  0  0
   56.8586    3.9870   10.0973 C   0  0  0  0  0  0  0  0  0  0  0  0
   57.6988    5.4076    8.3441 C   0  0  0  0  0  0  0  0  0  0  0  0
   58.2393    4.3547    7.7398 C   0  0  0  0  0  0  0  0  0  0  0  0
   58.0507    3.0862    8.2595 C   0  0  0  0  0  0  0  0  0  0  0  0
   57.3836    2.9013    9.4068 C   0  0  0  0  0  0  0  0  0  0  0  0
   56.5079    6.3950   10.2007 N   0  0  0  0  0  0  0  0  0  0  0  0
   54.4076    5.3763   10.6848 C   0  0  0  0  0  0  0  0  0  0  0  0
   56.2792    3.8797   11.4689 C   0  0  0  0  0  0  0  0  0  0  0  0
   54.7956    4.1350   11.5399 C   0  0  0  0  0  0  0  0  0  0  0  0
   55.0157    7.5309   11.4192 O   0  0  0  0  0  0  0  0  0  0  0  0
   57.0892    7.1896   10.2045 H   0  0  0  0  0  0  0  0  0  0  0  0
   54.5878   -2.9202    2.3321 C   0  0  0  0  0  0  0  0  0  0  0  0
   54.8044   -4.2714    2.9166 N   0  0  0  0  0  0  0  0  0  0  0  0
   56.0544   -4.8194    2.7705 C   0  0  0  0  0  0  0  0  0  0  0  0
   53.8161   -4.9861    3.5638 C   0  0  0  0  0  0  0  0  0  0  0  0
   54.0588   -6.2023    4.1207 C   0  0  0  0  0  0  0  0  0  0  0  0
   55.3220   -6.8389    4.0444 C   0  0  0  0  0  0  0  0  0  0  0  0
   56.2468   -6.0632    3.3374 N   0  0  0  0  0  0  0  0  0  0  0  0
   52.5492   -4.5740    3.7483 N   0  0  0  0  0  0  0  0  0  0  0  0
   52.0020   -5.5866    4.4334 C   0  0  0  0  0  0  0  0  0  0  0  0
   52.8561   -6.5733    4.6882 N   0  0  0  0  0  0  0  0  0  0  0  0
   55.6514   -7.9294    4.5248 O   0  0  0  0  0  0  0  0  0  0  0  0
   56.9840   -4.2594    2.2227 O   0  0  0  0  0  0  0  0  0  0  0  0
   57.1449   -6.4520    3.2311 H   0  0  0  0  0  0  0  0  0  0  0  0
   52.6232   -7.7544    5.5555 C   0  0  0  0  0  0  0  0  0  0  0  0
   51.1341   -7.9939    5.6869 C   0  0  0  0  0  0  0  0  0  0  0  0
 24 13  2  0  0  0
 13 20  1  0  0  0
 13 21  1  0  0  0
 20 14  1  0  0  0
 21 23  1  0  0  0
 16 14  2  0  0  0
 16 17  1  0  0  0
 14 15  1  0  0  0
 17 18  2  0  0  0
 23 22  1  0  0  0
 15 22  1  0  0  0
 15 19  2  0  0  0
 18 19  1  0  0  0
 18 10  1  0  0  0
 12 10  2  0  0  0
 10  8  1  0  0  0
 10 11  2  0  0  0
  8  7  1  0  0  0
  7  2  1  0  0  0
  3  2  2  0  0  0
  3  1  1  0  0  0
  2  6  1  0  0  0
  1  4  2  0  0  0
  6  5  2  0  0  0
 37 28  2  0  0  0
  4  5  1  0  0  0
  4 26  1  0  0  0
 26 27  1  0  0  0
 28 27  1  0  0  0
 28 32  1  0  0  0
 27 29  1  0  0  0
 32 31  1  0  0  0
 29 30  2  0  0  0
 29 33  1  0  0  0
 31 36  2  0  0  0
 31 30  1  0  0  0
 30 35  1  0  0  0
 33 34  2  0  0  0
 35 34  1  0  0  0
 35 39  1  0  0  0
 40 39  1  0  0  0
 20 25  1  0  0  0
  8  9  1  0  0  0
 32 38  1  0  0  0
M  END
> <minimizedAffinity>
-8.02017

$$$$
6FO5_DZH_A_201


 40 44  0  0  0  0  0  0  0  0999 V2000
   55.6181   -0.2249    2.8253 C   0  0  0  0  0  0  0  0  0  0  0  0
   56.9669    0.5986    4.6753 C   0  0  0  0  0  0  0  0  0  0  0  0
   55.8521    0.6758    3.8568 C   0  0  0  0  0  0  0  0  0  0  0  0
   56.4905   -1.2956    2.6381 C   0  0  0  0  0  0  0  0  0  0  0  0
   57.6044   -1.3721    3.4682 C   0  0  0  0  0  0  0  0  0  0  0  0
   57.8395   -0.4685    4.5090 C   0  0  0  0  0  0  0  0  0  0  0  0
   57.2261    1.6545    5.6994 C   0  0  0  0  0  0  0  0  0  0  0  0
   57.5534    1.0911    7.0237 N   0  0  0  0  0  0  0  0  0  0  0  0
   56.6936    1.0754    7.5722 H   0  0  0  0  0  0  0  0  0  0  0  0
   58.6752    1.8658    7.8968 S   0  0  0  0  0  0  0  0  0  0  0  0
   59.6605    2.3423    7.0005 O   0  0  0  0  0  0  0  0  0  0  0  0
   59.0435    0.9342    8.9482 O   0  0  0  0  0  0  0  0  0  0  0  0
   55.0975    6.7169   11.0641 C   0  0  0  0  0  0  0  0  0  0  0  0
   56.7914    5.4643    9.8217 C   0  0  0  0  0  0  0  0  0  0  0  0
   56.6950    4.2197   10.4548 C   0  0  0  0  0  0  0  0  0  0  0  0
   57.4854    5.5828    8.6341 C   0  0  0  0  0  0  0  0  0  0  0  0
   58.0636    4.5219    8.0809 C   0  0  0  0  0  0  0  0  0  0  0  0
   57.9199    3.2741    8.6616 C   0  0  0  0  0  0  0  0  0  0  0  0
   57.2589    3.1212    9.8171 C   0  0  0  0  0  0  0  0  0  0  0  0
   56.2586    6.6159   10.4418 N   0  0  0  0  0  0  0  0  0  0  0  0
   54.1955    5.5475   10.9767 C   0  0  0  0  0  0  0  0  0  0  0  0
   56.1187    4.1583   11.8305 C   0  0  0  0  0  0  0  0  0  0  0  0
   54.6269    4.3637   11.8904 C   0  0  0  0  0  0  0  0  0  0  0  0
   54.7258    7.7555   11.6053 O   0  0  0  0  0  0  0  0  0  0  0  0
   56.8111    7.4299   10.4066 H   0  0  0  0  0  0  0  0  0  0  0  0
   56.2411   -2.3053    1.5435 C   0  0  0  0  0  0  0  0  0  0  0  0
   54.9567   -3.0354    1.7212 N   0  0  0  0  0  0  0  0  0  0  0  0
   54.9498   -4.0724    2.6205 C   0  0  0  0  0  0  0  0  0  0  0  0
   53.8074   -2.7325    1.0186 C   0  0  0  0  0  0  0  0  0  0  0  0
   52.6399   -3.3947    1.2340 C   0  0  0  0  0  0  0  0  0  0  0  0
   52.5265   -4.4620    2.1585 C   0  0  0  0  0  0  0  0  0  0  0  0
   53.7459   -4.7256    2.7914 N   0  0  0  0  0  0  0  0  0  0  0  0
   53.6912   -1.7623    0.0944 N   0  0  0  0  0  0  0  0  0  0  0  0
   52.4057   -1.8499   -0.2714 C   0  0  0  0  0  0  0  0  0  0  0  0
   51.7353   -2.7954    0.3802 N   0  0  0  0  0  0  0  0  0  0  0  0
   51.5165   -5.1173    2.4395 O   0  0  0  0  0  0  0  0  0  0  0  0
   55.9116   -4.4031    3.2864 O   0  0  0  0  0  0  0  0  0  0  0  0
   53.7452   -5.4680    3.4380 H   0  0  0  0  0  0  0  0  0  0  0  0
   50.2736   -3.0461    0.3351 C   0  0  0  0  0  0  0  0  0  0  0  0
   49.9902   -4.1882   -0.6174 C   0  0  0  0  0  0  0  0  0  0  0  0
 24 13  2  0  0  0
 13 20  1  0  0  0
 13 21  1  0  0  0
 20 14  1  0  0  0
 21 23  1  0  0  0
 16 14  2  0  0  0
 16 17  1  0  0  0
 14 15  1  0  0  0
 17 18  2  0  0  0
 23 22  1  0  0  0
 15 22  1  0  0  0
 15 19  2  0  0  0
 18 19  1  0  0  0
 18 10  1  0  0  0
 12 10  2  0  0  0
 10  8  1  0  0  0
 10 11  2  0  0  0
  8  7  1  0  0  0
  7  2  1  0  0  0
  3  2  2  0  0  0
  3  1  1  0  0  0
  2  6  1  0  0  0
  1  4  2  0  0  0
  6  5  2  0  0  0
 37 28  2  0  0  0
  4  5  1  0  0  0
  4 26  1  0  0  0
 26 27  1  0  0  0
 28 27  1  0  0  0
 28 32  1  0  0  0
 27 29  1  0  0  0
 32 31  1  0  0  0
 29 30  2  0  0  0
 29 33  1  0  0  0
 31 36  2  0  0  0
 31 30  1  0  0  0
 30 35  1  0  0  0
 33 34  2  0  0  0
 35 34  1  0  0  0
 35 39  1  0  0  0
 40 39  1  0  0  0
 20 25  1  0  0  0
  8  9  1  0  0  0
 32 38  1  0  0  0
M  END
> <minimizedAffinity>
-7.85931

$$$$
