3BU1_HSM_A_301


 11 11  0  0  0  0  0  0  0  0999 V2000
   15.3277   24.2044    9.6936 C   0  0  0  0  0  0  0  0  0  0  0  0
   15.7841   24.7827   10.8326 N   0  0  0  0  0  0  0  0  0  0  0  0
   14.2402   23.4169   10.0330 C   0  0  0  0  0  0  0  0  0  0  0  0
   15.0056   24.3700   11.8527 C   0  0  0  0  0  0  0  0  0  0  0  0
   14.0599   23.5365   11.3664 N   0  0  0  0  0  0  0  0  0  0  0  0
   13.3582   23.0916   11.8945 H   0  0  0  0  0  0  0  0  0  0  0  0
   15.8990   24.3889    8.3029 C   0  0  0  0  0  0  0  0  0  0  0  0
   17.6296   22.7806    8.9081 N   0  0  0  0  0  0  0  0  0  0  0  0
   17.3868   24.0673    8.2627 C   0  0  0  0  0  0  0  0  0  0  0  0
   18.6270   22.5687    8.8793 H   0  0  0  0  0  0  0  0  0  0  0  0
   17.1127   22.0511    8.4173 H   0  0  0  0  0  0  0  0  0  0  0  0
  8  9  1  0  0  0
  9  7  1  0  0  0
  7  1  1  0  0  0
  1  2  1  0  0  0
  1  3  2  0  0  0
  2  4  2  0  0  0
  3  5  1  0  0  0
  4  5  1  0  0  0
  8 10  1  0  0  0
  8 11  1  0  0  0
  5  6  1  0  0  0
M  END
> <minimizedAffinity>
-5.12295

$$$$
3BU1_HSM_A_301


 11 11  0  0  0  0  0  0  0  0999 V2000
   14.5512   24.7253   10.0905 C   0  0  0  0  0  0  0  0  0  0  0  0
   14.1721   23.4420   10.3127 N   0  0  0  0  0  0  0  0  0  0  0  0
   15.3560   24.7330    8.9635 C   0  0  0  0  0  0  0  0  0  0  0  0
   14.7224   22.6709    9.3538 C   0  0  0  0  0  0  0  0  0  0  0  0
   15.4451   23.4578    8.5267 N   0  0  0  0  0  0  0  0  0  0  0  0
   15.9509   23.1533    7.7389 H   0  0  0  0  0  0  0  0  0  0  0  0
   14.1623   25.9318   10.9199 C   0  0  0  0  0  0  0  0  0  0  0  0
   12.1444   24.8891   11.8081 N   0  0  0  0  0  0  0  0  0  0  0  0
   13.4055   25.5252   12.1771 C   0  0  0  0  0  0  0  0  0  0  0  0
   11.6404   24.6182   12.6525 H   0  0  0  0  0  0  0  0  0  0  0  0
   12.3338   24.0603   11.2445 H   0  0  0  0  0  0  0  0  0  0  0  0
  8  9  1  0  0  0
  9  7  1  0  0  0
  7  1  1  0  0  0
  1  2  1  0  0  0
  1  3  2  0  0  0
  2  4  2  0  0  0
  3  5  1  0  0  0
  4  5  1  0  0  0
  8 10  1  0  0  0
  8 11  1  0  0  0
  5  6  1  0  0  0
M  END
> <minimizedAffinity>
-4.83263

$$$$
3BU1_HSM_A_301


 11 11  0  0  0  0  0  0  0  0999 V2000
   14.6524   24.2100   10.6107 C   0  0  0  0  0  0  0  0  0  0  0  0
   15.5753   24.8748   11.3499 N   0  0  0  0  0  0  0  0  0  0  0  0
   13.4393   24.3093   11.2713 C   0  0  0  0  0  0  0  0  0  0  0  0
   14.9582   25.3749   12.4389 C   0  0  0  0  0  0  0  0  0  0  0  0
   13.6520   25.0323   12.3924 N   0  0  0  0  0  0  0  0  0  0  0  0
   12.9706   25.2694   13.0623 H   0  0  0  0  0  0  0  0  0  0  0  0
   14.9007   23.4935    9.2994 C   0  0  0  0  0  0  0  0  0  0  0  0
   17.0900   24.3509    8.6514 N   0  0  0  0  0  0  0  0  0  0  0  0
   15.6684   24.3707    8.3198 C   0  0  0  0  0  0  0  0  0  0  0  0
   17.6008   24.9394    7.9933 H   0  0  0  0  0  0  0  0  0  0  0  0
   17.4392   23.3942    8.5939 H   0  0  0  0  0  0  0  0  0  0  0  0
  8  9  1  0  0  0
  9  7  1  0  0  0
  7  1  1  0  0  0
  1  2  1  0  0  0
  1  3  2  0  0  0
  2  4  2  0  0  0
  3  5  1  0  0  0
  4  5  1  0  0  0
  8 10  1  0  0  0
  8 11  1  0  0  0
  5  6  1  0  0  0
M  END
> <minimizedAffinity>
-4.70506

$$$$
3BU1_HSM_A_301


 11 11  0  0  0  0  0  0  0  0999 V2000
   15.4821   23.6646    9.3800 C   0  0  0  0  0  0  0  0  0  0  0  0
   16.6298   22.9888    9.6372 N   0  0  0  0  0  0  0  0  0  0  0  0
   15.6995   24.4419    8.2546 C   0  0  0  0  0  0  0  0  0  0  0  0
   17.5368   23.3325    8.7011 C   0  0  0  0  0  0  0  0  0  0  0  0
   16.9701   24.2192    7.8536 N   0  0  0  0  0  0  0  0  0  0  0  0
   17.4089   24.6330    7.0755 H   0  0  0  0  0  0  0  0  0  0  0  0
   14.1952   23.5817   10.1748 C   0  0  0  0  0  0  0  0  0  0  0  0
   15.4817   24.8517   11.8119 N   0  0  0  0  0  0  0  0  0  0  0  0
   14.4346   23.8468   11.6550 C   0  0  0  0  0  0  0  0  0  0  0  0
   15.6392   25.0265   12.8044 H   0  0  0  0  0  0  0  0  0  0  0  0
   15.1934   25.7173   11.3557 H   0  0  0  0  0  0  0  0  0  0  0  0
  8  9  1  0  0  0
  9  7  1  0  0  0
  7  1  1  0  0  0
  1  2  1  0  0  0
  1  3  2  0  0  0
  2  4  2  0  0  0
  3  5  1  0  0  0
  4  5  1  0  0  0
  8 10  1  0  0  0
  8 11  1  0  0  0
  5  6  1  0  0  0
M  END
> <minimizedAffinity>
-4.36104

$$$$
3BU1_HSM_A_301


 11 11  0  0  0  0  0  0  0  0999 V2000
   13.3198   25.1147   11.5889 C   0  0  0  0  0  0  0  0  0  0  0  0
   12.1271   25.2567   12.2192 N   0  0  0  0  0  0  0  0  0  0  0  0
   13.9830   26.3275   11.6737 C   0  0  0  0  0  0  0  0  0  0  0  0
   12.0471   26.5193   12.6844 C   0  0  0  0  0  0  0  0  0  0  0  0
   13.1811   27.1755   12.3539 N   0  0  0  0  0  0  0  0  0  0  0  0
   13.3879   28.1130   12.5720 H   0  0  0  0  0  0  0  0  0  0  0  0
   13.8357   23.8582   10.9183 C   0  0  0  0  0  0  0  0  0  0  0  0
   14.9542   22.9642    8.9440 N   0  0  0  0  0  0  0  0  0  0  0  0
   14.6865   24.1849    9.6985 C   0  0  0  0  0  0  0  0  0  0  0  0
   15.5241   23.1870    8.1279 H   0  0  0  0  0  0  0  0  0  0  0  0
   14.0720   22.5519    8.6403 H   0  0  0  0  0  0  0  0  0  0  0  0
  8  9  1  0  0  0
  9  7  1  0  0  0
  7  1  1  0  0  0
  1  2  1  0  0  0
  1  3  2  0  0  0
  2  4  2  0  0  0
  3  5  1  0  0  0
  4  5  1  0  0  0
  8 10  1  0  0  0
  8 11  1  0  0  0
  5  6  1  0  0  0
M  END
> <minimizedAffinity>
-4.22463

$$$$
3BU1_HSM_A_301


 11 11  0  0  0  0  0  0  0  0999 V2000
   14.1229   26.1761   11.6774 C   0  0  0  0  0  0  0  0  0  0  0  0
   14.2427   25.7595   10.3921 N   0  0  0  0  0  0  0  0  0  0  0  0
   15.0535   25.4792   12.4299 C   0  0  0  0  0  0  0  0  0  0  0  0
   15.2187   24.8310   10.3422 C   0  0  0  0  0  0  0  0  0  0  0  0
   15.7172   24.6592   11.5862 N   0  0  0  0  0  0  0  0  0  0  0  0
   16.4417   24.0409   11.8355 H   0  0  0  0  0  0  0  0  0  0  0  0
   13.1522   27.2170   12.1960 C   0  0  0  0  0  0  0  0  0  0  0  0
   11.6575   25.2900   12.1728 N   0  0  0  0  0  0  0  0  0  0  0  0
   11.9215   26.5722   12.8189 C   0  0  0  0  0  0  0  0  0  0  0  0
   10.8327   24.8612   12.5925 H   0  0  0  0  0  0  0  0  0  0  0  0
   12.4613   24.6746   12.2975 H   0  0  0  0  0  0  0  0  0  0  0  0
  8  9  1  0  0  0
  9  7  1  0  0  0
  7  1  1  0  0  0
  1  2  1  0  0  0
  1  3  2  0  0  0
  2  4  2  0  0  0
  3  5  1  0  0  0
  4  5  1  0  0  0
  8 10  1  0  0  0
  8 11  1  0  0  0
  5  6  1  0  0  0
M  END
> <minimizedAffinity>
-4.11826

$$$$
3BU1_HSM_A_301


 11 11  0  0  0  0  0  0  0  0999 V2000
   13.9317   26.2753   13.2767 C   0  0  0  0  0  0  0  0  0  0  0  0
   13.0663   26.3314   14.3198 N   0  0  0  0  0  0  0  0  0  0  0  0
   14.3094   27.5739   12.9782 C   0  0  0  0  0  0  0  0  0  0  0  0
   12.9081   27.6252   14.6633 C   0  0  0  0  0  0  0  0  0  0  0  0
   13.6683   28.3866   13.8461 N   0  0  0  0  0  0  0  0  0  0  0  0
   13.7424   29.3678   13.8777 H   0  0  0  0  0  0  0  0  0  0  0  0
   14.4038   25.0217   12.5694 C   0  0  0  0  0  0  0  0  0  0  0  0
   12.0914   24.7614   11.8391 N   0  0  0  0  0  0  0  0  0  0  0  0
   13.4837   24.6519   11.4139 C   0  0  0  0  0  0  0  0  0  0  0  0
   11.4783   24.5131   11.0627 H   0  0  0  0  0  0  0  0  0  0  0  0
   11.8994   25.7198   12.1309 H   0  0  0  0  0  0  0  0  0  0  0  0
  8  9  1  0  0  0
  9  7  1  0  0  0
  7  1  1  0  0  0
  1  2  1  0  0  0
  1  3  2  0  0  0
  2  4  2  0  0  0
  3  5  1  0  0  0
  4  5  1  0  0  0
  8 10  1  0  0  0
  8 11  1  0  0  0
  5  6  1  0  0  0
M  END
> <minimizedAffinity>
-4.10080

$$$$
3BU1_HSM_A_301


 11 11  0  0  0  0  0  0  0  0999 V2000
   13.9825   25.8526   12.7222 C   0  0  0  0  0  0  0  0  0  0  0  0
   12.8701   25.2889   12.1884 N   0  0  0  0  0  0  0  0  0  0  0  0
   15.0746   25.1357   12.2624 C   0  0  0  0  0  0  0  0  0  0  0  0
   13.2548   24.2517   11.4182 C   0  0  0  0  0  0  0  0  0  0  0  0
   14.6020   24.1570   11.4602 N   0  0  0  0  0  0  0  0  0  0  0  0
   15.1469   23.4880   10.9863 H   0  0  0  0  0  0  0  0  0  0  0  0
   14.0246   27.0506   13.6483 C   0  0  0  0  0  0  0  0  0  0  0  0
   13.9239   25.7576   15.7137 N   0  0  0  0  0  0  0  0  0  0  0  0
   13.2501   26.7911   14.9333 C   0  0  0  0  0  0  0  0  0  0  0  0
   13.4024   25.5865   16.5734 H   0  0  0  0  0  0  0  0  0  0  0  0
   14.8680   26.0672   15.9446 H   0  0  0  0  0  0  0  0  0  0  0  0
  8  9  1  0  0  0
  9  7  1  0  0  0
  7  1  1  0  0  0
  1  2  1  0  0  0
  1  3  2  0  0  0
  2  4  2  0  0  0
  3  5  1  0  0  0
  4  5  1  0  0  0
  8 10  1  0  0  0
  8 11  1  0  0  0
  5  6  1  0  0  0
M  END
> <minimizedAffinity>
-4.09662

$$$$
3BU1_HSM_A_301


 11 11  0  0  0  0  0  0  0  0999 V2000
   13.4683   25.6340   11.6901 C   0  0  0  0  0  0  0  0  0  0  0  0
   13.1483   24.3158   11.6932 N   0  0  0  0  0  0  0  0  0  0  0  0
   14.3951   25.8354   10.6810 C   0  0  0  0  0  0  0  0  0  0  0  0
   13.8529   23.7116   10.7157 C   0  0  0  0  0  0  0  0  0  0  0  0
   14.6144   24.6386   10.0942 N   0  0  0  0  0  0  0  0  0  0  0  0
   15.2258   24.4703    9.3411 H   0  0  0  0  0  0  0  0  0  0  0  0
   12.9109   26.6944   12.6173 C   0  0  0  0  0  0  0  0  0  0  0  0
   14.3155   25.6045   14.2868 N   0  0  0  0  0  0  0  0  0  0  0  0
   13.8008   26.8942   13.8366 C   0  0  0  0  0  0  0  0  0  0  0  0
   14.9109   25.7423   15.1034 H   0  0  0  0  0  0  0  0  0  0  0  0
   14.8592   25.1752   13.5381 H   0  0  0  0  0  0  0  0  0  0  0  0
  8  9  1  0  0  0
  9  7  1  0  0  0
  7  1  1  0  0  0
  1  2  1  0  0  0
  1  3  2  0  0  0
  2  4  2  0  0  0
  3  5  1  0  0  0
  4  5  1  0  0  0
  8 10  1  0  0  0
  8 11  1  0  0  0
  5  6  1  0  0  0
M  END
> <minimizedAffinity>
-4.09610

$$$$
3BU1_HSM_A_301


 11 11  0  0  0  0  0  0  0  0999 V2000
   13.2521   26.1810   12.3113 C   0  0  0  0  0  0  0  0  0  0  0  0
   14.2590   26.9420   12.8085 N   0  0  0  0  0  0  0  0  0  0  0  0
   12.0592   26.7247   12.7577 C   0  0  0  0  0  0  0  0  0  0  0  0
   13.7124   27.9316   13.5427 C   0  0  0  0  0  0  0  0  0  0  0  0
   12.3679   27.8022   13.5118 N   0  0  0  0  0  0  0  0  0  0  0  0
   11.7223   28.3931   13.9626 H   0  0  0  0  0  0  0  0  0  0  0  0
   13.4030   24.9615   11.4254 C   0  0  0  0  0  0  0  0  0  0  0  0
   15.8027   24.8451   11.0055 N   0  0  0  0  0  0  0  0  0  0  0  0
   14.5108   25.1508   10.3981 C   0  0  0  0  0  0  0  0  0  0  0  0
   16.5420   24.9730   10.3145 H   0  0  0  0  0  0  0  0  0  0  0  0
   15.8051   23.8785   11.3311 H   0  0  0  0  0  0  0  0  0  0  0  0
  8  9  1  0  0  0
  9  7  1  0  0  0
  7  1  1  0  0  0
  1  2  1  0  0  0
  1  3  2  0  0  0
  2  4  2  0  0  0
  3  5  1  0  0  0
  4  5  1  0  0  0
  8 10  1  0  0  0
  8 11  1  0  0  0
  5  6  1  0  0  0
M  END
> <minimizedAffinity>
-3.72734

$$$$
