5C2O_TTP_A_704


 35 36  0  0  0  0  0  0  0  0999 V2000
   68.6499   58.5133   38.5025 C   0  0  0  0  0  0  0  0  0  0  0  0
   68.7331   59.8956   39.1365 C   0  0  0  0  0  0  0  0  0  0  0  0
   68.6019   59.8217   40.5589 O   0  0  0  0  0  0  0  0  0  0  0  0
   70.0932   60.4989   38.8698 C   0  0  0  0  0  0  0  0  0  0  0  0
   69.8714   61.8766   38.6006 O   0  0  0  0  0  0  0  0  0  0  0  0
   70.8552   60.4040   40.1814 C   0  0  0  0  0  0  0  0  0  0  0  0
   69.7574   60.3292   41.2301 C   0  0  0  0  0  0  0  0  0  0  0  0
   69.3969   62.2791   39.3447 H   0  0  0  0  0  0  0  0  0  0  0  0
   70.1167   59.4900   42.3955 N   0  0  0  0  0  0  0  0  0  0  0  0
   71.0049   60.0259   43.3712 C   0  0  0  0  0  0  0  0  0  0  0  0
   71.4656   61.1844   43.2132 O   0  0  0  0  0  0  0  0  0  0  0  0
   71.3570   59.3216   44.4735 N   0  0  0  0  0  0  0  0  0  0  0  0
   70.8786   58.0801   44.6681 C   0  0  0  0  0  0  0  0  0  0  0  0
   71.2083   57.4350   45.6903 O   0  0  0  0  0  0  0  0  0  0  0  0
   69.9521   57.4829   43.6539 C   0  0  0  0  0  0  0  0  0  0  0  0
   69.3931   56.0867   43.8494 C   0  0  0  0  0  0  0  0  0  0  0  0
   69.6073   58.2488   42.5384 C   0  0  0  0  0  0  0  0  0  0  0  0
   71.9663   59.7209   45.1357 H   0  0  0  0  0  0  0  0  0  0  0  0
   69.9058   58.1083   37.9606 O   0  0  0  0  0  0  0  0  0  0  0  0
   70.0101   57.7666   36.3784 P   0  0  0  0  0  0  0  0  0  0  0  0
   70.7408   58.8865   35.6703 O   0  0  0  0  0  0  0  0  0  0  0  0
   68.6422   57.5563   35.7591 O   0  0  0  0  0  0  0  0  0  0  0  0
   68.7420   57.3546   34.8156 H   0  0  0  0  0  0  0  0  0  0  0  0
   70.8253   56.3548   36.4271 O   0  0  0  0  0  0  0  0  0  0  0  0
   70.3031   54.9125   35.8897 P   0  0  0  0  0  0  0  0  0  0  0  0
   71.3490   53.8219   36.1031 O   0  0  0  0  0  0  0  0  0  0  0  0
   69.8796   54.9711   34.4351 O   0  0  0  0  0  0  0  0  0  0  0  0
   70.6592   55.1180   33.8770 H   0  0  0  0  0  0  0  0  0  0  0  0
   68.9490   54.6659   36.7494 O   0  0  0  0  0  0  0  0  0  0  0  0
   68.9000   54.2727   38.3256 P   0  0  0  0  0  0  0  0  0  0  0  0
   67.7836   55.0640   38.9793 O   0  0  0  0  0  0  0  0  0  0  0  0
   70.2276   54.6495   38.9487 O   0  0  0  0  0  0  0  0  0  0  0  0
   68.7384   52.7759   38.5188 O   0  0  0  0  0  0  0  0  0  0  0  0
   70.3731   55.6033   38.8477 H   0  0  0  0  0  0  0  0  0  0  0  0
   67.8961   52.4891   38.1324 H   0  0  0  0  0  0  0  0  0  0  0  0
 20 21  2  0  0  0
 20 22  1  0  0  0
 20 24  1  0  0  0
 20 19  1  0  0  0
 24 25  1  0  0  0
 25 26  2  0  0  0
 25 27  1  0  0  0
 25 29  1  0  0  0
 29 30  1  0  0  0
 30 31  2  0  0  0
 30 32  1  0  0  0
 30 33  1  0  0  0
 19  1  1  0  0  0
  1  2  1  0  0  0
  2  3  1  0  0  0
  2  4  1  0  0  0
  3  7  1  0  0  0
  4  5  1  0  0  0
  4  6  1  0  0  0
  6  7  1  0  0  0
  7  9  1  0  0  0
  9 10  1  0  0  0
  9 17  1  0  0  0
 10 11  2  0  0  0
 10 12  1  0  0  0
 12 13  1  0  0  0
 13 14  2  0  0  0
 13 15  1  0  0  0
 15 16  1  0  0  0
 15 17  2  0  0  0
 22 23  1  0  0  0
 27 28  1  0  0  0
 32 34  1  0  0  0
 33 35  1  0  0  0
  5  8  1  0  0  0
 12 18  1  0  0  0
M  END
> <minimizedAffinity>
-9.74098

$$$$
5C2O_TTP_A_704


 35 36  0  0  0  0  0  0  0  0999 V2000
   68.5695   58.6111   38.5194 C   0  0  0  0  0  0  0  0  0  0  0  0
   68.6956   59.9859   39.1624 C   0  0  0  0  0  0  0  0  0  0  0  0
   68.5849   59.9040   40.5861 O   0  0  0  0  0  0  0  0  0  0  0  0
   70.0654   60.5588   38.8788 C   0  0  0  0  0  0  0  0  0  0  0  0
   69.8724   61.9435   38.6235 O   0  0  0  0  0  0  0  0  0  0  0  0
   70.8453   60.4355   40.1775 C   0  0  0  0  0  0  0  0  0  0  0  0
   69.7625   60.3786   41.2428 C   0  0  0  0  0  0  0  0  0  0  0  0
   69.4193   62.3513   39.3780 H   0  0  0  0  0  0  0  0  0  0  0  0
   70.1198   59.5219   42.3960 N   0  0  0  0  0  0  0  0  0  0  0  0
   71.0058   60.0433   43.3816 C   0  0  0  0  0  0  0  0  0  0  0  0
   71.4664   61.2043   43.2421 O   0  0  0  0  0  0  0  0  0  0  0  0
   71.3559   59.3225   44.4738 N   0  0  0  0  0  0  0  0  0  0  0  0
   70.8776   58.0781   44.6485 C   0  0  0  0  0  0  0  0  0  0  0  0
   71.2055   57.4176   45.6615 O   0  0  0  0  0  0  0  0  0  0  0  0
   69.9533   57.4960   43.6236 C   0  0  0  0  0  0  0  0  0  0  0  0
   69.3944   56.0968   43.7967 C   0  0  0  0  0  0  0  0  0  0  0  0
   69.6105   58.2786   42.5191 C   0  0  0  0  0  0  0  0  0  0  0  0
   71.9638   59.7119   45.1432 H   0  0  0  0  0  0  0  0  0  0  0  0
   69.8189   58.1578   38.0013 O   0  0  0  0  0  0  0  0  0  0  0  0
   69.8909   57.6166   36.4738 P   0  0  0  0  0  0  0  0  0  0  0  0
   70.8022   58.5146   35.6658 O   0  0  0  0  0  0  0  0  0  0  0  0
   68.5165   57.5514   35.8370 O   0  0  0  0  0  0  0  0  0  0  0  0
   68.5968   57.2248   34.9272 H   0  0  0  0  0  0  0  0  0  0  0  0
   70.4685   56.1103   36.7137 O   0  0  0  0  0  0  0  0  0  0  0  0
   69.6457   54.8358   37.2971 P   0  0  0  0  0  0  0  0  0  0  0  0
   68.1949   55.1968   37.6030 O   0  0  0  0  0  0  0  0  0  0  0  0
   70.3184   54.2400   38.5183 O   0  0  0  0  0  0  0  0  0  0  0  0
   70.2604   54.8659   39.2570 H   0  0  0  0  0  0  0  0  0  0  0  0
   69.7864   53.7327   36.1151 O   0  0  0  0  0  0  0  0  0  0  0  0
   69.7638   54.0590   34.5232 P   0  0  0  0  0  0  0  0  0  0  0  0
   68.4858   54.8128   34.2097 O   0  0  0  0  0  0  0  0  0  0  0  0
   69.7812   52.7451   33.7707 O   0  0  0  0  0  0  0  0  0  0  0  0
   71.0050   54.8211   34.0958 O   0  0  0  0  0  0  0  0  0  0  0  0
   69.0012   52.2225   34.0146 H   0  0  0  0  0  0  0  0  0  0  0  0
   71.0349   55.6744   34.5561 H   0  0  0  0  0  0  0  0  0  0  0  0
 20 21  2  0  0  0
 20 22  1  0  0  0
 20 24  1  0  0  0
 20 19  1  0  0  0
 24 25  1  0  0  0
 25 26  2  0  0  0
 25 27  1  0  0  0
 25 29  1  0  0  0
 29 30  1  0  0  0
 30 31  2  0  0  0
 30 32  1  0  0  0
 30 33  1  0  0  0
 19  1  1  0  0  0
  1  2  1  0  0  0
  2  3  1  0  0  0
  2  4  1  0  0  0
  3  7  1  0  0  0
  4  5  1  0  0  0
  4  6  1  0  0  0
  6  7  1  0  0  0
  7  9  1  0  0  0
  9 10  1  0  0  0
  9 17  1  0  0  0
 10 11  2  0  0  0
 10 12  1  0  0  0
 12 13  1  0  0  0
 13 14  2  0  0  0
 13 15  1  0  0  0
 15 16  1  0  0  0
 15 17  2  0  0  0
 22 23  1  0  0  0
 27 28  1  0  0  0
 32 34  1  0  0  0
 33 35  1  0  0  0
  5  8  1  0  0  0
 12 18  1  0  0  0
M  END
> <minimizedAffinity>
-9.41718

$$$$
5C2O_TTP_A_704


 35 36  0  0  0  0  0  0  0  0999 V2000
   72.1015   58.9690   43.5910 C   0  0  0  0  0  0  0  0  0  0  0  0
   71.3909   58.4535   44.8356 C   0  0  0  0  0  0  0  0  0  0  0  0
   69.9703   58.5376   44.6932 O   0  0  0  0  0  0  0  0  0  0  0  0
   71.7082   56.9891   45.0352 C   0  0  0  0  0  0  0  0  0  0  0  0
   71.8777   56.8059   46.4343 O   0  0  0  0  0  0  0  0  0  0  0  0
   70.4571   56.2319   44.6211 C   0  0  0  0  0  0  0  0  0  0  0  0
   69.3458   57.2554   44.7884 C   0  0  0  0  0  0  0  0  0  0  0  0
   71.0812   57.1071   46.8987 H   0  0  0  0  0  0  0  0  0  0  0  0
   68.2597   57.1087   43.7932 N   0  0  0  0  0  0  0  0  0  0  0  0
   66.9130   57.2686   44.2281 C   0  0  0  0  0  0  0  0  0  0  0  0
   66.6829   57.5174   45.4382 O   0  0  0  0  0  0  0  0  0  0  0  0
   65.8725   57.1710   43.3661 N   0  0  0  0  0  0  0  0  0  0  0  0
   66.0899   56.9061   42.0659 C   0  0  0  0  0  0  0  0  0  0  0  0
   65.1226   56.8177   41.2745 O   0  0  0  0  0  0  0  0  0  0  0  0
   67.4943   56.7201   41.5792 C   0  0  0  0  0  0  0  0  0  0  0  0
   67.7700   56.4254   40.1172 C   0  0  0  0  0  0  0  0  0  0  0  0
   68.5368   56.8404   42.5003 C   0  0  0  0  0  0  0  0  0  0  0  0
   64.9523   57.2946   43.6934 H   0  0  0  0  0  0  0  0  0  0  0  0
   71.2596   58.9033   42.4413 O   0  0  0  0  0  0  0  0  0  0  0  0
   70.7744   60.2821   41.7378 P   0  0  0  0  0  0  0  0  0  0  0  0
   71.9618   60.9590   41.0887 O   0  0  0  0  0  0  0  0  0  0  0  0
   70.1146   61.2168   42.7327 O   0  0  0  0  0  0  0  0  0  0  0  0
   69.8378   62.0284   42.2793 H   0  0  0  0  0  0  0  0  0  0  0  0
   69.6660   59.7112   40.6863 O   0  0  0  0  0  0  0  0  0  0  0  0
   69.5533   60.0680   39.1046 P   0  0  0  0  0  0  0  0  0  0  0  0
   70.5280   61.1731   38.7078 O   0  0  0  0  0  0  0  0  0  0  0  0
   68.1369   60.4352   38.7077 O   0  0  0  0  0  0  0  0  0  0  0  0
   67.8951   61.2805   39.1174 H   0  0  0  0  0  0  0  0  0  0  0  0
   69.8766   58.6512   38.3822 O   0  0  0  0  0  0  0  0  0  0  0  0
   69.7125   58.3522   36.7932 P   0  0  0  0  0  0  0  0  0  0  0  0
   70.8809   57.4948   36.3468 O   0  0  0  0  0  0  0  0  0  0  0  0
   69.7379   59.6756   36.0577 O   0  0  0  0  0  0  0  0  0  0  0  0
   68.3722   57.7096   36.4856 O   0  0  0  0  0  0  0  0  0  0  0  0
   70.5815   60.1234   36.2269 H   0  0  0  0  0  0  0  0  0  0  0  0
   68.3120   56.8542   36.9391 H   0  0  0  0  0  0  0  0  0  0  0  0
 20 21  2  0  0  0
 20 22  1  0  0  0
 20 24  1  0  0  0
 20 19  1  0  0  0
 24 25  1  0  0  0
 25 26  2  0  0  0
 25 27  1  0  0  0
 25 29  1  0  0  0
 29 30  1  0  0  0
 30 31  2  0  0  0
 30 32  1  0  0  0
 30 33  1  0  0  0
 19  1  1  0  0  0
  1  2  1  0  0  0
  2  3  1  0  0  0
  2  4  1  0  0  0
  3  7  1  0  0  0
  4  5  1  0  0  0
  4  6  1  0  0  0
  6  7  1  0  0  0
  7  9  1  0  0  0
  9 10  1  0  0  0
  9 17  1  0  0  0
 10 11  2  0  0  0
 10 12  1  0  0  0
 12 13  1  0  0  0
 13 14  2  0  0  0
 13 15  1  0  0  0
 15 16  1  0  0  0
 15 17  2  0  0  0
 22 23  1  0  0  0
 27 28  1  0  0  0
 32 34  1  0  0  0
 33 35  1  0  0  0
  5  8  1  0  0  0
 12 18  1  0  0  0
M  END
> <minimizedAffinity>
-9.22504

$$$$
5C2O_TTP_A_704


 35 36  0  0  0  0  0  0  0  0999 V2000
   68.2332   55.0556   40.8365 C   0  0  0  0  0  0  0  0  0  0  0  0
   68.2866   55.3253   42.3345 C   0  0  0  0  0  0  0  0  0  0  0  0
   69.4327   56.1084   42.6792 O   0  0  0  0  0  0  0  0  0  0  0  0
   67.0812   56.1371   42.7506 C   0  0  0  0  0  0  0  0  0  0  0  0
   66.6635   55.6148   44.0046 O   0  0  0  0  0  0  0  0  0  0  0  0
   67.5919   57.5488   42.9881 C   0  0  0  0  0  0  0  0  0  0  0  0
   69.0695   57.3511   43.2850 C   0  0  0  0  0  0  0  0  0  0  0  0
   67.4025   55.6501   44.6319 H   0  0  0  0  0  0  0  0  0  0  0  0
   69.9190   58.4595   42.7939 N   0  0  0  0  0  0  0  0  0  0  0  0
   70.9106   58.9938   43.6655 C   0  0  0  0  0  0  0  0  0  0  0  0
   71.0303   58.5213   44.8238 O   0  0  0  0  0  0  0  0  0  0  0  0
   71.7374   59.9923   43.2726 N   0  0  0  0  0  0  0  0  0  0  0  0
   71.6316   60.5161   42.0387 C   0  0  0  0  0  0  0  0  0  0  0  0
   72.4002   61.4392   41.6823 O   0  0  0  0  0  0  0  0  0  0  0  0
   70.5904   59.9847   41.1021 C   0  0  0  0  0  0  0  0  0  0  0  0
   70.4513   60.5528   39.7029 C   0  0  0  0  0  0  0  0  0  0  0  0
   69.7671   58.9476   41.5453 C   0  0  0  0  0  0  0  0  0  0  0  0
   72.4194   60.3363   43.8937 H   0  0  0  0  0  0  0  0  0  0  0  0
   68.9935   56.0145   40.1034 O   0  0  0  0  0  0  0  0  0  0  0  0
   68.2817   56.8304   38.8956 P   0  0  0  0  0  0  0  0  0  0  0  0
   67.2235   57.7493   39.4660 O   0  0  0  0  0  0  0  0  0  0  0  0
   67.6698   55.8947   37.8714 O   0  0  0  0  0  0  0  0  0  0  0  0
   67.2543   56.4147   37.1659 H   0  0  0  0  0  0  0  0  0  0  0  0
   69.5675   57.6005   38.2522 O   0  0  0  0  0  0  0  0  0  0  0  0
   69.8269   57.9094   36.6777 P   0  0  0  0  0  0  0  0  0  0  0  0
   70.3035   59.3423   36.4580 O   0  0  0  0  0  0  0  0  0  0  0  0
   68.6007   57.6176   35.8351 O   0  0  0  0  0  0  0  0  0  0  0  0
   67.9026   58.2565   36.0480 H   0  0  0  0  0  0  0  0  0  0  0  0
   70.9393   56.8031   36.2625 O   0  0  0  0  0  0  0  0  0  0  0  0
   70.6734   55.2034   36.1551 P   0  0  0  0  0  0  0  0  0  0  0  0
   69.4373   54.9822   35.3049 O   0  0  0  0  0  0  0  0  0  0  0  0
   70.4368   54.6683   37.5517 O   0  0  0  0  0  0  0  0  0  0  0  0
   71.8885   54.4748   35.6105 O   0  0  0  0  0  0  0  0  0  0  0  0
   69.6648   55.1089   37.9403 H   0  0  0  0  0  0  0  0  0  0  0  0
   72.0777   54.7881   34.7122 H   0  0  0  0  0  0  0  0  0  0  0  0
 20 21  2  0  0  0
 20 22  1  0  0  0
 20 24  1  0  0  0
 20 19  1  0  0  0
 24 25  1  0  0  0
 25 26  2  0  0  0
 25 27  1  0  0  0
 25 29  1  0  0  0
 29 30  1  0  0  0
 30 31  2  0  0  0
 30 32  1  0  0  0
 30 33  1  0  0  0
 19  1  1  0  0  0
  1  2  1  0  0  0
  2  3  1  0  0  0
  2  4  1  0  0  0
  3  7  1  0  0  0
  4  5  1  0  0  0
  4  6  1  0  0  0
  6  7  1  0  0  0
  7  9  1  0  0  0
  9 10  1  0  0  0
  9 17  1  0  0  0
 10 11  2  0  0  0
 10 12  1  0  0  0
 12 13  1  0  0  0
 13 14  2  0  0  0
 13 15  1  0  0  0
 15 16  1  0  0  0
 15 17  2  0  0  0
 22 23  1  0  0  0
 27 28  1  0  0  0
 32 34  1  0  0  0
 33 35  1  0  0  0
  5  8  1  0  0  0
 12 18  1  0  0  0
M  END
> <minimizedAffinity>
-9.06101

$$$$
5C2O_TTP_A_704


 35 36  0  0  0  0  0  0  0  0999 V2000
   67.4859   55.3385   41.2601 C   0  0  0  0  0  0  0  0  0  0  0  0
   67.8907   55.4770   42.7218 C   0  0  0  0  0  0  0  0  0  0  0  0
   69.1629   56.1181   42.8484 O   0  0  0  0  0  0  0  0  0  0  0  0
   66.9000   56.3606   43.4447 C   0  0  0  0  0  0  0  0  0  0  0  0
   66.7082   55.7775   44.7265 O   0  0  0  0  0  0  0  0  0  0  0  0
   67.6014   57.6938   43.6468 C   0  0  0  0  0  0  0  0  0  0  0  0
   69.0775   57.3348   43.5937 C   0  0  0  0  0  0  0  0  0  0  0  0
   67.5645   55.6913   45.1739 H   0  0  0  0  0  0  0  0  0  0  0  0
   69.9170   58.3958   42.9931 N   0  0  0  0  0  0  0  0  0  0  0  0
   70.9327   58.9935   43.7928 C   0  0  0  0  0  0  0  0  0  0  0  0
   71.0815   58.6150   44.9819 O   0  0  0  0  0  0  0  0  0  0  0  0
   71.7519   59.9529   43.2993 N   0  0  0  0  0  0  0  0  0  0  0  0
   71.6153   60.3763   42.0304 C   0  0  0  0  0  0  0  0  0  0  0  0
   72.3770   61.2637   41.5809 O   0  0  0  0  0  0  0  0  0  0  0  0
   70.5483   59.7765   41.1671 C   0  0  0  0  0  0  0  0  0  0  0  0
   70.3741   60.2309   39.7306 C   0  0  0  0  0  0  0  0  0  0  0  0
   69.7338   58.7826   41.7135 C   0  0  0  0  0  0  0  0  0  0  0  0
   72.4510   60.3423   43.8728 H   0  0  0  0  0  0  0  0  0  0  0  0
   68.5656   55.6581   40.3843 O   0  0  0  0  0  0  0  0  0  0  0  0
   68.5649   55.0571   38.8776 P   0  0  0  0  0  0  0  0  0  0  0  0
   67.1454   55.0143   38.3552 O   0  0  0  0  0  0  0  0  0  0  0  0
   69.1871   53.6755   38.8251 O   0  0  0  0  0  0  0  0  0  0  0  0
   69.1701   53.3477   37.9123 H   0  0  0  0  0  0  0  0  0  0  0  0
   69.5290   56.1341   38.1221 O   0  0  0  0  0  0  0  0  0  0  0  0
   69.9423   56.1327   36.5502 P   0  0  0  0  0  0  0  0  0  0  0  0
   69.9767   54.7174   35.9803 O   0  0  0  0  0  0  0  0  0  0  0  0
   71.2631   56.8381   36.3125 O   0  0  0  0  0  0  0  0  0  0  0  0
   71.9822   56.3187   36.7050 H   0  0  0  0  0  0  0  0  0  0  0  0
   68.7999   57.0611   35.8670 O   0  0  0  0  0  0  0  0  0  0  0  0
   68.5063   58.6140   36.2457 P   0  0  0  0  0  0  0  0  0  0  0  0
   68.0191   58.6704   37.6806 O   0  0  0  0  0  0  0  0  0  0  0  0
   67.4273   59.1314   35.3178 O   0  0  0  0  0  0  0  0  0  0  0  0
   69.7303   59.4817   36.0155 O   0  0  0  0  0  0  0  0  0  0  0  0
   66.6220   58.6028   35.4319 H   0  0  0  0  0  0  0  0  0  0  0  0
   70.4508   59.1842   36.5928 H   0  0  0  0  0  0  0  0  0  0  0  0
 20 21  2  0  0  0
 20 22  1  0  0  0
 20 24  1  0  0  0
 20 19  1  0  0  0
 24 25  1  0  0  0
 25 26  2  0  0  0
 25 27  1  0  0  0
 25 29  1  0  0  0
 29 30  1  0  0  0
 30 31  2  0  0  0
 30 32  1  0  0  0
 30 33  1  0  0  0
 19  1  1  0  0  0
  1  2  1  0  0  0
  2  3  1  0  0  0
  2  4  1  0  0  0
  3  7  1  0  0  0
  4  5  1  0  0  0
  4  6  1  0  0  0
  6  7  1  0  0  0
  7  9  1  0  0  0
  9 10  1  0  0  0
  9 17  1  0  0  0
 10 11  2  0  0  0
 10 12  1  0  0  0
 12 13  1  0  0  0
 13 14  2  0  0  0
 13 15  1  0  0  0
 15 16  1  0  0  0
 15 17  2  0  0  0
 22 23  1  0  0  0
 27 28  1  0  0  0
 32 34  1  0  0  0
 33 35  1  0  0  0
  5  8  1  0  0  0
 12 18  1  0  0  0
M  END
> <minimizedAffinity>
-9.05355

$$$$
5C2O_TTP_A_704


 35 36  0  0  0  0  0  0  0  0999 V2000
   70.4706   57.8685   42.7514 C   0  0  0  0  0  0  0  0  0  0  0  0
   69.0502   57.9150   43.2992 C   0  0  0  0  0  0  0  0  0  0  0  0
   68.0866   57.8914   42.2425 O   0  0  0  0  0  0  0  0  0  0  0  0
   68.7857   56.6856   44.1380 C   0  0  0  0  0  0  0  0  0  0  0  0
   68.0231   57.1225   45.2548 O   0  0  0  0  0  0  0  0  0  0  0  0
   67.8932   55.7901   43.2943 C   0  0  0  0  0  0  0  0  0  0  0  0
   67.2224   56.7562   42.3313 C   0  0  0  0  0  0  0  0  0  0  0  0
   67.2215   57.5713   44.9433 H   0  0  0  0  0  0  0  0  0  0  0  0
   66.9642   56.1688   40.9973 N   0  0  0  0  0  0  0  0  0  0  0  0
   65.6162   56.0633   40.5502 C   0  0  0  0  0  0  0  0  0  0  0  0
   64.6873   56.4587   41.2986 O   0  0  0  0  0  0  0  0  0  0  0  0
   65.3102   55.5576   39.3313 N   0  0  0  0  0  0  0  0  0  0  0  0
   66.2842   55.1277   38.5100 C   0  0  0  0  0  0  0  0  0  0  0  0
   65.9934   54.6617   37.3839 O   0  0  0  0  0  0  0  0  0  0  0  0
   67.7116   55.2134   38.9558 C   0  0  0  0  0  0  0  0  0  0  0  0
   68.8314   54.7407   38.0487 C   0  0  0  0  0  0  0  0  0  0  0  0
   67.9818   55.7517   40.2156 C   0  0  0  0  0  0  0  0  0  0  0  0
   64.3696   55.5046   39.0452 H   0  0  0  0  0  0  0  0  0  0  0  0
   71.1182   59.1345   42.8650 O   0  0  0  0  0  0  0  0  0  0  0  0
   70.8586   60.2595   41.7256 P   0  0  0  0  0  0  0  0  0  0  0  0
   72.1124   61.0867   41.5425 O   0  0  0  0  0  0  0  0  0  0  0  0
   69.6852   61.1529   42.0772 O   0  0  0  0  0  0  0  0  0  0  0  0
   69.5590   61.8117   41.3765 H   0  0  0  0  0  0  0  0  0  0  0  0
   70.4811   59.3161   40.4498 O   0  0  0  0  0  0  0  0  0  0  0  0
   69.7271   59.7812   39.0872 P   0  0  0  0  0  0  0  0  0  0  0  0
   70.4599   60.9331   38.4054 O   0  0  0  0  0  0  0  0  0  0  0  0
   68.2767   60.1436   39.3395 O   0  0  0  0  0  0  0  0  0  0  0  0
   68.2337   60.9523   39.8734 H   0  0  0  0  0  0  0  0  0  0  0  0
   69.7099   58.4265   38.1936 O   0  0  0  0  0  0  0  0  0  0  0  0
   69.3324   58.3519   36.6147 P   0  0  0  0  0  0  0  0  0  0  0  0
   67.8774   57.9427   36.4916 O   0  0  0  0  0  0  0  0  0  0  0  0
   70.2151   57.3063   35.9661 O   0  0  0  0  0  0  0  0  0  0  0  0
   69.6258   59.6649   35.9119 O   0  0  0  0  0  0  0  0  0  0  0  0
   70.0597   56.4461   36.3867 H   0  0  0  0  0  0  0  0  0  0  0  0
   69.0791   60.3673   36.2975 H   0  0  0  0  0  0  0  0  0  0  0  0
 20 21  2  0  0  0
 20 22  1  0  0  0
 20 24  1  0  0  0
 20 19  1  0  0  0
 24 25  1  0  0  0
 25 26  2  0  0  0
 25 27  1  0  0  0
 25 29  1  0  0  0
 29 30  1  0  0  0
 30 31  2  0  0  0
 30 32  1  0  0  0
 30 33  1  0  0  0
 19  1  1  0  0  0
  1  2  1  0  0  0
  2  3  1  0  0  0
  2  4  1  0  0  0
  3  7  1  0  0  0
  4  5  1  0  0  0
  4  6  1  0  0  0
  6  7  1  0  0  0
  7  9  1  0  0  0
  9 10  1  0  0  0
  9 17  1  0  0  0
 10 11  2  0  0  0
 10 12  1  0  0  0
 12 13  1  0  0  0
 13 14  2  0  0  0
 13 15  1  0  0  0
 15 16  1  0  0  0
 15 17  2  0  0  0
 22 23  1  0  0  0
 27 28  1  0  0  0
 32 34  1  0  0  0
 33 35  1  0  0  0
  5  8  1  0  0  0
 12 18  1  0  0  0
M  END
> <minimizedAffinity>
-8.90756

$$$$
5C2O_TTP_A_704


 35 36  0  0  0  0  0  0  0  0999 V2000
   69.4955   55.9550   36.5475 C   0  0  0  0  0  0  0  0  0  0  0  0
   69.9431   55.0275   37.6696 C   0  0  0  0  0  0  0  0  0  0  0  0
   69.6535   55.5893   38.9526 O   0  0  0  0  0  0  0  0  0  0  0  0
   69.1744   53.7281   37.5956 C   0  0  0  0  0  0  0  0  0  0  0  0
   70.1043   52.6978   37.9016 O   0  0  0  0  0  0  0  0  0  0  0  0
   68.1586   53.7804   38.7249 C   0  0  0  0  0  0  0  0  0  0  0  0
   68.7690   54.7621   39.7119 C   0  0  0  0  0  0  0  0  0  0  0  0
   70.5075   52.8726   38.7664 H   0  0  0  0  0  0  0  0  0  0  0  0
   67.7605   55.5704   40.4337 N   0  0  0  0  0  0  0  0  0  0  0  0
   68.2118   56.5287   41.3858 C   0  0  0  0  0  0  0  0  0  0  0  0
   69.4446   56.6545   41.5946 O   0  0  0  0  0  0  0  0  0  0  0  0
   67.3447   57.3177   42.0644 N   0  0  0  0  0  0  0  0  0  0  0  0
   66.0205   57.2046   41.8602 C   0  0  0  0  0  0  0  0  0  0  0  0
   65.2246   57.9382   42.4912 O   0  0  0  0  0  0  0  0  0  0  0  0
   65.5129   56.1974   40.8745 C   0  0  0  0  0  0  0  0  0  0  0  0
   64.0249   56.0510   40.6201 C   0  0  0  0  0  0  0  0  0  0  0  0
   66.4429   55.4128   40.1895 C   0  0  0  0  0  0  0  0  0  0  0  0
   67.6858   57.9775   42.7105 H   0  0  0  0  0  0  0  0  0  0  0  0
   70.2545   57.1627   36.5310 O   0  0  0  0  0  0  0  0  0  0  0  0
   69.5040   58.5712   36.8212 P   0  0  0  0  0  0  0  0  0  0  0  0
   68.0090   58.3801   36.6870 O   0  0  0  0  0  0  0  0  0  0  0  0
   69.9812   59.6638   35.8845 O   0  0  0  0  0  0  0  0  0  0  0  0
   69.5131   60.4892   36.0856 H   0  0  0  0  0  0  0  0  0  0  0  0
   70.0109   58.8762   38.3411 O   0  0  0  0  0  0  0  0  0  0  0  0
   69.6089   60.1544   39.2610 P   0  0  0  0  0  0  0  0  0  0  0  0
   68.1208   60.1565   39.5993 O   0  0  0  0  0  0  0  0  0  0  0  0
   70.0131   61.4651   38.6150 O   0  0  0  0  0  0  0  0  0  0  0  0
   69.4731   61.6154   37.8233 H   0  0  0  0  0  0  0  0  0  0  0  0
   70.5537   59.9801   40.5689 O   0  0  0  0  0  0  0  0  0  0  0  0
   70.1709   60.4672   42.0714 P   0  0  0  0  0  0  0  0  0  0  0  0
   71.4414   60.9226   42.7627 O   0  0  0  0  0  0  0  0  0  0  0  0
   69.5780   59.2884   42.8142 O   0  0  0  0  0  0  0  0  0  0  0  0
   69.1049   61.5477   42.0492 O   0  0  0  0  0  0  0  0  0  0  0  0
   70.2287   58.5701   42.8527 H   0  0  0  0  0  0  0  0  0  0  0  0
   69.4436   62.3263   41.5802 H   0  0  0  0  0  0  0  0  0  0  0  0
 20 21  2  0  0  0
 20 22  1  0  0  0
 20 24  1  0  0  0
 20 19  1  0  0  0
 24 25  1  0  0  0
 25 26  2  0  0  0
 25 27  1  0  0  0
 25 29  1  0  0  0
 29 30  1  0  0  0
 30 31  2  0  0  0
 30 32  1  0  0  0
 30 33  1  0  0  0
 19  1  1  0  0  0
  1  2  1  0  0  0
  2  3  1  0  0  0
  2  4  1  0  0  0
  3  7  1  0  0  0
  4  5  1  0  0  0
  4  6  1  0  0  0
  6  7  1  0  0  0
  7  9  1  0  0  0
  9 10  1  0  0  0
  9 17  1  0  0  0
 10 11  2  0  0  0
 10 12  1  0  0  0
 12 13  1  0  0  0
 13 14  2  0  0  0
 13 15  1  0  0  0
 15 16  1  0  0  0
 15 17  2  0  0  0
 22 23  1  0  0  0
 27 28  1  0  0  0
 32 34  1  0  0  0
 33 35  1  0  0  0
  5  8  1  0  0  0
 12 18  1  0  0  0
M  END
> <minimizedAffinity>
-8.82532

$$$$
5C2O_TTP_A_704


 35 36  0  0  0  0  0  0  0  0999 V2000
   68.8209   58.5186   38.3916 C   0  0  0  0  0  0  0  0  0  0  0  0
   68.8218   59.8924   39.0493 C   0  0  0  0  0  0  0  0  0  0  0  0
   68.6447   59.7891   40.4648 O   0  0  0  0  0  0  0  0  0  0  0  0
   70.1627   60.5581   38.8401 C   0  0  0  0  0  0  0  0  0  0  0  0
   69.8905   61.9293   38.5843 O   0  0  0  0  0  0  0  0  0  0  0  0
   70.8822   60.4740   40.1762 C   0  0  0  0  0  0  0  0  0  0  0  0
   69.7530   60.3345   41.1842 C   0  0  0  0  0  0  0  0  0  0  0  0
   69.3734   62.2985   39.3172 H   0  0  0  0  0  0  0  0  0  0  0  0
   70.1079   59.4920   42.3485 N   0  0  0  0  0  0  0  0  0  0  0  0
   70.9847   60.0289   43.3341 C   0  0  0  0  0  0  0  0  0  0  0  0
   71.4394   61.1909   43.1852 O   0  0  0  0  0  0  0  0  0  0  0  0
   71.3321   59.3216   44.4360 N   0  0  0  0  0  0  0  0  0  0  0  0
   70.8599   58.0763   44.6208 C   0  0  0  0  0  0  0  0  0  0  0  0
   71.1852   57.4284   45.6427 O   0  0  0  0  0  0  0  0  0  0  0  0
   69.9454   57.4781   43.5962 C   0  0  0  0  0  0  0  0  0  0  0  0
   69.3935   56.0776   43.7806 C   0  0  0  0  0  0  0  0  0  0  0  0
   69.6051   58.2471   42.4815 C   0  0  0  0  0  0  0  0  0  0  0  0
   71.9335   59.7215   45.1050 H   0  0  0  0  0  0  0  0  0  0  0  0
   69.1847   57.4945   39.3157 O   0  0  0  0  0  0  0  0  0  0  0  0
   68.4667   56.0438   39.2098 P   0  0  0  0  0  0  0  0  0  0  0  0
   69.5243   54.9680   39.0926 O   0  0  0  0  0  0  0  0  0  0  0  0
   67.5132   55.9750   38.0330 O   0  0  0  0  0  0  0  0  0  0  0  0
   67.1030   55.0966   38.0002 H   0  0  0  0  0  0  0  0  0  0  0  0
   67.6306   56.0174   40.6099 O   0  0  0  0  0  0  0  0  0  0  0  0
   66.0475   55.6961   40.7901 P   0  0  0  0  0  0  0  0  0  0  0  0
   65.8139   54.2515   41.2229 O   0  0  0  0  0  0  0  0  0  0  0  0
   65.2601   56.0128   39.5338 O   0  0  0  0  0  0  0  0  0  0  0  0
   65.5079   55.3913   38.8315 H   0  0  0  0  0  0  0  0  0  0  0  0
   65.5764   56.7744   41.9077 O   0  0  0  0  0  0  0  0  0  0  0  0
   65.2230   56.4245   43.4549 P   0  0  0  0  0  0  0  0  0  0  0  0
   63.7225   56.2377   43.5701 O   0  0  0  0  0  0  0  0  0  0  0  0
   65.6615   57.5906   44.3157 O   0  0  0  0  0  0  0  0  0  0  0  0
   65.9962   55.2115   43.9395 O   0  0  0  0  0  0  0  0  0  0  0  0
   65.1898   58.3918   44.0393 H   0  0  0  0  0  0  0  0  0  0  0  0
   65.7452   54.4365   43.4129 H   0  0  0  0  0  0  0  0  0  0  0  0
 20 21  2  0  0  0
 20 22  1  0  0  0
 20 24  1  0  0  0
 20 19  1  0  0  0
 24 25  1  0  0  0
 25 26  2  0  0  0
 25 27  1  0  0  0
 25 29  1  0  0  0
 29 30  1  0  0  0
 30 31  2  0  0  0
 30 32  1  0  0  0
 30 33  1  0  0  0
 19  1  1  0  0  0
  1  2  1  0  0  0
  2  3  1  0  0  0
  2  4  1  0  0  0
  3  7  1  0  0  0
  4  5  1  0  0  0
  4  6  1  0  0  0
  6  7  1  0  0  0
  7  9  1  0  0  0
  9 10  1  0  0  0
  9 17  1  0  0  0
 10 11  2  0  0  0
 10 12  1  0  0  0
 12 13  1  0  0  0
 13 14  2  0  0  0
 13 15  1  0  0  0
 15 16  1  0  0  0
 15 17  2  0  0  0
 22 23  1  0  0  0
 27 28  1  0  0  0
 32 34  1  0  0  0
 33 35  1  0  0  0
  5  8  1  0  0  0
 12 18  1  0  0  0
M  END
> <minimizedAffinity>
-8.32841

$$$$
5C2O_TTP_A_704


 35 36  0  0  0  0  0  0  0  0999 V2000
   68.3446   54.6489   42.3111 C   0  0  0  0  0  0  0  0  0  0  0  0
   68.3712   55.3392   43.6685 C   0  0  0  0  0  0  0  0  0  0  0  0
   69.4856   56.2293   43.7751 O   0  0  0  0  0  0  0  0  0  0  0  0
   67.1339   56.1921   43.8322 C   0  0  0  0  0  0  0  0  0  0  0  0
   66.7197   56.0371   45.1828 O   0  0  0  0  0  0  0  0  0  0  0  0
   67.5930   57.6300   43.6546 C   0  0  0  0  0  0  0  0  0  0  0  0
   69.0730   57.5796   43.9977 C   0  0  0  0  0  0  0  0  0  0  0  0
   67.4497   56.2778   45.7745 H   0  0  0  0  0  0  0  0  0  0  0  0
   69.8896   58.5304   43.2099 N   0  0  0  0  0  0  0  0  0  0  0  0
   71.0055   59.1521   43.8394 C   0  0  0  0  0  0  0  0  0  0  0  0
   71.2596   58.8877   45.0414 O   0  0  0  0  0  0  0  0  0  0  0  0
   71.8087   60.0138   43.1704 N   0  0  0  0  0  0  0  0  0  0  0  0
   71.5604   60.3142   41.8835 C   0  0  0  0  0  0  0  0  0  0  0  0
   72.3079   61.1117   41.2711 O   0  0  0  0  0  0  0  0  0  0  0  0
   70.3867   59.6866   41.1962 C   0  0  0  0  0  0  0  0  0  0  0  0
   70.0852   60.0029   39.7439 C   0  0  0  0  0  0  0  0  0  0  0  0
   69.5923   58.7958   41.9209 C   0  0  0  0  0  0  0  0  0  0  0  0
   72.5782   60.4222   43.6288 H   0  0  0  0  0  0  0  0  0  0  0  0
   67.0091   54.4114   41.8695 O   0  0  0  0  0  0  0  0  0  0  0  0
   66.7536   53.3752   40.6480 P   0  0  0  0  0  0  0  0  0  0  0  0
   65.9241   52.2106   41.1433 O   0  0  0  0  0  0  0  0  0  0  0  0
   68.0565   52.8781   40.0530 O   0  0  0  0  0  0  0  0  0  0  0  0
   67.8667   52.2626   39.3277 H   0  0  0  0  0  0  0  0  0  0  0  0
   65.9866   54.3449   39.5843 O   0  0  0  0  0  0  0  0  0  0  0  0
   66.6498   55.5429   38.7087 P   0  0  0  0  0  0  0  0  0  0  0  0
   67.2588   56.6200   39.6019 O   0  0  0  0  0  0  0  0  0  0  0  0
   65.6559   56.1507   37.7385 O   0  0  0  0  0  0  0  0  0  0  0  0
   64.9701   56.6258   38.2334 H   0  0  0  0  0  0  0  0  0  0  0  0
   67.7557   54.7718   37.8054 O   0  0  0  0  0  0  0  0  0  0  0  0
   69.3250   55.1803   37.6969 P   0  0  0  0  0  0  0  0  0  0  0  0
   70.0779   54.4789   38.8108 O   0  0  0  0  0  0  0  0  0  0  0  0
   69.4362   56.6806   37.8693 O   0  0  0  0  0  0  0  0  0  0  0  0
   69.8882   54.8575   36.3248 O   0  0  0  0  0  0  0  0  0  0  0  0
   69.0857   56.9332   38.7377 H   0  0  0  0  0  0  0  0  0  0  0  0
   69.8367   53.9012   36.1710 H   0  0  0  0  0  0  0  0  0  0  0  0
 20 21  2  0  0  0
 20 22  1  0  0  0
 20 24  1  0  0  0
 20 19  1  0  0  0
 24 25  1  0  0  0
 25 26  2  0  0  0
 25 27  1  0  0  0
 25 29  1  0  0  0
 29 30  1  0  0  0
 30 31  2  0  0  0
 30 32  1  0  0  0
 30 33  1  0  0  0
 19  1  1  0  0  0
  1  2  1  0  0  0
  2  3  1  0  0  0
  2  4  1  0  0  0
  3  7  1  0  0  0
  4  5  1  0  0  0
  4  6  1  0  0  0
  6  7  1  0  0  0
  7  9  1  0  0  0
  9 10  1  0  0  0
  9 17  1  0  0  0
 10 11  2  0  0  0
 10 12  1  0  0  0
 12 13  1  0  0  0
 13 14  2  0  0  0
 13 15  1  0  0  0
 15 16  1  0  0  0
 15 17  2  0  0  0
 22 23  1  0  0  0
 27 28  1  0  0  0
 32 34  1  0  0  0
 33 35  1  0  0  0
  5  8  1  0  0  0
 12 18  1  0  0  0
M  END
> <minimizedAffinity>
-8.29965

$$$$
5C2O_TTP_A_704


 35 36  0  0  0  0  0  0  0  0999 V2000
   68.0455   56.1306   38.1379 C   0  0  0  0  0  0  0  0  0  0  0  0
   67.8467   57.6002   37.7912 C   0  0  0  0  0  0  0  0  0  0  0  0
   68.0296   58.4327   38.9398 O   0  0  0  0  0  0  0  0  0  0  0  0
   68.8896   58.0337   36.7865 C   0  0  0  0  0  0  0  0  0  0  0  0
   68.2265   58.8951   35.8712 O   0  0  0  0  0  0  0  0  0  0  0  0
   69.8921   58.8721   37.5626 C   0  0  0  0  0  0  0  0  0  0  0  0
   69.0964   59.3668   38.7595 C   0  0  0  0  0  0  0  0  0  0  0  0
   67.8138   59.6266   36.3566 H   0  0  0  0  0  0  0  0  0  0  0  0
   69.9101   59.5007   39.9889 N   0  0  0  0  0  0  0  0  0  0  0  0
   70.8757   60.5455   40.0547 C   0  0  0  0  0  0  0  0  0  0  0  0
   71.0183   61.3141   39.0707 O   0  0  0  0  0  0  0  0  0  0  0  0
   71.6373   60.7396   41.1580 N   0  0  0  0  0  0  0  0  0  0  0  0
   71.5053   59.9326   42.2254 C   0  0  0  0  0  0  0  0  0  0  0  0
   72.2129   60.1186   43.2425 O   0  0  0  0  0  0  0  0  0  0  0  0
   70.5073   58.8164   42.1830 C   0  0  0  0  0  0  0  0  0  0  0  0
   70.3330   57.8936   43.3739 C   0  0  0  0  0  0  0  0  0  0  0  0
   69.7358   58.6601   41.0297 C   0  0  0  0  0  0  0  0  0  0  0  0
   72.2911   61.4755   41.1785 H   0  0  0  0  0  0  0  0  0  0  0  0
   68.9538   55.4977   37.2384 O   0  0  0  0  0  0  0  0  0  0  0  0
   69.0376   53.8780   37.2100 P   0  0  0  0  0  0  0  0  0  0  0  0
   67.9028   53.3315   36.3714 O   0  0  0  0  0  0  0  0  0  0  0  0
   68.9906   53.2899   38.6067 O   0  0  0  0  0  0  0  0  0  0  0  0
   69.0427   52.3228   38.5522 H   0  0  0  0  0  0  0  0  0  0  0  0
   70.5188   53.6632   36.5619 O   0  0  0  0  0  0  0  0  0  0  0  0
   71.3713   54.7501   35.7054 P   0  0  0  0  0  0  0  0  0  0  0  0
   72.1880   55.6647   36.6139 O   0  0  0  0  0  0  0  0  0  0  0  0
   70.4847   55.5640   34.7835 O   0  0  0  0  0  0  0  0  0  0  0  0
   69.9093   56.1386   35.3123 H   0  0  0  0  0  0  0  0  0  0  0  0
   72.2959   53.8223   34.7472 O   0  0  0  0  0  0  0  0  0  0  0  0
   73.8704   53.5022   34.9917 P   0  0  0  0  0  0  0  0  0  0  0  0
   73.9777   52.1990   35.7597 O   0  0  0  0  0  0  0  0  0  0  0  0
   74.4607   54.6300   35.8117 O   0  0  0  0  0  0  0  0  0  0  0  0
   74.6388   53.4678   33.6831 O   0  0  0  0  0  0  0  0  0  0  0  0
   73.9970   54.6889   36.6617 H   0  0  0  0  0  0  0  0  0  0  0  0
   74.2920   52.7558   33.1231 H   0  0  0  0  0  0  0  0  0  0  0  0
 20 21  2  0  0  0
 20 22  1  0  0  0
 20 24  1  0  0  0
 20 19  1  0  0  0
 24 25  1  0  0  0
 25 26  2  0  0  0
 25 27  1  0  0  0
 25 29  1  0  0  0
 29 30  1  0  0  0
 30 31  2  0  0  0
 30 32  1  0  0  0
 30 33  1  0  0  0
 19  1  1  0  0  0
  1  2  1  0  0  0
  2  3  1  0  0  0
  2  4  1  0  0  0
  3  7  1  0  0  0
  4  5  1  0  0  0
  4  6  1  0  0  0
  6  7  1  0  0  0
  7  9  1  0  0  0
  9 10  1  0  0  0
  9 17  1  0  0  0
 10 11  2  0  0  0
 10 12  1  0  0  0
 12 13  1  0  0  0
 13 14  2  0  0  0
 13 15  1  0  0  0
 15 16  1  0  0  0
 15 17  2  0  0  0
 22 23  1  0  0  0
 27 28  1  0  0  0
 32 34  1  0  0  0
 33 35  1  0  0  0
  5  8  1  0  0  0
 12 18  1  0  0  0
M  END
> <minimizedAffinity>
-8.25303

$$$$
