1F8B_DAN_A_0


 26 26  0  0  0  0  0  0  0  0999 V2000
   25.1752   16.1238   61.7143 C   0  0  0  0  0  0  0  0  0  0  0  0
   24.1865   16.3149   62.6421 C   0  0  0  0  0  0  0  0  0  0  0  0
   24.3014   17.3314   63.8217 C   0  0  0  0  0  0  0  0  0  0  0  0
   25.3153   18.4336   63.5028 C   0  0  0  0  0  0  0  0  0  0  0  0
   26.6171   17.7802   62.9088 C   0  0  0  0  0  0  0  0  0  0  0  0
   23.0558   17.9229   64.0816 O   0  0  0  0  0  0  0  0  0  0  0  0
   26.2849   16.9634   61.7277 O   0  0  0  0  0  0  0  0  0  0  0  0
   22.7608   18.4130   63.2982 H   0  0  0  0  0  0  0  0  0  0  0  0
   25.0706   20.3370   65.0355 C   0  0  0  0  0  0  0  0  0  0  0  0
   25.4326   21.0208   66.3358 C   0  0  0  0  0  0  0  0  0  0  0  0
   25.6293   19.1654   64.7442 N   0  0  0  0  0  0  0  0  0  0  0  0
   24.2697   20.8926   64.2913 O   0  0  0  0  0  0  0  0  0  0  0  0
   26.2731   18.7740   65.3778 H   0  0  0  0  0  0  0  0  0  0  0  0
   25.1408   15.1276   60.7440 C   0  0  0  0  0  0  0  0  0  0  0  0
   26.0704   15.0701   59.9136 O   0  0  0  0  0  0  0  0  0  0  0  0
   24.1968   14.3143   60.7061 O   0  0  0  0  0  0  0  0  0  0  0  0
   23.5054   14.3693   61.3361 H   0  0  0  0  0  0  0  0  0  0  0  0
   27.6453   18.8673   62.4374 C   0  0  0  0  0  0  0  0  0  0  0  0
   27.0324   20.1094   62.0974 O   0  0  0  0  0  0  0  0  0  0  0  0
   26.4369   19.9803   61.3426 H   0  0  0  0  0  0  0  0  0  0  0  0
   28.3759   18.4109   61.2227 C   0  0  0  0  0  0  0  0  0  0  0  0
   29.6976   18.8203   61.3334 O   0  0  0  0  0  0  0  0  0  0  0  0
   29.7324   19.7878   61.3933 H   0  0  0  0  0  0  0  0  0  0  0  0
   27.7468   18.9802   59.9398 C   0  0  0  0  0  0  0  0  0  0  0  0
   27.0039   17.9819   59.2353 O   0  0  0  0  0  0  0  0  0  0  0  0
   27.5972   17.2588   58.9781 H   0  0  0  0  0  0  0  0  0  0  0  0
 14  1  1  0  0  0
 14 15  2  0  0  0
 14 16  1  0  0  0
  1  2  2  0  0  0
  1  7  1  0  0  0
  2  3  1  0  0  0
  3  4  1  0  0  0
  3  6  1  0  0  0
  4  5  1  0  0  0
  4 11  1  0  0  0
  5 18  1  0  0  0
  5  7  1  0  0  0
 18 21  1  0  0  0
 18 19  1  0  0  0
 21 24  1  0  0  0
 21 22  1  0  0  0
 24 25  1  0  0  0
  9 10  1  0  0  0
  9 11  1  0  0  0
  9 12  2  0  0  0
 11 13  1  0  0  0
 16 17  1  0  0  0
  6  8  1  0  0  0
 19 20  1  0  0  0
 22 23  1  0  0  0
 25 26  1  0  0  0
M  END
> <minimizedAffinity>
-7.99141

$$$$
1F8B_DAN_A_0


 26 26  0  0  0  0  0  0  0  0999 V2000
   25.4024   16.4502   61.4505 C   0  0  0  0  0  0  0  0  0  0  0  0
   26.2801   15.4006   61.5065 C   0  0  0  0  0  0  0  0  0  0  0  0
   27.8304   15.5799   61.5530 C   0  0  0  0  0  0  0  0  0  0  0  0
   28.2096   16.9621   62.0916 C   0  0  0  0  0  0  0  0  0  0  0  0
   27.3209   18.0517   61.3864 C   0  0  0  0  0  0  0  0  0  0  0  0
   28.4126   14.5994   62.3708 O   0  0  0  0  0  0  0  0  0  0  0  0
   25.8916   17.7466   61.5779 O   0  0  0  0  0  0  0  0  0  0  0  0
   28.0780   14.6934   63.2764 H   0  0  0  0  0  0  0  0  0  0  0  0
   30.5763   17.0480   62.7426 C   0  0  0  0  0  0  0  0  0  0  0  0
   32.0221   17.3041   62.3773 C   0  0  0  0  0  0  0  0  0  0  0  0
   29.6373   17.2061   61.8136 N   0  0  0  0  0  0  0  0  0  0  0  0
   30.3206   16.7018   63.8910 O   0  0  0  0  0  0  0  0  0  0  0  0
   29.9041   17.4955   60.9112 H   0  0  0  0  0  0  0  0  0  0  0  0
   24.0312   16.3006   61.2708 C   0  0  0  0  0  0  0  0  0  0  0  0
   23.6038   15.2261   60.8020 O   0  0  0  0  0  0  0  0  0  0  0  0
   23.2498   17.2251   61.5691 O   0  0  0  0  0  0  0  0  0  0  0  0
   23.5847   18.0266   61.9203 H   0  0  0  0  0  0  0  0  0  0  0  0
   27.5682   19.4782   61.9908 C   0  0  0  0  0  0  0  0  0  0  0  0
   28.8786   19.9779   61.7318 O   0  0  0  0  0  0  0  0  0  0  0  0
   29.5337   19.4047   62.1599 H   0  0  0  0  0  0  0  0  0  0  0  0
   27.4090   19.4586   63.4713 C   0  0  0  0  0  0  0  0  0  0  0  0
   26.2788   20.1968   63.7947 O   0  0  0  0  0  0  0  0  0  0  0  0
   26.3908   21.1103   63.4885 H   0  0  0  0  0  0  0  0  0  0  0  0
   28.6454   20.0389   64.1785 C   0  0  0  0  0  0  0  0  0  0  0  0
   28.7004   21.4621   64.0496 O   0  0  0  0  0  0  0  0  0  0  0  0
   28.7578   21.6997   63.1109 H   0  0  0  0  0  0  0  0  0  0  0  0
 14  1  1  0  0  0
 14 15  2  0  0  0
 14 16  1  0  0  0
  1  2  2  0  0  0
  1  7  1  0  0  0
  2  3  1  0  0  0
  3  4  1  0  0  0
  3  6  1  0  0  0
  4  5  1  0  0  0
  4 11  1  0  0  0
  5 18  1  0  0  0
  5  7  1  0  0  0
 18 21  1  0  0  0
 18 19  1  0  0  0
 21 24  1  0  0  0
 21 22  1  0  0  0
 24 25  1  0  0  0
  9 10  1  0  0  0
  9 11  1  0  0  0
  9 12  2  0  0  0
 11 13  1  0  0  0
 16 17  1  0  0  0
  6  8  1  0  0  0
 19 20  1  0  0  0
 22 23  1  0  0  0
 25 26  1  0  0  0
M  END
> <minimizedAffinity>
-7.61980

$$$$
1F8B_DAN_A_0


 26 26  0  0  0  0  0  0  0  0999 V2000
   25.4684   16.8591   61.6510 C   0  0  0  0  0  0  0  0  0  0  0  0
   24.2222   16.7618   62.2101 C   0  0  0  0  0  0  0  0  0  0  0  0
   23.8990   17.2120   63.6699 C   0  0  0  0  0  0  0  0  0  0  0  0
   24.9133   18.2467   64.1650 C   0  0  0  0  0  0  0  0  0  0  0  0
   26.3647   17.7594   63.8041 C   0  0  0  0  0  0  0  0  0  0  0  0
   22.6131   17.7696   63.7371 O   0  0  0  0  0  0  0  0  0  0  0  0
   26.4748   17.5132   62.3550 O   0  0  0  0  0  0  0  0  0  0  0  0
   22.5716   18.5558   63.1705 H   0  0  0  0  0  0  0  0  0  0  0  0
   24.0173   19.3452   66.1706 C   0  0  0  0  0  0  0  0  0  0  0  0
   23.9081   19.4228   67.6778 C   0  0  0  0  0  0  0  0  0  0  0  0
   24.7697   18.3931   65.6255 N   0  0  0  0  0  0  0  0  0  0  0  0
   23.4039   20.1696   65.5013 O   0  0  0  0  0  0  0  0  0  0  0  0
   25.2461   17.7659   66.2161 H   0  0  0  0  0  0  0  0  0  0  0  0
   25.7977   16.3368   60.4045 C   0  0  0  0  0  0  0  0  0  0  0  0
   25.9244   15.1008   60.2892 O   0  0  0  0  0  0  0  0  0  0  0  0
   25.9663   17.0919   59.4270 O   0  0  0  0  0  0  0  0  0  0  0  0
   25.8680   18.0182   59.5282 H   0  0  0  0  0  0  0  0  0  0  0  0
   27.4433   18.8393   64.1669 C   0  0  0  0  0  0  0  0  0  0  0  0
   26.9042   20.1549   64.2796 O   0  0  0  0  0  0  0  0  0  0  0  0
   26.5469   20.4326   63.4216 H   0  0  0  0  0  0  0  0  0  0  0  0
   28.4985   18.9041   63.1181 C   0  0  0  0  0  0  0  0  0  0  0  0
   29.2759   17.7582   63.2153 O   0  0  0  0  0  0  0  0  0  0  0  0
   29.6871   17.7200   64.0930 H   0  0  0  0  0  0  0  0  0  0  0  0
   29.3746   20.1581   63.2773 C   0  0  0  0  0  0  0  0  0  0  0  0
   28.8148   21.2772   62.5851 O   0  0  0  0  0  0  0  0  0  0  0  0
   28.7564   21.0754   61.6381 H   0  0  0  0  0  0  0  0  0  0  0  0
 14  1  1  0  0  0
 14 15  2  0  0  0
 14 16  1  0  0  0
  1  2  2  0  0  0
  1  7  1  0  0  0
  2  3  1  0  0  0
  3  4  1  0  0  0
  3  6  1  0  0  0
  4  5  1  0  0  0
  4 11  1  0  0  0
  5 18  1  0  0  0
  5  7  1  0  0  0
 18 21  1  0  0  0
 18 19  1  0  0  0
 21 24  1  0  0  0
 21 22  1  0  0  0
 24 25  1  0  0  0
  9 10  1  0  0  0
  9 11  1  0  0  0
  9 12  2  0  0  0
 11 13  1  0  0  0
 16 17  1  0  0  0
  6  8  1  0  0  0
 19 20  1  0  0  0
 22 23  1  0  0  0
 25 26  1  0  0  0
M  END
> <minimizedAffinity>
-7.47804

$$$$
1F8B_DAN_A_0


 26 26  0  0  0  0  0  0  0  0999 V2000
   24.8582   18.2064   64.2169 C   0  0  0  0  0  0  0  0  0  0  0  0
   25.8168   19.1545   64.4561 C   0  0  0  0  0  0  0  0  0  0  0  0
   27.3342   18.9339   64.1620 C   0  0  0  0  0  0  0  0  0  0  0  0
   27.5381   17.8480   63.1020 C   0  0  0  0  0  0  0  0  0  0  0  0
   26.6246   16.6144   63.4456 C   0  0  0  0  0  0  0  0  0  0  0  0
   27.9237   20.1245   63.7102 O   0  0  0  0  0  0  0  0  0  0  0  0
   25.2165   17.0365   63.5540 O   0  0  0  0  0  0  0  0  0  0  0  0
   27.5005   20.4010   62.8824 H   0  0  0  0  0  0  0  0  0  0  0  0
   29.8127   17.8880   62.1762 C   0  0  0  0  0  0  0  0  0  0  0  0
   31.2579   17.4450   62.2447 C   0  0  0  0  0  0  0  0  0  0  0  0
   28.9580   17.4489   63.0963 N   0  0  0  0  0  0  0  0  0  0  0  0
   29.4792   18.6410   61.2675 O   0  0  0  0  0  0  0  0  0  0  0  0
   29.2838   16.8378   63.7960 H   0  0  0  0  0  0  0  0  0  0  0  0
   23.5280   18.3400   64.6010 C   0  0  0  0  0  0  0  0  0  0  0  0
   22.8376   17.3089   64.7323 O   0  0  0  0  0  0  0  0  0  0  0  0
   23.0388   19.4685   64.8043 O   0  0  0  0  0  0  0  0  0  0  0  0
   23.5689   20.2343   64.7019 H   0  0  0  0  0  0  0  0  0  0  0  0
   26.6877   15.5190   62.3242 C   0  0  0  0  0  0  0  0  0  0  0  0
   27.9160   14.7942   62.3163 O   0  0  0  0  0  0  0  0  0  0  0  0
   28.6476   15.4000   62.1196 H   0  0  0  0  0  0  0  0  0  0  0  0
   26.5532   16.1363   60.9757 C   0  0  0  0  0  0  0  0  0  0  0  0
   25.2722   16.6593   60.8651 O   0  0  0  0  0  0  0  0  0  0  0  0
   24.6221   15.9465   60.9662 H   0  0  0  0  0  0  0  0  0  0  0  0
   26.8088   15.1105   59.8586 C   0  0  0  0  0  0  0  0  0  0  0  0
   25.9169   13.9972   59.9583 O   0  0  0  0  0  0  0  0  0  0  0  0
   26.0526   13.5493   60.8079 H   0  0  0  0  0  0  0  0  0  0  0  0
 14  1  1  0  0  0
 14 15  2  0  0  0
 14 16  1  0  0  0
  1  2  2  0  0  0
  1  7  1  0  0  0
  2  3  1  0  0  0
  3  4  1  0  0  0
  3  6  1  0  0  0
  4  5  1  0  0  0
  4 11  1  0  0  0
  5 18  1  0  0  0
  5  7  1  0  0  0
 18 21  1  0  0  0
 18 19  1  0  0  0
 21 24  1  0  0  0
 21 22  1  0  0  0
 24 25  1  0  0  0
  9 10  1  0  0  0
  9 11  1  0  0  0
  9 12  2  0  0  0
 11 13  1  0  0  0
 16 17  1  0  0  0
  6  8  1  0  0  0
 19 20  1  0  0  0
 22 23  1  0  0  0
 25 26  1  0  0  0
M  END
> <minimizedAffinity>
-7.39891

$$$$
1F8B_DAN_A_0


 26 26  0  0  0  0  0  0  0  0999 V2000
   27.2000   17.9744   59.3120 C   0  0  0  0  0  0  0  0  0  0  0  0
   28.1506   18.7687   59.8955 C   0  0  0  0  0  0  0  0  0  0  0  0
   28.2726   18.9681   61.4393 C   0  0  0  0  0  0  0  0  0  0  0  0
   27.6404   17.7979   62.1979 C   0  0  0  0  0  0  0  0  0  0  0  0
   26.2387   17.4696   61.5638 C   0  0  0  0  0  0  0  0  0  0  0  0
   29.6204   19.0760   61.8143 O   0  0  0  0  0  0  0  0  0  0  0  0
   26.3824   17.1934   60.1231 O   0  0  0  0  0  0  0  0  0  0  0  0
   30.0863   18.2565   61.5855 H   0  0  0  0  0  0  0  0  0  0  0  0
   28.0467   17.4788   64.5990 C   0  0  0  0  0  0  0  0  0  0  0  0
   27.8548   17.9386   66.0278 C   0  0  0  0  0  0  0  0  0  0  0  0
   27.4862   18.1768   63.6149 N   0  0  0  0  0  0  0  0  0  0  0  0
   28.7164   16.4712   64.3988 O   0  0  0  0  0  0  0  0  0  0  0  0
   26.9513   18.9721   63.8397 H   0  0  0  0  0  0  0  0  0  0  0  0
   26.9958   17.8978   57.9382 C   0  0  0  0  0  0  0  0  0  0  0  0
   27.5811   18.7166   57.2007 O   0  0  0  0  0  0  0  0  0  0  0  0
   26.2395   17.0305   57.4587 O   0  0  0  0  0  0  0  0  0  0  0  0
   25.8064   16.4220   58.0245 H   0  0  0  0  0  0  0  0  0  0  0  0
   25.5966   16.1932   62.2116 C   0  0  0  0  0  0  0  0  0  0  0  0
   26.5615   15.2258   62.6207 O   0  0  0  0  0  0  0  0  0  0  0  0
   27.0426   14.9004   61.8438 H   0  0  0  0  0  0  0  0  0  0  0  0
   24.6954   15.5075   61.2446 C   0  0  0  0  0  0  0  0  0  0  0  0
   23.8471   16.4586   60.6945 O   0  0  0  0  0  0  0  0  0  0  0  0
   23.3216   16.8692   61.3989 H   0  0  0  0  0  0  0  0  0  0  0  0
   23.8797   14.3956   61.9258 C   0  0  0  0  0  0  0  0  0  0  0  0
   24.6172   13.1722   61.9904 O   0  0  0  0  0  0  0  0  0  0  0  0
   24.8297   12.8749   61.0918 H   0  0  0  0  0  0  0  0  0  0  0  0
 14  1  1  0  0  0
 14 15  2  0  0  0
 14 16  1  0  0  0
  1  2  2  0  0  0
  1  7  1  0  0  0
  2  3  1  0  0  0
  3  4  1  0  0  0
  3  6  1  0  0  0
  4  5  1  0  0  0
  4 11  1  0  0  0
  5 18  1  0  0  0
  5  7  1  0  0  0
 18 21  1  0  0  0
 18 19  1  0  0  0
 21 24  1  0  0  0
 21 22  1  0  0  0
 24 25  1  0  0  0
  9 10  1  0  0  0
  9 11  1  0  0  0
  9 12  2  0  0  0
 11 13  1  0  0  0
 16 17  1  0  0  0
  6  8  1  0  0  0
 19 20  1  0  0  0
 22 23  1  0  0  0
 25 26  1  0  0  0
M  END
> <minimizedAffinity>
-7.27163

$$$$
1F8B_DAN_A_0


 26 26  0  0  0  0  0  0  0  0999 V2000
   24.9545   14.9975   62.0480 C   0  0  0  0  0  0  0  0  0  0  0  0
   26.2381   14.6519   61.7195 C   0  0  0  0  0  0  0  0  0  0  0  0
   27.4824   15.5175   62.0942 C   0  0  0  0  0  0  0  0  0  0  0  0
   27.1851   16.4192   63.2955 C   0  0  0  0  0  0  0  0  0  0  0  0
   25.7890   17.1129   63.0861 C   0  0  0  0  0  0  0  0  0  0  0  0
   28.5758   14.6946   62.4049 O   0  0  0  0  0  0  0  0  0  0  0  0
   24.7417   16.0980   62.8725 O   0  0  0  0  0  0  0  0  0  0  0  0
   28.3580   14.1439   63.1730 H   0  0  0  0  0  0  0  0  0  0  0  0
   29.2888   17.2833   64.2228 C   0  0  0  0  0  0  0  0  0  0  0  0
   30.3495   18.3614   64.2691 C   0  0  0  0  0  0  0  0  0  0  0  0
   28.2505   17.4332   63.4047 N   0  0  0  0  0  0  0  0  0  0  0  0
   29.4256   16.3034   64.9473 O   0  0  0  0  0  0  0  0  0  0  0  0
   28.1914   18.2474   62.8544 H   0  0  0  0  0  0  0  0  0  0  0  0
   23.8317   14.3078   61.6023 C   0  0  0  0  0  0  0  0  0  0  0  0
   23.3205   14.6388   60.5132 O   0  0  0  0  0  0  0  0  0  0  0  0
   23.3470   13.3821   62.2822 O   0  0  0  0  0  0  0  0  0  0  0  0
   23.7412   13.1442   63.0983 H   0  0  0  0  0  0  0  0  0  0  0  0
   25.3650   17.9486   64.3444 C   0  0  0  0  0  0  0  0  0  0  0  0
   24.0805   17.5895   64.8496 O   0  0  0  0  0  0  0  0  0  0  0  0
   23.4049   17.7799   64.1802 H   0  0  0  0  0  0  0  0  0  0  0  0
   25.2988   19.3996   64.0162 C   0  0  0  0  0  0  0  0  0  0  0  0
   26.5966   19.8692   63.8679 O   0  0  0  0  0  0  0  0  0  0  0  0
   27.0832   19.7420   64.6973 H   0  0  0  0  0  0  0  0  0  0  0  0
   24.5667   20.1922   65.1123 C   0  0  0  0  0  0  0  0  0  0  0  0
   23.1636   20.2738   64.8485 O   0  0  0  0  0  0  0  0  0  0  0  0
   23.0192   20.7318   64.0058 H   0  0  0  0  0  0  0  0  0  0  0  0
 14  1  1  0  0  0
 14 15  2  0  0  0
 14 16  1  0  0  0
  1  2  2  0  0  0
  1  7  1  0  0  0
  2  3  1  0  0  0
  3  4  1  0  0  0
  3  6  1  0  0  0
  4  5  1  0  0  0
  4 11  1  0  0  0
  5 18  1  0  0  0
  5  7  1  0  0  0
 18 21  1  0  0  0
 18 19  1  0  0  0
 21 24  1  0  0  0
 21 22  1  0  0  0
 24 25  1  0  0  0
  9 10  1  0  0  0
  9 11  1  0  0  0
  9 12  2  0  0  0
 11 13  1  0  0  0
 16 17  1  0  0  0
  6  8  1  0  0  0
 19 20  1  0  0  0
 22 23  1  0  0  0
 25 26  1  0  0  0
M  END
> <minimizedAffinity>
-7.11803

$$$$
1F8B_DAN_A_0


 26 26  0  0  0  0  0  0  0  0999 V2000
   28.8742   20.7668   64.6284 C   0  0  0  0  0  0  0  0  0  0  0  0
   29.6890   20.1553   63.7135 C   0  0  0  0  0  0  0  0  0  0  0  0
   29.2319   18.9571   62.8229 C   0  0  0  0  0  0  0  0  0  0  0  0
   27.7084   18.9325   62.6714 C   0  0  0  0  0  0  0  0  0  0  0  0
   27.0467   19.1510   64.0817 C   0  0  0  0  0  0  0  0  0  0  0  0
   29.8126   19.0445   61.5484 O   0  0  0  0  0  0  0  0  0  0  0  0
   27.5315   20.4059   64.6840 O   0  0  0  0  0  0  0  0  0  0  0  0
   29.5203   19.8617   61.1153 H   0  0  0  0  0  0  0  0  0  0  0  0
   27.0451   17.4627   60.8189 C   0  0  0  0  0  0  0  0  0  0  0  0
   26.6521   16.0899   60.3182 C   0  0  0  0  0  0  0  0  0  0  0  0
   27.3065   17.6281   62.1128 N   0  0  0  0  0  0  0  0  0  0  0  0
   27.1082   18.3800   60.0076 O   0  0  0  0  0  0  0  0  0  0  0  0
   27.2292   16.8546   62.7170 H   0  0  0  0  0  0  0  0  0  0  0  0
   29.3104   21.7408   65.5207 C   0  0  0  0  0  0  0  0  0  0  0  0
   30.3084   21.4981   66.2291 O   0  0  0  0  0  0  0  0  0  0  0  0
   28.7108   22.8301   65.6104 O   0  0  0  0  0  0  0  0  0  0  0  0
   27.9626   22.9988   65.0722 H   0  0  0  0  0  0  0  0  0  0  0  0
   25.4860   19.2688   63.9751 C   0  0  0  0  0  0  0  0  0  0  0  0
   25.0267   20.6184   63.9324 O   0  0  0  0  0  0  0  0  0  0  0  0
   25.2581   21.0650   64.7618 H   0  0  0  0  0  0  0  0  0  0  0  0
   24.8277   18.6361   65.1514 C   0  0  0  0  0  0  0  0  0  0  0  0
   24.1444   17.5107   64.7115 O   0  0  0  0  0  0  0  0  0  0  0  0
   23.4738   17.7732   64.0616 H   0  0  0  0  0  0  0  0  0  0  0  0
   23.8607   19.6092   65.8468 C   0  0  0  0  0  0  0  0  0  0  0  0
   22.6959   19.8450   65.0514 O   0  0  0  0  0  0  0  0  0  0  0  0
   22.9568   20.2413   64.2054 H   0  0  0  0  0  0  0  0  0  0  0  0
 14  1  1  0  0  0
 14 15  2  0  0  0
 14 16  1  0  0  0
  1  2  2  0  0  0
  1  7  1  0  0  0
  2  3  1  0  0  0
  3  4  1  0  0  0
  3  6  1  0  0  0
  4  5  1  0  0  0
  4 11  1  0  0  0
  5 18  1  0  0  0
  5  7  1  0  0  0
 18 21  1  0  0  0
 18 19  1  0  0  0
 21 24  1  0  0  0
 21 22  1  0  0  0
 24 25  1  0  0  0
  9 10  1  0  0  0
  9 11  1  0  0  0
  9 12  2  0  0  0
 11 13  1  0  0  0
 16 17  1  0  0  0
  6  8  1  0  0  0
 19 20  1  0  0  0
 22 23  1  0  0  0
 25 26  1  0  0  0
M  END
> <minimizedAffinity>
-7.08592

$$$$
1F8B_DAN_A_0


 26 26  0  0  0  0  0  0  0  0999 V2000
   27.1916   18.0397   59.4187 C   0  0  0  0  0  0  0  0  0  0  0  0
   28.1137   18.8906   59.9671 C   0  0  0  0  0  0  0  0  0  0  0  0
   28.2093   19.1811   61.4983 C   0  0  0  0  0  0  0  0  0  0  0  0
   27.5966   18.0402   62.3151 C   0  0  0  0  0  0  0  0  0  0  0  0
   26.2126   17.6398   61.6839 C   0  0  0  0  0  0  0  0  0  0  0  0
   29.5488   19.3453   61.8829 O   0  0  0  0  0  0  0  0  0  0  0  0
   26.3830   17.2854   60.2633 O   0  0  0  0  0  0  0  0  0  0  0  0
   30.0383   18.5265   61.7074 H   0  0  0  0  0  0  0  0  0  0  0  0
   26.5671   19.4708   64.0256 C   0  0  0  0  0  0  0  0  0  0  0  0
   26.4237   19.8730   65.4772 C   0  0  0  0  0  0  0  0  0  0  0  0
   27.4134   18.4954   63.7060 N   0  0  0  0  0  0  0  0  0  0  0  0
   25.8932   20.0637   63.1900 O   0  0  0  0  0  0  0  0  0  0  0  0
   27.9344   18.0635   64.4210 H   0  0  0  0  0  0  0  0  0  0  0  0
   27.0084   17.8793   58.0491 C   0  0  0  0  0  0  0  0  0  0  0  0
   27.5984   18.6573   57.2723 O   0  0  0  0  0  0  0  0  0  0  0  0
   26.2656   16.9787   57.6117 O   0  0  0  0  0  0  0  0  0  0  0  0
   25.8287   16.4016   58.2067 H   0  0  0  0  0  0  0  0  0  0  0  0
   25.5941   16.3862   62.3961 C   0  0  0  0  0  0  0  0  0  0  0  0
   25.7969   15.1734   61.6735 O   0  0  0  0  0  0  0  0  0  0  0  0
   25.3436   15.2273   60.8176 H   0  0  0  0  0  0  0  0  0  0  0  0
   24.1216   16.5422   62.5540 C   0  0  0  0  0  0  0  0  0  0  0  0
   23.6360   17.2146   61.4410 O   0  0  0  0  0  0  0  0  0  0  0  0
   24.0543   18.0878   61.3827 H   0  0  0  0  0  0  0  0  0  0  0  0
   23.7713   17.3133   63.8378 C   0  0  0  0  0  0  0  0  0  0  0  0
   22.5021   17.9627   63.7268 O   0  0  0  0  0  0  0  0  0  0  0  0
   22.5281   18.6005   62.9964 H   0  0  0  0  0  0  0  0  0  0  0  0
 14  1  1  0  0  0
 14 15  2  0  0  0
 14 16  1  0  0  0
  1  2  2  0  0  0
  1  7  1  0  0  0
  2  3  1  0  0  0
  3  4  1  0  0  0
  3  6  1  0  0  0
  4  5  1  0  0  0
  4 11  1  0  0  0
  5 18  1  0  0  0
  5  7  1  0  0  0
 18 21  1  0  0  0
 18 19  1  0  0  0
 21 24  1  0  0  0
 21 22  1  0  0  0
 24 25  1  0  0  0
  9 10  1  0  0  0
  9 11  1  0  0  0
  9 12  2  0  0  0
 11 13  1  0  0  0
 16 17  1  0  0  0
  6  8  1  0  0  0
 19 20  1  0  0  0
 22 23  1  0  0  0
 25 26  1  0  0  0
M  END
> <minimizedAffinity>
-7.05663

$$$$
1F8B_DAN_A_0


 26 26  0  0  0  0  0  0  0  0999 V2000
   24.6485   19.0403   64.3342 C   0  0  0  0  0  0  0  0  0  0  0  0
   23.7977   18.0005   64.0699 C   0  0  0  0  0  0  0  0  0  0  0  0
   24.0785   16.9174   62.9809 C   0  0  0  0  0  0  0  0  0  0  0  0
   25.5760   16.8150   62.6785 C   0  0  0  0  0  0  0  0  0  0  0  0
   26.1674   18.2625   62.5073 C   0  0  0  0  0  0  0  0  0  0  0  0
   23.6153   15.6631   63.4067 O   0  0  0  0  0  0  0  0  0  0  0  0
   25.8905   19.0722   63.7074 O   0  0  0  0  0  0  0  0  0  0  0  0
   24.0878   15.4003   64.2121 H   0  0  0  0  0  0  0  0  0  0  0  0
   26.4546   14.9023   61.4130 C   0  0  0  0  0  0  0  0  0  0  0  0
   26.5867   14.1517   60.1057 C   0  0  0  0  0  0  0  0  0  0  0  0
   25.7593   16.0361   61.4396 N   0  0  0  0  0  0  0  0  0  0  0  0
   26.9982   14.4347   62.4078 O   0  0  0  0  0  0  0  0  0  0  0  0
   25.3540   16.3660   60.6053 H   0  0  0  0  0  0  0  0  0  0  0  0
   24.3454   20.0838   65.2026 C   0  0  0  0  0  0  0  0  0  0  0  0
   23.2690   20.0432   65.8325 O   0  0  0  0  0  0  0  0  0  0  0  0
   25.1334   21.0397   65.3420 O   0  0  0  0  0  0  0  0  0  0  0  0
   25.9383   21.0571   64.8626 H   0  0  0  0  0  0  0  0  0  0  0  0
   27.7255   18.2320   62.3267 C   0  0  0  0  0  0  0  0  0  0  0  0
   28.3510   17.1603   63.0299 O   0  0  0  0  0  0  0  0  0  0  0  0
   28.2090   17.2724   63.9828 H   0  0  0  0  0  0  0  0  0  0  0  0
   28.3405   19.4881   62.8381 C   0  0  0  0  0  0  0  0  0  0  0  0
   27.8586   20.5458   62.0794 O   0  0  0  0  0  0  0  0  0  0  0  0
   28.1034   20.4150   61.1500 H   0  0  0  0  0  0  0  0  0  0  0  0
   29.8758   19.4344   62.7638 C   0  0  0  0  0  0  0  0  0  0  0  0
   30.3185   18.8198   61.5509 O   0  0  0  0  0  0  0  0  0  0  0  0
   29.9884   17.9086   61.5110 H   0  0  0  0  0  0  0  0  0  0  0  0
 14  1  1  0  0  0
 14 15  2  0  0  0
 14 16  1  0  0  0
  1  2  2  0  0  0
  1  7  1  0  0  0
  2  3  1  0  0  0
  3  4  1  0  0  0
  3  6  1  0  0  0
  4  5  1  0  0  0
  4 11  1  0  0  0
  5 18  1  0  0  0
  5  7  1  0  0  0
 18 21  1  0  0  0
 18 19  1  0  0  0
 21 24  1  0  0  0
 21 22  1  0  0  0
 24 25  1  0  0  0
  9 10  1  0  0  0
  9 11  1  0  0  0
  9 12  2  0  0  0
 11 13  1  0  0  0
 16 17  1  0  0  0
  6  8  1  0  0  0
 19 20  1  0  0  0
 22 23  1  0  0  0
 25 26  1  0  0  0
M  END
> <minimizedAffinity>
-6.98212

$$$$
1F8B_DAN_A_0


 26 26  0  0  0  0  0  0  0  0999 V2000
   26.6489   18.2674   62.1044 C   0  0  0  0  0  0  0  0  0  0  0  0
   25.4631   17.6037   62.2728 C   0  0  0  0  0  0  0  0  0  0  0  0
   24.7520   17.4545   63.6548 C   0  0  0  0  0  0  0  0  0  0  0  0
   25.1885   18.5588   64.6215 C   0  0  0  0  0  0  0  0  0  0  0  0
   26.7535   18.7057   64.5633 C   0  0  0  0  0  0  0  0  0  0  0  0
   23.3589   17.5142   63.4978 O   0  0  0  0  0  0  0  0  0  0  0  0
   27.1908   18.9648   63.1797 O   0  0  0  0  0  0  0  0  0  0  0  0
   23.1116   18.3775   63.1310 H   0  0  0  0  0  0  0  0  0  0  0  0
   23.6686   18.7160   66.5443 C   0  0  0  0  0  0  0  0  0  0  0  0
   23.2829   18.2836   67.9421 C   0  0  0  0  0  0  0  0  0  0  0  0
   24.7577   18.1960   65.9845 N   0  0  0  0  0  0  0  0  0  0  0  0
   22.9580   19.5369   65.9742 O   0  0  0  0  0  0  0  0  0  0  0  0
   25.2934   17.5480   66.4967 H   0  0  0  0  0  0  0  0  0  0  0  0
   27.3579   18.2889   60.9078 C   0  0  0  0  0  0  0  0  0  0  0  0
   28.5444   18.6750   60.9233 O   0  0  0  0  0  0  0  0  0  0  0  0
   26.8139   17.9332   59.8440 O   0  0  0  0  0  0  0  0  0  0  0  0
   25.9222   17.6456   59.8471 H   0  0  0  0  0  0  0  0  0  0  0  0
   27.2530   19.9119   65.4333 C   0  0  0  0  0  0  0  0  0  0  0  0
   26.3092   20.9786   65.5081 O   0  0  0  0  0  0  0  0  0  0  0  0
   26.1672   21.3473   64.6222 H   0  0  0  0  0  0  0  0  0  0  0  0
   28.5009   20.4917   64.8642 C   0  0  0  0  0  0  0  0  0  0  0  0
   29.4023   19.4571   64.6547 O   0  0  0  0  0  0  0  0  0  0  0  0
   29.5977   19.0225   65.4996 H   0  0  0  0  0  0  0  0  0  0  0  0
   29.1099   21.5480   65.8018 C   0  0  0  0  0  0  0  0  0  0  0  0
   28.5683   22.8467   65.5467 O   0  0  0  0  0  0  0  0  0  0  0  0
   28.7713   23.1082   64.6349 H   0  0  0  0  0  0  0  0  0  0  0  0
 14  1  1  0  0  0
 14 15  2  0  0  0
 14 16  1  0  0  0
  1  2  2  0  0  0
  1  7  1  0  0  0
  2  3  1  0  0  0
  3  4  1  0  0  0
  3  6  1  0  0  0
  4  5  1  0  0  0
  4 11  1  0  0  0
  5 18  1  0  0  0
  5  7  1  0  0  0
 18 21  1  0  0  0
 18 19  1  0  0  0
 21 24  1  0  0  0
 21 22  1  0  0  0
 24 25  1  0  0  0
  9 10  1  0  0  0
  9 11  1  0  0  0
  9 12  2  0  0  0
 11 13  1  0  0  0
 16 17  1  0  0  0
  6  8  1  0  0  0
 19 20  1  0  0  0
 22 23  1  0  0  0
 25 26  1  0  0  0
M  END
> <minimizedAffinity>
-6.79778

$$$$
