4QJ0_WWX_A_303


 40 42  0  0  0  0  0  0  0  0999 V2000
   24.5377    7.2094   14.4426 C   0  0  0  0  0  0  0  0  0  0  0  0
   24.3916    8.2183   15.3862 C   0  0  0  0  0  0  0  0  0  0  0  0
   24.2428    7.9300   16.7217 F   0  0  0  0  0  0  0  0  0  0  0  0
   24.3981    9.5559   14.9578 C   0  0  0  0  0  0  0  0  0  0  0  0
   24.2457   10.5244   15.8833 F   0  0  0  0  0  0  0  0  0  0  0  0
   24.6216    7.5070   13.0623 C   0  0  0  0  0  0  0  0  0  0  0  0
   24.5852    8.8530   12.6687 C   0  0  0  0  0  0  0  0  0  0  0  0
   24.6755    9.2947   11.4387 F   0  0  0  0  0  0  0  0  0  0  0  0
   24.4772    9.8542   13.6270 C   0  0  0  0  0  0  0  0  0  0  0  0
   24.6049   11.5557   13.1283 S   0  0  0  0  0  0  0  0  0  0  0  0
   23.4876   12.3543   13.7950 O   0  0  0  0  0  0  0  0  0  0  0  0
   24.6779   12.0575   11.5899 N   0  0  0  0  0  0  0  0  0  0  0  0
   25.9100   11.9536   13.8256 O   0  0  0  0  0  0  0  0  0  0  0  0
   23.8164   11.8015   11.1075 H   0  0  0  0  0  0  0  0  0  0  0  0
   25.4715   11.6160   11.1255 H   0  0  0  0  0  0  0  0  0  0  0  0
   24.7913    4.4166   14.1298 O   0  0  0  0  0  0  0  0  0  0  0  0
   24.5872    5.5537   15.1662 S   0  0  0  0  0  0  0  0  0  0  0  0
   25.8477    5.4000   16.0780 O   0  0  0  0  0  0  0  0  0  0  0  0
   23.2320    5.2177   16.3176 C   0  0  0  0  0  0  0  0  0  0  0  0
   22.3182    4.1286   15.7439 C   0  0  0  0  0  0  0  0  0  0  0  0
   21.2190    4.0855   16.6295 O   0  0  0  0  0  0  0  0  0  0  0  0
   20.8024    4.9605   16.6706 H   0  0  0  0  0  0  0  0  0  0  0  0
   24.7333    6.4524   12.1297 N   0  0  0  0  0  0  0  0  0  0  0  0
   24.0184    5.7841   12.0222 H   0  0  0  0  0  0  0  0  0  0  0  0
   25.9802    6.3948   11.3150 C   0  0  0  0  0  0  0  0  0  0  0  0
   25.7689    5.3331   10.2540 C   0  0  0  0  0  0  0  0  0  0  0  0
   24.6665    4.4725   10.3921 C   0  0  0  0  0  0  0  0  0  0  0  0
   24.4776    3.4164    9.4315 C   0  0  0  0  0  0  0  0  0  0  0  0
   25.3585    3.2474    8.3440 C   0  0  0  0  0  0  0  0  0  0  0  0
   26.4270    4.1531    8.2169 C   0  0  0  0  0  0  0  0  0  0  0  0
   26.6369    5.1776    9.1641 C   0  0  0  0  0  0  0  0  0  0  0  0
   27.2510    6.1269   12.1665 C   0  0  0  0  0  0  0  0  0  0  0  0
   27.3889    4.7666   12.2873 O   0  0  0  0  0  0  0  0  0  0  0  0
   27.4060    4.3637   11.4051 H   0  0  0  0  0  0  0  0  0  0  0  0
   28.3391    6.7312   11.3558 C   0  0  0  0  0  0  0  0  0  0  0  0
   29.4148    5.9088   10.9267 C   0  0  0  0  0  0  0  0  0  0  0  0
   30.3907    6.4027   10.0478 C   0  0  0  0  0  0  0  0  0  0  0  0
   30.2456    7.7203    9.6553 C   0  0  0  0  0  0  0  0  0  0  0  0
   29.1721    8.5424   10.1643 C   0  0  0  0  0  0  0  0  0  0  0  0
   28.1443    8.0551   10.9885 C   0  0  0  0  0  0  0  0  0  0  0  0
 21 20  1  0  0  0
 20 19  1  0  0  0
 19 17  1  0  0  0
 39 38  2  0  0  0
 39 40  1  0  0  0
 38 37  1  0  0  0
 40 35  2  0  0  0
 37 36  2  0  0  0
 35 36  1  0  0  0
 35 32  1  0  0  0
 33 32  1  0  0  0
 32 25  1  0  0  0
 18 17  2  0  0  0
 17 16  2  0  0  0
 17  1  1  0  0  0
  3  2  1  0  0  0
  1  2  2  0  0  0
  1  6  1  0  0  0
  2  4  1  0  0  0
 25 23  1  0  0  0
 25 26  1  0  0  0
 23  6  1  0  0  0
  5  4  1  0  0  0
  6  7  2  0  0  0
  4  9  2  0  0  0
  7  9  1  0  0  0
  7  8  1  0  0  0
  9 10  1  0  0  0
 26 31  2  0  0  0
 26 27  1  0  0  0
 31 30  1  0  0  0
 27 28  2  0  0  0
 11 10  2  0  0  0
 12 10  1  0  0  0
 10 13  2  0  0  0
 30 29  2  0  0  0
 28 29  1  0  0  0
 21 22  1  0  0  0
 12 14  1  0  0  0
 12 15  1  0  0  0
 23 24  1  0  0  0
 33 34  1  0  0  0
M  END
> <minimizedAffinity>
-9.70850

$$$$
4QJ0_WWX_A_303


 40 42  0  0  0  0  0  0  0  0999 V2000
   27.3567    5.8019   10.3019 C   0  0  0  0  0  0  0  0  0  0  0  0
   27.0335    5.1621    9.1120 C   0  0  0  0  0  0  0  0  0  0  0  0
   27.7763    5.3574    7.9722 F   0  0  0  0  0  0  0  0  0  0  0  0
   25.9251    4.2999    9.0829 C   0  0  0  0  0  0  0  0  0  0  0  0
   25.6174    3.6931    7.9189 F   0  0  0  0  0  0  0  0  0  0  0  0
   26.5500    5.6519   11.4541 C   0  0  0  0  0  0  0  0  0  0  0  0
   25.4281    4.8132   11.3761 C   0  0  0  0  0  0  0  0  0  0  0  0
   24.5980    4.5504   12.3548 F   0  0  0  0  0  0  0  0  0  0  0  0
   25.1386    4.1491   10.1897 C   0  0  0  0  0  0  0  0  0  0  0  0
   23.8174    2.9602   10.1562 S   0  0  0  0  0  0  0  0  0  0  0  0
   23.1214    3.0287    8.7992 O   0  0  0  0  0  0  0  0  0  0  0  0
   22.6474    2.8578   11.2718 N   0  0  0  0  0  0  0  0  0  0  0  0
   24.6173    1.6535   10.1779 O   0  0  0  0  0  0  0  0  0  0  0  0
   22.1024    3.7200   11.2730 H   0  0  0  0  0  0  0  0  0  0  0  0
   23.0658    2.7187   12.1915 H   0  0  0  0  0  0  0  0  0  0  0  0
   29.5284    7.0939   11.5573 O   0  0  0  0  0  0  0  0  0  0  0  0
   28.8522    6.8108   10.1892 S   0  0  0  0  0  0  0  0  0  0  0  0
   29.9712    6.0345    9.4219 O   0  0  0  0  0  0  0  0  0  0  0  0
   28.6546    8.3021    9.1832 C   0  0  0  0  0  0  0  0  0  0  0  0
   29.7244    9.3326    9.5625 C   0  0  0  0  0  0  0  0  0  0  0  0
   30.9504    8.6615    9.3603 O   0  0  0  0  0  0  0  0  0  0  0  0
   31.0075    8.3629    8.4392 H   0  0  0  0  0  0  0  0  0  0  0  0
   26.8901    6.3468   12.6355 N   0  0  0  0  0  0  0  0  0  0  0  0
   27.7344    6.1703   13.1101 H   0  0  0  0  0  0  0  0  0  0  0  0
   25.9156    7.3590   13.1331 C   0  0  0  0  0  0  0  0  0  0  0  0
   26.2941    8.6859   12.5057 C   0  0  0  0  0  0  0  0  0  0  0  0
   25.4723    9.1910   11.4837 C   0  0  0  0  0  0  0  0  0  0  0  0
   25.8431   10.4188   10.8291 C   0  0  0  0  0  0  0  0  0  0  0  0
   26.9954   11.1353   11.2113 C   0  0  0  0  0  0  0  0  0  0  0  0
   27.7707   10.6191   12.2652 C   0  0  0  0  0  0  0  0  0  0  0  0
   27.4315    9.4050   12.8991 C   0  0  0  0  0  0  0  0  0  0  0  0
   25.8599    7.4388   14.6831 C   0  0  0  0  0  0  0  0  0  0  0  0
   25.4739    8.7127   15.0181 O   0  0  0  0  0  0  0  0  0  0  0  0
   24.6366    8.9237   14.5761 H   0  0  0  0  0  0  0  0  0  0  0  0
   24.8311    6.4288   15.0404 C   0  0  0  0  0  0  0  0  0  0  0  0
   25.2514    5.1455   15.4813 C   0  0  0  0  0  0  0  0  0  0  0  0
   24.3213    4.2092   15.9578 C   0  0  0  0  0  0  0  0  0  0  0  0
   22.9974    4.6073   15.9485 C   0  0  0  0  0  0  0  0  0  0  0  0
   22.6043    5.8984   15.4328 C   0  0  0  0  0  0  0  0  0  0  0  0
   23.5189    6.8794   15.0154 C   0  0  0  0  0  0  0  0  0  0  0  0
 21 20  1  0  0  0
 20 19  1  0  0  0
 19 17  1  0  0  0
 39 38  2  0  0  0
 39 40  1  0  0  0
 38 37  1  0  0  0
 40 35  2  0  0  0
 37 36  2  0  0  0
 35 36  1  0  0  0
 35 32  1  0  0  0
 33 32  1  0  0  0
 32 25  1  0  0  0
 18 17  2  0  0  0
 17 16  2  0  0  0
 17  1  1  0  0  0
  3  2  1  0  0  0
  1  2  2  0  0  0
  1  6  1  0  0  0
  2  4  1  0  0  0
 25 23  1  0  0  0
 25 26  1  0  0  0
 23  6  1  0  0  0
  5  4  1  0  0  0
  6  7  2  0  0  0
  4  9  2  0  0  0
  7  9  1  0  0  0
  7  8  1  0  0  0
  9 10  1  0  0  0
 26 31  2  0  0  0
 26 27  1  0  0  0
 31 30  1  0  0  0
 27 28  2  0  0  0
 11 10  2  0  0  0
 12 10  1  0  0  0
 10 13  2  0  0  0
 30 29  2  0  0  0
 28 29  1  0  0  0
 21 22  1  0  0  0
 12 14  1  0  0  0
 12 15  1  0  0  0
 23 24  1  0  0  0
 33 34  1  0  0  0
M  END
> <minimizedAffinity>
-9.44415

$$$$
4QJ0_WWX_A_303


 40 42  0  0  0  0  0  0  0  0999 V2000
   24.9649    7.7388   13.7884 C   0  0  0  0  0  0  0  0  0  0  0  0
   25.1391    8.8463   14.6085 C   0  0  0  0  0  0  0  0  0  0  0  0
   25.0602    8.7407   15.9766 F   0  0  0  0  0  0  0  0  0  0  0  0
   25.4014   10.0940   14.0192 C   0  0  0  0  0  0  0  0  0  0  0  0
   25.5589   11.1621   14.8268 F   0  0  0  0  0  0  0  0  0  0  0  0
   24.9786    7.8639   12.3795 C   0  0  0  0  0  0  0  0  0  0  0  0
   25.2045    9.1333   11.8267 C   0  0  0  0  0  0  0  0  0  0  0  0
   25.2710    9.4118   10.5484 F   0  0  0  0  0  0  0  0  0  0  0  0
   25.4154   10.2260   12.6596 C   0  0  0  0  0  0  0  0  0  0  0  0
   25.8695   11.7903   11.9473 S   0  0  0  0  0  0  0  0  0  0  0  0
   26.4152   11.5563   10.5409 O   0  0  0  0  0  0  0  0  0  0  0  0
   26.8523   12.8680   12.6518 N   0  0  0  0  0  0  0  0  0  0  0  0
   24.4886   12.4341   11.7847 O   0  0  0  0  0  0  0  0  0  0  0  0
   27.7787   12.4576   12.7691 H   0  0  0  0  0  0  0  0  0  0  0  0
   26.4764   13.1253   13.5644 H   0  0  0  0  0  0  0  0  0  0  0  0
   24.9751    4.9183   13.8713 O   0  0  0  0  0  0  0  0  0  0  0  0
   24.7148    6.2012   14.7052 S   0  0  0  0  0  0  0  0  0  0  0  0
   25.7753    6.0740   15.8467 O   0  0  0  0  0  0  0  0  0  0  0  0
   23.1531    6.1391   15.6176 C   0  0  0  0  0  0  0  0  0  0  0  0
   22.8686    4.7013   16.0672 C   0  0  0  0  0  0  0  0  0  0  0  0
   21.4599    4.6017   16.0656 O   0  0  0  0  0  0  0  0  0  0  0  0
   21.1222    4.8060   15.1795 H   0  0  0  0  0  0  0  0  0  0  0  0
   24.7619    6.7213   11.5784 N   0  0  0  0  0  0  0  0  0  0  0  0
   23.8898    6.2648   11.5603 H   0  0  0  0  0  0  0  0  0  0  0  0
   25.9104    6.2362   10.7614 C   0  0  0  0  0  0  0  0  0  0  0  0
   25.4480    4.9829   10.0452 C   0  0  0  0  0  0  0  0  0  0  0  0
   26.1848    4.5507    8.9293 C   0  0  0  0  0  0  0  0  0  0  0  0
   25.7316    3.3983    8.1943 C   0  0  0  0  0  0  0  0  0  0  0  0
   24.5832    2.6818    8.5878 C   0  0  0  0  0  0  0  0  0  0  0  0
   23.8953    3.1208    9.7334 C   0  0  0  0  0  0  0  0  0  0  0  0
   24.3150    4.2624   10.4487 C   0  0  0  0  0  0  0  0  0  0  0  0
   27.1934    5.9911   11.6014 C   0  0  0  0  0  0  0  0  0  0  0  0
   27.3149    4.6362   11.7854 O   0  0  0  0  0  0  0  0  0  0  0  0
   27.3095    4.1911   10.9236 H   0  0  0  0  0  0  0  0  0  0  0  0
   28.2740    6.5395   10.7425 C   0  0  0  0  0  0  0  0  0  0  0  0
   29.5458    5.9070   10.7495 C   0  0  0  0  0  0  0  0  0  0  0  0
   30.5514    6.3053    9.8557 C   0  0  0  0  0  0  0  0  0  0  0  0
   30.2310    7.3451    9.0029 C   0  0  0  0  0  0  0  0  0  0  0  0
   28.9470    8.0040    9.0703 C   0  0  0  0  0  0  0  0  0  0  0  0
   27.8999    7.5814    9.9057 C   0  0  0  0  0  0  0  0  0  0  0  0
 21 20  1  0  0  0
 20 19  1  0  0  0
 19 17  1  0  0  0
 39 38  2  0  0  0
 39 40  1  0  0  0
 38 37  1  0  0  0
 40 35  2  0  0  0
 37 36  2  0  0  0
 35 36  1  0  0  0
 35 32  1  0  0  0
 33 32  1  0  0  0
 32 25  1  0  0  0
 18 17  2  0  0  0
 17 16  2  0  0  0
 17  1  1  0  0  0
  3  2  1  0  0  0
  1  2  2  0  0  0
  1  6  1  0  0  0
  2  4  1  0  0  0
 25 23  1  0  0  0
 25 26  1  0  0  0
 23  6  1  0  0  0
  5  4  1  0  0  0
  6  7  2  0  0  0
  4  9  2  0  0  0
  7  9  1  0  0  0
  7  8  1  0  0  0
  9 10  1  0  0  0
 26 31  2  0  0  0
 26 27  1  0  0  0
 31 30  1  0  0  0
 27 28  2  0  0  0
 11 10  2  0  0  0
 12 10  1  0  0  0
 10 13  2  0  0  0
 30 29  2  0  0  0
 28 29  1  0  0  0
 21 22  1  0  0  0
 12 14  1  0  0  0
 12 15  1  0  0  0
 23 24  1  0  0  0
 33 34  1  0  0  0
M  END
> <minimizedAffinity>
-9.10884

$$$$
4QJ0_WWX_A_303


 40 42  0  0  0  0  0  0  0  0999 V2000
   27.7103    5.8118   10.1276 C   0  0  0  0  0  0  0  0  0  0  0  0
   27.5934    5.2691    8.8542 C   0  0  0  0  0  0  0  0  0  0  0  0
   28.5117    5.5511    7.8713 F   0  0  0  0  0  0  0  0  0  0  0  0
   26.5129    4.4161    8.5753 C   0  0  0  0  0  0  0  0  0  0  0  0
   26.4067    3.9042    7.3326 F   0  0  0  0  0  0  0  0  0  0  0  0
   26.7265    5.5743   11.1158 C   0  0  0  0  0  0  0  0  0  0  0  0
   25.6406    4.7486   10.7884 C   0  0  0  0  0  0  0  0  0  0  0  0
   24.6633    4.4124   11.5933 F   0  0  0  0  0  0  0  0  0  0  0  0
   25.5566    4.1813    9.5221 C   0  0  0  0  0  0  0  0  0  0  0  0
   24.2700    3.0036    9.1781 S   0  0  0  0  0  0  0  0  0  0  0  0
   24.1579    2.8171    7.6671 O   0  0  0  0  0  0  0  0  0  0  0  0
   22.7563    3.1073    9.7453 N   0  0  0  0  0  0  0  0  0  0  0  0
   24.9053    1.7256    9.7358 O   0  0  0  0  0  0  0  0  0  0  0  0
   22.3153    3.9534    9.3846 H   0  0  0  0  0  0  0  0  0  0  0  0
   22.7767    3.1425   10.7644 H   0  0  0  0  0  0  0  0  0  0  0  0
   29.4331    7.2915   11.8021 O   0  0  0  0  0  0  0  0  0  0  0  0
   29.1944    6.8210   10.3425 S   0  0  0  0  0  0  0  0  0  0  0  0
   30.4734    5.9686   10.0568 O   0  0  0  0  0  0  0  0  0  0  0  0
   29.3463    8.1642    9.1393 C   0  0  0  0  0  0  0  0  0  0  0  0
   30.1459    9.3218    9.7483 C   0  0  0  0  0  0  0  0  0  0  0  0
   31.3795    8.7435   10.1201 O   0  0  0  0  0  0  0  0  0  0  0  0
   31.7997    8.3488    9.3400 H   0  0  0  0  0  0  0  0  0  0  0  0
   26.8609    6.1724   12.3880 N   0  0  0  0  0  0  0  0  0  0  0  0
   27.3676    5.7352   13.1100 H   0  0  0  0  0  0  0  0  0  0  0  0
   26.2027    7.4943   12.5905 C   0  0  0  0  0  0  0  0  0  0  0  0
   25.2057    7.3257   13.7197 C   0  0  0  0  0  0  0  0  0  0  0  0
   25.0564    8.3844   14.6317 C   0  0  0  0  0  0  0  0  0  0  0  0
   24.1612    8.2260   15.7485 C   0  0  0  0  0  0  0  0  0  0  0  0
   23.4138    7.0443   15.9280 C   0  0  0  0  0  0  0  0  0  0  0  0
   23.5598    6.0228   14.9723 C   0  0  0  0  0  0  0  0  0  0  0  0
   24.4512    6.1559   13.8865 C   0  0  0  0  0  0  0  0  0  0  0  0
   25.5380    8.0466   11.3001 C   0  0  0  0  0  0  0  0  0  0  0  0
   24.2214    8.3042   11.5905 O   0  0  0  0  0  0  0  0  0  0  0  0
   24.1693    8.9000   12.3542 H   0  0  0  0  0  0  0  0  0  0  0  0
   26.3051    9.2886   11.0254 C   0  0  0  0  0  0  0  0  0  0  0  0
   26.1911    9.8987    9.7477 C   0  0  0  0  0  0  0  0  0  0  0  0
   26.7876   11.1423    9.4895 C   0  0  0  0  0  0  0  0  0  0  0  0
   27.4938   11.7075   10.5349 C   0  0  0  0  0  0  0  0  0  0  0  0
   27.6390   11.0248   11.7999 C   0  0  0  0  0  0  0  0  0  0  0  0
   26.9960    9.8145   12.1078 C   0  0  0  0  0  0  0  0  0  0  0  0
 21 20  1  0  0  0
 20 19  1  0  0  0
 19 17  1  0  0  0
 39 38  2  0  0  0
 39 40  1  0  0  0
 38 37  1  0  0  0
 40 35  2  0  0  0
 37 36  2  0  0  0
 35 36  1  0  0  0
 35 32  1  0  0  0
 33 32  1  0  0  0
 32 25  1  0  0  0
 18 17  2  0  0  0
 17 16  2  0  0  0
 17  1  1  0  0  0
  3  2  1  0  0  0
  1  2  2  0  0  0
  1  6  1  0  0  0
  2  4  1  0  0  0
 25 23  1  0  0  0
 25 26  1  0  0  0
 23  6  1  0  0  0
  5  4  1  0  0  0
  6  7  2  0  0  0
  4  9  2  0  0  0
  7  9  1  0  0  0
  7  8  1  0  0  0
  9 10  1  0  0  0
 26 31  2  0  0  0
 26 27  1  0  0  0
 31 30  1  0  0  0
 27 28  2  0  0  0
 11 10  2  0  0  0
 12 10  1  0  0  0
 10 13  2  0  0  0
 30 29  2  0  0  0
 28 29  1  0  0  0
 21 22  1  0  0  0
 12 14  1  0  0  0
 12 15  1  0  0  0
 23 24  1  0  0  0
 33 34  1  0  0  0
M  END
> <minimizedAffinity>
-8.94910

$$$$
4QJ0_WWX_A_303


 40 42  0  0  0  0  0  0  0  0999 V2000
   25.2602    5.2723   13.7700 C   0  0  0  0  0  0  0  0  0  0  0  0
   24.0627    4.5695   13.8106 C   0  0  0  0  0  0  0  0  0  0  0  0
   23.3480    4.4446   14.9778 F   0  0  0  0  0  0  0  0  0  0  0  0
   23.5804    3.9795   12.6308 C   0  0  0  0  0  0  0  0  0  0  0  0
   22.4217    3.2924   12.6870 F   0  0  0  0  0  0  0  0  0  0  0  0
   26.0270    5.3406   12.5833 C   0  0  0  0  0  0  0  0  0  0  0  0
   25.5324    4.7055   11.4344 C   0  0  0  0  0  0  0  0  0  0  0  0
   26.1063    4.6958   10.2568 F   0  0  0  0  0  0  0  0  0  0  0  0
   24.3137    4.0384   11.4797 C   0  0  0  0  0  0  0  0  0  0  0  0
   23.6198    3.3874    9.9780 S   0  0  0  0  0  0  0  0  0  0  0  0
   23.0829    1.9837   10.2462 O   0  0  0  0  0  0  0  0  0  0  0  0
   24.4005    3.3212    8.5603 N   0  0  0  0  0  0  0  0  0  0  0  0
   22.4022    4.3030    9.8135 O   0  0  0  0  0  0  0  0  0  0  0  0
   25.2161    2.7152    8.6493 H   0  0  0  0  0  0  0  0  0  0  0  0
   24.7010    4.2588    8.2936 H   0  0  0  0  0  0  0  0  0  0  0  0
   25.7987    5.0296   16.5292 O   0  0  0  0  0  0  0  0  0  0  0  0
   25.6977    6.0337   15.3499 S   0  0  0  0  0  0  0  0  0  0  0  0
   27.1473    6.6155   15.2864 O   0  0  0  0  0  0  0  0  0  0  0  0
   24.7104    7.4949   15.7562 C   0  0  0  0  0  0  0  0  0  0  0  0
   25.4824    8.7660   15.3833 C   0  0  0  0  0  0  0  0  0  0  0  0
   26.2494    9.0642   16.5310 O   0  0  0  0  0  0  0  0  0  0  0  0
   26.8214    8.3100   16.7426 H   0  0  0  0  0  0  0  0  0  0  0  0
   27.2572    6.0340   12.5899 N   0  0  0  0  0  0  0  0  0  0  0  0
   28.0292    5.7050   13.1048 H   0  0  0  0  0  0  0  0  0  0  0  0
   27.3366    7.2853   11.7839 C   0  0  0  0  0  0  0  0  0  0  0  0
   28.2642    7.0048   10.6184 C   0  0  0  0  0  0  0  0  0  0  0  0
   29.5241    6.4479   10.8969 C   0  0  0  0  0  0  0  0  0  0  0  0
   30.4479    6.2285    9.8143 C   0  0  0  0  0  0  0  0  0  0  0  0
   30.1033    6.5348    8.4821 C   0  0  0  0  0  0  0  0  0  0  0  0
   28.8187    7.0530    8.2381 C   0  0  0  0  0  0  0  0  0  0  0  0
   27.9127    7.2948    9.2925 C   0  0  0  0  0  0  0  0  0  0  0  0
   27.7947    8.5152   12.6141 C   0  0  0  0  0  0  0  0  0  0  0  0
   29.0254    8.2205   13.1456 O   0  0  0  0  0  0  0  0  0  0  0  0
   29.6337    7.9695   12.4329 H   0  0  0  0  0  0  0  0  0  0  0  0
   27.8656    9.6019   11.6039 C   0  0  0  0  0  0  0  0  0  0  0  0
   29.1395   10.0861   11.2032 C   0  0  0  0  0  0  0  0  0  0  0  0
   29.2592   11.0126   10.1563 C   0  0  0  0  0  0  0  0  0  0  0  0
   28.0770   11.4259    9.5708 C   0  0  0  0  0  0  0  0  0  0  0  0
   26.7971   10.9571   10.0497 C   0  0  0  0  0  0  0  0  0  0  0  0
   26.6517    9.9791   11.0474 C   0  0  0  0  0  0  0  0  0  0  0  0
 21 20  1  0  0  0
 20 19  1  0  0  0
 19 17  1  0  0  0
 39 38  2  0  0  0
 39 40  1  0  0  0
 38 37  1  0  0  0
 40 35  2  0  0  0
 37 36  2  0  0  0
 35 36  1  0  0  0
 35 32  1  0  0  0
 33 32  1  0  0  0
 32 25  1  0  0  0
 18 17  2  0  0  0
 17 16  2  0  0  0
 17  1  1  0  0  0
  3  2  1  0  0  0
  1  2  2  0  0  0
  1  6  1  0  0  0
  2  4  1  0  0  0
 25 23  1  0  0  0
 25 26  1  0  0  0
 23  6  1  0  0  0
  5  4  1  0  0  0
  6  7  2  0  0  0
  4  9  2  0  0  0
  7  9  1  0  0  0
  7  8  1  0  0  0
  9 10  1  0  0  0
 26 31  2  0  0  0
 26 27  1  0  0  0
 31 30  1  0  0  0
 27 28  2  0  0  0
 11 10  2  0  0  0
 12 10  1  0  0  0
 10 13  2  0  0  0
 30 29  2  0  0  0
 28 29  1  0  0  0
 21 22  1  0  0  0
 12 14  1  0  0  0
 12 15  1  0  0  0
 23 24  1  0  0  0
 33 34  1  0  0  0
M  END
> <minimizedAffinity>
-8.76636

$$$$
4QJ0_WWX_A_303


 40 42  0  0  0  0  0  0  0  0999 V2000
   25.2306    8.7317   12.9839 C   0  0  0  0  0  0  0  0  0  0  0  0
   25.1300    8.9966   14.3438 C   0  0  0  0  0  0  0  0  0  0  0  0
   25.4267   10.2383   14.8528 F   0  0  0  0  0  0  0  0  0  0  0  0
   24.7152    7.9696   15.2077 C   0  0  0  0  0  0  0  0  0  0  0  0
   24.6312    8.2382   16.5262 F   0  0  0  0  0  0  0  0  0  0  0  0
   24.9907    7.4347   12.4729 C   0  0  0  0  0  0  0  0  0  0  0  0
   24.6165    6.4244   13.3714 C   0  0  0  0  0  0  0  0  0  0  0  0
   24.3370    5.1839   13.0569 F   0  0  0  0  0  0  0  0  0  0  0  0
   24.4824    6.7132   14.7246 C   0  0  0  0  0  0  0  0  0  0  0  0
   23.8431    5.4694   15.8222 S   0  0  0  0  0  0  0  0  0  0  0  0
   22.3972    5.1643   15.4393 O   0  0  0  0  0  0  0  0  0  0  0  0
   23.8836    5.5644   17.4387 N   0  0  0  0  0  0  0  0  0  0  0  0
   24.6797    4.2603   15.3910 O   0  0  0  0  0  0  0  0  0  0  0  0
   23.3313    6.3649   17.7462 H   0  0  0  0  0  0  0  0  0  0  0  0
   24.8488    5.6781   17.7486 H   0  0  0  0  0  0  0  0  0  0  0  0
   25.6416    9.9484   10.4715 O   0  0  0  0  0  0  0  0  0  0  0  0
   25.6993   10.1774   12.0055 S   0  0  0  0  0  0  0  0  0  0  0  0
   24.6590   11.3268   12.2073 O   0  0  0  0  0  0  0  0  0  0  0  0
   27.2440   10.9536   12.5407 C   0  0  0  0  0  0  0  0  0  0  0  0
   27.9305   11.6267   11.3465 C   0  0  0  0  0  0  0  0  0  0  0  0
   26.9530   12.5009   10.8224 O   0  0  0  0  0  0  0  0  0  0  0  0
   26.6732   13.1235   11.5116 H   0  0  0  0  0  0  0  0  0  0  0  0
   25.1380    7.1950   11.0890 N   0  0  0  0  0  0  0  0  0  0  0  0
   24.4525    7.4805   10.4426 H   0  0  0  0  0  0  0  0  0  0  0  0
   26.3761    6.4912   10.6491 C   0  0  0  0  0  0  0  0  0  0  0  0
   25.9406    5.3240    9.7857 C   0  0  0  0  0  0  0  0  0  0  0  0
   26.8053    4.9021    8.7614 C   0  0  0  0  0  0  0  0  0  0  0  0
   26.3888    3.8356    7.8880 C   0  0  0  0  0  0  0  0  0  0  0  0
   25.1469    3.1908    8.0576 C   0  0  0  0  0  0  0  0  0  0  0  0
   24.3263    3.6139    9.1187 C   0  0  0  0  0  0  0  0  0  0  0  0
   24.7121    4.6733    9.9671 C   0  0  0  0  0  0  0  0  0  0  0  0
   27.2729    6.0404   11.8342 C   0  0  0  0  0  0  0  0  0  0  0  0
   27.3042    4.6681   11.8306 O   0  0  0  0  0  0  0  0  0  0  0  0
   27.6006    4.3537   10.9622 H   0  0  0  0  0  0  0  0  0  0  0  0
   28.5951    6.6325   11.5066 C   0  0  0  0  0  0  0  0  0  0  0  0
   28.8945    7.9429   11.9658 C   0  0  0  0  0  0  0  0  0  0  0  0
   30.1766    8.4877   11.7980 C   0  0  0  0  0  0  0  0  0  0  0  0
   31.0989    7.6861   11.1515 C   0  0  0  0  0  0  0  0  0  0  0  0
   30.7367    6.3830   10.6434 C   0  0  0  0  0  0  0  0  0  0  0  0
   29.4834    5.7863   10.8582 C   0  0  0  0  0  0  0  0  0  0  0  0
 21 20  1  0  0  0
 20 19  1  0  0  0
 19 17  1  0  0  0
 39 38  2  0  0  0
 39 40  1  0  0  0
 38 37  1  0  0  0
 40 35  2  0  0  0
 37 36  2  0  0  0
 35 36  1  0  0  0
 35 32  1  0  0  0
 33 32  1  0  0  0
 32 25  1  0  0  0
 18 17  2  0  0  0
 17 16  2  0  0  0
 17  1  1  0  0  0
  3  2  1  0  0  0
  1  2  2  0  0  0
  1  6  1  0  0  0
  2  4  1  0  0  0
 25 23  1  0  0  0
 25 26  1  0  0  0
 23  6  1  0  0  0
  5  4  1  0  0  0
  6  7  2  0  0  0
  4  9  2  0  0  0
  7  9  1  0  0  0
  7  8  1  0  0  0
  9 10  1  0  0  0
 26 31  2  0  0  0
 26 27  1  0  0  0
 31 30  1  0  0  0
 27 28  2  0  0  0
 11 10  2  0  0  0
 12 10  1  0  0  0
 10 13  2  0  0  0
 30 29  2  0  0  0
 28 29  1  0  0  0
 21 22  1  0  0  0
 12 14  1  0  0  0
 12 15  1  0  0  0
 23 24  1  0  0  0
 33 34  1  0  0  0
M  END
> <minimizedAffinity>
-8.71426

$$$$
4QJ0_WWX_A_303


 40 42  0  0  0  0  0  0  0  0999 V2000
   27.0175    6.0505   10.1594 C   0  0  0  0  0  0  0  0  0  0  0  0
   26.9837    5.1743    9.0820 C   0  0  0  0  0  0  0  0  0  0  0  0
   27.9109    5.2513    8.0704 F   0  0  0  0  0  0  0  0  0  0  0  0
   25.9796    4.1934    9.0347 C   0  0  0  0  0  0  0  0  0  0  0  0
   25.9533    3.3559    7.9785 F   0  0  0  0  0  0  0  0  0  0  0  0
   26.0216    6.0123   11.1632 C   0  0  0  0  0  0  0  0  0  0  0  0
   25.0117    5.0440   11.0617 C   0  0  0  0  0  0  0  0  0  0  0  0
   24.0357    4.8618   11.9163 F   0  0  0  0  0  0  0  0  0  0  0  0
   25.0123    4.1487    9.9983 C   0  0  0  0  0  0  0  0  0  0  0  0
   23.8290    2.8221    9.9749 S   0  0  0  0  0  0  0  0  0  0  0  0
   23.1583    2.7785    8.6042 O   0  0  0  0  0  0  0  0  0  0  0  0
   22.6540    2.6219   11.0717 N   0  0  0  0  0  0  0  0  0  0  0  0
   24.7656    1.6116   10.0479 O   0  0  0  0  0  0  0  0  0  0  0  0
   22.0186    3.4191   11.0387 H   0  0  0  0  0  0  0  0  0  0  0  0
   23.0657    2.5535   12.0024 H   0  0  0  0  0  0  0  0  0  0  0  0
   28.6128    7.8892    8.7325 O   0  0  0  0  0  0  0  0  0  0  0  0
   28.4145    7.1963   10.1071 S   0  0  0  0  0  0  0  0  0  0  0  0
   28.1523    8.4116   11.0549 O   0  0  0  0  0  0  0  0  0  0  0  0
   29.9501    6.5087   10.7734 C   0  0  0  0  0  0  0  0  0  0  0  0
   30.9412    7.6394   11.0726 C   0  0  0  0  0  0  0  0  0  0  0  0
   30.9406    7.7479   12.4806 O   0  0  0  0  0  0  0  0  0  0  0  0
   31.1931    6.8964   12.8706 H   0  0  0  0  0  0  0  0  0  0  0  0
   26.0687    6.9429   12.2244 N   0  0  0  0  0  0  0  0  0  0  0  0
   25.8078    7.8833   12.0947 H   0  0  0  0  0  0  0  0  0  0  0  0
   26.5305    6.4400   13.5494 C   0  0  0  0  0  0  0  0  0  0  0  0
   25.2980    5.9881   14.3071 C   0  0  0  0  0  0  0  0  0  0  0  0
   25.3883    4.8137   15.0737 C   0  0  0  0  0  0  0  0  0  0  0  0
   24.2151    4.3292   15.7539 C   0  0  0  0  0  0  0  0  0  0  0  0
   22.9897    5.0227   15.6881 C   0  0  0  0  0  0  0  0  0  0  0  0
   22.9489    6.2156   14.9440 C   0  0  0  0  0  0  0  0  0  0  0  0
   24.0849    6.6888   14.2535 C   0  0  0  0  0  0  0  0  0  0  0  0
   27.3547    7.4891   14.3443 C   0  0  0  0  0  0  0  0  0  0  0  0
   28.4878    7.7611   13.6189 O   0  0  0  0  0  0  0  0  0  0  0  0
   28.2393    8.0416   12.7242 H   0  0  0  0  0  0  0  0  0  0  0  0
   26.4409    8.6579   14.4165 C   0  0  0  0  0  0  0  0  0  0  0  0
   26.0879    9.3299   13.2159 C   0  0  0  0  0  0  0  0  0  0  0  0
   25.1240   10.3496   13.2198 C   0  0  0  0  0  0  0  0  0  0  0  0
   24.5711   10.6599   14.4483 C   0  0  0  0  0  0  0  0  0  0  0  0
   25.0032    9.9957   15.6564 C   0  0  0  0  0  0  0  0  0  0  0  0
   25.9136    8.9261   15.6717 C   0  0  0  0  0  0  0  0  0  0  0  0
 21 20  1  0  0  0
 20 19  1  0  0  0
 19 17  1  0  0  0
 39 38  2  0  0  0
 39 40  1  0  0  0
 38 37  1  0  0  0
 40 35  2  0  0  0
 37 36  2  0  0  0
 35 36  1  0  0  0
 35 32  1  0  0  0
 33 32  1  0  0  0
 32 25  1  0  0  0
 18 17  2  0  0  0
 17 16  2  0  0  0
 17  1  1  0  0  0
  3  2  1  0  0  0
  1  2  2  0  0  0
  1  6  1  0  0  0
  2  4  1  0  0  0
 25 23  1  0  0  0
 25 26  1  0  0  0
 23  6  1  0  0  0
  5  4  1  0  0  0
  6  7  2  0  0  0
  4  9  2  0  0  0
  7  9  1  0  0  0
  7  8  1  0  0  0
  9 10  1  0  0  0
 26 31  2  0  0  0
 26 27  1  0  0  0
 31 30  1  0  0  0
 27 28  2  0  0  0
 11 10  2  0  0  0
 12 10  1  0  0  0
 10 13  2  0  0  0
 30 29  2  0  0  0
 28 29  1  0  0  0
 21 22  1  0  0  0
 12 14  1  0  0  0
 12 15  1  0  0  0
 23 24  1  0  0  0
 33 34  1  0  0  0
M  END
> <minimizedAffinity>
-8.31885

$$$$
4QJ0_WWX_A_303


 40 42  0  0  0  0  0  0  0  0999 V2000
   25.0797    5.2420   13.4002 C   0  0  0  0  0  0  0  0  0  0  0  0
   23.9184    4.5012   13.2206 C   0  0  0  0  0  0  0  0  0  0  0  0
   22.9653    4.4181   14.2074 F   0  0  0  0  0  0  0  0  0  0  0  0
   23.7227    3.8282   12.0034 C   0  0  0  0  0  0  0  0  0  0  0  0
   22.5955    3.1054   11.8465 F   0  0  0  0  0  0  0  0  0  0  0  0
   26.0891    5.2692   12.4096 C   0  0  0  0  0  0  0  0  0  0  0  0
   25.8755    4.5527   11.2226 C   0  0  0  0  0  0  0  0  0  0  0  0
   26.6964    4.4958   10.2033 F   0  0  0  0  0  0  0  0  0  0  0  0
   24.6918    3.8470   11.0407 C   0  0  0  0  0  0  0  0  0  0  0  0
   24.3625    3.0875    9.4674 S   0  0  0  0  0  0  0  0  0  0  0  0
   24.9878    3.9378    8.3645 O   0  0  0  0  0  0  0  0  0  0  0  0
   22.8895    2.6620    8.9448 N   0  0  0  0  0  0  0  0  0  0  0  0
   25.2148    1.8197    9.5858 O   0  0  0  0  0  0  0  0  0  0  0  0
   22.3056    3.4940    8.8593 H   0  0  0  0  0  0  0  0  0  0  0  0
   22.4658    2.0163    9.6111 H   0  0  0  0  0  0  0  0  0  0  0  0
   26.5204    6.7359   15.3119 O   0  0  0  0  0  0  0  0  0  0  0  0
   25.1392    6.1071   14.9862 S   0  0  0  0  0  0  0  0  0  0  0  0
   24.2051    7.3602   14.9535 O   0  0  0  0  0  0  0  0  0  0  0  0
   24.4606    5.1529   16.3660 C   0  0  0  0  0  0  0  0  0  0  0  0
   25.5849    4.3879   17.0739 C   0  0  0  0  0  0  0  0  0  0  0  0
   26.5393    4.1440   16.0619 O   0  0  0  0  0  0  0  0  0  0  0  0
   26.8252    4.9873   15.6772 H   0  0  0  0  0  0  0  0  0  0  0  0
   27.2720    6.0044   12.6429 N   0  0  0  0  0  0  0  0  0  0  0  0
   27.9810    5.6622   13.2342 H   0  0  0  0  0  0  0  0  0  0  0  0
   27.4009    7.3207   11.9556 C   0  0  0  0  0  0  0  0  0  0  0  0
   28.2353    7.0921   10.7110 C   0  0  0  0  0  0  0  0  0  0  0  0
   29.4446    6.3893   10.8472 C   0  0  0  0  0  0  0  0  0  0  0  0
   30.2856    6.2117    9.6917 C   0  0  0  0  0  0  0  0  0  0  0  0
   29.9071    6.7034    8.4260 C   0  0  0  0  0  0  0  0  0  0  0  0
   28.6709    7.3662    8.3213 C   0  0  0  0  0  0  0  0  0  0  0  0
   27.8485    7.5676    9.4501 C   0  0  0  0  0  0  0  0  0  0  0  0
   27.9997    8.4265   12.8670 C   0  0  0  0  0  0  0  0  0  0  0  0
   28.9653    9.0809   12.1436 O   0  0  0  0  0  0  0  0  0  0  0  0
   28.5820    9.4091   11.3152 H   0  0  0  0  0  0  0  0  0  0  0  0
   26.8322    9.2967   13.1602 C   0  0  0  0  0  0  0  0  0  0  0  0
   25.7067    9.2519   12.2949 C   0  0  0  0  0  0  0  0  0  0  0  0
   24.5315    9.9520   12.6075 C   0  0  0  0  0  0  0  0  0  0  0  0
   24.5539   10.6868   13.7783 C   0  0  0  0  0  0  0  0  0  0  0  0
   25.7408   10.7570   14.5991 C   0  0  0  0  0  0  0  0  0  0  0  0
   26.9049   10.0125   14.3468 C   0  0  0  0  0  0  0  0  0  0  0  0
 21 20  1  0  0  0
 20 19  1  0  0  0
 19 17  1  0  0  0
 39 38  2  0  0  0
 39 40  1  0  0  0
 38 37  1  0  0  0
 40 35  2  0  0  0
 37 36  2  0  0  0
 35 36  1  0  0  0
 35 32  1  0  0  0
 33 32  1  0  0  0
 32 25  1  0  0  0
 18 17  2  0  0  0
 17 16  2  0  0  0
 17  1  1  0  0  0
  3  2  1  0  0  0
  1  2  2  0  0  0
  1  6  1  0  0  0
  2  4  1  0  0  0
 25 23  1  0  0  0
 25 26  1  0  0  0
 23  6  1  0  0  0
  5  4  1  0  0  0
  6  7  2  0  0  0
  4  9  2  0  0  0
  7  9  1  0  0  0
  7  8  1  0  0  0
  9 10  1  0  0  0
 26 31  2  0  0  0
 26 27  1  0  0  0
 31 30  1  0  0  0
 27 28  2  0  0  0
 11 10  2  0  0  0
 12 10  1  0  0  0
 10 13  2  0  0  0
 30 29  2  0  0  0
 28 29  1  0  0  0
 21 22  1  0  0  0
 12 14  1  0  0  0
 12 15  1  0  0  0
 23 24  1  0  0  0
 33 34  1  0  0  0
M  END
> <minimizedAffinity>
-8.00000

$$$$
4QJ0_WWX_A_303


 40 42  0  0  0  0  0  0  0  0999 V2000
   25.4865    9.6506   13.9803 C   0  0  0  0  0  0  0  0  0  0  0  0
   24.5984    9.3315   14.9997 C   0  0  0  0  0  0  0  0  0  0  0  0
   23.7886   10.2870   15.5655 F   0  0  0  0  0  0  0  0  0  0  0  0
   24.5330    8.0040   15.4537 C   0  0  0  0  0  0  0  0  0  0  0  0
   23.6734    7.7106   16.4500 F   0  0  0  0  0  0  0  0  0  0  0  0
   26.3665    8.6795   13.4479 C   0  0  0  0  0  0  0  0  0  0  0  0
   26.2996    7.3727   13.9538 C   0  0  0  0  0  0  0  0  0  0  0  0
   27.0246    6.3577   13.5533 F   0  0  0  0  0  0  0  0  0  0  0  0
   25.3794    7.0588   14.9472 C   0  0  0  0  0  0  0  0  0  0  0  0
   25.1886    5.3659   15.4554 S   0  0  0  0  0  0  0  0  0  0  0  0
   24.1537    5.2968   16.5755 O   0  0  0  0  0  0  0  0  0  0  0  0
   26.4104    4.3968   15.8937 N   0  0  0  0  0  0  0  0  0  0  0  0
   24.5291    4.7723   14.2063 O   0  0  0  0  0  0  0  0  0  0  0  0
   26.8633    4.7756   16.7254 H   0  0  0  0  0  0  0  0  0  0  0  0
   27.0882    4.3394   15.1337 H   0  0  0  0  0  0  0  0  0  0  0  0
   26.0899   12.3702   14.4288 O   0  0  0  0  0  0  0  0  0  0  0  0
   25.3896   11.3792   13.4611 S   0  0  0  0  0  0  0  0  0  0  0  0
   26.1903   11.5908   12.1351 O   0  0  0  0  0  0  0  0  0  0  0  0
   23.7233   11.9117   12.9975 C   0  0  0  0  0  0  0  0  0  0  0  0
   23.5009   13.3653   13.4310 C   0  0  0  0  0  0  0  0  0  0  0  0
   23.2046   13.2828   14.8093 O   0  0  0  0  0  0  0  0  0  0  0  0
   23.9373   12.8469   15.2720 H   0  0  0  0  0  0  0  0  0  0  0  0
   27.2806    9.0499   12.4372 N   0  0  0  0  0  0  0  0  0  0  0  0
   27.5611    9.9858   12.3165 H   0  0  0  0  0  0  0  0  0  0  0  0
   27.8024    7.9628   11.5611 C   0  0  0  0  0  0  0  0  0  0  0  0
   29.3154    8.0325   11.6200 C   0  0  0  0  0  0  0  0  0  0  0  0
   29.9064    9.2594   11.9671 C   0  0  0  0  0  0  0  0  0  0  0  0
   31.3423    9.3690   11.9707 C   0  0  0  0  0  0  0  0  0  0  0  0
   32.1633    8.2658   11.6610 C   0  0  0  0  0  0  0  0  0  0  0  0
   31.5358    7.0441   11.3580 C   0  0  0  0  0  0  0  0  0  0  0  0
   30.1297    6.9293   11.3279 C   0  0  0  0  0  0  0  0  0  0  0  0
   27.2687    8.0464   10.1050 C   0  0  0  0  0  0  0  0  0  0  0  0
   28.2764    8.5542    9.3235 O   0  0  0  0  0  0  0  0  0  0  0  0
   29.0721    8.0092    9.4275 H   0  0  0  0  0  0  0  0  0  0  0  0
   26.9595    6.6321    9.7727 C   0  0  0  0  0  0  0  0  0  0  0  0
   25.9432    5.9605   10.5032 C   0  0  0  0  0  0  0  0  0  0  0  0
   25.5246    4.6730   10.1345 C   0  0  0  0  0  0  0  0  0  0  0  0
   26.1702    4.1105    9.0492 C   0  0  0  0  0  0  0  0  0  0  0  0
   27.2431    4.8016    8.3718 C   0  0  0  0  0  0  0  0  0  0  0  0
   27.6342    6.1161    8.6754 C   0  0  0  0  0  0  0  0  0  0  0  0
 21 20  1  0  0  0
 20 19  1  0  0  0
 19 17  1  0  0  0
 39 38  2  0  0  0
 39 40  1  0  0  0
 38 37  1  0  0  0
 40 35  2  0  0  0
 37 36  2  0  0  0
 35 36  1  0  0  0
 35 32  1  0  0  0
 33 32  1  0  0  0
 32 25  1  0  0  0
 18 17  2  0  0  0
 17 16  2  0  0  0
 17  1  1  0  0  0
  3  2  1  0  0  0
  1  2  2  0  0  0
  1  6  1  0  0  0
  2  4  1  0  0  0
 25 23  1  0  0  0
 25 26  1  0  0  0
 23  6  1  0  0  0
  5  4  1  0  0  0
  6  7  2  0  0  0
  4  9  2  0  0  0
  7  9  1  0  0  0
  7  8  1  0  0  0
  9 10  1  0  0  0
 26 31  2  0  0  0
 26 27  1  0  0  0
 31 30  1  0  0  0
 27 28  2  0  0  0
 11 10  2  0  0  0
 12 10  1  0  0  0
 10 13  2  0  0  0
 30 29  2  0  0  0
 28 29  1  0  0  0
 21 22  1  0  0  0
 12 14  1  0  0  0
 12 15  1  0  0  0
 23 24  1  0  0  0
 33 34  1  0  0  0
M  END
> <minimizedAffinity>
-7.89537

$$$$
4QJ0_WWX_A_303


 40 42  0  0  0  0  0  0  0  0999 V2000
   26.3623    8.7639   12.0716 C   0  0  0  0  0  0  0  0  0  0  0  0
   25.5750    9.9081   12.0473 C   0  0  0  0  0  0  0  0  0  0  0  0
   24.5509   10.0888   12.9459 F   0  0  0  0  0  0  0  0  0  0  0  0
   25.8386   10.8944   11.0826 C   0  0  0  0  0  0  0  0  0  0  0  0
   25.0605   11.9952   11.0647 F   0  0  0  0  0  0  0  0  0  0  0  0
   27.3703    8.5504   11.1025 C   0  0  0  0  0  0  0  0  0  0  0  0
   27.5786    9.5400   10.1303 C   0  0  0  0  0  0  0  0  0  0  0  0
   28.4832    9.5058    9.1833 F   0  0  0  0  0  0  0  0  0  0  0  0
   26.8089   10.6975   10.1414 C   0  0  0  0  0  0  0  0  0  0  0  0
   27.1983   12.0143    9.0123 S   0  0  0  0  0  0  0  0  0  0  0  0
   26.5507   11.7188    7.6618 O   0  0  0  0  0  0  0  0  0  0  0  0
   28.6978   12.5420    8.7010 N   0  0  0  0  0  0  0  0  0  0  0  0
   26.4052   13.1646    9.6412 O   0  0  0  0  0  0  0  0  0  0  0  0
   29.2429   11.7890    8.2810 H   0  0  0  0  0  0  0  0  0  0  0  0
   29.1411   12.8386    9.5704 H   0  0  0  0  0  0  0  0  0  0  0  0
   24.7177    6.7287   13.1276 O   0  0  0  0  0  0  0  0  0  0  0  0
   25.9435    7.6349   13.4196 S   0  0  0  0  0  0  0  0  0  0  0  0
   27.0869    6.5884   13.6230 O   0  0  0  0  0  0  0  0  0  0  0  0
   25.8547    8.4329   15.0414 C   0  0  0  0  0  0  0  0  0  0  0  0
   24.4626    8.2252   15.6493 C   0  0  0  0  0  0  0  0  0  0  0  0
   24.4721    6.8897   16.1085 O   0  0  0  0  0  0  0  0  0  0  0  0
   25.1954    6.7715   16.7440 H   0  0  0  0  0  0  0  0  0  0  0  0
   28.1265    7.3582   11.1376 N   0  0  0  0  0  0  0  0  0  0  0  0
   28.4045    6.9514   11.9899 H   0  0  0  0  0  0  0  0  0  0  0  0
   28.4856    6.7423    9.8286 C   0  0  0  0  0  0  0  0  0  0  0  0
   27.4864    5.6319    9.5712 C   0  0  0  0  0  0  0  0  0  0  0  0
   27.3542    5.1550    8.2559 C   0  0  0  0  0  0  0  0  0  0  0  0
   26.3690    4.1435    7.9732 C   0  0  0  0  0  0  0  0  0  0  0  0
   25.5570    3.6050    8.9919 C   0  0  0  0  0  0  0  0  0  0  0  0
   25.7464    4.0786   10.3026 C   0  0  0  0  0  0  0  0  0  0  0  0
   26.6918    5.0862   10.5892 C   0  0  0  0  0  0  0  0  0  0  0  0
   29.9521    6.2338    9.7778 C   0  0  0  0  0  0  0  0  0  0  0  0
   30.3538    6.2598    8.4656 O   0  0  0  0  0  0  0  0  0  0  0  0
   30.2268    7.1517    8.1062 H   0  0  0  0  0  0  0  0  0  0  0  0
   30.6855    7.2228   10.6087 C   0  0  0  0  0  0  0  0  0  0  0  0
   31.2009    6.8153   11.8681 C   0  0  0  0  0  0  0  0  0  0  0  0
   32.0148    7.6733   12.6231 C   0  0  0  0  0  0  0  0  0  0  0  0
   32.2566    8.9201   12.0770 C   0  0  0  0  0  0  0  0  0  0  0  0
   31.6619    9.3192   10.8222 C   0  0  0  0  0  0  0  0  0  0  0  0
   30.9017    8.4578   10.0140 C   0  0  0  0  0  0  0  0  0  0  0  0
 21 20  1  0  0  0
 20 19  1  0  0  0
 19 17  1  0  0  0
 39 38  2  0  0  0
 39 40  1  0  0  0
 38 37  1  0  0  0
 40 35  2  0  0  0
 37 36  2  0  0  0
 35 36  1  0  0  0
 35 32  1  0  0  0
 33 32  1  0  0  0
 32 25  1  0  0  0
 18 17  2  0  0  0
 17 16  2  0  0  0
 17  1  1  0  0  0
  3  2  1  0  0  0
  1  2  2  0  0  0
  1  6  1  0  0  0
  2  4  1  0  0  0
 25 23  1  0  0  0
 25 26  1  0  0  0
 23  6  1  0  0  0
  5  4  1  0  0  0
  6  7  2  0  0  0
  4  9  2  0  0  0
  7  9  1  0  0  0
  7  8  1  0  0  0
  9 10  1  0  0  0
 26 31  2  0  0  0
 26 27  1  0  0  0
 31 30  1  0  0  0
 27 28  2  0  0  0
 11 10  2  0  0  0
 12 10  1  0  0  0
 10 13  2  0  0  0
 30 29  2  0  0  0
 28 29  1  0  0  0
 21 22  1  0  0  0
 12 14  1  0  0  0
 12 15  1  0  0  0
 23 24  1  0  0  0
 33 34  1  0  0  0
M  END
> <minimizedAffinity>
-7.76928

$$$$
