3EBP_CPB_A_940


 31 34  0  0  0  0  0  0  0  0999 V2000
   39.2391   37.4151   30.6886 C   0  0  0  0  0  0  0  0  0  0  0  0
   38.4982   36.2647   30.3694 C   0  0  0  0  0  0  0  0  0  0  0  0
   38.6901   35.6876   29.1366 O   0  0  0  0  0  0  0  0  0  0  0  0
   38.0131   34.5392   28.8152 C   0  0  0  0  0  0  0  0  0  0  0  0
   37.1110   33.9768   29.7166 C   0  0  0  0  0  0  0  0  0  0  0  0
   36.8818   34.5709   30.9540 C   0  0  0  0  0  0  0  0  0  0  0  0
   36.0784   34.0602   31.7372 O   0  0  0  0  0  0  0  0  0  0  0  0
   37.5879   35.7279   31.2912 C   0  0  0  0  0  0  0  0  0  0  0  0
   37.4367   36.3252   32.5479 C   0  0  0  0  0  0  0  0  0  0  0  0
   36.5773   35.8230   33.4795 O   0  0  0  0  0  0  0  0  0  0  0  0
   38.1644   37.4626   32.8643 C   0  0  0  0  0  0  0  0  0  0  0  0
   39.0557   38.0129   31.9449 C   0  0  0  0  0  0  0  0  0  0  0  0
   39.7333   39.1266   32.3280 O   0  0  0  0  0  0  0  0  0  0  0  0
   36.0751   35.0555   33.2881 H   0  0  0  0  0  0  0  0  0  0  0  0
   40.3425   39.5294   31.7411 H   0  0  0  0  0  0  0  0  0  0  0  0
   43.2301   40.1660   27.5316 C   0  0  0  0  0  0  0  0  0  0  0  0
   42.3485   39.6465   28.5907 N   0  0  0  0  0  0  0  0  0  0  0  0
   40.9435   39.9494   28.2303 C   0  0  0  0  0  0  0  0  0  0  0  0
   39.9842   39.4571   29.3293 C   0  0  0  0  0  0  0  0  0  0  0  0
   40.2162   37.9628   29.6036 C   0  0  0  0  0  0  0  0  0  0  0  0
   41.7086   37.6558   29.8786 C   0  0  0  0  0  0  0  0  0  0  0  0
   42.5723   38.1889   28.7308 C   0  0  0  0  0  0  0  0  0  0  0  0
   42.1388   38.2870   31.0829 O   0  0  0  0  0  0  0  0  0  0  0  0
   42.0406   39.2482   30.9970 H   0  0  0  0  0  0  0  0  0  0  0  0
   38.2466   33.9081   27.5843 C   0  0  0  0  0  0  0  0  0  0  0  0
   38.8182   34.5671   26.4805 C   0  0  0  0  0  0  0  0  0  0  0  0
   39.2588   36.2373   26.5387 Cl  0  0  0  0  0  0  0  0  0  0  0  0
   39.0413   33.8836   25.2851 C   0  0  0  0  0  0  0  0  0  0  0  0
   38.7019   32.5358   25.1835 C   0  0  0  0  0  0  0  0  0  0  0  0
   38.1435   31.8721   26.2758 C   0  0  0  0  0  0  0  0  0  0  0  0
   37.9206   32.5487   27.4677 C   0  0  0  0  0  0  0  0  0  0  0  0
 16 17  1  0  0  0
 17 18  1  0  0  0
 17 22  1  0  0  0
 18 19  1  0  0  0
 19 20  1  0  0  0
 20 21  1  0  0  0
 20  1  1  0  0  0
 21 22  1  0  0  0
 21 23  1  0  0  0
  1  2  2  0  0  0
  1 12  1  0  0  0
  2  3  1  0  0  0
  2  8  1  0  0  0
  3  4  1  0  0  0
  4  5  2  0  0  0
  4 25  1  0  0  0
  5  6  1  0  0  0
  6  7  2  0  0  0
  6  8  1  0  0  0
  8  9  2  0  0  0
  9 10  1  0  0  0
  9 11  1  0  0  0
 11 12  2  0  0  0
 12 13  1  0  0  0
 25 26  2  0  0  0
 25 31  1  0  0  0
 26 27  1  0  0  0
 26 28  1  0  0  0
 28 29  2  0  0  0
 29 30  1  0  0  0
 30 31  2  0  0  0
 10 14  1  0  0  0
 13 15  1  0  0  0
 23 24  1  0  0  0
M  END
> <minimizedAffinity>
-10.69399

$$$$
3EBP_CPB_A_940


 31 34  0  0  0  0  0  0  0  0999 V2000
   39.6067   37.2124   27.1102 C   0  0  0  0  0  0  0  0  0  0  0  0
   38.9826   36.2511   27.9231 C   0  0  0  0  0  0  0  0  0  0  0  0
   38.7528   36.5634   29.2419 O   0  0  0  0  0  0  0  0  0  0  0  0
   38.1060   35.6616   30.0472 C   0  0  0  0  0  0  0  0  0  0  0  0
   37.7126   34.4226   29.5442 C   0  0  0  0  0  0  0  0  0  0  0  0
   37.9706   34.0806   28.2202 C   0  0  0  0  0  0  0  0  0  0  0  0
   37.6172   32.9793   27.7939 O   0  0  0  0  0  0  0  0  0  0  0  0
   38.6090   35.0077   27.3932 C   0  0  0  0  0  0  0  0  0  0  0  0
   38.8337   34.7326   26.0394 C   0  0  0  0  0  0  0  0  0  0  0  0
   38.4677   33.5440   25.4809 O   0  0  0  0  0  0  0  0  0  0  0  0
   39.4525   35.6785   25.2357 C   0  0  0  0  0  0  0  0  0  0  0  0
   39.8447   36.9083   25.7611 C   0  0  0  0  0  0  0  0  0  0  0  0
   40.4434   37.7833   24.9113 O   0  0  0  0  0  0  0  0  0  0  0  0
   38.0482   32.8898   26.0044 H   0  0  0  0  0  0  0  0  0  0  0  0
   40.7230   38.6217   25.2225 H   0  0  0  0  0  0  0  0  0  0  0  0
   41.3945   42.5403   28.4812 C   0  0  0  0  0  0  0  0  0  0  0  0
   40.9879   41.2924   27.8131 N   0  0  0  0  0  0  0  0  0  0  0  0
   41.8660   40.1948   28.2818 C   0  0  0  0  0  0  0  0  0  0  0  0
   41.5023   38.8732   27.5805 C   0  0  0  0  0  0  0  0  0  0  0  0
   40.0101   38.5631   27.7774 C   0  0  0  0  0  0  0  0  0  0  0  0
   39.1175   39.7625   27.3749 C   0  0  0  0  0  0  0  0  0  0  0  0
   39.5651   41.0219   28.1241 C   0  0  0  0  0  0  0  0  0  0  0  0
   39.2231   40.0215   25.9765 O   0  0  0  0  0  0  0  0  0  0  0  0
   40.1415   40.2435   25.7571 H   0  0  0  0  0  0  0  0  0  0  0  0
   37.8120   35.9937   31.3781 C   0  0  0  0  0  0  0  0  0  0  0  0
   38.4182   37.0695   32.0521 C   0  0  0  0  0  0  0  0  0  0  0  0
   39.6123   38.0663   31.2985 Cl  0  0  0  0  0  0  0  0  0  0  0  0
   38.0748   37.3625   33.3721 C   0  0  0  0  0  0  0  0  0  0  0  0
   37.1194   36.5884   34.0277 C   0  0  0  0  0  0  0  0  0  0  0  0
   36.5063   35.5257   33.3641 C   0  0  0  0  0  0  0  0  0  0  0  0
   36.8448   35.2315   32.0499 C   0  0  0  0  0  0  0  0  0  0  0  0
 16 17  1  0  0  0
 17 18  1  0  0  0
 17 22  1  0  0  0
 18 19  1  0  0  0
 19 20  1  0  0  0
 20 21  1  0  0  0
 20  1  1  0  0  0
 21 22  1  0  0  0
 21 23  1  0  0  0
  1  2  2  0  0  0
  1 12  1  0  0  0
  2  3  1  0  0  0
  2  8  1  0  0  0
  3  4  1  0  0  0
  4  5  2  0  0  0
  4 25  1  0  0  0
  5  6  1  0  0  0
  6  7  2  0  0  0
  6  8  1  0  0  0
  8  9  2  0  0  0
  9 10  1  0  0  0
  9 11  1  0  0  0
 11 12  2  0  0  0
 12 13  1  0  0  0
 25 26  2  0  0  0
 25 31  1  0  0  0
 26 27  1  0  0  0
 26 28  1  0  0  0
 28 29  2  0  0  0
 29 30  1  0  0  0
 30 31  2  0  0  0
 10 14  1  0  0  0
 13 15  1  0  0  0
 23 24  1  0  0  0
M  END
> <minimizedAffinity>
-10.48881

$$$$
3EBP_CPB_A_940


 31 34  0  0  0  0  0  0  0  0999 V2000
   38.9601   35.7682   28.6535 C   0  0  0  0  0  0  0  0  0  0  0  0
   38.5467   36.0732   29.9613 C   0  0  0  0  0  0  0  0  0  0  0  0
   39.0753   37.1875   30.5684 O   0  0  0  0  0  0  0  0  0  0  0  0
   38.6568   37.5337   31.8274 C   0  0  0  0  0  0  0  0  0  0  0  0
   37.7271   36.7452   32.5032 C   0  0  0  0  0  0  0  0  0  0  0  0
   37.2107   35.5954   31.9133 C   0  0  0  0  0  0  0  0  0  0  0  0
   36.3911   34.9093   32.5273 O   0  0  0  0  0  0  0  0  0  0  0  0
   37.6192   35.2546   30.6218 C   0  0  0  0  0  0  0  0  0  0  0  0
   37.0808   34.1425   29.9644 C   0  0  0  0  0  0  0  0  0  0  0  0
   36.1621   33.3331   30.5639 O   0  0  0  0  0  0  0  0  0  0  0  0
   37.4896   33.8375   28.6747 C   0  0  0  0  0  0  0  0  0  0  0  0
   38.4263   34.6354   28.0202 C   0  0  0  0  0  0  0  0  0  0  0  0
   38.7758   34.2733   26.7581 O   0  0  0  0  0  0  0  0  0  0  0  0
   35.8710   33.5194   31.4348 H   0  0  0  0  0  0  0  0  0  0  0  0
   39.4022   34.7815   26.2814 H   0  0  0  0  0  0  0  0  0  0  0  0
   42.7006   38.5861   25.2577 C   0  0  0  0  0  0  0  0  0  0  0  0
   41.6798   37.6963   25.8367 N   0  0  0  0  0  0  0  0  0  0  0  0
   42.2931   36.9280   26.9454 C   0  0  0  0  0  0  0  0  0  0  0  0
   41.2712   35.9535   27.5592 C   0  0  0  0  0  0  0  0  0  0  0  0
   40.0091   36.7151   27.9937 C   0  0  0  0  0  0  0  0  0  0  0  0
   39.4442   37.5892   26.8473 C   0  0  0  0  0  0  0  0  0  0  0  0
   40.5391   38.5154   26.3079 C   0  0  0  0  0  0  0  0  0  0  0  0
   38.9878   36.7734   25.7703 O   0  0  0  0  0  0  0  0  0  0  0  0
   39.7303   36.2584   25.4176 H   0  0  0  0  0  0  0  0  0  0  0  0
   39.1438   38.7020   32.4323 C   0  0  0  0  0  0  0  0  0  0  0  0
   39.0840   39.9662   31.8180 C   0  0  0  0  0  0  0  0  0  0  0  0
   38.4249   40.1849   30.2353 Cl  0  0  0  0  0  0  0  0  0  0  0  0
   39.5706   41.0967   32.4746 C   0  0  0  0  0  0  0  0  0  0  0  0
   40.1150   40.9758   33.7518 C   0  0  0  0  0  0  0  0  0  0  0  0
   40.1697   39.7278   34.3723 C   0  0  0  0  0  0  0  0  0  0  0  0
   39.6855   38.6003   33.7223 C   0  0  0  0  0  0  0  0  0  0  0  0
 16 17  1  0  0  0
 17 18  1  0  0  0
 17 22  1  0  0  0
 18 19  1  0  0  0
 19 20  1  0  0  0
 20 21  1  0  0  0
 20  1  1  0  0  0
 21 22  1  0  0  0
 21 23  1  0  0  0
  1  2  2  0  0  0
  1 12  1  0  0  0
  2  3  1  0  0  0
  2  8  1  0  0  0
  3  4  1  0  0  0
  4  5  2  0  0  0
  4 25  1  0  0  0
  5  6  1  0  0  0
  6  7  2  0  0  0
  6  8  1  0  0  0
  8  9  2  0  0  0
  9 10  1  0  0  0
  9 11  1  0  0  0
 11 12  2  0  0  0
 12 13  1  0  0  0
 25 26  2  0  0  0
 25 31  1  0  0  0
 26 27  1  0  0  0
 26 28  1  0  0  0
 28 29  2  0  0  0
 29 30  1  0  0  0
 30 31  2  0  0  0
 10 14  1  0  0  0
 13 15  1  0  0  0
 23 24  1  0  0  0
M  END
> <minimizedAffinity>
-10.01230

$$$$
3EBP_CPB_A_940


 31 34  0  0  0  0  0  0  0  0999 V2000
   39.7293   38.6602   28.9565 C   0  0  0  0  0  0  0  0  0  0  0  0
   39.1045   37.4443   29.2814 C   0  0  0  0  0  0  0  0  0  0  0  0
   39.0275   36.4723   28.3125 O   0  0  0  0  0  0  0  0  0  0  0  0
   38.4626   35.2600   28.6149 C   0  0  0  0  0  0  0  0  0  0  0  0
   37.9390   35.0232   29.8847 C   0  0  0  0  0  0  0  0  0  0  0  0
   37.9793   36.0113   30.8637 C   0  0  0  0  0  0  0  0  0  0  0  0
   37.5090   35.7843   31.9804 O   0  0  0  0  0  0  0  0  0  0  0  0
   38.5751   37.2384   30.5636 C   0  0  0  0  0  0  0  0  0  0  0  0
   38.6944   38.2394   31.5344 C   0  0  0  0  0  0  0  0  0  0  0  0
   38.2110   38.0713   32.7980 O   0  0  0  0  0  0  0  0  0  0  0  0
   39.3078   39.4417   31.2153 C   0  0  0  0  0  0  0  0  0  0  0  0
   39.8178   39.6604   29.9369 C   0  0  0  0  0  0  0  0  0  0  0  0
   40.4056   40.8625   29.7008 O   0  0  0  0  0  0  0  0  0  0  0  0
   37.7927   37.2675   33.0365 H   0  0  0  0  0  0  0  0  0  0  0  0
   40.7620   41.0517   28.8551 H   0  0  0  0  0  0  0  0  0  0  0  0
   42.2057   40.2701   23.9828 C   0  0  0  0  0  0  0  0  0  0  0  0
   41.7387   40.1322   25.3726 N   0  0  0  0  0  0  0  0  0  0  0  0
   40.2579   40.1857   25.3837 C   0  0  0  0  0  0  0  0  0  0  0  0
   39.7230   40.0830   26.8238 C   0  0  0  0  0  0  0  0  0  0  0  0
   40.2751   38.8206   27.5045 C   0  0  0  0  0  0  0  0  0  0  0  0
   41.8171   38.7367   27.3919 C   0  0  0  0  0  0  0  0  0  0  0  0
   42.2413   38.8525   25.9241 C   0  0  0  0  0  0  0  0  0  0  0  0
   42.4331   39.8016   28.1133 O   0  0  0  0  0  0  0  0  0  0  0  0
   42.1503   40.6511   27.7401 H   0  0  0  0  0  0  0  0  0  0  0  0
   38.4335   34.2397   27.6524 C   0  0  0  0  0  0  0  0  0  0  0  0
   38.7495   34.4533   26.2983 C   0  0  0  0  0  0  0  0  0  0  0  0
   39.1762   36.0149   25.6927 Cl  0  0  0  0  0  0  0  0  0  0  0  0
   38.7184   33.3964   25.3883 C   0  0  0  0  0  0  0  0  0  0  0  0
   38.3780   32.1170   25.8235 C   0  0  0  0  0  0  0  0  0  0  0  0
   38.0725   31.8942   27.1661 C   0  0  0  0  0  0  0  0  0  0  0  0
   38.1032   32.9435   28.0750 C   0  0  0  0  0  0  0  0  0  0  0  0
 16 17  1  0  0  0
 17 18  1  0  0  0
 17 22  1  0  0  0
 18 19  1  0  0  0
 19 20  1  0  0  0
 20 21  1  0  0  0
 20  1  1  0  0  0
 21 22  1  0  0  0
 21 23  1  0  0  0
  1  2  2  0  0  0
  1 12  1  0  0  0
  2  3  1  0  0  0
  2  8  1  0  0  0
  3  4  1  0  0  0
  4  5  2  0  0  0
  4 25  1  0  0  0
  5  6  1  0  0  0
  6  7  2  0  0  0
  6  8  1  0  0  0
  8  9  2  0  0  0
  9 10  1  0  0  0
  9 11  1  0  0  0
 11 12  2  0  0  0
 12 13  1  0  0  0
 25 26  2  0  0  0
 25 31  1  0  0  0
 26 27  1  0  0  0
 26 28  1  0  0  0
 28 29  2  0  0  0
 29 30  1  0  0  0
 30 31  2  0  0  0
 10 14  1  0  0  0
 13 15  1  0  0  0
 23 24  1  0  0  0
M  END
> <minimizedAffinity>
-9.72439

$$$$
3EBP_CPB_A_940


 31 34  0  0  0  0  0  0  0  0999 V2000
   40.0535   38.1991   29.9349 C   0  0  0  0  0  0  0  0  0  0  0  0
   39.2308   37.0617   29.8725 C   0  0  0  0  0  0  0  0  0  0  0  0
   39.2441   36.3107   28.7212 O   0  0  0  0  0  0  0  0  0  0  0  0
   38.4847   35.1712   28.6489 C   0  0  0  0  0  0  0  0  0  0  0  0
   37.6782   34.7922   29.7207 C   0  0  0  0  0  0  0  0  0  0  0  0
   37.6293   35.5628   30.8783 C   0  0  0  0  0  0  0  0  0  0  0  0
   36.9083   35.2129   31.8150 O   0  0  0  0  0  0  0  0  0  0  0  0
   38.4199   36.7113   30.9616 C   0  0  0  0  0  0  0  0  0  0  0  0
   38.4508   37.4832   32.1286 C   0  0  0  0  0  0  0  0  0  0  0  0
   37.6931   37.1653   33.2164 O   0  0  0  0  0  0  0  0  0  0  0  0
   39.2595   38.6082   32.1916 C   0  0  0  0  0  0  0  0  0  0  0  0
   40.0524   38.9734   31.1052 C   0  0  0  0  0  0  0  0  0  0  0  0
   40.8186   40.0871   31.2431 O   0  0  0  0  0  0  0  0  0  0  0  0
   37.1391   36.4099   33.1969 H   0  0  0  0  0  0  0  0  0  0  0  0
   41.3669   40.3688   30.5374 H   0  0  0  0  0  0  0  0  0  0  0  0
   42.5176   38.6689   24.7224 C   0  0  0  0  0  0  0  0  0  0  0  0
   41.6638   38.3584   25.8815 N   0  0  0  0  0  0  0  0  0  0  0  0
   42.4842   37.6690   26.9047 C   0  0  0  0  0  0  0  0  0  0  0  0
   41.6234   37.2895   28.1236 C   0  0  0  0  0  0  0  0  0  0  0  0
   40.9109   38.5341   28.6760 C   0  0  0  0  0  0  0  0  0  0  0  0
   40.1424   39.2938   27.5671 C   0  0  0  0  0  0  0  0  0  0  0  0
   41.0866   39.6183   26.4049 C   0  0  0  0  0  0  0  0  0  0  0  0
   39.0752   38.4966   27.0577 O   0  0  0  0  0  0  0  0  0  0  0  0
   39.4355   37.6834   26.6705 H   0  0  0  0  0  0  0  0  0  0  0  0
   38.5371   34.3645   27.5024 C   0  0  0  0  0  0  0  0  0  0  0  0
   38.1389   33.0152   27.4949 C   0  0  0  0  0  0  0  0  0  0  0  0
   37.5732   32.2195   28.9211 Cl  0  0  0  0  0  0  0  0  0  0  0  0
   38.1985   32.2655   26.3200 C   0  0  0  0  0  0  0  0  0  0  0  0
   38.6498   32.8578   25.1421 C   0  0  0  0  0  0  0  0  0  0  0  0
   39.0376   34.1976   25.1381 C   0  0  0  0  0  0  0  0  0  0  0  0
   38.9788   34.9474   26.3054 C   0  0  0  0  0  0  0  0  0  0  0  0
 16 17  1  0  0  0
 17 18  1  0  0  0
 17 22  1  0  0  0
 18 19  1  0  0  0
 19 20  1  0  0  0
 20 21  1  0  0  0
 20  1  1  0  0  0
 21 22  1  0  0  0
 21 23  1  0  0  0
  1  2  2  0  0  0
  1 12  1  0  0  0
  2  3  1  0  0  0
  2  8  1  0  0  0
  3  4  1  0  0  0
  4  5  2  0  0  0
  4 25  1  0  0  0
  5  6  1  0  0  0
  6  7  2  0  0  0
  6  8  1  0  0  0
  8  9  2  0  0  0
  9 10  1  0  0  0
  9 11  1  0  0  0
 11 12  2  0  0  0
 12 13  1  0  0  0
 25 26  2  0  0  0
 25 31  1  0  0  0
 26 27  1  0  0  0
 26 28  1  0  0  0
 28 29  2  0  0  0
 29 30  1  0  0  0
 30 31  2  0  0  0
 10 14  1  0  0  0
 13 15  1  0  0  0
 23 24  1  0  0  0
M  END
> <minimizedAffinity>
-9.31294

$$$$
3EBP_CPB_A_940


 31 34  0  0  0  0  0  0  0  0999 V2000
   43.1992   36.6593   28.5897 C   0  0  0  0  0  0  0  0  0  0  0  0
   41.8299   36.6918   28.2759 C   0  0  0  0  0  0  0  0  0  0  0  0
   40.9313   36.3014   29.2401 O   0  0  0  0  0  0  0  0  0  0  0  0
   39.5871   36.3649   28.9765 C   0  0  0  0  0  0  0  0  0  0  0  0
   39.1325   36.7898   27.7293 C   0  0  0  0  0  0  0  0  0  0  0  0
   40.0330   37.1543   26.7330 C   0  0  0  0  0  0  0  0  0  0  0  0
   39.6122   37.5254   25.6353 O   0  0  0  0  0  0  0  0  0  0  0  0
   41.4017   37.1118   27.0083 C   0  0  0  0  0  0  0  0  0  0  0  0
   42.3422   37.5280   26.0590 C   0  0  0  0  0  0  0  0  0  0  0  0
   41.9661   37.9621   24.8226 O   0  0  0  0  0  0  0  0  0  0  0  0
   43.6945   37.4938   26.3651 C   0  0  0  0  0  0  0  0  0  0  0  0
   44.1277   37.0581   27.6161 C   0  0  0  0  0  0  0  0  0  0  0  0
   45.4676   37.0543   27.8418 O   0  0  0  0  0  0  0  0  0  0  0  0
   41.0582   37.9938   24.5933 H   0  0  0  0  0  0  0  0  0  0  0  0
   45.8025   36.7690   28.6690 H   0  0  0  0  0  0  0  0  0  0  0  0
   45.7498   35.2193   33.5780 C   0  0  0  0  0  0  0  0  0  0  0  0
   45.3995   35.7355   32.2440 N   0  0  0  0  0  0  0  0  0  0  0  0
   45.0283   34.5939   31.3754 C   0  0  0  0  0  0  0  0  0  0  0  0
   44.6893   35.0818   29.9549 C   0  0  0  0  0  0  0  0  0  0  0  0
   43.5971   36.1614   30.0131 C   0  0  0  0  0  0  0  0  0  0  0  0
   43.9630   37.2939   31.0035 C   0  0  0  0  0  0  0  0  0  0  0  0
   44.2847   36.7015   32.3795 C   0  0  0  0  0  0  0  0  0  0  0  0
   45.1128   38.0061   30.5513 O   0  0  0  0  0  0  0  0  0  0  0  0
   45.8678   37.3996   30.4961 H   0  0  0  0  0  0  0  0  0  0  0  0
   38.6597   36.0271   29.9734 C   0  0  0  0  0  0  0  0  0  0  0  0
   37.7899   34.9261   29.8707 C   0  0  0  0  0  0  0  0  0  0  0  0
   37.7692   33.9022   28.4783 Cl  0  0  0  0  0  0  0  0  0  0  0  0
   36.8983   34.6291   30.9016 C   0  0  0  0  0  0  0  0  0  0  0  0
   36.8719   35.4243   32.0457 C   0  0  0  0  0  0  0  0  0  0  0  0
   37.7373   36.5121   32.1601 C   0  0  0  0  0  0  0  0  0  0  0  0
   38.6269   36.8105   31.1365 C   0  0  0  0  0  0  0  0  0  0  0  0
 16 17  1  0  0  0
 17 18  1  0  0  0
 17 22  1  0  0  0
 18 19  1  0  0  0
 19 20  1  0  0  0
 20 21  1  0  0  0
 20  1  1  0  0  0
 21 22  1  0  0  0
 21 23  1  0  0  0
  1  2  2  0  0  0
  1 12  1  0  0  0
  2  3  1  0  0  0
  2  8  1  0  0  0
  3  4  1  0  0  0
  4  5  2  0  0  0
  4 25  1  0  0  0
  5  6  1  0  0  0
  6  7  2  0  0  0
  6  8  1  0  0  0
  8  9  2  0  0  0
  9 10  1  0  0  0
  9 11  1  0  0  0
 11 12  2  0  0  0
 12 13  1  0  0  0
 25 26  2  0  0  0
 25 31  1  0  0  0
 26 27  1  0  0  0
 26 28  1  0  0  0
 28 29  2  0  0  0
 29 30  1  0  0  0
 30 31  2  0  0  0
 10 14  1  0  0  0
 13 15  1  0  0  0
 23 24  1  0  0  0
M  END
> <minimizedAffinity>
-9.03587

$$$$
3EBP_CPB_A_940


 31 34  0  0  0  0  0  0  0  0999 V2000
   38.4208   37.0114   31.5965 C   0  0  0  0  0  0  0  0  0  0  0  0
   38.6196   36.4428   30.3270 C   0  0  0  0  0  0  0  0  0  0  0  0
   39.5306   37.0337   29.4840 O   0  0  0  0  0  0  0  0  0  0  0  0
   39.7769   36.4747   28.2564 C   0  0  0  0  0  0  0  0  0  0  0  0
   39.0860   35.3347   27.8493 C   0  0  0  0  0  0  0  0  0  0  0  0
   38.1359   34.7474   28.6793 C   0  0  0  0  0  0  0  0  0  0  0  0
   37.5332   33.7408   28.3011 O   0  0  0  0  0  0  0  0  0  0  0  0
   37.9009   35.3028   29.9392 C   0  0  0  0  0  0  0  0  0  0  0  0
   37.0005   34.7109   30.8323 C   0  0  0  0  0  0  0  0  0  0  0  0
   36.2973   33.5908   30.5015 O   0  0  0  0  0  0  0  0  0  0  0  0
   36.8002   35.2720   32.0847 C   0  0  0  0  0  0  0  0  0  0  0  0
   37.4962   36.4168   32.4686 C   0  0  0  0  0  0  0  0  0  0  0  0
   37.2471   36.9067   33.7113 O   0  0  0  0  0  0  0  0  0  0  0  0
   36.4161   33.1942   29.6610 H   0  0  0  0  0  0  0  0  0  0  0  0
   37.6931   37.6746   34.0102 H   0  0  0  0  0  0  0  0  0  0  0  0
   41.6918   41.7806   31.7305 C   0  0  0  0  0  0  0  0  0  0  0  0
   40.8935   40.6000   31.3593 N   0  0  0  0  0  0  0  0  0  0  0  0
   41.5075   39.3993   31.9732 C   0  0  0  0  0  0  0  0  0  0  0  0
   40.7270   38.1313   31.5812 C   0  0  0  0  0  0  0  0  0  0  0  0
   39.2426   38.2898   31.9464 C   0  0  0  0  0  0  0  0  0  0  0  0
   38.6496   39.6022   31.3778 C   0  0  0  0  0  0  0  0  0  0  0  0
   39.5004   40.7963   31.8228 C   0  0  0  0  0  0  0  0  0  0  0  0
   38.6417   39.5747   29.9519 O   0  0  0  0  0  0  0  0  0  0  0  0
   39.5509   39.4894   29.6251 H   0  0  0  0  0  0  0  0  0  0  0  0
   40.7483   37.0339   27.4128 C   0  0  0  0  0  0  0  0  0  0  0  0
   42.1303   36.8836   27.6289 C   0  0  0  0  0  0  0  0  0  0  0  0
   42.7559   36.0125   28.9843 Cl  0  0  0  0  0  0  0  0  0  0  0  0
   43.0510   37.4498   26.7469 C   0  0  0  0  0  0  0  0  0  0  0  0
   42.6000   38.1648   25.6390 C   0  0  0  0  0  0  0  0  0  0  0  0
   41.2317   38.3108   25.4117 C   0  0  0  0  0  0  0  0  0  0  0  0
   40.3121   37.7479   26.2869 C   0  0  0  0  0  0  0  0  0  0  0  0
 16 17  1  0  0  0
 17 18  1  0  0  0
 17 22  1  0  0  0
 18 19  1  0  0  0
 19 20  1  0  0  0
 20 21  1  0  0  0
 20  1  1  0  0  0
 21 22  1  0  0  0
 21 23  1  0  0  0
  1  2  2  0  0  0
  1 12  1  0  0  0
  2  3  1  0  0  0
  2  8  1  0  0  0
  3  4  1  0  0  0
  4  5  2  0  0  0
  4 25  1  0  0  0
  5  6  1  0  0  0
  6  7  2  0  0  0
  6  8  1  0  0  0
  8  9  2  0  0  0
  9 10  1  0  0  0
  9 11  1  0  0  0
 11 12  2  0  0  0
 12 13  1  0  0  0
 25 26  2  0  0  0
 25 31  1  0  0  0
 26 27  1  0  0  0
 26 28  1  0  0  0
 28 29  2  0  0  0
 29 30  1  0  0  0
 30 31  2  0  0  0
 10 14  1  0  0  0
 13 15  1  0  0  0
 23 24  1  0  0  0
M  END
> <minimizedAffinity>
-9.03512

$$$$
3EBP_CPB_A_940


 31 34  0  0  0  0  0  0  0  0999 V2000
   39.7215   40.3655   29.7312 C   0  0  0  0  0  0  0  0  0  0  0  0
   39.3315   39.2478   30.4882 C   0  0  0  0  0  0  0  0  0  0  0  0
   38.9698   38.1024   29.8197 O   0  0  0  0  0  0  0  0  0  0  0  0
   38.6273   36.9829   30.5336 C   0  0  0  0  0  0  0  0  0  0  0  0
   38.6125   37.0123   31.9271 C   0  0  0  0  0  0  0  0  0  0  0  0
   38.9428   38.1760   32.6151 C   0  0  0  0  0  0  0  0  0  0  0  0
   38.9219   38.1836   33.8476 O   0  0  0  0  0  0  0  0  0  0  0  0
   39.3140   39.3101   31.8891 C   0  0  0  0  0  0  0  0  0  0  0  0
   39.7140   40.4836   32.5382 C   0  0  0  0  0  0  0  0  0  0  0  0
   39.7302   40.5786   33.8981 O   0  0  0  0  0  0  0  0  0  0  0  0
   40.0962   41.5893   31.7933 C   0  0  0  0  0  0  0  0  0  0  0  0
   40.0963   41.5405   30.4005 C   0  0  0  0  0  0  0  0  0  0  0  0
   40.4846   42.6630   29.7406 O   0  0  0  0  0  0  0  0  0  0  0  0
   39.4761   39.8445   34.4221 H   0  0  0  0  0  0  0  0  0  0  0  0
   40.4996   42.6742   28.8037 H   0  0  0  0  0  0  0  0  0  0  0  0
   40.1604   40.8996   23.9880 C   0  0  0  0  0  0  0  0  0  0  0  0
   40.2361   41.0479   25.4513 N   0  0  0  0  0  0  0  0  0  0  0  0
   38.8598   41.1577   25.9894 C   0  0  0  0  0  0  0  0  0  0  0  0
   38.8893   41.3527   27.5163 C   0  0  0  0  0  0  0  0  0  0  0  0
   39.6957   40.2243   28.1783 C   0  0  0  0  0  0  0  0  0  0  0  0
   41.0931   40.0631   27.5313 C   0  0  0  0  0  0  0  0  0  0  0  0
   40.9501   39.8798   26.0168 C   0  0  0  0  0  0  0  0  0  0  0  0
   41.8909   41.2228   27.7608 O   0  0  0  0  0  0  0  0  0  0  0  0
   41.4616   41.9949   27.3604 H   0  0  0  0  0  0  0  0  0  0  0  0
   38.3154   35.7909   29.8628 C   0  0  0  0  0  0  0  0  0  0  0  0
   37.4207   34.8338   30.3752 C   0  0  0  0  0  0  0  0  0  0  0  0
   36.6439   35.0336   31.9062 Cl  0  0  0  0  0  0  0  0  0  0  0  0
   37.1366   33.6729   29.6557 C   0  0  0  0  0  0  0  0  0  0  0  0
   37.7380   33.4609   28.4166 C   0  0  0  0  0  0  0  0  0  0  0  0
   38.6190   34.4089   27.8966 C   0  0  0  0  0  0  0  0  0  0  0  0
   38.9036   35.5662   28.6093 C   0  0  0  0  0  0  0  0  0  0  0  0
 16 17  1  0  0  0
 17 18  1  0  0  0
 17 22  1  0  0  0
 18 19  1  0  0  0
 19 20  1  0  0  0
 20 21  1  0  0  0
 20  1  1  0  0  0
 21 22  1  0  0  0
 21 23  1  0  0  0
  1  2  2  0  0  0
  1 12  1  0  0  0
  2  3  1  0  0  0
  2  8  1  0  0  0
  3  4  1  0  0  0
  4  5  2  0  0  0
  4 25  1  0  0  0
  5  6  1  0  0  0
  6  7  2  0  0  0
  6  8  1  0  0  0
  8  9  2  0  0  0
  9 10  1  0  0  0
  9 11  1  0  0  0
 11 12  2  0  0  0
 12 13  1  0  0  0
 25 26  2  0  0  0
 25 31  1  0  0  0
 26 27  1  0  0  0
 26 28  1  0  0  0
 28 29  2  0  0  0
 29 30  1  0  0  0
 30 31  2  0  0  0
 10 14  1  0  0  0
 13 15  1  0  0  0
 23 24  1  0  0  0
M  END
> <minimizedAffinity>
-8.86041

$$$$
3EBP_CPB_A_940


 31 34  0  0  0  0  0  0  0  0999 V2000
   38.7658   37.2587   30.8522 C   0  0  0  0  0  0  0  0  0  0  0  0
   38.9870   36.6678   29.5968 C   0  0  0  0  0  0  0  0  0  0  0  0
   39.8314   37.3030   28.7175 O   0  0  0  0  0  0  0  0  0  0  0  0
   40.1000   36.7268   27.5026 C   0  0  0  0  0  0  0  0  0  0  0  0
   39.4968   35.5223   27.1447 C   0  0  0  0  0  0  0  0  0  0  0  0
   38.6129   34.8870   28.0117 C   0  0  0  0  0  0  0  0  0  0  0  0
   38.0873   33.8235   27.6768 O   0  0  0  0  0  0  0  0  0  0  0  0
   38.3565   35.4616   29.2587 C   0  0  0  0  0  0  0  0  0  0  0  0
   37.5237   34.8278   30.1879 C   0  0  0  0  0  0  0  0  0  0  0  0
   36.9079   33.6446   29.9059 O   0  0  0  0  0  0  0  0  0  0  0  0
   37.3012   35.4106   31.4266 C   0  0  0  0  0  0  0  0  0  0  0  0
   37.9086   36.6196   31.7610 C   0  0  0  0  0  0  0  0  0  0  0  0
   37.6432   37.1271   32.9932 O   0  0  0  0  0  0  0  0  0  0  0  0
   37.0433   33.2322   29.0755 H   0  0  0  0  0  0  0  0  0  0  0  0
   38.0306   37.9377   33.2593 H   0  0  0  0  0  0  0  0  0  0  0  0
   40.9463   42.1615   33.0133 C   0  0  0  0  0  0  0  0  0  0  0  0
   40.2832   40.8669   32.7828 N   0  0  0  0  0  0  0  0  0  0  0  0
   39.2377   41.0463   31.7482 C   0  0  0  0  0  0  0  0  0  0  0  0
   38.4893   39.7240   31.4994 C   0  0  0  0  0  0  0  0  0  0  0  0
   39.4872   38.6098   31.1460 C   0  0  0  0  0  0  0  0  0  0  0  0
   40.6263   38.5086   32.1898 C   0  0  0  0  0  0  0  0  0  0  0  0
   41.2994   39.8740   32.3633 C   0  0  0  0  0  0  0  0  0  0  0  0
   40.1125   38.1069   33.4582 O   0  0  0  0  0  0  0  0  0  0  0  0
   39.4748   38.7668   33.7724 H   0  0  0  0  0  0  0  0  0  0  0  0
   41.0072   37.3354   26.6224 C   0  0  0  0  0  0  0  0  0  0  0  0
   42.4020   37.2765   26.7966 C   0  0  0  0  0  0  0  0  0  0  0  0
   43.1234   36.4656   28.1417 Cl  0  0  0  0  0  0  0  0  0  0  0  0
   43.2569   37.8883   25.8796 C   0  0  0  0  0  0  0  0  0  0  0  0
   42.7272   38.5580   24.7783 C   0  0  0  0  0  0  0  0  0  0  0  0
   41.3460   38.6132   24.5925 C   0  0  0  0  0  0  0  0  0  0  0  0
   40.4917   38.0048   25.5026 C   0  0  0  0  0  0  0  0  0  0  0  0
 16 17  1  0  0  0
 17 18  1  0  0  0
 17 22  1  0  0  0
 18 19  1  0  0  0
 19 20  1  0  0  0
 20 21  1  0  0  0
 20  1  1  0  0  0
 21 22  1  0  0  0
 21 23  1  0  0  0
  1  2  2  0  0  0
  1 12  1  0  0  0
  2  3  1  0  0  0
  2  8  1  0  0  0
  3  4  1  0  0  0
  4  5  2  0  0  0
  4 25  1  0  0  0
  5  6  1  0  0  0
  6  7  2  0  0  0
  6  8  1  0  0  0
  8  9  2  0  0  0
  9 10  1  0  0  0
  9 11  1  0  0  0
 11 12  2  0  0  0
 12 13  1  0  0  0
 25 26  2  0  0  0
 25 31  1  0  0  0
 26 27  1  0  0  0
 26 28  1  0  0  0
 28 29  2  0  0  0
 29 30  1  0  0  0
 30 31  2  0  0  0
 10 14  1  0  0  0
 13 15  1  0  0  0
 23 24  1  0  0  0
M  END
> <minimizedAffinity>
-8.81390

$$$$
3EBP_CPB_A_940


 31 34  0  0  0  0  0  0  0  0999 V2000
   38.7334   35.7955   29.1375 C   0  0  0  0  0  0  0  0  0  0  0  0
   38.5728   36.4527   30.3690 C   0  0  0  0  0  0  0  0  0  0  0  0
   39.2646   37.6220   30.5783 O   0  0  0  0  0  0  0  0  0  0  0  0
   39.0930   38.3076   31.7534 C   0  0  0  0  0  0  0  0  0  0  0  0
   38.2498   37.8081   32.7445 C   0  0  0  0  0  0  0  0  0  0  0  0
   37.5710   36.6076   32.5589 C   0  0  0  0  0  0  0  0  0  0  0  0
   36.8313   36.1805   33.4477 O   0  0  0  0  0  0  0  0  0  0  0  0
   37.7274   35.9203   31.3530 C   0  0  0  0  0  0  0  0  0  0  0  0
   37.0173   34.7418   31.0966 C   0  0  0  0  0  0  0  0  0  0  0  0
   36.1704   34.2023   32.0187 O   0  0  0  0  0  0  0  0  0  0  0  0
   37.1765   34.0894   29.8831 C   0  0  0  0  0  0  0  0  0  0  0  0
   38.0309   34.6024   28.9088 C   0  0  0  0  0  0  0  0  0  0  0  0
   38.1332   33.9078   27.7455 O   0  0  0  0  0  0  0  0  0  0  0  0
   36.0469   34.6254   32.8456 H   0  0  0  0  0  0  0  0  0  0  0  0
   38.6962   34.2169   27.0633 H   0  0  0  0  0  0  0  0  0  0  0  0
   42.7008   38.8327   26.2224 C   0  0  0  0  0  0  0  0  0  0  0  0
   41.8233   38.2199   27.2341 N   0  0  0  0  0  0  0  0  0  0  0  0
   40.4159   38.5385   26.8977 C   0  0  0  0  0  0  0  0  0  0  0  0
   39.4604   37.9489   27.9513 C   0  0  0  0  0  0  0  0  0  0  0  0
   39.7061   36.4394   28.1024 C   0  0  0  0  0  0  0  0  0  0  0  0
   41.2011   36.1245   28.3535 C   0  0  0  0  0  0  0  0  0  0  0  0
   42.0606   36.7579   27.2544 C   0  0  0  0  0  0  0  0  0  0  0  0
   41.6246   36.6588   29.6061 O   0  0  0  0  0  0  0  0  0  0  0  0
   41.5176   37.6229   29.5991 H   0  0  0  0  0  0  0  0  0  0  0  0
   39.7467   39.5327   31.9530 C   0  0  0  0  0  0  0  0  0  0  0  0
   40.9710   39.6465   32.6367 C   0  0  0  0  0  0  0  0  0  0  0  0
   41.7678   38.2746   33.3226 Cl  0  0  0  0  0  0  0  0  0  0  0  0
   41.5830   40.8905   32.7916 C   0  0  0  0  0  0  0  0  0  0  0  0
   40.9815   42.0297   32.2600 C   0  0  0  0  0  0  0  0  0  0  0  0
   39.7726   41.9249   31.5725 C   0  0  0  0  0  0  0  0  0  0  0  0
   39.1607   40.6883   31.4155 C   0  0  0  0  0  0  0  0  0  0  0  0
 16 17  1  0  0  0
 17 18  1  0  0  0
 17 22  1  0  0  0
 18 19  1  0  0  0
 19 20  1  0  0  0
 20 21  1  0  0  0
 20  1  1  0  0  0
 21 22  1  0  0  0
 21 23  1  0  0  0
  1  2  2  0  0  0
  1 12  1  0  0  0
  2  3  1  0  0  0
  2  8  1  0  0  0
  3  4  1  0  0  0
  4  5  2  0  0  0
  4 25  1  0  0  0
  5  6  1  0  0  0
  6  7  2  0  0  0
  6  8  1  0  0  0
  8  9  2  0  0  0
  9 10  1  0  0  0
  9 11  1  0  0  0
 11 12  2  0  0  0
 12 13  1  0  0  0
 25 26  2  0  0  0
 25 31  1  0  0  0
 26 27  1  0  0  0
 26 28  1  0  0  0
 28 29  2  0  0  0
 29 30  1  0  0  0
 30 31  2  0  0  0
 10 14  1  0  0  0
 13 15  1  0  0  0
 23 24  1  0  0  0
M  END
> <minimizedAffinity>
-8.47460

$$$$
