1HMS_OLA_A_133


 21 20  0  0  0  0  0  0  0  0999 V2000
   18.2524   33.9774   54.6942 C   0  0  0  0  0  0  0  0  0  0  0  0
   18.4190   35.3513   55.2379 C   0  0  0  0  0  0  0  0  0  0  0  0
   19.1750   35.6368   56.3858 C   0  0  0  0  0  0  0  0  0  0  0  0
   19.7996   34.6343   57.2457 C   0  0  0  0  0  0  0  0  0  0  0  0
   19.9782   34.9150   58.6782 C   0  0  0  0  0  0  0  0  0  0  0  0
   19.0192   34.1629   59.5791 C   0  0  0  0  0  0  0  0  0  0  0  0
   18.0533   35.1188   60.2409 C   0  0  0  0  0  0  0  0  0  0  0  0
   16.9646   35.5820   59.3272 C   0  0  0  0  0  0  0  0  0  0  0  0
   15.9070   34.5636   59.0985 C   0  0  0  0  0  0  0  0  0  0  0  0
   15.8600   34.0894   57.6529 C   0  0  0  0  0  0  0  0  0  0  0  0
   16.3421   32.6401   57.5956 C   0  0  0  0  0  0  0  0  0  0  0  0
   18.9943   33.7835   53.3709 C   0  0  0  0  0  0  0  0  0  0  0  0
   20.2074   32.9206   53.5494 C   0  0  0  0  0  0  0  0  0  0  0  0
   21.5107   33.5735   53.2465 C   0  0  0  0  0  0  0  0  0  0  0  0
   22.0897   34.4449   54.3450 C   0  0  0  0  0  0  0  0  0  0  0  0
   23.1057   33.6461   55.1834 C   0  0  0  0  0  0  0  0  0  0  0  0
   23.3830   34.2135   56.5210 C   0  0  0  0  0  0  0  0  0  0  0  0
   24.4538   35.1876   56.6983 C   0  0  0  0  0  0  0  0  0  0  0  0
   25.3776   35.0415   55.8967 O   0  0  0  0  0  0  0  0  0  0  0  0
   24.2131   36.0426   57.5422 O   0  0  0  0  0  0  0  0  0  0  0  0
   23.4399   35.9777   58.0675 H   0  0  0  0  0  0  0  0  0  0  0  0
 18 19  2  0  0  0
 18 20  1  0  0  0
 18 17  1  0  0  0
 17 16  1  0  0  0
 16 15  1  0  0  0
 15 14  1  0  0  0
 14 13  1  0  0  0
 13 12  1  0  0  0
 12  1  1  0  0  0
  1  2  1  0  0  0
  2  3  2  0  0  0
  3  4  1  0  0  0
  4  5  1  0  0  0
  5  6  1  0  0  0
  6  7  1  0  0  0
  7  8  1  0  0  0
  8  9  1  0  0  0
  9 10  1  0  0  0
 10 11  1  0  0  0
 20 21  1  0  0  0
M  END
> <minimizedAffinity>
-5.86416

$$$$
1HMS_OLA_A_133


 21 20  0  0  0  0  0  0  0  0999 V2000
   20.3115   34.9994   58.1756 C   0  0  0  0  0  0  0  0  0  0  0  0
   20.2441   34.1166   59.3701 C   0  0  0  0  0  0  0  0  0  0  0  0
   21.3070   33.9654   60.2746 C   0  0  0  0  0  0  0  0  0  0  0  0
   22.6327   34.5577   60.1127 C   0  0  0  0  0  0  0  0  0  0  0  0
   23.7347   33.7397   59.5843 C   0  0  0  0  0  0  0  0  0  0  0  0
   23.6795   33.5235   58.0853 C   0  0  0  0  0  0  0  0  0  0  0  0
   24.0433   34.7945   57.3525 C   0  0  0  0  0  0  0  0  0  0  0  0
   23.3623   34.9258   56.0282 C   0  0  0  0  0  0  0  0  0  0  0  0
   22.6346   33.6998   55.6098 C   0  0  0  0  0  0  0  0  0  0  0  0
   22.2101   33.7461   54.1489 C   0  0  0  0  0  0  0  0  0  0  0  0
   20.8946   32.9833   53.9953 C   0  0  0  0  0  0  0  0  0  0  0  0
   19.3117   34.5885   57.0936 C   0  0  0  0  0  0  0  0  0  0  0  0
   18.1508   33.8434   57.6810 C   0  0  0  0  0  0  0  0  0  0  0  0
   16.8226   34.1457   57.0800 C   0  0  0  0  0  0  0  0  0  0  0  0
   15.8339   34.8649   57.9781 C   0  0  0  0  0  0  0  0  0  0  0  0
   16.0466   36.3886   57.8972 C   0  0  0  0  0  0  0  0  0  0  0  0
   16.1811   36.9203   56.5234 C   0  0  0  0  0  0  0  0  0  0  0  0
   16.9866   38.1098   56.2716 C   0  0  0  0  0  0  0  0  0  0  0  0
   18.1972   37.8826   56.2723 O   0  0  0  0  0  0  0  0  0  0  0  0
   16.3285   39.1083   56.0053 O   0  0  0  0  0  0  0  0  0  0  0  0
   15.3937   39.0831   56.0657 H   0  0  0  0  0  0  0  0  0  0  0  0
 18 19  2  0  0  0
 18 20  1  0  0  0
 18 17  1  0  0  0
 17 16  1  0  0  0
 16 15  1  0  0  0
 15 14  1  0  0  0
 14 13  1  0  0  0
 13 12  1  0  0  0
 12  1  1  0  0  0
  1  2  1  0  0  0
  2  3  2  0  0  0
  3  4  1  0  0  0
  4  5  1  0  0  0
  5  6  1  0  0  0
  6  7  1  0  0  0
  7  8  1  0  0  0
  8  9  1  0  0  0
  9 10  1  0  0  0
 10 11  1  0  0  0
 20 21  1  0  0  0
M  END
> <minimizedAffinity>
-5.69227

$$$$
1HMS_OLA_A_133


 21 20  0  0  0  0  0  0  0  0999 V2000
   18.1636   34.3802   59.5322 C   0  0  0  0  0  0  0  0  0  0  0  0
   18.1384   35.8292   59.8647 C   0  0  0  0  0  0  0  0  0  0  0  0
   18.9063   36.3945   60.8949 C   0  0  0  0  0  0  0  0  0  0  0  0
   19.7358   35.6383   61.8301 C   0  0  0  0  0  0  0  0  0  0  0  0
   21.1889   35.5634   61.6162 C   0  0  0  0  0  0  0  0  0  0  0  0
   21.7028   34.1623   61.3525 C   0  0  0  0  0  0  0  0  0  0  0  0
   22.1082   34.0100   59.9043 C   0  0  0  0  0  0  0  0  0  0  0  0
   22.6244   35.2768   59.3014 C   0  0  0  0  0  0  0  0  0  0  0  0
   22.2165   35.4707   57.8858 C   0  0  0  0  0  0  0  0  0  0  0  0
   22.3584   34.1995   57.0609 C   0  0  0  0  0  0  0  0  0  0  0  0
   23.5288   34.3702   56.0929 C   0  0  0  0  0  0  0  0  0  0  0  0
   18.8337   34.1060   58.1849 C   0  0  0  0  0  0  0  0  0  0  0  0
   17.8156   33.8914   57.1053 C   0  0  0  0  0  0  0  0  0  0  0  0
   16.4313   33.6085   57.5744 C   0  0  0  0  0  0  0  0  0  0  0  0
   15.4387   34.7483   57.4445 C   0  0  0  0  0  0  0  0  0  0  0  0
   15.9347   35.7756   56.4092 C   0  0  0  0  0  0  0  0  0  0  0  0
   16.2387   37.1126   56.9642 C   0  0  0  0  0  0  0  0  0  0  0  0
   17.1749   37.9968   56.2794 C   0  0  0  0  0  0  0  0  0  0  0  0
   16.6892   39.0947   56.0038 O   0  0  0  0  0  0  0  0  0  0  0  0
   18.3080   37.5410   56.1817 O   0  0  0  0  0  0  0  0  0  0  0  0
   18.4838   36.6610   56.4512 H   0  0  0  0  0  0  0  0  0  0  0  0
 18 19  2  0  0  0
 18 20  1  0  0  0
 18 17  1  0  0  0
 17 16  1  0  0  0
 16 15  1  0  0  0
 15 14  1  0  0  0
 14 13  1  0  0  0
 13 12  1  0  0  0
 12  1  1  0  0  0
  1  2  1  0  0  0
  2  3  2  0  0  0
  3  4  1  0  0  0
  4  5  1  0  0  0
  5  6  1  0  0  0
  6  7  1  0  0  0
  7  8  1  0  0  0
  8  9  1  0  0  0
  9 10  1  0  0  0
 10 11  1  0  0  0
 20 21  1  0  0  0
M  END
> <minimizedAffinity>
-5.68049

$$$$
1HMS_OLA_A_133


 21 20  0  0  0  0  0  0  0  0999 V2000
   23.5276   34.9426   58.4205 C   0  0  0  0  0  0  0  0  0  0  0  0
   23.3466   34.1197   59.6455 C   0  0  0  0  0  0  0  0  0  0  0  0
   22.3319   34.3557   60.5865 C   0  0  0  0  0  0  0  0  0  0  0  0
   21.4017   35.4816   60.5477 C   0  0  0  0  0  0  0  0  0  0  0  0
   20.7368   35.9181   61.7847 C   0  0  0  0  0  0  0  0  0  0  0  0
   19.2803   36.2953   61.6028 C   0  0  0  0  0  0  0  0  0  0  0  0
   18.5872   35.3094   60.6904 C   0  0  0  0  0  0  0  0  0  0  0  0
   17.6532   35.9603   59.7216 C   0  0  0  0  0  0  0  0  0  0  0  0
   17.8429   35.5095   58.3185 C   0  0  0  0  0  0  0  0  0  0  0  0
   18.8357   34.3612   58.2064 C   0  0  0  0  0  0  0  0  0  0  0  0
   19.8717   34.7103   57.1383 C   0  0  0  0  0  0  0  0  0  0  0  0
   23.5513   34.0927   57.1491 C   0  0  0  0  0  0  0  0  0  0  0  0
   24.1519   34.8479   56.0015 C   0  0  0  0  0  0  0  0  0  0  0  0
   23.7601   34.3746   54.6454 C   0  0  0  0  0  0  0  0  0  0  0  0
   22.5933   33.4067   54.5897 C   0  0  0  0  0  0  0  0  0  0  0  0
   21.5713   33.8597   53.5296 C   0  0  0  0  0  0  0  0  0  0  0  0
   20.3831   32.9874   53.4064 C   0  0  0  0  0  0  0  0  0  0  0  0
   19.1648   33.4894   52.7813 C   0  0  0  0  0  0  0  0  0  0  0  0
   19.3810   34.3311   51.9084 O   0  0  0  0  0  0  0  0  0  0  0  0
   18.1447   32.9233   53.1556 O   0  0  0  0  0  0  0  0  0  0  0  0
   18.1846   32.2982   53.8525 H   0  0  0  0  0  0  0  0  0  0  0  0
 18 19  2  0  0  0
 18 20  1  0  0  0
 18 17  1  0  0  0
 17 16  1  0  0  0
 16 15  1  0  0  0
 15 14  1  0  0  0
 14 13  1  0  0  0
 13 12  1  0  0  0
 12  1  1  0  0  0
  1  2  1  0  0  0
  2  3  2  0  0  0
  3  4  1  0  0  0
  4  5  1  0  0  0
  5  6  1  0  0  0
  6  7  1  0  0  0
  7  8  1  0  0  0
  8  9  1  0  0  0
  9 10  1  0  0  0
 10 11  1  0  0  0
 20 21  1  0  0  0
M  END
> <minimizedAffinity>
-5.67235

$$$$
1HMS_OLA_A_133


 21 20  0  0  0  0  0  0  0  0999 V2000
   18.1543   36.7178   56.3612 C   0  0  0  0  0  0  0  0  0  0  0  0
   19.2488   35.7529   56.6470 C   0  0  0  0  0  0  0  0  0  0  0  0
   19.0890   34.3611   56.5569 C   0  0  0  0  0  0  0  0  0  0  0  0
   17.8257   33.6812   56.2803 C   0  0  0  0  0  0  0  0  0  0  0  0
   16.9524   33.2879   57.3962 C   0  0  0  0  0  0  0  0  0  0  0  0
   15.7206   34.1570   57.5523 C   0  0  0  0  0  0  0  0  0  0  0  0
   15.7485   34.8832   58.8776 C   0  0  0  0  0  0  0  0  0  0  0  0
   16.9925   34.6236   59.6649 C   0  0  0  0  0  0  0  0  0  0  0  0
   17.7370   35.8582   60.0243 C   0  0  0  0  0  0  0  0  0  0  0  0
   19.0568   35.5588   60.7208 C   0  0  0  0  0  0  0  0  0  0  0  0
   19.5473   34.1822   60.2731 C   0  0  0  0  0  0  0  0  0  0  0  0
   18.6255   37.8908   55.5002 C   0  0  0  0  0  0  0  0  0  0  0  0
   19.9402   37.5905   54.8450 C   0  0  0  0  0  0  0  0  0  0  0  0
   20.0322   37.9373   53.4001 C   0  0  0  0  0  0  0  0  0  0  0  0
   20.2751   36.7785   52.4516 C   0  0  0  0  0  0  0  0  0  0  0  0
   19.5006   35.5316   52.9195 C   0  0  0  0  0  0  0  0  0  0  0  0
   20.1471   34.2435   52.5867 C   0  0  0  0  0  0  0  0  0  0  0  0
   19.5789   32.9899   53.0693 C   0  0  0  0  0  0  0  0  0  0  0  0
   18.5016   32.7124   52.5404 O   0  0  0  0  0  0  0  0  0  0  0  0
   20.3085   32.3779   53.8401 O   0  0  0  0  0  0  0  0  0  0  0  0
   21.1072   32.7670   54.1377 H   0  0  0  0  0  0  0  0  0  0  0  0
 18 19  2  0  0  0
 18 20  1  0  0  0
 18 17  1  0  0  0
 17 16  1  0  0  0
 16 15  1  0  0  0
 15 14  1  0  0  0
 14 13  1  0  0  0
 13 12  1  0  0  0
 12  1  1  0  0  0
  1  2  1  0  0  0
  2  3  2  0  0  0
  3  4  1  0  0  0
  4  5  1  0  0  0
  5  6  1  0  0  0
  6  7  1  0  0  0
  7  8  1  0  0  0
  8  9  1  0  0  0
  9 10  1  0  0  0
 10 11  1  0  0  0
 20 21  1  0  0  0
M  END
> <minimizedAffinity>
-5.66996

$$$$
1HMS_OLA_A_133


 21 20  0  0  0  0  0  0  0  0999 V2000
   18.7412   35.1079   60.8732 C   0  0  0  0  0  0  0  0  0  0  0  0
   19.7494   36.0779   61.3765 C   0  0  0  0  0  0  0  0  0  0  0  0
   21.0671   35.7180   61.7002 C   0  0  0  0  0  0  0  0  0  0  0  0
   21.5870   34.3527   61.6892 C   0  0  0  0  0  0  0  0  0  0  0  0
   22.6204   33.9762   60.7129 C   0  0  0  0  0  0  0  0  0  0  0  0
   22.1211   33.8990   59.2840 C   0  0  0  0  0  0  0  0  0  0  0  0
   23.2529   33.5500   58.3450 C   0  0  0  0  0  0  0  0  0  0  0  0
   23.7632   34.7258   57.5757 C   0  0  0  0  0  0  0  0  0  0  0  0
   23.0019   34.9961   56.3286 C   0  0  0  0  0  0  0  0  0  0  0  0
   22.6077   33.7192   55.6002 C   0  0  0  0  0  0  0  0  0  0  0  0
   22.5426   34.0090   54.1010 C   0  0  0  0  0  0  0  0  0  0  0  0
   18.2645   35.4475   59.4602 C   0  0  0  0  0  0  0  0  0  0  0  0
   18.3287   34.2486   58.5621 C   0  0  0  0  0  0  0  0  0  0  0  0
   19.1931   34.3927   57.3586 C   0  0  0  0  0  0  0  0  0  0  0  0
   19.1868   35.7565   56.6941 C   0  0  0  0  0  0  0  0  0  0  0  0
   17.9334   35.9175   55.8130 C   0  0  0  0  0  0  0  0  0  0  0  0
   16.9394   36.8854   56.3260 C   0  0  0  0  0  0  0  0  0  0  0  0
   15.5306   36.5172   56.4095 C   0  0  0  0  0  0  0  0  0  0  0  0
   15.3462   35.4364   56.9709 O   0  0  0  0  0  0  0  0  0  0  0  0
   14.7658   37.3823   56.0000 O   0  0  0  0  0  0  0  0  0  0  0  0
   15.1065   38.1531   55.5905 H   0  0  0  0  0  0  0  0  0  0  0  0
 18 19  2  0  0  0
 18 20  1  0  0  0
 18 17  1  0  0  0
 17 16  1  0  0  0
 16 15  1  0  0  0
 15 14  1  0  0  0
 14 13  1  0  0  0
 13 12  1  0  0  0
 12  1  1  0  0  0
  1  2  1  0  0  0
  2  3  2  0  0  0
  3  4  1  0  0  0
  4  5  1  0  0  0
  5  6  1  0  0  0
  6  7  1  0  0  0
  7  8  1  0  0  0
  8  9  1  0  0  0
  9 10  1  0  0  0
 10 11  1  0  0  0
 20 21  1  0  0  0
M  END
> <minimizedAffinity>
-5.66506

$$$$
1HMS_OLA_A_133


 21 20  0  0  0  0  0  0  0  0999 V2000
   20.9124   35.9651   61.4477 C   0  0  0  0  0  0  0  0  0  0  0  0
   21.2857   34.5406   61.6524 C   0  0  0  0  0  0  0  0  0  0  0  0
   22.2287   33.8714   60.8564 C   0  0  0  0  0  0  0  0  0  0  0  0
   22.8794   34.4380   59.6774 C   0  0  0  0  0  0  0  0  0  0  0  0
   22.5640   33.9017   58.3448 C   0  0  0  0  0  0  0  0  0  0  0  0
   21.5140   34.6946   57.5927 C   0  0  0  0  0  0  0  0  0  0  0  0
   21.6279   34.4485   56.1057 C   0  0  0  0  0  0  0  0  0  0  0  0
   22.8462   33.6677   55.7301 C   0  0  0  0  0  0  0  0  0  0  0  0
   23.7765   34.4095   54.8401 C   0  0  0  0  0  0  0  0  0  0  0  0
   24.7908   35.2352   55.6185 C   0  0  0  0  0  0  0  0  0  0  0  0
   25.1449   36.4768   54.8004 C   0  0  0  0  0  0  0  0  0  0  0  0
   19.4028   36.1894   61.5488 C   0  0  0  0  0  0  0  0  0  0  0  0
   18.6425   35.0658   60.9105 C   0  0  0  0  0  0  0  0  0  0  0  0
   18.4418   35.1796   59.4397 C   0  0  0  0  0  0  0  0  0  0  0  0
   17.8900   33.9484   58.7461 C   0  0  0  0  0  0  0  0  0  0  0  0
   16.3563   33.8984   58.8828 C   0  0  0  0  0  0  0  0  0  0  0  0
   15.6156   34.3545   57.6864 C   0  0  0  0  0  0  0  0  0  0  0  0
   15.7910   35.7138   57.1876 C   0  0  0  0  0  0  0  0  0  0  0  0
   16.1711   35.7535   56.0166 O   0  0  0  0  0  0  0  0  0  0  0  0
   15.4393   36.5820   57.9772 O   0  0  0  0  0  0  0  0  0  0  0  0
   15.1792   36.3474   58.8463 H   0  0  0  0  0  0  0  0  0  0  0  0
 18 19  2  0  0  0
 18 20  1  0  0  0
 18 17  1  0  0  0
 17 16  1  0  0  0
 16 15  1  0  0  0
 15 14  1  0  0  0
 14 13  1  0  0  0
 13 12  1  0  0  0
 12  1  1  0  0  0
  1  2  1  0  0  0
  2  3  2  0  0  0
  3  4  1  0  0  0
  4  5  1  0  0  0
  5  6  1  0  0  0
  6  7  1  0  0  0
  7  8  1  0  0  0
  8  9  1  0  0  0
  9 10  1  0  0  0
 10 11  1  0  0  0
 20 21  1  0  0  0
M  END
> <minimizedAffinity>
-5.66364

$$$$
1HMS_OLA_A_133


 21 20  0  0  0  0  0  0  0  0999 V2000
   21.4225   35.6736   60.5163 C   0  0  0  0  0  0  0  0  0  0  0  0
   20.4383   35.8081   61.6227 C   0  0  0  0  0  0  0  0  0  0  0  0
   19.0495   35.8189   61.4183 C   0  0  0  0  0  0  0  0  0  0  0  0
   18.3971   35.8073   60.1111 C   0  0  0  0  0  0  0  0  0  0  0  0
   18.0348   34.5240   59.4909 C   0  0  0  0  0  0  0  0  0  0  0  0
   16.5620   34.1821   59.5944 C   0  0  0  0  0  0  0  0  0  0  0  0
   15.7273   35.2040   58.8570 C   0  0  0  0  0  0  0  0  0  0  0  0
   15.6337   34.9385   57.3888 C   0  0  0  0  0  0  0  0  0  0  0  0
   15.7156   36.1666   56.5563 C   0  0  0  0  0  0  0  0  0  0  0  0
   16.7643   37.1450   57.0657 C   0  0  0  0  0  0  0  0  0  0  0  0
   18.1112   36.7941   56.4343 C   0  0  0  0  0  0  0  0  0  0  0  0
   21.9227   34.2371   60.3565 C   0  0  0  0  0  0  0  0  0  0  0  0
   22.0462   33.8624   58.9100 C   0  0  0  0  0  0  0  0  0  0  0  0
   21.2713   34.7062   57.9592 C   0  0  0  0  0  0  0  0  0  0  0  0
   21.7114   34.6497   56.5085 C   0  0  0  0  0  0  0  0  0  0  0  0
   23.0605   33.9160   56.3858 C   0  0  0  0  0  0  0  0  0  0  0  0
   23.8672   34.3018   55.2075 C   0  0  0  0  0  0  0  0  0  0  0  0
   24.7105   35.4910   55.2519 C   0  0  0  0  0  0  0  0  0  0  0  0
   25.8469   35.2622   55.6686 O   0  0  0  0  0  0  0  0  0  0  0  0
   24.1845   36.4910   54.7783 O   0  0  0  0  0  0  0  0  0  0  0  0
   23.2862   36.4670   54.5132 H   0  0  0  0  0  0  0  0  0  0  0  0
 18 19  2  0  0  0
 18 20  1  0  0  0
 18 17  1  0  0  0
 17 16  1  0  0  0
 16 15  1  0  0  0
 15 14  1  0  0  0
 14 13  1  0  0  0
 13 12  1  0  0  0
 12  1  1  0  0  0
  1  2  1  0  0  0
  2  3  2  0  0  0
  3  4  1  0  0  0
  4  5  1  0  0  0
  5  6  1  0  0  0
  6  7  1  0  0  0
  7  8  1  0  0  0
  8  9  1  0  0  0
  9 10  1  0  0  0
 10 11  1  0  0  0
 20 21  1  0  0  0
M  END
> <minimizedAffinity>
-5.66361

$$$$
1HMS_OLA_A_133


 21 20  0  0  0  0  0  0  0  0999 V2000
   18.2500   35.2218   56.0496 C   0  0  0  0  0  0  0  0  0  0  0  0
   17.9577   33.8212   56.4541 C   0  0  0  0  0  0  0  0  0  0  0  0
   16.7701   33.4394   57.0980 C   0  0  0  0  0  0  0  0  0  0  0  0
   15.7285   34.3611   57.5452 C   0  0  0  0  0  0  0  0  0  0  0  0
   15.7035   34.8049   58.9471 C   0  0  0  0  0  0  0  0  0  0  0  0
   17.0029   34.5724   59.6917 C   0  0  0  0  0  0  0  0  0  0  0  0
   17.7299   35.8794   59.9103 C   0  0  0  0  0  0  0  0  0  0  0  0
   19.0436   35.7133   60.6041 C   0  0  0  0  0  0  0  0  0  0  0  0
   19.4707   34.2964   60.7368 C   0  0  0  0  0  0  0  0  0  0  0  0
   20.6728   33.9675   59.8629 C   0  0  0  0  0  0  0  0  0  0  0  0
   21.9462   34.1659   60.6846 C   0  0  0  0  0  0  0  0  0  0  0  0
   19.6296   35.6853   56.5198 C   0  0  0  0  0  0  0  0  0  0  0  0
   20.6718   34.6389   56.2612 C   0  0  0  0  0  0  0  0  0  0  0  0
   21.5229   34.8625   55.0603 C   0  0  0  0  0  0  0  0  0  0  0  0
   22.4891   33.7460   54.7121 C   0  0  0  0  0  0  0  0  0  0  0  0
   23.9382   34.2689   54.7213 C   0  0  0  0  0  0  0  0  0  0  0  0
   24.0682   35.7204   54.9750 C   0  0  0  0  0  0  0  0  0  0  0  0
   25.3830   36.3517   54.9727 C   0  0  0  0  0  0  0  0  0  0  0  0
   26.3071   35.5432   54.8757 O   0  0  0  0  0  0  0  0  0  0  0  0
   25.3461   37.5764   54.9677 O   0  0  0  0  0  0  0  0  0  0  0  0
   24.5258   38.0207   55.0559 H   0  0  0  0  0  0  0  0  0  0  0  0
 18 19  2  0  0  0
 18 20  1  0  0  0
 18 17  1  0  0  0
 17 16  1  0  0  0
 16 15  1  0  0  0
 15 14  1  0  0  0
 14 13  1  0  0  0
 13 12  1  0  0  0
 12  1  1  0  0  0
  1  2  1  0  0  0
  2  3  2  0  0  0
  3  4  1  0  0  0
  4  5  1  0  0  0
  5  6  1  0  0  0
  6  7  1  0  0  0
  7  8  1  0  0  0
  8  9  1  0  0  0
  9 10  1  0  0  0
 10 11  1  0  0  0
 20 21  1  0  0  0
M  END
> <minimizedAffinity>
-5.62869

$$$$
1HMS_OLA_A_133


 21 20  0  0  0  0  0  0  0  0999 V2000
   22.4598   35.1449   58.0815 C   0  0  0  0  0  0  0  0  0  0  0  0
   22.4406   34.2097   59.2372 C   0  0  0  0  0  0  0  0  0  0  0  0
   21.2670   33.8613   59.9242 C   0  0  0  0  0  0  0  0  0  0  0  0
   19.9488   34.4387   59.6724 C   0  0  0  0  0  0  0  0  0  0  0  0
   19.1556   34.9575   60.7969 C   0  0  0  0  0  0  0  0  0  0  0  0
   18.1571   36.0286   60.4060 C   0  0  0  0  0  0  0  0  0  0  0  0
   17.7201   35.8475   58.9704 C   0  0  0  0  0  0  0  0  0  0  0  0
   16.2366   35.9052   58.7951 C   0  0  0  0  0  0  0  0  0  0  0  0
   15.6605   34.6738   58.1956 C   0  0  0  0  0  0  0  0  0  0  0  0
   16.0245   33.4209   58.9795 C   0  0  0  0  0  0  0  0  0  0  0  0
   16.4752   32.3404   57.9969 C   0  0  0  0  0  0  0  0  0  0  0  0
   22.0594   34.4596   56.7741 C   0  0  0  0  0  0  0  0  0  0  0  0
   21.3208   35.4013   55.8709 C   0  0  0  0  0  0  0  0  0  0  0  0
   19.8477   35.4667   56.0770 C   0  0  0  0  0  0  0  0  0  0  0  0
   19.1125   34.1400   56.0507 C   0  0  0  0  0  0  0  0  0  0  0  0
   17.8905   34.2229   55.1162 C   0  0  0  0  0  0  0  0  0  0  0  0
   18.2167   34.4743   53.6955 C   0  0  0  0  0  0  0  0  0  0  0  0
   19.0104   33.5100   52.9422 C   0  0  0  0  0  0  0  0  0  0  0  0
   18.3423   32.5740   52.5009 O   0  0  0  0  0  0  0  0  0  0  0  0
   20.1806   33.8399   52.7909 O   0  0  0  0  0  0  0  0  0  0  0  0
   20.5115   34.6036   53.2213 H   0  0  0  0  0  0  0  0  0  0  0  0
 18 19  2  0  0  0
 18 20  1  0  0  0
 18 17  1  0  0  0
 17 16  1  0  0  0
 16 15  1  0  0  0
 15 14  1  0  0  0
 14 13  1  0  0  0
 13 12  1  0  0  0
 12  1  1  0  0  0
  1  2  1  0  0  0
  2  3  2  0  0  0
  3  4  1  0  0  0
  4  5  1  0  0  0
  5  6  1  0  0  0
  6  7  1  0  0  0
  7  8  1  0  0  0
  8  9  1  0  0  0
  9 10  1  0  0  0
 10 11  1  0  0  0
 20 21  1  0  0  0
M  END
> <minimizedAffinity>
-5.62688

$$$$
