2FZC_EOP_A_811


 24 23  0  0  0  0  0  0  0  0999 V2000
   37.6081   28.5045   20.8637 C   0  0  0  0  0  0  0  0  0  0  0  0
   37.1788   30.9214   21.2045 C   0  0  0  0  0  0  0  0  0  0  0  0
   36.4934   31.0508   20.1973 O   0  0  0  0  0  0  0  0  0  0  0  0
   37.7344   29.7795   21.5949 N   0  0  0  0  0  0  0  0  0  0  0  0
   38.2640   29.7845   22.4248 H   0  0  0  0  0  0  0  0  0  0  0  0
   37.4954   32.1360   22.0935 C   0  0  0  0  0  0  0  0  0  0  0  0
   38.9488   31.0811   24.1744 O   0  0  0  0  0  0  0  0  0  0  0  0
   37.5569   31.8344   23.8763 P   0  0  0  0  0  0  0  0  0  0  0  0
   36.3843   30.7850   24.2211 O   0  0  0  0  0  0  0  0  0  0  0  0
   37.4196   33.0862   24.6546 O   0  0  0  0  0  0  0  0  0  0  0  0
   39.0215   30.9001   25.1246 H   0  0  0  0  0  0  0  0  0  0  0  0
   36.3869   30.5986   25.1730 H   0  0  0  0  0  0  0  0  0  0  0  0
   38.7570   28.2606   19.8840 C   0  0  0  0  0  0  0  0  0  0  0  0
   38.4994   29.0593   18.6779 N   0  0  0  0  0  0  0  0  0  0  0  0
   39.3920   29.3114   17.7216 C   0  0  0  0  0  0  0  0  0  0  0  0
   39.1012   29.8862   16.6721 O   0  0  0  0  0  0  0  0  0  0  0  0
   37.5971   29.4375   18.5679 H   0  0  0  0  0  0  0  0  0  0  0  0
   40.7930   28.7310   17.9217 C   0  0  0  0  0  0  0  0  0  0  0  0
   42.0081   29.8576   17.1994 P   0  0  0  0  0  0  0  0  0  0  0  0
   41.5989   31.3244   17.7240 O   0  0  0  0  0  0  0  0  0  0  0  0
   41.7383   29.8399   15.6109 O   0  0  0  0  0  0  0  0  0  0  0  0
   43.4016   29.4956   17.5416 O   0  0  0  0  0  0  0  0  0  0  0  0
   40.6804   31.5122   17.4751 H   0  0  0  0  0  0  0  0  0  0  0  0
   40.8154   30.0826   15.4370 H   0  0  0  0  0  0  0  0  0  0  0  0
  7  8  1  0  0  0
  8  9  1  0  0  0
  8 10  2  0  0  0
  8  6  1  0  0  0
  6  2  1  0  0  0
  2  3  2  0  0  0
  2  4  1  0  0  0
  4  1  1  0  0  0
  1 13  1  0  0  0
 13 14  1  0  0  0
 14 15  1  0  0  0
 15 16  2  0  0  0
 15 18  1  0  0  0
 18 19  1  0  0  0
 19 20  1  0  0  0
 19 21  1  0  0  0
 19 22  2  0  0  0
  7 11  1  0  0  0
  9 12  1  0  0  0
  4  5  1  0  0  0
 14 17  1  0  0  0
 20 23  1  0  0  0
 21 24  1  0  0  0
M  END
> <minimizedAffinity>
-7.46290

$$$$
2FZC_EOP_A_811


 24 23  0  0  0  0  0  0  0  0999 V2000
   38.6179   27.2870   20.4887 C   0  0  0  0  0  0  0  0  0  0  0  0
   37.0119   28.0603   22.2106 C   0  0  0  0  0  0  0  0  0  0  0  0
   36.3545   27.0265   22.2149 O   0  0  0  0  0  0  0  0  0  0  0  0
   38.0783   28.2707   21.4466 N   0  0  0  0  0  0  0  0  0  0  0  0
   38.5376   29.1380   21.5246 H   0  0  0  0  0  0  0  0  0  0  0  0
   36.5974   29.2517   23.0908 C   0  0  0  0  0  0  0  0  0  0  0  0
   36.6013   31.9516   23.6062 O   0  0  0  0  0  0  0  0  0  0  0  0
   37.3056   30.8587   22.6558 P   0  0  0  0  0  0  0  0  0  0  0  0
   36.8392   31.1913   21.1503 O   0  0  0  0  0  0  0  0  0  0  0  0
   38.7799   30.8680   22.7885 O   0  0  0  0  0  0  0  0  0  0  0  0
   36.9549   32.8318   23.4040 H   0  0  0  0  0  0  0  0  0  0  0  0
   37.2019   32.0499   20.8816 H   0  0  0  0  0  0  0  0  0  0  0  0
   39.2862   27.9373   19.2764 C   0  0  0  0  0  0  0  0  0  0  0  0
   38.6904   29.2677   19.0916 N   0  0  0  0  0  0  0  0  0  0  0  0
   39.3766   30.3985   18.9334 C   0  0  0  0  0  0  0  0  0  0  0  0
   38.8389   31.4733   18.6647 O   0  0  0  0  0  0  0  0  0  0  0  0
   37.7078   29.3280   19.0842 H   0  0  0  0  0  0  0  0  0  0  0  0
   40.9016   30.2851   18.9677 C   0  0  0  0  0  0  0  0  0  0  0  0
   41.5097   29.9850   17.2921 P   0  0  0  0  0  0  0  0  0  0  0  0
   40.1926   29.8502   16.3749 O   0  0  0  0  0  0  0  0  0  0  0  0
   42.2028   28.5308   17.3270 O   0  0  0  0  0  0  0  0  0  0  0  0
   42.4316   31.0410   16.8178 O   0  0  0  0  0  0  0  0  0  0  0  0
   39.6240   29.1476   16.7269 H   0  0  0  0  0  0  0  0  0  0  0  0
   41.5621   27.8747   17.6430 H   0  0  0  0  0  0  0  0  0  0  0  0
  7  8  1  0  0  0
  8  9  1  0  0  0
  8 10  2  0  0  0
  8  6  1  0  0  0
  6  2  1  0  0  0
  2  3  2  0  0  0
  2  4  1  0  0  0
  4  1  1  0  0  0
  1 13  1  0  0  0
 13 14  1  0  0  0
 14 15  1  0  0  0
 15 16  2  0  0  0
 15 18  1  0  0  0
 18 19  1  0  0  0
 19 20  1  0  0  0
 19 21  1  0  0  0
 19 22  2  0  0  0
  7 11  1  0  0  0
  9 12  1  0  0  0
  4  5  1  0  0  0
 14 17  1  0  0  0
 20 23  1  0  0  0
 21 24  1  0  0  0
M  END
> <minimizedAffinity>
-7.31765

$$$$
2FZC_EOP_A_811


 24 23  0  0  0  0  0  0  0  0999 V2000
   39.6807   29.1435   17.0293 C   0  0  0  0  0  0  0  0  0  0  0  0
   41.9107   28.9508   15.9654 C   0  0  0  0  0  0  0  0  0  0  0  0
   42.1058   30.1589   15.9076 O   0  0  0  0  0  0  0  0  0  0  0  0
   40.8182   28.3883   16.4708 N   0  0  0  0  0  0  0  0  0  0  0  0
   40.7644   27.4053   16.4726 H   0  0  0  0  0  0  0  0  0  0  0  0
   42.9405   27.9660   15.3860 C   0  0  0  0  0  0  0  0  0  0  0  0
   42.6215   29.1962   12.9488 O   0  0  0  0  0  0  0  0  0  0  0  0
   42.9259   27.7504   13.5897 P   0  0  0  0  0  0  0  0  0  0  0  0
   41.6631   26.8157   13.2339 O   0  0  0  0  0  0  0  0  0  0  0  0
   44.1943   27.1725   13.0912 O   0  0  0  0  0  0  0  0  0  0  0  0
   42.6050   29.1241   11.9816 H   0  0  0  0  0  0  0  0  0  0  0  0
   41.6231   26.6778   12.2746 H   0  0  0  0  0  0  0  0  0  0  0  0
   39.4535   28.8693   18.5168 C   0  0  0  0  0  0  0  0  0  0  0  0
   38.3469   29.7233   18.9696 N   0  0  0  0  0  0  0  0  0  0  0  0
   37.8282   29.7177   20.1967 C   0  0  0  0  0  0  0  0  0  0  0  0
   36.9809   30.5310   20.5668 O   0  0  0  0  0  0  0  0  0  0  0  0
   37.9587   30.3483   18.3155 H   0  0  0  0  0  0  0  0  0  0  0  0
   38.4329   28.7256   21.1916 C   0  0  0  0  0  0  0  0  0  0  0  0
   37.1657   27.5333   21.6815 P   0  0  0  0  0  0  0  0  0  0  0  0
   35.7580   28.2719   21.4227 O   0  0  0  0  0  0  0  0  0  0  0  0
   37.3139   27.3607   23.2767 O   0  0  0  0  0  0  0  0  0  0  0  0
   37.2779   26.2464   20.9595 O   0  0  0  0  0  0  0  0  0  0  0  0
   35.7354   29.1067   21.9162 H   0  0  0  0  0  0  0  0  0  0  0  0
   37.2337   28.2276   23.7045 H   0  0  0  0  0  0  0  0  0  0  0  0
  7  8  1  0  0  0
  8  9  1  0  0  0
  8 10  2  0  0  0
  8  6  1  0  0  0
  6  2  1  0  0  0
  2  3  2  0  0  0
  2  4  1  0  0  0
  4  1  1  0  0  0
  1 13  1  0  0  0
 13 14  1  0  0  0
 14 15  1  0  0  0
 15 16  2  0  0  0
 15 18  1  0  0  0
 18 19  1  0  0  0
 19 20  1  0  0  0
 19 21  1  0  0  0
 19 22  2  0  0  0
  7 11  1  0  0  0
  9 12  1  0  0  0
  4  5  1  0  0  0
 14 17  1  0  0  0
 20 23  1  0  0  0
 21 24  1  0  0  0
M  END
> <minimizedAffinity>
-7.31291

$$$$
2FZC_EOP_A_811


 24 23  0  0  0  0  0  0  0  0999 V2000
   38.5421   26.3206   20.6358 C   0  0  0  0  0  0  0  0  0  0  0  0
   40.1133   28.2340   20.5247 C   0  0  0  0  0  0  0  0  0  0  0  0
   40.2667   28.3163   21.7373 O   0  0  0  0  0  0  0  0  0  0  0  0
   39.3364   27.3394   19.9235 N   0  0  0  0  0  0  0  0  0  0  0  0
   39.2877   27.3576   18.9404 H   0  0  0  0  0  0  0  0  0  0  0  0
   40.8009   29.2361   19.5819 C   0  0  0  0  0  0  0  0  0  0  0  0
   40.8180   27.7529   17.2679 O   0  0  0  0  0  0  0  0  0  0  0  0
   40.3115   29.1700   17.8414 P   0  0  0  0  0  0  0  0  0  0  0  0
   41.1531   30.3052   17.0681 O   0  0  0  0  0  0  0  0  0  0  0  0
   38.8529   29.3550   17.6691 O   0  0  0  0  0  0  0  0  0  0  0  0
   40.5742   27.6770   16.3321 H   0  0  0  0  0  0  0  0  0  0  0  0
   40.9158   30.2993   16.1276 H   0  0  0  0  0  0  0  0  0  0  0  0
   37.1370   26.8038   20.9985 C   0  0  0  0  0  0  0  0  0  0  0  0
   37.1820   27.3375   22.3668 N   0  0  0  0  0  0  0  0  0  0  0  0
   36.9190   28.5987   22.7056 C   0  0  0  0  0  0  0  0  0  0  0  0
   36.8541   28.9756   23.8762 O   0  0  0  0  0  0  0  0  0  0  0  0
   37.4254   26.7146   23.0893 H   0  0  0  0  0  0  0  0  0  0  0  0
   36.5621   29.5542   21.5658 C   0  0  0  0  0  0  0  0  0  0  0  0
   37.5757   31.0445   21.7046 P   0  0  0  0  0  0  0  0  0  0  0  0
   38.7695   30.6593   22.7148 O   0  0  0  0  0  0  0  0  0  0  0  0
   36.6598   32.1334   22.4608 O   0  0  0  0  0  0  0  0  0  0  0  0
   38.0676   31.5286   20.3956 O   0  0  0  0  0  0  0  0  0  0  0  0
   38.3953   30.3493   23.5543 H   0  0  0  0  0  0  0  0  0  0  0  0
   36.3625   31.7718   23.3103 H   0  0  0  0  0  0  0  0  0  0  0  0
  7  8  1  0  0  0
  8  9  1  0  0  0
  8 10  2  0  0  0
  8  6  1  0  0  0
  6  2  1  0  0  0
  2  3  2  0  0  0
  2  4  1  0  0  0
  4  1  1  0  0  0
  1 13  1  0  0  0
 13 14  1  0  0  0
 14 15  1  0  0  0
 15 16  2  0  0  0
 15 18  1  0  0  0
 18 19  1  0  0  0
 19 20  1  0  0  0
 19 21  1  0  0  0
 19 22  2  0  0  0
  7 11  1  0  0  0
  9 12  1  0  0  0
  4  5  1  0  0  0
 14 17  1  0  0  0
 20 23  1  0  0  0
 21 24  1  0  0  0
M  END
> <minimizedAffinity>
-7.23876

$$$$
2FZC_EOP_A_811


 24 23  0  0  0  0  0  0  0  0999 V2000
   36.8637   31.1825   23.0447 C   0  0  0  0  0  0  0  0  0  0  0  0
   36.7541   29.8934   20.9309 C   0  0  0  0  0  0  0  0  0  0  0  0
   36.2398   30.7964   20.2821 O   0  0  0  0  0  0  0  0  0  0  0  0
   37.0810   29.9819   22.2156 N   0  0  0  0  0  0  0  0  0  0  0  0
   37.4945   29.1963   22.6413 H   0  0  0  0  0  0  0  0  0  0  0  0
   37.0200   28.5229   20.2852 C   0  0  0  0  0  0  0  0  0  0  0  0
   37.2914   25.8043   20.5861 O   0  0  0  0  0  0  0  0  0  0  0  0
   37.4697   27.1776   21.4082 P   0  0  0  0  0  0  0  0  0  0  0  0
   36.3701   27.1539   22.5852 O   0  0  0  0  0  0  0  0  0  0  0  0
   38.8414   27.3371   21.9416 O   0  0  0  0  0  0  0  0  0  0  0  0
   37.5238   25.0541   21.1555 H   0  0  0  0  0  0  0  0  0  0  0  0
   36.5799   26.4417   23.2094 H   0  0  0  0  0  0  0  0  0  0  0  0
   38.1374   31.6695   23.7375 C   0  0  0  0  0  0  0  0  0  0  0  0
   38.4938   32.9739   23.1627 N   0  0  0  0  0  0  0  0  0  0  0  0
   39.6697   33.2724   22.6122 C   0  0  0  0  0  0  0  0  0  0  0  0
   39.8859   34.3400   22.0379 O   0  0  0  0  0  0  0  0  0  0  0  0
   37.8106   33.6823   23.1861 H   0  0  0  0  0  0  0  0  0  0  0  0
   40.7233   32.1636   22.6037 C   0  0  0  0  0  0  0  0  0  0  0  0
   40.5482   31.1935   21.0885 P   0  0  0  0  0  0  0  0  0  0  0  0
   39.2264   31.7621   20.3648 O   0  0  0  0  0  0  0  0  0  0  0  0
   40.2091   29.6911   21.5621 O   0  0  0  0  0  0  0  0  0  0  0  0
   41.7469   31.2580   20.2233 O   0  0  0  0  0  0  0  0  0  0  0  0
   38.4724   31.6976   20.9717 H   0  0  0  0  0  0  0  0  0  0  0  0
   39.4189   29.6999   22.1245 H   0  0  0  0  0  0  0  0  0  0  0  0
  7  8  1  0  0  0
  8  9  1  0  0  0
  8 10  2  0  0  0
  8  6  1  0  0  0
  6  2  1  0  0  0
  2  3  2  0  0  0
  2  4  1  0  0  0
  4  1  1  0  0  0
  1 13  1  0  0  0
 13 14  1  0  0  0
 14 15  1  0  0  0
 15 16  2  0  0  0
 15 18  1  0  0  0
 18 19  1  0  0  0
 19 20  1  0  0  0
 19 21  1  0  0  0
 19 22  2  0  0  0
  7 11  1  0  0  0
  9 12  1  0  0  0
  4  5  1  0  0  0
 14 17  1  0  0  0
 20 23  1  0  0  0
 21 24  1  0  0  0
M  END
> <minimizedAffinity>
-7.21594

$$$$
2FZC_EOP_A_811


 24 23  0  0  0  0  0  0  0  0999 V2000
   39.1113   30.2037   19.8038 C   0  0  0  0  0  0  0  0  0  0  0  0
   36.7837   29.8098   20.5581 C   0  0  0  0  0  0  0  0  0  0  0  0
   36.3596   30.8890   20.1626 O   0  0  0  0  0  0  0  0  0  0  0  0
   38.0429   29.4047   20.4331 N   0  0  0  0  0  0  0  0  0  0  0  0
   38.2777   28.5148   20.7827 H   0  0  0  0  0  0  0  0  0  0  0  0
   35.8570   28.8330   21.3016 C   0  0  0  0  0  0  0  0  0  0  0  0
   37.5131   27.2693   22.8402 O   0  0  0  0  0  0  0  0  0  0  0  0
   36.3509   28.3752   22.9809 P   0  0  0  0  0  0  0  0  0  0  0  0
   35.0924   27.6344   23.6606 O   0  0  0  0  0  0  0  0  0  0  0  0
   36.7877   29.5497   23.7689 O   0  0  0  0  0  0  0  0  0  0  0  0
   37.8075   26.9956   23.7230 H   0  0  0  0  0  0  0  0  0  0  0  0
   35.3214   27.3732   24.5663 H   0  0  0  0  0  0  0  0  0  0  0  0
   39.4883   29.7044   18.4081 C   0  0  0  0  0  0  0  0  0  0  0  0
   40.6011   30.5295   17.9184 N   0  0  0  0  0  0  0  0  0  0  0  0
   41.6351   30.0780   17.2101 C   0  0  0  0  0  0  0  0  0  0  0  0
   42.4846   30.8229   16.7203 O   0  0  0  0  0  0  0  0  0  0  0  0
   40.5810   31.4908   18.1303 H   0  0  0  0  0  0  0  0  0  0  0  0
   41.6567   28.5785   16.9089 C   0  0  0  0  0  0  0  0  0  0  0  0
   42.9349   28.2417   15.6759 P   0  0  0  0  0  0  0  0  0  0  0  0
   44.2832   28.8969   16.2651 O   0  0  0  0  0  0  0  0  0  0  0  0
   42.5309   29.1009   14.3740 O   0  0  0  0  0  0  0  0  0  0  0  0
   43.0817   26.7993   15.3799 O   0  0  0  0  0  0  0  0  0  0  0  0
   44.1345   29.8391   16.4415 H   0  0  0  0  0  0  0  0  0  0  0  0
   42.4467   30.0362   14.6172 H   0  0  0  0  0  0  0  0  0  0  0  0
  7  8  1  0  0  0
  8  9  1  0  0  0
  8 10  2  0  0  0
  8  6  1  0  0  0
  6  2  1  0  0  0
  2  3  2  0  0  0
  2  4  1  0  0  0
  4  1  1  0  0  0
  1 13  1  0  0  0
 13 14  1  0  0  0
 14 15  1  0  0  0
 15 16  2  0  0  0
 15 18  1  0  0  0
 18 19  1  0  0  0
 19 20  1  0  0  0
 19 21  1  0  0  0
 19 22  2  0  0  0
  7 11  1  0  0  0
  9 12  1  0  0  0
  4  5  1  0  0  0
 14 17  1  0  0  0
 20 23  1  0  0  0
 21 24  1  0  0  0
M  END
> <minimizedAffinity>
-7.20603

$$$$
2FZC_EOP_A_811


 24 23  0  0  0  0  0  0  0  0999 V2000
   40.4219   31.6006   21.7252 C   0  0  0  0  0  0  0  0  0  0  0  0
   40.7388   30.5210   19.5171 C   0  0  0  0  0  0  0  0  0  0  0  0
   40.0680   31.3401   18.9008 O   0  0  0  0  0  0  0  0  0  0  0  0
   40.9603   30.5621   20.8265 N   0  0  0  0  0  0  0  0  0  0  0  0
   41.5191   29.8546   21.2220 H   0  0  0  0  0  0  0  0  0  0  0  0
   41.3530   29.3118   18.7914 C   0  0  0  0  0  0  0  0  0  0  0  0
   42.4845   30.9672   16.9113 O   0  0  0  0  0  0  0  0  0  0  0  0
   41.7498   29.5399   17.0410 P   0  0  0  0  0  0  0  0  0  0  0  0
   40.3523   29.6698   16.2504 O   0  0  0  0  0  0  0  0  0  0  0  0
   42.5787   28.4331   16.5125 O   0  0  0  0  0  0  0  0  0  0  0  0
   42.7153   31.1289   15.9832 H   0  0  0  0  0  0  0  0  0  0  0  0
   40.5264   29.7938   15.3042 H   0  0  0  0  0  0  0  0  0  0  0  0
   39.0747   31.2189   22.3409 C   0  0  0  0  0  0  0  0  0  0  0  0
   38.0437   31.3786   21.3062 N   0  0  0  0  0  0  0  0  0  0  0  0
   37.0689   30.5058   21.0557 C   0  0  0  0  0  0  0  0  0  0  0  0
   36.1577   30.7336   20.2593 O   0  0  0  0  0  0  0  0  0  0  0  0
   38.0759   32.1939   20.7553 H   0  0  0  0  0  0  0  0  0  0  0  0
   37.0490   29.2371   21.9099 C   0  0  0  0  0  0  0  0  0  0  0  0
   38.0084   27.9501   21.0788 P   0  0  0  0  0  0  0  0  0  0  0  0
   37.9776   28.3337   19.5149 O   0  0  0  0  0  0  0  0  0  0  0  0
   37.1585   26.5907   21.2409 O   0  0  0  0  0  0  0  0  0  0  0  0
   39.3838   27.8253   21.6104 O   0  0  0  0  0  0  0  0  0  0  0  0
   37.0570   28.4030   19.2170 H   0  0  0  0  0  0  0  0  0  0  0  0
   36.2678   26.7213   20.8797 H   0  0  0  0  0  0  0  0  0  0  0  0
  7  8  1  0  0  0
  8  9  1  0  0  0
  8 10  2  0  0  0
  8  6  1  0  0  0
  6  2  1  0  0  0
  2  3  2  0  0  0
  2  4  1  0  0  0
  4  1  1  0  0  0
  1 13  1  0  0  0
 13 14  1  0  0  0
 14 15  1  0  0  0
 15 16  2  0  0  0
 15 18  1  0  0  0
 18 19  1  0  0  0
 19 20  1  0  0  0
 19 21  1  0  0  0
 19 22  2  0  0  0
  7 11  1  0  0  0
  9 12  1  0  0  0
  4  5  1  0  0  0
 14 17  1  0  0  0
 20 23  1  0  0  0
 21 24  1  0  0  0
M  END
> <minimizedAffinity>
-7.18338

$$$$
2FZC_EOP_A_811


 24 23  0  0  0  0  0  0  0  0999 V2000
   39.1192   27.6501   20.6969 C   0  0  0  0  0  0  0  0  0  0  0  0
   39.9385   28.9008   18.7204 C   0  0  0  0  0  0  0  0  0  0  0  0
   39.7795   30.0075   19.2213 O   0  0  0  0  0  0  0  0  0  0  0  0
   39.6630   27.7526   19.3295 N   0  0  0  0  0  0  0  0  0  0  0  0
   39.8324   26.9172   18.8370 H   0  0  0  0  0  0  0  0  0  0  0  0
   40.4418   28.7649   17.2734 C   0  0  0  0  0  0  0  0  0  0  0  0
   41.7499   31.1678   17.5382 O   0  0  0  0  0  0  0  0  0  0  0  0
   41.9116   29.7262   16.8387 P   0  0  0  0  0  0  0  0  0  0  0  0
   41.8602   29.9794   15.2487 O   0  0  0  0  0  0  0  0  0  0  0  0
   43.1602   29.0429   17.2457 O   0  0  0  0  0  0  0  0  0  0  0  0
   42.5215   31.7171   17.3289 H   0  0  0  0  0  0  0  0  0  0  0  0
   42.6364   30.4944   14.9780 H   0  0  0  0  0  0  0  0  0  0  0  0
   37.5957   27.5170   20.7263 C   0  0  0  0  0  0  0  0  0  0  0  0
   37.0250   28.7221   20.1091 N   0  0  0  0  0  0  0  0  0  0  0  0
   36.6280   29.8071   20.7723 C   0  0  0  0  0  0  0  0  0  0  0  0
   36.2647   30.8391   20.2070 O   0  0  0  0  0  0  0  0  0  0  0  0
   36.9285   28.7282   19.1293 H   0  0  0  0  0  0  0  0  0  0  0  0
   36.7684   29.7691   22.2949 C   0  0  0  0  0  0  0  0  0  0  0  0
   37.6856   31.2281   22.8405 P   0  0  0  0  0  0  0  0  0  0  0  0
   37.9876   30.9858   24.4039 O   0  0  0  0  0  0  0  0  0  0  0  0
   36.6504   32.4597   22.7523 O   0  0  0  0  0  0  0  0  0  0  0  0
   38.9144   31.4629   22.0500 O   0  0  0  0  0  0  0  0  0  0  0  0
   37.1528   30.8375   24.8752 H   0  0  0  0  0  0  0  0  0  0  0  0
   35.8642   32.2600   23.2841 H   0  0  0  0  0  0  0  0  0  0  0  0
  7  8  1  0  0  0
  8  9  1  0  0  0
  8 10  2  0  0  0
  8  6  1  0  0  0
  6  2  1  0  0  0
  2  3  2  0  0  0
  2  4  1  0  0  0
  4  1  1  0  0  0
  1 13  1  0  0  0
 13 14  1  0  0  0
 14 15  1  0  0  0
 15 16  2  0  0  0
 15 18  1  0  0  0
 18 19  1  0  0  0
 19 20  1  0  0  0
 19 21  1  0  0  0
 19 22  2  0  0  0
  7 11  1  0  0  0
  9 12  1  0  0  0
  4  5  1  0  0  0
 14 17  1  0  0  0
 20 23  1  0  0  0
 21 24  1  0  0  0
M  END
> <minimizedAffinity>
-7.17402

$$$$
2FZC_EOP_A_811


 24 23  0  0  0  0  0  0  0  0999 V2000
   37.7412   28.4301   20.4248 C   0  0  0  0  0  0  0  0  0  0  0  0
   37.0769   30.7173   21.1099 C   0  0  0  0  0  0  0  0  0  0  0  0
   36.2857   30.8788   20.1886 O   0  0  0  0  0  0  0  0  0  0  0  0
   37.7937   29.6152   21.3017 N   0  0  0  0  0  0  0  0  0  0  0  0
   38.3983   29.5877   22.0782 H   0  0  0  0  0  0  0  0  0  0  0  0
   37.3400   31.8479   22.1191 C   0  0  0  0  0  0  0  0  0  0  0  0
   36.4162   30.1462   24.0700 O   0  0  0  0  0  0  0  0  0  0  0  0
   37.4480   31.3647   23.8592 P   0  0  0  0  0  0  0  0  0  0  0  0
   36.8859   32.5977   24.7302 O   0  0  0  0  0  0  0  0  0  0  0  0
   38.8296   31.0025   24.2484 O   0  0  0  0  0  0  0  0  0  0  0  0
   36.4434   29.8558   24.9951 H   0  0  0  0  0  0  0  0  0  0  0  0
   36.9286   32.3737   25.6730 H   0  0  0  0  0  0  0  0  0  0  0  0
   38.7553   28.4870   19.2812 C   0  0  0  0  0  0  0  0  0  0  0  0
   40.0513   28.0330   19.8037 N   0  0  0  0  0  0  0  0  0  0  0  0
   41.1965   28.7056   19.7003 C   0  0  0  0  0  0  0  0  0  0  0  0
   42.2353   28.3440   20.2541 O   0  0  0  0  0  0  0  0  0  0  0  0
   40.0752   27.1642   20.2661 H   0  0  0  0  0  0  0  0  0  0  0  0
   41.1409   30.0436   18.9611 C   0  0  0  0  0  0  0  0  0  0  0  0
   41.6580   29.7939   17.2471 P   0  0  0  0  0  0  0  0  0  0  0  0
   40.3060   29.8705   16.3751 O   0  0  0  0  0  0  0  0  0  0  0  0
   42.1816   28.2725   17.1604 O   0  0  0  0  0  0  0  0  0  0  0  0
   42.6789   30.7706   16.8070 O   0  0  0  0  0  0  0  0  0  0  0  0
   39.6723   29.2131   16.7027 H   0  0  0  0  0  0  0  0  0  0  0  0
   41.4805   27.6718   17.4578 H   0  0  0  0  0  0  0  0  0  0  0  0
  7  8  1  0  0  0
  8  9  1  0  0  0
  8 10  2  0  0  0
  8  6  1  0  0  0
  6  2  1  0  0  0
  2  3  2  0  0  0
  2  4  1  0  0  0
  4  1  1  0  0  0
  1 13  1  0  0  0
 13 14  1  0  0  0
 14 15  1  0  0  0
 15 16  2  0  0  0
 15 18  1  0  0  0
 18 19  1  0  0  0
 19 20  1  0  0  0
 19 21  1  0  0  0
 19 22  2  0  0  0
  7 11  1  0  0  0
  9 12  1  0  0  0
  4  5  1  0  0  0
 14 17  1  0  0  0
 20 23  1  0  0  0
 21 24  1  0  0  0
M  END
> <minimizedAffinity>
-7.17103

$$$$
2FZC_EOP_A_811


 24 23  0  0  0  0  0  0  0  0999 V2000
   38.7343   27.2002   20.4671 C   0  0  0  0  0  0  0  0  0  0  0  0
   40.1928   28.5758   19.0103 C   0  0  0  0  0  0  0  0  0  0  0  0
   39.2802   28.9871   18.3040 O   0  0  0  0  0  0  0  0  0  0  0  0
   40.0349   27.7473   20.0369 N   0  0  0  0  0  0  0  0  0  0  0  0
   40.8368   27.4817   20.5425 H   0  0  0  0  0  0  0  0  0  0  0  0
   41.6492   28.9694   18.7103 C   0  0  0  0  0  0  0  0  0  0  0  0
   41.2554   29.6905   16.0873 O   0  0  0  0  0  0  0  0  0  0  0  0
   41.8950   30.2494   17.4556 P   0  0  0  0  0  0  0  0  0  0  0  0
   43.4816   30.3699   17.2047 O   0  0  0  0  0  0  0  0  0  0  0  0
   41.3037   31.5441   17.8624 O   0  0  0  0  0  0  0  0  0  0  0  0
   41.3667   30.3503   15.3851 H   0  0  0  0  0  0  0  0  0  0  0  0
   43.6523   31.0501   16.5345 H   0  0  0  0  0  0  0  0  0  0  0  0
   37.9756   28.1340   21.4115 C   0  0  0  0  0  0  0  0  0  0  0  0
   37.1294   29.0136   20.5935 N   0  0  0  0  0  0  0  0  0  0  0  0
   36.9085   30.3049   20.8354 C   0  0  0  0  0  0  0  0  0  0  0  0
   36.2878   31.0326   20.0598 O   0  0  0  0  0  0  0  0  0  0  0  0
   36.6916   28.6180   19.8054 H   0  0  0  0  0  0  0  0  0  0  0  0
   37.5824   30.8946   22.0755 C   0  0  0  0  0  0  0  0  0  0  0  0
   39.1308   31.6884   21.5856 P   0  0  0  0  0  0  0  0  0  0  0  0
   39.2048   31.5336   19.9842 O   0  0  0  0  0  0  0  0  0  0  0  0
   40.3089   30.7741   22.1961 O   0  0  0  0  0  0  0  0  0  0  0  0
   39.2194   33.0974   22.0291 O   0  0  0  0  0  0  0  0  0  0  0  0
   39.1427   30.5952   19.7468 H   0  0  0  0  0  0  0  0  0  0  0  0
   40.2088   29.8631   21.8782 H   0  0  0  0  0  0  0  0  0  0  0  0
  7  8  1  0  0  0
  8  9  1  0  0  0
  8 10  2  0  0  0
  8  6  1  0  0  0
  6  2  1  0  0  0
  2  3  2  0  0  0
  2  4  1  0  0  0
  4  1  1  0  0  0
  1 13  1  0  0  0
 13 14  1  0  0  0
 14 15  1  0  0  0
 15 16  2  0  0  0
 15 18  1  0  0  0
 18 19  1  0  0  0
 19 20  1  0  0  0
 19 21  1  0  0  0
 19 22  2  0  0  0
  7 11  1  0  0  0
  9 12  1  0  0  0
  4  5  1  0  0  0
 14 17  1  0  0  0
 20 23  1  0  0  0
 21 24  1  0  0  0
M  END
> <minimizedAffinity>
-7.15155

$$$$
