2I80_G1L_A_400


 19 19  0  0  0  0  0  0  0  0999 V2000
   16.1157   -0.1977   -0.2238 C   0  0  0  0  0  0  0  0  0  0  0  0
   17.0945   -0.9891    0.3358 C   0  0  0  0  0  0  0  0  0  0  0  0
   17.0295   -2.3502    0.2269 C   0  0  0  0  0  0  0  0  0  0  0  0
   15.0530   -0.7938   -0.9035 C   0  0  0  0  0  0  0  0  0  0  0  0
   15.0009   -2.1892   -1.0249 C   0  0  0  0  0  0  0  0  0  0  0  0
   15.9972   -2.9859   -0.4501 C   0  0  0  0  0  0  0  0  0  0  0  0
   15.2872    1.9741   -0.4388 F   0  0  0  0  0  0  0  0  0  0  0  0
   16.3160    1.2652   -0.0089 C   0  0  0  0  0  0  0  0  0  0  0  0
   17.3715    1.6458   -0.7186 F   0  0  0  0  0  0  0  0  0  0  0  0
   16.5414    1.3862    1.3042 F   0  0  0  0  0  0  0  0  0  0  0  0
   15.9951   -4.3467   -0.5777 N   0  0  0  0  0  0  0  0  0  0  0  0
   16.6926   -5.0464   -1.4999 C   0  0  0  0  0  0  0  0  0  0  0  0
   17.4083   -4.5495   -2.3637 O   0  0  0  0  0  0  0  0  0  0  0  0
   15.4401   -4.8591    0.0537 H   0  0  0  0  0  0  0  0  0  0  0  0
   16.5986   -6.5549   -1.4422 C   0  0  0  0  0  0  0  0  0  0  0  0
   15.2822   -7.0612   -2.0041 C   0  0  0  0  0  0  0  0  0  0  0  0
   17.7325   -7.2427   -2.1975 C   0  0  0  0  0  0  0  0  0  0  0  0
   16.7538   -6.9269    0.0165 C   0  0  0  0  0  0  0  0  0  0  0  0
   18.2634   -6.5136    0.8365 Cl  0  0  0  0  0  0  0  0  0  0  0  0
  7  8  1  0  0  0
  8  9  1  0  0  0
  8  1  1  0  0  0
  8 10  1  0  0  0
  1  4  2  0  0  0
  1  2  1  0  0  0
  2  3  2  0  0  0
  3  6  1  0  0  0
  4  5  1  0  0  0
  5  6  2  0  0  0
  6 11  1  0  0  0
 11 12  1  0  0  0
 12 15  1  0  0  0
 12 13  2  0  0  0
 15 17  1  0  0  0
 15 16  1  0  0  0
 15 18  1  0  0  0
 18 19  1  0  0  0
 11 14  1  0  0  0
M  END
> <minimizedAffinity>
-8.51669

$$$$
2I80_G1L_A_400


 19 19  0  0  0  0  0  0  0  0999 V2000
   16.2499   -0.2635   -0.3260 C   0  0  0  0  0  0  0  0  0  0  0  0
   15.3282   -0.8366   -1.1743 C   0  0  0  0  0  0  0  0  0  0  0  0
   15.2757   -2.1945   -1.3229 C   0  0  0  0  0  0  0  0  0  0  0  0
   17.1338   -1.0781    0.3823 C   0  0  0  0  0  0  0  0  0  0  0  0
   17.0640   -2.4704    0.2373 C   0  0  0  0  0  0  0  0  0  0  0  0
   16.1273   -3.0442   -0.6296 C   0  0  0  0  0  0  0  0  0  0  0  0
   16.3940    1.6933    0.9386 F   0  0  0  0  0  0  0  0  0  0  0  0
   16.1951    1.2269   -0.2815 C   0  0  0  0  0  0  0  0  0  0  0  0
   14.9762    1.6061   -0.6465 F   0  0  0  0  0  0  0  0  0  0  0  0
   17.1157    1.6256   -1.1664 F   0  0  0  0  0  0  0  0  0  0  0  0
   16.0099   -4.3987   -0.7698 N   0  0  0  0  0  0  0  0  0  0  0  0
   16.7137   -5.1585   -1.6382 C   0  0  0  0  0  0  0  0  0  0  0  0
   17.5411   -4.7287   -2.4355 O   0  0  0  0  0  0  0  0  0  0  0  0
   15.3596   -4.8584   -0.1910 H   0  0  0  0  0  0  0  0  0  0  0  0
   16.4761   -6.6519   -1.6026 C   0  0  0  0  0  0  0  0  0  0  0  0
   16.3079   -7.1638   -0.1832 C   0  0  0  0  0  0  0  0  0  0  0  0
   15.2479   -7.0698   -2.4063 C   0  0  0  0  0  0  0  0  0  0  0  0
   17.6764   -7.2812   -2.2761 C   0  0  0  0  0  0  0  0  0  0  0  0
   18.6062   -8.4906   -1.3844 Cl  0  0  0  0  0  0  0  0  0  0  0  0
  7  8  1  0  0  0
  8  9  1  0  0  0
  8  1  1  0  0  0
  8 10  1  0  0  0
  1  4  2  0  0  0
  1  2  1  0  0  0
  2  3  2  0  0  0
  3  6  1  0  0  0
  4  5  1  0  0  0
  5  6  2  0  0  0
  6 11  1  0  0  0
 11 12  1  0  0  0
 12 15  1  0  0  0
 12 13  2  0  0  0
 15 17  1  0  0  0
 15 16  1  0  0  0
 15 18  1  0  0  0
 18 19  1  0  0  0
 11 14  1  0  0  0
M  END
> <minimizedAffinity>
-8.50616

$$$$
2I80_G1L_A_400


 19 19  0  0  0  0  0  0  0  0999 V2000
   17.9172   -6.7721   -0.7143 C   0  0  0  0  0  0  0  0  0  0  0  0
   18.0745   -6.1257    0.4918 C   0  0  0  0  0  0  0  0  0  0  0  0
   17.8937   -4.7736    0.5806 C   0  0  0  0  0  0  0  0  0  0  0  0
   17.5727   -6.0377   -1.8496 C   0  0  0  0  0  0  0  0  0  0  0  0
   17.3735   -4.6541   -1.7482 C   0  0  0  0  0  0  0  0  0  0  0  0
   17.5392   -4.0047   -0.5199 C   0  0  0  0  0  0  0  0  0  0  0  0
   18.4454   -8.7452   -1.8445 F   0  0  0  0  0  0  0  0  0  0  0  0
   18.1621   -8.2428   -0.6558 C   0  0  0  0  0  0  0  0  0  0  0  0
   17.0455   -8.8309   -0.2435 F   0  0  0  0  0  0  0  0  0  0  0  0
   19.1475   -8.3860    0.2375 F   0  0  0  0  0  0  0  0  0  0  0  0
   17.3207   -2.6629   -0.3786 N   0  0  0  0  0  0  0  0  0  0  0  0
   16.1104   -2.0617   -0.3991 C   0  0  0  0  0  0  0  0  0  0  0  0
   15.0423   -2.6406   -0.5694 O   0  0  0  0  0  0  0  0  0  0  0  0
   18.1092   -2.0874   -0.2514 H   0  0  0  0  0  0  0  0  0  0  0  0
   16.0751   -0.5669   -0.1706 C   0  0  0  0  0  0  0  0  0  0  0  0
   15.5966   -0.2199    1.2279 C   0  0  0  0  0  0  0  0  0  0  0  0
   17.4355    0.0913   -0.3834 C   0  0  0  0  0  0  0  0  0  0  0  0
   15.1462   -0.0056   -1.2252 C   0  0  0  0  0  0  0  0  0  0  0  0
   15.4954    1.5928   -1.8927 Cl  0  0  0  0  0  0  0  0  0  0  0  0
  7  8  1  0  0  0
  8  9  1  0  0  0
  8  1  1  0  0  0
  8 10  1  0  0  0
  1  4  2  0  0  0
  1  2  1  0  0  0
  2  3  2  0  0  0
  3  6  1  0  0  0
  4  5  1  0  0  0
  5  6  2  0  0  0
  6 11  1  0  0  0
 11 12  1  0  0  0
 12 15  1  0  0  0
 12 13  2  0  0  0
 15 17  1  0  0  0
 15 16  1  0  0  0
 15 18  1  0  0  0
 18 19  1  0  0  0
 11 14  1  0  0  0
M  END
> <minimizedAffinity>
-7.87861

$$$$
2I80_G1L_A_400


 19 19  0  0  0  0  0  0  0  0999 V2000
   17.9860   -6.7559   -0.7220 C   0  0  0  0  0  0  0  0  0  0  0  0
   18.1036   -6.1202    0.4943 C   0  0  0  0  0  0  0  0  0  0  0  0
   17.8897   -4.7738    0.5945 C   0  0  0  0  0  0  0  0  0  0  0  0
   17.6478   -6.0165   -1.8558 C   0  0  0  0  0  0  0  0  0  0  0  0
   17.4144   -4.6390   -1.7430 C   0  0  0  0  0  0  0  0  0  0  0  0
   17.5399   -4.0004   -0.5044 C   0  0  0  0  0  0  0  0  0  0  0  0
   19.4493   -8.4837   -0.1539 F   0  0  0  0  0  0  0  0  0  0  0  0
   18.2638   -8.2211   -0.6748 C   0  0  0  0  0  0  0  0  0  0  0  0
   18.2791   -8.6785   -1.9211 F   0  0  0  0  0  0  0  0  0  0  0  0
   17.2443   -8.7363    0.0215 F   0  0  0  0  0  0  0  0  0  0  0  0
   17.2874   -2.6657   -0.3526 N   0  0  0  0  0  0  0  0  0  0  0  0
   16.0662   -2.0897   -0.4115 C   0  0  0  0  0  0  0  0  0  0  0  0
   15.0180   -2.6882   -0.6312 O   0  0  0  0  0  0  0  0  0  0  0  0
   18.0579   -2.0759   -0.1868 H   0  0  0  0  0  0  0  0  0  0  0  0
   15.9901   -0.5995   -0.1633 C   0  0  0  0  0  0  0  0  0  0  0  0
   15.2340    0.1194   -1.2663 C   0  0  0  0  0  0  0  0  0  0  0  0
   15.3246   -0.2596    1.1673 C   0  0  0  0  0  0  0  0  0  0  0  0
   17.4220   -0.1181   -0.0736 C   0  0  0  0  0  0  0  0  0  0  0  0
   17.8827    1.3312   -0.9734 Cl  0  0  0  0  0  0  0  0  0  0  0  0
  7  8  1  0  0  0
  8  9  1  0  0  0
  8  1  1  0  0  0
  8 10  1  0  0  0
  1  4  2  0  0  0
  1  2  1  0  0  0
  2  3  2  0  0  0
  3  6  1  0  0  0
  4  5  1  0  0  0
  5  6  2  0  0  0
  6 11  1  0  0  0
 11 12  1  0  0  0
 12 15  1  0  0  0
 12 13  2  0  0  0
 15 17  1  0  0  0
 15 16  1  0  0  0
 15 18  1  0  0  0
 18 19  1  0  0  0
 11 14  1  0  0  0
M  END
> <minimizedAffinity>
-7.80358

$$$$
2I80_G1L_A_400


 19 19  0  0  0  0  0  0  0  0999 V2000
   16.2210   -0.2759    0.0150 C   0  0  0  0  0  0  0  0  0  0  0  0
   17.2333   -1.1091    0.4375 C   0  0  0  0  0  0  0  0  0  0  0  0
   17.1924   -2.4458    0.1543 C   0  0  0  0  0  0  0  0  0  0  0  0
   15.1489   -0.8047   -0.7045 C   0  0  0  0  0  0  0  0  0  0  0  0
   15.1212   -2.1735   -1.0049 C   0  0  0  0  0  0  0  0  0  0  0  0
   16.1517   -3.0134   -0.5686 C   0  0  0  0  0  0  0  0  0  0  0  0
   17.5582    1.6375    0.0069 F   0  0  0  0  0  0  0  0  0  0  0  0
   16.3985    1.1512    0.4124 C   0  0  0  0  0  0  0  0  0  0  0  0
   16.3955    1.2137    1.7386 F   0  0  0  0  0  0  0  0  0  0  0  0
   15.3395    1.7813   -0.1081 F   0  0  0  0  0  0  0  0  0  0  0  0
   16.1729   -4.3460   -0.8721 N   0  0  0  0  0  0  0  0  0  0  0  0
   17.1362   -5.2173   -0.4988 C   0  0  0  0  0  0  0  0  0  0  0  0
   18.1363   -4.9228    0.1477 O   0  0  0  0  0  0  0  0  0  0  0  0
   15.4254   -4.6999   -1.4061 H   0  0  0  0  0  0  0  0  0  0  0  0
   16.9493   -6.6665   -0.8900 C   0  0  0  0  0  0  0  0  0  0  0  0
   17.7366   -7.0210   -2.1388 C   0  0  0  0  0  0  0  0  0  0  0  0
   17.3596   -7.6311    0.2191 C   0  0  0  0  0  0  0  0  0  0  0  0
   15.4629   -6.8519   -1.1054 C   0  0  0  0  0  0  0  0  0  0  0  0
   14.6768   -8.2644   -0.3920 Cl  0  0  0  0  0  0  0  0  0  0  0  0
  7  8  1  0  0  0
  8  9  1  0  0  0
  8  1  1  0  0  0
  8 10  1  0  0  0
  1  4  2  0  0  0
  1  2  1  0  0  0
  2  3  2  0  0  0
  3  6  1  0  0  0
  4  5  1  0  0  0
  5  6  2  0  0  0
  6 11  1  0  0  0
 11 12  1  0  0  0
 12 15  1  0  0  0
 12 13  2  0  0  0
 15 17  1  0  0  0
 15 16  1  0  0  0
 15 18  1  0  0  0
 18 19  1  0  0  0
 11 14  1  0  0  0
M  END
> <minimizedAffinity>
-7.66303

$$$$
2I80_G1L_A_400


 19 19  0  0  0  0  0  0  0  0999 V2000
   16.0978   -0.4879   -0.5555 C   0  0  0  0  0  0  0  0  0  0  0  0
   15.2826   -1.3717   -1.2276 C   0  0  0  0  0  0  0  0  0  0  0  0
   15.5173   -2.7168   -1.1608 C   0  0  0  0  0  0  0  0  0  0  0  0
   17.1691   -0.9733    0.1952 C   0  0  0  0  0  0  0  0  0  0  0  0
   17.3945   -2.3545    0.2720 C   0  0  0  0  0  0  0  0  0  0  0  0
   16.5639   -3.2452   -0.4170 C   0  0  0  0  0  0  0  0  0  0  0  0
   16.6095    1.5985   -1.4690 F   0  0  0  0  0  0  0  0  0  0  0  0
   15.7250    0.9455   -0.7363 C   0  0  0  0  0  0  0  0  0  0  0  0
   15.7120    1.5224    0.4595 F   0  0  0  0  0  0  0  0  0  0  0  0
   14.5009    0.9111   -1.2747 F   0  0  0  0  0  0  0  0  0  0  0  0
   16.7350   -4.5989   -0.3373 N   0  0  0  0  0  0  0  0  0  0  0  0
   17.2603   -5.3788   -1.3081 C   0  0  0  0  0  0  0  0  0  0  0  0
   17.6363   -4.9767   -2.4044 O   0  0  0  0  0  0  0  0  0  0  0  0
   16.4526   -5.0420    0.4953 H   0  0  0  0  0  0  0  0  0  0  0  0
   17.4158   -6.8525   -1.0048 C   0  0  0  0  0  0  0  0  0  0  0  0
   16.5612   -7.7112   -1.9200 C   0  0  0  0  0  0  0  0  0  0  0  0
   18.8616   -7.3265   -1.1234 C   0  0  0  0  0  0  0  0  0  0  0  0
   17.0148   -7.0247    0.4442 C   0  0  0  0  0  0  0  0  0  0  0  0
   15.8474   -8.2868    0.8521 Cl  0  0  0  0  0  0  0  0  0  0  0  0
  7  8  1  0  0  0
  8  9  1  0  0  0
  8  1  1  0  0  0
  8 10  1  0  0  0
  1  4  2  0  0  0
  1  2  1  0  0  0
  2  3  2  0  0  0
  3  6  1  0  0  0
  4  5  1  0  0  0
  5  6  2  0  0  0
  6 11  1  0  0  0
 11 12  1  0  0  0
 12 15  1  0  0  0
 12 13  2  0  0  0
 15 17  1  0  0  0
 15 16  1  0  0  0
 15 18  1  0  0  0
 18 19  1  0  0  0
 11 14  1  0  0  0
M  END
> <minimizedAffinity>
-7.66125

$$$$
2I80_G1L_A_400


 19 19  0  0  0  0  0  0  0  0999 V2000
   16.1041   -0.4204   -0.8045 C   0  0  0  0  0  0  0  0  0  0  0  0
   17.1710   -0.9228   -0.0926 C   0  0  0  0  0  0  0  0  0  0  0  0
   17.3046   -2.2703    0.0943 C   0  0  0  0  0  0  0  0  0  0  0  0
   15.1561   -1.2962   -1.3345 C   0  0  0  0  0  0  0  0  0  0  0  0
   15.3077   -2.6776   -1.1526 C   0  0  0  0  0  0  0  0  0  0  0  0
   16.3923   -3.1794   -0.4248 C   0  0  0  0  0  0  0  0  0  0  0  0
   17.3061    1.5764   -0.9368 F   0  0  0  0  0  0  0  0  0  0  0  0
   16.0869    1.0678   -0.9105 C   0  0  0  0  0  0  0  0  0  0  0  0
   15.4894    1.5517    0.1719 F   0  0  0  0  0  0  0  0  0  0  0  0
   15.3750    1.3199   -2.0147 F   0  0  0  0  0  0  0  0  0  0  0  0
   16.5885   -4.5215   -0.2564 N   0  0  0  0  0  0  0  0  0  0  0  0
   17.1909   -5.3410   -1.1465 C   0  0  0  0  0  0  0  0  0  0  0  0
   17.6255   -4.9917   -2.2393 O   0  0  0  0  0  0  0  0  0  0  0  0
   16.2646   -4.9241    0.5815 H   0  0  0  0  0  0  0  0  0  0  0  0
   17.3602   -6.7907   -0.7495 C   0  0  0  0  0  0  0  0  0  0  0  0
   18.8121   -7.2295   -0.8172 C   0  0  0  0  0  0  0  0  0  0  0  0
   16.8431   -7.0779    0.6574 C   0  0  0  0  0  0  0  0  0  0  0  0
   16.4991   -7.5880   -1.7049 C   0  0  0  0  0  0  0  0  0  0  0  0
   14.9076   -6.9533   -2.1365 Cl  0  0  0  0  0  0  0  0  0  0  0  0
  7  8  1  0  0  0
  8  9  1  0  0  0
  8  1  1  0  0  0
  8 10  1  0  0  0
  1  4  2  0  0  0
  1  2  1  0  0  0
  2  3  2  0  0  0
  3  6  1  0  0  0
  4  5  1  0  0  0
  5  6  2  0  0  0
  6 11  1  0  0  0
 11 12  1  0  0  0
 12 15  1  0  0  0
 12 13  2  0  0  0
 15 17  1  0  0  0
 15 16  1  0  0  0
 15 18  1  0  0  0
 18 19  1  0  0  0
 11 14  1  0  0  0
M  END
> <minimizedAffinity>
-7.53626

$$$$
2I80_G1L_A_400


 19 19  0  0  0  0  0  0  0  0999 V2000
   16.0058   -0.2788   -0.6096 C   0  0  0  0  0  0  0  0  0  0  0  0
   14.9514   -1.0933   -0.9593 C   0  0  0  0  0  0  0  0  0  0  0  0
   15.0566   -2.4508   -0.8388 C   0  0  0  0  0  0  0  0  0  0  0  0
   17.1866   -0.8479   -0.1316 C   0  0  0  0  0  0  0  0  0  0  0  0
   17.2820   -2.2397    0.0043 C   0  0  0  0  0  0  0  0  0  0  0  0
   16.2076   -3.0600   -0.3570 C   0  0  0  0  0  0  0  0  0  0  0  0
   14.4940    1.4127   -1.1596 F   0  0  0  0  0  0  0  0  0  0  0  0
   15.7463    1.1767   -0.8105 C   0  0  0  0  0  0  0  0  0  0  0  0
   16.5123    1.5984   -1.8096 F   0  0  0  0  0  0  0  0  0  0  0  0
   16.0980    1.7459    0.3479 F   0  0  0  0  0  0  0  0  0  0  0  0
   16.2547   -4.4176   -0.2064 N   0  0  0  0  0  0  0  0  0  0  0  0
   16.1923   -5.3182   -1.2122 C   0  0  0  0  0  0  0  0  0  0  0  0
   16.0633   -5.0364   -2.3992 O   0  0  0  0  0  0  0  0  0  0  0  0
   16.3410   -4.7681    0.7096 H   0  0  0  0  0  0  0  0  0  0  0  0
   16.3156   -6.7797   -0.8424 C   0  0  0  0  0  0  0  0  0  0  0  0
   15.8745   -7.0404    0.5867 C   0  0  0  0  0  0  0  0  0  0  0  0
   15.5044   -7.6880   -1.7623 C   0  0  0  0  0  0  0  0  0  0  0  0
   17.7718   -7.1393   -1.0432 C   0  0  0  0  0  0  0  0  0  0  0  0
   18.4651   -6.9792   -2.6605 Cl  0  0  0  0  0  0  0  0  0  0  0  0
  7  8  1  0  0  0
  8  9  1  0  0  0
  8  1  1  0  0  0
  8 10  1  0  0  0
  1  4  2  0  0  0
  1  2  1  0  0  0
  2  3  2  0  0  0
  3  6  1  0  0  0
  4  5  1  0  0  0
  5  6  2  0  0  0
  6 11  1  0  0  0
 11 12  1  0  0  0
 12 15  1  0  0  0
 12 13  2  0  0  0
 15 17  1  0  0  0
 15 16  1  0  0  0
 15 18  1  0  0  0
 18 19  1  0  0  0
 11 14  1  0  0  0
M  END
> <minimizedAffinity>
-6.63375

$$$$
2I80_G1L_A_400


 19 19  0  0  0  0  0  0  0  0999 V2000
   16.7866   -5.4345   -0.4395 C   0  0  0  0  0  0  0  0  0  0  0  0
   17.6430   -4.7617    0.4038 C   0  0  0  0  0  0  0  0  0  0  0  0
   17.7324   -3.3985    0.3550 C   0  0  0  0  0  0  0  0  0  0  0  0
   16.0090   -4.7159   -1.3482 C   0  0  0  0  0  0  0  0  0  0  0  0
   16.0941   -3.3173   -1.3820 C   0  0  0  0  0  0  0  0  0  0  0  0
   16.9696   -2.6419   -0.5245 C   0  0  0  0  0  0  0  0  0  0  0  0
   17.6607   -7.4919   -1.1119 F   0  0  0  0  0  0  0  0  0  0  0  0
   16.8110   -6.9177   -0.2788 C   0  0  0  0  0  0  0  0  0  0  0  0
   15.6040   -7.3847   -0.5747 F   0  0  0  0  0  0  0  0  0  0  0  0
   17.1073   -7.1131    1.0110 F   0  0  0  0  0  0  0  0  0  0  0  0
   17.0533   -1.2778   -0.5081 N   0  0  0  0  0  0  0  0  0  0  0  0
   16.0807   -0.4301   -0.9109 C   0  0  0  0  0  0  0  0  0  0  0  0
   14.9951   -0.7740   -1.3673 O   0  0  0  0  0  0  0  0  0  0  0  0
   17.8904   -0.8802   -0.1757 H   0  0  0  0  0  0  0  0  0  0  0  0
   16.3476    1.0514   -0.7630 C   0  0  0  0  0  0  0  0  0  0  0  0
   17.8014    1.3938   -1.0356 C   0  0  0  0  0  0  0  0  0  0  0  0
   15.4791    1.8992   -1.6883 C   0  0  0  0  0  0  0  0  0  0  0  0
   15.9551    1.4063    0.6548 C   0  0  0  0  0  0  0  0  0  0  0  0
   16.3918    0.2924    1.9550 Cl  0  0  0  0  0  0  0  0  0  0  0  0
  7  8  1  0  0  0
  8  9  1  0  0  0
  8  1  1  0  0  0
  8 10  1  0  0  0
  1  4  2  0  0  0
  1  2  1  0  0  0
  2  3  2  0  0  0
  3  6  1  0  0  0
  4  5  1  0  0  0
  5  6  2  0  0  0
  6 11  1  0  0  0
 11 12  1  0  0  0
 12 15  1  0  0  0
 12 13  2  0  0  0
 15 17  1  0  0  0
 15 16  1  0  0  0
 15 18  1  0  0  0
 18 19  1  0  0  0
 11 14  1  0  0  0
M  END
> <minimizedAffinity>
-5.89964

$$$$
