5V7A_8Y7_A_301


 21 22  0  0  0  0  0  0  0  0999 V2000
  -17.5566    8.6657  103.5235 C   0  0  0  0  0  0  0  0  0  0  0  0
  -17.2476    8.4446  104.8359 C   0  0  0  0  0  0  0  0  0  0  0  0
  -19.0497    7.3283  104.2212 C   0  0  0  0  0  0  0  0  0  0  0  0
  -16.7147    9.5338  102.7643 C   0  0  0  0  0  0  0  0  0  0  0  0
  -15.4648    9.7518  104.8767 C   0  0  0  0  0  0  0  0  0  0  0  0
  -18.3075    7.0795  106.6299 C   0  0  0  0  0  0  0  0  0  0  0  0
  -18.6718    7.9733  103.1327 N   0  0  0  0  0  0  0  0  0  0  0  0
  -16.2228    8.9527  105.5704 N   0  0  0  0  0  0  0  0  0  0  0  0
  -18.2197    7.5928  105.2732 N   0  0  0  0  0  0  0  0  0  0  0  0
  -15.6899   10.0196  103.5350 N   0  0  0  0  0  0  0  0  0  0  0  0
  -14.3685   10.3928  105.3995 N   0  0  0  0  0  0  0  0  0  0  0  0
  -16.8488    9.8463  101.5952 O   0  0  0  0  0  0  0  0  0  0  0  0
  -15.0485   10.6198  103.0903 H   0  0  0  0  0  0  0  0  0  0  0  0
  -14.1279   10.2645  106.3455 H   0  0  0  0  0  0  0  0  0  0  0  0
  -13.8232   10.9807  104.8282 H   0  0  0  0  0  0  0  0  0  0  0  0
  -20.4114    6.2524  104.4241 S   0  0  0  0  0  0  0  0  0  0  0  0
  -21.0605    5.9914  102.7478 C   0  0  0  0  0  0  0  0  0  0  0  0
  -22.1133    7.0458  102.4217 C   0  0  0  0  0  0  0  0  0  0  0  0
  -21.7745    8.1098  101.8326 O   0  0  0  0  0  0  0  0  0  0  0  0
  -23.2552    6.6953  102.8171 O   0  0  0  0  0  0  0  0  0  0  0  0
  -20.8797    8.2467  101.5905 H   0  0  0  0  0  0  0  0  0  0  0  0
  6  9  1  0  0  0
  8  5  2  0  0  0
  8  2  1  0  0  0
 11  5  1  0  0  0
  9  2  1  0  0  0
  9  3  1  0  0  0
  5 10  1  0  0  0
  2  1  2  0  0  0
 16  3  1  0  0  0
 16 17  1  0  0  0
  3  7  2  0  0  0
 10  4  1  0  0  0
  1  7  1  0  0  0
  1  4  1  0  0  0
  4 12  2  0  0  0
 17 18  1  0  0  0
 20 18  2  0  0  0
 18 19  1  0  0  0
 10 13  1  0  0  0
 11 14  1  0  0  0
 11 15  1  0  0  0
 19 21  1  0  0  0
M  END
> <minimizedAffinity>
-6.77365

$$$$
5V7A_8Y7_A_301


 21 22  0  0  0  0  0  0  0  0999 V2000
  -20.3908    2.5158  105.6791 C   0  0  0  0  0  0  0  0  0  0  0  0
  -21.7362    2.6403  105.8820 C   0  0  0  0  0  0  0  0  0  0  0  0
  -21.1265    3.4523  103.9223 C   0  0  0  0  0  0  0  0  0  0  0  0
  -19.6035    1.9031  106.7007 C   0  0  0  0  0  0  0  0  0  0  0  0
  -21.7531    1.7167  107.8909 C   0  0  0  0  0  0  0  0  0  0  0  0
  -23.5843    3.6006  104.5154 C   0  0  0  0  0  0  0  0  0  0  0  0
  -20.0045    3.0138  104.4632 N   0  0  0  0  0  0  0  0  0  0  0  0
  -22.4770    2.2647  106.9581 N   0  0  0  0  0  0  0  0  0  0  0  0
  -22.1933    3.2518  104.7512 N   0  0  0  0  0  0  0  0  0  0  0  0
  -20.3848    1.5313  107.7645 N   0  0  0  0  0  0  0  0  0  0  0  0
  -22.2728    1.2606  109.0775 N   0  0  0  0  0  0  0  0  0  0  0  0
  -18.3994    1.7231  106.6887 O   0  0  0  0  0  0  0  0  0  0  0  0
  -19.9276    1.0874  108.5149 H   0  0  0  0  0  0  0  0  0  0  0  0
  -23.2364    1.3485  109.2590 H   0  0  0  0  0  0  0  0  0  0  0  0
  -21.6817    0.8458  109.7466 H   0  0  0  0  0  0  0  0  0  0  0  0
  -21.3533    4.2098  102.3642 S   0  0  0  0  0  0  0  0  0  0  0  0
  -21.4549    5.9892  102.7149 C   0  0  0  0  0  0  0  0  0  0  0  0
  -20.1730    6.4660  103.3899 C   0  0  0  0  0  0  0  0  0  0  0  0
  -19.9387    6.1467  104.5887 O   0  0  0  0  0  0  0  0  0  0  0  0
  -19.4761    7.1685  102.6127 O   0  0  0  0  0  0  0  0  0  0  0  0
  -20.5480    5.6121  105.0587 H   0  0  0  0  0  0  0  0  0  0  0  0
  6  9  1  0  0  0
  8  5  2  0  0  0
  8  2  1  0  0  0
 11  5  1  0  0  0
  9  2  1  0  0  0
  9  3  1  0  0  0
  5 10  1  0  0  0
  2  1  2  0  0  0
 16  3  1  0  0  0
 16 17  1  0  0  0
  3  7  2  0  0  0
 10  4  1  0  0  0
  1  7  1  0  0  0
  1  4  1  0  0  0
  4 12  2  0  0  0
 17 18  1  0  0  0
 20 18  2  0  0  0
 18 19  1  0  0  0
 10 13  1  0  0  0
 11 14  1  0  0  0
 11 15  1  0  0  0
 19 21  1  0  0  0
M  END
> <minimizedAffinity>
-6.72091

$$$$
5V7A_8Y7_A_301


 21 22  0  0  0  0  0  0  0  0999 V2000
  -20.7948    2.7330  105.7362 C   0  0  0  0  0  0  0  0  0  0  0  0
  -22.1261    2.7131  106.0429 C   0  0  0  0  0  0  0  0  0  0  0  0
  -21.7514    3.6718  104.0905 C   0  0  0  0  0  0  0  0  0  0  0  0
  -19.8754    2.1553  106.6634 C   0  0  0  0  0  0  0  0  0  0  0  0
  -21.8981    1.7004  107.9952 C   0  0  0  0  0  0  0  0  0  0  0  0
  -24.1585    3.5464  104.8680 C   0  0  0  0  0  0  0  0  0  0  0  0
  -20.5538    3.3229  104.5239 N   0  0  0  0  0  0  0  0  0  0  0  0
  -22.7415    2.2160  107.1483 N   0  0  0  0  0  0  0  0  0  0  0  0
  -22.7264    3.3276  104.9829 N   0  0  0  0  0  0  0  0  0  0  0  0
  -20.5323    1.6585  107.7597 N   0  0  0  0  0  0  0  0  0  0  0  0
  -22.2777    1.1403  109.1903 N   0  0  0  0  0  0  0  0  0  0  0  0
  -18.6641    2.0971  106.5541 O   0  0  0  0  0  0  0  0  0  0  0  0
  -19.9777    1.2282  108.4500 H   0  0  0  0  0  0  0  0  0  0  0  0
  -23.2283    1.1230  109.4459 H   0  0  0  0  0  0  0  0  0  0  0  0
  -21.5993    0.7560  109.7914 H   0  0  0  0  0  0  0  0  0  0  0  0
  -22.1703    4.4742  102.5960 S   0  0  0  0  0  0  0  0  0  0  0  0
  -21.4412    3.4462  101.2879 C   0  0  0  0  0  0  0  0  0  0  0  0
  -20.5294    4.2901  100.4029 C   0  0  0  0  0  0  0  0  0  0  0  0
  -20.8225    4.4667   99.1877 O   0  0  0  0  0  0  0  0  0  0  0  0
  -19.5350    4.7203  101.0426 O   0  0  0  0  0  0  0  0  0  0  0  0
  -21.6021    4.0859   98.8337 H   0  0  0  0  0  0  0  0  0  0  0  0
  6  9  1  0  0  0
  8  5  2  0  0  0
  8  2  1  0  0  0
 11  5  1  0  0  0
  9  2  1  0  0  0
  9  3  1  0  0  0
  5 10  1  0  0  0
  2  1  2  0  0  0
 16  3  1  0  0  0
 16 17  1  0  0  0
  3  7  2  0  0  0
 10  4  1  0  0  0
  1  7  1  0  0  0
  1  4  1  0  0  0
  4 12  2  0  0  0
 17 18  1  0  0  0
 20 18  2  0  0  0
 18 19  1  0  0  0
 10 13  1  0  0  0
 11 14  1  0  0  0
 11 15  1  0  0  0
 19 21  1  0  0  0
M  END
> <minimizedAffinity>
-6.48603

$$$$
5V7A_8Y7_A_301


 21 22  0  0  0  0  0  0  0  0999 V2000
  -20.6730    2.6565  105.6506 C   0  0  0  0  0  0  0  0  0  0  0  0
  -22.0058    2.6940  105.9494 C   0  0  0  0  0  0  0  0  0  0  0  0
  -21.5852    3.5869  103.9752 C   0  0  0  0  0  0  0  0  0  0  0  0
  -19.7807    2.0695  106.5982 C   0  0  0  0  0  0  0  0  0  0  0  0
  -21.8260    1.7249  107.9286 C   0  0  0  0  0  0  0  0  0  0  0  0
  -23.9994    3.5713  104.7406 C   0  0  0  0  0  0  0  0  0  0  0  0
  -20.4038    3.2052  104.4250 N   0  0  0  0  0  0  0  0  0  0  0  0
  -22.6451    2.2492  107.0634 N   0  0  0  0  0  0  0  0  0  0  0  0
  -22.5771    3.3025  104.8700 N   0  0  0  0  0  0  0  0  0  0  0  0
  -20.4615    1.6262  107.7029 N   0  0  0  0  0  0  0  0  0  0  0  0
  -22.2326    1.2106  109.1354 N   0  0  0  0  0  0  0  0  0  0  0  0
  -18.5719    1.9635  106.4980 O   0  0  0  0  0  0  0  0  0  0  0  0
  -19.9269    1.1937  108.4075 H   0  0  0  0  0  0  0  0  0  0  0  0
  -23.1845    1.2354  109.3854 H   0  0  0  0  0  0  0  0  0  0  0  0
  -21.5722    0.8173  109.7505 H   0  0  0  0  0  0  0  0  0  0  0  0
  -21.9660    4.3650  102.4578 S   0  0  0  0  0  0  0  0  0  0  0  0
  -21.8418    3.0513  101.2095 C   0  0  0  0  0  0  0  0  0  0  0  0
  -22.3377    1.7293  101.7865 C   0  0  0  0  0  0  0  0  0  0  0  0
  -21.5080    0.8885  102.2322 O   0  0  0  0  0  0  0  0  0  0  0  0
  -23.5917    1.6429  101.7304 O   0  0  0  0  0  0  0  0  0  0  0  0
  -20.5911    1.0806  102.2146 H   0  0  0  0  0  0  0  0  0  0  0  0
  6  9  1  0  0  0
  8  5  2  0  0  0
  8  2  1  0  0  0
 11  5  1  0  0  0
  9  2  1  0  0  0
  9  3  1  0  0  0
  5 10  1  0  0  0
  2  1  2  0  0  0
 16  3  1  0  0  0
 16 17  1  0  0  0
  3  7  2  0  0  0
 10  4  1  0  0  0
  1  7  1  0  0  0
  1  4  1  0  0  0
  4 12  2  0  0  0
 17 18  1  0  0  0
 20 18  2  0  0  0
 18 19  1  0  0  0
 10 13  1  0  0  0
 11 14  1  0  0  0
 11 15  1  0  0  0
 19 21  1  0  0  0
M  END
> <minimizedAffinity>
-6.44219

$$$$
5V7A_8Y7_A_301


 21 22  0  0  0  0  0  0  0  0999 V2000
  -20.3239    3.7107  101.4952 C   0  0  0  0  0  0  0  0  0  0  0  0
  -21.5678    3.1487  101.4335 C   0  0  0  0  0  0  0  0  0  0  0  0
  -20.5827    2.7434  103.3667 C   0  0  0  0  0  0  0  0  0  0  0  0
  -19.8564    4.4515  100.3676 C   0  0  0  0  0  0  0  0  0  0  0  0
  -22.0336    3.8433   99.3867 C   0  0  0  0  0  0  0  0  0  0  0  0
  -22.8974    1.7725  103.0284 C   0  0  0  0  0  0  0  0  0  0  0  0
  -19.7070    3.4672  102.6935 N   0  0  0  0  0  0  0  0  0  0  0  0
  -22.4689    3.1761  100.4161 N   0  0  0  0  0  0  0  0  0  0  0  0
  -21.7161    2.5232  102.6370 N   0  0  0  0  0  0  0  0  0  0  0  0
  -20.7936    4.4635   99.3666 N   0  0  0  0  0  0  0  0  0  0  0  0
  -22.7605    4.0073   98.2331 N   0  0  0  0  0  0  0  0  0  0  0  0
  -18.7781    5.0047  100.2504 O   0  0  0  0  0  0  0  0  0  0  0  0
  -20.5625    4.9634   98.5506 H   0  0  0  0  0  0  0  0  0  0  0  0
  -23.6545    3.6030   98.1529 H   0  0  0  0  0  0  0  0  0  0  0  0
  -22.3875    4.5292   97.4863 H   0  0  0  0  0  0  0  0  0  0  0  0
  -20.4344    2.0897  104.9802 S   0  0  0  0  0  0  0  0  0  0  0  0
  -20.8189    3.4765  106.0884 C   0  0  0  0  0  0  0  0  0  0  0  0
  -22.1608    3.2440  106.7755 C   0  0  0  0  0  0  0  0  0  0  0  0
  -22.2048    2.6178  107.8709 O   0  0  0  0  0  0  0  0  0  0  0  0
  -23.1104    3.7327  106.1103 O   0  0  0  0  0  0  0  0  0  0  0  0
  -21.4138    2.3039  108.2632 H   0  0  0  0  0  0  0  0  0  0  0  0
  6  9  1  0  0  0
  8  5  2  0  0  0
  8  2  1  0  0  0
 11  5  1  0  0  0
  9  2  1  0  0  0
  9  3  1  0  0  0
  5 10  1  0  0  0
  2  1  2  0  0  0
 16  3  1  0  0  0
 16 17  1  0  0  0
  3  7  2  0  0  0
 10  4  1  0  0  0
  1  7  1  0  0  0
  1  4  1  0  0  0
  4 12  2  0  0  0
 17 18  1  0  0  0
 20 18  2  0  0  0
 18 19  1  0  0  0
 10 13  1  0  0  0
 11 14  1  0  0  0
 11 15  1  0  0  0
 19 21  1  0  0  0
M  END
> <minimizedAffinity>
-6.31424

$$$$
5V7A_8Y7_A_301


 21 22  0  0  0  0  0  0  0  0999 V2000
  -21.6131    3.6301  105.7364 C   0  0  0  0  0  0  0  0  0  0  0  0
  -22.6170    2.7059  105.8057 C   0  0  0  0  0  0  0  0  0  0  0  0
  -22.6380    3.7930  103.8850 C   0  0  0  0  0  0  0  0  0  0  0  0
  -20.7280    3.7565  106.8497 C   0  0  0  0  0  0  0  0  0  0  0  0
  -22.1242    1.9816  107.8359 C   0  0  0  0  0  0  0  0  0  0  0  0
  -24.4334    2.0413  104.2358 C   0  0  0  0  0  0  0  0  0  0  0  0
  -21.6165    4.3067  104.5456 N   0  0  0  0  0  0  0  0  0  0  0  0
  -22.9272    1.8548  106.8193 N   0  0  0  0  0  0  0  0  0  0  0  0
  -23.2723    2.8287  104.6153 N   0  0  0  0  0  0  0  0  0  0  0  0
  -21.0667    2.8784  107.8470 N   0  0  0  0  0  0  0  0  0  0  0  0
  -22.2379    1.2355  108.9833 N   0  0  0  0  0  0  0  0  0  0  0  0
  -19.7939    4.5298  106.9588 O   0  0  0  0  0  0  0  0  0  0  0  0
  -20.5015    2.8855  108.6530 H   0  0  0  0  0  0  0  0  0  0  0  0
  -22.9592    0.5710  109.0690 H   0  0  0  0  0  0  0  0  0  0  0  0
  -21.5980    1.3652  109.7202 H   0  0  0  0  0  0  0  0  0  0  0  0
  -23.2101    4.2044  102.2861 S   0  0  0  0  0  0  0  0  0  0  0  0
  -24.1912    5.7165  102.5104 C   0  0  0  0  0  0  0  0  0  0  0  0
  -23.3595    6.9418  102.1452 C   0  0  0  0  0  0  0  0  0  0  0  0
  -22.9692    7.1034  100.9554 O   0  0  0  0  0  0  0  0  0  0  0  0
  -23.1518    7.6737  103.1472 O   0  0  0  0  0  0  0  0  0  0  0  0
  -23.1969    6.4754  100.2983 H   0  0  0  0  0  0  0  0  0  0  0  0
  6  9  1  0  0  0
  8  5  2  0  0  0
  8  2  1  0  0  0
 11  5  1  0  0  0
  9  2  1  0  0  0
  9  3  1  0  0  0
  5 10  1  0  0  0
  2  1  2  0  0  0
 16  3  1  0  0  0
 16 17  1  0  0  0
  3  7  2  0  0  0
 10  4  1  0  0  0
  1  7  1  0  0  0
  1  4  1  0  0  0
  4 12  2  0  0  0
 17 18  1  0  0  0
 20 18  2  0  0  0
 18 19  1  0  0  0
 10 13  1  0  0  0
 11 14  1  0  0  0
 11 15  1  0  0  0
 19 21  1  0  0  0
M  END
> <minimizedAffinity>
-6.09368

$$$$
5V7A_8Y7_A_301


 21 22  0  0  0  0  0  0  0  0999 V2000
  -17.6433    8.7045  103.3994 C   0  0  0  0  0  0  0  0  0  0  0  0
  -17.3616    8.4239  104.7066 C   0  0  0  0  0  0  0  0  0  0  0  0
  -19.2520    7.4869  104.0585 C   0  0  0  0  0  0  0  0  0  0  0  0
  -16.7243    9.5138  102.6651 C   0  0  0  0  0  0  0  0  0  0  0  0
  -15.4707    9.5673  104.7858 C   0  0  0  0  0  0  0  0  0  0  0  0
  -18.5467    7.1127  106.4621 C   0  0  0  0  0  0  0  0  0  0  0  0
  -18.8132    8.1233  102.9879 N   0  0  0  0  0  0  0  0  0  0  0  0
  -16.2997    8.8209  105.4567 N   0  0  0  0  0  0  0  0  0  0  0  0
  -18.4071    7.6504  105.1192 N   0  0  0  0  0  0  0  0  0  0  0  0
  -15.6646    9.8878  103.4508 N   0  0  0  0  0  0  0  0  0  0  0  0
  -14.3248   10.0957  105.3279 N   0  0  0  0  0  0  0  0  0  0  0  0
  -16.8245    9.8665  101.5040 O   0  0  0  0  0  0  0  0  0  0  0  0
  -14.9706   10.4401  103.0234 H   0  0  0  0  0  0  0  0  0  0  0  0
  -14.1012    9.9228  106.2710 H   0  0  0  0  0  0  0  0  0  0  0  0
  -13.7270   10.6474  104.7734 H   0  0  0  0  0  0  0  0  0  0  0  0
  -20.7041    6.5305  104.2299 S   0  0  0  0  0  0  0  0  0  0  0  0
  -20.4321    5.0684  103.1871 C   0  0  0  0  0  0  0  0  0  0  0  0
  -20.7537    3.7984  103.9683 C   0  0  0  0  0  0  0  0  0  0  0  0
  -21.7201    3.7890  104.7806 O   0  0  0  0  0  0  0  0  0  0  0  0
  -19.9541    2.8686  103.6866 O   0  0  0  0  0  0  0  0  0  0  0  0
  -22.2419    4.5585  104.8968 H   0  0  0  0  0  0  0  0  0  0  0  0
  6  9  1  0  0  0
  8  5  2  0  0  0
  8  2  1  0  0  0
 11  5  1  0  0  0
  9  2  1  0  0  0
  9  3  1  0  0  0
  5 10  1  0  0  0
  2  1  2  0  0  0
 16  3  1  0  0  0
 16 17  1  0  0  0
  3  7  2  0  0  0
 10  4  1  0  0  0
  1  7  1  0  0  0
  1  4  1  0  0  0
  4 12  2  0  0  0
 17 18  1  0  0  0
 20 18  2  0  0  0
 18 19  1  0  0  0
 10 13  1  0  0  0
 11 14  1  0  0  0
 11 15  1  0  0  0
 19 21  1  0  0  0
M  END
> <minimizedAffinity>
-6.07273

$$$$
5V7A_8Y7_A_301


 21 22  0  0  0  0  0  0  0  0999 V2000
  -24.1457    6.3768   99.2680 C   0  0  0  0  0  0  0  0  0  0  0  0
  -23.8480    7.4116  100.1090 C   0  0  0  0  0  0  0  0  0  0  0  0
  -23.2366    5.4676  100.9567 C   0  0  0  0  0  0  0  0  0  0  0  0
  -24.7696    6.6747   98.0187 C   0  0  0  0  0  0  0  0  0  0  0  0
  -24.6508    9.0069   98.8053 C   0  0  0  0  0  0  0  0  0  0  0  0
  -22.7967    7.5266  102.3645 C   0  0  0  0  0  0  0  0  0  0  0  0
  -23.7658    5.1667   99.7849 N   0  0  0  0  0  0  0  0  0  0  0  0
  -24.0721    8.7418   99.9407 N   0  0  0  0  0  0  0  0  0  0  0  0
  -23.2745    6.8124  101.1924 N   0  0  0  0  0  0  0  0  0  0  0  0
  -24.9720    8.0240   97.8816 N   0  0  0  0  0  0  0  0  0  0  0  0
  -24.9855   10.2786   98.4092 N   0  0  0  0  0  0  0  0  0  0  0  0
  -25.1101    5.8795   97.1618 O   0  0  0  0  0  0  0  0  0  0  0  0
  -25.3879    8.3255   97.0417 H   0  0  0  0  0  0  0  0  0  0  0  0
  -24.7963   11.0437   98.9990 H   0  0  0  0  0  0  0  0  0  0  0  0
  -25.4146   10.4250   97.5353 H   0  0  0  0  0  0  0  0  0  0  0  0
  -22.5478    4.3857  102.1432 S   0  0  0  0  0  0  0  0  0  0  0  0
  -21.1419    3.5987  101.3045 C   0  0  0  0  0  0  0  0  0  0  0  0
  -20.1739    4.6605  100.7924 C   0  0  0  0  0  0  0  0  0  0  0  0
  -19.8271    4.6604   99.5785 O   0  0  0  0  0  0  0  0  0  0  0  0
  -19.8193    5.4432  101.7115 O   0  0  0  0  0  0  0  0  0  0  0  0
  -20.1698    4.0137   98.9934 H   0  0  0  0  0  0  0  0  0  0  0  0
  6  9  1  0  0  0
  8  5  2  0  0  0
  8  2  1  0  0  0
 11  5  1  0  0  0
  9  2  1  0  0  0
  9  3  1  0  0  0
  5 10  1  0  0  0
  2  1  2  0  0  0
 16  3  1  0  0  0
 16 17  1  0  0  0
  3  7  2  0  0  0
 10  4  1  0  0  0
  1  7  1  0  0  0
  1  4  1  0  0  0
  4 12  2  0  0  0
 17 18  1  0  0  0
 20 18  2  0  0  0
 18 19  1  0  0  0
 10 13  1  0  0  0
 11 14  1  0  0  0
 11 15  1  0  0  0
 19 21  1  0  0  0
M  END
> <minimizedAffinity>
-5.96854

$$$$
5V7A_8Y7_A_301


 21 22  0  0  0  0  0  0  0  0999 V2000
  -23.8943    7.7075  101.0713 C   0  0  0  0  0  0  0  0  0  0  0  0
  -24.1418    7.3871   99.7664 C   0  0  0  0  0  0  0  0  0  0  0  0
  -23.2958    5.6801  100.8809 C   0  0  0  0  0  0  0  0  0  0  0  0
  -24.2067    9.0273  101.5178 C   0  0  0  0  0  0  0  0  0  0  0  0
  -24.9258    9.3715   99.1862 C   0  0  0  0  0  0  0  0  0  0  0  0
  -23.8122    5.3116   98.4289 C   0  0  0  0  0  0  0  0  0  0  0  0
  -23.3727    6.6522  101.7713 N   0  0  0  0  0  0  0  0  0  0  0  0
  -24.6530    8.1663   98.7768 N   0  0  0  0  0  0  0  0  0  0  0  0
  -23.7437    6.0867   99.6563 N   0  0  0  0  0  0  0  0  0  0  0  0
  -24.7262    9.7800  100.4961 N   0  0  0  0  0  0  0  0  0  0  0  0
  -25.4462   10.3450   98.3691 N   0  0  0  0  0  0  0  0  0  0  0  0
  -24.0419    9.4807  102.6358 O   0  0  0  0  0  0  0  0  0  0  0  0
  -24.9838   10.7047  100.7149 H   0  0  0  0  0  0  0  0  0  0  0  0
  -25.6229   10.1489   97.4206 H   0  0  0  0  0  0  0  0  0  0  0  0
  -25.6426   11.2389   98.7318 H   0  0  0  0  0  0  0  0  0  0  0  0
  -22.7156    4.0477  101.1078 S   0  0  0  0  0  0  0  0  0  0  0  0
  -20.9440    4.2224  101.4686 C   0  0  0  0  0  0  0  0  0  0  0  0
  -20.7184    4.2865  102.9758 C   0  0  0  0  0  0  0  0  0  0  0  0
  -21.3303    5.1486  103.6658 O   0  0  0  0  0  0  0  0  0  0  0  0
  -19.8902    3.4188  103.3556 O   0  0  0  0  0  0  0  0  0  0  0  0
  -21.9267    5.7418  103.2530 H   0  0  0  0  0  0  0  0  0  0  0  0
  6  9  1  0  0  0
  8  5  2  0  0  0
  8  2  1  0  0  0
 11  5  1  0  0  0
  9  2  1  0  0  0
  9  3  1  0  0  0
  5 10  1  0  0  0
  2  1  2  0  0  0
 16  3  1  0  0  0
 16 17  1  0  0  0
  3  7  2  0  0  0
 10  4  1  0  0  0
  1  7  1  0  0  0
  1  4  1  0  0  0
  4 12  2  0  0  0
 17 18  1  0  0  0
 20 18  2  0  0  0
 18 19  1  0  0  0
 10 13  1  0  0  0
 11 14  1  0  0  0
 11 15  1  0  0  0
 19 21  1  0  0  0
M  END
> <minimizedAffinity>
-5.92777

$$$$
5V7A_8Y7_A_301


 21 22  0  0  0  0  0  0  0  0999 V2000
  -22.1810    4.8278  101.0428 C   0  0  0  0  0  0  0  0  0  0  0  0
  -23.1098    4.2220  100.2446 C   0  0  0  0  0  0  0  0  0  0  0  0
  -23.2913    6.4209  100.1860 C   0  0  0  0  0  0  0  0  0  0  0  0
  -21.2621    4.0044  101.7614 C   0  0  0  0  0  0  0  0  0  0  0  0
  -22.4804    2.1497  100.6900 C   0  0  0  0  0  0  0  0  0  0  0  0
  -24.9355    5.0927   98.7906 C   0  0  0  0  0  0  0  0  0  0  0  0
  -22.2842    6.1931  101.0091 N   0  0  0  0  0  0  0  0  0  0  0  0
  -23.3134    2.8962  100.0243 N   0  0  0  0  0  0  0  0  0  0  0  0
  -23.8213    5.2558   99.7093 N   0  0  0  0  0  0  0  0  0  0  0  0
  -21.4929    2.6766  101.5085 N   0  0  0  0  0  0  0  0  0  0  0  0
  -22.4905    0.7774  100.6369 N   0  0  0  0  0  0  0  0  0  0  0  0
  -20.3843    4.3751  102.5193 O   0  0  0  0  0  0  0  0  0  0  0  0
  -20.8967    2.0317  101.9533 H   0  0  0  0  0  0  0  0  0  0  0  0
  -23.1563    0.3111  100.0814 H   0  0  0  0  0  0  0  0  0  0  0  0
  -21.8319    0.2599  101.1543 H   0  0  0  0  0  0  0  0  0  0  0  0
  -23.9584    7.9581   99.6912 S   0  0  0  0  0  0  0  0  0  0  0  0
  -24.9733    8.5058  101.0945 C   0  0  0  0  0  0  0  0  0  0  0  0
  -24.0809    9.0201  102.2195 C   0  0  0  0  0  0  0  0  0  0  0  0
  -23.7717    8.2548  103.1749 O   0  0  0  0  0  0  0  0  0  0  0  0
  -23.7564   10.2221  102.0381 O   0  0  0  0  0  0  0  0  0  0  0  0
  -24.0842    7.3716  103.1877 H   0  0  0  0  0  0  0  0  0  0  0  0
  6  9  1  0  0  0
  8  5  2  0  0  0
  8  2  1  0  0  0
 11  5  1  0  0  0
  9  2  1  0  0  0
  9  3  1  0  0  0
  5 10  1  0  0  0
  2  1  2  0  0  0
 16  3  1  0  0  0
 16 17  1  0  0  0
  3  7  2  0  0  0
 10  4  1  0  0  0
  1  7  1  0  0  0
  1  4  1  0  0  0
  4 12  2  0  0  0
 17 18  1  0  0  0
 20 18  2  0  0  0
 18 19  1  0  0  0
 10 13  1  0  0  0
 11 14  1  0  0  0
 11 15  1  0  0  0
 19 21  1  0  0  0
M  END
> <minimizedAffinity>
-5.79243

$$$$
