3JUO_AJD_A_500


 20 21  0  0  0  0  0  0  0  0999 V2000
   48.2823    1.1995   92.9605 Br  0  0  0  0  0  0  0  0  0  0  0  0
   45.7007   -0.2443   92.9304 C   0  0  0  0  0  0  0  0  0  0  0  0
   44.3808   -0.4645   92.5452 C   0  0  0  0  0  0  0  0  0  0  0  0
   45.8280    1.7523   91.5367 C   0  0  0  0  0  0  0  0  0  0  0  0
   46.4305    0.8684   92.4265 C   0  0  0  0  0  0  0  0  0  0  0  0
   43.7650    0.4404   91.6464 C   0  0  0  0  0  0  0  0  0  0  0  0
   44.4873    1.5491   91.1673 C   0  0  0  0  0  0  0  0  0  0  0  0
   44.2859    2.5268   89.0741 O   0  0  0  0  0  0  0  0  0  0  0  0
   42.9033    3.2551   90.5152 O   0  0  0  0  0  0  0  0  0  0  0  0
   43.8620    2.5303   90.2005 C   0  0  0  0  0  0  0  0  0  0  0  0
   45.0094    1.9762   88.8475 H   0  0  0  0  0  0  0  0  0  0  0  0
   42.4898    0.2981   91.2613 N   0  0  0  0  0  0  0  0  0  0  0  0
   42.2750    0.5034   90.3227 H   0  0  0  0  0  0  0  0  0  0  0  0
   39.8424   -2.0042   92.5409 C   0  0  0  0  0  0  0  0  0  0  0  0
   38.5976   -1.1446   92.3415 C   0  0  0  0  0  0  0  0  0  0  0  0
   40.9684   -1.5084   91.6466 C   0  0  0  0  0  0  0  0  0  0  0  0
   40.1258    0.8395   92.0152 C   0  0  0  0  0  0  0  0  0  0  0  0
   38.9209    0.2587   92.6524 N   0  0  0  0  0  0  0  0  0  0  0  0
   41.3727   -0.1450   92.1369 C   0  0  0  0  0  0  0  0  0  0  0  0
   39.0462    0.3271   93.6624 H   0  0  0  0  0  0  0  0  0  0  0  0
  8 10  1  0  0  0
  9 10  2  0  0  0
  1  5  1  0  0  0
  2  3  2  0  0  0
  2  5  1  0  0  0
  3  6  1  0  0  0
  4  5  2  0  0  0
  4  7  1  0  0  0
 14 15  1  0  0  0
 14 16  1  0  0  0
 15 18  1  0  0  0
 16 19  1  0  0  0
 17 18  1  0  0  0
 17 19  1  0  0  0
 12  6  1  0  0  0
 12 19  1  0  0  0
 10  7  1  0  0  0
  6  7  2  0  0  0
  8 11  1  0  0  0
 18 20  1  0  0  0
 12 13  1  0  0  0
M  END
> <minimizedAffinity>
-7.77874

$$$$
3JUO_AJD_A_500


 20 21  0  0  0  0  0  0  0  0999 V2000
   38.7489   -1.0606   92.2404 Br  0  0  0  0  0  0  0  0  0  0  0  0
   41.0889    0.5574   93.0505 C   0  0  0  0  0  0  0  0  0  0  0  0
   42.4397    0.7909   93.2955 C   0  0  0  0  0  0  0  0  0  0  0  0
   41.5572   -1.7348   92.3640 C   0  0  0  0  0  0  0  0  0  0  0  0
   40.6419   -0.7100   92.5833 C   0  0  0  0  0  0  0  0  0  0  0  0
   43.3700   -0.2551   93.0805 C   0  0  0  0  0  0  0  0  0  0  0  0
   42.9177   -1.5116   92.6365 C   0  0  0  0  0  0  0  0  0  0  0  0
   44.6717   -2.5049   91.4898 O   0  0  0  0  0  0  0  0  0  0  0  0
   43.9337   -3.6512   93.1207 O   0  0  0  0  0  0  0  0  0  0  0  0
   43.8856   -2.6477   92.3899 C   0  0  0  0  0  0  0  0  0  0  0  0
   44.6264   -1.7441   90.9446 H   0  0  0  0  0  0  0  0  0  0  0  0
   44.6780   -0.1006   93.3253 N   0  0  0  0  0  0  0  0  0  0  0  0
   45.1068   -0.7548   93.9231 H   0  0  0  0  0  0  0  0  0  0  0  0
   46.0450    2.1818   90.7047 C   0  0  0  0  0  0  0  0  0  0  0  0
   47.5222    1.8012   90.7386 C   0  0  0  0  0  0  0  0  0  0  0  0
   45.2037    1.0646   91.3023 C   0  0  0  0  0  0  0  0  0  0  0  0
   47.0794    0.6248   92.9292 C   0  0  0  0  0  0  0  0  0  0  0  0
   47.9258    1.5429   92.1318 N   0  0  0  0  0  0  0  0  0  0  0  0
   45.5345    0.9791   92.7672 C   0  0  0  0  0  0  0  0  0  0  0  0
   47.9438    2.4403   92.6162 H   0  0  0  0  0  0  0  0  0  0  0  0
  8 10  1  0  0  0
  9 10  2  0  0  0
  1  5  1  0  0  0
  2  3  2  0  0  0
  2  5  1  0  0  0
  3  6  1  0  0  0
  4  5  2  0  0  0
  4  7  1  0  0  0
 14 15  1  0  0  0
 14 16  1  0  0  0
 15 18  1  0  0  0
 16 19  1  0  0  0
 17 18  1  0  0  0
 17 19  1  0  0  0
 12  6  1  0  0  0
 12 19  1  0  0  0
 10  7  1  0  0  0
  6  7  2  0  0  0
  8 11  1  0  0  0
 18 20  1  0  0  0
 12 13  1  0  0  0
M  END
> <minimizedAffinity>
-7.63783

$$$$
3JUO_AJD_A_500


 20 21  0  0  0  0  0  0  0  0999 V2000
   39.2529   -1.4417   92.3295 Br  0  0  0  0  0  0  0  0  0  0  0  0
   41.4547    0.3569   93.1464 C   0  0  0  0  0  0  0  0  0  0  0  0
   42.6954    0.9752   93.0154 C   0  0  0  0  0  0  0  0  0  0  0  0
   41.7737   -0.8425   91.0477 C   0  0  0  0  0  0  0  0  0  0  0  0
   40.9887   -0.5571   92.1605 C   0  0  0  0  0  0  0  0  0  0  0  0
   43.4980    0.6779   91.8869 C   0  0  0  0  0  0  0  0  0  0  0  0
   43.0383   -0.2417   90.9259 C   0  0  0  0  0  0  0  0  0  0  0  0
   43.4544   -0.1831   88.6452 O   0  0  0  0  0  0  0  0  0  0  0  0
   44.9626   -1.1567   89.7837 O   0  0  0  0  0  0  0  0  0  0  0  0
   43.8672   -0.5759   89.7053 C   0  0  0  0  0  0  0  0  0  0  0  0
   42.6269    0.2538   88.5975 H   0  0  0  0  0  0  0  0  0  0  0  0
   44.7122    1.2186   91.7195 N   0  0  0  0  0  0  0  0  0  0  0  0
   44.8736    1.7196   90.8876 H   0  0  0  0  0  0  0  0  0  0  0  0
   48.2558    1.3793   92.8870 C   0  0  0  0  0  0  0  0  0  0  0  0
   48.4615   -0.0537   93.3692 C   0  0  0  0  0  0  0  0  0  0  0  0
   47.0868    1.4411   91.9161 C   0  0  0  0  0  0  0  0  0  0  0  0
   45.9549   -0.3505   93.2827 C   0  0  0  0  0  0  0  0  0  0  0  0
   47.2280   -0.5297   94.0191 N   0  0  0  0  0  0  0  0  0  0  0  0
   45.8359    1.1231   92.6887 C   0  0  0  0  0  0  0  0  0  0  0  0
   47.1398   -0.0352   94.9069 H   0  0  0  0  0  0  0  0  0  0  0  0
  8 10  1  0  0  0
  9 10  2  0  0  0
  1  5  1  0  0  0
  2  3  2  0  0  0
  2  5  1  0  0  0
  3  6  1  0  0  0
  4  5  2  0  0  0
  4  7  1  0  0  0
 14 15  1  0  0  0
 14 16  1  0  0  0
 15 18  1  0  0  0
 16 19  1  0  0  0
 17 18  1  0  0  0
 17 19  1  0  0  0
 12  6  1  0  0  0
 12 19  1  0  0  0
 10  7  1  0  0  0
  6  7  2  0  0  0
  8 11  1  0  0  0
 18 20  1  0  0  0
 12 13  1  0  0  0
M  END
> <minimizedAffinity>
-7.63719

$$$$
3JUO_AJD_A_500


 20 21  0  0  0  0  0  0  0  0999 V2000
   48.6655    0.8668   93.4579 Br  0  0  0  0  0  0  0  0  0  0  0  0
   45.7778    0.7736   92.8237 C   0  0  0  0  0  0  0  0  0  0  0  0
   44.5473    0.1527   92.6256 C   0  0  0  0  0  0  0  0  0  0  0  0
   46.8307   -1.3639   93.3410 C   0  0  0  0  0  0  0  0  0  0  0  0
   46.9269    0.0151   93.1824 C   0  0  0  0  0  0  0  0  0  0  0  0
   44.4515   -1.2521   92.7784 C   0  0  0  0  0  0  0  0  0  0  0  0
   45.5968   -1.9976   93.1147 C   0  0  0  0  0  0  0  0  0  0  0  0
   45.0633   -4.1318   92.3811 O   0  0  0  0  0  0  0  0  0  0  0  0
   45.9951   -4.0719   94.2908 O   0  0  0  0  0  0  0  0  0  0  0  0
   45.5275   -3.4982   93.2930 C   0  0  0  0  0  0  0  0  0  0  0  0
   44.7132   -3.6890   91.6332 H   0  0  0  0  0  0  0  0  0  0  0  0
   43.3026   -1.9099   92.5734 N   0  0  0  0  0  0  0  0  0  0  0  0
   43.3604   -2.8758   92.3919 H   0  0  0  0  0  0  0  0  0  0  0  0
   39.5706   -1.8501   92.6938 C   0  0  0  0  0  0  0  0  0  0  0  0
   39.2555   -1.1298   91.3861 C   0  0  0  0  0  0  0  0  0  0  0  0
   40.9705   -2.4422   92.6400 C   0  0  0  0  0  0  0  0  0  0  0  0
   41.6830   -0.4409   91.2816 C   0  0  0  0  0  0  0  0  0  0  0  0
   40.2537   -0.0695   91.1624 N   0  0  0  0  0  0  0  0  0  0  0  0
   41.9472   -1.2990   92.5978 C   0  0  0  0  0  0  0  0  0  0  0  0
   40.0722    0.6695   91.8415 H   0  0  0  0  0  0  0  0  0  0  0  0
  8 10  1  0  0  0
  9 10  2  0  0  0
  1  5  1  0  0  0
  2  3  2  0  0  0
  2  5  1  0  0  0
  3  6  1  0  0  0
  4  5  2  0  0  0
  4  7  1  0  0  0
 14 15  1  0  0  0
 14 16  1  0  0  0
 15 18  1  0  0  0
 16 19  1  0  0  0
 17 18  1  0  0  0
 17 19  1  0  0  0
 12  6  1  0  0  0
 12 19  1  0  0  0
 10  7  1  0  0  0
  6  7  2  0  0  0
  8 11  1  0  0  0
 18 20  1  0  0  0
 12 13  1  0  0  0
M  END
> <minimizedAffinity>
-7.53886

$$$$
3JUO_AJD_A_500


 20 21  0  0  0  0  0  0  0  0999 V2000
   42.3080    4.5992   94.3196 Br  0  0  0  0  0  0  0  0  0  0  0  0
   41.7454    1.8704   93.3260 C   0  0  0  0  0  0  0  0  0  0  0  0
   41.8745    0.7913   92.4555 C   0  0  0  0  0  0  0  0  0  0  0  0
   43.3425    3.1759   92.0260 C   0  0  0  0  0  0  0  0  0  0  0  0
   42.4806    3.0699   93.1131 C   0  0  0  0  0  0  0  0  0  0  0  0
   42.7452    0.9027   91.3440 C   0  0  0  0  0  0  0  0  0  0  0  0
   43.4544    2.0992   91.1297 C   0  0  0  0  0  0  0  0  0  0  0  0
   43.8973    2.3440   88.8666 O   0  0  0  0  0  0  0  0  0  0  0  0
   45.6278    2.3497   90.1011 O   0  0  0  0  0  0  0  0  0  0  0  0
   44.3981    2.2485   89.9568 C   0  0  0  0  0  0  0  0  0  0  0  0
   42.9687    2.2660   88.7691 H   0  0  0  0  0  0  0  0  0  0  0  0
   42.8900   -0.0898   90.4560 N   0  0  0  0  0  0  0  0  0  0  0  0
   42.4534    0.0193   89.5803 H   0  0  0  0  0  0  0  0  0  0  0  0
   43.3922   -3.7115   91.2160 C   0  0  0  0  0  0  0  0  0  0  0  0
   44.2514   -3.6215   92.4737 C   0  0  0  0  0  0  0  0  0  0  0  0
   42.6411   -2.4064   91.0019 C   0  0  0  0  0  0  0  0  0  0  0  0
   44.6468   -1.1882   91.9246 C   0  0  0  0  0  0  0  0  0  0  0  0
   45.1975   -2.5004   92.3370 N   0  0  0  0  0  0  0  0  0  0  0  0
   43.6568   -1.3429   90.6859 C   0  0  0  0  0  0  0  0  0  0  0  0
   45.8943   -2.7713   91.6430 H   0  0  0  0  0  0  0  0  0  0  0  0
  8 10  1  0  0  0
  9 10  2  0  0  0
  1  5  1  0  0  0
  2  3  2  0  0  0
  2  5  1  0  0  0
  3  6  1  0  0  0
  4  5  2  0  0  0
  4  7  1  0  0  0
 14 15  1  0  0  0
 14 16  1  0  0  0
 15 18  1  0  0  0
 16 19  1  0  0  0
 17 18  1  0  0  0
 17 19  1  0  0  0
 12  6  1  0  0  0
 12 19  1  0  0  0
 10  7  1  0  0  0
  6  7  2  0  0  0
  8 11  1  0  0  0
 18 20  1  0  0  0
 12 13  1  0  0  0
M  END
> <minimizedAffinity>
-7.40057

$$$$
3JUO_AJD_A_500


 20 21  0  0  0  0  0  0  0  0999 V2000
   38.7453   -1.0755   92.2402 Br  0  0  0  0  0  0  0  0  0  0  0  0
   41.6391   -1.0947   92.8530 C   0  0  0  0  0  0  0  0  0  0  0  0
   42.9112   -0.5387   92.9618 C   0  0  0  0  0  0  0  0  0  0  0  0
   40.7229    1.0264   92.0740 C   0  0  0  0  0  0  0  0  0  0  0  0
   40.5379   -0.3119   92.4069 C   0  0  0  0  0  0  0  0  0  0  0  0
   43.1010    0.8212   92.6145 C   0  0  0  0  0  0  0  0  0  0  0  0
   42.0106    1.5836   92.1560 C   0  0  0  0  0  0  0  0  0  0  0  0
   42.0012    3.8472   92.6596 O   0  0  0  0  0  0  0  0  0  0  0  0
   42.5551    3.4001   90.6565 O   0  0  0  0  0  0  0  0  0  0  0  0
   42.1774    3.0404   91.7841 C   0  0  0  0  0  0  0  0  0  0  0  0
   41.7163    3.5650   93.5064 H   0  0  0  0  0  0  0  0  0  0  0  0
   44.3056    1.4047   92.6707 N   0  0  0  0  0  0  0  0  0  0  0  0
   44.4071    2.1756   93.2745 H   0  0  0  0  0  0  0  0  0  0  0  0
   47.9041    1.3565   91.6734 C   0  0  0  0  0  0  0  0  0  0  0  0
   47.7986    1.7707   90.2087 C   0  0  0  0  0  0  0  0  0  0  0  0
   46.6557    1.7856   92.4288 C   0  0  0  0  0  0  0  0  0  0  0  0
   45.3205    1.3032   90.3449 C   0  0  0  0  0  0  0  0  0  0  0  0
   46.6004    1.1534   89.6139 N   0  0  0  0  0  0  0  0  0  0  0  0
   45.5016    0.9820   91.8949 C   0  0  0  0  0  0  0  0  0  0  0  0
   46.7849    0.1544   89.5220 H   0  0  0  0  0  0  0  0  0  0  0  0
  8 10  1  0  0  0
  9 10  2  0  0  0
  1  5  1  0  0  0
  2  3  2  0  0  0
  2  5  1  0  0  0
  3  6  1  0  0  0
  4  5  2  0  0  0
  4  7  1  0  0  0
 14 15  1  0  0  0
 14 16  1  0  0  0
 15 18  1  0  0  0
 16 19  1  0  0  0
 17 18  1  0  0  0
 17 19  1  0  0  0
 12  6  1  0  0  0
 12 19  1  0  0  0
 10  7  1  0  0  0
  6  7  2  0  0  0
  8 11  1  0  0  0
 18 20  1  0  0  0
 12 13  1  0  0  0
M  END
> <minimizedAffinity>
-7.14711

$$$$
3JUO_AJD_A_500


 20 21  0  0  0  0  0  0  0  0999 V2000
   38.7560   -1.0557   92.2132 Br  0  0  0  0  0  0  0  0  0  0  0  0
   41.5858   -0.9941   91.3536 C   0  0  0  0  0  0  0  0  0  0  0  0
   42.8760   -0.4742   91.2908 C   0  0  0  0  0  0  0  0  0  0  0  0
   40.8706    0.8209   92.8163 C   0  0  0  0  0  0  0  0  0  0  0  0
   40.5758   -0.3460   92.1181 C   0  0  0  0  0  0  0  0  0  0  0  0
   43.1735    0.7185   91.9945 C   0  0  0  0  0  0  0  0  0  0  0  0
   42.1642    1.3638   92.7330 C   0  0  0  0  0  0  0  0  0  0  0  0
   43.3368    2.5892   94.3145 O   0  0  0  0  0  0  0  0  0  0  0  0
   41.8631    3.7033   93.2630 O   0  0  0  0  0  0  0  0  0  0  0  0
   42.4503    2.6348   93.5018 C   0  0  0  0  0  0  0  0  0  0  0  0
   43.7731    1.7780   94.4869 H   0  0  0  0  0  0  0  0  0  0  0  0
   44.3877    1.2826   91.9497 N   0  0  0  0  0  0  0  0  0  0  0  0
   44.4298    2.2545   91.7984 H   0  0  0  0  0  0  0  0  0  0  0  0
   47.0302   -0.6594   93.7363 C   0  0  0  0  0  0  0  0  0  0  0  0
   48.2233    0.2799   93.5868 C   0  0  0  0  0  0  0  0  0  0  0  0
   45.7323    0.1100   93.5446 C   0  0  0  0  0  0  0  0  0  0  0  0
   46.9127    1.5233   91.8219 C   0  0  0  0  0  0  0  0  0  0  0  0
   48.1875    0.9027   92.2521 N   0  0  0  0  0  0  0  0  0  0  0  0
   45.6771    0.5596   92.1102 C   0  0  0  0  0  0  0  0  0  0  0  0
   48.4208    0.1801   91.5711 H   0  0  0  0  0  0  0  0  0  0  0  0
  8 10  1  0  0  0
  9 10  2  0  0  0
  1  5  1  0  0  0
  2  3  2  0  0  0
  2  5  1  0  0  0
  3  6  1  0  0  0
  4  5  2  0  0  0
  4  7  1  0  0  0
 14 15  1  0  0  0
 14 16  1  0  0  0
 15 18  1  0  0  0
 16 19  1  0  0  0
 17 18  1  0  0  0
 17 19  1  0  0  0
 12  6  1  0  0  0
 12 19  1  0  0  0
 10  7  1  0  0  0
  6  7  2  0  0  0
  8 11  1  0  0  0
 18 20  1  0  0  0
 12 13  1  0  0  0
M  END
> <minimizedAffinity>
-7.11440

$$$$
3JUO_AJD_A_500


 20 21  0  0  0  0  0  0  0  0999 V2000
   40.5802    3.4813   94.8708 Br  0  0  0  0  0  0  0  0  0  0  0  0
   42.4787    2.2315   92.9777 C   0  0  0  0  0  0  0  0  0  0  0  0
   42.8766    1.3151   92.0078 C   0  0  0  0  0  0  0  0  0  0  0  0
   40.2420    1.2634   93.0479 C   0  0  0  0  0  0  0  0  0  0  0  0
   41.1566    2.2081   93.5030 C   0  0  0  0  0  0  0  0  0  0  0  0
   41.9482    0.3479   91.5511 C   0  0  0  0  0  0  0  0  0  0  0  0
   40.6481    0.3193   92.0893 C   0  0  0  0  0  0  0  0  0  0  0  0
   39.2531   -0.5974   90.4796 O   0  0  0  0  0  0  0  0  0  0  0  0
   39.2506   -1.6383   92.3330 O   0  0  0  0  0  0  0  0  0  0  0  0
   39.6300   -0.6956   91.6183 C   0  0  0  0  0  0  0  0  0  0  0  0
   39.5455    0.1176   89.9493 H   0  0  0  0  0  0  0  0  0  0  0  0
   42.2799   -0.5775   90.6411 N   0  0  0  0  0  0  0  0  0  0  0  0
   41.8258   -0.5372   89.7685 H   0  0  0  0  0  0  0  0  0  0  0  0
   43.5093   -3.9750   91.5856 C   0  0  0  0  0  0  0  0  0  0  0  0
   44.5088   -3.6207   92.6827 C   0  0  0  0  0  0  0  0  0  0  0  0
   42.5192   -2.8366   91.3935 C   0  0  0  0  0  0  0  0  0  0  0  0
   44.3914   -1.2238   91.8955 C   0  0  0  0  0  0  0  0  0  0  0  0
   45.2156   -2.3814   92.3149 N   0  0  0  0  0  0  0  0  0  0  0  0
   43.2784   -1.6607   90.8425 C   0  0  0  0  0  0  0  0  0  0  0  0
   45.8436   -2.6053   91.5429 H   0  0  0  0  0  0  0  0  0  0  0  0
  8 10  1  0  0  0
  9 10  2  0  0  0
  1  5  1  0  0  0
  2  3  2  0  0  0
  2  5  1  0  0  0
  3  6  1  0  0  0
  4  5  2  0  0  0
  4  7  1  0  0  0
 14 15  1  0  0  0
 14 16  1  0  0  0
 15 18  1  0  0  0
 16 19  1  0  0  0
 17 18  1  0  0  0
 17 19  1  0  0  0
 12  6  1  0  0  0
 12 19  1  0  0  0
 10  7  1  0  0  0
  6  7  2  0  0  0
  8 11  1  0  0  0
 18 20  1  0  0  0
 12 13  1  0  0  0
M  END
> <minimizedAffinity>
-6.98021

$$$$
3JUO_AJD_A_500


 20 21  0  0  0  0  0  0  0  0999 V2000
   47.6524    1.9670   90.4718 Br  0  0  0  0  0  0  0  0  0  0  0  0
   44.7678    2.5815   90.2454 C   0  0  0  0  0  0  0  0  0  0  0  0
   43.4142    2.4113   90.5242 C   0  0  0  0  0  0  0  0  0  0  0  0
   45.3590    0.7514   91.7441 C   0  0  0  0  0  0  0  0  0  0  0  0
   45.7473    1.7493   90.8556 C   0  0  0  0  0  0  0  0  0  0  0  0
   43.0185    1.3897   91.4219 C   0  0  0  0  0  0  0  0  0  0  0  0
   43.9918    0.5585   92.0067 C   0  0  0  0  0  0  0  0  0  0  0  0
   44.1588   -1.5970   92.8458 O   0  0  0  0  0  0  0  0  0  0  0  0
   42.8125   -0.3456   93.9136 O   0  0  0  0  0  0  0  0  0  0  0  0
   43.6038   -0.5369   92.9752 C   0  0  0  0  0  0  0  0  0  0  0  0
   44.7538   -1.7305   92.1343 H   0  0  0  0  0  0  0  0  0  0  0  0
   41.7303    1.1585   91.7078 N   0  0  0  0  0  0  0  0  0  0  0  0
   41.3772    0.2608   91.5108 H   0  0  0  0  0  0  0  0  0  0  0  0
   40.5306    3.7082   94.1584 C   0  0  0  0  0  0  0  0  0  0  0  0
   39.2549    3.0400   94.6624 C   0  0  0  0  0  0  0  0  0  0  0  0
   41.4560    2.6702   93.5425 C   0  0  0  0  0  0  0  0  0  0  0  0
   39.4117    1.4580   92.6999 C   0  0  0  0  0  0  0  0  0  0  0  0
   38.5873    2.3579   93.5400 N   0  0  0  0  0  0  0  0  0  0  0  0
   40.7907    2.1479   92.2986 C   0  0  0  0  0  0  0  0  0  0  0  0
   38.2026    3.0787   92.9295 H   0  0  0  0  0  0  0  0  0  0  0  0
  8 10  1  0  0  0
  9 10  2  0  0  0
  1  5  1  0  0  0
  2  3  2  0  0  0
  2  5  1  0  0  0
  3  6  1  0  0  0
  4  5  2  0  0  0
  4  7  1  0  0  0
 14 15  1  0  0  0
 14 16  1  0  0  0
 15 18  1  0  0  0
 16 19  1  0  0  0
 17 18  1  0  0  0
 17 19  1  0  0  0
 12  6  1  0  0  0
 12 19  1  0  0  0
 10  7  1  0  0  0
  6  7  2  0  0  0
  8 11  1  0  0  0
 18 20  1  0  0  0
 12 13  1  0  0  0
M  END
> <minimizedAffinity>
-6.85463

$$$$
3JUO_AJD_A_500


 20 21  0  0  0  0  0  0  0  0999 V2000
   39.0053    3.2752   94.7989 Br  0  0  0  0  0  0  0  0  0  0  0  0
   39.6225    1.2311   92.7518 C   0  0  0  0  0  0  0  0  0  0  0  0
   40.4552    0.3978   92.0094 C   0  0  0  0  0  0  0  0  0  0  0  0
   41.5258    2.1085   93.9976 C   0  0  0  0  0  0  0  0  0  0  0  0
   40.1566    2.0921   93.7507 C   0  0  0  0  0  0  0  0  0  0  0  0
   41.8499    0.4211   92.2549 C   0  0  0  0  0  0  0  0  0  0  0  0
   42.3726    1.2893   93.2314 C   0  0  0  0  0  0  0  0  0  0  0  0
   44.4218    2.3726   93.3025 O   0  0  0  0  0  0  0  0  0  0  0  0
   44.4611    0.3798   94.0413 O   0  0  0  0  0  0  0  0  0  0  0  0
   43.8562    1.3336   93.5237 C   0  0  0  0  0  0  0  0  0  0  0  0
   43.9561    3.0856   92.9118 H   0  0  0  0  0  0  0  0  0  0  0  0
   42.7048   -0.3358   91.5543 N   0  0  0  0  0  0  0  0  0  0  0  0
   43.4692    0.1182   91.1315 H   0  0  0  0  0  0  0  0  0  0  0  0
   42.6042   -3.9273   92.5726 C   0  0  0  0  0  0  0  0  0  0  0  0
   43.7811   -4.4819   91.7754 C   0  0  0  0  0  0  0  0  0  0  0  0
   42.7422   -2.4207   92.7283 C   0  0  0  0  0  0  0  0  0  0  0  0
   43.7552   -2.3508   90.4202 C   0  0  0  0  0  0  0  0  0  0  0  0
   43.8237   -3.8304   90.4546 N   0  0  0  0  0  0  0  0  0  0  0  0
   42.5924   -1.8061   91.3636 C   0  0  0  0  0  0  0  0  0  0  0  0
   43.0357   -4.1856   89.9130 H   0  0  0  0  0  0  0  0  0  0  0  0
  8 10  1  0  0  0
  9 10  2  0  0  0
  1  5  1  0  0  0
  2  3  2  0  0  0
  2  5  1  0  0  0
  3  6  1  0  0  0
  4  5  2  0  0  0
  4  7  1  0  0  0
 14 15  1  0  0  0
 14 16  1  0  0  0
 15 18  1  0  0  0
 16 19  1  0  0  0
 17 18  1  0  0  0
 17 19  1  0  0  0
 12  6  1  0  0  0
 12 19  1  0  0  0
 10  7  1  0  0  0
  6  7  2  0  0  0
  8 11  1  0  0  0
 18 20  1  0  0  0
 12 13  1  0  0  0
M  END
> <minimizedAffinity>
-6.81962

$$$$
