1IF7_SBR_A_555


 29 31  0  0  0  0  0  0  0  0999 V2000
   -2.6074    2.3397   13.0629 N   0  0  0  0  0  0  0  0  0  0  0  0
   -4.0224    2.5441   13.2033 C   0  0  0  0  0  0  0  0  0  0  0  0
   -4.6128    3.2006   12.3505 O   0  0  0  0  0  0  0  0  0  0  0  0
   -2.0560    1.8356   13.7040 H   0  0  0  0  0  0  0  0  0  0  0  0
   -4.6706    1.9837   14.2817 C   0  0  0  0  0  0  0  0  0  0  0  0
   -5.8350    2.5828   14.8683 C   0  0  0  0  0  0  0  0  0  0  0  0
   -6.4782    1.9846   15.9984 C   0  0  0  0  0  0  0  0  0  0  0  0
   -5.9555    0.7595   16.5594 C   0  0  0  0  0  0  0  0  0  0  0  0
   -4.8048    0.1895   15.9501 C   0  0  0  0  0  0  0  0  0  0  0  0
   -4.1799    0.7907   14.8363 C   0  0  0  0  0  0  0  0  0  0  0  0
   -6.5683    0.0289   17.7770 S   0  0  0  0  0  0  0  0  0  0  0  0
   -6.5167    0.8725   18.9549 O   0  0  0  0  0  0  0  0  0  0  0  0
   -7.9274   -0.2691   17.4965 O   0  0  0  0  0  0  0  0  0  0  0  0
   -5.8597   -1.2677   18.0399 N   0  0  0  0  0  0  0  0  0  0  0  0
   -4.8777   -1.0830   18.2451 H   0  0  0  0  0  0  0  0  0  0  0  0
   -5.9283   -1.8658   17.2165 H   0  0  0  0  0  0  0  0  0  0  0  0
   -2.0544    3.0099   11.7782 C   0  0  0  0  0  0  0  0  0  0  0  0
   -1.0994    4.1305   12.2043 C   0  0  0  0  0  0  0  0  0  0  0  0
    0.1694    4.1251   11.3185 C   0  0  0  0  0  0  0  0  0  0  0  0
   -1.8572    5.4896   12.0486 C   0  0  0  0  0  0  0  0  0  0  0  0
   -2.0413    6.1363   13.3366 N   0  0  0  0  0  0  0  0  0  0  0  0
   -3.0482    5.8538   14.1929 C   0  0  0  0  0  0  0  0  0  0  0  0
   -2.8843    6.7138   15.3810 C   0  0  0  0  0  0  0  0  0  0  0  0
   -1.2905    7.0568   13.8622 C   0  0  0  0  0  0  0  0  0  0  0  0
   -0.1210    7.6909   13.3688 C   0  0  0  0  0  0  0  0  0  0  0  0
    0.5280    8.6780   14.1424 C   0  0  0  0  0  0  0  0  0  0  0  0
    0.0062    9.0372   15.4097 C   0  0  0  0  0  0  0  0  0  0  0  0
   -1.1632    8.4063   15.9049 C   0  0  0  0  0  0  0  0  0  0  0  0
   -1.8127    7.4163   15.1311 C   0  0  0  0  0  0  0  0  0  0  0  0
 20 18  1  0  0  0
 20 21  1  0  0  0
 18 17  1  0  0  0
 18 19  1  0  0  0
 17  1  1  0  0  0
  1  2  1  0  0  0
  2  3  2  0  0  0
  2  5  1  0  0  0
  5  6  2  0  0  0
  5 10  1  0  0  0
  6  7  1  0  0  0
  7  8  2  0  0  0
  8  9  1  0  0  0
  8 11  1  0  0  0
  9 10  2  0  0  0
 11 12  2  0  0  0
 11 13  2  0  0  0
 11 14  1  0  0  0
 21 22  1  0  0  0
 21 24  1  0  0  0
 22 23  2  0  0  0
 23 29  1  0  0  0
 24 25  2  0  0  0
 24 29  1  0  0  0
 25 26  1  0  0  0
 26 27  2  0  0  0
 27 28  1  0  0  0
 28 29  2  0  0  0
  1  4  1  0  0  0
 14 15  1  0  0  0
 14 16  1  0  0  0
M  END
> <minimizedAffinity>
-7.69403

$$$$
1IF7_SBR_A_555


 29 31  0  0  0  0  0  0  0  0999 V2000
   -3.0508    2.1958   12.5804 N   0  0  0  0  0  0  0  0  0  0  0  0
   -4.3013    2.7090   13.0666 C   0  0  0  0  0  0  0  0  0  0  0  0
   -4.8256    3.6480   12.4747 O   0  0  0  0  0  0  0  0  0  0  0  0
   -2.5581    1.4535   12.9994 H   0  0  0  0  0  0  0  0  0  0  0  0
   -4.8766    2.1202   14.1708 C   0  0  0  0  0  0  0  0  0  0  0  0
   -5.9820    2.7160   14.8651 C   0  0  0  0  0  0  0  0  0  0  0  0
   -6.5491    2.0874   16.0192 C   0  0  0  0  0  0  0  0  0  0  0  0
   -6.0083    0.8346   16.4955 C   0  0  0  0  0  0  0  0  0  0  0  0
   -4.9177    0.2689   15.7808 C   0  0  0  0  0  0  0  0  0  0  0  0
   -4.3677    0.9002   14.6444 C   0  0  0  0  0  0  0  0  0  0  0  0
   -6.5409    0.0701   17.7299 S   0  0  0  0  0  0  0  0  0  0  0  0
   -6.4789    0.9070   18.9120 O   0  0  0  0  0  0  0  0  0  0  0  0
   -7.8961   -0.2840   17.5002 O   0  0  0  0  0  0  0  0  0  0  0  0
   -5.7679   -1.1967   17.9538 N   0  0  0  0  0  0  0  0  0  0  0  0
   -4.7874   -0.9715   18.1220 H   0  0  0  0  0  0  0  0  0  0  0  0
   -5.8435   -1.7915   17.1287 H   0  0  0  0  0  0  0  0  0  0  0  0
   -2.5712    2.9535   11.3150 C   0  0  0  0  0  0  0  0  0  0  0  0
   -1.3641    3.8123   11.7084 C   0  0  0  0  0  0  0  0  0  0  0  0
   -0.0857    3.3042   10.9999 C   0  0  0  0  0  0  0  0  0  0  0  0
   -1.6657    5.2859   11.2802 C   0  0  0  0  0  0  0  0  0  0  0  0
   -1.0613    6.2325   12.2020 N   0  0  0  0  0  0  0  0  0  0  0  0
    0.0744    6.9206   11.9499 C   0  0  0  0  0  0  0  0  0  0  0  0
    0.3543    7.7734   13.1214 C   0  0  0  0  0  0  0  0  0  0  0  0
   -1.5013    6.5667   13.3775 C   0  0  0  0  0  0  0  0  0  0  0  0
   -2.6451    6.1322   14.0958 C   0  0  0  0  0  0  0  0  0  0  0  0
   -2.9143    6.6545   15.3798 C   0  0  0  0  0  0  0  0  0  0  0  0
   -2.0374    7.6095   15.9512 C   0  0  0  0  0  0  0  0  0  0  0  0
   -0.8926    8.0447   15.2364 C   0  0  0  0  0  0  0  0  0  0  0  0
   -0.6235    7.5230   13.9495 C   0  0  0  0  0  0  0  0  0  0  0  0
 20 18  1  0  0  0
 20 21  1  0  0  0
 18 17  1  0  0  0
 18 19  1  0  0  0
 17  1  1  0  0  0
  1  2  1  0  0  0
  2  3  2  0  0  0
  2  5  1  0  0  0
  5  6  2  0  0  0
  5 10  1  0  0  0
  6  7  1  0  0  0
  7  8  2  0  0  0
  8  9  1  0  0  0
  8 11  1  0  0  0
  9 10  2  0  0  0
 11 12  2  0  0  0
 11 13  2  0  0  0
 11 14  1  0  0  0
 21 22  1  0  0  0
 21 24  1  0  0  0
 22 23  2  0  0  0
 23 29  1  0  0  0
 24 25  2  0  0  0
 24 29  1  0  0  0
 25 26  1  0  0  0
 26 27  2  0  0  0
 27 28  1  0  0  0
 28 29  2  0  0  0
  1  4  1  0  0  0
 14 15  1  0  0  0
 14 16  1  0  0  0
M  END
> <minimizedAffinity>
-7.55909

$$$$
1IF7_SBR_A_555


 29 31  0  0  0  0  0  0  0  0999 V2000
   -3.3235    4.1419   13.6415 N   0  0  0  0  0  0  0  0  0  0  0  0
   -4.3391    3.1531   13.4080 C   0  0  0  0  0  0  0  0  0  0  0  0
   -4.7577    2.9936   12.2650 O   0  0  0  0  0  0  0  0  0  0  0  0
   -2.9397    4.3411   14.5260 H   0  0  0  0  0  0  0  0  0  0  0  0
   -4.7973    2.4076   14.4715 C   0  0  0  0  0  0  0  0  0  0  0  0
   -3.9573    1.4776   15.1704 C   0  0  0  0  0  0  0  0  0  0  0  0
   -4.4666    0.7057   16.2629 C   0  0  0  0  0  0  0  0  0  0  0  0
   -5.8431    0.8618   16.6748 C   0  0  0  0  0  0  0  0  0  0  0  0
   -6.6455    1.7960   15.9652 C   0  0  0  0  0  0  0  0  0  0  0  0
   -6.1303    2.5502   14.8890 C   0  0  0  0  0  0  0  0  0  0  0  0
   -6.4973    0.0803   17.8381 S   0  0  0  0  0  0  0  0  0  0  0  0
   -6.4872    0.8726   19.0521 O   0  0  0  0  0  0  0  0  0  0  0  0
   -7.8457   -0.2043   17.4980 O   0  0  0  0  0  0  0  0  0  0  0  0
   -5.7974   -1.2270   18.0697 N   0  0  0  0  0  0  0  0  0  0  0  0
   -4.8232   -1.0520   18.3165 H   0  0  0  0  0  0  0  0  0  0  0  0
   -5.8370   -1.7892   17.2195 H   0  0  0  0  0  0  0  0  0  0  0  0
   -2.9053    4.8574   12.3306 C   0  0  0  0  0  0  0  0  0  0  0  0
   -3.4638    6.2841   12.3729 C   0  0  0  0  0  0  0  0  0  0  0  0
   -2.5489    7.1976   13.2232 C   0  0  0  0  0  0  0  0  0  0  0  0
   -3.5347    6.8137   10.9031 C   0  0  0  0  0  0  0  0  0  0  0  0
   -4.8182    7.4392   10.6339 N   0  0  0  0  0  0  0  0  0  0  0  0
   -5.1805    8.6591   11.0894 C   0  0  0  0  0  0  0  0  0  0  0  0
   -6.5453    8.9358   10.6006 C   0  0  0  0  0  0  0  0  0  0  0  0
   -5.7932    6.9485    9.9298 C   0  0  0  0  0  0  0  0  0  0  0  0
   -5.9088    5.7119    9.2439 C   0  0  0  0  0  0  0  0  0  0  0  0
   -7.0905    5.4044    8.5347 C   0  0  0  0  0  0  0  0  0  0  0  0
   -8.1621    6.3309    8.5136 C   0  0  0  0  0  0  0  0  0  0  0  0
   -8.0502    7.5671    9.1993 C   0  0  0  0  0  0  0  0  0  0  0  0
   -6.8660    7.8763    9.9084 C   0  0  0  0  0  0  0  0  0  0  0  0
 20 18  1  0  0  0
 20 21  1  0  0  0
 18 17  1  0  0  0
 18 19  1  0  0  0
 17  1  1  0  0  0
  1  2  1  0  0  0
  2  3  2  0  0  0
  2  5  1  0  0  0
  5  6  2  0  0  0
  5 10  1  0  0  0
  6  7  1  0  0  0
  7  8  2  0  0  0
  8  9  1  0  0  0
  8 11  1  0  0  0
  9 10  2  0  0  0
 11 12  2  0  0  0
 11 13  2  0  0  0
 11 14  1  0  0  0
 21 22  1  0  0  0
 21 24  1  0  0  0
 22 23  2  0  0  0
 23 29  1  0  0  0
 24 25  2  0  0  0
 24 29  1  0  0  0
 25 26  1  0  0  0
 26 27  2  0  0  0
 27 28  1  0  0  0
 28 29  2  0  0  0
  1  4  1  0  0  0
 14 15  1  0  0  0
 14 16  1  0  0  0
M  END
> <minimizedAffinity>
-7.38522

$$$$
1IF7_SBR_A_555


 29 31  0  0  0  0  0  0  0  0999 V2000
   -2.9993    4.5453   14.1981 N   0  0  0  0  0  0  0  0  0  0  0  0
   -3.9366    3.5774   13.6999 C   0  0  0  0  0  0  0  0  0  0  0  0
   -4.1157    3.4966   12.4881 O   0  0  0  0  0  0  0  0  0  0  0  0
   -2.8029    4.6833   15.1529 H   0  0  0  0  0  0  0  0  0  0  0  0
   -4.5908    2.7631   14.5975 C   0  0  0  0  0  0  0  0  0  0  0  0
   -5.9572    2.9851   14.9747 C   0  0  0  0  0  0  0  0  0  0  0  0
   -6.6057    2.1302   15.9220 C   0  0  0  0  0  0  0  0  0  0  0  0
   -5.8818    1.0252   16.5082 C   0  0  0  0  0  0  0  0  0  0  0  0
   -4.5321    0.8300   16.1078 C   0  0  0  0  0  0  0  0  0  0  0  0
   -3.9047    1.6815   15.1729 C   0  0  0  0  0  0  0  0  0  0  0  0
   -6.4815    0.0415   17.5401 S   0  0  0  0  0  0  0  0  0  0  0  0
   -6.4404    0.6137   18.8715 O   0  0  0  0  0  0  0  0  0  0  0  0
   -7.8365   -0.2097   17.2002 O   0  0  0  0  0  0  0  0  0  0  0  0
   -5.7531   -1.2706   17.5200 N   0  0  0  0  0  0  0  0  0  0  0  0
   -4.7737   -1.1195   17.7614 H   0  0  0  0  0  0  0  0  0  0  0  0
   -5.8144   -1.6792   16.5874 H   0  0  0  0  0  0  0  0  0  0  0  0
   -2.3343    5.3465   13.0486 C   0  0  0  0  0  0  0  0  0  0  0  0
   -2.9537    6.7484   13.0308 C   0  0  0  0  0  0  0  0  0  0  0  0
   -2.0429    7.7510   13.7790 C   0  0  0  0  0  0  0  0  0  0  0  0
   -3.1150    7.1811   11.5367 C   0  0  0  0  0  0  0  0  0  0  0  0
   -4.4087    7.8019   11.3086 N   0  0  0  0  0  0  0  0  0  0  0  0
   -5.5670    7.1188   11.1728 C   0  0  0  0  0  0  0  0  0  0  0  0
   -6.6476    8.1013   10.9606 C   0  0  0  0  0  0  0  0  0  0  0  0
   -4.6576    9.0727   11.2076 C   0  0  0  0  0  0  0  0  0  0  0  0
   -3.7913   10.1942   11.2780 C   0  0  0  0  0  0  0  0  0  0  0  0
   -4.3114   11.4994   11.1375 C   0  0  0  0  0  0  0  0  0  0  0  0
   -5.6991   11.6865   10.9212 C   0  0  0  0  0  0  0  0  0  0  0  0
   -6.5673   10.5676   10.8489 C   0  0  0  0  0  0  0  0  0  0  0  0
   -6.0469    9.2601   10.9913 C   0  0  0  0  0  0  0  0  0  0  0  0
 20 18  1  0  0  0
 20 21  1  0  0  0
 18 17  1  0  0  0
 18 19  1  0  0  0
 17  1  1  0  0  0
  1  2  1  0  0  0
  2  3  2  0  0  0
  2  5  1  0  0  0
  5  6  2  0  0  0
  5 10  1  0  0  0
  6  7  1  0  0  0
  7  8  2  0  0  0
  8  9  1  0  0  0
  8 11  1  0  0  0
  9 10  2  0  0  0
 11 12  2  0  0  0
 11 13  2  0  0  0
 11 14  1  0  0  0
 21 22  1  0  0  0
 21 24  1  0  0  0
 22 23  2  0  0  0
 23 29  1  0  0  0
 24 25  2  0  0  0
 24 29  1  0  0  0
 25 26  1  0  0  0
 26 27  2  0  0  0
 27 28  1  0  0  0
 28 29  2  0  0  0
  1  4  1  0  0  0
 14 15  1  0  0  0
 14 16  1  0  0  0
M  END
> <minimizedAffinity>
-7.23419

$$$$
1IF7_SBR_A_555


 29 31  0  0  0  0  0  0  0  0999 V2000
   -3.2726    3.4835   13.0496 N   0  0  0  0  0  0  0  0  0  0  0  0
   -4.3945    2.5954   12.9215 C   0  0  0  0  0  0  0  0  0  0  0  0
   -4.8373    2.3595   11.8011 O   0  0  0  0  0  0  0  0  0  0  0  0
   -2.8620    3.7341   13.9085 H   0  0  0  0  0  0  0  0  0  0  0  0
   -4.9251    2.0274   14.0585 C   0  0  0  0  0  0  0  0  0  0  0  0
   -5.9847    2.6492   14.7997 C   0  0  0  0  0  0  0  0  0  0  0  0
   -6.5054    2.0417   15.9865 C   0  0  0  0  0  0  0  0  0  0  0  0
   -5.9637    0.7840   16.4486 C   0  0  0  0  0  0  0  0  0  0  0  0
   -4.9194    0.1923   15.6874 C   0  0  0  0  0  0  0  0  0  0  0  0
   -4.4148    0.8030   14.5192 C   0  0  0  0  0  0  0  0  0  0  0  0
   -6.4484    0.0407   17.7154 S   0  0  0  0  0  0  0  0  0  0  0  0
   -7.7993   -0.4516   17.5304 O   0  0  0  0  0  0  0  0  0  0  0  0
   -5.5941   -1.0680   17.9514 O   0  0  0  0  0  0  0  0  0  0  0  0
   -6.3852    0.9328   18.9207 N   0  0  0  0  0  0  0  0  0  0  0  0
   -6.9917    1.7404   18.7782 H   0  0  0  0  0  0  0  0  0  0  0  0
   -5.4254    1.2487   19.0599 H   0  0  0  0  0  0  0  0  0  0  0  0
   -2.7871    3.9992   11.6698 C   0  0  0  0  0  0  0  0  0  0  0  0
   -2.2555    5.4243   11.8592 C   0  0  0  0  0  0  0  0  0  0  0  0
   -2.0868    6.1245   10.4896 C   0  0  0  0  0  0  0  0  0  0  0  0
   -3.2857    6.2060   12.7386 C   0  0  0  0  0  0  0  0  0  0  0  0
   -2.6172    6.9390   13.8002 N   0  0  0  0  0  0  0  0  0  0  0  0
   -2.3147    6.4186   15.0103 C   0  0  0  0  0  0  0  0  0  0  0  0
   -1.6424    7.4701   15.7981 C   0  0  0  0  0  0  0  0  0  0  0  0
   -2.2085    8.1713   13.7602 C   0  0  0  0  0  0  0  0  0  0  0  0
   -2.2869    9.1395   12.7260 C   0  0  0  0  0  0  0  0  0  0  0  0
   -1.7584   10.4334   12.9272 C   0  0  0  0  0  0  0  0  0  0  0  0
   -1.1542   10.7641   14.1653 C   0  0  0  0  0  0  0  0  0  0  0  0
   -1.0756    9.7991   15.2014 C   0  0  0  0  0  0  0  0  0  0  0  0
   -1.6034    8.5024   14.9997 C   0  0  0  0  0  0  0  0  0  0  0  0
 20 18  1  0  0  0
 20 21  1  0  0  0
 18 17  1  0  0  0
 18 19  1  0  0  0
 17  1  1  0  0  0
  1  2  1  0  0  0
  2  3  2  0  0  0
  2  5  1  0  0  0
  5  6  2  0  0  0
  5 10  1  0  0  0
  6  7  1  0  0  0
  7  8  2  0  0  0
  8  9  1  0  0  0
  8 11  1  0  0  0
  9 10  2  0  0  0
 11 12  2  0  0  0
 11 13  2  0  0  0
 11 14  1  0  0  0
 21 22  1  0  0  0
 21 24  1  0  0  0
 22 23  2  0  0  0
 23 29  1  0  0  0
 24 25  2  0  0  0
 24 29  1  0  0  0
 25 26  1  0  0  0
 26 27  2  0  0  0
 27 28  1  0  0  0
 28 29  2  0  0  0
  1  4  1  0  0  0
 14 15  1  0  0  0
 14 16  1  0  0  0
M  END
> <minimizedAffinity>
-7.10612

$$$$
1IF7_SBR_A_555


 29 31  0  0  0  0  0  0  0  0999 V2000
   -3.2730    3.0461   12.6444 N   0  0  0  0  0  0  0  0  0  0  0  0
   -4.3218    2.0647   12.6199 C   0  0  0  0  0  0  0  0  0  0  0  0
   -4.7622    1.6967   11.5347 O   0  0  0  0  0  0  0  0  0  0  0  0
   -2.8700    3.4033   13.4686 H   0  0  0  0  0  0  0  0  0  0  0  0
   -4.7865    1.5593   13.8138 C   0  0  0  0  0  0  0  0  0  0  0  0
   -4.3344    0.3029   14.3389 C   0  0  0  0  0  0  0  0  0  0  0  0
   -4.8472   -0.2035   15.5755 C   0  0  0  0  0  0  0  0  0  0  0  0
   -5.8314    0.5567   16.3119 C   0  0  0  0  0  0  0  0  0  0  0  0
   -6.2526    1.7998   15.7667 C   0  0  0  0  0  0  0  0  0  0  0  0
   -5.7389    2.2869   14.5455 C   0  0  0  0  0  0  0  0  0  0  0  0
   -6.4531    0.1058   17.6543 S   0  0  0  0  0  0  0  0  0  0  0  0
   -6.4168    1.1864   18.6200 O   0  0  0  0  0  0  0  0  0  0  0  0
   -7.8081   -0.2548   17.4338 O   0  0  0  0  0  0  0  0  0  0  0  0
   -5.7417   -1.0977   18.2002 N   0  0  0  0  0  0  0  0  0  0  0  0
   -4.7626   -0.8665   18.3686 H   0  0  0  0  0  0  0  0  0  0  0  0
   -5.7997   -1.8615   17.5267 H   0  0  0  0  0  0  0  0  0  0  0  0
   -2.8529    3.4746   11.2142 C   0  0  0  0  0  0  0  0  0  0  0  0
   -3.4810    4.8432   10.9281 C   0  0  0  0  0  0  0  0  0  0  0  0
   -4.5479    4.7256    9.8135 C   0  0  0  0  0  0  0  0  0  0  0  0
   -4.1406    5.3527   12.2513 C   0  0  0  0  0  0  0  0  0  0  0  0
   -5.2138    6.2918   11.9729 N   0  0  0  0  0  0  0  0  0  0  0  0
   -6.5282    6.0062   12.1053 C   0  0  0  0  0  0  0  0  0  0  0  0
   -7.2916    7.2133   11.7335 C   0  0  0  0  0  0  0  0  0  0  0  0
   -5.0906    7.5207   11.5705 C   0  0  0  0  0  0  0  0  0  0  0  0
   -3.9330    8.2900   11.2857 C   0  0  0  0  0  0  0  0  0  0  0  0
   -4.0617    9.6294   10.8575 C   0  0  0  0  0  0  0  0  0  0  0  0
   -5.3491   10.2017   10.7082 C   0  0  0  0  0  0  0  0  0  0  0  0
   -6.5081    9.4351   10.9907 C   0  0  0  0  0  0  0  0  0  0  0  0
   -6.3796    8.0939   11.4213 C   0  0  0  0  0  0  0  0  0  0  0  0
 20 18  1  0  0  0
 20 21  1  0  0  0
 18 17  1  0  0  0
 18 19  1  0  0  0
 17  1  1  0  0  0
  1  2  1  0  0  0
  2  3  2  0  0  0
  2  5  1  0  0  0
  5  6  2  0  0  0
  5 10  1  0  0  0
  6  7  1  0  0  0
  7  8  2  0  0  0
  8  9  1  0  0  0
  8 11  1  0  0  0
  9 10  2  0  0  0
 11 12  2  0  0  0
 11 13  2  0  0  0
 11 14  1  0  0  0
 21 22  1  0  0  0
 21 24  1  0  0  0
 22 23  2  0  0  0
 23 29  1  0  0  0
 24 25  2  0  0  0
 24 29  1  0  0  0
 25 26  1  0  0  0
 26 27  2  0  0  0
 27 28  1  0  0  0
 28 29  2  0  0  0
  1  4  1  0  0  0
 14 15  1  0  0  0
 14 16  1  0  0  0
M  END
> <minimizedAffinity>
-7.03875

$$$$
1IF7_SBR_A_555


 29 31  0  0  0  0  0  0  0  0999 V2000
   -3.2495    4.9672   14.1118 N   0  0  0  0  0  0  0  0  0  0  0  0
   -4.5400    4.3572   13.9501 C   0  0  0  0  0  0  0  0  0  0  0  0
   -5.3084    4.8129   13.1082 O   0  0  0  0  0  0  0  0  0  0  0  0
   -2.5776    4.6722   14.7681 H   0  0  0  0  0  0  0  0  0  0  0  0
   -4.8650    3.2727   14.7345 C   0  0  0  0  0  0  0  0  0  0  0  0
   -3.8967    2.2809   15.1052 C   0  0  0  0  0  0  0  0  0  0  0  0
   -4.2682    1.1565   15.9093 C   0  0  0  0  0  0  0  0  0  0  0  0
   -5.6339    1.0134   16.3599 C   0  0  0  0  0  0  0  0  0  0  0  0
   -6.5659    2.0170   15.9800 C   0  0  0  0  0  0  0  0  0  0  0  0
   -6.1859    3.1204   15.1858 C   0  0  0  0  0  0  0  0  0  0  0  0
   -6.1451   -0.1590   17.2294 S   0  0  0  0  0  0  0  0  0  0  0  0
   -5.8313    0.0694   18.6262 O   0  0  0  0  0  0  0  0  0  0  0  0
   -7.5551   -0.2492   17.0943 O   0  0  0  0  0  0  0  0  0  0  0  0
   -5.5568   -1.4629   16.7753 N   0  0  0  0  0  0  0  0  0  0  0  0
   -4.5412   -1.4262   16.8619 H   0  0  0  0  0  0  0  0  0  0  0  0
   -5.8092   -1.6289   15.8011 H   0  0  0  0  0  0  0  0  0  0  0  0
   -3.0437    6.1471   13.1265 C   0  0  0  0  0  0  0  0  0  0  0  0
   -2.7115    7.3967   13.9495 C   0  0  0  0  0  0  0  0  0  0  0  0
   -2.4478    7.0167   15.4262 C   0  0  0  0  0  0  0  0  0  0  0  0
   -1.4356    8.0535   13.3280 C   0  0  0  0  0  0  0  0  0  0  0  0
   -1.3327    9.4535   13.7025 N   0  0  0  0  0  0  0  0  0  0  0  0
   -2.1168   10.4344   13.2028 C   0  0  0  0  0  0  0  0  0  0  0  0
   -1.7052   11.7048   13.8311 C   0  0  0  0  0  0  0  0  0  0  0  0
   -0.5026    9.9744   14.5551 C   0  0  0  0  0  0  0  0  0  0  0  0
    0.5141    9.3744   15.3422 C   0  0  0  0  0  0  0  0  0  0  0  0
    1.2960   10.1668   16.2109 C   0  0  0  0  0  0  0  0  0  0  0  0
    1.0665   11.5626   16.2912 C   0  0  0  0  0  0  0  0  0  0  0  0
    0.0520   12.1654   15.5049 C   0  0  0  0  0  0  0  0  0  0  0  0
   -0.7326   11.3718   14.6358 C   0  0  0  0  0  0  0  0  0  0  0  0
 20 18  1  0  0  0
 20 21  1  0  0  0
 18 17  1  0  0  0
 18 19  1  0  0  0
 17  1  1  0  0  0
  1  2  1  0  0  0
  2  3  2  0  0  0
  2  5  1  0  0  0
  5  6  2  0  0  0
  5 10  1  0  0  0
  6  7  1  0  0  0
  7  8  2  0  0  0
  8  9  1  0  0  0
  8 11  1  0  0  0
  9 10  2  0  0  0
 11 12  2  0  0  0
 11 13  2  0  0  0
 11 14  1  0  0  0
 21 22  1  0  0  0
 21 24  1  0  0  0
 22 23  2  0  0  0
 23 29  1  0  0  0
 24 25  2  0  0  0
 24 29  1  0  0  0
 25 26  1  0  0  0
 26 27  2  0  0  0
 27 28  1  0  0  0
 28 29  2  0  0  0
  1  4  1  0  0  0
 14 15  1  0  0  0
 14 16  1  0  0  0
M  END
> <minimizedAffinity>
-6.97940

$$$$
1IF7_SBR_A_555


 29 31  0  0  0  0  0  0  0  0999 V2000
   -2.7027    2.3178   12.7952 N   0  0  0  0  0  0  0  0  0  0  0  0
   -4.1268    2.1777   12.9209 C   0  0  0  0  0  0  0  0  0  0  0  0
   -4.8424    2.5607   11.9999 O   0  0  0  0  0  0  0  0  0  0  0  0
   -2.0578    2.0466   13.4880 H   0  0  0  0  0  0  0  0  0  0  0  0
   -4.6396    1.6047   14.0635 C   0  0  0  0  0  0  0  0  0  0  0  0
   -4.1970    0.3262   14.5414 C   0  0  0  0  0  0  0  0  0  0  0  0
   -4.7598   -0.2506   15.7243 C   0  0  0  0  0  0  0  0  0  0  0  0
   -5.7855    0.4597   16.4538 C   0  0  0  0  0  0  0  0  0  0  0  0
   -6.1961    1.7263   15.9565 C   0  0  0  0  0  0  0  0  0  0  0  0
   -5.6330    2.2829   14.7880 C   0  0  0  0  0  0  0  0  0  0  0  0
   -6.4625   -0.0684   17.7402 S   0  0  0  0  0  0  0  0  0  0  0  0
   -7.8489   -0.4054   17.4835 O   0  0  0  0  0  0  0  0  0  0  0  0
   -5.7860   -1.2414   18.1658 O   0  0  0  0  0  0  0  0  0  0  0  0
   -6.3735    0.9396   18.8485 N   0  0  0  0  0  0  0  0  0  0  0  0
   -6.8529    1.7955   18.5691 H   0  0  0  0  0  0  0  0  0  0  0  0
   -5.3936    1.1465   19.0421 H   0  0  0  0  0  0  0  0  0  0  0  0
   -2.3047    2.9483   11.4353 C   0  0  0  0  0  0  0  0  0  0  0  0
   -2.3337    4.4724   11.5953 C   0  0  0  0  0  0  0  0  0  0  0  0
   -0.9544    4.9927   12.0656 C   0  0  0  0  0  0  0  0  0  0  0  0
   -2.6962    5.0922   10.2060 C   0  0  0  0  0  0  0  0  0  0  0  0
   -3.2787    6.4144   10.3591 N   0  0  0  0  0  0  0  0  0  0  0  0
   -2.6244    7.5686   10.1013 C   0  0  0  0  0  0  0  0  0  0  0  0
   -3.5524    8.6835   10.3735 C   0  0  0  0  0  0  0  0  0  0  0  0
   -4.4853    6.6953   10.7497 C   0  0  0  0  0  0  0  0  0  0  0  0
   -5.5549    5.8462   11.1348 C   0  0  0  0  0  0  0  0  0  0  0  0
   -6.7935    6.4014   11.5241 C   0  0  0  0  0  0  0  0  0  0  0  0
   -6.9644    7.8079   11.5339 C   0  0  0  0  0  0  0  0  0  0  0  0
   -5.8969    8.6592   11.1509 C   0  0  0  0  0  0  0  0  0  0  0  0
   -4.6565    8.1034   10.7593 C   0  0  0  0  0  0  0  0  0  0  0  0
 20 18  1  0  0  0
 20 21  1  0  0  0
 18 17  1  0  0  0
 18 19  1  0  0  0
 17  1  1  0  0  0
  1  2  1  0  0  0
  2  3  2  0  0  0
  2  5  1  0  0  0
  5  6  2  0  0  0
  5 10  1  0  0  0
  6  7  1  0  0  0
  7  8  2  0  0  0
  8  9  1  0  0  0
  8 11  1  0  0  0
  9 10  2  0  0  0
 11 12  2  0  0  0
 11 13  2  0  0  0
 11 14  1  0  0  0
 21 22  1  0  0  0
 21 24  1  0  0  0
 22 23  2  0  0  0
 23 29  1  0  0  0
 24 25  2  0  0  0
 24 29  1  0  0  0
 25 26  1  0  0  0
 26 27  2  0  0  0
 27 28  1  0  0  0
 28 29  2  0  0  0
  1  4  1  0  0  0
 14 15  1  0  0  0
 14 16  1  0  0  0
M  END
> <minimizedAffinity>
-6.89362

$$$$
1IF7_SBR_A_555


 29 31  0  0  0  0  0  0  0  0999 V2000
   -3.3440    4.9262   14.0490 N   0  0  0  0  0  0  0  0  0  0  0  0
   -4.6217    4.2917   13.8800 C   0  0  0  0  0  0  0  0  0  0  0  0
   -5.3837    4.7169   13.0165 O   0  0  0  0  0  0  0  0  0  0  0  0
   -2.6780    4.6562   14.7220 H   0  0  0  0  0  0  0  0  0  0  0  0
   -4.9417    3.2188   14.6820 C   0  0  0  0  0  0  0  0  0  0  0  0
   -3.9710    2.2326   15.0613 C   0  0  0  0  0  0  0  0  0  0  0  0
   -4.3374    1.1200   15.8839 C   0  0  0  0  0  0  0  0  0  0  0  0
   -5.7004    0.9832   16.3446 C   0  0  0  0  0  0  0  0  0  0  0  0
   -6.6349    1.9810   15.9557 C   0  0  0  0  0  0  0  0  0  0  0  0
   -6.2599    3.0727   15.1433 C   0  0  0  0  0  0  0  0  0  0  0  0
   -6.2061   -0.1765   17.2341 S   0  0  0  0  0  0  0  0  0  0  0  0
   -7.6501   -0.2814   17.1605 O   0  0  0  0  0  0  0  0  0  0  0  0
   -5.6425   -1.3924   16.7665 O   0  0  0  0  0  0  0  0  0  0  0  0
   -5.7747    0.0102   18.6595 N   0  0  0  0  0  0  0  0  0  0  0  0
   -6.1666    0.8793   19.0222 H   0  0  0  0  0  0  0  0  0  0  0  0
   -4.7565    0.0518   18.7038 H   0  0  0  0  0  0  0  0  0  0  0  0
   -3.1414    6.0884   13.0422 C   0  0  0  0  0  0  0  0  0  0  0  0
   -1.6573    6.1295   12.6615 C   0  0  0  0  0  0  0  0  0  0  0  0
   -0.8958    7.1309   13.5626 C   0  0  0  0  0  0  0  0  0  0  0  0
   -1.0757    4.6898   12.8478 C   0  0  0  0  0  0  0  0  0  0  0  0
   -0.3935    4.2417   11.6458 N   0  0  0  0  0  0  0  0  0  0  0  0
   -1.0205    3.7571   10.5509 C   0  0  0  0  0  0  0  0  0  0  0  0
    0.0125    3.4178    9.5529 C   0  0  0  0  0  0  0  0  0  0  0  0
    0.8875    4.2391   11.4304 C   0  0  0  0  0  0  0  0  0  0  0  0
    1.9662    4.6449   12.2579 C   0  0  0  0  0  0  0  0  0  0  0  0
    3.2941    4.5449   11.7883 C   0  0  0  0  0  0  0  0  0  0  0  0
    3.5472    4.0338   10.4913 C   0  0  0  0  0  0  0  0  0  0  0  0
    2.4714    3.6260    9.6624 C   0  0  0  0  0  0  0  0  0  0  0  0
    1.1409    3.7277   10.1318 C   0  0  0  0  0  0  0  0  0  0  0  0
 20 18  1  0  0  0
 20 21  1  0  0  0
 18 17  1  0  0  0
 18 19  1  0  0  0
 17  1  1  0  0  0
  1  2  1  0  0  0
  2  3  2  0  0  0
  2  5  1  0  0  0
  5  6  2  0  0  0
  5 10  1  0  0  0
  6  7  1  0  0  0
  7  8  2  0  0  0
  8  9  1  0  0  0
  8 11  1  0  0  0
  9 10  2  0  0  0
 11 12  2  0  0  0
 11 13  2  0  0  0
 11 14  1  0  0  0
 21 22  1  0  0  0
 21 24  1  0  0  0
 22 23  2  0  0  0
 23 29  1  0  0  0
 24 25  2  0  0  0
 24 29  1  0  0  0
 25 26  1  0  0  0
 26 27  2  0  0  0
 27 28  1  0  0  0
 28 29  2  0  0  0
  1  4  1  0  0  0
 14 15  1  0  0  0
 14 16  1  0  0  0
M  END
> <minimizedAffinity>
-6.84227

$$$$
1IF7_SBR_A_555


 29 31  0  0  0  0  0  0  0  0999 V2000
   -1.7612    7.7040   13.4499 N   0  0  0  0  0  0  0  0  0  0  0  0
   -2.1698    7.1513   14.7114 C   0  0  0  0  0  0  0  0  0  0  0  0
   -2.1075    7.8567   15.7142 O   0  0  0  0  0  0  0  0  0  0  0  0
   -1.7696    7.2065   12.6004 H   0  0  0  0  0  0  0  0  0  0  0  0
   -2.6315    5.8543   14.7500 C   0  0  0  0  0  0  0  0  0  0  0  0
   -1.7887    4.7343   14.4438 C   0  0  0  0  0  0  0  0  0  0  0  0
   -2.3015    3.3984   14.4778 C   0  0  0  0  0  0  0  0  0  0  0  0
   -3.6847    3.1669   14.8272 C   0  0  0  0  0  0  0  0  0  0  0  0
   -4.4899    4.2980   15.1310 C   0  0  0  0  0  0  0  0  0  0  0  0
   -3.9712    5.6102   15.0927 C   0  0  0  0  0  0  0  0  0  0  0  0
   -4.3432    1.7691   14.8938 S   0  0  0  0  0  0  0  0  0  0  0  0
   -3.8518    1.0296   16.0399 O   0  0  0  0  0  0  0  0  0  0  0  0
   -5.7468    1.9296   15.0304 O   0  0  0  0  0  0  0  0  0  0  0  0
   -4.0910    0.9941   13.6335 N   0  0  0  0  0  0  0  0  0  0  0  0
   -3.0870    0.8636   13.5098 H   0  0  0  0  0  0  0  0  0  0  0  0
   -4.4677    1.5082   12.8371 H   0  0  0  0  0  0  0  0  0  0  0  0
   -1.3052    9.1798   13.5894 C   0  0  0  0  0  0  0  0  0  0  0  0
   -2.3087   10.0572   12.8328 C   0  0  0  0  0  0  0  0  0  0  0  0
   -1.7008   11.4516   12.5489 C   0  0  0  0  0  0  0  0  0  0  0  0
   -2.6539    9.3379   11.4878 C   0  0  0  0  0  0  0  0  0  0  0  0
   -4.0893    9.3069   11.2647 N   0  0  0  0  0  0  0  0  0  0  0  0
   -4.8218   10.3733   10.8736 C   0  0  0  0  0  0  0  0  0  0  0  0
   -6.2266    9.9366   10.7554 C   0  0  0  0  0  0  0  0  0  0  0  0
   -4.8772    8.2823   11.3938 C   0  0  0  0  0  0  0  0  0  0  0  0
   -4.6011    6.9447   11.7783 C   0  0  0  0  0  0  0  0  0  0  0  0
   -5.6463    5.9974   11.8430 C   0  0  0  0  0  0  0  0  0  0  0  0
   -6.9717    6.3865   11.5280 C   0  0  0  0  0  0  0  0  0  0  0  0
   -7.2511    7.7229   11.1448 C   0  0  0  0  0  0  0  0  0  0  0  0
   -6.2042    8.6717   11.0782 C   0  0  0  0  0  0  0  0  0  0  0  0
 20 18  1  0  0  0
 20 21  1  0  0  0
 18 17  1  0  0  0
 18 19  1  0  0  0
 17  1  1  0  0  0
  1  2  1  0  0  0
  2  3  2  0  0  0
  2  5  1  0  0  0
  5  6  2  0  0  0
  5 10  1  0  0  0
  6  7  1  0  0  0
  7  8  2  0  0  0
  8  9  1  0  0  0
  8 11  1  0  0  0
  9 10  2  0  0  0
 11 12  2  0  0  0
 11 13  2  0  0  0
 11 14  1  0  0  0
 21 22  1  0  0  0
 21 24  1  0  0  0
 22 23  2  0  0  0
 23 29  1  0  0  0
 24 25  2  0  0  0
 24 29  1  0  0  0
 25 26  1  0  0  0
 26 27  2  0  0  0
 27 28  1  0  0  0
 28 29  2  0  0  0
  1  4  1  0  0  0
 14 15  1  0  0  0
 14 16  1  0  0  0
M  END
> <minimizedAffinity>
-6.80681

$$$$
