1D7J_BUQ_A_311


  7  6  0  0  0  0  0  0  0  0999 V2000
   60.5563   -4.0687   -2.1911 C   0  0  0  0  0  0  0  0  0  0  0  0
   61.0665   -6.0046   -0.4705 C   0  0  0  0  0  0  0  0  0  0  0  0
   60.2797   -5.4603   -1.6427 C   0  0  0  0  0  0  0  0  0  0  0  0
   59.4126   -6.1760   -2.1485 O   0  0  0  0  0  0  0  0  0  0  0  0
   59.2886   -3.3311   -2.6213 C   0  0  0  0  0  0  0  0  0  0  0  0
   58.9275   -2.1526   -1.9125 O   0  0  0  0  0  0  0  0  0  0  0  0
   58.7172   -2.3799   -0.9932 H   0  0  0  0  0  0  0  0  0  0  0  0
  2  3  1  0  0  0
  3  4  2  0  0  0
  3  1  1  0  0  0
  1  5  1  0  0  0
  5  6  1  0  0  0
  6  7  1  0  0  0
M  END
> <minimizedAffinity>
-3.86727

$$$$
1D7J_BUQ_A_311


  7  6  0  0  0  0  0  0  0  0999 V2000
   60.7199   -3.8502   -2.1478 C   0  0  0  0  0  0  0  0  0  0  0  0
   61.0646   -5.9072   -0.5295 C   0  0  0  0  0  0  0  0  0  0  0  0
   60.9755   -4.4142   -0.7583 C   0  0  0  0  0  0  0  0  0  0  0  0
   61.1078   -3.6644    0.2114 O   0  0  0  0  0  0  0  0  0  0  0  0
   59.3432   -3.2011   -2.2874 C   0  0  0  0  0  0  0  0  0  0  0  0
   59.0802   -2.0228   -1.5363 O   0  0  0  0  0  0  0  0  0  0  0  0
   59.1011   -2.2317   -0.5893 H   0  0  0  0  0  0  0  0  0  0  0  0
  2  3  1  0  0  0
  3  4  2  0  0  0
  3  1  1  0  0  0
  1  5  1  0  0  0
  5  6  1  0  0  0
  6  7  1  0  0  0
M  END
> <minimizedAffinity>
-3.75845

$$$$
1D7J_BUQ_A_311


  7  6  0  0  0  0  0  0  0  0999 V2000
   60.6891   -5.4233   -1.8099 C   0  0  0  0  0  0  0  0  0  0  0  0
   61.0331   -3.0262   -0.7590 C   0  0  0  0  0  0  0  0  0  0  0  0
   60.4898   -3.9159   -1.8557 C   0  0  0  0  0  0  0  0  0  0  0  0
   59.8741   -3.3897   -2.7852 O   0  0  0  0  0  0  0  0  0  0  0  0
   61.0455   -5.9387   -0.4158 C   0  0  0  0  0  0  0  0  0  0  0  0
   59.9944   -6.4371    0.4018 O   0  0  0  0  0  0  0  0  0  0  0  0
   59.3795   -5.7171    0.6125 H   0  0  0  0  0  0  0  0  0  0  0  0
  2  3  1  0  0  0
  3  4  2  0  0  0
  3  1  1  0  0  0
  1  5  1  0  0  0
  5  6  1  0  0  0
  6  7  1  0  0  0
M  END
> <minimizedAffinity>
-3.71993

$$$$
1D7J_BUQ_A_311


  7  6  0  0  0  0  0  0  0  0999 V2000
   60.4281   -3.6931   -2.3989 C   0  0  0  0  0  0  0  0  0  0  0  0
   61.1074   -4.6983   -0.0544 C   0  0  0  0  0  0  0  0  0  0  0  0
   60.8060   -4.8802   -1.5259 C   0  0  0  0  0  0  0  0  0  0  0  0
   60.8814   -6.0144   -2.0030 O   0  0  0  0  0  0  0  0  0  0  0  0
   58.9985   -3.7737   -2.9340 C   0  0  0  0  0  0  0  0  0  0  0  0
   58.4198   -5.0613   -3.1040 O   0  0  0  0  0  0  0  0  0  0  0  0
   58.9095   -5.5485   -3.7849 H   0  0  0  0  0  0  0  0  0  0  0  0
  2  3  1  0  0  0
  3  4  2  0  0  0
  3  1  1  0  0  0
  1  5  1  0  0  0
  5  6  1  0  0  0
  6  7  1  0  0  0
M  END
> <minimizedAffinity>
-3.67492

$$$$
1D7J_BUQ_A_311


  7  6  0  0  0  0  0  0  0  0999 V2000
   61.0791   -4.1211    0.0203 C   0  0  0  0  0  0  0  0  0  0  0  0
   60.6402   -5.9709   -1.8111 C   0  0  0  0  0  0  0  0  0  0  0  0
   60.5901   -5.5072   -0.3717 C   0  0  0  0  0  0  0  0  0  0  0  0
   60.1359   -6.2782    0.4762 O   0  0  0  0  0  0  0  0  0  0  0  0
   60.9290   -3.0932   -1.1009 C   0  0  0  0  0  0  0  0  0  0  0  0
   59.7453   -2.3062   -1.1325 O   0  0  0  0  0  0  0  0  0  0  0  0
   58.9796   -2.8801   -1.2917 H   0  0  0  0  0  0  0  0  0  0  0  0
  2  3  1  0  0  0
  3  4  2  0  0  0
  3  1  1  0  0  0
  1  5  1  0  0  0
  5  6  1  0  0  0
  6  7  1  0  0  0
M  END
> <minimizedAffinity>
-3.59205

$$$$
1D7J_BUQ_A_311


  7  6  0  0  0  0  0  0  0  0999 V2000
   61.2016   -5.2718   -0.3013 C   0  0  0  0  0  0  0  0  0  0  0  0
   61.0805   -2.6562   -0.6369 C   0  0  0  0  0  0  0  0  0  0  0  0
   60.7781   -3.8927    0.1811 C   0  0  0  0  0  0  0  0  0  0  0  0
   60.1856   -3.7547    1.2534 O   0  0  0  0  0  0  0  0  0  0  0  0
   60.0184   -6.1948   -0.5916 C   0  0  0  0  0  0  0  0  0  0  0  0
   58.9594   -6.2426    0.3560 O   0  0  0  0  0  0  0  0  0  0  0  0
   59.2897   -6.6077    1.1917 H   0  0  0  0  0  0  0  0  0  0  0  0
  2  3  1  0  0  0
  3  4  2  0  0  0
  3  1  1  0  0  0
  1  5  1  0  0  0
  5  6  1  0  0  0
  6  7  1  0  0  0
M  END
> <minimizedAffinity>
-3.56023

$$$$
1D7J_BUQ_A_311


  7  6  0  0  0  0  0  0  0  0999 V2000
   58.8388   -3.9901   -1.5919 C   0  0  0  0  0  0  0  0  0  0  0  0
   60.9733   -2.7172   -0.7018 C   0  0  0  0  0  0  0  0  0  0  0  0
   59.5409   -2.7022   -1.1890 C   0  0  0  0  0  0  0  0  0  0  0  0
   58.9529   -1.6200   -1.2447 O   0  0  0  0  0  0  0  0  0  0  0  0
   58.7312   -4.1655   -3.1065 C   0  0  0  0  0  0  0  0  0  0  0  0
   58.8399   -3.0068   -3.9233 O   0  0  0  0  0  0  0  0  0  0  0  0
   58.0941   -2.4133   -3.7433 H   0  0  0  0  0  0  0  0  0  0  0  0
  2  3  1  0  0  0
  3  4  2  0  0  0
  3  1  1  0  0  0
  1  5  1  0  0  0
  5  6  1  0  0  0
  6  7  1  0  0  0
M  END
> <minimizedAffinity>
-3.47663

$$$$
1D7J_BUQ_A_311


  7  6  0  0  0  0  0  0  0  0999 V2000
   59.4701   -4.1693   -2.2763 C   0  0  0  0  0  0  0  0  0  0  0  0
   60.9761   -2.7106   -0.6723 C   0  0  0  0  0  0  0  0  0  0  0  0
   59.7288   -2.8798   -1.5119 C   0  0  0  0  0  0  0  0  0  0  0  0
   58.9219   -1.9487   -1.5559 O   0  0  0  0  0  0  0  0  0  0  0  0
   59.8935   -5.4188   -1.5045 C   0  0  0  0  0  0  0  0  0  0  0  0
   61.0199   -6.1467   -1.9767 O   0  0  0  0  0  0  0  0  0  0  0  0
   60.8224   -6.5167   -2.8513 H   0  0  0  0  0  0  0  0  0  0  0  0
  2  3  1  0  0  0
  3  4  2  0  0  0
  3  1  1  0  0  0
  1  5  1  0  0  0
  5  6  1  0  0  0
  6  7  1  0  0  0
M  END
> <minimizedAffinity>
-3.42790

$$$$
1D7J_BUQ_A_311


  7  6  0  0  0  0  0  0  0  0999 V2000
   60.8367   -4.5673    0.0681 C   0  0  0  0  0  0  0  0  0  0  0  0
   60.4668   -3.6594   -2.3829 C   0  0  0  0  0  0  0  0  0  0  0  0
   60.7743   -4.7974   -1.4343 C   0  0  0  0  0  0  0  0  0  0  0  0
   60.9662   -5.9191   -1.9085 O   0  0  0  0  0  0  0  0  0  0  0  0
   59.8086   -5.3905    0.8437 C   0  0  0  0  0  0  0  0  0  0  0  0
   58.8772   -6.1677    0.1020 O   0  0  0  0  0  0  0  0  0  0  0  0
   58.3047   -5.5797   -0.4151 H   0  0  0  0  0  0  0  0  0  0  0  0
  2  3  1  0  0  0
  3  4  2  0  0  0
  3  1  1  0  0  0
  1  5  1  0  0  0
  5  6  1  0  0  0
  6  7  1  0  0  0
M  END
> <minimizedAffinity>
-3.42687

$$$$
1D7J_BUQ_A_311


  7  6  0  0  0  0  0  0  0  0999 V2000
   60.5815   -4.7995   -2.0071 C   0  0  0  0  0  0  0  0  0  0  0  0
   58.8138   -3.5081   -3.4824 C   0  0  0  0  0  0  0  0  0  0  0  0
   59.7586   -3.5544   -2.3015 C   0  0  0  0  0  0  0  0  0  0  0  0
   59.8512   -2.5544   -1.5864 O   0  0  0  0  0  0  0  0  0  0  0  0
   60.9013   -4.9693   -0.5222 C   0  0  0  0  0  0  0  0  0  0  0  0
   61.5450   -3.8946    0.1504 O   0  0  0  0  0  0  0  0  0  0  0  0
   62.4297   -3.7620   -0.2246 H   0  0  0  0  0  0  0  0  0  0  0  0
  2  3  1  0  0  0
  3  4  2  0  0  0
  3  1  1  0  0  0
  1  5  1  0  0  0
  5  6  1  0  0  0
  6  7  1  0  0  0
M  END
> <minimizedAffinity>
-3.33239

$$$$
