1OWE_675_A_1001


 26 28  0  0  0  0  0  0  0  0999 V2000
   19.2807   18.6303   33.6165 C   0  0  0  0  0  0  0  0  0  0  0  0
   19.0116   17.4753   32.7939 C   0  0  0  0  0  0  0  0  0  0  0  0
   19.8520   16.3424   32.6091 C   0  0  0  0  0  0  0  0  0  0  0  0
   21.1020   16.3650   33.2729 C   0  0  0  0  0  0  0  0  0  0  0  0
   22.0355   15.3536   33.0825 C   0  0  0  0  0  0  0  0  0  0  0  0
   23.3619   15.3739   33.6455 C   0  0  0  0  0  0  0  0  0  0  0  0
   23.5863   16.6056   34.4230 C   0  0  0  0  0  0  0  0  0  0  0  0
   22.7127   17.6503   34.6386 C   0  0  0  0  0  0  0  0  0  0  0  0
   21.4796   17.5157   34.0712 C   0  0  0  0  0  0  0  0  0  0  0  0
   20.5919   18.5519   34.2019 C   0  0  0  0  0  0  0  0  0  0  0  0
   17.0111   19.4244   33.7390 N   0  0  0  0  0  0  0  0  0  0  0  0
   18.3264   19.7616   33.8344 C   0  0  0  0  0  0  0  0  0  0  0  0
   18.7869   21.0268   34.0803 N   0  0  0  0  0  0  0  0  0  0  0  0
   16.3165   20.1100   33.8689 H   0  0  0  0  0  0  0  0  0  0  0  0
   18.1497   21.7637   34.2222 H   0  0  0  0  0  0  0  0  0  0  0  0
   19.7555   21.1999   34.1153 H   0  0  0  0  0  0  0  0  0  0  0  0
   24.3726   14.3394   33.4759 C   0  0  0  0  0  0  0  0  0  0  0  0
   25.5419   14.7019   33.4159 O   0  0  0  0  0  0  0  0  0  0  0  0
   23.8963   13.0885   33.1756 N   0  0  0  0  0  0  0  0  0  0  0  0
   22.9230   12.9412   33.1622 H   0  0  0  0  0  0  0  0  0  0  0  0
   24.7336   12.0307   32.8919 C   0  0  0  0  0  0  0  0  0  0  0  0
   24.7567   11.0824   33.9196 C   0  0  0  0  0  0  0  0  0  0  0  0
   25.6184    9.9890   33.8272 C   0  0  0  0  0  0  0  0  0  0  0  0
   26.3981    9.8414   32.6379 C   0  0  0  0  0  0  0  0  0  0  0  0
   26.3172   10.7250   31.5643 C   0  0  0  0  0  0  0  0  0  0  0  0
   25.4660   11.8347   31.6890 C   0  0  0  0  0  0  0  0  0  0  0  0
 11 12  2  0  0  0
 12 13  1  0  0  0
 12  1  1  0  0  0
  1  2  2  0  0  0
  1 10  1  0  0  0
  2  3  1  0  0  0
  3  4  2  0  0  0
  4  5  1  0  0  0
  4  9  1  0  0  0
  5  6  2  0  0  0
  6  7  1  0  0  0
  6 17  1  0  0  0
  7  8  2  0  0  0
  8  9  1  0  0  0
  9 10  2  0  0  0
 17 18  2  0  0  0
 17 19  1  0  0  0
 19 21  1  0  0  0
 21 22  2  0  0  0
 21 26  1  0  0  0
 22 23  1  0  0  0
 23 24  2  0  0  0
 24 25  1  0  0  0
 25 26  2  0  0  0
 11 14  1  0  0  0
 13 15  1  0  0  0
 13 16  1  0  0  0
 19 20  1  0  0  0
M  END
> <minimizedAffinity>
-8.23581

$$$$
1OWE_675_A_1001


 26 28  0  0  0  0  0  0  0  0999 V2000
   19.2217   18.7692   33.3240 C   0  0  0  0  0  0  0  0  0  0  0  0
   18.7502   17.6340   32.5678 C   0  0  0  0  0  0  0  0  0  0  0  0
   19.5305   16.5520   32.0732 C   0  0  0  0  0  0  0  0  0  0  0  0
   20.9237   16.6120   32.3160 C   0  0  0  0  0  0  0  0  0  0  0  0
   21.7864   15.6562   31.7935 C   0  0  0  0  0  0  0  0  0  0  0  0
   23.2206   15.7215   31.9167 C   0  0  0  0  0  0  0  0  0  0  0  0
   23.6328   16.9328   32.6478 C   0  0  0  0  0  0  0  0  0  0  0  0
   22.8338   17.9239   33.1775 C   0  0  0  0  0  0  0  0  0  0  0  0
   21.4908   17.7494   33.0152 C   0  0  0  0  0  0  0  0  0  0  0  0
   20.6521   18.7344   33.4682 C   0  0  0  0  0  0  0  0  0  0  0  0
   17.0235   19.5190   33.9588 N   0  0  0  0  0  0  0  0  0  0  0  0
   18.3437   19.8426   33.8852 C   0  0  0  0  0  0  0  0  0  0  0  0
   18.8679   21.0510   34.2569 N   0  0  0  0  0  0  0  0  0  0  0  0
   16.3765   20.1692   34.3164 H   0  0  0  0  0  0  0  0  0  0  0  0
   18.2806   21.7501   34.6251 H   0  0  0  0  0  0  0  0  0  0  0  0
   19.8324   21.2212   34.1561 H   0  0  0  0  0  0  0  0  0  0  0  0
   24.1639   14.7457   31.3887 C   0  0  0  0  0  0  0  0  0  0  0  0
   24.1953   14.5969   30.1725 O   0  0  0  0  0  0  0  0  0  0  0  0
   24.7600   13.9333   32.3195 N   0  0  0  0  0  0  0  0  0  0  0  0
   24.5815   14.0938   33.2743 H   0  0  0  0  0  0  0  0  0  0  0  0
   25.6004   12.8999   31.9640 C   0  0  0  0  0  0  0  0  0  0  0  0
   24.9783   11.6515   32.0662 C   0  0  0  0  0  0  0  0  0  0  0  0
   25.7166   10.4932   31.8223 C   0  0  0  0  0  0  0  0  0  0  0  0
   27.0756   10.6340   31.4008 C   0  0  0  0  0  0  0  0  0  0  0  0
   27.6830   11.8715   31.2022 C   0  0  0  0  0  0  0  0  0  0  0  0
   26.9320   13.0247   31.4812 C   0  0  0  0  0  0  0  0  0  0  0  0
 11 12  2  0  0  0
 12 13  1  0  0  0
 12  1  1  0  0  0
  1  2  2  0  0  0
  1 10  1  0  0  0
  2  3  1  0  0  0
  3  4  2  0  0  0
  4  5  1  0  0  0
  4  9  1  0  0  0
  5  6  2  0  0  0
  6  7  1  0  0  0
  6 17  1  0  0  0
  7  8  2  0  0  0
  8  9  1  0  0  0
  9 10  2  0  0  0
 17 18  2  0  0  0
 17 19  1  0  0  0
 19 21  1  0  0  0
 21 22  2  0  0  0
 21 26  1  0  0  0
 22 23  1  0  0  0
 23 24  2  0  0  0
 24 25  1  0  0  0
 25 26  2  0  0  0
 11 14  1  0  0  0
 13 15  1  0  0  0
 13 16  1  0  0  0
 19 20  1  0  0  0
M  END
> <minimizedAffinity>
-7.95398

$$$$
1OWE_675_A_1001


 26 28  0  0  0  0  0  0  0  0999 V2000
   19.2544   18.1197   33.2817 C   0  0  0  0  0  0  0  0  0  0  0  0
   20.1335   18.4027   34.3907 C   0  0  0  0  0  0  0  0  0  0  0  0
   21.4474   17.8956   34.5917 C   0  0  0  0  0  0  0  0  0  0  0  0
   21.9322   16.9876   33.6199 C   0  0  0  0  0  0  0  0  0  0  0  0
   23.1632   16.3613   33.7720 C   0  0  0  0  0  0  0  0  0  0  0  0
   23.6623   15.3512   32.8736 C   0  0  0  0  0  0  0  0  0  0  0  0
   22.6907   15.0720   31.8013 C   0  0  0  0  0  0  0  0  0  0  0  0
   21.4520   15.6437   31.6013 C   0  0  0  0  0  0  0  0  0  0  0  0
   21.0901   16.5998   32.5043 C   0  0  0  0  0  0  0  0  0  0  0  0
   19.8435   17.1579   32.3895 C   0  0  0  0  0  0  0  0  0  0  0  0
   17.2812   18.3843   31.9277 N   0  0  0  0  0  0  0  0  0  0  0  0
   17.9082   18.7410   33.0821 C   0  0  0  0  0  0  0  0  0  0  0  0
   17.3990   19.6162   34.0029 N   0  0  0  0  0  0  0  0  0  0  0  0
   16.3907   18.7483   31.7185 H   0  0  0  0  0  0  0  0  0  0  0  0
   16.5119   20.0190   33.8611 H   0  0  0  0  0  0  0  0  0  0  0  0
   17.9198   19.8430   34.8070 H   0  0  0  0  0  0  0  0  0  0  0  0
   24.9434   14.6687   32.9901 C   0  0  0  0  0  0  0  0  0  0  0  0
   25.8242   15.2338   33.6281 O   0  0  0  0  0  0  0  0  0  0  0  0
   25.1047   13.5689   32.1863 N   0  0  0  0  0  0  0  0  0  0  0  0
   24.3438   13.2625   31.6418 H   0  0  0  0  0  0  0  0  0  0  0  0
   26.2954   12.8779   32.1145 C   0  0  0  0  0  0  0  0  0  0  0  0
   26.2744   11.7048   32.8757 C   0  0  0  0  0  0  0  0  0  0  0  0
   27.4305   10.9306   32.9782 C   0  0  0  0  0  0  0  0  0  0  0  0
   28.5820   11.3333   32.2324 C   0  0  0  0  0  0  0  0  0  0  0  0
   28.5912   12.4461   31.3948 C   0  0  0  0  0  0  0  0  0  0  0  0
   27.4271   13.2284   31.3282 C   0  0  0  0  0  0  0  0  0  0  0  0
 11 12  2  0  0  0
 12 13  1  0  0  0
 12  1  1  0  0  0
  1  2  2  0  0  0
  1 10  1  0  0  0
  2  3  1  0  0  0
  3  4  2  0  0  0
  4  5  1  0  0  0
  4  9  1  0  0  0
  5  6  2  0  0  0
  6  7  1  0  0  0
  6 17  1  0  0  0
  7  8  2  0  0  0
  8  9  1  0  0  0
  9 10  2  0  0  0
 17 18  2  0  0  0
 17 19  1  0  0  0
 19 21  1  0  0  0
 21 22  2  0  0  0
 21 26  1  0  0  0
 22 23  1  0  0  0
 23 24  2  0  0  0
 24 25  1  0  0  0
 25 26  2  0  0  0
 11 14  1  0  0  0
 13 15  1  0  0  0
 13 16  1  0  0  0
 19 20  1  0  0  0
M  END
> <minimizedAffinity>
-7.16551

$$$$
1OWE_675_A_1001


 26 28  0  0  0  0  0  0  0  0999 V2000
   25.1850   18.1428   30.2856 C   0  0  0  0  0  0  0  0  0  0  0  0
   26.1035   17.0859   29.9360 C   0  0  0  0  0  0  0  0  0  0  0  0
   26.0224   15.7193   30.3234 C   0  0  0  0  0  0  0  0  0  0  0  0
   24.9471   15.3637   31.1724 C   0  0  0  0  0  0  0  0  0  0  0  0
   24.8312   14.0775   31.6855 C   0  0  0  0  0  0  0  0  0  0  0  0
   23.8218   13.6841   32.6357 C   0  0  0  0  0  0  0  0  0  0  0  0
   22.9580   14.8242   32.9903 C   0  0  0  0  0  0  0  0  0  0  0  0
   23.0268   16.1228   32.5318 C   0  0  0  0  0  0  0  0  0  0  0  0
   24.0117   16.3766   31.6229 C   0  0  0  0  0  0  0  0  0  0  0  0
   24.1651   17.6646   31.1796 C   0  0  0  0  0  0  0  0  0  0  0  0
   24.0792   20.1462   29.5371 N   0  0  0  0  0  0  0  0  0  0  0  0
   25.2772   19.5505   29.7876 C   0  0  0  0  0  0  0  0  0  0  0  0
   26.4948   20.1428   29.5881 N   0  0  0  0  0  0  0  0  0  0  0  0
   24.0500   21.0730   29.2063 H   0  0  0  0  0  0  0  0  0  0  0  0
   26.5434   21.0698   29.2600 H   0  0  0  0  0  0  0  0  0  0  0  0
   27.3220   19.6420   29.7726 H   0  0  0  0  0  0  0  0  0  0  0  0
   23.6595   12.3514   33.1997 C   0  0  0  0  0  0  0  0  0  0  0  0
   22.5826   12.0913   33.7239 O   0  0  0  0  0  0  0  0  0  0  0  0
   24.8043   11.6006   33.2861 N   0  0  0  0  0  0  0  0  0  0  0  0
   25.6386   11.9608   32.9074 H   0  0  0  0  0  0  0  0  0  0  0  0
   24.8268   10.3590   33.8848 C   0  0  0  0  0  0  0  0  0  0  0  0
   24.7333    9.3195   32.9538 C   0  0  0  0  0  0  0  0  0  0  0  0
   24.6583    8.0002   33.4012 C   0  0  0  0  0  0  0  0  0  0  0  0
   24.7557    7.7565   34.8067 C   0  0  0  0  0  0  0  0  0  0  0  0
   24.9443    8.7724   35.7406 C   0  0  0  0  0  0  0  0  0  0  0  0
   24.9878   10.0956   35.2728 C   0  0  0  0  0  0  0  0  0  0  0  0
 11 12  2  0  0  0
 12 13  1  0  0  0
 12  1  1  0  0  0
  1  2  2  0  0  0
  1 10  1  0  0  0
  2  3  1  0  0  0
  3  4  2  0  0  0
  4  5  1  0  0  0
  4  9  1  0  0  0
  5  6  2  0  0  0
  6  7  1  0  0  0
  6 17  1  0  0  0
  7  8  2  0  0  0
  8  9  1  0  0  0
  9 10  2  0  0  0
 17 18  2  0  0  0
 17 19  1  0  0  0
 19 21  1  0  0  0
 21 22  2  0  0  0
 21 26  1  0  0  0
 22 23  1  0  0  0
 23 24  2  0  0  0
 24 25  1  0  0  0
 25 26  2  0  0  0
 11 14  1  0  0  0
 13 15  1  0  0  0
 13 16  1  0  0  0
 19 20  1  0  0  0
M  END
> <minimizedAffinity>
-7.01002

$$$$
1OWE_675_A_1001


 26 28  0  0  0  0  0  0  0  0999 V2000
   25.6691    9.2669   32.0193 C   0  0  0  0  0  0  0  0  0  0  0  0
   24.5694    9.1982   32.9514 C   0  0  0  0  0  0  0  0  0  0  0  0
   23.7301   10.2701   33.3645 C   0  0  0  0  0  0  0  0  0  0  0  0
   24.0266   11.5485   32.8340 C   0  0  0  0  0  0  0  0  0  0  0  0
   23.3295   12.6775   33.2464 C   0  0  0  0  0  0  0  0  0  0  0  0
   23.6543   14.0162   32.8235 C   0  0  0  0  0  0  0  0  0  0  0  0
   24.8197   14.0164   31.9215 C   0  0  0  0  0  0  0  0  0  0  0  0
   25.5626   12.9395   31.4859 C   0  0  0  0  0  0  0  0  0  0  0  0
   25.1541   11.7190   31.9374 C   0  0  0  0  0  0  0  0  0  0  0  0
   25.8931   10.6196   31.5853 C   0  0  0  0  0  0  0  0  0  0  0  0
   26.3261    7.7769   30.2459 N   0  0  0  0  0  0  0  0  0  0  0  0
   26.4728    8.0909   31.5622 C   0  0  0  0  0  0  0  0  0  0  0  0
   27.2595    7.3977   32.4419 N   0  0  0  0  0  0  0  0  0  0  0  0
   26.8198    7.0159   29.8633 H   0  0  0  0  0  0  0  0  0  0  0  0
   27.7842    6.6253   32.1300 H   0  0  0  0  0  0  0  0  0  0  0  0
   27.3008    7.6716   33.3867 H   0  0  0  0  0  0  0  0  0  0  0  0
   22.9540   15.2277   33.2262 C   0  0  0  0  0  0  0  0  0  0  0  0
   23.4256   15.8637   34.1618 O   0  0  0  0  0  0  0  0  0  0  0  0
   21.7159   15.4115   32.6648 N   0  0  0  0  0  0  0  0  0  0  0  0
   21.4035   14.7731   31.9837 H   0  0  0  0  0  0  0  0  0  0  0  0
   20.8942   16.4593   33.0215 C   0  0  0  0  0  0  0  0  0  0  0  0
   19.5807   16.0445   33.2636 C   0  0  0  0  0  0  0  0  0  0  0  0
   18.6018   16.9950   33.5547 C   0  0  0  0  0  0  0  0  0  0  0  0
   19.0008   18.3633   33.6679 C   0  0  0  0  0  0  0  0  0  0  0  0
   20.3213   18.7820   33.5236 C   0  0  0  0  0  0  0  0  0  0  0  0
   21.2864   17.8141   33.2020 C   0  0  0  0  0  0  0  0  0  0  0  0
 11 12  2  0  0  0
 12 13  1  0  0  0
 12  1  1  0  0  0
  1  2  2  0  0  0
  1 10  1  0  0  0
  2  3  1  0  0  0
  3  4  2  0  0  0
  4  5  1  0  0  0
  4  9  1  0  0  0
  5  6  2  0  0  0
  6  7  1  0  0  0
  6 17  1  0  0  0
  7  8  2  0  0  0
  8  9  1  0  0  0
  9 10  2  0  0  0
 17 18  2  0  0  0
 17 19  1  0  0  0
 19 21  1  0  0  0
 21 22  2  0  0  0
 21 26  1  0  0  0
 22 23  1  0  0  0
 23 24  2  0  0  0
 24 25  1  0  0  0
 25 26  2  0  0  0
 11 14  1  0  0  0
 13 15  1  0  0  0
 13 16  1  0  0  0
 19 20  1  0  0  0
M  END
> <minimizedAffinity>
-6.97577

$$$$
1OWE_675_A_1001


 26 28  0  0  0  0  0  0  0  0999 V2000
   24.6332    9.3035   34.9665 C   0  0  0  0  0  0  0  0  0  0  0  0
   23.3214    9.8416   34.6974 C   0  0  0  0  0  0  0  0  0  0  0  0
   23.0044   10.9377   33.8475 C   0  0  0  0  0  0  0  0  0  0  0  0
   24.0938   11.5951   33.2275 C   0  0  0  0  0  0  0  0  0  0  0  0
   23.9012   12.7345   32.4559 C   0  0  0  0  0  0  0  0  0  0  0  0
   24.9774   13.5065   31.8880 C   0  0  0  0  0  0  0  0  0  0  0  0
   26.2860   12.9339   32.2505 C   0  0  0  0  0  0  0  0  0  0  0  0
   26.5470   11.8202   33.0205 C   0  0  0  0  0  0  0  0  0  0  0  0
   25.4515   11.1583   33.4920 C   0  0  0  0  0  0  0  0  0  0  0  0
   25.6526   10.0797   34.3136 C   0  0  0  0  0  0  0  0  0  0  0  0
   26.1627    7.5960   35.7028 N   0  0  0  0  0  0  0  0  0  0  0  0
   24.9025    8.0990   35.8119 C   0  0  0  0  0  0  0  0  0  0  0  0
   23.9187    7.5625   36.5977 N   0  0  0  0  0  0  0  0  0  0  0  0
   26.4233    6.8035   36.2254 H   0  0  0  0  0  0  0  0  0  0  0  0
   24.1073    6.7696   37.1500 H   0  0  0  0  0  0  0  0  0  0  0  0
   23.0223    7.9696   36.6107 H   0  0  0  0  0  0  0  0  0  0  0  0
   24.8259   14.7039   31.0733 C   0  0  0  0  0  0  0  0  0  0  0  0
   24.3014   14.5717   29.9735 O   0  0  0  0  0  0  0  0  0  0  0  0
   25.4882   15.8167   31.5259 N   0  0  0  0  0  0  0  0  0  0  0  0
   25.9581   15.7716   32.3899 H   0  0  0  0  0  0  0  0  0  0  0  0
   25.5186   16.9960   30.8126 C   0  0  0  0  0  0  0  0  0  0  0  0
   26.7516   17.2053   30.1863 C   0  0  0  0  0  0  0  0  0  0  0  0
   26.9770   18.3939   29.4915 C   0  0  0  0  0  0  0  0  0  0  0  0
   25.9005   19.3287   29.3840 C   0  0  0  0  0  0  0  0  0  0  0  0
   24.6368   19.0941   29.9206 C   0  0  0  0  0  0  0  0  0  0  0  0
   24.4389   17.9053   30.6411 C   0  0  0  0  0  0  0  0  0  0  0  0
 11 12  2  0  0  0
 12 13  1  0  0  0
 12  1  1  0  0  0
  1  2  2  0  0  0
  1 10  1  0  0  0
  2  3  1  0  0  0
  3  4  2  0  0  0
  4  5  1  0  0  0
  4  9  1  0  0  0
  5  6  2  0  0  0
  6  7  1  0  0  0
  6 17  1  0  0  0
  7  8  2  0  0  0
  8  9  1  0  0  0
  9 10  2  0  0  0
 17 18  2  0  0  0
 17 19  1  0  0  0
 19 21  1  0  0  0
 21 22  2  0  0  0
 21 26  1  0  0  0
 22 23  1  0  0  0
 23 24  2  0  0  0
 24 25  1  0  0  0
 25 26  2  0  0  0
 11 14  1  0  0  0
 13 15  1  0  0  0
 13 16  1  0  0  0
 19 20  1  0  0  0
M  END
> <minimizedAffinity>
-6.36603

$$$$
1OWE_675_A_1001


 26 28  0  0  0  0  0  0  0  0999 V2000
   26.0382   19.2240   32.4283 C   0  0  0  0  0  0  0  0  0  0  0  0
   26.6312   18.4742   31.3471 C   0  0  0  0  0  0  0  0  0  0  0  0
   26.3937   17.1099   31.0213 C   0  0  0  0  0  0  0  0  0  0  0  0
   25.5096   16.4002   31.8688 C   0  0  0  0  0  0  0  0  0  0  0  0
   25.2844   15.0400   31.6957 C   0  0  0  0  0  0  0  0  0  0  0  0
   24.4806   14.2431   32.5876 C   0  0  0  0  0  0  0  0  0  0  0  0
   23.9562   15.0593   33.6969 C   0  0  0  0  0  0  0  0  0  0  0  0
   24.1522   16.4032   33.9350 C   0  0  0  0  0  0  0  0  0  0  0  0
   24.9167   17.0605   33.0162 C   0  0  0  0  0  0  0  0  0  0  0  0
   25.1949   18.3845   33.2359 C   0  0  0  0  0  0  0  0  0  0  0  0
   25.3860   21.2552   33.5444 N   0  0  0  0  0  0  0  0  0  0  0  0
   26.2670   20.6808   32.6803 C   0  0  0  0  0  0  0  0  0  0  0  0
   27.2798   21.3489   32.0469 N   0  0  0  0  0  0  0  0  0  0  0  0
   25.4656   22.2113   33.7654 H   0  0  0  0  0  0  0  0  0  0  0  0
   27.4211   22.3076   32.2204 H   0  0  0  0  0  0  0  0  0  0  0  0
   27.8670   20.8707   31.4177 H   0  0  0  0  0  0  0  0  0  0  0  0
   24.2149   12.8182   32.4474 C   0  0  0  0  0  0  0  0  0  0  0  0
   23.0432   12.4733   32.3454 O   0  0  0  0  0  0  0  0  0  0  0  0
   25.2860   11.9906   32.6696 N   0  0  0  0  0  0  0  0  0  0  0  0
   26.1699   12.3912   32.8355 H   0  0  0  0  0  0  0  0  0  0  0  0
   25.1676   10.6171   32.6685 C   0  0  0  0  0  0  0  0  0  0  0  0
   25.4814   10.0588   31.4251 C   0  0  0  0  0  0  0  0  0  0  0  0
   25.3318    8.6854   31.2304 C   0  0  0  0  0  0  0  0  0  0  0  0
   24.9297    7.8846   32.3446 C   0  0  0  0  0  0  0  0  0  0  0  0
   24.7048    8.4111   33.6143 C   0  0  0  0  0  0  0  0  0  0  0  0
   24.8324    9.7993   33.7823 C   0  0  0  0  0  0  0  0  0  0  0  0
 11 12  2  0  0  0
 12 13  1  0  0  0
 12  1  1  0  0  0
  1  2  2  0  0  0
  1 10  1  0  0  0
  2  3  1  0  0  0
  3  4  2  0  0  0
  4  5  1  0  0  0
  4  9  1  0  0  0
  5  6  2  0  0  0
  6  7  1  0  0  0
  6 17  1  0  0  0
  7  8  2  0  0  0
  8  9  1  0  0  0
  9 10  2  0  0  0
 17 18  2  0  0  0
 17 19  1  0  0  0
 19 21  1  0  0  0
 21 22  2  0  0  0
 21 26  1  0  0  0
 22 23  1  0  0  0
 23 24  2  0  0  0
 24 25  1  0  0  0
 25 26  2  0  0  0
 11 14  1  0  0  0
 13 15  1  0  0  0
 13 16  1  0  0  0
 19 20  1  0  0  0
M  END
> <minimizedAffinity>
-6.27333

$$$$
1OWE_675_A_1001


 26 28  0  0  0  0  0  0  0  0999 V2000
   25.1108   18.4594   30.1679 C   0  0  0  0  0  0  0  0  0  0  0  0
   24.0742   17.5050   30.4801 C   0  0  0  0  0  0  0  0  0  0  0  0
   24.1929   16.0873   30.4939 C   0  0  0  0  0  0  0  0  0  0  0  0
   25.4511   15.5527   30.1268 C   0  0  0  0  0  0  0  0  0  0  0  0
   25.6446   14.1812   30.0151 C   0  0  0  0  0  0  0  0  0  0  0  0
   26.8679   13.5824   29.5446 C   0  0  0  0  0  0  0  0  0  0  0  0
   27.8584   14.6145   29.1903 C   0  0  0  0  0  0  0  0  0  0  0  0
   27.7266   15.9852   29.2628 C   0  0  0  0  0  0  0  0  0  0  0  0
   26.5313   16.4392   29.7379 C   0  0  0  0  0  0  0  0  0  0  0  0
   26.3229   17.7934   29.7738 C   0  0  0  0  0  0  0  0  0  0  0  0
   24.0889   20.4721   29.3300 N   0  0  0  0  0  0  0  0  0  0  0  0
   24.9509   19.9450   30.2422 C   0  0  0  0  0  0  0  0  0  0  0  0
   25.6586   20.6792   31.1551 N   0  0  0  0  0  0  0  0  0  0  0  0
   23.9259   21.4428   29.3104 H   0  0  0  0  0  0  0  0  0  0  0  0
   25.5454   21.6563   31.1950 H   0  0  0  0  0  0  0  0  0  0  0  0
   26.2808   20.2301   31.7719 H   0  0  0  0  0  0  0  0  0  0  0  0
   27.1183   12.1541   29.4118 C   0  0  0  0  0  0  0  0  0  0  0  0
   26.9880   11.6629   28.2965 O   0  0  0  0  0  0  0  0  0  0  0  0
   27.2549   11.4640   30.5894 N   0  0  0  0  0  0  0  0  0  0  0  0
   27.2499   11.9647   31.4371 H   0  0  0  0  0  0  0  0  0  0  0  0
   27.3989   10.0935   30.6270 C   0  0  0  0  0  0  0  0  0  0  0  0
   28.7413    9.7017   30.6462 C   0  0  0  0  0  0  0  0  0  0  0  0
   29.0625    8.3447   30.6007 C   0  0  0  0  0  0  0  0  0  0  0  0
   27.9927    7.3962   30.6110 C   0  0  0  0  0  0  0  0  0  0  0  0
   26.6522    7.7667   30.6874 C   0  0  0  0  0  0  0  0  0  0  0  0
   26.3489    9.1376   30.7029 C   0  0  0  0  0  0  0  0  0  0  0  0
 11 12  2  0  0  0
 12 13  1  0  0  0
 12  1  1  0  0  0
  1  2  2  0  0  0
  1 10  1  0  0  0
  2  3  1  0  0  0
  3  4  2  0  0  0
  4  5  1  0  0  0
  4  9  1  0  0  0
  5  6  2  0  0  0
  6  7  1  0  0  0
  6 17  1  0  0  0
  7  8  2  0  0  0
  8  9  1  0  0  0
  9 10  2  0  0  0
 17 18  2  0  0  0
 17 19  1  0  0  0
 19 21  1  0  0  0
 21 22  2  0  0  0
 21 26  1  0  0  0
 22 23  1  0  0  0
 23 24  2  0  0  0
 24 25  1  0  0  0
 25 26  2  0  0  0
 11 14  1  0  0  0
 13 15  1  0  0  0
 13 16  1  0  0  0
 19 20  1  0  0  0
M  END
> <minimizedAffinity>
-6.05166

$$$$
1OWE_675_A_1001


 26 28  0  0  0  0  0  0  0  0999 V2000
   28.7179   13.5182   28.9121 C   0  0  0  0  0  0  0  0  0  0  0  0
   27.6447   12.7052   29.4318 C   0  0  0  0  0  0  0  0  0  0  0  0
   26.3780   13.1561   29.8967 C   0  0  0  0  0  0  0  0  0  0  0  0
   26.1586   14.5544   29.8832 C   0  0  0  0  0  0  0  0  0  0  0  0
   24.9940   15.1045   30.4047 C   0  0  0  0  0  0  0  0  0  0  0  0
   24.7596   16.5220   30.5154 C   0  0  0  0  0  0  0  0  0  0  0  0
   25.9171   17.2884   30.0209 C   0  0  0  0  0  0  0  0  0  0  0  0
   27.1030   16.8079   29.5070 C   0  0  0  0  0  0  0  0  0  0  0  0
   27.2078   15.4498   29.4345 C   0  0  0  0  0  0  0  0  0  0  0  0
   28.3890   14.9162   28.9887 C   0  0  0  0  0  0  0  0  0  0  0  0
   30.8515   13.9284   27.8746 N   0  0  0  0  0  0  0  0  0  0  0  0
   30.0038   12.9834   28.3657 C   0  0  0  0  0  0  0  0  0  0  0  0
   30.2529   11.6376   28.3560 N   0  0  0  0  0  0  0  0  0  0  0  0
   31.7202   13.6614   27.4959 H   0  0  0  0  0  0  0  0  0  0  0  0
   31.1026   11.2969   27.9939 H   0  0  0  0  0  0  0  0  0  0  0  0
   29.5824   11.0103   28.7112 H   0  0  0  0  0  0  0  0  0  0  0  0
   23.5577   17.1449   31.0521 C   0  0  0  0  0  0  0  0  0  0  0  0
   23.3901   18.3360   30.8168 O   0  0  0  0  0  0  0  0  0  0  0  0
   22.8509   16.3904   31.9537 N   0  0  0  0  0  0  0  0  0  0  0  0
   23.1417   15.4669   32.1321 H   0  0  0  0  0  0  0  0  0  0  0  0
   21.7473   16.8808   32.6187 C   0  0  0  0  0  0  0  0  0  0  0  0
   20.5484   16.3982   32.0841 C   0  0  0  0  0  0  0  0  0  0  0  0
   19.3338   16.8627   32.5894 C   0  0  0  0  0  0  0  0  0  0  0  0
   19.3639   17.7679   33.6958 C   0  0  0  0  0  0  0  0  0  0  0  0
   20.5466   18.1850   34.3017 C   0  0  0  0  0  0  0  0  0  0  0  0
   21.7591   17.7291   33.7597 C   0  0  0  0  0  0  0  0  0  0  0  0
 11 12  2  0  0  0
 12 13  1  0  0  0
 12  1  1  0  0  0
  1  2  2  0  0  0
  1 10  1  0  0  0
  2  3  1  0  0  0
  3  4  2  0  0  0
  4  5  1  0  0  0
  4  9  1  0  0  0
  5  6  2  0  0  0
  6  7  1  0  0  0
  6 17  1  0  0  0
  7  8  2  0  0  0
  8  9  1  0  0  0
  9 10  2  0  0  0
 17 18  2  0  0  0
 17 19  1  0  0  0
 19 21  1  0  0  0
 21 22  2  0  0  0
 21 26  1  0  0  0
 22 23  1  0  0  0
 23 24  2  0  0  0
 24 25  1  0  0  0
 25 26  2  0  0  0
 11 14  1  0  0  0
 13 15  1  0  0  0
 13 16  1  0  0  0
 19 20  1  0  0  0
M  END
> <minimizedAffinity>
-6.02217

$$$$
1OWE_675_A_1001


 26 28  0  0  0  0  0  0  0  0999 V2000
   25.7122   18.8338   31.5817 C   0  0  0  0  0  0  0  0  0  0  0  0
   25.0625   18.5078   32.8285 C   0  0  0  0  0  0  0  0  0  0  0  0
   24.7139   17.2108   33.2978 C   0  0  0  0  0  0  0  0  0  0  0  0
   25.0011   16.1259   32.4351 C   0  0  0  0  0  0  0  0  0  0  0  0
   24.6145   14.8304   32.7560 C   0  0  0  0  0  0  0  0  0  0  0  0
   24.7838   13.7040   31.8732 C   0  0  0  0  0  0  0  0  0  0  0  0
   25.3984   14.1193   30.5998 C   0  0  0  0  0  0  0  0  0  0  0  0
   25.7906   15.3834   30.2132 C   0  0  0  0  0  0  0  0  0  0  0  0
   25.5975   16.3696   31.1355 C   0  0  0  0  0  0  0  0  0  0  0  0
   25.9127   17.6557   30.7815 C   0  0  0  0  0  0  0  0  0  0  0  0
   26.8031   20.2769   29.9929 N   0  0  0  0  0  0  0  0  0  0  0  0
   26.1243   20.2120   31.1710 C   0  0  0  0  0  0  0  0  0  0  0  0
   25.8427   21.2911   31.9644 N   0  0  0  0  0  0  0  0  0  0  0  0
   27.1110   21.1467   29.6495 H   0  0  0  0  0  0  0  0  0  0  0  0
   26.1187   22.1936   31.6840 H   0  0  0  0  0  0  0  0  0  0  0  0
   25.3642   21.1649   32.8155 H   0  0  0  0  0  0  0  0  0  0  0  0
   24.3969   12.3307   32.1646 C   0  0  0  0  0  0  0  0  0  0  0  0
   23.2192   12.1247   32.4341 O   0  0  0  0  0  0  0  0  0  0  0  0
   25.4317   11.4451   32.3276 N   0  0  0  0  0  0  0  0  0  0  0  0
   26.3527   11.7564   32.1723 H   0  0  0  0  0  0  0  0  0  0  0  0
   25.2265   10.1341   32.7015 C   0  0  0  0  0  0  0  0  0  0  0  0
   25.1300    9.2775   31.6002 C   0  0  0  0  0  0  0  0  0  0  0  0
   24.8391    7.9280   31.8019 C   0  0  0  0  0  0  0  0  0  0  0  0
   24.7232    7.4551   33.1462 C   0  0  0  0  0  0  0  0  0  0  0  0
   24.9101    8.2749   34.2566 C   0  0  0  0  0  0  0  0  0  0  0  0
   25.1732    9.6358   34.0322 C   0  0  0  0  0  0  0  0  0  0  0  0
 11 12  2  0  0  0
 12 13  1  0  0  0
 12  1  1  0  0  0
  1  2  2  0  0  0
  1 10  1  0  0  0
  2  3  1  0  0  0
  3  4  2  0  0  0
  4  5  1  0  0  0
  4  9  1  0  0  0
  5  6  2  0  0  0
  6  7  1  0  0  0
  6 17  1  0  0  0
  7  8  2  0  0  0
  8  9  1  0  0  0
  9 10  2  0  0  0
 17 18  2  0  0  0
 17 19  1  0  0  0
 19 21  1  0  0  0
 21 22  2  0  0  0
 21 26  1  0  0  0
 22 23  1  0  0  0
 23 24  2  0  0  0
 24 25  1  0  0  0
 25 26  2  0  0  0
 11 14  1  0  0  0
 13 15  1  0  0  0
 13 16  1  0  0  0
 19 20  1  0  0  0
M  END
> <minimizedAffinity>
-5.90784

$$$$
