4RUX_3W3_A_302


 16 16  0  0  0  0  0  0  0  0999 V2000
   -4.3930    0.3187   14.5098 C   0  0  0  0  0  0  0  0  0  0  0  0
   -4.3235    0.6276   13.0479 C   0  0  0  0  0  0  0  0  0  0  0  0
   -4.4728    1.9014   12.6415 C   0  0  0  0  0  0  0  0  0  0  0  0
   -4.6919    3.0128   13.6147 C   0  0  0  0  0  0  0  0  0  0  0  0
   -4.7531    2.7378   14.9248 C   0  0  0  0  0  0  0  0  0  0  0  0
   -4.5829    1.3188   15.3787 C   0  0  0  0  0  0  0  0  0  0  0  0
   -4.3556    2.2911   10.9367 S   0  0  0  0  0  0  0  0  0  0  0  0
   -5.0545    3.5562   10.7847 O   0  0  0  0  0  0  0  0  0  0  0  0
   -2.9569    2.3293   10.6605 O   0  0  0  0  0  0  0  0  0  0  0  0
   -5.1070    1.1553   10.0768 N   0  0  0  0  0  0  0  0  0  0  0  0
   -4.6161    0.2676   10.1838 H   0  0  0  0  0  0  0  0  0  0  0  0
   -5.1145    1.4232    9.0927 H   0  0  0  0  0  0  0  0  0  0  0  0
   -4.6250    0.9881   16.7278 O   0  0  0  0  0  0  0  0  0  0  0  0
   -5.7875    0.3726   17.2429 C   0  0  0  0  0  0  0  0  0  0  0  0
   -6.8510    1.4385   17.3831 C   0  0  0  0  0  0  0  0  0  0  0  0
   -6.4472    2.4827   18.4022 C   0  0  0  0  0  0  0  0  0  0  0  0
 15 14  1  0  0  0
 15 16  2  0  0  0
 14 13  1  0  0  0
 13  6  1  0  0  0
  6  5  2  0  0  0
  6  1  1  0  0  0
  5  4  1  0  0  0
  1  2  2  0  0  0
  4  3  2  0  0  0
  2  3  1  0  0  0
  3  7  1  0  0  0
 10  7  1  0  0  0
  9  7  2  0  0  0
  7  8  2  0  0  0
 10 11  1  0  0  0
 10 12  1  0  0  0
M  END
> <minimizedAffinity>
-6.44133

$$$$
4RUX_3W3_A_302


 16 16  0  0  0  0  0  0  0  0999 V2000
   -4.5272    2.6073   15.0194 C   0  0  0  0  0  0  0  0  0  0  0  0
   -4.4581    2.9719   13.5704 C   0  0  0  0  0  0  0  0  0  0  0  0
   -4.3582    1.9918   12.6542 C   0  0  0  0  0  0  0  0  0  0  0  0
   -4.3285    0.5517   13.0487 C   0  0  0  0  0  0  0  0  0  0  0  0
   -4.3916    0.2234   14.3464 C   0  0  0  0  0  0  0  0  0  0  0  0
   -4.5069    1.3152   15.3678 C   0  0  0  0  0  0  0  0  0  0  0  0
   -4.3156    2.3947   10.9489 S   0  0  0  0  0  0  0  0  0  0  0  0
   -5.0279    3.6564   10.8362 O   0  0  0  0  0  0  0  0  0  0  0  0
   -2.9301    2.4437   10.6142 O   0  0  0  0  0  0  0  0  0  0  0  0
   -5.0957    1.2604   10.1130 N   0  0  0  0  0  0  0  0  0  0  0  0
   -4.5955    0.3750   10.1924 H   0  0  0  0  0  0  0  0  0  0  0  0
   -5.1466    1.5354    9.1321 H   0  0  0  0  0  0  0  0  0  0  0  0
   -4.5892    1.0220   16.7237 O   0  0  0  0  0  0  0  0  0  0  0  0
   -5.7428    0.3684   17.2112 C   0  0  0  0  0  0  0  0  0  0  0  0
   -6.8233    1.4110   17.3904 C   0  0  0  0  0  0  0  0  0  0  0  0
   -6.4101    2.4579   18.4028 C   0  0  0  0  0  0  0  0  0  0  0  0
 15 14  1  0  0  0
 15 16  2  0  0  0
 14 13  1  0  0  0
 13  6  1  0  0  0
  6  5  2  0  0  0
  6  1  1  0  0  0
  5  4  1  0  0  0
  1  2  2  0  0  0
  4  3  2  0  0  0
  2  3  1  0  0  0
  3  7  1  0  0  0
 10  7  1  0  0  0
  9  7  2  0  0  0
  7  8  2  0  0  0
 10 11  1  0  0  0
 10 12  1  0  0  0
M  END
> <minimizedAffinity>
-6.35773

$$$$
4RUX_3W3_A_302


 16 16  0  0  0  0  0  0  0  0999 V2000
   -5.6990    4.8901   14.9972 C   0  0  0  0  0  0  0  0  0  0  0  0
   -6.3348    3.8067   15.8092 C   0  0  0  0  0  0  0  0  0  0  0  0
   -5.5982    2.7381   16.1635 C   0  0  0  0  0  0  0  0  0  0  0  0
   -4.1606    2.6156   15.7775 C   0  0  0  0  0  0  0  0  0  0  0  0
   -3.5894    3.5861   15.0511 C   0  0  0  0  0  0  0  0  0  0  0  0
   -4.4088    4.7792   14.6592 C   0  0  0  0  0  0  0  0  0  0  0  0
   -6.3120    1.4759   17.1481 S   0  0  0  0  0  0  0  0  0  0  0  0
   -6.1886    1.9440   18.5183 O   0  0  0  0  0  0  0  0  0  0  0  0
   -7.6478    1.3413   16.6668 O   0  0  0  0  0  0  0  0  0  0  0  0
   -5.4683    0.1161   16.9665 N   0  0  0  0  0  0  0  0  0  0  0  0
   -5.5552   -0.2121   16.0046 H   0  0  0  0  0  0  0  0  0  0  0  0
   -5.8289   -0.5953   17.6023 H   0  0  0  0  0  0  0  0  0  0  0  0
   -3.8553    5.8164   13.9182 O   0  0  0  0  0  0  0  0  0  0  0  0
   -2.4767    6.0925   14.0558 C   0  0  0  0  0  0  0  0  0  0  0  0
   -2.2759    7.5720   13.8159 C   0  0  0  0  0  0  0  0  0  0  0  0
   -2.1195    8.3212   15.1221 C   0  0  0  0  0  0  0  0  0  0  0  0
 15 14  1  0  0  0
 15 16  2  0  0  0
 14 13  1  0  0  0
 13  6  1  0  0  0
  6  5  2  0  0  0
  6  1  1  0  0  0
  5  4  1  0  0  0
  1  2  2  0  0  0
  4  3  2  0  0  0
  2  3  1  0  0  0
  3  7  1  0  0  0
 10  7  1  0  0  0
  9  7  2  0  0  0
  7  8  2  0  0  0
 10 11  1  0  0  0
 10 12  1  0  0  0
M  END
> <minimizedAffinity>
-6.31148

$$$$
4RUX_3W3_A_302


 16 16  0  0  0  0  0  0  0  0999 V2000
   -4.7418    3.3012   13.3410 C   0  0  0  0  0  0  0  0  0  0  0  0
   -4.4030    2.5533   12.0907 C   0  0  0  0  0  0  0  0  0  0  0  0
   -4.1436    1.2354   12.1678 C   0  0  0  0  0  0  0  0  0  0  0  0
   -4.1994    0.5014   13.4672 C   0  0  0  0  0  0  0  0  0  0  0  0
   -4.5040    1.1699   14.5880 C   0  0  0  0  0  0  0  0  0  0  0  0
   -4.7970    2.6380   14.5022 C   0  0  0  0  0  0  0  0  0  0  0  0
   -3.7833    0.3320   10.7097 S   0  0  0  0  0  0  0  0  0  0  0  0
   -2.6474    1.0114   10.1097 O   0  0  0  0  0  0  0  0  0  0  0  0
   -3.5337   -1.0008   11.1517 O   0  0  0  0  0  0  0  0  0  0  0  0
   -5.0440    0.4072    9.7101 N   0  0  0  0  0  0  0  0  0  0  0  0
   -5.8410   -0.0698   10.1316 H   0  0  0  0  0  0  0  0  0  0  0  0
   -4.8054   -0.0446    8.8273 H   0  0  0  0  0  0  0  0  0  0  0  0
   -5.1308    3.3694   15.6357 O   0  0  0  0  0  0  0  0  0  0  0  0
   -6.4733    3.3706   16.0753 C   0  0  0  0  0  0  0  0  0  0  0  0
   -6.5597    2.4849   17.2980 C   0  0  0  0  0  0  0  0  0  0  0  0
   -7.3300    1.2161   17.0005 C   0  0  0  0  0  0  0  0  0  0  0  0
 15 14  1  0  0  0
 15 16  2  0  0  0
 14 13  1  0  0  0
 13  6  1  0  0  0
  6  5  2  0  0  0
  6  1  1  0  0  0
  5  4  1  0  0  0
  1  2  2  0  0  0
  4  3  2  0  0  0
  2  3  1  0  0  0
  3  7  1  0  0  0
 10  7  1  0  0  0
  9  7  2  0  0  0
  7  8  2  0  0  0
 10 11  1  0  0  0
 10 12  1  0  0  0
M  END
> <minimizedAffinity>
-6.14248

$$$$
4RUX_3W3_A_302


 16 16  0  0  0  0  0  0  0  0999 V2000
   -5.7530    4.8814   14.9766 C   0  0  0  0  0  0  0  0  0  0  0  0
   -6.3646    3.7963   15.8048 C   0  0  0  0  0  0  0  0  0  0  0  0
   -5.6145    2.7325   16.1446 C   0  0  0  0  0  0  0  0  0  0  0  0
   -4.1853    2.6169   15.7268 C   0  0  0  0  0  0  0  0  0  0  0  0
   -3.6357    3.5888   14.9858 C   0  0  0  0  0  0  0  0  0  0  0  0
   -4.4701    4.7767   14.6099 C   0  0  0  0  0  0  0  0  0  0  0  0
   -6.2992    1.4686   17.1476 S   0  0  0  0  0  0  0  0  0  0  0  0
   -6.1546    1.9437   18.5133 O   0  0  0  0  0  0  0  0  0  0  0  0
   -7.6425    1.3206   16.6916 O   0  0  0  0  0  0  0  0  0  0  0  0
   -5.4474    0.1152   16.9561 N   0  0  0  0  0  0  0  0  0  0  0  0
   -5.5492   -0.2179   15.9974 H   0  0  0  0  0  0  0  0  0  0  0  0
   -5.7901   -0.5964   17.6015 H   0  0  0  0  0  0  0  0  0  0  0  0
   -3.9390    5.8152   13.8546 O   0  0  0  0  0  0  0  0  0  0  0  0
   -3.3383    5.5162   12.6114 C   0  0  0  0  0  0  0  0  0  0  0  0
   -4.4365    5.4386   11.5747 C   0  0  0  0  0  0  0  0  0  0  0  0
   -5.1785    6.7536   11.4651 C   0  0  0  0  0  0  0  0  0  0  0  0
 15 14  1  0  0  0
 15 16  2  0  0  0
 14 13  1  0  0  0
 13  6  1  0  0  0
  6  5  2  0  0  0
  6  1  1  0  0  0
  5  4  1  0  0  0
  1  2  2  0  0  0
  4  3  2  0  0  0
  2  3  1  0  0  0
  3  7  1  0  0  0
 10  7  1  0  0  0
  9  7  2  0  0  0
  7  8  2  0  0  0
 10 11  1  0  0  0
 10 12  1  0  0  0
M  END
> <minimizedAffinity>
-6.00454

$$$$
4RUX_3W3_A_302


 16 16  0  0  0  0  0  0  0  0999 V2000
   -5.1312    4.0084   14.2810 C   0  0  0  0  0  0  0  0  0  0  0  0
   -5.8224    3.4303   15.4749 C   0  0  0  0  0  0  0  0  0  0  0  0
   -5.6356    2.1317   15.7726 C   0  0  0  0  0  0  0  0  0  0  0  0
   -4.7457    1.2600   14.9488 C   0  0  0  0  0  0  0  0  0  0  0  0
   -4.1248    1.7768   13.8797 C   0  0  0  0  0  0  0  0  0  0  0  0
   -4.3295    3.2252   13.5495 C   0  0  0  0  0  0  0  0  0  0  0  0
   -6.4045    1.4437   17.1895 S   0  0  0  0  0  0  0  0  0  0  0  0
   -6.2534    2.4458   18.2311 O   0  0  0  0  0  0  0  0  0  0  0  0
   -7.7471    1.1764   16.7896 O   0  0  0  0  0  0  0  0  0  0  0  0
   -5.6269    0.1002   17.6191 N   0  0  0  0  0  0  0  0  0  0  0  0
   -5.7332   -0.6028   16.8878 H   0  0  0  0  0  0  0  0  0  0  0  0
   -6.0182   -0.2549   18.4916 H   0  0  0  0  0  0  0  0  0  0  0  0
   -3.6955    3.8079   12.4588 O   0  0  0  0  0  0  0  0  0  0  0  0
   -3.6900    3.1193   11.2254 C   0  0  0  0  0  0  0  0  0  0  0  0
   -2.2528    2.9965   10.7714 C   0  0  0  0  0  0  0  0  0  0  0  0
   -1.7147    1.6054   11.0307 C   0  0  0  0  0  0  0  0  0  0  0  0
 15 14  1  0  0  0
 15 16  2  0  0  0
 14 13  1  0  0  0
 13  6  1  0  0  0
  6  5  2  0  0  0
  6  1  1  0  0  0
  5  4  1  0  0  0
  1  2  2  0  0  0
  4  3  2  0  0  0
  2  3  1  0  0  0
  3  7  1  0  0  0
 10  7  1  0  0  0
  9  7  2  0  0  0
  7  8  2  0  0  0
 10 11  1  0  0  0
 10 12  1  0  0  0
M  END
> <minimizedAffinity>
-5.74145

$$$$
4RUX_3W3_A_302


 16 16  0  0  0  0  0  0  0  0999 V2000
   -4.6703    1.3329   14.0493 C   0  0  0  0  0  0  0  0  0  0  0  0
   -3.8825    1.1100   12.7975 C   0  0  0  0  0  0  0  0  0  0  0  0
   -3.2800    2.1594   12.2093 C   0  0  0  0  0  0  0  0  0  0  0  0
   -3.3680    3.5353   12.7835 C   0  0  0  0  0  0  0  0  0  0  0  0
   -4.0724    3.7362   13.9056 C   0  0  0  0  0  0  0  0  0  0  0  0
   -4.7410    2.5665   14.5638 C   0  0  0  0  0  0  0  0  0  0  0  0
   -2.3193    1.9142   10.7640 S   0  0  0  0  0  0  0  0  0  0  0  0
   -0.9700    1.6599   11.2402 O   0  0  0  0  0  0  0  0  0  0  0  0
   -2.9424    0.8257   10.0850 O   0  0  0  0  0  0  0  0  0  0  0  0
   -2.3325    3.2604    9.8798 N   0  0  0  0  0  0  0  0  0  0  0  0
   -3.2797    3.4384    9.5458 H   0  0  0  0  0  0  0  0  0  0  0  0
   -1.7060    3.1497    9.0825 H   0  0  0  0  0  0  0  0  0  0  0  0
   -5.4704    2.7245   15.7360 O   0  0  0  0  0  0  0  0  0  0  0  0
   -5.0917    1.9862   16.8794 C   0  0  0  0  0  0  0  0  0  0  0  0
   -6.3293    1.7717   17.7214 C   0  0  0  0  0  0  0  0  0  0  0  0
   -7.4880    1.2870   16.8762 C   0  0  0  0  0  0  0  0  0  0  0  0
 15 14  1  0  0  0
 15 16  2  0  0  0
 14 13  1  0  0  0
 13  6  1  0  0  0
  6  5  2  0  0  0
  6  1  1  0  0  0
  5  4  1  0  0  0
  1  2  2  0  0  0
  4  3  2  0  0  0
  2  3  1  0  0  0
  3  7  1  0  0  0
 10  7  1  0  0  0
  9  7  2  0  0  0
  7  8  2  0  0  0
 10 11  1  0  0  0
 10 12  1  0  0  0
M  END
> <minimizedAffinity>
-5.65258

$$$$
4RUX_3W3_A_302


 16 16  0  0  0  0  0  0  0  0999 V2000
   -2.1341    4.5950   12.4006 C   0  0  0  0  0  0  0  0  0  0  0  0
   -2.7403    3.4463   11.6589 C   0  0  0  0  0  0  0  0  0  0  0  0
   -3.5934    2.6297   12.3036 C   0  0  0  0  0  0  0  0  0  0  0  0
   -3.9585    2.8514   13.7347 C   0  0  0  0  0  0  0  0  0  0  0  0
   -3.4171    3.8808   14.4001 C   0  0  0  0  0  0  0  0  0  0  0  0
   -2.4692    4.7936   13.6811 C   0  0  0  0  0  0  0  0  0  0  0  0
   -4.3457    1.3011   11.4428 S   0  0  0  0  0  0  0  0  0  0  0  0
   -3.4668    1.0276   10.3182 O   0  0  0  0  0  0  0  0  0  0  0  0
   -4.4538    0.2517   12.4025 O   0  0  0  0  0  0  0  0  0  0  0  0
   -5.7876    1.7671   10.8972 N   0  0  0  0  0  0  0  0  0  0  0  0
   -6.4041    1.9589   11.6868 H   0  0  0  0  0  0  0  0  0  0  0  0
   -6.1901    1.0256   10.3239 H   0  0  0  0  0  0  0  0  0  0  0  0
   -1.8942    5.8818   14.3263 O   0  0  0  0  0  0  0  0  0  0  0  0
   -2.5597    7.1273   14.2871 C   0  0  0  0  0  0  0  0  0  0  0  0
   -1.5070    8.2123   14.2488 C   0  0  0  0  0  0  0  0  0  0  0  0
   -1.3741    8.8925   15.5948 C   0  0  0  0  0  0  0  0  0  0  0  0
 15 14  1  0  0  0
 15 16  2  0  0  0
 14 13  1  0  0  0
 13  6  1  0  0  0
  6  5  2  0  0  0
  6  1  1  0  0  0
  5  4  1  0  0  0
  1  2  2  0  0  0
  4  3  2  0  0  0
  2  3  1  0  0  0
  3  7  1  0  0  0
 10  7  1  0  0  0
  9  7  2  0  0  0
  7  8  2  0  0  0
 10 11  1  0  0  0
 10 12  1  0  0  0
M  END
> <minimizedAffinity>
-5.27648

$$$$
4RUX_3W3_A_302


 16 16  0  0  0  0  0  0  0  0999 V2000
   -3.8533    3.0893   15.1660 C   0  0  0  0  0  0  0  0  0  0  0  0
   -2.9774    4.1956   14.6699 C   0  0  0  0  0  0  0  0  0  0  0  0
   -3.5482    5.3100   14.1777 C   0  0  0  0  0  0  0  0  0  0  0  0
   -5.0320    5.4730   14.1282 C   0  0  0  0  0  0  0  0  0  0  0  0
   -5.8179    4.4832   14.5735 C   0  0  0  0  0  0  0  0  0  0  0  0
   -5.1823    3.2424   15.1257 C   0  0  0  0  0  0  0  0  0  0  0  0
   -2.5408    6.6345   13.6275 S   0  0  0  0  0  0  0  0  0  0  0  0
   -2.5496    7.5988   14.7147 O   0  0  0  0  0  0  0  0  0  0  0  0
   -1.2736    6.0439   13.3454 O   0  0  0  0  0  0  0  0  0  0  0  0
   -3.1999    7.2971   12.3158 N   0  0  0  0  0  0  0  0  0  0  0  0
   -3.1935    6.6200   11.5530 H   0  0  0  0  0  0  0  0  0  0  0  0
   -2.6625    8.1204   12.0441 H   0  0  0  0  0  0  0  0  0  0  0  0
   -5.9569    2.1960   15.6115 O   0  0  0  0  0  0  0  0  0  0  0  0
   -5.3111    1.0851   16.1986 C   0  0  0  0  0  0  0  0  0  0  0  0
   -6.0274    0.7645   17.4913 C   0  0  0  0  0  0  0  0  0  0  0  0
   -6.2599    2.0152   18.3120 C   0  0  0  0  0  0  0  0  0  0  0  0
 15 14  1  0  0  0
 15 16  2  0  0  0
 14 13  1  0  0  0
 13  6  1  0  0  0
  6  5  2  0  0  0
  6  1  1  0  0  0
  5  4  1  0  0  0
  1  2  2  0  0  0
  4  3  2  0  0  0
  2  3  1  0  0  0
  3  7  1  0  0  0
 10  7  1  0  0  0
  9  7  2  0  0  0
  7  8  2  0  0  0
 10 11  1  0  0  0
 10 12  1  0  0  0
M  END
> <minimizedAffinity>
-5.17824

$$$$
4RUX_3W3_A_302


 16 16  0  0  0  0  0  0  0  0999 V2000
   -4.3786    2.0647   13.5030 C   0  0  0  0  0  0  0  0  0  0  0  0
   -3.3232    2.6395   12.6125 C   0  0  0  0  0  0  0  0  0  0  0  0
   -2.7087    3.7788   12.9791 C   0  0  0  0  0  0  0  0  0  0  0  0
   -3.0453    4.4732   14.2577 C   0  0  0  0  0  0  0  0  0  0  0  0
   -3.9897    3.9587   15.0572 C   0  0  0  0  0  0  0  0  0  0  0  0
   -4.6724    2.6869   14.6510 C   0  0  0  0  0  0  0  0  0  0  0  0
   -1.4416    4.4485   11.9700 S   0  0  0  0  0  0  0  0  0  0  0  0
   -2.0484    4.6256   10.6615 O   0  0  0  0  0  0  0  0  0  0  0  0
   -1.0422    5.6504   12.6256 O   0  0  0  0  0  0  0  0  0  0  0  0
   -0.2307    3.3919   11.8625 N   0  0  0  0  0  0  0  0  0  0  0  0
    0.1949    3.2679   12.7812 H   0  0  0  0  0  0  0  0  0  0  0  0
    0.4690    3.7421   11.2081 H   0  0  0  0  0  0  0  0  0  0  0  0
   -5.6478    2.1091   15.4546 O   0  0  0  0  0  0  0  0  0  0  0  0
   -5.3673    0.8786   16.0894 C   0  0  0  0  0  0  0  0  0  0  0  0
   -6.2216    0.7959   17.3344 C   0  0  0  0  0  0  0  0  0  0  0  0
   -6.2914    2.1339   18.0392 C   0  0  0  0  0  0  0  0  0  0  0  0
 15 14  1  0  0  0
 15 16  2  0  0  0
 14 13  1  0  0  0
 13  6  1  0  0  0
  6  5  2  0  0  0
  6  1  1  0  0  0
  5  4  1  0  0  0
  1  2  2  0  0  0
  4  3  2  0  0  0
  2  3  1  0  0  0
  3  7  1  0  0  0
 10  7  1  0  0  0
  9  7  2  0  0  0
  7  8  2  0  0  0
 10 11  1  0  0  0
 10 12  1  0  0  0
M  END
> <minimizedAffinity>
-5.10530

$$$$
