2XN3_ID8_A_1356


 20 21  0  0  0  0  0  0  0  0999 V2000
    8.0618    7.5248   24.9644 C   0  0  0  0  0  0  0  0  0  0  0  0
    7.8736    7.6318   26.3470 C   0  0  0  0  0  0  0  0  0  0  0  0
    8.4329    6.6982   27.2159 C   0  0  0  0  0  0  0  0  0  0  0  0
    9.1898    5.6354   26.7289 C   0  0  0  0  0  0  0  0  0  0  0  0
    9.4068    5.4752   25.3548 C   0  0  0  0  0  0  0  0  0  0  0  0
    8.8549    6.3644   24.4072 C   0  0  0  0  0  0  0  0  0  0  0  0
    6.1719    8.7177   24.0810 O   0  0  0  0  0  0  0  0  0  0  0  0
    7.4191    8.5623   24.0503 C   0  0  0  0  0  0  0  0  0  0  0  0
    8.1241    9.2388   23.2540 O   0  0  0  0  0  0  0  0  0  0  0  0
    9.0533    9.1200   23.2342 H   0  0  0  0  0  0  0  0  0  0  0  0
    8.9994    6.2980   23.0278 N   0  0  0  0  0  0  0  0  0  0  0  0
    8.2113    6.3246   22.4383 H   0  0  0  0  0  0  0  0  0  0  0  0
   10.2521    6.1955   22.5075 C   0  0  0  0  0  0  0  0  0  0  0  0
   10.8191    4.8849   22.0391 C   0  0  0  0  0  0  0  0  0  0  0  0
    9.9493    3.6630   21.8380 C   0  0  0  0  0  0  0  0  0  0  0  0
   11.1406    7.2597   22.6974 C   0  0  0  0  0  0  0  0  0  0  0  0
   12.5064    7.1456   22.3979 C   0  0  0  0  0  0  0  0  0  0  0  0
   13.0685    5.9568   21.9291 C   0  0  0  0  0  0  0  0  0  0  0  0
   12.2811    4.8212   21.7412 C   0  0  0  0  0  0  0  0  0  0  0  0
   12.9181    3.5523   21.2353 C   0  0  0  0  0  0  0  0  0  0  0  0
  7  8  2  0  0  0
  8  9  1  0  0  0
  8  1  1  0  0  0
  1  2  1  0  0  0
  1  6  2  0  0  0
  2  3  2  0  0  0
  3  4  1  0  0  0
  4  5  2  0  0  0
  5  6  1  0  0  0
  6 11  1  0  0  0
 11 13  1  0  0  0
 13 14  1  0  0  0
 13 16  2  0  0  0
 14 15  1  0  0  0
 14 19  2  0  0  0
 16 17  1  0  0  0
 17 18  2  0  0  0
 18 19  1  0  0  0
 19 20  1  0  0  0
  9 10  1  0  0  0
 11 12  1  0  0  0
M  END
> <minimizedAffinity>
-8.84314

$$$$
2XN3_ID8_A_1356


 20 21  0  0  0  0  0  0  0  0999 V2000
    7.9969    7.5123   25.0038 C   0  0  0  0  0  0  0  0  0  0  0  0
    7.7751    7.7335   26.3678 C   0  0  0  0  0  0  0  0  0  0  0  0
    8.2593    6.8416   27.3214 C   0  0  0  0  0  0  0  0  0  0  0  0
    8.9726    5.7080   26.9397 C   0  0  0  0  0  0  0  0  0  0  0  0
    9.2201    5.4331   25.5892 C   0  0  0  0  0  0  0  0  0  0  0  0
    8.7433    6.2744   24.5606 C   0  0  0  0  0  0  0  0  0  0  0  0
    6.2150    8.8032   24.0378 O   0  0  0  0  0  0  0  0  0  0  0  0
    7.4364    8.5085   23.9946 C   0  0  0  0  0  0  0  0  0  0  0  0
    8.1804    9.0119   23.1105 O   0  0  0  0  0  0  0  0  0  0  0  0
    9.0902    8.7897   23.0817 H   0  0  0  0  0  0  0  0  0  0  0  0
    8.9235    6.0961   23.1954 N   0  0  0  0  0  0  0  0  0  0  0  0
    8.3244    6.5338   22.5483 H   0  0  0  0  0  0  0  0  0  0  0  0
    9.9448    5.3044   22.7703 C   0  0  0  0  0  0  0  0  0  0  0  0
   11.2800    5.8665   22.3706 C   0  0  0  0  0  0  0  0  0  0  0  0
   11.6760    7.2918   22.6898 C   0  0  0  0  0  0  0  0  0  0  0  0
    9.6552    3.9862   22.4007 C   0  0  0  0  0  0  0  0  0  0  0  0
   10.5947    3.1793   21.7416 C   0  0  0  0  0  0  0  0  0  0  0  0
   11.8583    3.6511   21.3816 C   0  0  0  0  0  0  0  0  0  0  0  0
   12.2374    4.9627   21.6660 C   0  0  0  0  0  0  0  0  0  0  0  0
   13.6082    5.4426   21.2628 C   0  0  0  0  0  0  0  0  0  0  0  0
  7  8  2  0  0  0
  8  9  1  0  0  0
  8  1  1  0  0  0
  1  2  1  0  0  0
  1  6  2  0  0  0
  2  3  2  0  0  0
  3  4  1  0  0  0
  4  5  2  0  0  0
  5  6  1  0  0  0
  6 11  1  0  0  0
 11 13  1  0  0  0
 13 14  1  0  0  0
 13 16  2  0  0  0
 14 15  1  0  0  0
 14 19  2  0  0  0
 16 17  1  0  0  0
 17 18  2  0  0  0
 18 19  1  0  0  0
 19 20  1  0  0  0
  9 10  1  0  0  0
 11 12  1  0  0  0
M  END
> <minimizedAffinity>
-8.42055

$$$$
2XN3_ID8_A_1356


 20 21  0  0  0  0  0  0  0  0999 V2000
   11.8287    4.5519   21.7257 C   0  0  0  0  0  0  0  0  0  0  0  0
   13.1377    4.7250   21.2620 C   0  0  0  0  0  0  0  0  0  0  0  0
   13.8725    5.8556   21.6103 C   0  0  0  0  0  0  0  0  0  0  0  0
   13.3209    6.8407   22.4254 C   0  0  0  0  0  0  0  0  0  0  0  0
   12.0140    6.7232   22.9144 C   0  0  0  0  0  0  0  0  0  0  0  0
   11.1956    5.6200   22.5884 C   0  0  0  0  0  0  0  0  0  0  0  0
    9.9329    3.4346   20.7600 O   0  0  0  0  0  0  0  0  0  0  0  0
   11.0572    3.3049   21.3075 C   0  0  0  0  0  0  0  0  0  0  0  0
   11.5265    2.1565   21.5304 O   0  0  0  0  0  0  0  0  0  0  0  0
   12.3648    2.0641   21.9387 H   0  0  0  0  0  0  0  0  0  0  0  0
    9.8901    5.4050   23.0097 N   0  0  0  0  0  0  0  0  0  0  0  0
    9.4372    4.5504   22.8256 H   0  0  0  0  0  0  0  0  0  0  0  0
    9.2497    6.3991   23.6820 C   0  0  0  0  0  0  0  0  0  0  0  0
    9.1262    6.4016   25.1797 C   0  0  0  0  0  0  0  0  0  0  0  0
    9.9460    5.4754   26.0516 C   0  0  0  0  0  0  0  0  0  0  0  0
    8.4249    7.2675   22.9583 C   0  0  0  0  0  0  0  0  0  0  0  0
    7.5574    8.1670   23.5959 C   0  0  0  0  0  0  0  0  0  0  0  0
    7.4362    8.2255   24.9855 C   0  0  0  0  0  0  0  0  0  0  0  0
    8.1825    7.3769   25.8027 C   0  0  0  0  0  0  0  0  0  0  0  0
    8.0279    7.4635   27.2995 C   0  0  0  0  0  0  0  0  0  0  0  0
  7  8  2  0  0  0
  8  9  1  0  0  0
  8  1  1  0  0  0
  1  2  1  0  0  0
  1  6  2  0  0  0
  2  3  2  0  0  0
  3  4  1  0  0  0
  4  5  2  0  0  0
  5  6  1  0  0  0
  6 11  1  0  0  0
 11 13  1  0  0  0
 13 14  1  0  0  0
 13 16  2  0  0  0
 14 15  1  0  0  0
 14 19  2  0  0  0
 16 17  1  0  0  0
 17 18  2  0  0  0
 18 19  1  0  0  0
 19 20  1  0  0  0
  9 10  1  0  0  0
 11 12  1  0  0  0
M  END
> <minimizedAffinity>
-8.16710

$$$$
2XN3_ID8_A_1356


 20 21  0  0  0  0  0  0  0  0999 V2000
    9.1667    7.3268   24.0274 C   0  0  0  0  0  0  0  0  0  0  0  0
    8.5049    8.5543   24.1447 C   0  0  0  0  0  0  0  0  0  0  0  0
    8.9358    9.6667   23.4262 C   0  0  0  0  0  0  0  0  0  0  0  0
   10.0365    9.5841   22.5771 C   0  0  0  0  0  0  0  0  0  0  0  0
   10.7403    8.3832   22.4244 C   0  0  0  0  0  0  0  0  0  0  0  0
   10.3821    7.2169   23.1348 C   0  0  0  0  0  0  0  0  0  0  0  0
    7.7763    6.3226   25.7107 O   0  0  0  0  0  0  0  0  0  0  0  0
    8.6680    6.1393   24.8436 C   0  0  0  0  0  0  0  0  0  0  0  0
    9.1603    4.9918   24.6716 O   0  0  0  0  0  0  0  0  0  0  0  0
    9.8248    4.8593   24.0243 H   0  0  0  0  0  0  0  0  0  0  0  0
   11.0096    5.9802   23.0655 N   0  0  0  0  0  0  0  0  0  0  0  0
   11.1815    5.4578   23.8821 H   0  0  0  0  0  0  0  0  0  0  0  0
   11.3819    5.5052   21.8465 C   0  0  0  0  0  0  0  0  0  0  0  0
   10.4294    4.7630   20.9519 C   0  0  0  0  0  0  0  0  0  0  0  0
    8.9376    4.7515   21.2059 C   0  0  0  0  0  0  0  0  0  0  0  0
   12.7476    5.4290   21.5508 C   0  0  0  0  0  0  0  0  0  0  0  0
   13.2230    4.7464   20.4212 C   0  0  0  0  0  0  0  0  0  0  0  0
   12.3700    4.0719   19.5458 C   0  0  0  0  0  0  0  0  0  0  0  0
   10.9933    4.0495   19.7674 C   0  0  0  0  0  0  0  0  0  0  0  0
   10.0990    3.3111   18.8048 C   0  0  0  0  0  0  0  0  0  0  0  0
  7  8  2  0  0  0
  8  9  1  0  0  0
  8  1  1  0  0  0
  1  2  1  0  0  0
  1  6  2  0  0  0
  2  3  2  0  0  0
  3  4  1  0  0  0
  4  5  2  0  0  0
  5  6  1  0  0  0
  6 11  1  0  0  0
 11 13  1  0  0  0
 13 14  1  0  0  0
 13 16  2  0  0  0
 14 15  1  0  0  0
 14 19  2  0  0  0
 16 17  1  0  0  0
 17 18  2  0  0  0
 18 19  1  0  0  0
 19 20  1  0  0  0
  9 10  1  0  0  0
 11 12  1  0  0  0
M  END
> <minimizedAffinity>
-8.03783

$$$$
2XN3_ID8_A_1356


 20 21  0  0  0  0  0  0  0  0999 V2000
   11.4315    5.1172   21.4589 C   0  0  0  0  0  0  0  0  0  0  0  0
   12.7689    4.8726   21.1271 C   0  0  0  0  0  0  0  0  0  0  0  0
   13.7780    5.7284   21.5615 C   0  0  0  0  0  0  0  0  0  0  0  0
   13.4793    6.8483   22.3335 C   0  0  0  0  0  0  0  0  0  0  0  0
   12.1585    7.1455   22.6914 C   0  0  0  0  0  0  0  0  0  0  0  0
   11.0765    6.3418   22.2715 C   0  0  0  0  0  0  0  0  0  0  0  0
    9.6990    3.4826   21.7777 O   0  0  0  0  0  0  0  0  0  0  0  0
   10.3586    4.1607   20.9497 C   0  0  0  0  0  0  0  0  0  0  0  0
   10.1513    4.0303   19.7133 O   0  0  0  0  0  0  0  0  0  0  0  0
   10.6450    4.5376   19.0994 H   0  0  0  0  0  0  0  0  0  0  0  0
    9.7337    6.5447   22.5608 N   0  0  0  0  0  0  0  0  0  0  0  0
    9.1035    6.8175   21.8553 H   0  0  0  0  0  0  0  0  0  0  0  0
    9.3066    6.3590   23.8388 C   0  0  0  0  0  0  0  0  0  0  0  0
    8.2863    7.2569   24.4800 C   0  0  0  0  0  0  0  0  0  0  0  0
    7.4557    8.2296   23.6712 C   0  0  0  0  0  0  0  0  0  0  0  0
   10.0507    5.5175   24.6734 C   0  0  0  0  0  0  0  0  0  0  0  0
    9.8161    5.4498   26.0549 C   0  0  0  0  0  0  0  0  0  0  0  0
    8.8553    6.2419   26.6860 C   0  0  0  0  0  0  0  0  0  0  0  0
    8.0837    7.1450   25.9553 C   0  0  0  0  0  0  0  0  0  0  0  0
    7.0556    7.9873   26.6662 C   0  0  0  0  0  0  0  0  0  0  0  0
  7  8  2  0  0  0
  8  9  1  0  0  0
  8  1  1  0  0  0
  1  2  1  0  0  0
  1  6  2  0  0  0
  2  3  2  0  0  0
  3  4  1  0  0  0
  4  5  2  0  0  0
  5  6  1  0  0  0
  6 11  1  0  0  0
 11 13  1  0  0  0
 13 14  1  0  0  0
 13 16  2  0  0  0
 14 15  1  0  0  0
 14 19  2  0  0  0
 16 17  1  0  0  0
 17 18  2  0  0  0
 18 19  1  0  0  0
 19 20  1  0  0  0
  9 10  1  0  0  0
 11 12  1  0  0  0
M  END
> <minimizedAffinity>
-7.87753

$$$$
2XN3_ID8_A_1356


 20 21  0  0  0  0  0  0  0  0999 V2000
    8.4662    6.5267   25.3473 C   0  0  0  0  0  0  0  0  0  0  0  0
    7.7150    7.5997   25.8401 C   0  0  0  0  0  0  0  0  0  0  0  0
    7.1252    8.5142   24.9710 C   0  0  0  0  0  0  0  0  0  0  0  0
    7.2717    8.3835   23.5923 C   0  0  0  0  0  0  0  0  0  0  0  0
    8.0165    7.3327   23.0429 C   0  0  0  0  0  0  0  0  0  0  0  0
    8.6652    6.3779   23.8559 C   0  0  0  0  0  0  0  0  0  0  0  0
   10.3550    5.4228   26.3419 O   0  0  0  0  0  0  0  0  0  0  0  0
    9.1051    5.5579   26.3366 C   0  0  0  0  0  0  0  0  0  0  0  0
    8.3896    4.8805   27.1225 O   0  0  0  0  0  0  0  0  0  0  0  0
    7.4584    4.9841   27.1155 H   0  0  0  0  0  0  0  0  0  0  0  0
    9.4307    5.3041   23.4212 N   0  0  0  0  0  0  0  0  0  0  0  0
    9.1624    4.3797   23.6279 H   0  0  0  0  0  0  0  0  0  0  0  0
   10.5588    5.5554   22.7039 C   0  0  0  0  0  0  0  0  0  0  0  0
   10.9885    4.6843   21.5572 C   0  0  0  0  0  0  0  0  0  0  0  0
   10.0610    3.6611   20.9385 C   0  0  0  0  0  0  0  0  0  0  0  0
   11.4980    6.4483   23.2320 C   0  0  0  0  0  0  0  0  0  0  0  0
   12.7786    6.5892   22.6768 C   0  0  0  0  0  0  0  0  0  0  0  0
   13.2069    5.8238   21.5906 C   0  0  0  0  0  0  0  0  0  0  0  0
   12.3652    4.8748   21.0109 C   0  0  0  0  0  0  0  0  0  0  0  0
   12.8578    4.0630   19.8404 C   0  0  0  0  0  0  0  0  0  0  0  0
  7  8  2  0  0  0
  8  9  1  0  0  0
  8  1  1  0  0  0
  1  2  1  0  0  0
  1  6  2  0  0  0
  2  3  2  0  0  0
  3  4  1  0  0  0
  4  5  2  0  0  0
  5  6  1  0  0  0
  6 11  1  0  0  0
 11 13  1  0  0  0
 13 14  1  0  0  0
 13 16  2  0  0  0
 14 15  1  0  0  0
 14 19  2  0  0  0
 16 17  1  0  0  0
 17 18  2  0  0  0
 18 19  1  0  0  0
 19 20  1  0  0  0
  9 10  1  0  0  0
 11 12  1  0  0  0
M  END
> <minimizedAffinity>
-7.85078

$$$$
2XN3_ID8_A_1356


 20 21  0  0  0  0  0  0  0  0999 V2000
    9.0550    7.2188   24.3646 C   0  0  0  0  0  0  0  0  0  0  0  0
    8.6904    8.5689   24.4176 C   0  0  0  0  0  0  0  0  0  0  0  0
    9.2402    9.4900   23.5295 C   0  0  0  0  0  0  0  0  0  0  0  0
   10.1671    9.0894   22.5704 C   0  0  0  0  0  0  0  0  0  0  0  0
   10.5728    7.7526   22.4743 C   0  0  0  0  0  0  0  0  0  0  0  0
   10.0808    6.7623   23.3520 C   0  0  0  0  0  0  0  0  0  0  0  0
    7.3660    6.5628   25.9432 O   0  0  0  0  0  0  0  0  0  0  0  0
    8.4377    6.2485   25.3659 C   0  0  0  0  0  0  0  0  0  0  0  0
    9.0062    5.1557   25.6329 O   0  0  0  0  0  0  0  0  0  0  0  0
    9.8048    4.9252   25.2005 H   0  0  0  0  0  0  0  0  0  0  0  0
   10.4170    5.4151   23.3515 N   0  0  0  0  0  0  0  0  0  0  0  0
   10.8849    5.0139   24.1191 H   0  0  0  0  0  0  0  0  0  0  0  0
   10.0865    4.6609   22.2688 C   0  0  0  0  0  0  0  0  0  0  0  0
   11.0330    4.4514   21.1205 C   0  0  0  0  0  0  0  0  0  0  0  0
   12.5004    4.8082   21.2180 C   0  0  0  0  0  0  0  0  0  0  0  0
    8.7404    4.3327   22.0723 C   0  0  0  0  0  0  0  0  0  0  0  0
    8.2856    3.7605   20.8749 C   0  0  0  0  0  0  0  0  0  0  0  0
    9.1372    3.5182   19.7955 C   0  0  0  0  0  0  0  0  0  0  0  0
   10.4913    3.8438   19.8686 C   0  0  0  0  0  0  0  0  0  0  0  0
   11.3845    3.5713   18.6855 C   0  0  0  0  0  0  0  0  0  0  0  0
  7  8  2  0  0  0
  8  9  1  0  0  0
  8  1  1  0  0  0
  1  2  1  0  0  0
  1  6  2  0  0  0
  2  3  2  0  0  0
  3  4  1  0  0  0
  4  5  2  0  0  0
  5  6  1  0  0  0
  6 11  1  0  0  0
 11 13  1  0  0  0
 13 14  1  0  0  0
 13 16  2  0  0  0
 14 15  1  0  0  0
 14 19  2  0  0  0
 16 17  1  0  0  0
 17 18  2  0  0  0
 18 19  1  0  0  0
 19 20  1  0  0  0
  9 10  1  0  0  0
 11 12  1  0  0  0
M  END
> <minimizedAffinity>
-7.82351

$$$$
2XN3_ID8_A_1356


 20 21  0  0  0  0  0  0  0  0999 V2000
    8.1976    7.3815   25.1031 C   0  0  0  0  0  0  0  0  0  0  0  0
    7.6800    7.0581   26.3625 C   0  0  0  0  0  0  0  0  0  0  0  0
    8.2521    6.0455   27.1285 C   0  0  0  0  0  0  0  0  0  0  0  0
    9.3502    5.3298   26.6579 C   0  0  0  0  0  0  0  0  0  0  0  0
    9.9068    5.6064   25.4031 C   0  0  0  0  0  0  0  0  0  0  0  0
    9.3711    6.6008   24.5560 C   0  0  0  0  0  0  0  0  0  0  0  0
    6.2835    8.6319   24.3632 O   0  0  0  0  0  0  0  0  0  0  0  0
    7.5305    8.4883   24.2938 C   0  0  0  0  0  0  0  0  0  0  0  0
    8.2151    9.2347   23.5435 O   0  0  0  0  0  0  0  0  0  0  0  0
    9.1443    9.1245   23.4945 H   0  0  0  0  0  0  0  0  0  0  0  0
    9.8364    6.9530   23.2961 N   0  0  0  0  0  0  0  0  0  0  0  0
   10.0531    7.8897   23.0844 H   0  0  0  0  0  0  0  0  0  0  0  0
    9.9867    5.9774   22.3602 C   0  0  0  0  0  0  0  0  0  0  0  0
    8.8161    5.3822   21.6296 C   0  0  0  0  0  0  0  0  0  0  0  0
    7.4440    6.0197   21.6632 C   0  0  0  0  0  0  0  0  0  0  0  0
   11.2081    5.2972   22.2982 C   0  0  0  0  0  0  0  0  0  0  0  0
   11.3702    4.1363   21.5274 C   0  0  0  0  0  0  0  0  0  0  0  0
   10.3178    3.5688   20.8068 C   0  0  0  0  0  0  0  0  0  0  0  0
    9.0468    4.1425   20.8297 C   0  0  0  0  0  0  0  0  0  0  0  0
    7.9310    3.5048   20.0424 C   0  0  0  0  0  0  0  0  0  0  0  0
  7  8  2  0  0  0
  8  9  1  0  0  0
  8  1  1  0  0  0
  1  2  1  0  0  0
  1  6  2  0  0  0
  2  3  2  0  0  0
  3  4  1  0  0  0
  4  5  2  0  0  0
  5  6  1  0  0  0
  6 11  1  0  0  0
 11 13  1  0  0  0
 13 14  1  0  0  0
 13 16  2  0  0  0
 14 15  1  0  0  0
 14 19  2  0  0  0
 16 17  1  0  0  0
 17 18  2  0  0  0
 18 19  1  0  0  0
 19 20  1  0  0  0
  9 10  1  0  0  0
 11 12  1  0  0  0
M  END
> <minimizedAffinity>
-7.77277

$$$$
2XN3_ID8_A_1356


 20 21  0  0  0  0  0  0  0  0999 V2000
    8.5846    3.5635   19.7797 C   0  0  0  0  0  0  0  0  0  0  0  0
    8.5577    3.2299   18.4209 C   0  0  0  0  0  0  0  0  0  0  0  0
    9.7408    3.0624   17.7055 C   0  0  0  0  0  0  0  0  0  0  0  0
   10.9773    3.2258   18.3251 C   0  0  0  0  0  0  0  0  0  0  0  0
   11.0650    3.5646   19.6809 C   0  0  0  0  0  0  0  0  0  0  0  0
    9.9131    3.7751   20.4697 C   0  0  0  0  0  0  0  0  0  0  0  0
    6.4419    4.6034   20.0995 O   0  0  0  0  0  0  0  0  0  0  0  0
    7.2643    3.7502   20.5194 C   0  0  0  0  0  0  0  0  0  0  0  0
    7.0091    3.0774   21.5542 O   0  0  0  0  0  0  0  0  0  0  0  0
    7.6247    2.4425   21.8639 H   0  0  0  0  0  0  0  0  0  0  0  0
    9.8827    4.1184   21.8148 N   0  0  0  0  0  0  0  0  0  0  0  0
    9.4248    3.5434   22.4697 H   0  0  0  0  0  0  0  0  0  0  0  0
   10.4985    5.2654   22.2092 C   0  0  0  0  0  0  0  0  0  0  0  0
    9.7480    6.5547   22.3913 C   0  0  0  0  0  0  0  0  0  0  0  0
    8.2362    6.6004   22.4392 C   0  0  0  0  0  0  0  0  0  0  0  0
   11.8949    5.3277   22.1428 C   0  0  0  0  0  0  0  0  0  0  0  0
   12.5905    6.5345   22.3096 C   0  0  0  0  0  0  0  0  0  0  0  0
   11.9339    7.7495   22.5142 C   0  0  0  0  0  0  0  0  0  0  0  0
   10.5412    7.8089   22.5582 C   0  0  0  0  0  0  0  0  0  0  0  0
    9.8621    9.1361   22.7790 C   0  0  0  0  0  0  0  0  0  0  0  0
  7  8  2  0  0  0
  8  9  1  0  0  0
  8  1  1  0  0  0
  1  2  1  0  0  0
  1  6  2  0  0  0
  2  3  2  0  0  0
  3  4  1  0  0  0
  4  5  2  0  0  0
  5  6  1  0  0  0
  6 11  1  0  0  0
 11 13  1  0  0  0
 13 14  1  0  0  0
 13 16  2  0  0  0
 14 15  1  0  0  0
 14 19  2  0  0  0
 16 17  1  0  0  0
 17 18  2  0  0  0
 18 19  1  0  0  0
 19 20  1  0  0  0
  9 10  1  0  0  0
 11 12  1  0  0  0
M  END
> <minimizedAffinity>
-7.72364

$$$$
2XN3_ID8_A_1356


 20 21  0  0  0  0  0  0  0  0999 V2000
   10.2970    4.3756   20.9451 C   0  0  0  0  0  0  0  0  0  0  0  0
   10.4836    4.0117   19.6067 C   0  0  0  0  0  0  0  0  0  0  0  0
   11.7199    4.1819   18.9886 C   0  0  0  0  0  0  0  0  0  0  0  0
   12.7977    4.7205   19.6870 C   0  0  0  0  0  0  0  0  0  0  0  0
   12.6677    5.1072   21.0265 C   0  0  0  0  0  0  0  0  0  0  0  0
   11.4424    4.9894   21.7179 C   0  0  0  0  0  0  0  0  0  0  0  0
    7.9358    4.7967   21.0949 O   0  0  0  0  0  0  0  0  0  0  0  0
    8.9224    4.1839   21.5765 C   0  0  0  0  0  0  0  0  0  0  0  0
    8.7785    3.4414   22.5847 O   0  0  0  0  0  0  0  0  0  0  0  0
    9.5162    2.9864   22.9406 H   0  0  0  0  0  0  0  0  0  0  0  0
   11.1995    5.3453   23.0379 N   0  0  0  0  0  0  0  0  0  0  0  0
   11.4268    4.7317   23.7735 H   0  0  0  0  0  0  0  0  0  0  0  0
   10.6411    6.5589   23.2939 C   0  0  0  0  0  0  0  0  0  0  0  0
    9.4371    6.7149   24.1796 C   0  0  0  0  0  0  0  0  0  0  0  0
    8.9498    5.5941   25.0721 C   0  0  0  0  0  0  0  0  0  0  0  0
   10.9948    7.6395   22.4783 C   0  0  0  0  0  0  0  0  0  0  0  0
   10.3031    8.8592   22.5248 C   0  0  0  0  0  0  0  0  0  0  0  0
    9.2001    9.0576   23.3573 C   0  0  0  0  0  0  0  0  0  0  0  0
    8.7370    8.0340   24.1835 C   0  0  0  0  0  0  0  0  0  0  0  0
    7.5427    8.2791   25.0696 C   0  0  0  0  0  0  0  0  0  0  0  0
  7  8  2  0  0  0
  8  9  1  0  0  0
  8  1  1  0  0  0
  1  2  1  0  0  0
  1  6  2  0  0  0
  2  3  2  0  0  0
  3  4  1  0  0  0
  4  5  2  0  0  0
  5  6  1  0  0  0
  6 11  1  0  0  0
 11 13  1  0  0  0
 13 14  1  0  0  0
 13 16  2  0  0  0
 14 15  1  0  0  0
 14 19  2  0  0  0
 16 17  1  0  0  0
 17 18  2  0  0  0
 18 19  1  0  0  0
 19 20  1  0  0  0
  9 10  1  0  0  0
 11 12  1  0  0  0
M  END
> <minimizedAffinity>
-7.54577

$$$$
