4WIV_3P2_A_201


 28 31  0  0  0  0  0  0  0  0999 V2000
   15.9357   -1.9667  -10.2801 C   0  0  0  0  0  0  0  0  0  0  0  0
   17.0519   -0.3333   -9.2989 C   0  0  0  0  0  0  0  0  0  0  0  0
   16.2624   -0.8851  -11.2276 C   0  0  0  0  0  0  0  0  0  0  0  0
   16.4378   -1.5313   -9.1116 N   0  0  0  0  0  0  0  0  0  0  0  0
   16.9489    0.0619  -10.5909 N   0  0  0  0  0  0  0  0  0  0  0  0
   17.7109    0.4674   -8.3701 C   0  0  0  0  0  0  0  0  0  0  0  0
   18.2581    1.6225   -8.7633 N   0  0  0  0  0  0  0  0  0  0  0  0
   18.1522    2.0047  -10.0433 C   0  0  0  0  0  0  0  0  0  0  0  0
   17.4935    1.2223  -10.9776 C   0  0  0  0  0  0  0  0  0  0  0  0
   13.7511   -5.5662  -10.7044 C   0  0  0  0  0  0  0  0  0  0  0  0
   14.1912   -4.8946  -11.8325 C   0  0  0  0  0  0  0  0  0  0  0  0
   14.0190   -5.0738   -9.4291 C   0  0  0  0  0  0  0  0  0  0  0  0
   14.7256   -3.8913   -9.2912 C   0  0  0  0  0  0  0  0  0  0  0  0
   15.1174   -3.1880  -10.4272 C   0  0  0  0  0  0  0  0  0  0  0  0
   14.8941   -3.7009  -11.6956 C   0  0  0  0  0  0  0  0  0  0  0  0
   12.4273   -9.0040  -10.6052 O   0  0  0  0  0  0  0  0  0  0  0  0
   13.4107   -8.1276  -10.2934 C   0  0  0  0  0  0  0  0  0  0  0  0
   12.9956   -6.8336  -10.8299 C   0  0  0  0  0  0  0  0  0  0  0  0
   11.6690   -7.0964  -11.4430 C   0  0  0  0  0  0  0  0  0  0  0  0
   10.8048   -6.0769  -12.1270 C   0  0  0  0  0  0  0  0  0  0  0  0
   14.6330   -8.6144   -9.5739 C   0  0  0  0  0  0  0  0  0  0  0  0
   11.4032   -8.4289  -11.2795 N   0  0  0  0  0  0  0  0  0  0  0  0
   15.9735   -0.8791  -12.5617 N   0  0  0  0  0  0  0  0  0  0  0  0
   15.0761   -0.5934  -12.8486 H   0  0  0  0  0  0  0  0  0  0  0  0
   16.9410   -1.2794  -13.5829 C   0  0  0  0  0  0  0  0  0  0  0  0
   16.2469   -2.1516  -14.6291 C   0  0  0  0  0  0  0  0  0  0  0  0
   17.5516   -0.0689  -14.2822 C   0  0  0  0  0  0  0  0  0  0  0  0
   18.0888   -2.0711  -12.9647 C   0  0  0  0  0  0  0  0  0  0  0  0
 20 19  1  0  0  0
 22 19  2  0  0  0
 22 16  1  0  0  0
 19 18  1  0  0  0
 16 17  1  0  0  0
 11 15  2  0  0  0
 11 10  1  0  0  0
 18 17  2  0  0  0
 18 10  1  0  0  0
 17 21  1  0  0  0
 15 14  1  0  0  0
 10 12  2  0  0  0
  4  1  1  0  0  0
  4  2  2  0  0  0
 14  1  1  0  0  0
 14 13  2  0  0  0
  6  2  1  0  0  0
  6  7  2  0  0  0
 12 13  1  0  0  0
  1  3  2  0  0  0
  2  5  1  0  0  0
  7  8  1  0  0  0
  5  3  1  0  0  0
  5  9  1  0  0  0
  3 23  1  0  0  0
  8  9  2  0  0  0
 28 25  1  0  0  0
 23 25  1  0  0  0
 25 27  1  0  0  0
 25 26  1  0  0  0
 23 24  1  0  0  0
M  END
> <minimizedAffinity>
-8.20657

$$$$
4WIV_3P2_A_201


 28 31  0  0  0  0  0  0  0  0999 V2000
   15.2568   -3.0468   -8.6722 C   0  0  0  0  0  0  0  0  0  0  0  0
   16.4866   -1.2126   -8.6574 C   0  0  0  0  0  0  0  0  0  0  0  0
   15.5088   -2.5716   -7.2992 C   0  0  0  0  0  0  0  0  0  0  0  0
   15.9168   -2.1647   -9.4425 N   0  0  0  0  0  0  0  0  0  0  0  0
   16.2362   -1.4572   -7.3484 N   0  0  0  0  0  0  0  0  0  0  0  0
   17.2487   -0.1096   -9.0323 C   0  0  0  0  0  0  0  0  0  0  0  0
   17.7189    0.7190   -8.0939 N   0  0  0  0  0  0  0  0  0  0  0  0
   17.4652    0.4698   -6.8019 C   0  0  0  0  0  0  0  0  0  0  0  0
   16.7145   -0.6275   -6.4127 C   0  0  0  0  0  0  0  0  0  0  0  0
   13.5517   -6.6054  -10.2011 C   0  0  0  0  0  0  0  0  0  0  0  0
   13.6792   -5.4984  -11.0230 C   0  0  0  0  0  0  0  0  0  0  0  0
   13.9789   -6.5649   -8.8758 C   0  0  0  0  0  0  0  0  0  0  0  0
   14.5280   -5.3975   -8.3736 C   0  0  0  0  0  0  0  0  0  0  0  0
   14.6027   -4.2683   -9.1847 C   0  0  0  0  0  0  0  0  0  0  0  0
   14.2229   -4.3211  -10.5169 C   0  0  0  0  0  0  0  0  0  0  0  0
   12.7423  -10.0431  -11.2535 O   0  0  0  0  0  0  0  0  0  0  0  0
   13.6277   -9.1684  -10.7214 C   0  0  0  0  0  0  0  0  0  0  0  0
   12.9690   -7.8643  -10.7193 C   0  0  0  0  0  0  0  0  0  0  0  0
   11.6213   -8.1304  -11.2828 C   0  0  0  0  0  0  0  0  0  0  0  0
   10.5401   -7.1082  -11.4827 C   0  0  0  0  0  0  0  0  0  0  0  0
   14.9913   -9.6484  -10.3227 C   0  0  0  0  0  0  0  0  0  0  0  0
   11.5670   -9.4622  -11.5934 N   0  0  0  0  0  0  0  0  0  0  0  0
   15.0196   -3.1370   -6.1571 N   0  0  0  0  0  0  0  0  0  0  0  0
   15.5783   -3.7906   -5.6777 H   0  0  0  0  0  0  0  0  0  0  0  0
   13.7001   -2.8127   -5.6158 C   0  0  0  0  0  0  0  0  0  0  0  0
   13.0240   -4.0910   -5.1199 C   0  0  0  0  0  0  0  0  0  0  0  0
   13.7969   -1.8282   -4.4545 C   0  0  0  0  0  0  0  0  0  0  0  0
   12.8176   -2.1701   -6.6810 C   0  0  0  0  0  0  0  0  0  0  0  0
 20 19  1  0  0  0
 22 19  2  0  0  0
 22 16  1  0  0  0
 19 18  1  0  0  0
 16 17  1  0  0  0
 11 15  2  0  0  0
 11 10  1  0  0  0
 18 17  2  0  0  0
 18 10  1  0  0  0
 17 21  1  0  0  0
 15 14  1  0  0  0
 10 12  2  0  0  0
  4  1  1  0  0  0
  4  2  2  0  0  0
 14  1  1  0  0  0
 14 13  2  0  0  0
  6  2  1  0  0  0
  6  7  2  0  0  0
 12 13  1  0  0  0
  1  3  2  0  0  0
  2  5  1  0  0  0
  7  8  1  0  0  0
  5  3  1  0  0  0
  5  9  1  0  0  0
  3 23  1  0  0  0
  8  9  2  0  0  0
 28 25  1  0  0  0
 23 25  1  0  0  0
 25 27  1  0  0  0
 25 26  1  0  0  0
 23 24  1  0  0  0
M  END
> <minimizedAffinity>
-8.11982

$$$$
4WIV_3P2_A_201


 28 31  0  0  0  0  0  0  0  0999 V2000
   15.2752   -3.0186   -8.6679 C   0  0  0  0  0  0  0  0  0  0  0  0
   16.5131   -1.1900   -8.6446 C   0  0  0  0  0  0  0  0  0  0  0  0
   15.5345   -2.5544   -7.2925 C   0  0  0  0  0  0  0  0  0  0  0  0
   15.9362   -2.1339   -9.4343 N   0  0  0  0  0  0  0  0  0  0  0  0
   16.2666   -1.4428   -7.3365 N   0  0  0  0  0  0  0  0  0  0  0  0
   17.2786   -0.0877   -9.0146 C   0  0  0  0  0  0  0  0  0  0  0  0
   17.7560    0.7321   -8.0720 N   0  0  0  0  0  0  0  0  0  0  0  0
   17.5060    0.4747   -6.7809 C   0  0  0  0  0  0  0  0  0  0  0  0
   16.7520   -0.6220   -6.3967 C   0  0  0  0  0  0  0  0  0  0  0  0
   13.5489   -6.5593  -10.2146 C   0  0  0  0  0  0  0  0  0  0  0  0
   13.6853   -5.4497  -11.0317 C   0  0  0  0  0  0  0  0  0  0  0  0
   13.9741   -6.5272   -8.8884 C   0  0  0  0  0  0  0  0  0  0  0  0
   14.5302   -5.3656   -8.3804 C   0  0  0  0  0  0  0  0  0  0  0  0
   14.6138   -4.2336   -9.1866 C   0  0  0  0  0  0  0  0  0  0  0  0
   14.2360   -4.2783  -10.5197 C   0  0  0  0  0  0  0  0  0  0  0  0
   11.5091   -9.2359  -11.7164 O   0  0  0  0  0  0  0  0  0  0  0  0
   11.6406   -7.9377  -11.3566 C   0  0  0  0  0  0  0  0  0  0  0  0
   12.9587   -7.8121  -10.7390 C   0  0  0  0  0  0  0  0  0  0  0  0
   13.5389   -9.1761  -10.8265 C   0  0  0  0  0  0  0  0  0  0  0  0
   14.8996   -9.5801  -10.3374 C   0  0  0  0  0  0  0  0  0  0  0  0
   10.5053   -6.9870  -11.5932 C   0  0  0  0  0  0  0  0  0  0  0  0
   12.5998   -9.9797  -11.4140 N   0  0  0  0  0  0  0  0  0  0  0  0
   15.0470   -3.1258   -6.1526 N   0  0  0  0  0  0  0  0  0  0  0  0
   15.6088   -3.7779   -5.6745 H   0  0  0  0  0  0  0  0  0  0  0  0
   13.7253   -2.8101   -5.6117 C   0  0  0  0  0  0  0  0  0  0  0  0
   13.0550   -4.0936   -5.1215 C   0  0  0  0  0  0  0  0  0  0  0  0
   13.8158   -1.8296   -4.4466 C   0  0  0  0  0  0  0  0  0  0  0  0
   12.8409   -2.1680   -6.6756 C   0  0  0  0  0  0  0  0  0  0  0  0
 20 19  1  0  0  0
 22 19  2  0  0  0
 22 16  1  0  0  0
 19 18  1  0  0  0
 16 17  1  0  0  0
 11 15  2  0  0  0
 11 10  1  0  0  0
 18 17  2  0  0  0
 18 10  1  0  0  0
 17 21  1  0  0  0
 15 14  1  0  0  0
 10 12  2  0  0  0
  4  1  1  0  0  0
  4  2  2  0  0  0
 14  1  1  0  0  0
 14 13  2  0  0  0
  6  2  1  0  0  0
  6  7  2  0  0  0
 12 13  1  0  0  0
  1  3  2  0  0  0
  2  5  1  0  0  0
  7  8  1  0  0  0
  5  3  1  0  0  0
  5  9  1  0  0  0
  3 23  1  0  0  0
  8  9  2  0  0  0
 28 25  1  0  0  0
 23 25  1  0  0  0
 25 27  1  0  0  0
 25 26  1  0  0  0
 23 24  1  0  0  0
M  END
> <minimizedAffinity>
-7.98040

$$$$
4WIV_3P2_A_201


 28 31  0  0  0  0  0  0  0  0999 V2000
   15.5489   -1.2291  -11.7371 C   0  0  0  0  0  0  0  0  0  0  0  0
   15.6966    0.7135  -12.7770 C   0  0  0  0  0  0  0  0  0  0  0  0
   16.7887   -0.5143  -11.3815 C   0  0  0  0  0  0  0  0  0  0  0  0
   14.9500   -0.4114  -12.6201 N   0  0  0  0  0  0  0  0  0  0  0  0
   16.8184    0.6543  -12.0193 N   0  0  0  0  0  0  0  0  0  0  0  0
   15.4501    1.8228  -13.5812 C   0  0  0  0  0  0  0  0  0  0  0  0
   16.3186    2.8396  -13.5892 N   0  0  0  0  0  0  0  0  0  0  0  0
   17.4247    2.7729  -12.8356 C   0  0  0  0  0  0  0  0  0  0  0  0
   17.6874    1.6728  -12.0358 C   0  0  0  0  0  0  0  0  0  0  0  0
   13.9877   -5.0520  -10.8114 C   0  0  0  0  0  0  0  0  0  0  0  0
   14.0818   -4.0913   -9.8186 C   0  0  0  0  0  0  0  0  0  0  0  0
   14.3990   -4.7769  -12.1137 C   0  0  0  0  0  0  0  0  0  0  0  0
   14.9184   -3.5293  -12.4137 C   0  0  0  0  0  0  0  0  0  0  0  0
   15.0653   -2.5842  -11.4018 C   0  0  0  0  0  0  0  0  0  0  0  0
   14.6120   -2.8393  -10.1168 C   0  0  0  0  0  0  0  0  0  0  0  0
   13.1817   -8.4337   -9.5888 O   0  0  0  0  0  0  0  0  0  0  0  0
   14.0111   -7.3640   -9.5868 C   0  0  0  0  0  0  0  0  0  0  0  0
   13.4331   -6.3920  -10.5119 C   0  0  0  0  0  0  0  0  0  0  0  0
   12.1870   -7.0383  -10.9956 C   0  0  0  0  0  0  0  0  0  0  0  0
   11.2119   -6.4390  -11.9672 C   0  0  0  0  0  0  0  0  0  0  0  0
   15.2601   -7.3994   -8.7577 C   0  0  0  0  0  0  0  0  0  0  0  0
   12.1136   -8.2709  -10.4054 N   0  0  0  0  0  0  0  0  0  0  0  0
   17.7278   -0.9423  -10.4880 N   0  0  0  0  0  0  0  0  0  0  0  0
   18.4041   -1.5913  -10.7892 H   0  0  0  0  0  0  0  0  0  0  0  0
   17.7716   -0.4772   -9.1020 C   0  0  0  0  0  0  0  0  0  0  0  0
   19.2081   -0.5512   -8.5843 C   0  0  0  0  0  0  0  0  0  0  0  0
   17.2803    0.9617   -8.9776 C   0  0  0  0  0  0  0  0  0  0  0  0
   16.8818   -1.3375   -8.2107 C   0  0  0  0  0  0  0  0  0  0  0  0
 20 19  1  0  0  0
 22 19  2  0  0  0
 22 16  1  0  0  0
 19 18  1  0  0  0
 16 17  1  0  0  0
 11 15  2  0  0  0
 11 10  1  0  0  0
 18 17  2  0  0  0
 18 10  1  0  0  0
 17 21  1  0  0  0
 15 14  1  0  0  0
 10 12  2  0  0  0
  4  1  1  0  0  0
  4  2  2  0  0  0
 14  1  1  0  0  0
 14 13  2  0  0  0
  6  2  1  0  0  0
  6  7  2  0  0  0
 12 13  1  0  0  0
  1  3  2  0  0  0
  2  5  1  0  0  0
  7  8  1  0  0  0
  5  3  1  0  0  0
  5  9  1  0  0  0
  3 23  1  0  0  0
  8  9  2  0  0  0
 28 25  1  0  0  0
 23 25  1  0  0  0
 25 27  1  0  0  0
 25 26  1  0  0  0
 23 24  1  0  0  0
M  END
> <minimizedAffinity>
-7.81847

$$$$
4WIV_3P2_A_201


 28 31  0  0  0  0  0  0  0  0999 V2000
   15.7883   -1.2654  -12.3194 C   0  0  0  0  0  0  0  0  0  0  0  0
   16.2888    0.5248  -13.5115 C   0  0  0  0  0  0  0  0  0  0  0  0
   17.0493   -0.6473  -11.8698 C   0  0  0  0  0  0  0  0  0  0  0  0
   15.4026   -0.4929  -13.3497 N   0  0  0  0  0  0  0  0  0  0  0  0
   17.2935    0.4345  -12.6069 N   0  0  0  0  0  0  0  0  0  0  0  0
   16.2746    1.5580  -14.4444 C   0  0  0  0  0  0  0  0  0  0  0  0
   17.2499    2.4729  -14.4325 N   0  0  0  0  0  0  0  0  0  0  0  0
   18.2388    2.3762  -13.5334 C   0  0  0  0  0  0  0  0  0  0  0  0
   18.2706    1.3500  -12.6035 C   0  0  0  0  0  0  0  0  0  0  0  0
   14.0204   -4.9244  -11.1380 C   0  0  0  0  0  0  0  0  0  0  0  0
   14.4910   -4.7768  -12.4319 C   0  0  0  0  0  0  0  0  0  0  0  0
   14.1222   -3.8840  -10.2172 C   0  0  0  0  0  0  0  0  0  0  0  0
   14.6922   -2.6841  -10.6070 C   0  0  0  0  0  0  0  0  0  0  0  0
   15.1124   -2.5183  -11.9240 C   0  0  0  0  0  0  0  0  0  0  0  0
   15.0561   -3.5679  -12.8278 C   0  0  0  0  0  0  0  0  0  0  0  0
   11.9807   -7.9392  -10.5628 O   0  0  0  0  0  0  0  0  0  0  0  0
   12.1561   -6.7590  -11.2019 C   0  0  0  0  0  0  0  0  0  0  0  0
   13.4094   -6.2003  -10.7003 C   0  0  0  0  0  0  0  0  0  0  0  0
   13.9087   -7.2168   -9.7400 C   0  0  0  0  0  0  0  0  0  0  0  0
   15.1842   -7.1241   -8.9536 C   0  0  0  0  0  0  0  0  0  0  0  0
   11.1129   -6.2793  -12.1664 C   0  0  0  0  0  0  0  0  0  0  0  0
   12.9859   -8.2268   -9.7018 N   0  0  0  0  0  0  0  0  0  0  0  0
   17.8143   -1.0684  -10.8205 N   0  0  0  0  0  0  0  0  0  0  0  0
   18.4219   -1.8310  -10.9561 H   0  0  0  0  0  0  0  0  0  0  0  0
   17.7691   -0.4342   -9.5033 C   0  0  0  0  0  0  0  0  0  0  0  0
   16.8770   -1.2554   -8.5723 C   0  0  0  0  0  0  0  0  0  0  0  0
   19.1588   -0.3300   -8.8831 C   0  0  0  0  0  0  0  0  0  0  0  0
   17.2095    0.9814   -9.5996 C   0  0  0  0  0  0  0  0  0  0  0  0
 20 19  1  0  0  0
 22 19  2  0  0  0
 22 16  1  0  0  0
 19 18  1  0  0  0
 16 17  1  0  0  0
 11 15  2  0  0  0
 11 10  1  0  0  0
 18 17  2  0  0  0
 18 10  1  0  0  0
 17 21  1  0  0  0
 15 14  1  0  0  0
 10 12  2  0  0  0
  4  1  1  0  0  0
  4  2  2  0  0  0
 14  1  1  0  0  0
 14 13  2  0  0  0
  6  2  1  0  0  0
  6  7  2  0  0  0
 12 13  1  0  0  0
  1  3  2  0  0  0
  2  5  1  0  0  0
  7  8  1  0  0  0
  5  3  1  0  0  0
  5  9  1  0  0  0
  3 23  1  0  0  0
  8  9  2  0  0  0
 28 25  1  0  0  0
 23 25  1  0  0  0
 25 27  1  0  0  0
 25 26  1  0  0  0
 23 24  1  0  0  0
M  END
> <minimizedAffinity>
-7.63006

$$$$
4WIV_3P2_A_201


 28 31  0  0  0  0  0  0  0  0999 V2000
   16.1518   -8.3419   -7.6158 C   0  0  0  0  0  0  0  0  0  0  0  0
   17.3963   -9.0914   -5.9526 C   0  0  0  0  0  0  0  0  0  0  0  0
   16.9754   -7.2701   -7.0265 C   0  0  0  0  0  0  0  0  0  0  0  0
   16.4562   -9.4227   -6.8767 N   0  0  0  0  0  0  0  0  0  0  0  0
   17.7173   -7.7782   -6.0442 N   0  0  0  0  0  0  0  0  0  0  0  0
   18.0030   -9.8973   -4.9932 C   0  0  0  0  0  0  0  0  0  0  0  0
   18.9187   -9.3724   -4.1721 N   0  0  0  0  0  0  0  0  0  0  0  0
   19.2306   -8.0729   -4.2708 C   0  0  0  0  0  0  0  0  0  0  0  0
   18.6305   -7.2567   -5.2155 C   0  0  0  0  0  0  0  0  0  0  0  0
   13.0487   -8.4149  -10.4923 C   0  0  0  0  0  0  0  0  0  0  0  0
   14.2012   -9.1513  -10.7086 C   0  0  0  0  0  0  0  0  0  0  0  0
   12.8951   -7.6500   -9.3382 C   0  0  0  0  0  0  0  0  0  0  0  0
   13.9145   -7.6191   -8.4020 C   0  0  0  0  0  0  0  0  0  0  0  0
   15.0954   -8.3143   -8.6483 C   0  0  0  0  0  0  0  0  0  0  0  0
   15.2307   -9.1141   -9.7725 C   0  0  0  0  0  0  0  0  0  0  0  0
   10.3421   -7.7223  -12.8954 O   0  0  0  0  0  0  0  0  0  0  0  0
   11.2530   -7.2621  -12.0063 C   0  0  0  0  0  0  0  0  0  0  0  0
   11.9456   -8.4359  -11.4801 C   0  0  0  0  0  0  0  0  0  0  0  0
   11.3309   -9.5805  -12.1990 C   0  0  0  0  0  0  0  0  0  0  0  0
   11.7045  -11.0242  -12.0251 C   0  0  0  0  0  0  0  0  0  0  0  0
   11.3337   -5.7911  -11.7261 C   0  0  0  0  0  0  0  0  0  0  0  0
   10.3640   -9.0705  -13.0224 N   0  0  0  0  0  0  0  0  0  0  0  0
   17.0284   -5.9761   -7.4581 N   0  0  0  0  0  0  0  0  0  0  0  0
   17.6818   -5.7378   -8.1549 H   0  0  0  0  0  0  0  0  0  0  0  0
   16.1553   -4.9288   -6.9289 C   0  0  0  0  0  0  0  0  0  0  0  0
   17.0068   -3.7854   -6.3772 C   0  0  0  0  0  0  0  0  0  0  0  0
   15.2291   -4.3734   -8.0063 C   0  0  0  0  0  0  0  0  0  0  0  0
   15.2726   -5.4703   -5.8090 C   0  0  0  0  0  0  0  0  0  0  0  0
 20 19  1  0  0  0
 22 19  2  0  0  0
 22 16  1  0  0  0
 19 18  1  0  0  0
 16 17  1  0  0  0
 11 15  2  0  0  0
 11 10  1  0  0  0
 18 17  2  0  0  0
 18 10  1  0  0  0
 17 21  1  0  0  0
 15 14  1  0  0  0
 10 12  2  0  0  0
  4  1  1  0  0  0
  4  2  2  0  0  0
 14  1  1  0  0  0
 14 13  2  0  0  0
  6  2  1  0  0  0
  6  7  2  0  0  0
 12 13  1  0  0  0
  1  3  2  0  0  0
  2  5  1  0  0  0
  7  8  1  0  0  0
  5  3  1  0  0  0
  5  9  1  0  0  0
  3 23  1  0  0  0
  8  9  2  0  0  0
 28 25  1  0  0  0
 23 25  1  0  0  0
 25 27  1  0  0  0
 25 26  1  0  0  0
 23 24  1  0  0  0
M  END
> <minimizedAffinity>
-7.32069

$$$$
4WIV_3P2_A_201


 28 31  0  0  0  0  0  0  0  0999 V2000
   14.7117   -7.3627   -4.6514 C   0  0  0  0  0  0  0  0  0  0  0  0
   14.4448   -7.8308   -2.5098 C   0  0  0  0  0  0  0  0  0  0  0  0
   15.8013   -8.2150   -4.1408 C   0  0  0  0  0  0  0  0  0  0  0  0
   13.9358   -7.1550   -3.5735 N   0  0  0  0  0  0  0  0  0  0  0  0
   15.5823   -8.4814   -2.8545 N   0  0  0  0  0  0  0  0  0  0  0  0
   13.9608   -7.9050   -1.2067 C   0  0  0  0  0  0  0  0  0  0  0  0
   14.6154   -8.6372   -0.2990 N   0  0  0  0  0  0  0  0  0  0  0  0
   15.7388   -9.2782   -0.6493 C   0  0  0  0  0  0  0  0  0  0  0  0
   16.2368   -9.2082   -1.9401 C   0  0  0  0  0  0  0  0  0  0  0  0
   14.3219   -5.4282   -8.3950 C   0  0  0  0  0  0  0  0  0  0  0  0
   14.2138   -4.6908   -7.2280 C   0  0  0  0  0  0  0  0  0  0  0  0
   14.5592   -6.8003   -8.3544 C   0  0  0  0  0  0  0  0  0  0  0  0
   14.6772   -7.4341   -7.1293 C   0  0  0  0  0  0  0  0  0  0  0  0
   14.5112   -6.7013   -5.9572 C   0  0  0  0  0  0  0  0  0  0  0  0
   14.3234   -5.3283   -5.9954 C   0  0  0  0  0  0  0  0  0  0  0  0
   13.5724   -4.3646  -11.8428 O   0  0  0  0  0  0  0  0  0  0  0  0
   13.4419   -5.2802  -10.8546 C   0  0  0  0  0  0  0  0  0  0  0  0
   14.2009   -4.7691   -9.7156 C   0  0  0  0  0  0  0  0  0  0  0  0
   14.7350   -3.4649  -10.1831 C   0  0  0  0  0  0  0  0  0  0  0  0
   15.5816   -2.5262   -9.3730 C   0  0  0  0  0  0  0  0  0  0  0  0
   12.6638   -6.5365  -11.1097 C   0  0  0  0  0  0  0  0  0  0  0  0
   14.3254   -3.2994  -11.4783 N   0  0  0  0  0  0  0  0  0  0  0  0
   16.8357   -8.7144   -4.8783 N   0  0  0  0  0  0  0  0  0  0  0  0
   16.7390   -9.6071   -5.2822 H   0  0  0  0  0  0  0  0  0  0  0  0
   18.0816   -7.9792   -5.0938 C   0  0  0  0  0  0  0  0  0  0  0  0
   18.1764   -7.5549   -6.5594 C   0  0  0  0  0  0  0  0  0  0  0  0
   18.1558   -6.7326   -4.2177 C   0  0  0  0  0  0  0  0  0  0  0  0
   19.2903   -8.8445   -4.7524 C   0  0  0  0  0  0  0  0  0  0  0  0
 20 19  1  0  0  0
 22 19  2  0  0  0
 22 16  1  0  0  0
 19 18  1  0  0  0
 16 17  1  0  0  0
 11 15  2  0  0  0
 11 10  1  0  0  0
 18 17  2  0  0  0
 18 10  1  0  0  0
 17 21  1  0  0  0
 15 14  1  0  0  0
 10 12  2  0  0  0
  4  1  1  0  0  0
  4  2  2  0  0  0
 14  1  1  0  0  0
 14 13  2  0  0  0
  6  2  1  0  0  0
  6  7  2  0  0  0
 12 13  1  0  0  0
  1  3  2  0  0  0
  2  5  1  0  0  0
  7  8  1  0  0  0
  5  3  1  0  0  0
  5  9  1  0  0  0
  3 23  1  0  0  0
  8  9  2  0  0  0
 28 25  1  0  0  0
 23 25  1  0  0  0
 25 27  1  0  0  0
 25 26  1  0  0  0
 23 24  1  0  0  0
M  END
> <minimizedAffinity>
-7.12021

$$$$
4WIV_3P2_A_201


 28 31  0  0  0  0  0  0  0  0999 V2000
   13.9553   -4.9510  -11.1470 C   0  0  0  0  0  0  0  0  0  0  0  0
   12.2263   -6.2313  -11.6448 C   0  0  0  0  0  0  0  0  0  0  0  0
   14.0304   -6.2561  -10.4649 C   0  0  0  0  0  0  0  0  0  0  0  0
   12.8002   -5.0134  -11.8316 N   0  0  0  0  0  0  0  0  0  0  0  0
   12.9773   -6.9931  -10.8132 N   0  0  0  0  0  0  0  0  0  0  0  0
   11.0365   -6.7282  -12.1697 C   0  0  0  0  0  0  0  0  0  0  0  0
   10.6461   -7.9698  -11.8625 N   0  0  0  0  0  0  0  0  0  0  0  0
   11.3958   -8.7164  -11.0402 C   0  0  0  0  0  0  0  0  0  0  0  0
   12.5785   -8.2334  -10.5044 C   0  0  0  0  0  0  0  0  0  0  0  0
   16.2099   -1.3770  -10.9167 C   0  0  0  0  0  0  0  0  0  0  0  0
   16.2046   -2.1095  -12.0918 C   0  0  0  0  0  0  0  0  0  0  0  0
   15.4810   -1.7999   -9.8074 C   0  0  0  0  0  0  0  0  0  0  0  0
   14.7512   -2.9740   -9.8803 C   0  0  0  0  0  0  0  0  0  0  0  0
   14.7930   -3.7384  -11.0432 C   0  0  0  0  0  0  0  0  0  0  0  0
   15.4784   -3.2949  -12.1637 C   0  0  0  0  0  0  0  0  0  0  0  0
   18.5131    1.3934  -10.1421 O   0  0  0  0  0  0  0  0  0  0  0  0
   18.0682    0.1430   -9.8765 C   0  0  0  0  0  0  0  0  0  0  0  0
   16.9822   -0.1174  -10.8186 C   0  0  0  0  0  0  0  0  0  0  0  0
   16.9036    1.1161  -11.6415 C   0  0  0  0  0  0  0  0  0  0  0  0
   15.9450    1.3525  -12.7725 C   0  0  0  0  0  0  0  0  0  0  0  0
   18.6805   -0.6351   -8.7503 C   0  0  0  0  0  0  0  0  0  0  0  0
   17.8476    1.9839  -11.1633 N   0  0  0  0  0  0  0  0  0  0  0  0
   15.0486   -6.6777   -9.6593 N   0  0  0  0  0  0  0  0  0  0  0  0
   15.8260   -7.1178  -10.0731 H   0  0  0  0  0  0  0  0  0  0  0  0
   15.0331   -6.5031   -8.2073 C   0  0  0  0  0  0  0  0  0  0  0  0
   16.4292   -6.1071   -7.7263 C   0  0  0  0  0  0  0  0  0  0  0  0
   14.0445   -5.4215   -7.7829 C   0  0  0  0  0  0  0  0  0  0  0  0
   14.6190   -7.7938   -7.5081 C   0  0  0  0  0  0  0  0  0  0  0  0
 20 19  1  0  0  0
 22 19  2  0  0  0
 22 16  1  0  0  0
 19 18  1  0  0  0
 16 17  1  0  0  0
 11 15  2  0  0  0
 11 10  1  0  0  0
 18 17  2  0  0  0
 18 10  1  0  0  0
 17 21  1  0  0  0
 15 14  1  0  0  0
 10 12  2  0  0  0
  4  1  1  0  0  0
  4  2  2  0  0  0
 14  1  1  0  0  0
 14 13  2  0  0  0
  6  2  1  0  0  0
  6  7  2  0  0  0
 12 13  1  0  0  0
  1  3  2  0  0  0
  2  5  1  0  0  0
  7  8  1  0  0  0
  5  3  1  0  0  0
  5  9  1  0  0  0
  3 23  1  0  0  0
  8  9  2  0  0  0
 28 25  1  0  0  0
 23 25  1  0  0  0
 25 27  1  0  0  0
 25 26  1  0  0  0
 23 24  1  0  0  0
M  END
> <minimizedAffinity>
-7.11479

$$$$
4WIV_3P2_A_201


 28 31  0  0  0  0  0  0  0  0999 V2000
   14.0049   -4.8732  -11.0913 C   0  0  0  0  0  0  0  0  0  0  0  0
   12.2653   -6.1375  -11.5934 C   0  0  0  0  0  0  0  0  0  0  0  0
   14.0692   -6.1813  -10.4138 C   0  0  0  0  0  0  0  0  0  0  0  0
   12.8491   -4.9237  -11.7759 N   0  0  0  0  0  0  0  0  0  0  0  0
   13.0100   -6.9083  -10.7645 N   0  0  0  0  0  0  0  0  0  0  0  0
   11.0714   -6.6227  -12.1198 C   0  0  0  0  0  0  0  0  0  0  0  0
   10.6708   -7.8621  -11.8170 N   0  0  0  0  0  0  0  0  0  0  0  0
   11.4144   -8.6177  -10.9974 C   0  0  0  0  0  0  0  0  0  0  0  0
   12.6011   -8.1464  -10.4601 C   0  0  0  0  0  0  0  0  0  0  0  0
   16.2898   -1.3192  -10.8514 C   0  0  0  0  0  0  0  0  0  0  0  0
   16.2920   -2.0577  -12.0227 C   0  0  0  0  0  0  0  0  0  0  0  0
   15.5433   -1.7294   -9.7490 C   0  0  0  0  0  0  0  0  0  0  0  0
   14.8035   -2.8971   -9.8250 C   0  0  0  0  0  0  0  0  0  0  0  0
   14.8525   -3.6679  -10.9834 C   0  0  0  0  0  0  0  0  0  0  0  0
   15.5557   -3.2366  -12.0975 C   0  0  0  0  0  0  0  0  0  0  0  0
   17.7825    2.0374  -11.1429 O   0  0  0  0  0  0  0  0  0  0  0  0
   16.8888    1.1207  -11.5820 C   0  0  0  0  0  0  0  0  0  0  0  0
   17.0726   -0.0663  -10.7501 C   0  0  0  0  0  0  0  0  0  0  0  0
   18.1438    0.3145   -9.7950 C   0  0  0  0  0  0  0  0  0  0  0  0
   18.6985   -0.5615   -8.7092 C   0  0  0  0  0  0  0  0  0  0  0  0
   16.0066    1.4494  -12.7493 C   0  0  0  0  0  0  0  0  0  0  0  0
   18.5294    1.5904  -10.1052 N   0  0  0  0  0  0  0  0  0  0  0  0
   15.0840   -6.6141   -9.6099 N   0  0  0  0  0  0  0  0  0  0  0  0
   15.8650   -7.0447  -10.0268 H   0  0  0  0  0  0  0  0  0  0  0  0
   15.0598   -6.4649   -8.1551 C   0  0  0  0  0  0  0  0  0  0  0  0
   16.4507   -6.0684   -7.6599 C   0  0  0  0  0  0  0  0  0  0  0  0
   14.0618   -5.3975   -7.7173 C   0  0  0  0  0  0  0  0  0  0  0  0
   14.6505   -7.7703   -7.4807 C   0  0  0  0  0  0  0  0  0  0  0  0
 20 19  1  0  0  0
 22 19  2  0  0  0
 22 16  1  0  0  0
 19 18  1  0  0  0
 16 17  1  0  0  0
 11 15  2  0  0  0
 11 10  1  0  0  0
 18 17  2  0  0  0
 18 10  1  0  0  0
 17 21  1  0  0  0
 15 14  1  0  0  0
 10 12  2  0  0  0
  4  1  1  0  0  0
  4  2  2  0  0  0
 14  1  1  0  0  0
 14 13  2  0  0  0
  6  2  1  0  0  0
  6  7  2  0  0  0
 12 13  1  0  0  0
  1  3  2  0  0  0
  2  5  1  0  0  0
  7  8  1  0  0  0
  5  3  1  0  0  0
  5  9  1  0  0  0
  3 23  1  0  0  0
  8  9  2  0  0  0
 28 25  1  0  0  0
 23 25  1  0  0  0
 25 27  1  0  0  0
 25 26  1  0  0  0
 23 24  1  0  0  0
M  END
> <minimizedAffinity>
-7.10668

$$$$
4WIV_3P2_A_201


 28 31  0  0  0  0  0  0  0  0999 V2000
   14.7703   -7.4104   -4.6067 C   0  0  0  0  0  0  0  0  0  0  0  0
   14.3986   -7.7945   -2.4640 C   0  0  0  0  0  0  0  0  0  0  0  0
   15.8056   -8.2829   -4.0227 C   0  0  0  0  0  0  0  0  0  0  0  0
   13.9591   -7.1380   -3.5700 N   0  0  0  0  0  0  0  0  0  0  0  0
   15.5243   -8.4969   -2.7387 N   0  0  0  0  0  0  0  0  0  0  0  0
   13.8591   -7.8065   -1.1808 C   0  0  0  0  0  0  0  0  0  0  0  0
   14.4482   -8.5298   -0.2227 N   0  0  0  0  0  0  0  0  0  0  0  0
   15.5604   -9.2223   -0.5039 C   0  0  0  0  0  0  0  0  0  0  0  0
   16.1132   -9.2147   -1.7741 C   0  0  0  0  0  0  0  0  0  0  0  0
   14.2394   -5.6782   -8.4312 C   0  0  0  0  0  0  0  0  0  0  0  0
   14.5891   -7.0139   -8.3263 C   0  0  0  0  0  0  0  0  0  0  0  0
   14.0580   -4.8952   -7.2934 C   0  0  0  0  0  0  0  0  0  0  0  0
   14.2410   -5.4601   -6.0428 C   0  0  0  0  0  0  0  0  0  0  0  0
   14.6483   -6.7875   -5.9409 C   0  0  0  0  0  0  0  0  0  0  0  0
   14.7822   -7.5809   -7.0698 C   0  0  0  0  0  0  0  0  0  0  0  0
   14.1790   -3.5897  -11.4668 O   0  0  0  0  0  0  0  0  0  0  0  0
   14.5755   -3.7656  -10.1846 C   0  0  0  0  0  0  0  0  0  0  0  0
   14.0368   -5.0554   -9.7593 C   0  0  0  0  0  0  0  0  0  0  0  0
   13.3279   -5.5726  -10.9571 C   0  0  0  0  0  0  0  0  0  0  0  0
   12.6056   -6.8858  -11.0460 C   0  0  0  0  0  0  0  0  0  0  0  0
   15.3686   -2.6909   -9.5029 C   0  0  0  0  0  0  0  0  0  0  0  0
   13.4464   -4.6265  -11.9389 N   0  0  0  0  0  0  0  0  0  0  0  0
   16.8501   -8.8442   -4.6990 N   0  0  0  0  0  0  0  0  0  0  0  0
   16.7429   -9.7530   -5.0622 H   0  0  0  0  0  0  0  0  0  0  0  0
   18.1218   -8.1522   -4.9068 C   0  0  0  0  0  0  0  0  0  0  0  0
   19.2767   -9.0959   -4.5710 C   0  0  0  0  0  0  0  0  0  0  0  0
   18.2763   -7.6843   -6.3505 C   0  0  0  0  0  0  0  0  0  0  0  0
   18.2209   -6.9168   -4.0179 C   0  0  0  0  0  0  0  0  0  0  0  0
 20 19  1  0  0  0
 22 19  2  0  0  0
 22 16  1  0  0  0
 19 18  1  0  0  0
 16 17  1  0  0  0
 11 15  2  0  0  0
 11 10  1  0  0  0
 18 17  2  0  0  0
 18 10  1  0  0  0
 17 21  1  0  0  0
 15 14  1  0  0  0
 10 12  2  0  0  0
  4  1  1  0  0  0
  4  2  2  0  0  0
 14  1  1  0  0  0
 14 13  2  0  0  0
  6  2  1  0  0  0
  6  7  2  0  0  0
 12 13  1  0  0  0
  1  3  2  0  0  0
  2  5  1  0  0  0
  7  8  1  0  0  0
  5  3  1  0  0  0
  5  9  1  0  0  0
  3 23  1  0  0  0
  8  9  2  0  0  0
 28 25  1  0  0  0
 23 25  1  0  0  0
 25 27  1  0  0  0
 25 26  1  0  0  0
 23 24  1  0  0  0
M  END
> <minimizedAffinity>
-7.06703

$$$$
