1XK9_P34_A_1001


 24 26  0  0  0  0  0  0  0  0999 V2000
   28.7944    9.6885   19.9039 C   0  0  0  0  0  0  0  0  0  0  0  0
   27.6654    8.8010   20.2771 C   0  0  0  0  0  0  0  0  0  0  0  0
   26.8947    8.0038   19.2889 C   0  0  0  0  0  0  0  0  0  0  0  0
   25.7654    7.0818   19.6164 C   0  0  0  0  0  0  0  0  0  0  0  0
   25.2623    6.8901   20.9669 C   0  0  0  0  0  0  0  0  0  0  0  0
   24.1463    5.9874   21.2503 C   0  0  0  0  0  0  0  0  0  0  0  0
   23.5015    5.2938   20.2030 C   0  0  0  0  0  0  0  0  0  0  0  0
   23.9561    5.4563   18.8567 C   0  0  0  0  0  0  0  0  0  0  0  0
   25.0618    6.3593   18.5381 C   0  0  0  0  0  0  0  0  0  0  0  0
   25.5107    6.5077   17.1975 C   0  0  0  0  0  0  0  0  0  0  0  0
   24.9826    5.9307   16.2406 O   0  0  0  0  0  0  0  0  0  0  0  0
   26.6101    7.4022   16.9043 N   0  0  0  0  0  0  0  0  0  0  0  0
   27.3043    8.1357   17.9164 C   0  0  0  0  0  0  0  0  0  0  0  0
   28.4048    9.0038   17.5118 C   0  0  0  0  0  0  0  0  0  0  0  0
   29.1323    9.7753   18.5119 C   0  0  0  0  0  0  0  0  0  0  0  0
   26.8921    7.5103   15.9673 H   0  0  0  0  0  0  0  0  0  0  0  0
   30.0420   11.5203   21.4161 C   0  0  0  0  0  0  0  0  0  0  0  0
   31.0272   11.3585   22.1639 O   0  0  0  0  0  0  0  0  0  0  0  0
   29.3504   10.3365   21.0126 N   0  0  0  0  0  0  0  0  0  0  0  0
   29.2160    9.7685   21.8054 H   0  0  0  0  0  0  0  0  0  0  0  0
   29.6760   13.0049   21.0350 C   0  0  0  0  0  0  0  0  0  0  0  0
   28.0581   14.8593   21.2547 C   0  0  0  0  0  0  0  0  0  0  0  0
   28.8192   13.8304   21.9863 N   0  0  0  0  0  0  0  0  0  0  0  0
   29.6513   14.4391   23.0357 C   0  0  0  0  0  0  0  0  0  0  0  0
 22 23  1  0  0  0
 23 24  1  0  0  0
 23 21  1  0  0  0
 21 17  1  0  0  0
 17 18  2  0  0  0
 17 19  1  0  0  0
 19  1  1  0  0  0
  1  2  1  0  0  0
  1 15  2  0  0  0
  2  3  2  0  0  0
  3  4  1  0  0  0
  3 13  1  0  0  0
  4  5  1  0  0  0
  4  9  2  0  0  0
  5  6  2  0  0  0
  6  7  1  0  0  0
  7  8  2  0  0  0
  8  9  1  0  0  0
  9 10  1  0  0  0
 10 11  2  0  0  0
 10 12  1  0  0  0
 12 13  1  0  0  0
 13 14  2  0  0  0
 14 15  1  0  0  0
 19 20  1  0  0  0
 12 16  1  0  0  0
M  END
> <minimizedAffinity>
-9.39815

$$$$
1XK9_P34_A_1001


 24 26  0  0  0  0  0  0  0  0999 V2000
   28.5116    9.2289   17.6421 C   0  0  0  0  0  0  0  0  0  0  0  0
   27.3686    8.3078   17.8577 C   0  0  0  0  0  0  0  0  0  0  0  0
   26.8445    7.9608   19.2034 C   0  0  0  0  0  0  0  0  0  0  0  0
   25.6854    7.0566   19.4713 C   0  0  0  0  0  0  0  0  0  0  0  0
   24.9517    6.3723   18.4191 C   0  0  0  0  0  0  0  0  0  0  0  0
   23.8281    5.4843   18.7184 C   0  0  0  0  0  0  0  0  0  0  0  0
   23.4419    5.2422   20.0547 C   0  0  0  0  0  0  0  0  0  0  0  0
   24.1389    5.8869   21.1243 C   0  0  0  0  0  0  0  0  0  0  0  0
   25.2732    6.7717   20.8600 C   0  0  0  0  0  0  0  0  0  0  0  0
   25.9541    7.4135   21.9302 C   0  0  0  0  0  0  0  0  0  0  0  0
   25.6641    7.2361   23.1184 O   0  0  0  0  0  0  0  0  0  0  0  0
   27.0707    8.2896   21.6467 N   0  0  0  0  0  0  0  0  0  0  0  0
   27.5146    8.5754   20.3179 C   0  0  0  0  0  0  0  0  0  0  0  0
   28.6457    9.4801   20.1444 C   0  0  0  0  0  0  0  0  0  0  0  0
   29.1345    9.7903   18.8066 C   0  0  0  0  0  0  0  0  0  0  0  0
   27.5452    8.7069   22.4016 H   0  0  0  0  0  0  0  0  0  0  0  0
   28.2401    9.6486   15.0060 C   0  0  0  0  0  0  0  0  0  0  0  0
   28.6156    8.9170   14.0680 O   0  0  0  0  0  0  0  0  0  0  0  0
   28.8192    9.3866   16.2860 N   0  0  0  0  0  0  0  0  0  0  0  0
   29.7908    9.2766   16.1719 H   0  0  0  0  0  0  0  0  0  0  0  0
   27.1982   10.7770   14.6532 C   0  0  0  0  0  0  0  0  0  0  0  0
   27.2513   12.5626   16.3602 C   0  0  0  0  0  0  0  0  0  0  0  0
   27.5415   12.2305   14.9535 N   0  0  0  0  0  0  0  0  0  0  0  0
   26.8203   13.1314   14.0412 C   0  0  0  0  0  0  0  0  0  0  0  0
 22 23  1  0  0  0
 23 24  1  0  0  0
 23 21  1  0  0  0
 21 17  1  0  0  0
 17 18  2  0  0  0
 17 19  1  0  0  0
 19  1  1  0  0  0
  1  2  1  0  0  0
  1 15  2  0  0  0
  2  3  2  0  0  0
  3  4  1  0  0  0
  3 13  1  0  0  0
  4  5  1  0  0  0
  4  9  2  0  0  0
  5  6  2  0  0  0
  6  7  1  0  0  0
  7  8  2  0  0  0
  8  9  1  0  0  0
  9 10  1  0  0  0
 10 11  2  0  0  0
 10 12  1  0  0  0
 12 13  1  0  0  0
 13 14  2  0  0  0
 14 15  1  0  0  0
 19 20  1  0  0  0
 12 16  1  0  0  0
M  END
> <minimizedAffinity>
-9.15089

$$$$
1XK9_P34_A_1001


 24 26  0  0  0  0  0  0  0  0999 V2000
   28.5191    9.1642   17.5195 C   0  0  0  0  0  0  0  0  0  0  0  0
   27.3717    8.2572   17.7690 C   0  0  0  0  0  0  0  0  0  0  0  0
   26.8607    7.9447   19.1281 C   0  0  0  0  0  0  0  0  0  0  0  0
   25.6980    7.0559   19.4297 C   0  0  0  0  0  0  0  0  0  0  0  0
   24.9469    6.3539   18.4017 C   0  0  0  0  0  0  0  0  0  0  0  0
   23.8202    5.4817   18.7339 C   0  0  0  0  0  0  0  0  0  0  0  0
   23.4477    5.2728   20.0797 C   0  0  0  0  0  0  0  0  0  0  0  0
   24.1620    5.9358   21.1264 C   0  0  0  0  0  0  0  0  0  0  0  0
   25.2998    6.8055   20.8291 C   0  0  0  0  0  0  0  0  0  0  0  0
   25.9981    7.4658   21.8766 C   0  0  0  0  0  0  0  0  0  0  0  0
   25.7205    7.3175   23.0718 O   0  0  0  0  0  0  0  0  0  0  0  0
   27.1179    8.3266   21.5606 N   0  0  0  0  0  0  0  0  0  0  0  0
   27.5484    8.5789   20.2207 C   0  0  0  0  0  0  0  0  0  0  0  0
   28.6843    9.4706   20.0138 C   0  0  0  0  0  0  0  0  0  0  0  0
   29.1598    9.7467   18.6639 C   0  0  0  0  0  0  0  0  0  0  0  0
   27.6044    8.7570   22.3004 H   0  0  0  0  0  0  0  0  0  0  0  0
   28.6796    8.6315   14.8947 C   0  0  0  0  0  0  0  0  0  0  0  0
   29.6997    8.5989   14.1775 O   0  0  0  0  0  0  0  0  0  0  0  0
   28.8120    9.2889   16.1568 N   0  0  0  0  0  0  0  0  0  0  0  0
   29.2815   10.1427   16.0158 H   0  0  0  0  0  0  0  0  0  0  0  0
   27.3771    7.9669   14.3075 C   0  0  0  0  0  0  0  0  0  0  0  0
   27.6025    5.6999   13.3510 C   0  0  0  0  0  0  0  0  0  0  0  0
   27.1403    6.4765   14.5157 N   0  0  0  0  0  0  0  0  0  0  0  0
   25.7201    6.2123   14.7937 C   0  0  0  0  0  0  0  0  0  0  0  0
 22 23  1  0  0  0
 23 24  1  0  0  0
 23 21  1  0  0  0
 21 17  1  0  0  0
 17 18  2  0  0  0
 17 19  1  0  0  0
 19  1  1  0  0  0
  1  2  1  0  0  0
  1 15  2  0  0  0
  2  3  2  0  0  0
  3  4  1  0  0  0
  3 13  1  0  0  0
  4  5  1  0  0  0
  4  9  2  0  0  0
  5  6  2  0  0  0
  6  7  1  0  0  0
  7  8  2  0  0  0
  8  9  1  0  0  0
  9 10  1  0  0  0
 10 11  2  0  0  0
 10 12  1  0  0  0
 12 13  1  0  0  0
 13 14  2  0  0  0
 14 15  1  0  0  0
 19 20  1  0  0  0
 12 16  1  0  0  0
M  END
> <minimizedAffinity>
-8.87740

$$$$
1XK9_P34_A_1001


 24 26  0  0  0  0  0  0  0  0999 V2000
   28.8674    9.4186   18.1874 C   0  0  0  0  0  0  0  0  0  0  0  0
   27.7080    8.4931   18.2065 C   0  0  0  0  0  0  0  0  0  0  0  0
   27.0031    8.0957   19.4521 C   0  0  0  0  0  0  0  0  0  0  0  0
   25.8205    7.1851   19.5215 C   0  0  0  0  0  0  0  0  0  0  0  0
   25.2417    6.5440   18.3520 C   0  0  0  0  0  0  0  0  0  0  0  0
   24.0897    5.6481   18.4580 C   0  0  0  0  0  0  0  0  0  0  0  0
   23.5225    5.3556   19.7174 C   0  0  0  0  0  0  0  0  0  0  0  0
   24.0626    5.9565   20.8975 C   0  0  0  0  0  0  0  0  0  0  0  0
   25.2203    6.8478   20.8275 C   0  0  0  0  0  0  0  0  0  0  0  0
   25.7445    7.4458   22.0058 C   0  0  0  0  0  0  0  0  0  0  0  0
   25.2929    7.2235   23.1345 O   0  0  0  0  0  0  0  0  0  0  0  0
   26.8873    8.3292   21.9141 N   0  0  0  0  0  0  0  0  0  0  0  0
   27.5105    8.6649   20.6717 C   0  0  0  0  0  0  0  0  0  0  0  0
   28.6524    9.5726   20.6919 C   0  0  0  0  0  0  0  0  0  0  0  0
   29.3212    9.9328   19.4479 C   0  0  0  0  0  0  0  0  0  0  0  0
   27.2514    8.7157   22.7431 H   0  0  0  0  0  0  0  0  0  0  0  0
   30.5599    9.6541   16.1188 C   0  0  0  0  0  0  0  0  0  0  0  0
   30.6975   10.6220   15.3441 O   0  0  0  0  0  0  0  0  0  0  0  0
   29.3597    9.6277   16.8942 N   0  0  0  0  0  0  0  0  0  0  0  0
   28.6008    9.8314   16.3010 H   0  0  0  0  0  0  0  0  0  0  0  0
   31.7119    8.5789   16.1237 C   0  0  0  0  0  0  0  0  0  0  0  0
   32.5650    6.2615   16.0431 C   0  0  0  0  0  0  0  0  0  0  0  0
   31.3525    7.0993   16.0785 N   0  0  0  0  0  0  0  0  0  0  0  0
   30.4822    6.8133   14.9275 C   0  0  0  0  0  0  0  0  0  0  0  0
 22 23  1  0  0  0
 23 24  1  0  0  0
 23 21  1  0  0  0
 21 17  1  0  0  0
 17 18  2  0  0  0
 17 19  1  0  0  0
 19  1  1  0  0  0
  1  2  1  0  0  0
  1 15  2  0  0  0
  2  3  2  0  0  0
  3  4  1  0  0  0
  3 13  1  0  0  0
  4  5  1  0  0  0
  4  9  2  0  0  0
  5  6  2  0  0  0
  6  7  1  0  0  0
  7  8  2  0  0  0
  8  9  1  0  0  0
  9 10  1  0  0  0
 10 11  2  0  0  0
 10 12  1  0  0  0
 12 13  1  0  0  0
 13 14  2  0  0  0
 14 15  1  0  0  0
 19 20  1  0  0  0
 12 16  1  0  0  0
M  END
> <minimizedAffinity>
-8.69235

$$$$
1XK9_P34_A_1001


 24 26  0  0  0  0  0  0  0  0999 V2000
   28.7964    9.5469   18.0127 C   0  0  0  0  0  0  0  0  0  0  0  0
   27.9623    8.9803   19.1011 C   0  0  0  0  0  0  0  0  0  0  0  0
   26.8835    7.9865   18.8676 C   0  0  0  0  0  0  0  0  0  0  0  0
   26.0314    7.3720   19.9302 C   0  0  0  0  0  0  0  0  0  0  0  0
   26.1442    7.7178   21.3378 C   0  0  0  0  0  0  0  0  0  0  0  0
   25.2851    7.1045   22.3510 C   0  0  0  0  0  0  0  0  0  0  0  0
   24.2918    6.1722   21.9797 C   0  0  0  0  0  0  0  0  0  0  0  0
   24.1379    5.8064   20.6057 C   0  0  0  0  0  0  0  0  0  0  0  0
   24.9730    6.4089   19.5669 C   0  0  0  0  0  0  0  0  0  0  0  0
   24.8169    6.0325   18.2050 C   0  0  0  0  0  0  0  0  0  0  0  0
   23.9625    5.2264   17.8207 O   0  0  0  0  0  0  0  0  0  0  0  0
   25.6571    6.6367   17.1933 N   0  0  0  0  0  0  0  0  0  0  0  0
   26.6791    7.5883   17.5006 C   0  0  0  0  0  0  0  0  0  0  0  0
   27.4750    8.1293   16.4043 C   0  0  0  0  0  0  0  0  0  0  0  0
   28.5206    9.1083   16.6744 C   0  0  0  0  0  0  0  0  0  0  0  0
   25.5190    6.3814   16.2526 H   0  0  0  0  0  0  0  0  0  0  0  0
   30.0866   11.2604   19.6245 C   0  0  0  0  0  0  0  0  0  0  0  0
   30.3881   12.4497   19.3992 O   0  0  0  0  0  0  0  0  0  0  0  0
   29.7365   10.4682   18.4877 N   0  0  0  0  0  0  0  0  0  0  0  0
   30.4002   10.6300   17.7788 H   0  0  0  0  0  0  0  0  0  0  0  0
   30.1541   10.7827   21.1247 C   0  0  0  0  0  0  0  0  0  0  0  0
   32.5922   10.9375   21.4941 C   0  0  0  0  0  0  0  0  0  0  0  0
   31.4052   10.0734   21.6269 N   0  0  0  0  0  0  0  0  0  0  0  0
   31.5992    8.8007   20.9151 C   0  0  0  0  0  0  0  0  0  0  0  0
 22 23  1  0  0  0
 23 24  1  0  0  0
 23 21  1  0  0  0
 21 17  1  0  0  0
 17 18  2  0  0  0
 17 19  1  0  0  0
 19  1  1  0  0  0
  1  2  1  0  0  0
  1 15  2  0  0  0
  2  3  2  0  0  0
  3  4  1  0  0  0
  3 13  1  0  0  0
  4  5  1  0  0  0
  4  9  2  0  0  0
  5  6  2  0  0  0
  6  7  1  0  0  0
  7  8  2  0  0  0
  8  9  1  0  0  0
  9 10  1  0  0  0
 10 11  2  0  0  0
 10 12  1  0  0  0
 12 13  1  0  0  0
 13 14  2  0  0  0
 14 15  1  0  0  0
 19 20  1  0  0  0
 12 16  1  0  0  0
M  END
> <minimizedAffinity>
-8.55374

$$$$
1XK9_P34_A_1001


 24 26  0  0  0  0  0  0  0  0999 V2000
   28.9298    9.4281   18.5286 C   0  0  0  0  0  0  0  0  0  0  0  0
   27.7754    8.5008   18.4355 C   0  0  0  0  0  0  0  0  0  0  0  0
   26.9773    8.0727   19.6127 C   0  0  0  0  0  0  0  0  0  0  0  0
   25.7958    7.1589   19.5683 C   0  0  0  0  0  0  0  0  0  0  0  0
   25.3117    6.5453   18.3424 C   0  0  0  0  0  0  0  0  0  0  0  0
   24.1579    5.6455   18.3372 C   0  0  0  0  0  0  0  0  0  0  0  0
   23.4956    5.3221   19.5414 C   0  0  0  0  0  0  0  0  0  0  0  0
   23.9404    5.8953   20.7739 C   0  0  0  0  0  0  0  0  0  0  0  0
   25.0971    6.7896   20.8153 C   0  0  0  0  0  0  0  0  0  0  0  0
   25.5263    7.3599   22.0447 C   0  0  0  0  0  0  0  0  0  0  0  0
   24.9891    7.1099   23.1293 O   0  0  0  0  0  0  0  0  0  0  0  0
   26.6699    8.2468   22.0631 N   0  0  0  0  0  0  0  0  0  0  0  0
   27.3865    8.6131   20.8813 C   0  0  0  0  0  0  0  0  0  0  0  0
   28.5205    9.5216   21.0117 C   0  0  0  0  0  0  0  0  0  0  0  0
   29.2827    9.9126   19.8324 C   0  0  0  0  0  0  0  0  0  0  0  0
   26.9673    8.6138   22.9268 H   0  0  0  0  0  0  0  0  0  0  0  0
   30.0013   10.7084   16.4281 C   0  0  0  0  0  0  0  0  0  0  0  0
   29.6561   10.6452   15.2311 O   0  0  0  0  0  0  0  0  0  0  0  0
   29.5203    9.6689   17.2829 N   0  0  0  0  0  0  0  0  0  0  0  0
   29.6532    8.8056   16.8288 H   0  0  0  0  0  0  0  0  0  0  0  0
   30.9382   11.9085   16.8346 C   0  0  0  0  0  0  0  0  0  0  0  0
   31.7062   13.1448   18.8313 C   0  0  0  0  0  0  0  0  0  0  0  0
   31.7129   11.8404   18.1445 N   0  0  0  0  0  0  0  0  0  0  0  0
   33.0893   11.3780   17.9079 C   0  0  0  0  0  0  0  0  0  0  0  0
 22 23  1  0  0  0
 23 24  1  0  0  0
 23 21  1  0  0  0
 21 17  1  0  0  0
 17 18  2  0  0  0
 17 19  1  0  0  0
 19  1  1  0  0  0
  1  2  1  0  0  0
  1 15  2  0  0  0
  2  3  2  0  0  0
  3  4  1  0  0  0
  3 13  1  0  0  0
  4  5  1  0  0  0
  4  9  2  0  0  0
  5  6  2  0  0  0
  6  7  1  0  0  0
  7  8  2  0  0  0
  8  9  1  0  0  0
  9 10  1  0  0  0
 10 11  2  0  0  0
 10 12  1  0  0  0
 12 13  1  0  0  0
 13 14  2  0  0  0
 14 15  1  0  0  0
 19 20  1  0  0  0
 12 16  1  0  0  0
M  END
> <minimizedAffinity>
-8.55209

$$$$
1XK9_P34_A_1001


 24 26  0  0  0  0  0  0  0  0999 V2000
   29.2264    9.8057   19.5787 C   0  0  0  0  0  0  0  0  0  0  0  0
   28.1113    8.9908   20.1207 C   0  0  0  0  0  0  0  0  0  0  0  0
   27.2131    8.1700   19.2689 C   0  0  0  0  0  0  0  0  0  0  0  0
   26.0915    7.3179   19.7678 C   0  0  0  0  0  0  0  0  0  0  0  0
   25.7257    7.2283   21.1720 C   0  0  0  0  0  0  0  0  0  0  0  0
   24.6135    6.3923   21.6245 C   0  0  0  0  0  0  0  0  0  0  0  0
   23.8381    5.6660   20.6946 C   0  0  0  0  0  0  0  0  0  0  0  0
   24.1550    5.7289   19.3014 C   0  0  0  0  0  0  0  0  0  0  0  0
   25.2533    6.5635   18.8150 C   0  0  0  0  0  0  0  0  0  0  0  0
   25.5647    6.6128   17.4288 C   0  0  0  0  0  0  0  0  0  0  0  0
   24.9189    6.0032   16.5693 O   0  0  0  0  0  0  0  0  0  0  0  0
   26.6591    7.4408   16.9688 N   0  0  0  0  0  0  0  0  0  0  0  0
   27.4815    8.2027   17.8562 C   0  0  0  0  0  0  0  0  0  0  0  0
   28.5643    8.9976   17.2872 C   0  0  0  0  0  0  0  0  0  0  0  0
   29.4199    9.7953   18.1568 C   0  0  0  0  0  0  0  0  0  0  0  0
   26.8454    7.4810   16.0030 H   0  0  0  0  0  0  0  0  0  0  0  0
   31.2210   10.7114   21.1279 C   0  0  0  0  0  0  0  0  0  0  0  0
   31.3173   10.6527   22.3703 O   0  0  0  0  0  0  0  0  0  0  0  0
   29.9185   10.4940   20.5815 N   0  0  0  0  0  0  0  0  0  0  0  0
   29.2703   11.0221   21.1013 H   0  0  0  0  0  0  0  0  0  0  0  0
   32.5386   11.0399   20.3282 C   0  0  0  0  0  0  0  0  0  0  0  0
   32.2765   13.4904   20.5047 C   0  0  0  0  0  0  0  0  0  0  0  0
   33.2377   12.3738   20.5567 N   0  0  0  0  0  0  0  0  0  0  0  0
   34.3192   12.5653   19.5781 C   0  0  0  0  0  0  0  0  0  0  0  0
 22 23  1  0  0  0
 23 24  1  0  0  0
 23 21  1  0  0  0
 21 17  1  0  0  0
 17 18  2  0  0  0
 17 19  1  0  0  0
 19  1  1  0  0  0
  1  2  1  0  0  0
  1 15  2  0  0  0
  2  3  2  0  0  0
  3  4  1  0  0  0
  3 13  1  0  0  0
  4  5  1  0  0  0
  4  9  2  0  0  0
  5  6  2  0  0  0
  6  7  1  0  0  0
  7  8  2  0  0  0
  8  9  1  0  0  0
  9 10  1  0  0  0
 10 11  2  0  0  0
 10 12  1  0  0  0
 12 13  1  0  0  0
 13 14  2  0  0  0
 14 15  1  0  0  0
 19 20  1  0  0  0
 12 16  1  0  0  0
M  END
> <minimizedAffinity>
-8.35720

$$$$
1XK9_P34_A_1001


 24 26  0  0  0  0  0  0  0  0999 V2000
   28.9995    9.6562   18.3749 C   0  0  0  0  0  0  0  0  0  0  0  0
   28.0880    9.0448   19.3732 C   0  0  0  0  0  0  0  0  0  0  0  0
   27.0234    8.0724   19.0166 C   0  0  0  0  0  0  0  0  0  0  0  0
   26.0956    7.4146   19.9857 C   0  0  0  0  0  0  0  0  0  0  0  0
   26.1105    7.6913   21.4128 C   0  0  0  0  0  0  0  0  0  0  0  0
   25.1791    7.0371   22.3322 C   0  0  0  0  0  0  0  0  0  0  0  0
   24.2099    6.1320   21.8472 C   0  0  0  0  0  0  0  0  0  0  0  0
   24.1516    5.8340   20.4496 C   0  0  0  0  0  0  0  0  0  0  0  0
   25.0607    6.4789   19.5026 C   0  0  0  0  0  0  0  0  0  0  0  0
   24.9992    6.1697   18.1164 C   0  0  0  0  0  0  0  0  0  0  0  0
   24.1702    5.3902   17.6344 O   0  0  0  0  0  0  0  0  0  0  0  0
   25.9117    6.8150   17.1967 N   0  0  0  0  0  0  0  0  0  0  0  0
   26.9140    7.7421   17.6209 C   0  0  0  0  0  0  0  0  0  0  0  0
   27.7879    8.3287   16.6107 C   0  0  0  0  0  0  0  0  0  0  0  0
   28.8166    9.2848   17.0009 C   0  0  0  0  0  0  0  0  0  0  0  0
   25.8390    6.6064   16.2373 H   0  0  0  0  0  0  0  0  0  0  0  0
   30.1916   11.9347   19.1404 C   0  0  0  0  0  0  0  0  0  0  0  0
   31.3709   12.2899   18.9426 O   0  0  0  0  0  0  0  0  0  0  0  0
   29.9083   10.5458   18.9590 N   0  0  0  0  0  0  0  0  0  0  0  0
   30.6098   10.0230   19.4105 H   0  0  0  0  0  0  0  0  0  0  0  0
   29.1776   13.0557   19.5859 C   0  0  0  0  0  0  0  0  0  0  0  0
   26.8198   12.5747   19.0253 C   0  0  0  0  0  0  0  0  0  0  0  0
   27.9966   13.3949   18.6855 N   0  0  0  0  0  0  0  0  0  0  0  0
   28.3614   13.2299   17.2699 C   0  0  0  0  0  0  0  0  0  0  0  0
 22 23  1  0  0  0
 23 24  1  0  0  0
 23 21  1  0  0  0
 21 17  1  0  0  0
 17 18  2  0  0  0
 17 19  1  0  0  0
 19  1  1  0  0  0
  1  2  1  0  0  0
  1 15  2  0  0  0
  2  3  2  0  0  0
  3  4  1  0  0  0
  3 13  1  0  0  0
  4  5  1  0  0  0
  4  9  2  0  0  0
  5  6  2  0  0  0
  6  7  1  0  0  0
  7  8  2  0  0  0
  8  9  1  0  0  0
  9 10  1  0  0  0
 10 11  2  0  0  0
 10 12  1  0  0  0
 12 13  1  0  0  0
 13 14  2  0  0  0
 14 15  1  0  0  0
 19 20  1  0  0  0
 12 16  1  0  0  0
M  END
> <minimizedAffinity>
-8.30627

$$$$
1XK9_P34_A_1001


 24 26  0  0  0  0  0  0  0  0999 V2000
   26.4518    7.1005   14.9728 C   0  0  0  0  0  0  0  0  0  0  0  0
   25.7235    6.6197   16.1727 C   0  0  0  0  0  0  0  0  0  0  0  0
   26.0409    7.0682   17.5526 C   0  0  0  0  0  0  0  0  0  0  0  0
   25.3248    6.6300   18.7887 C   0  0  0  0  0  0  0  0  0  0  0  0
   24.2379    5.6644   18.7772 C   0  0  0  0  0  0  0  0  0  0  0  0
   23.5661    5.2489   20.0087 C   0  0  0  0  0  0  0  0  0  0  0  0
   23.9810    5.7582   21.2585 C   0  0  0  0  0  0  0  0  0  0  0  0
   25.0513    6.7048   21.3209 C   0  0  0  0  0  0  0  0  0  0  0  0
   25.7510    7.1326   20.1098 C   0  0  0  0  0  0  0  0  0  0  0  0
   26.8085    8.0798   20.1823 C   0  0  0  0  0  0  0  0  0  0  0  0
   27.2174    8.5556   21.2471 O   0  0  0  0  0  0  0  0  0  0  0  0
   27.4843    8.4940   18.9713 N   0  0  0  0  0  0  0  0  0  0  0  0
   27.1162    8.0156   17.6752 C   0  0  0  0  0  0  0  0  0  0  0  0
   27.8590    8.5049   16.5188 C   0  0  0  0  0  0  0  0  0  0  0  0
   27.5208    8.0350   15.1811 C   0  0  0  0  0  0  0  0  0  0  0  0
   28.2299    9.1329   19.0432 H   0  0  0  0  0  0  0  0  0  0  0  0
   25.8647    5.2853   13.0862 C   0  0  0  0  0  0  0  0  0  0  0  0
   26.1626    5.3109   11.8751 O   0  0  0  0  0  0  0  0  0  0  0  0
   25.9711    6.5234   13.7921 N   0  0  0  0  0  0  0  0  0  0  0  0
   25.5527    7.2293   13.2480 H   0  0  0  0  0  0  0  0  0  0  0  0
   25.3893    3.9016   13.6716 C   0  0  0  0  0  0  0  0  0  0  0  0
   27.5731    2.7467   13.7164 C   0  0  0  0  0  0  0  0  0  0  0  0
   26.3614    3.0650   14.4934 N   0  0  0  0  0  0  0  0  0  0  0  0
   25.7086    1.8379   14.9752 C   0  0  0  0  0  0  0  0  0  0  0  0
 22 23  1  0  0  0
 23 24  1  0  0  0
 23 21  1  0  0  0
 21 17  1  0  0  0
 17 18  2  0  0  0
 17 19  1  0  0  0
 19  1  1  0  0  0
  1  2  1  0  0  0
  1 15  2  0  0  0
  2  3  2  0  0  0
  3  4  1  0  0  0
  3 13  1  0  0  0
  4  5  1  0  0  0
  4  9  2  0  0  0
  5  6  2  0  0  0
  6  7  1  0  0  0
  7  8  2  0  0  0
  8  9  1  0  0  0
  9 10  1  0  0  0
 10 11  2  0  0  0
 10 12  1  0  0  0
 12 13  1  0  0  0
 13 14  2  0  0  0
 14 15  1  0  0  0
 19 20  1  0  0  0
 12 16  1  0  0  0
M  END
> <minimizedAffinity>
-8.27796

$$$$
1XK9_P34_A_1001


 24 26  0  0  0  0  0  0  0  0999 V2000
   27.9198    8.3317   16.1480 C   0  0  0  0  0  0  0  0  0  0  0  0
   27.5826    8.2647   17.5912 C   0  0  0  0  0  0  0  0  0  0  0  0
   26.4651    7.4477   18.1297 C   0  0  0  0  0  0  0  0  0  0  0  0
   26.0991    7.3311   19.5737 C   0  0  0  0  0  0  0  0  0  0  0  0
   26.7908    8.0526   20.6295 C   0  0  0  0  0  0  0  0  0  0  0  0
   26.3981    7.9237   22.0330 C   0  0  0  0  0  0  0  0  0  0  0  0
   25.3047    7.1091   22.3996 C   0  0  0  0  0  0  0  0  0  0  0  0
   24.5885    6.3858   21.3950 C   0  0  0  0  0  0  0  0  0  0  0  0
   24.9483    6.5012   19.9820 C   0  0  0  0  0  0  0  0  0  0  0  0
   24.2345    5.7719   18.9923 C   0  0  0  0  0  0  0  0  0  0  0  0
   23.2673    5.0481   19.2530 O   0  0  0  0  0  0  0  0  0  0  0  0
   24.6102    5.8959   17.6001 N   0  0  0  0  0  0  0  0  0  0  0  0
   25.7044    6.7048   17.1610 C   0  0  0  0  0  0  0  0  0  0  0  0
   26.0026    6.7521   15.7338 C   0  0  0  0  0  0  0  0  0  0  0  0
   27.1042    7.5717   15.2444 C   0  0  0  0  0  0  0  0  0  0  0  0
   24.0898    5.4018   16.9262 H   0  0  0  0  0  0  0  0  0  0  0  0
   30.0622    9.9016   16.5285 C   0  0  0  0  0  0  0  0  0  0  0  0
   30.2304   11.0783   16.1500 O   0  0  0  0  0  0  0  0  0  0  0  0
   29.0068    9.1759   15.8945 N   0  0  0  0  0  0  0  0  0  0  0  0
   29.0663    9.3243   14.9230 H   0  0  0  0  0  0  0  0  0  0  0  0
   31.0469    9.3639   17.6350 C   0  0  0  0  0  0  0  0  0  0  0  0
   29.8287   10.5233   19.4451 C   0  0  0  0  0  0  0  0  0  0  0  0
   30.5826    9.3087   19.0847 N   0  0  0  0  0  0  0  0  0  0  0  0
   31.7275    9.1136   19.9875 C   0  0  0  0  0  0  0  0  0  0  0  0
 22 23  1  0  0  0
 23 24  1  0  0  0
 23 21  1  0  0  0
 21 17  1  0  0  0
 17 18  2  0  0  0
 17 19  1  0  0  0
 19  1  1  0  0  0
  1  2  1  0  0  0
  1 15  2  0  0  0
  2  3  2  0  0  0
  3  4  1  0  0  0
  3 13  1  0  0  0
  4  5  1  0  0  0
  4  9  2  0  0  0
  5  6  2  0  0  0
  6  7  1  0  0  0
  7  8  2  0  0  0
  8  9  1  0  0  0
  9 10  1  0  0  0
 10 11  2  0  0  0
 10 12  1  0  0  0
 12 13  1  0  0  0
 13 14  2  0  0  0
 14 15  1  0  0  0
 19 20  1  0  0  0
 12 16  1  0  0  0
M  END
> <minimizedAffinity>
-7.95701

$$$$
