5Z5F_FUB_A_602


 14 14  0  0  0  0  0  0  0  0999 V2000
    6.9905    7.4654   15.8883 C   0  0  0  0  0  0  0  0  0  0  0  0
    7.4187    7.3991   14.5239 O   0  0  0  0  0  0  0  0  0  0  0  0
    8.1122    8.1291   16.6543 C   0  0  0  0  0  0  0  0  0  0  0  0
    7.6541    8.6936   17.8856 O   0  0  0  0  0  0  0  0  0  0  0  0
    8.6287    9.0834   15.5864 C   0  0  0  0  0  0  0  0  0  0  0  0
    9.9241    9.6355   15.8006 O   0  0  0  0  0  0  0  0  0  0  0  0
    8.5995    8.2025   14.3426 C   0  0  0  0  0  0  0  0  0  0  0  0
    9.7645    7.3714   14.2288 O   0  0  0  0  0  0  0  0  0  0  0  0
    6.9230    9.3060   17.7084 H   0  0  0  0  0  0  0  0  0  0  0  0
   10.5757    8.9191   15.8562 H   0  0  0  0  0  0  0  0  0  0  0  0
    9.8395    6.8102   15.0164 H   0  0  0  0  0  0  0  0  0  0  0  0
    7.1410    5.8862   17.7534 O   0  0  0  0  0  0  0  0  0  0  0  0
    6.6878    6.0542   16.3882 C   0  0  0  0  0  0  0  0  0  0  0  0
    6.9402    4.9855   18.0522 H   0  0  0  0  0  0  0  0  0  0  0  0
 13 12  1  0  0  0
  1 13  1  0  0  0
  3  1  1  0  0  0
  1  2  1  0  0  0
  7  2  1  0  0  0
  4  3  1  0  0  0
  5  3  1  0  0  0
  5  6  1  0  0  0
  5  7  1  0  0  0
  7  8  1  0  0  0
 12 14  1  0  0  0
  4  9  1  0  0  0
  6 10  1  0  0  0
  8 11  1  0  0  0
M  END
> <minimizedAffinity>
-6.19310

$$$$
5Z5F_FUB_A_602


 14 14  0  0  0  0  0  0  0  0999 V2000
    7.4848    8.5596   14.5424 C   0  0  0  0  0  0  0  0  0  0  0  0
    7.0623    7.2043   14.3572 O   0  0  0  0  0  0  0  0  0  0  0  0
    7.4785    8.8070   16.0337 C   0  0  0  0  0  0  0  0  0  0  0  0
    8.3158    9.9089   16.3935 O   0  0  0  0  0  0  0  0  0  0  0  0
    7.8762    7.4236   16.5296 C   0  0  0  0  0  0  0  0  0  0  0  0
    7.6289    7.1463   17.9046 O   0  0  0  0  0  0  0  0  0  0  0  0
    7.0487    6.5193   15.6233 C   0  0  0  0  0  0  0  0  0  0  0  0
    5.7027    6.3513   16.0935 O   0  0  0  0  0  0  0  0  0  0  0  0
    9.2119    9.7584   16.0539 H   0  0  0  0  0  0  0  0  0  0  0  0
    6.6799    7.2324   18.0862 H   0  0  0  0  0  0  0  0  0  0  0  0
    5.2726    7.2183   16.1590 H   0  0  0  0  0  0  0  0  0  0  0  0
    5.9417   10.4553   14.6837 O   0  0  0  0  0  0  0  0  0  0  0  0
    6.5375    9.4881   13.7853 C   0  0  0  0  0  0  0  0  0  0  0  0
    5.3445   11.0347   14.1852 H   0  0  0  0  0  0  0  0  0  0  0  0
 13 12  1  0  0  0
  1 13  1  0  0  0
  3  1  1  0  0  0
  1  2  1  0  0  0
  7  2  1  0  0  0
  4  3  1  0  0  0
  5  3  1  0  0  0
  5  6  1  0  0  0
  5  7  1  0  0  0
  7  8  1  0  0  0
 12 14  1  0  0  0
  4  9  1  0  0  0
  6 10  1  0  0  0
  8 11  1  0  0  0
M  END
> <minimizedAffinity>
-5.65568

$$$$
5Z5F_FUB_A_602


 14 14  0  0  0  0  0  0  0  0999 V2000
    8.6788    8.7381   15.2500 C   0  0  0  0  0  0  0  0  0  0  0  0
    8.6690    7.7683   16.3029 O   0  0  0  0  0  0  0  0  0  0  0  0
    7.3954    8.5389   14.4762 C   0  0  0  0  0  0  0  0  0  0  0  0
    7.0383    9.7048   13.7294 O   0  0  0  0  0  0  0  0  0  0  0  0
    6.4714    8.1125   15.6086 C   0  0  0  0  0  0  0  0  0  0  0  0
    5.2522    7.4810   15.2299 O   0  0  0  0  0  0  0  0  0  0  0  0
    7.3659    7.1639   16.3986 C   0  0  0  0  0  0  0  0  0  0  0  0
    7.3817    5.8372   15.8503 O   0  0  0  0  0  0  0  0  0  0  0  0
    6.9883   10.4681   14.3258 H   0  0  0  0  0  0  0  0  0  0  0  0
    5.4481    6.6749   14.7273 H   0  0  0  0  0  0  0  0  0  0  0  0
    7.6859    5.8714   14.9298 H   0  0  0  0  0  0  0  0  0  0  0  0
   10.0080    7.1630   13.9281 O   0  0  0  0  0  0  0  0  0  0  0  0
    9.9248    8.5329   14.3907 C   0  0  0  0  0  0  0  0  0  0  0  0
   10.8043    7.0529   13.3852 H   0  0  0  0  0  0  0  0  0  0  0  0
 13 12  1  0  0  0
  1 13  1  0  0  0
  3  1  1  0  0  0
  1  2  1  0  0  0
  7  2  1  0  0  0
  4  3  1  0  0  0
  5  3  1  0  0  0
  5  6  1  0  0  0
  5  7  1  0  0  0
  7  8  1  0  0  0
 12 14  1  0  0  0
  4  9  1  0  0  0
  6 10  1  0  0  0
  8 11  1  0  0  0
M  END
> <minimizedAffinity>
-5.65099

$$$$
5Z5F_FUB_A_602


 14 14  0  0  0  0  0  0  0  0999 V2000
    6.4102    8.9351   15.0819 C   0  0  0  0  0  0  0  0  0  0  0  0
    7.4845    9.7382   15.5822 O   0  0  0  0  0  0  0  0  0  0  0  0
    6.6092    7.5518   15.6583 C   0  0  0  0  0  0  0  0  0  0  0  0
    5.3964    6.7942   15.6536 O   0  0  0  0  0  0  0  0  0  0  0  0
    7.2119    7.9156   17.0082 C   0  0  0  0  0  0  0  0  0  0  0  0
    7.8774    6.8696   17.7094 O   0  0  0  0  0  0  0  0  0  0  0  0
    8.1787    9.0306   16.6261 C   0  0  0  0  0  0  0  0  0  0  0  0
    9.4362    8.5292   16.1480 O   0  0  0  0  0  0  0  0  0  0  0  0
    4.7053    7.2874   16.1227 H   0  0  0  0  0  0  0  0  0  0  0  0
    8.6115    6.5353   17.1706 H   0  0  0  0  0  0  0  0  0  0  0  0
    9.2852    7.9590   15.3780 H   0  0  0  0  0  0  0  0  0  0  0  0
    6.5893   10.3018   13.0583 O   0  0  0  0  0  0  0  0  0  0  0  0
    6.4423    8.9493   13.5550 C   0  0  0  0  0  0  0  0  0  0  0  0
    6.6076   10.2899   12.0885 H   0  0  0  0  0  0  0  0  0  0  0  0
 13 12  1  0  0  0
  1 13  1  0  0  0
  3  1  1  0  0  0
  1  2  1  0  0  0
  7  2  1  0  0  0
  4  3  1  0  0  0
  5  3  1  0  0  0
  5  6  1  0  0  0
  5  7  1  0  0  0
  7  8  1  0  0  0
 12 14  1  0  0  0
  4  9  1  0  0  0
  6 10  1  0  0  0
  8 11  1  0  0  0
M  END
> <minimizedAffinity>
-5.00455

$$$$
5Z5F_FUB_A_602


 14 14  0  0  0  0  0  0  0  0999 V2000
    8.4071    7.9251   15.7745 C   0  0  0  0  0  0  0  0  0  0  0  0
    7.8968    8.0628   14.4441 O   0  0  0  0  0  0  0  0  0  0  0  0
    7.2573    7.4301   16.6220 C   0  0  0  0  0  0  0  0  0  0  0  0
    7.7137    6.7961   17.8197 O   0  0  0  0  0  0  0  0  0  0  0  0
    6.5298    6.5697   15.5981 C   0  0  0  0  0  0  0  0  0  0  0  0
    5.1856    6.2144   15.9073 O   0  0  0  0  0  0  0  0  0  0  0  0
    6.6000    7.4445   14.3516 C   0  0  0  0  0  0  0  0  0  0  0  0
    5.5660    8.4398   14.3182 O   0  0  0  0  0  0  0  0  0  0  0  0
    8.3313    6.0833   17.5930 H   0  0  0  0  0  0  0  0  0  0  0  0
    4.6531    7.0191   16.0064 H   0  0  0  0  0  0  0  0  0  0  0  0
    5.6317    9.0008   15.1068 H   0  0  0  0  0  0  0  0  0  0  0  0
   10.1334    9.6385   15.4934 O   0  0  0  0  0  0  0  0  0  0  0  0
    8.9508    9.2726   16.2452 C   0  0  0  0  0  0  0  0  0  0  0  0
   10.4631   10.4954   15.8064 H   0  0  0  0  0  0  0  0  0  0  0  0
 13 12  1  0  0  0
  1 13  1  0  0  0
  3  1  1  0  0  0
  1  2  1  0  0  0
  7  2  1  0  0  0
  4  3  1  0  0  0
  5  3  1  0  0  0
  5  6  1  0  0  0
  5  7  1  0  0  0
  7  8  1  0  0  0
 12 14  1  0  0  0
  4  9  1  0  0  0
  6 10  1  0  0  0
  8 11  1  0  0  0
M  END
> <minimizedAffinity>
-4.96634

$$$$
5Z5F_FUB_A_602


 14 14  0  0  0  0  0  0  0  0999 V2000
    6.9624    6.8104   15.6227 C   0  0  0  0  0  0  0  0  0  0  0  0
    8.3456    6.9281   15.2730 O   0  0  0  0  0  0  0  0  0  0  0  0
    6.3301    8.1482   15.3131 C   0  0  0  0  0  0  0  0  0  0  0  0
    4.9138    8.0414   15.1474 O   0  0  0  0  0  0  0  0  0  0  0  0
    7.1565    8.5531   14.1003 C   0  0  0  0  0  0  0  0  0  0  0  0
    7.1090    9.9275   13.7294 O   0  0  0  0  0  0  0  0  0  0  0  0
    8.5603    8.1424   14.5301 C   0  0  0  0  0  0  0  0  0  0  0  0
    9.1965    9.1327   15.3520 O   0  0  0  0  0  0  0  0  0  0  0  0
    4.7169    7.3800   14.4658 H   0  0  0  0  0  0  0  0  0  0  0  0
    7.4299   10.4722   14.4651 H   0  0  0  0  0  0  0  0  0  0  0  0
    8.6552    9.2948   16.1405 H   0  0  0  0  0  0  0  0  0  0  0  0
    7.8037    7.1731   17.8933 O   0  0  0  0  0  0  0  0  0  0  0  0
    6.8485    6.4302   17.0976 C   0  0  0  0  0  0  0  0  0  0  0  0
    7.7160    6.9182   18.8251 H   0  0  0  0  0  0  0  0  0  0  0  0
 13 12  1  0  0  0
  1 13  1  0  0  0
  3  1  1  0  0  0
  1  2  1  0  0  0
  7  2  1  0  0  0
  4  3  1  0  0  0
  5  3  1  0  0  0
  5  6  1  0  0  0
  5  7  1  0  0  0
  7  8  1  0  0  0
 12 14  1  0  0  0
  4  9  1  0  0  0
  6 10  1  0  0  0
  8 11  1  0  0  0
M  END
> <minimizedAffinity>
-4.92459

$$$$
5Z5F_FUB_A_602


 14 14  0  0  0  0  0  0  0  0999 V2000
    6.0513    8.4222   14.7601 C   0  0  0  0  0  0  0  0  0  0  0  0
    6.2178    7.5788   15.9048 O   0  0  0  0  0  0  0  0  0  0  0  0
    7.3869    9.0908   14.5266 C   0  0  0  0  0  0  0  0  0  0  0  0
    7.5182    9.5619   13.1829 O   0  0  0  0  0  0  0  0  0  0  0  0
    8.3196    7.9765   14.9808 C   0  0  0  0  0  0  0  0  0  0  0  0
    9.6667    8.3484   15.2562 O   0  0  0  0  0  0  0  0  0  0  0  0
    7.6149    7.4740   16.2358 C   0  0  0  0  0  0  0  0  0  0  0  0
    7.9214    8.2654   17.3937 O   0  0  0  0  0  0  0  0  0  0  0  0
    7.3664    8.8282   12.5668 H   0  0  0  0  0  0  0  0  0  0  0  0
    9.6807    9.0129   15.9627 H   0  0  0  0  0  0  0  0  0  0  0  0
    7.6674    9.1874   17.2317 H   0  0  0  0  0  0  0  0  0  0  0  0
    5.3348   10.7612   14.6581 O   0  0  0  0  0  0  0  0  0  0  0  0
    4.9295    9.4222   15.0327 C   0  0  0  0  0  0  0  0  0  0  0  0
    4.6104   11.3806   14.8384 H   0  0  0  0  0  0  0  0  0  0  0  0
 13 12  1  0  0  0
  1 13  1  0  0  0
  3  1  1  0  0  0
  1  2  1  0  0  0
  7  2  1  0  0  0
  4  3  1  0  0  0
  5  3  1  0  0  0
  5  6  1  0  0  0
  5  7  1  0  0  0
  7  8  1  0  0  0
 12 14  1  0  0  0
  4  9  1  0  0  0
  6 10  1  0  0  0
  8 11  1  0  0  0
M  END
> <minimizedAffinity>
-4.86234

$$$$
5Z5F_FUB_A_602


 14 14  0  0  0  0  0  0  0  0999 V2000
    6.6103    7.7247   15.1400 C   0  0  0  0  0  0  0  0  0  0  0  0
    6.8691    7.0677   16.3853 O   0  0  0  0  0  0  0  0  0  0  0  0
    7.4736    8.9657   15.1265 C   0  0  0  0  0  0  0  0  0  0  0  0
    7.6931    9.4464   13.7978 O   0  0  0  0  0  0  0  0  0  0  0  0
    8.6790    8.4536   15.9026 C   0  0  0  0  0  0  0  0  0  0  0  0
    9.5673    9.4398   16.4197 O   0  0  0  0  0  0  0  0  0  0  0  0
    8.0136    7.6635   17.0237 C   0  0  0  0  0  0  0  0  0  0  0  0
    7.6053    8.4978   18.1183 O   0  0  0  0  0  0  0  0  0  0  0  0
    8.0694    8.7360   13.2550 H   0  0  0  0  0  0  0  0  0  0  0  0
    9.0856   10.0217   17.0281 H   0  0  0  0  0  0  0  0  0  0  0  0
    6.9906    9.1757   17.7964 H   0  0  0  0  0  0  0  0  0  0  0  0
    4.9101    9.4553   14.8089 O   0  0  0  0  0  0  0  0  0  0  0  0
    5.1194    8.0409   15.0401 C   0  0  0  0  0  0  0  0  0  0  0  0
    3.9590    9.6358   14.7485 H   0  0  0  0  0  0  0  0  0  0  0  0
 13 12  1  0  0  0
  1 13  1  0  0  0
  3  1  1  0  0  0
  1  2  1  0  0  0
  7  2  1  0  0  0
  4  3  1  0  0  0
  5  3  1  0  0  0
  5  6  1  0  0  0
  5  7  1  0  0  0
  7  8  1  0  0  0
 12 14  1  0  0  0
  4  9  1  0  0  0
  6 10  1  0  0  0
  8 11  1  0  0  0
M  END
> <minimizedAffinity>
-4.81247

$$$$
5Z5F_FUB_A_602


 14 14  0  0  0  0  0  0  0  0999 V2000
    8.2682    8.3718   14.6777 C   0  0  0  0  0  0  0  0  0  0  0  0
    7.3587    9.3703   14.2030 O   0  0  0  0  0  0  0  0  0  0  0  0
    7.4475    7.4065   15.5023 C   0  0  0  0  0  0  0  0  0  0  0  0
    8.0900    6.1354   15.6289 O   0  0  0  0  0  0  0  0  0  0  0  0
    6.1323    7.4624   14.7374 C   0  0  0  0  0  0  0  0  0  0  0  0
    4.9825    6.9626   15.4134 O   0  0  0  0  0  0  0  0  0  0  0  0
    6.0030    8.9541   14.4507 C   0  0  0  0  0  0  0  0  0  0  0  0
    5.4444    9.6808   15.5556 O   0  0  0  0  0  0  0  0  0  0  0  0
    8.2870    5.7834   14.7467 H   0  0  0  0  0  0  0  0  0  0  0  0
    4.8398    7.4706   16.2274 H   0  0  0  0  0  0  0  0  0  0  0  0
    5.9997    9.5529   16.3406 H   0  0  0  0  0  0  0  0  0  0  0  0
    9.3618    8.5840   16.8581 O   0  0  0  0  0  0  0  0  0  0  0  0
    9.3757    9.0455   15.4853 C   0  0  0  0  0  0  0  0  0  0  0  0
   10.0710    9.0224   17.3538 H   0  0  0  0  0  0  0  0  0  0  0  0
 13 12  1  0  0  0
  1 13  1  0  0  0
  3  1  1  0  0  0
  1  2  1  0  0  0
  7  2  1  0  0  0
  4  3  1  0  0  0
  5  3  1  0  0  0
  5  6  1  0  0  0
  5  7  1  0  0  0
  7  8  1  0  0  0
 12 14  1  0  0  0
  4  9  1  0  0  0
  6 10  1  0  0  0
  8 11  1  0  0  0
M  END
> <minimizedAffinity>
-4.74836

$$$$
5Z5F_FUB_A_602


 14 14  0  0  0  0  0  0  0  0999 V2000
    7.3520    7.8866   16.2284 C   0  0  0  0  0  0  0  0  0  0  0  0
    6.2634    8.7966   16.4188 O   0  0  0  0  0  0  0  0  0  0  0  0
    7.6567    7.8918   14.7477 C   0  0  0  0  0  0  0  0  0  0  0  0
    8.9835    7.4329   14.4761 O   0  0  0  0  0  0  0  0  0  0  0  0
    7.3272    9.3412   14.4184 C   0  0  0  0  0  0  0  0  0  0  0  0
    7.1396    9.6529   13.0412 O   0  0  0  0  0  0  0  0  0  0  0  0
    6.0462    9.5572   15.2159 C   0  0  0  0  0  0  0  0  0  0  0  0
    4.8802    9.0866   14.5232 O   0  0  0  0  0  0  0  0  0  0  0  0
    9.6191    7.9651   14.9797 H   0  0  0  0  0  0  0  0  0  0  0  0
    6.4065    9.1254   12.6873 H   0  0  0  0  0  0  0  0  0  0  0  0
    4.9796    8.1417   14.3277 H   0  0  0  0  0  0  0  0  0  0  0  0
    7.2728    5.4822   15.7730 O   0  0  0  0  0  0  0  0  0  0  0  0
    6.9483    6.5068   16.7438 C   0  0  0  0  0  0  0  0  0  0  0  0
    7.0093    4.6148   16.1180 H   0  0  0  0  0  0  0  0  0  0  0  0
 13 12  1  0  0  0
  1 13  1  0  0  0
  3  1  1  0  0  0
  1  2  1  0  0  0
  7  2  1  0  0  0
  4  3  1  0  0  0
  5  3  1  0  0  0
  5  6  1  0  0  0
  5  7  1  0  0  0
  7  8  1  0  0  0
 12 14  1  0  0  0
  4  9  1  0  0  0
  6 10  1  0  0  0
  8 11  1  0  0  0
M  END
> <minimizedAffinity>
-4.54506

$$$$
