4AHU_ICO_A_1217


 14 15  0  0  0  0  0  0  0  0999 V2000
  -16.7899   17.8283    1.4687 C   0  0  0  0  0  0  0  0  0  0  0  0
  -17.5064   16.8376    0.8065 C   0  0  0  0  0  0  0  0  0  0  0  0
  -17.1518   15.5057    0.9302 C   0  0  0  0  0  0  0  0  0  0  0  0
  -16.0850   15.1256    1.7134 C   0  0  0  0  0  0  0  0  0  0  0  0
  -15.3530   16.0851    2.3957 C   0  0  0  0  0  0  0  0  0  0  0  0
  -15.7123   17.4224    2.2599 C   0  0  0  0  0  0  0  0  0  0  0  0
  -15.1647   18.5498    2.8580 N   0  0  0  0  0  0  0  0  0  0  0  0
  -15.8464   19.6591    2.4586 C   0  0  0  0  0  0  0  0  0  0  0  0
  -16.8613   19.2609    1.5955 C   0  0  0  0  0  0  0  0  0  0  0  0
  -14.3993   18.5474    3.4772 H   0  0  0  0  0  0  0  0  0  0  0  0
  -17.8489   20.2799    0.9264 C   0  0  0  0  0  0  0  0  0  0  0  0
  -18.6959   20.9186    1.6463 O   0  0  0  0  0  0  0  0  0  0  0  0
  -17.7873   20.3788   -0.3414 O   0  0  0  0  0  0  0  0  0  0  0  0
  -18.6972   20.8085    2.5768 H   0  0  0  0  0  0  0  0  0  0  0  0
  1  2  1  0  0  0
  1  6  2  0  0  0
  1  9  1  0  0  0
  2  3  2  0  0  0
  3  4  1  0  0  0
  4  5  2  0  0  0
  5  6  1  0  0  0
  6  7  1  0  0  0
  7  8  1  0  0  0
  8  9  2  0  0  0
  9 11  1  0  0  0
 11 12  1  0  0  0
 11 13  2  0  0  0
  7 10  1  0  0  0
 12 14  1  0  0  0
M  END
> <minimizedAffinity>
-7.47259

$$$$
4AHU_ICO_A_1217


 14 15  0  0  0  0  0  0  0  0999 V2000
  -16.5248   18.1269    1.5611 C   0  0  0  0  0  0  0  0  0  0  0  0
  -15.6792   18.1758    2.6637 C   0  0  0  0  0  0  0  0  0  0  0  0
  -14.9937   17.0482    3.0801 C   0  0  0  0  0  0  0  0  0  0  0  0
  -15.1269   15.8508    2.4134 C   0  0  0  0  0  0  0  0  0  0  0  0
  -15.9543   15.7666    1.3041 C   0  0  0  0  0  0  0  0  0  0  0  0
  -16.6451   16.9037    0.8969 C   0  0  0  0  0  0  0  0  0  0  0  0
  -17.4956   17.0804   -0.1865 N   0  0  0  0  0  0  0  0  0  0  0  0
  -17.9339   18.3694   -0.2216 C   0  0  0  0  0  0  0  0  0  0  0  0
  -17.3599   19.0549    0.8434 C   0  0  0  0  0  0  0  0  0  0  0  0
  -17.7443   16.3797   -0.8318 H   0  0  0  0  0  0  0  0  0  0  0  0
  -17.6482   20.5711    1.1253 C   0  0  0  0  0  0  0  0  0  0  0  0
  -18.7939   20.9335    1.5719 O   0  0  0  0  0  0  0  0  0  0  0  0
  -16.7160   21.3882    0.8349 O   0  0  0  0  0  0  0  0  0  0  0  0
  -19.4448   20.2891    1.7697 H   0  0  0  0  0  0  0  0  0  0  0  0
  1  2  1  0  0  0
  1  6  2  0  0  0
  1  9  1  0  0  0
  2  3  2  0  0  0
  3  4  1  0  0  0
  4  5  2  0  0  0
  5  6  1  0  0  0
  6  7  1  0  0  0
  7  8  1  0  0  0
  8  9  2  0  0  0
  9 11  1  0  0  0
 11 12  1  0  0  0
 11 13  2  0  0  0
  7 10  1  0  0  0
 12 14  1  0  0  0
M  END
> <minimizedAffinity>
-6.69940

$$$$
4AHU_ICO_A_1217


 14 15  0  0  0  0  0  0  0  0999 V2000
  -17.0129   17.7574    0.6462 C   0  0  0  0  0  0  0  0  0  0  0  0
  -17.7069   18.6951   -0.1103 C   0  0  0  0  0  0  0  0  0  0  0  0
  -17.6717   20.0380    0.2217 C   0  0  0  0  0  0  0  0  0  0  0  0
  -16.9472   20.4819    1.3052 C   0  0  0  0  0  0  0  0  0  0  0  0
  -16.2353   19.5768    2.0774 C   0  0  0  0  0  0  0  0  0  0  0  0
  -16.2822   18.2276    1.7403 C   0  0  0  0  0  0  0  0  0  0  0  0
  -15.6388   17.1468    2.3287 N   0  0  0  0  0  0  0  0  0  0  0  0
  -15.9511   16.0042    1.6567 C   0  0  0  0  0  0  0  0  0  0  0  0
  -16.8018   16.3335    0.6071 C   0  0  0  0  0  0  0  0  0  0  0  0
  -15.0463   17.1987    3.1133 H   0  0  0  0  0  0  0  0  0  0  0  0
  -17.3784   15.2600   -0.3811 C   0  0  0  0  0  0  0  0  0  0  0  0
  -17.5927   14.0635    0.0262 O   0  0  0  0  0  0  0  0  0  0  0  0
  -17.5568   15.6360   -1.5843 O   0  0  0  0  0  0  0  0  0  0  0  0
  -17.4446   13.8406    0.9242 H   0  0  0  0  0  0  0  0  0  0  0  0
  1  2  1  0  0  0
  1  6  2  0  0  0
  1  9  1  0  0  0
  2  3  2  0  0  0
  3  4  1  0  0  0
  4  5  2  0  0  0
  5  6  1  0  0  0
  6  7  1  0  0  0
  7  8  1  0  0  0
  8  9  2  0  0  0
  9 11  1  0  0  0
 11 12  1  0  0  0
 11 13  2  0  0  0
  7 10  1  0  0  0
 12 14  1  0  0  0
M  END
> <minimizedAffinity>
-6.55557

$$$$
4AHU_ICO_A_1217


 14 15  0  0  0  0  0  0  0  0999 V2000
  -16.5582   17.6901    1.6805 C   0  0  0  0  0  0  0  0  0  0  0  0
  -15.9756   16.4380    1.8426 C   0  0  0  0  0  0  0  0  0  0  0  0
  -16.5328   15.3169    1.2531 C   0  0  0  0  0  0  0  0  0  0  0  0
  -17.6742   15.4107    0.4888 C   0  0  0  0  0  0  0  0  0  0  0  0
  -18.2777   16.6442    0.2977 C   0  0  0  0  0  0  0  0  0  0  0  0
  -17.7145   17.7649    0.9000 C   0  0  0  0  0  0  0  0  0  0  0  0
  -18.1071   19.0953    0.8332 N   0  0  0  0  0  0  0  0  0  0  0  0
  -17.2501   19.8646    1.5600 C   0  0  0  0  0  0  0  0  0  0  0  0
  -16.2750   19.0366    2.1051 C   0  0  0  0  0  0  0  0  0  0  0  0
  -18.8872   19.4315    0.3355 H   0  0  0  0  0  0  0  0  0  0  0  0
  -15.1191   19.5797    3.0164 C   0  0  0  0  0  0  0  0  0  0  0  0
  -14.4348   20.5981    2.6450 O   0  0  0  0  0  0  0  0  0  0  0  0
  -14.8836   18.9249    4.0826 O   0  0  0  0  0  0  0  0  0  0  0  0
  -14.6519   21.0438    1.8499 H   0  0  0  0  0  0  0  0  0  0  0  0
  1  2  1  0  0  0
  1  6  2  0  0  0
  1  9  1  0  0  0
  2  3  2  0  0  0
  3  4  1  0  0  0
  4  5  2  0  0  0
  5  6  1  0  0  0
  6  7  1  0  0  0
  7  8  1  0  0  0
  8  9  2  0  0  0
  9 11  1  0  0  0
 11 12  1  0  0  0
 11 13  2  0  0  0
  7 10  1  0  0  0
 12 14  1  0  0  0
M  END
> <minimizedAffinity>
-6.52422

$$$$
4AHU_ICO_A_1217


 14 15  0  0  0  0  0  0  0  0999 V2000
  -16.5924   17.2866    1.5334 C   0  0  0  0  0  0  0  0  0  0  0  0
  -15.6138   16.6478    2.2868 C   0  0  0  0  0  0  0  0  0  0  0  0
  -15.5387   15.2666    2.3238 C   0  0  0  0  0  0  0  0  0  0  0  0
  -16.4262   14.4889    1.6143 C   0  0  0  0  0  0  0  0  0  0  0  0
  -17.4098   15.0911    0.8448 C   0  0  0  0  0  0  0  0  0  0  0  0
  -17.4822   16.4804    0.8192 C   0  0  0  0  0  0  0  0  0  0  0  0
  -18.3432   17.3075    0.1100 N   0  0  0  0  0  0  0  0  0  0  0  0
  -18.0420   18.6111    0.3645 C   0  0  0  0  0  0  0  0  0  0  0  0
  -16.9647   18.6470    1.2430 C   0  0  0  0  0  0  0  0  0  0  0  0
  -19.0626   16.9983   -0.4866 H   0  0  0  0  0  0  0  0  0  0  0  0
  -16.3481   19.9905    1.7684 C   0  0  0  0  0  0  0  0  0  0  0  0
  -15.5652   19.9827    2.7836 O   0  0  0  0  0  0  0  0  0  0  0  0
  -16.7138   21.0534    1.1704 O   0  0  0  0  0  0  0  0  0  0  0  0
  -15.3279   19.1704    3.1859 H   0  0  0  0  0  0  0  0  0  0  0  0
  1  2  1  0  0  0
  1  6  2  0  0  0
  1  9  1  0  0  0
  2  3  2  0  0  0
  3  4  1  0  0  0
  4  5  2  0  0  0
  5  6  1  0  0  0
  6  7  1  0  0  0
  7  8  1  0  0  0
  8  9  2  0  0  0
  9 11  1  0  0  0
 11 12  1  0  0  0
 11 13  2  0  0  0
  7 10  1  0  0  0
 12 14  1  0  0  0
M  END
> <minimizedAffinity>
-6.30733

$$$$
4AHU_ICO_A_1217


 14 15  0  0  0  0  0  0  0  0999 V2000
  -16.9599   17.5683    0.8663 C   0  0  0  0  0  0  0  0  0  0  0  0
  -16.5895   18.3657    1.9434 C   0  0  0  0  0  0  0  0  0  0  0  0
  -16.7127   19.7425    1.8797 C   0  0  0  0  0  0  0  0  0  0  0  0
  -17.2076   20.3588    0.7523 C   0  0  0  0  0  0  0  0  0  0  0  0
  -17.5955   19.5952   -0.3380 C   0  0  0  0  0  0  0  0  0  0  0  0
  -17.4616   18.2121   -0.2676 C   0  0  0  0  0  0  0  0  0  0  0  0
  -17.8053   17.2423   -1.2003 N   0  0  0  0  0  0  0  0  0  0  0  0
  -17.5215   16.0062   -0.7042 C   0  0  0  0  0  0  0  0  0  0  0  0
  -16.9939   16.1588    0.5732 C   0  0  0  0  0  0  0  0  0  0  0  0
  -18.1954   17.4214   -2.0863 H   0  0  0  0  0  0  0  0  0  0  0  0
  -16.5396   14.9399    1.4504 C   0  0  0  0  0  0  0  0  0  0  0  0
  -15.8941   15.1395    2.5398 O   0  0  0  0  0  0  0  0  0  0  0  0
  -16.7998   13.7822    0.9889 O   0  0  0  0  0  0  0  0  0  0  0  0
  -15.7301   16.0139    2.8338 H   0  0  0  0  0  0  0  0  0  0  0  0
  1  2  1  0  0  0
  1  6  2  0  0  0
  1  9  1  0  0  0
  2  3  2  0  0  0
  3  4  1  0  0  0
  4  5  2  0  0  0
  5  6  1  0  0  0
  6  7  1  0  0  0
  7  8  1  0  0  0
  8  9  2  0  0  0
  9 11  1  0  0  0
 11 12  1  0  0  0
 11 13  2  0  0  0
  7 10  1  0  0  0
 12 14  1  0  0  0
M  END
> <minimizedAffinity>
-6.27029

$$$$
4AHU_ICO_A_1217


 14 15  0  0  0  0  0  0  0  0999 V2000
  -16.5882   16.5280    0.9157 C   0  0  0  0  0  0  0  0  0  0  0  0
  -15.7604   15.7801    1.7457 C   0  0  0  0  0  0  0  0  0  0  0  0
  -15.0665   16.3816    2.7808 C   0  0  0  0  0  0  0  0  0  0  0  0
  -15.1792   17.7331    3.0191 C   0  0  0  0  0  0  0  0  0  0  0  0
  -16.0024   18.5091    2.2176 C   0  0  0  0  0  0  0  0  0  0  0  0
  -16.6909   17.8970    1.1748 C   0  0  0  0  0  0  0  0  0  0  0  0
  -17.5882   18.4439    0.2670 N   0  0  0  0  0  0  0  0  0  0  0  0
  -18.0442   17.4721   -0.5711 C   0  0  0  0  0  0  0  0  0  0  0  0
  -17.4503   16.2684   -0.2081 C   0  0  0  0  0  0  0  0  0  0  0  0
  -17.8546   19.3911    0.2343 H   0  0  0  0  0  0  0  0  0  0  0  0
  -17.7348   14.9242   -0.9655 C   0  0  0  0  0  0  0  0  0  0  0  0
  -17.9775   13.8540   -0.3028 O   0  0  0  0  0  0  0  0  0  0  0  0
  -17.6536   14.9618   -2.2355 O   0  0  0  0  0  0  0  0  0  0  0  0
  -18.0265   13.8831    0.6325 H   0  0  0  0  0  0  0  0  0  0  0  0
  1  2  1  0  0  0
  1  6  2  0  0  0
  1  9  1  0  0  0
  2  3  2  0  0  0
  3  4  1  0  0  0
  4  5  2  0  0  0
  5  6  1  0  0  0
  6  7  1  0  0  0
  7  8  1  0  0  0
  8  9  2  0  0  0
  9 11  1  0  0  0
 11 12  1  0  0  0
 11 13  2  0  0  0
  7 10  1  0  0  0
 12 14  1  0  0  0
M  END
> <minimizedAffinity>
-6.26273

$$$$
4AHU_ICO_A_1217


 14 15  0  0  0  0  0  0  0  0999 V2000
  -17.2576   17.4762    0.4869 C   0  0  0  0  0  0  0  0  0  0  0  0
  -17.7646   18.6635   -0.0294 C   0  0  0  0  0  0  0  0  0  0  0  0
  -17.4693   19.8771    0.5662 C   0  0  0  0  0  0  0  0  0  0  0  0
  -16.6643   19.9426    1.6813 C   0  0  0  0  0  0  0  0  0  0  0  0
  -16.1333   18.7800    2.2187 C   0  0  0  0  0  0  0  0  0  0  0  0
  -16.4413   17.5636    1.6174 C   0  0  0  0  0  0  0  0  0  0  0  0
  -16.0127   16.2834    1.9427 N   0  0  0  0  0  0  0  0  0  0  0  0
  -16.5443   15.3846    1.0685 C   0  0  0  0  0  0  0  0  0  0  0  0
  -17.3243   16.0779    0.1496 C   0  0  0  0  0  0  0  0  0  0  0  0
  -15.4149   16.0594    2.6922 H   0  0  0  0  0  0  0  0  0  0  0  0
  -18.1045   15.3605   -1.0072 C   0  0  0  0  0  0  0  0  0  0  0  0
  -17.4988   15.0534   -2.0946 O   0  0  0  0  0  0  0  0  0  0  0  0
  -19.3479   15.1653   -0.8154 O   0  0  0  0  0  0  0  0  0  0  0  0
  -16.5808   15.2192   -2.1824 H   0  0  0  0  0  0  0  0  0  0  0  0
  1  2  1  0  0  0
  1  6  2  0  0  0
  1  9  1  0  0  0
  2  3  2  0  0  0
  3  4  1  0  0  0
  4  5  2  0  0  0
  5  6  1  0  0  0
  6  7  1  0  0  0
  7  8  1  0  0  0
  8  9  2  0  0  0
  9 11  1  0  0  0
 11 12  1  0  0  0
 11 13  2  0  0  0
  7 10  1  0  0  0
 12 14  1  0  0  0
M  END
> <minimizedAffinity>
-6.07268

$$$$
4AHU_ICO_A_1217


 14 15  0  0  0  0  0  0  0  0999 V2000
  -17.3630   15.6280    0.6841 C   0  0  0  0  0  0  0  0  0  0  0  0
  -18.2747   14.8742   -0.0466 C   0  0  0  0  0  0  0  0  0  0  0  0
  -18.4308   13.5212    0.1980 C   0  0  0  0  0  0  0  0  0  0  0  0
  -17.6924   12.8867    1.1716 C   0  0  0  0  0  0  0  0  0  0  0  0
  -16.7802   13.6081    1.9263 C   0  0  0  0  0  0  0  0  0  0  0  0
  -16.6247   14.9666    1.6687 C   0  0  0  0  0  0  0  0  0  0  0  0
  -15.8120   15.8985    2.3005 N   0  0  0  0  0  0  0  0  0  0  0  0
  -15.9956   17.1252    1.7380 C   0  0  0  0  0  0  0  0  0  0  0  0
  -16.9465   17.0057    0.7306 C   0  0  0  0  0  0  0  0  0  0  0  0
  -15.1960   15.7022    3.0430 H   0  0  0  0  0  0  0  0  0  0  0  0
  -17.4050   18.2231   -0.1464 C   0  0  0  0  0  0  0  0  0  0  0  0
  -17.2311   18.1998   -1.4164 O   0  0  0  0  0  0  0  0  0  0  0  0
  -17.8912   19.2200    0.4787 O   0  0  0  0  0  0  0  0  0  0  0  0
  -16.8688   17.4388   -1.8257 H   0  0  0  0  0  0  0  0  0  0  0  0
  1  2  1  0  0  0
  1  6  2  0  0  0
  1  9  1  0  0  0
  2  3  2  0  0  0
  3  4  1  0  0  0
  4  5  2  0  0  0
  5  6  1  0  0  0
  6  7  1  0  0  0
  7  8  1  0  0  0
  8  9  2  0  0  0
  9 11  1  0  0  0
 11 12  1  0  0  0
 11 13  2  0  0  0
  7 10  1  0  0  0
 12 14  1  0  0  0
M  END
> <minimizedAffinity>
-5.94462

$$$$
4AHU_ICO_A_1217


 14 15  0  0  0  0  0  0  0  0999 V2000
  -16.9563   17.0241    1.2519 C   0  0  0  0  0  0  0  0  0  0  0  0
  -18.0427   17.1066    0.3880 C   0  0  0  0  0  0  0  0  0  0  0  0
  -18.5786   15.9670   -0.1856 C   0  0  0  0  0  0  0  0  0  0  0  0
  -18.0546   14.7229    0.0858 C   0  0  0  0  0  0  0  0  0  0  0  0
  -16.9770   14.6011    0.9496 C   0  0  0  0  0  0  0  0  0  0  0  0
  -16.4402   15.7530    1.5161 C   0  0  0  0  0  0  0  0  0  0  0  0
  -15.3976   15.8884    2.4234 N   0  0  0  0  0  0  0  0  0  0  0  0
  -15.2224   17.2038    2.7295 C   0  0  0  0  0  0  0  0  0  0  0  0
  -16.1648   17.9453    2.0255 C   0  0  0  0  0  0  0  0  0  0  0  0
  -14.8655   15.1456    2.7900 H   0  0  0  0  0  0  0  0  0  0  0  0
  -16.2547   19.5085    2.1245 C   0  0  0  0  0  0  0  0  0  0  0  0
  -15.2821   20.1759    2.6266 O   0  0  0  0  0  0  0  0  0  0  0  0
  -17.3454   20.0386    1.7369 O   0  0  0  0  0  0  0  0  0  0  0  0
  -14.5007   19.7345    2.8958 H   0  0  0  0  0  0  0  0  0  0  0  0
  1  2  1  0  0  0
  1  6  2  0  0  0
  1  9  1  0  0  0
  2  3  2  0  0  0
  3  4  1  0  0  0
  4  5  2  0  0  0
  5  6  1  0  0  0
  6  7  1  0  0  0
  7  8  1  0  0  0
  8  9  2  0  0  0
  9 11  1  0  0  0
 11 12  1  0  0  0
 11 13  2  0  0  0
  7 10  1  0  0  0
 12 14  1  0  0  0
M  END
> <minimizedAffinity>
-5.85622

$$$$
