1AJN_AAN_B_559


 14 14  0  0  0  0  0  0  0  0999 V2000
   12.6721   35.5295   35.5313 C   0  0  0  0  0  0  0  0  0  0  0  0
   12.7587   36.4593   34.5152 C   0  0  0  0  0  0  0  0  0  0  0  0
   11.7193   36.4521   33.5997 C   0  0  0  0  0  0  0  0  0  0  0  0
   10.7518   35.4864   33.6336 C   0  0  0  0  0  0  0  0  0  0  0  0
   10.6766   34.4776   34.5885 C   0  0  0  0  0  0  0  0  0  0  0  0
   11.6789   34.5623   35.5526 C   0  0  0  0  0  0  0  0  0  0  0  0
   10.0128   35.4432   32.8365 N   0  0  0  0  0  0  0  0  0  0  0  0
   10.2882   36.4628   31.8881 O   0  0  0  0  0  0  0  0  0  0  0  0
    8.9629   34.4930   32.8734 O   0  0  0  0  0  0  0  0  0  0  0  0
   13.6871   35.5622   36.6498 C   0  0  0  0  0  0  0  0  0  0  0  0
   15.0782   36.0106   36.1610 C   0  0  0  0  0  0  0  0  0  0  0  0
   15.8136   35.2259   35.5642 O   0  0  0  0  0  0  0  0  0  0  0  0
   15.5887   37.1250   36.3222 O   0  0  0  0  0  0  0  0  0  0  0  0
   15.1123   37.7988   36.7662 H   0  0  0  0  0  0  0  0  0  0  0  0
 11 10  1  0  0  0
 11 12  2  0  0  0
 11 13  1  0  0  0
 10  1  1  0  0  0
  1  2  2  0  0  0
  1  6  1  0  0  0
  2  3  1  0  0  0
  3  4  2  0  0  0
  4  7  1  0  0  0
  4  5  1  0  0  0
  7  8  2  0  0  0
  7  9  1  0  0  0
  5  6  2  0  0  0
 13 14  1  0  0  0
M  CHG 1   7   1
M  CHG 1   9  -1
M  END
> <minimizedAffinity>
-6.28181

$$$$
1AJN_AAN_B_559


 14 14  0  0  0  0  0  0  0  0999 V2000
   12.5116   35.4649   35.3780 C   0  0  0  0  0  0  0  0  0  0  0  0
   11.6662   34.3786   35.2798 C   0  0  0  0  0  0  0  0  0  0  0  0
   10.8888   34.3199   34.1349 C   0  0  0  0  0  0  0  0  0  0  0  0
   10.8682   35.3522   33.2386 C   0  0  0  0  0  0  0  0  0  0  0  0
   11.6388   36.5054   33.3450 C   0  0  0  0  0  0  0  0  0  0  0  0
   12.4815   36.4988   34.4546 C   0  0  0  0  0  0  0  0  0  0  0  0
   10.1657   35.3242   32.4084 N   0  0  0  0  0  0  0  0  0  0  0  0
    9.0454   34.5315   32.7707 O   0  0  0  0  0  0  0  0  0  0  0  0
   10.4571   35.9870   31.1909 O   0  0  0  0  0  0  0  0  0  0  0  0
   13.4951   35.5335   36.5227 C   0  0  0  0  0  0  0  0  0  0  0  0
   14.8890   36.0059   36.0655 C   0  0  0  0  0  0  0  0  0  0  0  0
   15.6700   35.2213   35.5297 O   0  0  0  0  0  0  0  0  0  0  0  0
   15.3585   37.1421   36.1971 O   0  0  0  0  0  0  0  0  0  0  0  0
   14.8453   37.8179   36.5945 H   0  0  0  0  0  0  0  0  0  0  0  0
 11 10  1  0  0  0
 11 12  2  0  0  0
 11 13  1  0  0  0
 10  1  1  0  0  0
  1  2  2  0  0  0
  1  6  1  0  0  0
  2  3  1  0  0  0
  3  4  2  0  0  0
  4  7  1  0  0  0
  4  5  1  0  0  0
  7  8  2  0  0  0
  7  9  1  0  0  0
  5  6  2  0  0  0
 13 14  1  0  0  0
M  CHG 1   7   1
M  CHG 1   9  -1
M  END
> <minimizedAffinity>
-6.21968

$$$$
1AJN_AAN_B_559


 14 14  0  0  0  0  0  0  0  0999 V2000
   13.4069   35.2092   35.9011 C   0  0  0  0  0  0  0  0  0  0  0  0
   13.0388   35.5477   37.1873 C   0  0  0  0  0  0  0  0  0  0  0  0
   14.0371   36.0931   37.9775 C   0  0  0  0  0  0  0  0  0  0  0  0
   15.3320   36.1531   37.5424 C   0  0  0  0  0  0  0  0  0  0  0  0
   15.7622   35.7408   36.2854 C   0  0  0  0  0  0  0  0  0  0  0  0
   14.7244   35.2839   35.4756 C   0  0  0  0  0  0  0  0  0  0  0  0
   16.1101   36.4844   38.2267 N   0  0  0  0  0  0  0  0  0  0  0  0
   17.0266   35.4221   38.4417 O   0  0  0  0  0  0  0  0  0  0  0  0
   16.0807   37.7881   38.7798 O   0  0  0  0  0  0  0  0  0  0  0  0
   12.3487   34.7415   34.9296 C   0  0  0  0  0  0  0  0  0  0  0  0
   11.4532   35.8976   34.4430 C   0  0  0  0  0  0  0  0  0  0  0  0
   10.2501   35.7208   34.2582 O   0  0  0  0  0  0  0  0  0  0  0  0
   11.8196   37.0483   34.1781 O   0  0  0  0  0  0  0  0  0  0  0  0
   12.7187   37.2898   34.2841 H   0  0  0  0  0  0  0  0  0  0  0  0
 11 10  1  0  0  0
 11 12  2  0  0  0
 11 13  1  0  0  0
 10  1  1  0  0  0
  1  2  2  0  0  0
  1  6  1  0  0  0
  2  3  1  0  0  0
  3  4  2  0  0  0
  4  7  1  0  0  0
  4  5  1  0  0  0
  7  8  2  0  0  0
  7  9  1  0  0  0
  5  6  2  0  0  0
 13 14  1  0  0  0
M  CHG 1   7   1
M  CHG 1   9  -1
M  END
> <minimizedAffinity>
-6.01214

$$$$
1AJN_AAN_B_559


 14 14  0  0  0  0  0  0  0  0999 V2000
   10.9453   35.6986   34.0290 C   0  0  0  0  0  0  0  0  0  0  0  0
   11.9914   36.5711   33.8080 C   0  0  0  0  0  0  0  0  0  0  0  0
   13.0968   36.4084   34.6268 C   0  0  0  0  0  0  0  0  0  0  0  0
   13.0795   35.5298   35.6743 C   0  0  0  0  0  0  0  0  0  0  0  0
   12.0119   34.6944   35.9863 C   0  0  0  0  0  0  0  0  0  0  0  0
   10.9492   34.8091   35.0925 C   0  0  0  0  0  0  0  0  0  0  0  0
   13.9206   35.5050   36.3639 N   0  0  0  0  0  0  0  0  0  0  0  0
   13.4437   35.6821   37.6890 O   0  0  0  0  0  0  0  0  0  0  0  0
   15.2448   35.3514   35.8853 O   0  0  0  0  0  0  0  0  0  0  0  0
    9.7616   35.7131   33.0903 C   0  0  0  0  0  0  0  0  0  0  0  0
   10.1893   35.6237   31.6123 C   0  0  0  0  0  0  0  0  0  0  0  0
   10.3396   34.5299   31.0705 O   0  0  0  0  0  0  0  0  0  0  0  0
   10.4361   36.5741   30.8610 O   0  0  0  0  0  0  0  0  0  0  0  0
   10.3529   37.4531   31.1747 H   0  0  0  0  0  0  0  0  0  0  0  0
 11 10  1  0  0  0
 11 12  2  0  0  0
 11 13  1  0  0  0
 10  1  1  0  0  0
  1  2  2  0  0  0
  1  6  1  0  0  0
  2  3  1  0  0  0
  3  4  2  0  0  0
  4  7  1  0  0  0
  4  5  1  0  0  0
  7  8  2  0  0  0
  7  9  1  0  0  0
  5  6  2  0  0  0
 13 14  1  0  0  0
M  CHG 1   7   1
M  CHG 1   9  -1
M  END
> <minimizedAffinity>
-5.96289

$$$$
1AJN_AAN_B_559


 14 14  0  0  0  0  0  0  0  0999 V2000
   13.5100   35.2426   36.0005 C   0  0  0  0  0  0  0  0  0  0  0  0
   13.1433   35.6196   37.2763 C   0  0  0  0  0  0  0  0  0  0  0  0
   14.1381   36.2039   38.0429 C   0  0  0  0  0  0  0  0  0  0  0  0
   15.4302   36.2654   37.5997 C   0  0  0  0  0  0  0  0  0  0  0  0
   15.8600   35.8165   36.3552 C   0  0  0  0  0  0  0  0  0  0  0  0
   14.8246   35.3195   35.5663 C   0  0  0  0  0  0  0  0  0  0  0  0
   16.2070   36.6294   38.2686 N   0  0  0  0  0  0  0  0  0  0  0  0
   15.7433   36.5540   39.6081 O   0  0  0  0  0  0  0  0  0  0  0  0
   17.4356   37.1132   37.7559 O   0  0  0  0  0  0  0  0  0  0  0  0
   12.4536   34.7292   35.0504 C   0  0  0  0  0  0  0  0  0  0  0  0
   11.6109   35.8690   34.4454 C   0  0  0  0  0  0  0  0  0  0  0  0
   12.1358   36.9371   34.1352 O   0  0  0  0  0  0  0  0  0  0  0  0
   10.3921   35.8506   34.2389 O   0  0  0  0  0  0  0  0  0  0  0  0
    9.8942   35.0829   34.4407 H   0  0  0  0  0  0  0  0  0  0  0  0
 11 10  1  0  0  0
 11 12  2  0  0  0
 11 13  1  0  0  0
 10  1  1  0  0  0
  1  2  2  0  0  0
  1  6  1  0  0  0
  2  3  1  0  0  0
  3  4  2  0  0  0
  4  7  1  0  0  0
  4  5  1  0  0  0
  7  8  2  0  0  0
  7  9  1  0  0  0
  5  6  2  0  0  0
 13 14  1  0  0  0
M  CHG 1   7   1
M  CHG 1   9  -1
M  END
> <minimizedAffinity>
-5.80883

$$$$
1AJN_AAN_B_559


 14 14  0  0  0  0  0  0  0  0999 V2000
   12.1313   35.2449   35.1990 C   0  0  0  0  0  0  0  0  0  0  0  0
   12.5634   36.2528   34.3611 C   0  0  0  0  0  0  0  0  0  0  0  0
   13.5834   37.0508   34.8522 C   0  0  0  0  0  0  0  0  0  0  0  0
   14.0238   36.9249   36.1405 C   0  0  0  0  0  0  0  0  0  0  0  0
   13.5534   35.9802   37.0468 C   0  0  0  0  0  0  0  0  0  0  0  0
   12.5955   35.1287   36.5003 C   0  0  0  0  0  0  0  0  0  0  0  0
   14.7474   37.6383   36.5292 N   0  0  0  0  0  0  0  0  0  0  0  0
   14.4032   38.9419   36.0855 O   0  0  0  0  0  0  0  0  0  0  0  0
   15.8427   37.2031   37.3149 O   0  0  0  0  0  0  0  0  0  0  0  0
   11.1236   34.2420   34.6882 C   0  0  0  0  0  0  0  0  0  0  0  0
   10.0731   34.8901   33.7654 C   0  0  0  0  0  0  0  0  0  0  0  0
   10.0825   34.6685   32.5556 O   0  0  0  0  0  0  0  0  0  0  0  0
    9.1778   35.6711   34.1074 O   0  0  0  0  0  0  0  0  0  0  0  0
    9.0818   35.9079   35.0089 H   0  0  0  0  0  0  0  0  0  0  0  0
 11 10  1  0  0  0
 11 12  2  0  0  0
 11 13  1  0  0  0
 10  1  1  0  0  0
  1  2  2  0  0  0
  1  6  1  0  0  0
  2  3  1  0  0  0
  3  4  2  0  0  0
  4  7  1  0  0  0
  4  5  1  0  0  0
  7  8  2  0  0  0
  7  9  1  0  0  0
  5  6  2  0  0  0
 13 14  1  0  0  0
M  CHG 1   7   1
M  CHG 1   9  -1
M  END
> <minimizedAffinity>
-5.56969

$$$$
1AJN_AAN_B_559


 14 14  0  0  0  0  0  0  0  0999 V2000
   14.6469   37.3836   37.4900 C   0  0  0  0  0  0  0  0  0  0  0  0
   14.0507   38.4937   36.9273 C   0  0  0  0  0  0  0  0  0  0  0  0
   14.9006   39.5408   36.6115 C   0  0  0  0  0  0  0  0  0  0  0  0
   16.2195   39.5163   36.9714 C   0  0  0  0  0  0  0  0  0  0  0  0
   16.8413   38.4537   37.6191 C   0  0  0  0  0  0  0  0  0  0  0  0
   15.9881   37.3748   37.8414 C   0  0  0  0  0  0  0  0  0  0  0  0
   16.8339   40.3989   36.8074 N   0  0  0  0  0  0  0  0  0  0  0  0
   15.9925   41.5308   36.6472 O   0  0  0  0  0  0  0  0  0  0  0  0
   18.2454   40.2972   36.7465 O   0  0  0  0  0  0  0  0  0  0  0  0
   13.8177   36.1444   37.7336 C   0  0  0  0  0  0  0  0  0  0  0  0
   13.4629   35.4143   36.4235 C   0  0  0  0  0  0  0  0  0  0  0  0
   12.2949   35.1309   36.1628 O   0  0  0  0  0  0  0  0  0  0  0  0
   14.2582   35.0350   35.5562 O   0  0  0  0  0  0  0  0  0  0  0  0
   15.1750   35.2004   35.6567 H   0  0  0  0  0  0  0  0  0  0  0  0
 11 10  1  0  0  0
 11 12  2  0  0  0
 11 13  1  0  0  0
 10  1  1  0  0  0
  1  2  2  0  0  0
  1  6  1  0  0  0
  2  3  1  0  0  0
  3  4  2  0  0  0
  4  7  1  0  0  0
  4  5  1  0  0  0
  7  8  2  0  0  0
  7  9  1  0  0  0
  5  6  2  0  0  0
 13 14  1  0  0  0
M  CHG 1   7   1
M  CHG 1   9  -1
M  END
> <minimizedAffinity>
-5.35865

$$$$
1AJN_AAN_B_559


 14 14  0  0  0  0  0  0  0  0999 V2000
   14.8290   38.7027   37.8451 C   0  0  0  0  0  0  0  0  0  0  0  0
   14.1342   38.7047   36.6527 C   0  0  0  0  0  0  0  0  0  0  0  0
   14.0324   37.4815   36.0110 C   0  0  0  0  0  0  0  0  0  0  0  0
   14.7037   36.3823   36.4701 C   0  0  0  0  0  0  0  0  0  0  0  0
   15.4870   36.3589   37.6195 C   0  0  0  0  0  0  0  0  0  0  0  0
   15.4974   37.5756   38.2982 C   0  0  0  0  0  0  0  0  0  0  0  0
   14.6921   35.4663   35.8834 N   0  0  0  0  0  0  0  0  0  0  0  0
   16.0253   35.1002   35.5619 O   0  0  0  0  0  0  0  0  0  0  0  0
   13.4673   34.8501   35.5276 O   0  0  0  0  0  0  0  0  0  0  0  0
   14.8665   39.9616   38.6794 C   0  0  0  0  0  0  0  0  0  0  0  0
   15.8400   41.0106   38.1075 C   0  0  0  0  0  0  0  0  0  0  0  0
   16.9302   41.2079   38.6416 O   0  0  0  0  0  0  0  0  0  0  0  0
   15.6413   41.7399   37.1292 O   0  0  0  0  0  0  0  0  0  0  0  0
   14.8399   41.6711   36.6487 H   0  0  0  0  0  0  0  0  0  0  0  0
 11 10  1  0  0  0
 11 12  2  0  0  0
 11 13  1  0  0  0
 10  1  1  0  0  0
  1  2  2  0  0  0
  1  6  1  0  0  0
  2  3  1  0  0  0
  3  4  2  0  0  0
  4  7  1  0  0  0
  4  5  1  0  0  0
  7  8  2  0  0  0
  7  9  1  0  0  0
  5  6  2  0  0  0
 13 14  1  0  0  0
M  CHG 1   7   1
M  CHG 1   9  -1
M  END
> <minimizedAffinity>
-5.34756

$$$$
1AJN_AAN_B_559


 14 14  0  0  0  0  0  0  0  0999 V2000
   14.8203   37.1376   37.2484 C   0  0  0  0  0  0  0  0  0  0  0  0
   16.1939   37.0498   37.3471 C   0  0  0  0  0  0  0  0  0  0  0  0
   16.8779   38.2543   37.3442 C   0  0  0  0  0  0  0  0  0  0  0  0
   16.2303   39.4363   37.1141 C   0  0  0  0  0  0  0  0  0  0  0  0
   14.8582   39.5602   36.9214 C   0  0  0  0  0  0  0  0  0  0  0  0
   14.1807   38.3469   37.0226 C   0  0  0  0  0  0  0  0  0  0  0  0
   16.8102   40.3507   37.0084 N   0  0  0  0  0  0  0  0  0  0  0  0
   15.9262   41.4464   36.8274 O   0  0  0  0  0  0  0  0  0  0  0  0
   18.2261   40.3163   37.0277 O   0  0  0  0  0  0  0  0  0  0  0  0
   13.9889   35.8838   37.3868 C   0  0  0  0  0  0  0  0  0  0  0  0
   13.4655   35.6876   38.8231 C   0  0  0  0  0  0  0  0  0  0  0  0
   14.2236   35.7995   39.7851 O   0  0  0  0  0  0  0  0  0  0  0  0
   12.3101   35.3926   39.1493 O   0  0  0  0  0  0  0  0  0  0  0  0
   11.6512   35.2829   38.4921 H   0  0  0  0  0  0  0  0  0  0  0  0
 11 10  1  0  0  0
 11 12  2  0  0  0
 11 13  1  0  0  0
 10  1  1  0  0  0
  1  2  2  0  0  0
  1  6  1  0  0  0
  2  3  1  0  0  0
  3  4  2  0  0  0
  4  7  1  0  0  0
  4  5  1  0  0  0
  7  8  2  0  0  0
  7  9  1  0  0  0
  5  6  2  0  0  0
 13 14  1  0  0  0
M  CHG 1   7   1
M  CHG 1   9  -1
M  END
> <minimizedAffinity>
-5.10763

$$$$
1AJN_AAN_B_559


 14 14  0  0  0  0  0  0  0  0999 V2000
   14.5515   36.2308   36.6329 C   0  0  0  0  0  0  0  0  0  0  0  0
   14.1732   37.4806   36.1863 C   0  0  0  0  0  0  0  0  0  0  0  0
   13.1261   37.5067   35.2800 C   0  0  0  0  0  0  0  0  0  0  0  0
   12.6070   36.3520   34.7634 C   0  0  0  0  0  0  0  0  0  0  0  0
   13.0195   35.0722   35.1202 C   0  0  0  0  0  0  0  0  0  0  0  0
   14.0080   35.0709   36.1021 C   0  0  0  0  0  0  0  0  0  0  0  0
   11.8619   36.4087   33.9728 N   0  0  0  0  0  0  0  0  0  0  0  0
   10.6514   35.8241   34.4286 O   0  0  0  0  0  0  0  0  0  0  0  0
   12.1848   36.9693   32.7127 O   0  0  0  0  0  0  0  0  0  0  0  0
   15.5873   36.1205   37.7270 C   0  0  0  0  0  0  0  0  0  0  0  0
   17.0160   35.9858   37.1651 C   0  0  0  0  0  0  0  0  0  0  0  0
   17.7912   35.1481   37.6232 O   0  0  0  0  0  0  0  0  0  0  0  0
   17.5197   36.6720   36.2683 O   0  0  0  0  0  0  0  0  0  0  0  0
   17.0140   37.3411   35.8504 H   0  0  0  0  0  0  0  0  0  0  0  0
 11 10  1  0  0  0
 11 12  2  0  0  0
 11 13  1  0  0  0
 10  1  1  0  0  0
  1  2  2  0  0  0
  1  6  1  0  0  0
  2  3  1  0  0  0
  3  4  2  0  0  0
  4  7  1  0  0  0
  4  5  1  0  0  0
  7  8  2  0  0  0
  7  9  1  0  0  0
  5  6  2  0  0  0
 13 14  1  0  0  0
M  CHG 1   7   1
M  CHG 1   9  -1
M  END
> <minimizedAffinity>
-5.00140

$$$$
