1GYY_FHC_A_500


 14 14  0  0  0  0  0  0  0  0999 V2000
   12.2775    2.2273   -4.1540 C   0  0  0  0  0  0  0  0  0  0  0  0
   13.3277    3.0264   -4.6278 C   0  0  0  0  0  0  0  0  0  0  0  0
   14.5709    3.0261   -4.0345 C   0  0  0  0  0  0  0  0  0  0  0  0
   14.7917    2.2165   -2.9219 C   0  0  0  0  0  0  0  0  0  0  0  0
   16.0276    2.1824   -2.3319 O   0  0  0  0  0  0  0  0  0  0  0  0
   13.7583    1.4353   -2.4477 C   0  0  0  0  0  0  0  0  0  0  0  0
   12.5064    1.4301   -3.0272 C   0  0  0  0  0  0  0  0  0  0  0  0
   16.7205    2.7184   -2.6644 H   0  0  0  0  0  0  0  0  0  0  0  0
   10.9569    2.2453   -4.7786 C   0  0  0  0  0  0  0  0  0  0  0  0
   10.6083    2.5163   -6.0395 C   0  0  0  0  0  0  0  0  0  0  0  0
    9.2937    2.4975   -6.3878 F   0  0  0  0  0  0  0  0  0  0  0  0
   11.5220    2.8672   -7.1216 C   0  0  0  0  0  0  0  0  0  0  0  0
   12.1010    2.0429   -7.7929 O   0  0  0  0  0  0  0  0  0  0  0  0
   11.6594    4.1815   -7.3614 O   0  0  0  0  0  0  0  0  0  0  0  0
  1  9  1  0  0  0
  1  2  1  0  0  0
  1  7  2  0  0  0
  9 10  2  0  0  0
 10 12  1  0  0  0
 10 11  1  0  0  0
 12 13  2  0  0  0
 12 14  1  0  0  0
  2  3  2  0  0  0
  3  4  1  0  0  0
  4  5  1  0  0  0
  4  6  2  0  0  0
  6  7  1  0  0  0
  5  8  1  0  0  0
M  CHG 1  14  -1
M  END
> <minimizedAffinity>
-6.65693

$$$$
1GYY_FHC_A_500


 14 14  0  0  0  0  0  0  0  0999 V2000
   11.8070    2.8790   -4.8448 C   0  0  0  0  0  0  0  0  0  0  0  0
   11.5925    2.0517   -3.7333 C   0  0  0  0  0  0  0  0  0  0  0  0
   12.6297    1.6024   -2.9459 C   0  0  0  0  0  0  0  0  0  0  0  0
   13.9347    1.9702   -3.2680 C   0  0  0  0  0  0  0  0  0  0  0  0
   14.9785    1.5549   -2.4839 O   0  0  0  0  0  0  0  0  0  0  0  0
   14.1505    2.7771   -4.3659 C   0  0  0  0  0  0  0  0  0  0  0  0
   13.1227    3.2293   -5.1673 C   0  0  0  0  0  0  0  0  0  0  0  0
   14.8175    1.0069   -1.7412 H   0  0  0  0  0  0  0  0  0  0  0  0
   10.7033    3.3382   -5.6847 C   0  0  0  0  0  0  0  0  0  0  0  0
   10.0976    2.7339   -6.7107 C   0  0  0  0  0  0  0  0  0  0  0  0
    9.0962    3.3776   -7.3685 F   0  0  0  0  0  0  0  0  0  0  0  0
   10.4240    1.4128   -7.2374 C   0  0  0  0  0  0  0  0  0  0  0  0
   11.2667    1.2281   -8.0865 O   0  0  0  0  0  0  0  0  0  0  0  0
    9.7504    0.3877   -6.6902 O   0  0  0  0  0  0  0  0  0  0  0  0
  1  9  1  0  0  0
  1  2  1  0  0  0
  1  7  2  0  0  0
  9 10  2  0  0  0
 10 12  1  0  0  0
 10 11  1  0  0  0
 12 13  2  0  0  0
 12 14  1  0  0  0
  2  3  2  0  0  0
  3  4  1  0  0  0
  4  5  1  0  0  0
  4  6  2  0  0  0
  6  7  1  0  0  0
  5  8  1  0  0  0
M  CHG 1  14  -1
M  END
> <minimizedAffinity>
-6.61244

$$$$
1GYY_FHC_A_500


 14 14  0  0  0  0  0  0  0  0999 V2000
   14.3088    2.9500   -5.0799 C   0  0  0  0  0  0  0  0  0  0  0  0
   14.1093    2.2971   -3.8553 C   0  0  0  0  0  0  0  0  0  0  0  0
   12.8496    2.0174   -3.3732 C   0  0  0  0  0  0  0  0  0  0  0  0
   11.7368    2.4042   -4.1176 C   0  0  0  0  0  0  0  0  0  0  0  0
   10.4755    2.1139   -3.6685 O   0  0  0  0  0  0  0  0  0  0  0  0
   11.9290    3.0544   -5.3190 C   0  0  0  0  0  0  0  0  0  0  0  0
   13.1840    3.3470   -5.8113 C   0  0  0  0  0  0  0  0  0  0  0  0
   10.3596    1.6718   -2.8505 H   0  0  0  0  0  0  0  0  0  0  0  0
   15.6478    3.2576   -5.5770 C   0  0  0  0  0  0  0  0  0  0  0  0
   16.4229    4.3219   -5.3505 C   0  0  0  0  0  0  0  0  0  0  0  0
   17.6392    4.4028   -5.9536 F   0  0  0  0  0  0  0  0  0  0  0  0
   16.0809    5.4641   -4.5093 C   0  0  0  0  0  0  0  0  0  0  0  0
   15.7819    6.5490   -4.9554 O   0  0  0  0  0  0  0  0  0  0  0  0
   16.0799    5.2306   -3.1867 O   0  0  0  0  0  0  0  0  0  0  0  0
  1  9  1  0  0  0
  1  2  1  0  0  0
  1  7  2  0  0  0
  9 10  2  0  0  0
 10 12  1  0  0  0
 10 11  1  0  0  0
 12 13  2  0  0  0
 12 14  1  0  0  0
  2  3  2  0  0  0
  3  4  1  0  0  0
  4  5  1  0  0  0
  4  6  2  0  0  0
  6  7  1  0  0  0
  5  8  1  0  0  0
M  CHG 1  14  -1
M  END
> <minimizedAffinity>
-6.56409

$$$$
1GYY_FHC_A_500


 14 14  0  0  0  0  0  0  0  0999 V2000
   14.8049    3.1580   -4.1880 C   0  0  0  0  0  0  0  0  0  0  0  0
   14.2584    3.2166   -5.4779 C   0  0  0  0  0  0  0  0  0  0  0  0
   14.5055    4.2713   -6.3288 C   0  0  0  0  0  0  0  0  0  0  0  0
   15.3137    5.3197   -5.8932 C   0  0  0  0  0  0  0  0  0  0  0  0
   15.5923    6.3663   -6.7321 O   0  0  0  0  0  0  0  0  0  0  0  0
   15.8463    5.2697   -4.6216 C   0  0  0  0  0  0  0  0  0  0  0  0
   15.6025    4.2234   -3.7562 C   0  0  0  0  0  0  0  0  0  0  0  0
   15.2237    6.3874   -7.5933 H   0  0  0  0  0  0  0  0  0  0  0  0
   14.5252    2.0438   -3.2854 C   0  0  0  0  0  0  0  0  0  0  0  0
   13.3561    1.5657   -2.8500 C   0  0  0  0  0  0  0  0  0  0  0  0
   13.3444    0.5215   -1.9786 F   0  0  0  0  0  0  0  0  0  0  0  0
   12.0375    2.0794   -3.2057 C   0  0  0  0  0  0  0  0  0  0  0  0
   11.5814    3.1043   -2.7510 O   0  0  0  0  0  0  0  0  0  0  0  0
   11.3591    1.3573   -4.1124 O   0  0  0  0  0  0  0  0  0  0  0  0
  1  9  1  0  0  0
  1  2  1  0  0  0
  1  7  2  0  0  0
  9 10  2  0  0  0
 10 12  1  0  0  0
 10 11  1  0  0  0
 12 13  2  0  0  0
 12 14  1  0  0  0
  2  3  2  0  0  0
  3  4  1  0  0  0
  4  5  1  0  0  0
  4  6  2  0  0  0
  6  7  1  0  0  0
  5  8  1  0  0  0
M  CHG 1  14  -1
M  END
> <minimizedAffinity>
-6.28645

$$$$
1GYY_FHC_A_500


 14 14  0  0  0  0  0  0  0  0999 V2000
   12.9285    2.2401   -4.0814 C   0  0  0  0  0  0  0  0  0  0  0  0
   13.2250    2.7461   -5.3549 C   0  0  0  0  0  0  0  0  0  0  0  0
   12.2466    2.9683   -6.2987 C   0  0  0  0  0  0  0  0  0  0  0  0
   10.9216    2.6712   -5.9855 C   0  0  0  0  0  0  0  0  0  0  0  0
    9.9299    2.9079   -6.9006 O   0  0  0  0  0  0  0  0  0  0  0  0
   10.6270    2.1651   -4.7364 C   0  0  0  0  0  0  0  0  0  0  0  0
   11.5967    1.9312   -3.7835 C   0  0  0  0  0  0  0  0  0  0  0  0
   10.1444    3.2518   -7.7454 H   0  0  0  0  0  0  0  0  0  0  0  0
   13.9738    1.9917   -3.0913 C   0  0  0  0  0  0  0  0  0  0  0  0
   15.1589    2.5864   -2.9279 C   0  0  0  0  0  0  0  0  0  0  0  0
   15.9891    2.1606   -1.9384 F   0  0  0  0  0  0  0  0  0  0  0  0
   15.6893    3.6726   -3.7452 C   0  0  0  0  0  0  0  0  0  0  0  0
   15.3303    4.8230   -3.6314 O   0  0  0  0  0  0  0  0  0  0  0  0
   16.6444    3.3247   -4.6231 O   0  0  0  0  0  0  0  0  0  0  0  0
  1  9  1  0  0  0
  1  2  1  0  0  0
  1  7  2  0  0  0
  9 10  2  0  0  0
 10 12  1  0  0  0
 10 11  1  0  0  0
 12 13  2  0  0  0
 12 14  1  0  0  0
  2  3  2  0  0  0
  3  4  1  0  0  0
  4  5  1  0  0  0
  4  6  2  0  0  0
  6  7  1  0  0  0
  5  8  1  0  0  0
M  CHG 1  14  -1
M  END
> <minimizedAffinity>
-6.28143

$$$$
1GYY_FHC_A_500


 14 14  0  0  0  0  0  0  0  0999 V2000
   12.1946    2.5850   -4.7521 C   0  0  0  0  0  0  0  0  0  0  0  0
   11.0287    3.3604   -4.8234 C   0  0  0  0  0  0  0  0  0  0  0  0
   10.7489    4.1610   -5.9089 C   0  0  0  0  0  0  0  0  0  0  0  0
   11.6561    4.2131   -6.9655 C   0  0  0  0  0  0  0  0  0  0  0  0
   11.3856    4.9834   -8.0656 O   0  0  0  0  0  0  0  0  0  0  0  0
   12.8086    3.4581   -6.8952 C   0  0  0  0  0  0  0  0  0  0  0  0
   13.1053    2.6570   -5.8119 C   0  0  0  0  0  0  0  0  0  0  0  0
   10.5990    5.4913   -8.0999 H   0  0  0  0  0  0  0  0  0  0  0  0
   12.4923    1.7509   -3.5902 C   0  0  0  0  0  0  0  0  0  0  0  0
   13.6053    1.6691   -2.8558 C   0  0  0  0  0  0  0  0  0  0  0  0
   13.6605    0.7863   -1.8227 F   0  0  0  0  0  0  0  0  0  0  0  0
   14.8260    2.4404   -3.0663 C   0  0  0  0  0  0  0  0  0  0  0  0
   15.9203    1.9331   -3.1692 O   0  0  0  0  0  0  0  0  0  0  0  0
   14.6607    3.7684   -3.1793 O   0  0  0  0  0  0  0  0  0  0  0  0
  1  9  1  0  0  0
  1  2  1  0  0  0
  1  7  2  0  0  0
  9 10  2  0  0  0
 10 12  1  0  0  0
 10 11  1  0  0  0
 12 13  2  0  0  0
 12 14  1  0  0  0
  2  3  2  0  0  0
  3  4  1  0  0  0
  4  5  1  0  0  0
  4  6  2  0  0  0
  6  7  1  0  0  0
  5  8  1  0  0  0
M  CHG 1  14  -1
M  END
> <minimizedAffinity>
-6.09444

$$$$
1GYY_FHC_A_500


 14 14  0  0  0  0  0  0  0  0999 V2000
   11.8311    2.2425   -4.8110 C   0  0  0  0  0  0  0  0  0  0  0  0
   11.8401    1.6147   -3.5574 C   0  0  0  0  0  0  0  0  0  0  0  0
   12.9751    1.5534   -2.7791 C   0  0  0  0  0  0  0  0  0  0  0  0
   14.1554    2.1218   -3.2545 C   0  0  0  0  0  0  0  0  0  0  0  0
   15.2891    2.0938   -2.4860 O   0  0  0  0  0  0  0  0  0  0  0  0
   14.1526    2.7330   -4.4912 C   0  0  0  0  0  0  0  0  0  0  0  0
   13.0257    2.7964   -5.2844 C   0  0  0  0  0  0  0  0  0  0  0  0
   15.2768    1.6751   -1.6478 H   0  0  0  0  0  0  0  0  0  0  0  0
   10.6275    2.2893   -5.6378 C   0  0  0  0  0  0  0  0  0  0  0  0
   10.2628    3.1718   -6.5722 C   0  0  0  0  0  0  0  0  0  0  0  0
    9.0655    3.0235   -7.1999 F   0  0  0  0  0  0  0  0  0  0  0  0
   11.0324    4.3383   -6.9921 C   0  0  0  0  0  0  0  0  0  0  0  0
   11.8506    4.3058   -7.8836 O   0  0  0  0  0  0  0  0  0  0  0  0
   10.7504    5.4820   -6.3470 O   0  0  0  0  0  0  0  0  0  0  0  0
  1  9  1  0  0  0
  1  2  1  0  0  0
  1  7  2  0  0  0
  9 10  2  0  0  0
 10 12  1  0  0  0
 10 11  1  0  0  0
 12 13  2  0  0  0
 12 14  1  0  0  0
  2  3  2  0  0  0
  3  4  1  0  0  0
  4  5  1  0  0  0
  4  6  2  0  0  0
  6  7  1  0  0  0
  5  8  1  0  0  0
M  CHG 1  14  -1
M  END
> <minimizedAffinity>
-6.08416

$$$$
1GYY_FHC_A_500


 14 14  0  0  0  0  0  0  0  0999 V2000
   15.2335    3.2562   -5.2878 C   0  0  0  0  0  0  0  0  0  0  0  0
   13.8534    3.0122   -5.3263 C   0  0  0  0  0  0  0  0  0  0  0  0
   13.1898    2.4032   -4.2840 C   0  0  0  0  0  0  0  0  0  0  0  0
   13.9114    2.0056   -3.1601 C   0  0  0  0  0  0  0  0  0  0  0  0
   13.2671    1.4207   -2.1019 O   0  0  0  0  0  0  0  0  0  0  0  0
   15.2709    2.2363   -3.1221 C   0  0  0  0  0  0  0  0  0  0  0  0
   15.9500    2.8390   -4.1607 C   0  0  0  0  0  0  0  0  0  0  0  0
   12.3431    1.2699   -2.1413 H   0  0  0  0  0  0  0  0  0  0  0  0
   15.9331    3.8880   -6.4040 C   0  0  0  0  0  0  0  0  0  0  0  0
   15.9895    5.1735   -6.7634 C   0  0  0  0  0  0  0  0  0  0  0  0
   16.6922    5.5266   -7.8730 F   0  0  0  0  0  0  0  0  0  0  0  0
   15.3324    6.2816   -6.0781 C   0  0  0  0  0  0  0  0  0  0  0  0
   15.7433    6.7575   -5.0438 O   0  0  0  0  0  0  0  0  0  0  0  0
   14.2454    6.7791   -6.6902 O   0  0  0  0  0  0  0  0  0  0  0  0
  1  9  1  0  0  0
  1  2  1  0  0  0
  1  7  2  0  0  0
  9 10  2  0  0  0
 10 12  1  0  0  0
 10 11  1  0  0  0
 12 13  2  0  0  0
 12 14  1  0  0  0
  2  3  2  0  0  0
  3  4  1  0  0  0
  4  5  1  0  0  0
  4  6  2  0  0  0
  6  7  1  0  0  0
  5  8  1  0  0  0
M  CHG 1  14  -1
M  END
> <minimizedAffinity>
-6.04492

$$$$
1GYY_FHC_A_500


 14 14  0  0  0  0  0  0  0  0999 V2000
   12.4063    2.0340   -4.1368 C   0  0  0  0  0  0  0  0  0  0  0  0
   13.0366    1.6602   -2.9415 C   0  0  0  0  0  0  0  0  0  0  0  0
   14.3662    1.9290   -2.7015 C   0  0  0  0  0  0  0  0  0  0  0  0
   15.1137    2.5822   -3.6795 C   0  0  0  0  0  0  0  0  0  0  0  0
   16.4310    2.8813   -3.4513 O   0  0  0  0  0  0  0  0  0  0  0  0
   14.4992    2.9441   -4.8604 C   0  0  0  0  0  0  0  0  0  0  0  0
   13.1706    2.6758   -5.1175 C   0  0  0  0  0  0  0  0  0  0  0  0
   16.8357    2.6295   -2.6446 H   0  0  0  0  0  0  0  0  0  0  0  0
   10.9999    1.7310   -4.3907 C   0  0  0  0  0  0  0  0  0  0  0  0
   10.2966    1.8107   -5.5238 C   0  0  0  0  0  0  0  0  0  0  0  0
    8.9729    1.4983   -5.5117 F   0  0  0  0  0  0  0  0  0  0  0  0
   10.8120    2.2363   -6.8208 C   0  0  0  0  0  0  0  0  0  0  0  0
   11.2051    1.4616   -7.6638 O   0  0  0  0  0  0  0  0  0  0  0  0
   10.7909    3.5600   -7.0472 O   0  0  0  0  0  0  0  0  0  0  0  0
  1  9  1  0  0  0
  1  2  1  0  0  0
  1  7  2  0  0  0
  9 10  2  0  0  0
 10 12  1  0  0  0
 10 11  1  0  0  0
 12 13  2  0  0  0
 12 14  1  0  0  0
  2  3  2  0  0  0
  3  4  1  0  0  0
  4  5  1  0  0  0
  4  6  2  0  0  0
  6  7  1  0  0  0
  5  8  1  0  0  0
M  CHG 1  14  -1
M  END
> <minimizedAffinity>
-5.94066

$$$$
1GYY_FHC_A_500


 14 14  0  0  0  0  0  0  0  0999 V2000
   15.3296    3.5666   -5.1468 C   0  0  0  0  0  0  0  0  0  0  0  0
   15.5821    4.8790   -4.7232 C   0  0  0  0  0  0  0  0  0  0  0  0
   16.7755    5.5149   -4.9865 C   0  0  0  0  0  0  0  0  0  0  0  0
   17.7688    4.8314   -5.6851 C   0  0  0  0  0  0  0  0  0  0  0  0
   18.9534    5.4535   -5.9792 O   0  0  0  0  0  0  0  0  0  0  0  0
   17.5272    3.5369   -6.0962 C   0  0  0  0  0  0  0  0  0  0  0  0
   16.3399    2.8851   -5.8341 C   0  0  0  0  0  0  0  0  0  0  0  0
   19.1041    6.3331   -5.6937 H   0  0  0  0  0  0  0  0  0  0  0  0
   14.0676    2.8932   -4.8496 C   0  0  0  0  0  0  0  0  0  0  0  0
   13.7233    2.1410   -3.8005 C   0  0  0  0  0  0  0  0  0  0  0  0
   12.4818    1.5877   -3.7540 F   0  0  0  0  0  0  0  0  0  0  0  0
   14.5792    1.8175   -2.6638 C   0  0  0  0  0  0  0  0  0  0  0  0
   15.7676    2.0471   -2.6433 O   0  0  0  0  0  0  0  0  0  0  0  0
   13.9566    1.2741   -1.6052 O   0  0  0  0  0  0  0  0  0  0  0  0
  1  9  1  0  0  0
  1  2  1  0  0  0
  1  7  2  0  0  0
  9 10  2  0  0  0
 10 12  1  0  0  0
 10 11  1  0  0  0
 12 13  2  0  0  0
 12 14  1  0  0  0
  2  3  2  0  0  0
  3  4  1  0  0  0
  4  5  1  0  0  0
  4  6  2  0  0  0
  6  7  1  0  0  0
  5  8  1  0  0  0
M  CHG 1  14  -1
M  END
> <minimizedAffinity>
-5.81519

$$$$
