1WVJ_IBC_A_1001


 21 22  0  0  0  0  0  0  0  0999 V2000
   13.7319    8.7132   22.0232 C   0  0  0  0  0  0  0  0  0  0  0  0
   14.1467    7.9122   20.8584 C   0  0  0  0  0  0  0  0  0  0  0  0
   13.0544    9.8952   21.9361 C   0  0  0  0  0  0  0  0  0  0  0  0
   12.6106   10.6689   20.6978 C   0  0  0  0  0  0  0  0  0  0  0  0
   11.8317    9.8421   19.6637 C   0  0  0  0  0  0  0  0  0  0  0  0
   12.6621    8.8256   18.8377 C   0  0  0  0  0  0  0  0  0  0  0  0
   13.6816    7.9947   19.5535 C   0  0  0  0  0  0  0  0  0  0  0  0
   14.2842    7.0983   18.7529 O   0  0  0  0  0  0  0  0  0  0  0  0
   15.2404    6.3531   19.5486 N   0  0  0  0  0  0  0  0  0  0  0  0
   15.1669    6.8253   20.8119 C   0  0  0  0  0  0  0  0  0  0  0  0
   15.8700    6.3916   21.7723 O   0  0  0  0  0  0  0  0  0  0  0  0
   15.7730    6.7608   22.6280 H   0  0  0  0  0  0  0  0  0  0  0  0
   13.9983    8.1738   23.4338 C   0  0  0  0  0  0  0  0  0  0  0  0
   13.0449    7.0171   23.8765 C   0  0  0  0  0  0  0  0  0  0  0  0
   11.5805    7.3238   23.5859 N   0  0  0  0  0  0  0  0  0  0  0  0
   11.2991    8.1578   24.1013 H   0  0  0  0  0  0  0  0  0  0  0  0
   11.0038    6.5341   23.8759 H   0  0  0  0  0  0  0  0  0  0  0  0
   12.4294    7.1703   26.2387 O   0  0  0  0  0  0  0  0  0  0  0  0
   13.2852    6.7528   25.4045 C   0  0  0  0  0  0  0  0  0  0  0  0
   14.3775    6.1404   25.7045 O   0  0  0  0  0  0  0  0  0  0  0  0
   11.6574    7.6083   25.9385 H   0  0  0  0  0  0  0  0  0  0  0  0
 18 19  1  0  0  0
 19 20  2  0  0  0
 19 14  1  0  0  0
 14 15  1  0  0  0
 14 13  1  0  0  0
 13  1  1  0  0  0
  1  2  1  0  0  0
  1  3  2  0  0  0
  2  7  2  0  0  0
  2 10  1  0  0  0
  3  4  1  0  0  0
  4  5  1  0  0  0
  5  6  1  0  0  0
  6  7  1  0  0  0
  7  8  1  0  0  0
  8  9  1  0  0  0
  9 10  2  0  0  0
 10 11  1  0  0  0
 18 21  1  0  0  0
 15 16  1  0  0  0
 15 17  1  0  0  0
 11 12  1  0  0  0
M  END
> <minimizedAffinity>
-10.00636

$$$$
1WVJ_IBC_A_1001


 21 22  0  0  0  0  0  0  0  0999 V2000
   14.0647    7.9733   21.6509 C   0  0  0  0  0  0  0  0  0  0  0  0
   13.3870    9.0665   20.9326 C   0  0  0  0  0  0  0  0  0  0  0  0
   14.7431    6.9601   21.0368 C   0  0  0  0  0  0  0  0  0  0  0  0
   14.9353    6.6853   19.5480 C   0  0  0  0  0  0  0  0  0  0  0  0
   15.4505    7.8801   18.7314 C   0  0  0  0  0  0  0  0  0  0  0  0
   14.4328    9.0225   18.4778 C   0  0  0  0  0  0  0  0  0  0  0  0
   13.5651    9.4648   19.6153 C   0  0  0  0  0  0  0  0  0  0  0  0
   12.7789   10.5091   19.3005 O   0  0  0  0  0  0  0  0  0  0  0  0
   11.9926   10.8511   20.4699 N   0  0  0  0  0  0  0  0  0  0  0  0
   12.3482    9.9998   21.4565 C   0  0  0  0  0  0  0  0  0  0  0  0
   11.8536   10.0206   22.6226 O   0  0  0  0  0  0  0  0  0  0  0  0
   12.1421    9.4024   23.2649 H   0  0  0  0  0  0  0  0  0  0  0  0
   14.0894    7.9893   23.1841 C   0  0  0  0  0  0  0  0  0  0  0  0
   13.1807    6.9111   23.8586 C   0  0  0  0  0  0  0  0  0  0  0  0
   11.6973    7.2391   23.7375 N   0  0  0  0  0  0  0  0  0  0  0  0
   11.5061    8.1261   24.2035 H   0  0  0  0  0  0  0  0  0  0  0  0
   11.1486    6.4994   24.1760 H   0  0  0  0  0  0  0  0  0  0  0  0
   14.8335    6.5297   25.6207 O   0  0  0  0  0  0  0  0  0  0  0  0
   13.6206    6.7807   25.3592 C   0  0  0  0  0  0  0  0  0  0  0  0
   12.6845    6.9139   26.2334 O   0  0  0  0  0  0  0  0  0  0  0  0
   15.4555    6.4476   24.9248 H   0  0  0  0  0  0  0  0  0  0  0  0
 18 19  1  0  0  0
 19 20  2  0  0  0
 19 14  1  0  0  0
 14 15  1  0  0  0
 14 13  1  0  0  0
 13  1  1  0  0  0
  1  2  1  0  0  0
  1  3  2  0  0  0
  2  7  2  0  0  0
  2 10  1  0  0  0
  3  4  1  0  0  0
  4  5  1  0  0  0
  5  6  1  0  0  0
  6  7  1  0  0  0
  7  8  1  0  0  0
  8  9  1  0  0  0
  9 10  2  0  0  0
 10 11  1  0  0  0
 18 21  1  0  0  0
 15 16  1  0  0  0
 15 17  1  0  0  0
 11 12  1  0  0  0
M  END
> <minimizedAffinity>
-9.84718

$$$$
1WVJ_IBC_A_1001


 21 22  0  0  0  0  0  0  0  0999 V2000
   14.1784    8.2292   21.3945 C   0  0  0  0  0  0  0  0  0  0  0  0
   13.2414    9.1928   20.7912 C   0  0  0  0  0  0  0  0  0  0  0  0
   14.9317    7.3443   20.6781 C   0  0  0  0  0  0  0  0  0  0  0  0
   14.9743    7.1052   19.1714 C   0  0  0  0  0  0  0  0  0  0  0  0
   15.1739    8.3693   18.3218 C   0  0  0  0  0  0  0  0  0  0  0  0
   13.9560    9.3244   18.2234 C   0  0  0  0  0  0  0  0  0  0  0  0
   13.1800    9.6149   19.4707 C   0  0  0  0  0  0  0  0  0  0  0  0
   12.1969   10.5121   19.2803 O   0  0  0  0  0  0  0  0  0  0  0  0
   11.5214   10.7175   20.5468 N   0  0  0  0  0  0  0  0  0  0  0  0
   12.1376    9.9384   21.4621 C   0  0  0  0  0  0  0  0  0  0  0  0
   11.8003    9.8761   22.6816 O   0  0  0  0  0  0  0  0  0  0  0  0
   12.2678    9.3154   23.2689 H   0  0  0  0  0  0  0  0  0  0  0  0
   14.3968    8.2496   22.9123 C   0  0  0  0  0  0  0  0  0  0  0  0
   14.2365    6.8598   23.6092 C   0  0  0  0  0  0  0  0  0  0  0  0
   14.3865    5.6973   22.6350 N   0  0  0  0  0  0  0  0  0  0  0  0
   13.6630    5.7585   21.9187 H   0  0  0  0  0  0  0  0  0  0  0  0
   14.2914    4.8162   23.1400 H   0  0  0  0  0  0  0  0  0  0  0  0
   11.8279    7.2761   23.6989 O   0  0  0  0  0  0  0  0  0  0  0  0
   12.8386    6.8366   24.3218 C   0  0  0  0  0  0  0  0  0  0  0  0
   12.8297    6.3870   25.5284 O   0  0  0  0  0  0  0  0  0  0  0  0
   11.9181    7.5866   22.8195 H   0  0  0  0  0  0  0  0  0  0  0  0
 18 19  1  0  0  0
 19 20  2  0  0  0
 19 14  1  0  0  0
 14 15  1  0  0  0
 14 13  1  0  0  0
 13  1  1  0  0  0
  1  2  1  0  0  0
  1  3  2  0  0  0
  2  7  2  0  0  0
  2 10  1  0  0  0
  3  4  1  0  0  0
  4  5  1  0  0  0
  5  6  1  0  0  0
  6  7  1  0  0  0
  7  8  1  0  0  0
  8  9  1  0  0  0
  9 10  2  0  0  0
 10 11  1  0  0  0
 18 21  1  0  0  0
 15 16  1  0  0  0
 15 17  1  0  0  0
 11 12  1  0  0  0
M  END
> <minimizedAffinity>
-9.23325

$$$$
1WVJ_IBC_A_1001


 21 22  0  0  0  0  0  0  0  0999 V2000
   14.2075    7.9487   20.6962 C   0  0  0  0  0  0  0  0  0  0  0  0
   13.3456    9.0655   21.1210 C   0  0  0  0  0  0  0  0  0  0  0  0
   14.7780    7.0538   21.5549 C   0  0  0  0  0  0  0  0  0  0  0  0
   14.7133    6.9962   23.0785 C   0  0  0  0  0  0  0  0  0  0  0  0
   13.2963    7.0605   23.6682 C   0  0  0  0  0  0  0  0  0  0  0  0
   12.5927    8.4411   23.6040 C   0  0  0  0  0  0  0  0  0  0  0  0
   12.6998    9.2334   22.3378 C   0  0  0  0  0  0  0  0  0  0  0  0
   11.9892   10.3743   22.3708 O   0  0  0  0  0  0  0  0  0  0  0  0
   12.1626   11.0512   21.1002 N   0  0  0  0  0  0  0  0  0  0  0  0
   12.9680   10.2785   20.3396 C   0  0  0  0  0  0  0  0  0  0  0  0
   13.3250   10.5730   19.1603 O   0  0  0  0  0  0  0  0  0  0  0  0
   13.8864    9.9946   18.6825 H   0  0  0  0  0  0  0  0  0  0  0  0
   14.4345    7.7080   19.1988 C   0  0  0  0  0  0  0  0  0  0  0  0
   15.8457    8.1351   18.6801 C   0  0  0  0  0  0  0  0  0  0  0  0
   15.7687    9.1590   17.5539 N   0  0  0  0  0  0  0  0  0  0  0  0
   15.2677    8.7563   16.7619 H   0  0  0  0  0  0  0  0  0  0  0  0
   16.7120    9.4170   17.2638 H   0  0  0  0  0  0  0  0  0  0  0  0
   17.6464    6.9569   17.5174 O   0  0  0  0  0  0  0  0  0  0  0  0
   16.6054    6.8386   18.2280 C   0  0  0  0  0  0  0  0  0  0  0  0
   16.0829    5.7219   18.5998 O   0  0  0  0  0  0  0  0  0  0  0  0
   17.9636    7.8085   17.2892 H   0  0  0  0  0  0  0  0  0  0  0  0
 18 19  1  0  0  0
 19 20  2  0  0  0
 19 14  1  0  0  0
 14 15  1  0  0  0
 14 13  1  0  0  0
 13  1  1  0  0  0
  1  2  1  0  0  0
  1  3  2  0  0  0
  2  7  2  0  0  0
  2 10  1  0  0  0
  3  4  1  0  0  0
  4  5  1  0  0  0
  5  6  1  0  0  0
  6  7  1  0  0  0
  7  8  1  0  0  0
  8  9  1  0  0  0
  9 10  2  0  0  0
 10 11  1  0  0  0
 18 21  1  0  0  0
 15 16  1  0  0  0
 15 17  1  0  0  0
 11 12  1  0  0  0
M  END
> <minimizedAffinity>
-8.13273

$$$$
1WVJ_IBC_A_1001


 21 22  0  0  0  0  0  0  0  0999 V2000
   14.2494    8.1511   19.6737 C   0  0  0  0  0  0  0  0  0  0  0  0
   14.7135    7.3467   20.8174 C   0  0  0  0  0  0  0  0  0  0  0  0
   14.9993    8.4014   18.5607 C   0  0  0  0  0  0  0  0  0  0  0  0
   16.4305    7.9789   18.2412 C   0  0  0  0  0  0  0  0  0  0  0  0
   16.7175    6.4806   18.4206 C   0  0  0  0  0  0  0  0  0  0  0  0
   16.8018    5.9725   19.8834 C   0  0  0  0  0  0  0  0  0  0  0  0
   15.7797    6.4596   20.8634 C   0  0  0  0  0  0  0  0  0  0  0  0
   15.9053    5.8951   22.0772 O   0  0  0  0  0  0  0  0  0  0  0  0
   14.8682    6.4342   22.9355 N   0  0  0  0  0  0  0  0  0  0  0  0
   14.1438    7.3009   22.1950 C   0  0  0  0  0  0  0  0  0  0  0  0
   13.1514    7.9528   22.6367 O   0  0  0  0  0  0  0  0  0  0  0  0
   12.6882    8.5403   22.0726 H   0  0  0  0  0  0  0  0  0  0  0  0
   12.8138    8.6904   19.6732 C   0  0  0  0  0  0  0  0  0  0  0  0
   12.6946   10.2169   19.9873 C   0  0  0  0  0  0  0  0  0  0  0  0
   13.9857   10.8001   20.5492 N   0  0  0  0  0  0  0  0  0  0  0  0
   14.2177   10.3313   21.4248 H   0  0  0  0  0  0  0  0  0  0  0  0
   13.8618   11.7980   20.7202 H   0  0  0  0  0  0  0  0  0  0  0  0
   11.7146   10.3418   22.2248 O   0  0  0  0  0  0  0  0  0  0  0  0
   11.4951   10.4122   20.9800 C   0  0  0  0  0  0  0  0  0  0  0  0
   10.3428   10.6059   20.4389 O   0  0  0  0  0  0  0  0  0  0  0  0
   12.5854   10.1982   22.5396 H   0  0  0  0  0  0  0  0  0  0  0  0
 18 19  1  0  0  0
 19 20  2  0  0  0
 19 14  1  0  0  0
 14 15  1  0  0  0
 14 13  1  0  0  0
 13  1  1  0  0  0
  1  2  1  0  0  0
  1  3  2  0  0  0
  2  7  2  0  0  0
  2 10  1  0  0  0
  3  4  1  0  0  0
  4  5  1  0  0  0
  5  6  1  0  0  0
  6  7  1  0  0  0
  7  8  1  0  0  0
  8  9  1  0  0  0
  9 10  2  0  0  0
 10 11  1  0  0  0
 18 21  1  0  0  0
 15 16  1  0  0  0
 15 17  1  0  0  0
 11 12  1  0  0  0
M  END
> <minimizedAffinity>
-8.04606

$$$$
1WVJ_IBC_A_1001


 21 22  0  0  0  0  0  0  0  0999 V2000
   14.3759    7.4659   19.8369 C   0  0  0  0  0  0  0  0  0  0  0  0
   14.0829    7.6249   21.2719 C   0  0  0  0  0  0  0  0  0  0  0  0
   13.9514    8.3307   18.8696 C   0  0  0  0  0  0  0  0  0  0  0  0
   13.0888    9.5828   18.9997 C   0  0  0  0  0  0  0  0  0  0  0  0
   13.5631   10.5870   20.0610 C   0  0  0  0  0  0  0  0  0  0  0  0
   13.3397   10.1740   21.5390 C   0  0  0  0  0  0  0  0  0  0  0  0
   13.6501    8.7639   21.9361 C   0  0  0  0  0  0  0  0  0  0  0  0
   13.4918    8.5423   23.2527 O   0  0  0  0  0  0  0  0  0  0  0  0
   13.8223    7.1560   23.5203 N   0  0  0  0  0  0  0  0  0  0  0  0
   14.1823    6.5946   22.3458 C   0  0  0  0  0  0  0  0  0  0  0  0
   14.5367    5.3851   22.2178 O   0  0  0  0  0  0  0  0  0  0  0  0
   14.7756    5.0536   21.3746 H   0  0  0  0  0  0  0  0  0  0  0  0
   15.2729    6.3085   19.3813 C   0  0  0  0  0  0  0  0  0  0  0  0
   16.7962    6.6534   19.3220 C   0  0  0  0  0  0  0  0  0  0  0  0
   17.3873    6.4501   17.9320 N   0  0  0  0  0  0  0  0  0  0  0  0
   17.2909    5.4714   17.6613 H   0  0  0  0  0  0  0  0  0  0  0  0
   18.3750    6.7045   17.9420 H   0  0  0  0  0  0  0  0  0  0  0  0
   17.1776    5.8660   21.6060 O   0  0  0  0  0  0  0  0  0  0  0  0
   17.5313    5.7743   20.3940 C   0  0  0  0  0  0  0  0  0  0  0  0
   18.4830    5.0276   19.9525 O   0  0  0  0  0  0  0  0  0  0  0  0
   16.4726    6.4345   21.8466 H   0  0  0  0  0  0  0  0  0  0  0  0
 18 19  1  0  0  0
 19 20  2  0  0  0
 19 14  1  0  0  0
 14 15  1  0  0  0
 14 13  1  0  0  0
 13  1  1  0  0  0
  1  2  1  0  0  0
  1  3  2  0  0  0
  2  7  2  0  0  0
  2 10  1  0  0  0
  3  4  1  0  0  0
  4  5  1  0  0  0
  5  6  1  0  0  0
  6  7  1  0  0  0
  7  8  1  0  0  0
  8  9  1  0  0  0
  9 10  2  0  0  0
 10 11  1  0  0  0
 18 21  1  0  0  0
 15 16  1  0  0  0
 15 17  1  0  0  0
 11 12  1  0  0  0
M  END
> <minimizedAffinity>
-7.87843

$$$$
1WVJ_IBC_A_1001


 21 22  0  0  0  0  0  0  0  0999 V2000
   13.6389    9.1099   21.5161 C   0  0  0  0  0  0  0  0  0  0  0  0
   13.6463    8.6873   20.1048 C   0  0  0  0  0  0  0  0  0  0  0  0
   12.8288   10.0878   22.0171 C   0  0  0  0  0  0  0  0  0  0  0  0
   11.8140   10.9698   21.2953 C   0  0  0  0  0  0  0  0  0  0  0  0
   10.8023   10.2108   20.4235 C   0  0  0  0  0  0  0  0  0  0  0  0
   11.3530    9.6136   19.1025 C   0  0  0  0  0  0  0  0  0  0  0  0
   12.6807    8.9218   19.1361 C   0  0  0  0  0  0  0  0  0  0  0  0
   13.0199    8.3789   17.9538 O   0  0  0  0  0  0  0  0  0  0  0  0
   14.3113    7.7370   18.1054 N   0  0  0  0  0  0  0  0  0  0  0  0
   14.6975    7.9089   19.3882 C   0  0  0  0  0  0  0  0  0  0  0  0
   15.7851    7.4685   19.8657 O   0  0  0  0  0  0  0  0  0  0  0  0
   15.9973    7.6204   20.7656 H   0  0  0  0  0  0  0  0  0  0  0  0
   14.5321    8.3726   22.5214 C   0  0  0  0  0  0  0  0  0  0  0  0
   13.9734    6.9914   22.9939 C   0  0  0  0  0  0  0  0  0  0  0  0
   14.0349    6.8235   24.5074 N   0  0  0  0  0  0  0  0  0  0  0  0
   15.0057    6.8755   24.8161 H   0  0  0  0  0  0  0  0  0  0  0  0
   13.6442    5.9172   24.7651 H   0  0  0  0  0  0  0  0  0  0  0  0
   16.0391    5.9832   22.1581 O   0  0  0  0  0  0  0  0  0  0  0  0
   14.7824    5.8669   22.2568 C   0  0  0  0  0  0  0  0  0  0  0  0
   14.0856    4.8995   21.7703 O   0  0  0  0  0  0  0  0  0  0  0  0
   16.4730    6.7199   22.5415 H   0  0  0  0  0  0  0  0  0  0  0  0
 18 19  1  0  0  0
 19 20  2  0  0  0
 19 14  1  0  0  0
 14 15  1  0  0  0
 14 13  1  0  0  0
 13  1  1  0  0  0
  1  2  1  0  0  0
  1  3  2  0  0  0
  2  7  2  0  0  0
  2 10  1  0  0  0
  3  4  1  0  0  0
  4  5  1  0  0  0
  5  6  1  0  0  0
  6  7  1  0  0  0
  7  8  1  0  0  0
  8  9  1  0  0  0
  9 10  2  0  0  0
 10 11  1  0  0  0
 18 21  1  0  0  0
 15 16  1  0  0  0
 15 17  1  0  0  0
 11 12  1  0  0  0
M  END
> <minimizedAffinity>
-7.78021

$$$$
1WVJ_IBC_A_1001


 21 22  0  0  0  0  0  0  0  0999 V2000
   13.8177    8.8931   21.5759 C   0  0  0  0  0  0  0  0  0  0  0  0
   14.6201    7.6735   21.3774 C   0  0  0  0  0  0  0  0  0  0  0  0
   12.9197    9.0607   22.5904 C   0  0  0  0  0  0  0  0  0  0  0  0
   12.5063    8.0861   23.6896 C   0  0  0  0  0  0  0  0  0  0  0  0
   13.6717    7.4601   24.4703 C   0  0  0  0  0  0  0  0  0  0  0  0
   14.5026    6.3907   23.7145 C   0  0  0  0  0  0  0  0  0  0  0  0
   14.8743    6.6585   22.2889 C   0  0  0  0  0  0  0  0  0  0  0  0
   15.6566    5.7006   21.7615 O   0  0  0  0  0  0  0  0  0  0  0  0
   15.9548    6.0652   20.3901 N   0  0  0  0  0  0  0  0  0  0  0  0
   15.3454    7.2457   20.1464 C   0  0  0  0  0  0  0  0  0  0  0  0
   15.4016    7.8565   19.0379 O   0  0  0  0  0  0  0  0  0  0  0  0
   14.9565    8.6739   18.9303 H   0  0  0  0  0  0  0  0  0  0  0  0
   14.0380   10.0919   20.6453 C   0  0  0  0  0  0  0  0  0  0  0  0
   12.7381   10.6346   19.9681 C   0  0  0  0  0  0  0  0  0  0  0  0
   11.7887   11.2874   20.9658 N   0  0  0  0  0  0  0  0  0  0  0  0
   11.4996   10.5988   21.6606 H   0  0  0  0  0  0  0  0  0  0  0  0
   10.9675   11.6392   20.4736 H   0  0  0  0  0  0  0  0  0  0  0  0
   12.7593    8.6953   18.4779 O   0  0  0  0  0  0  0  0  0  0  0  0
   12.0513    9.4401   19.2173 C   0  0  0  0  0  0  0  0  0  0  0  0
   10.7810    9.3217   19.3917 O   0  0  0  0  0  0  0  0  0  0  0  0
   13.6808    8.8480   18.4042 H   0  0  0  0  0  0  0  0  0  0  0  0
 18 19  1  0  0  0
 19 20  2  0  0  0
 19 14  1  0  0  0
 14 15  1  0  0  0
 14 13  1  0  0  0
 13  1  1  0  0  0
  1  2  1  0  0  0
  1  3  2  0  0  0
  2  7  2  0  0  0
  2 10  1  0  0  0
  3  4  1  0  0  0
  4  5  1  0  0  0
  5  6  1  0  0  0
  6  7  1  0  0  0
  7  8  1  0  0  0
  8  9  1  0  0  0
  9 10  2  0  0  0
 10 11  1  0  0  0
 18 21  1  0  0  0
 15 16  1  0  0  0
 15 17  1  0  0  0
 11 12  1  0  0  0
M  END
> <minimizedAffinity>
-7.11834

$$$$
