5CU4_54S_A_404


 38 40  0  0  0  0  0  0  0  0999 V2000
 -146.0167 -173.0882  360.7829 C   0  0  0  0  0  0  0  0  0  0  0  0
 -146.4230 -171.9711  360.4921 O   0  0  0  0  0  0  0  0  0  0  0  0
 -146.6898 -174.1972  360.4946 N   0  0  0  0  0  0  0  0  0  0  0  0
 -146.2405 -175.0645  360.6179 H   0  0  0  0  0  0  0  0  0  0  0  0
 -144.6973 -173.2830  361.4889 C   0  0  0  0  0  0  0  0  0  0  0  0
 -143.9555 -171.9781  361.6845 C   0  0  0  0  0  0  0  0  0  0  0  0
 -142.5328 -172.0964  361.3577 N   0  0  0  0  0  0  0  0  0  0  0  0
 -142.1212 -172.8221  361.9445 H   0  0  0  0  0  0  0  0  0  0  0  0
 -141.8044 -170.8466  361.5759 C   0  0  0  0  0  0  0  0  0  0  0  0
 -140.3731 -171.0589  362.0040 C   0  0  0  0  0  0  0  0  0  0  0  0
 -140.0529 -171.9232  363.0376 C   0  0  0  0  0  0  0  0  0  0  0  0
 -137.7007 -171.4348  362.7958 C   0  0  0  0  0  0  0  0  0  0  0  0
 -138.0355 -170.5667  361.7641 C   0  0  0  0  0  0  0  0  0  0  0  0
 -139.3438 -170.3810  361.3665 C   0  0  0  0  0  0  0  0  0  0  0  0
 -136.8002 -169.6710  360.9346 Cl  0  0  0  0  0  0  0  0  0  0  0  0
 -138.7420 -172.1108  363.4333 C   0  0  0  0  0  0  0  0  0  0  0  0
 -136.2996 -171.6922  363.2302 C   0  0  0  0  0  0  0  0  0  0  0  0
 -135.3695 -172.2539  362.3559 C   0  0  0  0  0  0  0  0  0  0  0  0
 -134.0739 -172.5064  362.7690 C   0  0  0  0  0  0  0  0  0  0  0  0
 -133.6819 -172.2078  364.0552 C   0  0  0  0  0  0  0  0  0  0  0  0
 -134.5851 -171.6485  364.9280 C   0  0  0  0  0  0  0  0  0  0  0  0
 -135.8823 -171.3900  364.5250 C   0  0  0  0  0  0  0  0  0  0  0  0
 -148.0616 -174.1892  360.0046 C   0  0  0  0  0  0  0  0  0  0  0  0
 -149.0476 -173.7750  361.0778 C   0  0  0  0  0  0  0  0  0  0  0  0
 -149.0691 -174.7313  362.2478 C   0  0  0  0  0  0  0  0  0  0  0  0
 -148.3258 -174.5929  363.2087 O   0  0  0  0  0  0  0  0  0  0  0  0
 -149.9422 -175.7532  362.1073 N   0  0  0  0  0  0  0  0  0  0  0  0
 -150.4355 -175.7789  361.2557 H   0  0  0  0  0  0  0  0  0  0  0  0
 -150.2423 -176.7930  363.0228 C   0  0  0  0  0  0  0  0  0  0  0  0
 -150.5090 -176.5805  364.3680 C   0  0  0  0  0  0  0  0  0  0  0  0
 -150.6039 -177.6591  365.2292 C   0  0  0  0  0  0  0  0  0  0  0  0
 -150.4307 -178.9479  364.7581 C   0  0  0  0  0  0  0  0  0  0  0  0
 -150.1069 -178.0895  362.5455 C   0  0  0  0  0  0  0  0  0  0  0  0
 -150.1779 -179.1738  363.4118 C   0  0  0  0  0  0  0  0  0  0  0  0
 -149.8285 -180.5307  362.9162 C   0  0  0  0  0  0  0  0  0  0  0  0
 -149.4858 -181.4131  363.6835 O   0  0  0  0  0  0  0  0  0  0  0  0
 -149.8554 -180.6745  361.6262 O   0  0  0  0  0  0  0  0  0  0  0  0
 -150.1276 -179.9626  361.0810 H   0  0  0  0  0  0  0  0  0  0  0  0
 15 13  1  0  0  0
 13 14  2  0  0  0
 13 12  1  0  0  0
 14 10  1  0  0  0
 21 22  2  0  0  0
 21 20  1  0  0  0
 22 17  1  0  0  0
 20 19  2  0  0  0
 19 18  1  0  0  0
 17 18  2  0  0  0
 17 12  1  0  0  0
 12 16  2  0  0  0
 10  9  1  0  0  0
 10 11  2  0  0  0
  9  7  1  0  0  0
 16 11  1  0  0  0
  7  6  1  0  0  0
  6  5  1  0  0  0
  2  1  2  0  0  0
  5  1  1  0  0  0
  1  3  1  0  0  0
  3 23  1  0  0  0
 23 24  1  0  0  0
 24 25  1  0  0  0
 25 27  1  0  0  0
 25 26  2  0  0  0
 27 29  1  0  0  0
 29 33  2  0  0  0
 29 30  1  0  0  0
 33 34  1  0  0  0
 36 35  2  0  0  0
 30 31  2  0  0  0
 34 35  1  0  0  0
 34 32  2  0  0  0
 35 37  1  0  0  0
 31 32  1  0  0  0
  7  8  1  0  0  0
  3  4  1  0  0  0
 27 28  1  0  0  0
 37 38  1  0  0  0
M  END
> <minimizedAffinity>
-11.46409

$$$$
5CU4_54S_A_404


 38 40  0  0  0  0  0  0  0  0999 V2000
 -146.6694 -172.8662  360.3472 C   0  0  0  0  0  0  0  0  0  0  0  0
 -146.3888 -174.0551  360.2732 O   0  0  0  0  0  0  0  0  0  0  0  0
 -147.9211 -172.4239  360.4078 N   0  0  0  0  0  0  0  0  0  0  0  0
 -148.0737 -171.4744  360.6185 H   0  0  0  0  0  0  0  0  0  0  0  0
 -145.5941 -171.8083  360.3871 C   0  0  0  0  0  0  0  0  0  0  0  0
 -144.3740 -172.2622  361.1596 C   0  0  0  0  0  0  0  0  0  0  0  0
 -143.5616 -171.1348  361.6223 N   0  0  0  0  0  0  0  0  0  0  0  0
 -143.5043 -170.4436  360.8743 H   0  0  0  0  0  0  0  0  0  0  0  0
 -142.2054 -171.5394  361.9928 C   0  0  0  0  0  0  0  0  0  0  0  0
 -141.1528 -171.0428  361.0324 C   0  0  0  0  0  0  0  0  0  0  0  0
 -141.3006 -171.1933  359.6637 C   0  0  0  0  0  0  0  0  0  0  0  0
 -139.1762 -170.1205  359.2570 C   0  0  0  0  0  0  0  0  0  0  0  0
 -139.0375 -169.9802  360.6322 C   0  0  0  0  0  0  0  0  0  0  0  0
 -140.0053 -170.4255  361.5092 C   0  0  0  0  0  0  0  0  0  0  0  0
 -137.6182 -169.2345  361.3000 Cl  0  0  0  0  0  0  0  0  0  0  0  0
 -140.3321 -170.7445  358.7857 C   0  0  0  0  0  0  0  0  0  0  0  0
 -138.1738 -169.6204  358.2754 C   0  0  0  0  0  0  0  0  0  0  0  0
 -137.0971 -170.4148  357.8822 C   0  0  0  0  0  0  0  0  0  0  0  0
 -136.1597 -169.9398  356.9830 C   0  0  0  0  0  0  0  0  0  0  0  0
 -136.2747 -168.6701  356.4619 C   0  0  0  0  0  0  0  0  0  0  0  0
 -137.3334 -167.8761  356.8349 C   0  0  0  0  0  0  0  0  0  0  0  0
 -138.2775 -168.3416  357.7318 C   0  0  0  0  0  0  0  0  0  0  0  0
 -149.0778 -173.2788  360.1772 C   0  0  0  0  0  0  0  0  0  0  0  0
 -149.9877 -173.3450  361.3868 C   0  0  0  0  0  0  0  0  0  0  0  0
 -149.6510 -174.4972  362.3050 C   0  0  0  0  0  0  0  0  0  0  0  0
 -148.6187 -174.5206  362.9599 O   0  0  0  0  0  0  0  0  0  0  0  0
 -150.5644 -175.4931  362.2959 N   0  0  0  0  0  0  0  0  0  0  0  0
 -151.3195 -175.3739  361.6756 H   0  0  0  0  0  0  0  0  0  0  0  0
 -150.5799 -176.6867  363.0605 C   0  0  0  0  0  0  0  0  0  0  0  0
 -150.5409 -176.7124  364.4475 C   0  0  0  0  0  0  0  0  0  0  0  0
 -150.3673 -177.9154  365.1085 C   0  0  0  0  0  0  0  0  0  0  0  0
 -150.2286 -179.0921  364.3951 C   0  0  0  0  0  0  0  0  0  0  0  0
 -150.4788 -177.8738  362.3481 C   0  0  0  0  0  0  0  0  0  0  0  0
 -150.2805 -179.0807  363.0078 C   0  0  0  0  0  0  0  0  0  0  0  0
 -149.9722 -180.3031  362.2207 C   0  0  0  0  0  0  0  0  0  0  0  0
 -150.0067 -180.2941  361.0028 O   0  0  0  0  0  0  0  0  0  0  0  0
 -149.7332 -181.3693  362.9221 O   0  0  0  0  0  0  0  0  0  0  0  0
 -149.7181 -181.3209  363.8577 H   0  0  0  0  0  0  0  0  0  0  0  0
 15 13  1  0  0  0
 13 14  2  0  0  0
 13 12  1  0  0  0
 14 10  1  0  0  0
 21 22  2  0  0  0
 21 20  1  0  0  0
 22 17  1  0  0  0
 20 19  2  0  0  0
 19 18  1  0  0  0
 17 18  2  0  0  0
 17 12  1  0  0  0
 12 16  2  0  0  0
 10  9  1  0  0  0
 10 11  2  0  0  0
  9  7  1  0  0  0
 16 11  1  0  0  0
  7  6  1  0  0  0
  6  5  1  0  0  0
  2  1  2  0  0  0
  5  1  1  0  0  0
  1  3  1  0  0  0
  3 23  1  0  0  0
 23 24  1  0  0  0
 24 25  1  0  0  0
 25 27  1  0  0  0
 25 26  2  0  0  0
 27 29  1  0  0  0
 29 33  2  0  0  0
 29 30  1  0  0  0
 33 34  1  0  0  0
 36 35  2  0  0  0
 30 31  2  0  0  0
 34 35  1  0  0  0
 34 32  2  0  0  0
 35 37  1  0  0  0
 31 32  1  0  0  0
  7  8  1  0  0  0
  3  4  1  0  0  0
 27 28  1  0  0  0
 37 38  1  0  0  0
M  END
> <minimizedAffinity>
-10.95544

$$$$
5CU4_54S_A_404


 38 40  0  0  0  0  0  0  0  0999 V2000
 -146.7671 -171.9127  360.5705 C   0  0  0  0  0  0  0  0  0  0  0  0
 -146.9254 -173.0961  360.8391 O   0  0  0  0  0  0  0  0  0  0  0  0
 -145.5683 -171.3711  360.3814 N   0  0  0  0  0  0  0  0  0  0  0  0
 -145.5181 -170.4564  360.0209 H   0  0  0  0  0  0  0  0  0  0  0  0
 -147.9429 -170.9786  360.4225 C   0  0  0  0  0  0  0  0  0  0  0  0
 -148.6665 -171.1745  359.1074 C   0  0  0  0  0  0  0  0  0  0  0  0
 -149.4982 -172.3801  359.1082 N   0  0  0  0  0  0  0  0  0  0  0  0
 -150.1304 -172.3424  358.3086 H   0  0  0  0  0  0  0  0  0  0  0  0
 -150.2928 -172.5089  360.3297 C   0  0  0  0  0  0  0  0  0  0  0  0
 -150.2380 -173.8912  360.9323 C   0  0  0  0  0  0  0  0  0  0  0  0
 -150.6214 -174.1192  362.2434 C   0  0  0  0  0  0  0  0  0  0  0  0
 -150.1198 -176.4725  362.0427 C   0  0  0  0  0  0  0  0  0  0  0  0
 -149.7331 -176.2297  360.7306 C   0  0  0  0  0  0  0  0  0  0  0  0
 -149.7932 -174.9670  360.1772 C   0  0  0  0  0  0  0  0  0  0  0  0
 -149.1481 -177.5258  359.7335 Cl  0  0  0  0  0  0  0  0  0  0  0  0
 -150.5636 -175.3848  362.7960 C   0  0  0  0  0  0  0  0  0  0  0  0
 -150.1061 -177.8252  362.6658 C   0  0  0  0  0  0  0  0  0  0  0  0
 -150.1714 -177.9774  364.0505 C   0  0  0  0  0  0  0  0  0  0  0  0
 -150.1416 -179.2351  364.6255 C   0  0  0  0  0  0  0  0  0  0  0  0
 -150.0446 -180.3598  363.8365 C   0  0  0  0  0  0  0  0  0  0  0  0
 -149.9850 -180.2274  362.4692 C   0  0  0  0  0  0  0  0  0  0  0  0
 -150.0160 -178.9750  361.8838 C   0  0  0  0  0  0  0  0  0  0  0  0
 -144.3252 -172.0681  360.6828 C   0  0  0  0  0  0  0  0  0  0  0  0
 -143.5257 -171.3665  361.7618 C   0  0  0  0  0  0  0  0  0  0  0  0
 -142.0369 -171.4158  361.5069 C   0  0  0  0  0  0  0  0  0  0  0  0
 -141.5637 -171.2004  360.4002 O   0  0  0  0  0  0  0  0  0  0  0  0
 -141.3041 -171.7555  362.5903 N   0  0  0  0  0  0  0  0  0  0  0  0
 -141.8171 -171.9628  363.4046 H   0  0  0  0  0  0  0  0  0  0  0  0
 -139.8950 -171.8530  362.7105 C   0  0  0  0  0  0  0  0  0  0  0  0
 -139.2533 -172.8070  363.4877 C   0  0  0  0  0  0  0  0  0  0  0  0
 -137.8896 -172.7158  363.7020 C   0  0  0  0  0  0  0  0  0  0  0  0
 -137.1624 -171.6771  363.1494 C   0  0  0  0  0  0  0  0  0  0  0  0
 -139.1567 -170.8333  362.1257 C   0  0  0  0  0  0  0  0  0  0  0  0
 -137.7909 -170.7249  362.3583 C   0  0  0  0  0  0  0  0  0  0  0  0
 -137.0625 -169.5163  361.8918 C   0  0  0  0  0  0  0  0  0  0  0  0
 -136.0267 -169.1596  362.4251 O   0  0  0  0  0  0  0  0  0  0  0  0
 -137.6410 -168.8537  360.9369 O   0  0  0  0  0  0  0  0  0  0  0  0
 -138.4377 -169.1730  360.5609 H   0  0  0  0  0  0  0  0  0  0  0  0
 15 13  1  0  0  0
 13 14  2  0  0  0
 13 12  1  0  0  0
 14 10  1  0  0  0
 21 22  2  0  0  0
 21 20  1  0  0  0
 22 17  1  0  0  0
 20 19  2  0  0  0
 19 18  1  0  0  0
 17 18  2  0  0  0
 17 12  1  0  0  0
 12 16  2  0  0  0
 10  9  1  0  0  0
 10 11  2  0  0  0
  9  7  1  0  0  0
 16 11  1  0  0  0
  7  6  1  0  0  0
  6  5  1  0  0  0
  2  1  2  0  0  0
  5  1  1  0  0  0
  1  3  1  0  0  0
  3 23  1  0  0  0
 23 24  1  0  0  0
 24 25  1  0  0  0
 25 27  1  0  0  0
 25 26  2  0  0  0
 27 29  1  0  0  0
 29 33  2  0  0  0
 29 30  1  0  0  0
 33 34  1  0  0  0
 36 35  2  0  0  0
 30 31  2  0  0  0
 34 35  1  0  0  0
 34 32  2  0  0  0
 35 37  1  0  0  0
 31 32  1  0  0  0
  7  8  1  0  0  0
  3  4  1  0  0  0
 27 28  1  0  0  0
 37 38  1  0  0  0
M  END
> <minimizedAffinity>
-10.89278

$$$$
5CU4_54S_A_404


 38 40  0  0  0  0  0  0  0  0999 V2000
 -146.6754 -171.8647  360.2927 C   0  0  0  0  0  0  0  0  0  0  0  0
 -146.7197 -172.8013  359.5063 O   0  0  0  0  0  0  0  0  0  0  0  0
 -145.6131 -171.6090  361.0492 N   0  0  0  0  0  0  0  0  0  0  0  0
 -145.5834 -170.7587  361.5447 H   0  0  0  0  0  0  0  0  0  0  0  0
 -147.8388 -170.9165  360.4485 C   0  0  0  0  0  0  0  0  0  0  0  0
 -148.8177 -171.0190  359.2984 C   0  0  0  0  0  0  0  0  0  0  0  0
 -149.6203 -172.2424  359.3628 N   0  0  0  0  0  0  0  0  0  0  0  0
 -150.3581 -172.1875  358.6607 H   0  0  0  0  0  0  0  0  0  0  0  0
 -150.2350 -172.4378  360.6759 C   0  0  0  0  0  0  0  0  0  0  0  0
 -150.1788 -173.8685  361.1523 C   0  0  0  0  0  0  0  0  0  0  0  0
 -150.5458 -174.2110  362.4430 C   0  0  0  0  0  0  0  0  0  0  0  0
 -150.0583 -176.5388  362.0268 C   0  0  0  0  0  0  0  0  0  0  0  0
 -149.6880 -176.1816  360.7364 C   0  0  0  0  0  0  0  0  0  0  0  0
 -149.7495 -174.8744  360.2984 C   0  0  0  0  0  0  0  0  0  0  0  0
 -149.1227 -177.3859  359.6200 Cl  0  0  0  0  0  0  0  0  0  0  0  0
 -150.4867 -175.5209  362.8800 C   0  0  0  0  0  0  0  0  0  0  0  0
 -150.0428 -177.9417  362.5269 C   0  0  0  0  0  0  0  0  0  0  0  0
 -149.9952 -179.0180  361.6414 C   0  0  0  0  0  0  0  0  0  0  0  0
 -149.9978 -180.3194  362.1100 C   0  0  0  0  0  0  0  0  0  0  0  0
 -150.0496 -180.5728  363.4629 C   0  0  0  0  0  0  0  0  0  0  0  0
 -150.0913 -179.5227  364.3495 C   0  0  0  0  0  0  0  0  0  0  0  0
 -150.0872 -178.2178  363.8920 C   0  0  0  0  0  0  0  0  0  0  0  0
 -144.4906 -172.5282  361.1795 C   0  0  0  0  0  0  0  0  0  0  0  0
 -143.3427 -172.1596  360.2618 C   0  0  0  0  0  0  0  0  0  0  0  0
 -142.3289 -171.2608  360.9313 C   0  0  0  0  0  0  0  0  0  0  0  0
 -142.6532 -170.4391  361.7768 O   0  0  0  0  0  0  0  0  0  0  0  0
 -141.0655 -171.4249  360.4807 N   0  0  0  0  0  0  0  0  0  0  0  0
 -140.9535 -172.0785  359.7531 H   0  0  0  0  0  0  0  0  0  0  0  0
 -139.8800 -170.7811  360.9162 C   0  0  0  0  0  0  0  0  0  0  0  0
 -139.1722 -169.8693  360.1458 C   0  0  0  0  0  0  0  0  0  0  0  0
 -137.9285 -169.4328  360.5661 C   0  0  0  0  0  0  0  0  0  0  0  0
 -137.3845 -169.9027  361.7476 C   0  0  0  0  0  0  0  0  0  0  0  0
 -139.3486 -171.2220  362.1204 C   0  0  0  0  0  0  0  0  0  0  0  0
 -138.0895 -170.8040  362.5339 C   0  0  0  0  0  0  0  0  0  0  0  0
 -137.4581 -171.4433  363.7179 C   0  0  0  0  0  0  0  0  0  0  0  0
 -136.7152 -170.8157  364.4519 O   0  0  0  0  0  0  0  0  0  0  0  0
 -137.7062 -172.7094  363.8633 O   0  0  0  0  0  0  0  0  0  0  0  0
 -138.2863 -173.1443  363.2698 H   0  0  0  0  0  0  0  0  0  0  0  0
 15 13  1  0  0  0
 13 14  2  0  0  0
 13 12  1  0  0  0
 14 10  1  0  0  0
 21 22  2  0  0  0
 21 20  1  0  0  0
 22 17  1  0  0  0
 20 19  2  0  0  0
 19 18  1  0  0  0
 17 18  2  0  0  0
 17 12  1  0  0  0
 12 16  2  0  0  0
 10  9  1  0  0  0
 10 11  2  0  0  0
  9  7  1  0  0  0
 16 11  1  0  0  0
  7  6  1  0  0  0
  6  5  1  0  0  0
  2  1  2  0  0  0
  5  1  1  0  0  0
  1  3  1  0  0  0
  3 23  1  0  0  0
 23 24  1  0  0  0
 24 25  1  0  0  0
 25 27  1  0  0  0
 25 26  2  0  0  0
 27 29  1  0  0  0
 29 33  2  0  0  0
 29 30  1  0  0  0
 33 34  1  0  0  0
 36 35  2  0  0  0
 30 31  2  0  0  0
 34 35  1  0  0  0
 34 32  2  0  0  0
 35 37  1  0  0  0
 31 32  1  0  0  0
  7  8  1  0  0  0
  3  4  1  0  0  0
 27 28  1  0  0  0
 37 38  1  0  0  0
M  END
> <minimizedAffinity>
-10.88302

$$$$
5CU4_54S_A_404


 38 40  0  0  0  0  0  0  0  0999 V2000
 -145.9344 -172.4148  360.7174 C   0  0  0  0  0  0  0  0  0  0  0  0
 -146.0981 -171.3117  360.2133 O   0  0  0  0  0  0  0  0  0  0  0  0
 -146.9331 -173.2661  360.9275 N   0  0  0  0  0  0  0  0  0  0  0  0
 -146.7153 -174.1887  361.1932 H   0  0  0  0  0  0  0  0  0  0  0  0
 -144.5636 -172.8927  361.1291 C   0  0  0  0  0  0  0  0  0  0  0  0
 -143.4808 -171.8955  360.7763 C   0  0  0  0  0  0  0  0  0  0  0  0
 -142.3067 -172.0246  361.6424 N   0  0  0  0  0  0  0  0  0  0  0  0
 -142.6213 -172.2044  362.5958 H   0  0  0  0  0  0  0  0  0  0  0  0
 -141.4771 -170.8197  361.6407 C   0  0  0  0  0  0  0  0  0  0  0  0
 -140.0642 -171.0694  362.1080 C   0  0  0  0  0  0  0  0  0  0  0  0
 -139.7870 -172.0056  363.0901 C   0  0  0  0  0  0  0  0  0  0  0  0
 -137.4258 -171.5147  362.9743 C   0  0  0  0  0  0  0  0  0  0  0  0
 -137.7176 -170.5749  361.9937 C   0  0  0  0  0  0  0  0  0  0  0  0
 -139.0089 -170.3545  361.5598 C   0  0  0  0  0  0  0  0  0  0  0  0
 -136.4483 -169.6304  361.2774 Cl  0  0  0  0  0  0  0  0  0  0  0  0
 -138.4931 -172.2277  363.5222 C   0  0  0  0  0  0  0  0  0  0  0  0
 -136.0434 -171.8097  363.4435 C   0  0  0  0  0  0  0  0  0  0  0  0
 -135.6533 -171.5221  364.7512 C   0  0  0  0  0  0  0  0  0  0  0  0
 -134.3636 -171.7825  365.1776 C   0  0  0  0  0  0  0  0  0  0  0  0
 -133.4412 -172.3299  364.3134 C   0  0  0  0  0  0  0  0  0  0  0  0
 -133.8112 -172.6246  363.0224 C   0  0  0  0  0  0  0  0  0  0  0  0
 -135.0985 -172.3701  362.5863 C   0  0  0  0  0  0  0  0  0  0  0  0
 -148.3349 -172.8975  360.7830 C   0  0  0  0  0  0  0  0  0  0  0  0
 -149.0628 -173.7971  359.8049 C   0  0  0  0  0  0  0  0  0  0  0  0
 -148.6942 -175.2534  359.9698 C   0  0  0  0  0  0  0  0  0  0  0  0
 -147.6197 -175.6948  359.5879 O   0  0  0  0  0  0  0  0  0  0  0  0
 -149.6661 -176.0070  360.5298 N   0  0  0  0  0  0  0  0  0  0  0  0
 -150.5064 -175.5366  360.7341 H   0  0  0  0  0  0  0  0  0  0  0  0
 -149.6367 -177.3848  360.8623 C   0  0  0  0  0  0  0  0  0  0  0  0
 -149.6285 -178.4036  359.9201 C   0  0  0  0  0  0  0  0  0  0  0  0
 -149.7918 -179.7164  360.3250 C   0  0  0  0  0  0  0  0  0  0  0  0
 -149.9669 -180.0191  361.6632 C   0  0  0  0  0  0  0  0  0  0  0  0
 -149.7744 -177.6947  362.2083 C   0  0  0  0  0  0  0  0  0  0  0  0
 -149.9624 -179.0098  362.6164 C   0  0  0  0  0  0  0  0  0  0  0  0
 -150.3100 -179.2940  364.0332 C   0  0  0  0  0  0  0  0  0  0  0  0
 -150.0561 -180.3724  364.5404 O   0  0  0  0  0  0  0  0  0  0  0  0
 -150.9484 -178.3459  364.6490 O   0  0  0  0  0  0  0  0  0  0  0  0
 -151.1178 -177.5346  364.2120 H   0  0  0  0  0  0  0  0  0  0  0  0
 15 13  1  0  0  0
 13 14  2  0  0  0
 13 12  1  0  0  0
 14 10  1  0  0  0
 21 22  2  0  0  0
 21 20  1  0  0  0
 22 17  1  0  0  0
 20 19  2  0  0  0
 19 18  1  0  0  0
 17 18  2  0  0  0
 17 12  1  0  0  0
 12 16  2  0  0  0
 10  9  1  0  0  0
 10 11  2  0  0  0
  9  7  1  0  0  0
 16 11  1  0  0  0
  7  6  1  0  0  0
  6  5  1  0  0  0
  2  1  2  0  0  0
  5  1  1  0  0  0
  1  3  1  0  0  0
  3 23  1  0  0  0
 23 24  1  0  0  0
 24 25  1  0  0  0
 25 27  1  0  0  0
 25 26  2  0  0  0
 27 29  1  0  0  0
 29 33  2  0  0  0
 29 30  1  0  0  0
 33 34  1  0  0  0
 36 35  2  0  0  0
 30 31  2  0  0  0
 34 35  1  0  0  0
 34 32  2  0  0  0
 35 37  1  0  0  0
 31 32  1  0  0  0
  7  8  1  0  0  0
  3  4  1  0  0  0
 27 28  1  0  0  0
 37 38  1  0  0  0
M  END
> <minimizedAffinity>
-10.59946

$$$$
5CU4_54S_A_404


 38 40  0  0  0  0  0  0  0  0999 V2000
 -149.4812 -171.9385  360.2229 C   0  0  0  0  0  0  0  0  0  0  0  0
 -149.5475 -172.2625  361.4012 O   0  0  0  0  0  0  0  0  0  0  0  0
 -149.9839 -172.6812  359.2422 N   0  0  0  0  0  0  0  0  0  0  0  0
 -150.0326 -172.2944  358.3382 H   0  0  0  0  0  0  0  0  0  0  0  0
 -148.8240 -170.6473  359.8011 C   0  0  0  0  0  0  0  0  0  0  0  0
 -147.6436 -170.8802  358.8825 C   0  0  0  0  0  0  0  0  0  0  0  0
 -146.4362 -170.1952  359.3494 N   0  0  0  0  0  0  0  0  0  0  0  0
 -145.6534 -170.4701  358.7560 H   0  0  0  0  0  0  0  0  0  0  0  0
 -146.1107 -170.5222  360.7377 C   0  0  0  0  0  0  0  0  0  0  0  0
 -144.6264 -170.5880  361.0013 C   0  0  0  0  0  0  0  0  0  0  0  0
 -144.0894 -170.1493  362.2001 C   0  0  0  0  0  0  0  0  0  0  0  0
 -141.8563 -170.7083  361.4721 C   0  0  0  0  0  0  0  0  0  0  0  0
 -142.4068 -171.1402  360.2719 C   0  0  0  0  0  0  0  0  0  0  0  0
 -143.7653 -171.0892  360.0356 C   0  0  0  0  0  0  0  0  0  0  0  0
 -141.3865 -171.7615  359.0112 Cl  0  0  0  0  0  0  0  0  0  0  0  0
 -142.7288 -170.2034  362.4371 C   0  0  0  0  0  0  0  0  0  0  0  0
 -140.4012 -170.7812  361.7814 C   0  0  0  0  0  0  0  0  0  0  0  0
 -139.5023 -169.8754  361.2190 C   0  0  0  0  0  0  0  0  0  0  0  0
 -138.1497 -169.9573  361.4962 C   0  0  0  0  0  0  0  0  0  0  0  0
 -137.6682 -170.9396  362.3331 C   0  0  0  0  0  0  0  0  0  0  0  0
 -138.5418 -171.8371  362.9002 C   0  0  0  0  0  0  0  0  0  0  0  0
 -139.8962 -171.7631  362.6315 C   0  0  0  0  0  0  0  0  0  0  0  0
 -150.4663 -174.0410  359.4427 C   0  0  0  0  0  0  0  0  0  0  0  0
 -149.3909 -175.0730  359.1705 C   0  0  0  0  0  0  0  0  0  0  0  0
 -149.4420 -176.2342  360.1364 C   0  0  0  0  0  0  0  0  0  0  0  0
 -148.9776 -177.3297  359.8543 O   0  0  0  0  0  0  0  0  0  0  0  0
 -150.0750 -175.9568  361.2975 N   0  0  0  0  0  0  0  0  0  0  0  0
 -150.4564 -175.0520  361.3700 H   0  0  0  0  0  0  0  0  0  0  0  0
 -150.2631 -176.7949  362.4252 C   0  0  0  0  0  0  0  0  0  0  0  0
 -150.3674 -176.3227  363.7260 C   0  0  0  0  0  0  0  0  0  0  0  0
 -150.3581 -177.2139  364.7841 C   0  0  0  0  0  0  0  0  0  0  0  0
 -150.2417 -178.5726  364.5535 C   0  0  0  0  0  0  0  0  0  0  0  0
 -150.1849 -178.1615  362.1945 C   0  0  0  0  0  0  0  0  0  0  0  0
 -150.1513 -179.0579  363.2559 C   0  0  0  0  0  0  0  0  0  0  0  0
 -149.8629 -180.4921  362.9940 C   0  0  0  0  0  0  0  0  0  0  0  0
 -150.0497 -180.9821  361.8941 O   0  0  0  0  0  0  0  0  0  0  0  0
 -149.4677 -181.1760  364.0244 O   0  0  0  0  0  0  0  0  0  0  0  0
 -149.3391 -180.7493  364.8486 H   0  0  0  0  0  0  0  0  0  0  0  0
 15 13  1  0  0  0
 13 14  2  0  0  0
 13 12  1  0  0  0
 14 10  1  0  0  0
 21 22  2  0  0  0
 21 20  1  0  0  0
 22 17  1  0  0  0
 20 19  2  0  0  0
 19 18  1  0  0  0
 17 18  2  0  0  0
 17 12  1  0  0  0
 12 16  2  0  0  0
 10  9  1  0  0  0
 10 11  2  0  0  0
  9  7  1  0  0  0
 16 11  1  0  0  0
  7  6  1  0  0  0
  6  5  1  0  0  0
  2  1  2  0  0  0
  5  1  1  0  0  0
  1  3  1  0  0  0
  3 23  1  0  0  0
 23 24  1  0  0  0
 24 25  1  0  0  0
 25 27  1  0  0  0
 25 26  2  0  0  0
 27 29  1  0  0  0
 29 33  2  0  0  0
 29 30  1  0  0  0
 33 34  1  0  0  0
 36 35  2  0  0  0
 30 31  2  0  0  0
 34 35  1  0  0  0
 34 32  2  0  0  0
 35 37  1  0  0  0
 31 32  1  0  0  0
  7  8  1  0  0  0
  3  4  1  0  0  0
 27 28  1  0  0  0
 37 38  1  0  0  0
M  END
> <minimizedAffinity>
-10.47564

$$$$
5CU4_54S_A_404


 38 40  0  0  0  0  0  0  0  0999 V2000
 -148.2127 -174.5666  360.2834 C   0  0  0  0  0  0  0  0  0  0  0  0
 -148.9092 -175.4858  359.8738 O   0  0  0  0  0  0  0  0  0  0  0  0
 -148.7081 -173.5293  360.9503 N   0  0  0  0  0  0  0  0  0  0  0  0
 -148.0804 -172.9054  361.3815 H   0  0  0  0  0  0  0  0  0  0  0  0
 -146.7197 -174.5571  360.0647 C   0  0  0  0  0  0  0  0  0  0  0  0
 -146.0964 -173.2279  360.4339 C   0  0  0  0  0  0  0  0  0  0  0  0
 -144.8270 -173.0006  359.7395 N   0  0  0  0  0  0  0  0  0  0  0  0
 -144.1006 -173.5522  360.1962 H   0  0  0  0  0  0  0  0  0  0  0  0
 -144.4274 -171.5934  359.7541 C   0  0  0  0  0  0  0  0  0  0  0  0
 -143.0236 -171.3787  360.2644 C   0  0  0  0  0  0  0  0  0  0  0  0
 -142.7458 -171.3699  361.6211 C   0  0  0  0  0  0  0  0  0  0  0  0
 -140.4030 -170.9667  361.1985 C   0  0  0  0  0  0  0  0  0  0  0  0
 -140.6957 -170.9726  359.8404 C   0  0  0  0  0  0  0  0  0  0  0  0
 -141.9780 -171.1793  359.3744 C   0  0  0  0  0  0  0  0  0  0  0  0
 -139.4393 -170.7105  358.6704 Cl  0  0  0  0  0  0  0  0  0  0  0  0
 -141.4607 -171.1656  362.0870 C   0  0  0  0  0  0  0  0  0  0  0  0
 -139.0280 -170.7852  361.7414 C   0  0  0  0  0  0  0  0  0  0  0  0
 -138.2647 -169.6685  361.4018 C   0  0  0  0  0  0  0  0  0  0  0  0
 -136.9820 -169.5125  361.8952 C   0  0  0  0  0  0  0  0  0  0  0  0
 -136.4366 -170.4620  362.7308 C   0  0  0  0  0  0  0  0  0  0  0  0
 -137.1780 -171.5661  363.0798 C   0  0  0  0  0  0  0  0  0  0  0  0
 -138.4620 -171.7311  362.5938 C   0  0  0  0  0  0  0  0  0  0  0  0
 -150.1367 -173.2727  361.0730 C   0  0  0  0  0  0  0  0  0  0  0  0
 -150.6323 -173.4740  362.4906 C   0  0  0  0  0  0  0  0  0  0  0  0
 -150.1186 -174.7533  363.1097 C   0  0  0  0  0  0  0  0  0  0  0  0
 -149.0205 -174.8167  363.6439 O   0  0  0  0  0  0  0  0  0  0  0  0
 -150.9581 -175.8040  362.9783 N   0  0  0  0  0  0  0  0  0  0  0  0
 -151.7839 -175.6296  362.4716 H   0  0  0  0  0  0  0  0  0  0  0  0
 -150.8079 -177.1241  363.4728 C   0  0  0  0  0  0  0  0  0  0  0  0
 -150.6262 -177.4269  364.8148 C   0  0  0  0  0  0  0  0  0  0  0  0
 -150.2983 -178.7174  365.1905 C   0  0  0  0  0  0  0  0  0  0  0  0
 -150.1467 -179.7068  364.2361 C   0  0  0  0  0  0  0  0  0  0  0  0
 -150.6928 -178.1273  362.5203 C   0  0  0  0  0  0  0  0  0  0  0  0
 -150.3402 -179.4191  362.8918 C   0  0  0  0  0  0  0  0  0  0  0  0
 -150.0245 -180.4224  361.8417 C   0  0  0  0  0  0  0  0  0  0  0  0
 -149.8913 -180.0941  360.6759 O   0  0  0  0  0  0  0  0  0  0  0  0
 -149.9687 -181.6538  362.2493 O   0  0  0  0  0  0  0  0  0  0  0  0
 -150.0780 -181.8517  363.1587 H   0  0  0  0  0  0  0  0  0  0  0  0
 15 13  1  0  0  0
 13 14  2  0  0  0
 13 12  1  0  0  0
 14 10  1  0  0  0
 21 22  2  0  0  0
 21 20  1  0  0  0
 22 17  1  0  0  0
 20 19  2  0  0  0
 19 18  1  0  0  0
 17 18  2  0  0  0
 17 12  1  0  0  0
 12 16  2  0  0  0
 10  9  1  0  0  0
 10 11  2  0  0  0
  9  7  1  0  0  0
 16 11  1  0  0  0
  7  6  1  0  0  0
  6  5  1  0  0  0
  2  1  2  0  0  0
  5  1  1  0  0  0
  1  3  1  0  0  0
  3 23  1  0  0  0
 23 24  1  0  0  0
 24 25  1  0  0  0
 25 27  1  0  0  0
 25 26  2  0  0  0
 27 29  1  0  0  0
 29 33  2  0  0  0
 29 30  1  0  0  0
 33 34  1  0  0  0
 36 35  2  0  0  0
 30 31  2  0  0  0
 34 35  1  0  0  0
 34 32  2  0  0  0
 35 37  1  0  0  0
 31 32  1  0  0  0
  7  8  1  0  0  0
  3  4  1  0  0  0
 27 28  1  0  0  0
 37 38  1  0  0  0
M  END
> <minimizedAffinity>
-10.30522

$$$$
5CU4_54S_A_404


 38 40  0  0  0  0  0  0  0  0999 V2000
 -145.5297 -170.8138  358.1396 C   0  0  0  0  0  0  0  0  0  0  0  0
 -144.8541 -171.2855  357.2348 O   0  0  0  0  0  0  0  0  0  0  0  0
 -145.1229 -170.7885  359.4045 N   0  0  0  0  0  0  0  0  0  0  0  0
 -145.6426 -170.2623  360.0543 H   0  0  0  0  0  0  0  0  0  0  0  0
 -146.8861 -170.2093  357.8715 C   0  0  0  0  0  0  0  0  0  0  0  0
 -147.8940 -170.5691  358.9420 C   0  0  0  0  0  0  0  0  0  0  0  0
 -147.9728 -172.0147  359.1637 N   0  0  0  0  0  0  0  0  0  0  0  0
 -147.4504 -172.4881  358.4266 H   0  0  0  0  0  0  0  0  0  0  0  0
 -149.3506 -172.5064  359.1530 C   0  0  0  0  0  0  0  0  0  0  0  0
 -149.5711 -173.6792  360.0766 C   0  0  0  0  0  0  0  0  0  0  0  0
 -149.1232 -174.9475  359.7470 C   0  0  0  0  0  0  0  0  0  0  0  0
 -149.9998 -175.8559  361.8052 C   0  0  0  0  0  0  0  0  0  0  0  0
 -150.4487 -174.5799  362.1217 C   0  0  0  0  0  0  0  0  0  0  0  0
 -150.2375 -173.5060  361.2812 C   0  0  0  0  0  0  0  0  0  0  0  0
 -151.3071 -174.2938  363.6042 Cl  0  0  0  0  0  0  0  0  0  0  0  0
 -149.3326 -176.0220  360.5908 C   0  0  0  0  0  0  0  0  0  0  0  0
 -150.1736 -177.0332  362.7007 C   0  0  0  0  0  0  0  0  0  0  0  0
 -150.6131 -178.2577  362.1983 C   0  0  0  0  0  0  0  0  0  0  0  0
 -150.7889 -179.3436  363.0367 C   0  0  0  0  0  0  0  0  0  0  0  0
 -150.5337 -179.2311  364.3854 C   0  0  0  0  0  0  0  0  0  0  0  0
 -150.0944 -178.0325  364.8960 C   0  0  0  0  0  0  0  0  0  0  0  0
 -149.9133 -176.9409  364.0666 C   0  0  0  0  0  0  0  0  0  0  0  0
 -143.9439 -171.5034  359.8743 C   0  0  0  0  0  0  0  0  0  0  0  0
 -143.9503 -171.6870  361.3782 C   0  0  0  0  0  0  0  0  0  0  0  0
 -142.7088 -171.1314  362.0369 C   0  0  0  0  0  0  0  0  0  0  0  0
 -142.7263 -170.0846  362.6686 O   0  0  0  0  0  0  0  0  0  0  0  0
 -141.5967 -171.8694  361.8258 N   0  0  0  0  0  0  0  0  0  0  0  0
 -141.7110 -172.6573  361.2467 H   0  0  0  0  0  0  0  0  0  0  0  0
 -140.2873 -171.6602  362.3271 C   0  0  0  0  0  0  0  0  0  0  0  0
 -139.8754 -172.0559  363.5919 C   0  0  0  0  0  0  0  0  0  0  0  0
 -138.6448 -171.6467  364.0738 C   0  0  0  0  0  0  0  0  0  0  0  0
 -137.8242 -170.8424  363.3041 C   0  0  0  0  0  0  0  0  0  0  0  0
 -139.4456 -170.8848  361.5416 C   0  0  0  0  0  0  0  0  0  0  0  0
 -138.2192 -170.4522  362.0316 C   0  0  0  0  0  0  0  0  0  0  0  0
 -137.4297 -169.4601  361.2561 C   0  0  0  0  0  0  0  0  0  0  0  0
 -136.2476 -169.2762  361.4869 O   0  0  0  0  0  0  0  0  0  0  0  0
 -138.1027 -168.7778  360.3801 O   0  0  0  0  0  0  0  0  0  0  0  0
 -139.0112 -168.9603  360.2416 H   0  0  0  0  0  0  0  0  0  0  0  0
 15 13  1  0  0  0
 13 14  2  0  0  0
 13 12  1  0  0  0
 14 10  1  0  0  0
 21 22  2  0  0  0
 21 20  1  0  0  0
 22 17  1  0  0  0
 20 19  2  0  0  0
 19 18  1  0  0  0
 17 18  2  0  0  0
 17 12  1  0  0  0
 12 16  2  0  0  0
 10  9  1  0  0  0
 10 11  2  0  0  0
  9  7  1  0  0  0
 16 11  1  0  0  0
  7  6  1  0  0  0
  6  5  1  0  0  0
  2  1  2  0  0  0
  5  1  1  0  0  0
  1  3  1  0  0  0
  3 23  1  0  0  0
 23 24  1  0  0  0
 24 25  1  0  0  0
 25 27  1  0  0  0
 25 26  2  0  0  0
 27 29  1  0  0  0
 29 33  2  0  0  0
 29 30  1  0  0  0
 33 34  1  0  0  0
 36 35  2  0  0  0
 30 31  2  0  0  0
 34 35  1  0  0  0
 34 32  2  0  0  0
 35 37  1  0  0  0
 31 32  1  0  0  0
  7  8  1  0  0  0
  3  4  1  0  0  0
 27 28  1  0  0  0
 37 38  1  0  0  0
M  END
> <minimizedAffinity>
-10.22239

$$$$
5CU4_54S_A_404


 38 40  0  0  0  0  0  0  0  0999 V2000
 -148.9767 -174.0287  360.5256 C   0  0  0  0  0  0  0  0  0  0  0  0
 -149.6377 -174.5013  361.4406 O   0  0  0  0  0  0  0  0  0  0  0  0
 -149.1917 -174.3328  359.2498 N   0  0  0  0  0  0  0  0  0  0  0  0
 -148.7301 -173.8065  358.5576 H   0  0  0  0  0  0  0  0  0  0  0  0
 -147.8638 -173.0446  360.7897 C   0  0  0  0  0  0  0  0  0  0  0  0
 -146.4991 -173.6975  360.7382 C   0  0  0  0  0  0  0  0  0  0  0  0
 -145.4973 -172.9457  361.4973 N   0  0  0  0  0  0  0  0  0  0  0  0
 -145.8899 -172.7028  362.4068 H   0  0  0  0  0  0  0  0  0  0  0  0
 -145.0900 -171.7157  360.8179 C   0  0  0  0  0  0  0  0  0  0  0  0
 -143.6148 -171.4257  360.9461 C   0  0  0  0  0  0  0  0  0  0  0  0
 -143.0583 -171.0532  362.1583 C   0  0  0  0  0  0  0  0  0  0  0  0
 -140.8647 -170.8786  361.1647 C   0  0  0  0  0  0  0  0  0  0  0  0
 -141.4360 -171.2480  359.9534 C   0  0  0  0  0  0  0  0  0  0  0  0
 -142.7834 -171.5230  359.8394 C   0  0  0  0  0  0  0  0  0  0  0  0
 -140.4586 -171.3712  358.5230 Cl  0  0  0  0  0  0  0  0  0  0  0  0
 -141.7081 -170.7807  362.2722 C   0  0  0  0  0  0  0  0  0  0  0  0
 -139.4100 -170.6102  361.3385 C   0  0  0  0  0  0  0  0  0  0  0  0
 -138.6699 -171.2755  362.3155 C   0  0  0  0  0  0  0  0  0  0  0  0
 -137.3228 -171.0108  362.4842 C   0  0  0  0  0  0  0  0  0  0  0  0
 -136.6904 -170.0814  361.6884 C   0  0  0  0  0  0  0  0  0  0  0  0
 -137.4044 -169.4207  360.7168 C   0  0  0  0  0  0  0  0  0  0  0  0
 -138.7511 -169.6790  360.5382 C   0  0  0  0  0  0  0  0  0  0  0  0
 -150.0787 -175.4086  358.8281 C   0  0  0  0  0  0  0  0  0  0  0  0
 -149.3134 -176.5989  358.2866 C   0  0  0  0  0  0  0  0  0  0  0  0
 -148.9820 -177.6127  359.3572 C   0  0  0  0  0  0  0  0  0  0  0  0
 -148.0110 -178.3507  359.2693 O   0  0  0  0  0  0  0  0  0  0  0  0
 -149.8700 -177.6484  360.3752 N   0  0  0  0  0  0  0  0  0  0  0  0
 -150.6410 -177.0420  360.2903 H   0  0  0  0  0  0  0  0  0  0  0  0
 -149.8394 -178.4426  361.5490 C   0  0  0  0  0  0  0  0  0  0  0  0
 -149.9118 -179.8284  361.5423 C   0  0  0  0  0  0  0  0  0  0  0  0
 -150.0673 -180.5148  362.7334 C   0  0  0  0  0  0  0  0  0  0  0  0
 -150.1548 -179.8278  363.9306 C   0  0  0  0  0  0  0  0  0  0  0  0
 -149.8890 -177.7577  362.7553 C   0  0  0  0  0  0  0  0  0  0  0  0
 -150.0691 -178.4422  363.9512 C   0  0  0  0  0  0  0  0  0  0  0  0
 -150.3229 -177.6786  365.2008 C   0  0  0  0  0  0  0  0  0  0  0  0
 -149.5514 -176.8150  365.5795 O   0  0  0  0  0  0  0  0  0  0  0  0
 -151.3732 -178.0441  365.8709 O   0  0  0  0  0  0  0  0  0  0  0  0
 -151.9343 -178.7144  365.5337 H   0  0  0  0  0  0  0  0  0  0  0  0
 15 13  1  0  0  0
 13 14  2  0  0  0
 13 12  1  0  0  0
 14 10  1  0  0  0
 21 22  2  0  0  0
 21 20  1  0  0  0
 22 17  1  0  0  0
 20 19  2  0  0  0
 19 18  1  0  0  0
 17 18  2  0  0  0
 17 12  1  0  0  0
 12 16  2  0  0  0
 10  9  1  0  0  0
 10 11  2  0  0  0
  9  7  1  0  0  0
 16 11  1  0  0  0
  7  6  1  0  0  0
  6  5  1  0  0  0
  2  1  2  0  0  0
  5  1  1  0  0  0
  1  3  1  0  0  0
  3 23  1  0  0  0
 23 24  1  0  0  0
 24 25  1  0  0  0
 25 27  1  0  0  0
 25 26  2  0  0  0
 27 29  1  0  0  0
 29 33  2  0  0  0
 29 30  1  0  0  0
 33 34  1  0  0  0
 36 35  2  0  0  0
 30 31  2  0  0  0
 34 35  1  0  0  0
 34 32  2  0  0  0
 35 37  1  0  0  0
 31 32  1  0  0  0
  7  8  1  0  0  0
  3  4  1  0  0  0
 27 28  1  0  0  0
 37 38  1  0  0  0
M  END
> <minimizedAffinity>
-10.19057

$$$$
5CU4_54S_A_404


 38 40  0  0  0  0  0  0  0  0999 V2000
 -141.2434 -171.3495  359.6998 C   0  0  0  0  0  0  0  0  0  0  0  0
 -140.6172 -171.2586  360.7473 O   0  0  0  0  0  0  0  0  0  0  0  0
 -142.5383 -171.6458  359.6581 N   0  0  0  0  0  0  0  0  0  0  0  0
 -143.0133 -171.5541  358.8007 H   0  0  0  0  0  0  0  0  0  0  0  0
 -140.5777 -171.1156  358.3660 C   0  0  0  0  0  0  0  0  0  0  0  0
 -139.6214 -169.9427  358.4023 C   0  0  0  0  0  0  0  0  0  0  0  0
 -138.3114 -170.3140  358.9418 N   0  0  0  0  0  0  0  0  0  0  0  0
 -138.3871 -171.2296  359.3849 H   0  0  0  0  0  0  0  0  0  0  0  0
 -137.8224 -169.3528  359.9303 C   0  0  0  0  0  0  0  0  0  0  0  0
 -137.1074 -170.0027  361.0893 C   0  0  0  0  0  0  0  0  0  0  0  0
 -137.5054 -169.7775  362.3965 C   0  0  0  0  0  0  0  0  0  0  0  0
 -135.7569 -171.2142  363.2384 C   0  0  0  0  0  0  0  0  0  0  0  0
 -135.3644 -171.4278  361.9230 C   0  0  0  0  0  0  0  0  0  0  0  0
 -136.0252 -170.8411  360.8631 C   0  0  0  0  0  0  0  0  0  0  0  0
 -134.0063 -172.4502  361.5670 Cl  0  0  0  0  0  0  0  0  0  0  0  0
 -136.8447 -170.3678  363.4574 C   0  0  0  0  0  0  0  0  0  0  0  0
 -135.0953 -171.8573  364.4075 C   0  0  0  0  0  0  0  0  0  0  0  0
 -133.9113 -171.3420  364.9343 C   0  0  0  0  0  0  0  0  0  0  0  0
 -133.2916 -171.9524  366.0097 C   0  0  0  0  0  0  0  0  0  0  0  0
 -133.8353 -173.0835  366.5772 C   0  0  0  0  0  0  0  0  0  0  0  0
 -135.0052 -173.6011  366.0734 C   0  0  0  0  0  0  0  0  0  0  0  0
 -135.6342 -172.9977  364.9998 C   0  0  0  0  0  0  0  0  0  0  0  0
 -143.2873 -172.0999  360.8220 C   0  0  0  0  0  0  0  0  0  0  0  0
 -144.5663 -171.3120  361.0195 C   0  0  0  0  0  0  0  0  0  0  0  0
 -145.7138 -171.8510  360.1970 C   0  0  0  0  0  0  0  0  0  0  0  0
 -145.7279 -171.7698  358.9770 O   0  0  0  0  0  0  0  0  0  0  0  0
 -146.7167 -172.3803  360.9319 N   0  0  0  0  0  0  0  0  0  0  0  0
 -146.6047 -172.3260  361.9085 H   0  0  0  0  0  0  0  0  0  0  0  0
 -147.9087 -173.0032  360.4839 C   0  0  0  0  0  0  0  0  0  0  0  0
 -149.1622 -172.4131  360.5640 C   0  0  0  0  0  0  0  0  0  0  0  0
 -150.2928 -173.1590  360.2824 C   0  0  0  0  0  0  0  0  0  0  0  0
 -150.1816 -174.4906  359.9253 C   0  0  0  0  0  0  0  0  0  0  0  0
 -147.7974 -174.3291  360.0882 C   0  0  0  0  0  0  0  0  0  0  0  0
 -148.9321 -175.0879  359.8278 C   0  0  0  0  0  0  0  0  0  0  0  0
 -148.7991 -176.5515  359.6062 C   0  0  0  0  0  0  0  0  0  0  0  0
 -149.5261 -177.3443  360.1786 O   0  0  0  0  0  0  0  0  0  0  0  0
 -147.8269 -176.9082  358.8231 O   0  0  0  0  0  0  0  0  0  0  0  0
 -147.2973 -176.2567  358.4071 H   0  0  0  0  0  0  0  0  0  0  0  0
 15 13  1  0  0  0
 13 14  2  0  0  0
 13 12  1  0  0  0
 14 10  1  0  0  0
 21 22  2  0  0  0
 21 20  1  0  0  0
 22 17  1  0  0  0
 20 19  2  0  0  0
 19 18  1  0  0  0
 17 18  2  0  0  0
 17 12  1  0  0  0
 12 16  2  0  0  0
 10  9  1  0  0  0
 10 11  2  0  0  0
  9  7  1  0  0  0
 16 11  1  0  0  0
  7  6  1  0  0  0
  6  5  1  0  0  0
  2  1  2  0  0  0
  5  1  1  0  0  0
  1  3  1  0  0  0
  3 23  1  0  0  0
 23 24  1  0  0  0
 24 25  1  0  0  0
 25 27  1  0  0  0
 25 26  2  0  0  0
 27 29  1  0  0  0
 29 33  2  0  0  0
 29 30  1  0  0  0
 33 34  1  0  0  0
 36 35  2  0  0  0
 30 31  2  0  0  0
 34 35  1  0  0  0
 34 32  2  0  0  0
 35 37  1  0  0  0
 31 32  1  0  0  0
  7  8  1  0  0  0
  3  4  1  0  0  0
 27 28  1  0  0  0
 37 38  1  0  0  0
M  END
> <minimizedAffinity>
-9.97898

$$$$
