5U0E_7R4_A_302


 15 16  0  0  0  0  0  0  0  0999 V2000
   -3.8229    1.5031   12.9524 C   0  0  0  0  0  0  0  0  0  0  0  0
   -2.6068    2.8687   11.6706 C   0  0  0  0  0  0  0  0  0  0  0  0
   -4.3265    2.8068   13.5315 C   0  0  0  0  0  0  0  0  0  0  0  0
   -2.8926    1.5987   11.9990 N   0  0  0  0  0  0  0  0  0  0  0  0
   -4.2396    0.4196   13.3243 O   0  0  0  0  0  0  0  0  0  0  0  0
   -1.5191    3.3891   10.5438 S   0  0  0  0  0  0  0  0  0  0  0  0
   -3.5494    4.0531   12.5065 S   0  0  0  0  0  0  0  0  0  0  0  0
   -2.4612    0.8189   11.5805 H   0  0  0  0  0  0  0  0  0  0  0  0
   -3.8573    2.8767   14.9858 C   0  0  0  0  0  0  0  0  0  0  0  0
   -7.1710    2.1140   17.5969 C   0  0  0  0  0  0  0  0  0  0  0  0
   -6.9550    3.3353   17.0096 C   0  0  0  0  0  0  0  0  0  0  0  0
   -6.2839    1.1088   17.3496 C   0  0  0  0  0  0  0  0  0  0  0  0
   -5.8888    3.5726   16.1729 C   0  0  0  0  0  0  0  0  0  0  0  0
   -5.2102    1.3565   16.5099 C   0  0  0  0  0  0  0  0  0  0  0  0
   -4.9948    2.5792   15.9079 C   0  0  0  0  0  0  0  0  0  0  0  0
 14 12  2  0  0  0
 14 15  1  0  0  0
  9 15  1  0  0  0
  9  3  1  0  0  0
 12 10  1  0  0  0
 15 13  2  0  0  0
  5  1  2  0  0  0
 10 11  2  0  0  0
 13 11  1  0  0  0
  1  3  1  0  0  0
  1  4  1  0  0  0
  3  7  1  0  0  0
  4  2  1  0  0  0
  7  2  1  0  0  0
  2  6  2  0  0  0
  4  8  1  0  0  0
M  END
> <minimizedAffinity>
-6.36327

$$$$
5U0E_7R4_A_302


 15 16  0  0  0  0  0  0  0  0999 V2000
   -4.5310    0.8136   14.5365 C   0  0  0  0  0  0  0  0  0  0  0  0
   -4.0675    0.9634   12.3571 C   0  0  0  0  0  0  0  0  0  0  0  0
   -4.6506    2.3171   14.4191 C   0  0  0  0  0  0  0  0  0  0  0  0
   -4.1877    0.1582   13.4246 N   0  0  0  0  0  0  0  0  0  0  0  0
   -4.7389    0.2220   15.5818 O   0  0  0  0  0  0  0  0  0  0  0  0
   -3.6615    0.5286   10.8179 S   0  0  0  0  0  0  0  0  0  0  0  0
   -4.4460    2.6222   12.6661 S   0  0  0  0  0  0  0  0  0  0  0  0
   -4.0383   -0.8143   13.3913 H   0  0  0  0  0  0  0  0  0  0  0  0
   -3.5252    2.9351   15.2508 C   0  0  0  0  0  0  0  0  0  0  0  0
   -3.2582    7.1347   14.4308 C   0  0  0  0  0  0  0  0  0  0  0  0
   -4.4011    6.5429   14.9068 C   0  0  0  0  0  0  0  0  0  0  0  0
   -2.1697    6.3483   14.1953 C   0  0  0  0  0  0  0  0  0  0  0  0
   -4.4793    5.1941   15.1673 C   0  0  0  0  0  0  0  0  0  0  0  0
   -2.2574    4.9904   14.4554 C   0  0  0  0  0  0  0  0  0  0  0  0
   -3.4004    4.3923   14.9448 C   0  0  0  0  0  0  0  0  0  0  0  0
 14 12  2  0  0  0
 14 15  1  0  0  0
  9 15  1  0  0  0
  9  3  1  0  0  0
 12 10  1  0  0  0
 15 13  2  0  0  0
  5  1  2  0  0  0
 10 11  2  0  0  0
 13 11  1  0  0  0
  1  3  1  0  0  0
  1  4  1  0  0  0
  3  7  1  0  0  0
  4  2  1  0  0  0
  7  2  1  0  0  0
  2  6  2  0  0  0
  4  8  1  0  0  0
M  END
> <minimizedAffinity>
-6.08569

$$$$
5U0E_7R4_A_302


 15 16  0  0  0  0  0  0  0  0999 V2000
   -5.2594    5.8583   13.2711 C   0  0  0  0  0  0  0  0  0  0  0  0
   -3.1131    5.2609   13.1185 C   0  0  0  0  0  0  0  0  0  0  0  0
   -5.1742    5.1156   14.5864 C   0  0  0  0  0  0  0  0  0  0  0  0
   -4.1515    5.8713   12.5256 N   0  0  0  0  0  0  0  0  0  0  0  0
   -6.2762    6.4215   12.9044 O   0  0  0  0  0  0  0  0  0  0  0  0
   -1.5876    5.0739   12.5175 S   0  0  0  0  0  0  0  0  0  0  0  0
   -3.4434    4.6721   14.7105 S   0  0  0  0  0  0  0  0  0  0  0  0
   -4.1014    6.2855   11.6338 H   0  0  0  0  0  0  0  0  0  0  0  0
   -6.0815    3.8884   14.4821 C   0  0  0  0  0  0  0  0  0  0  0  0
   -6.3063    1.9254   18.2868 C   0  0  0  0  0  0  0  0  0  0  0  0
   -6.6861    3.2311   18.1021 C   0  0  0  0  0  0  0  0  0  0  0  0
   -5.8232    1.2323   17.2169 C   0  0  0  0  0  0  0  0  0  0  0  0
   -6.6107    3.8545   16.8778 C   0  0  0  0  0  0  0  0  0  0  0  0
   -5.7458    1.8679   15.9884 C   0  0  0  0  0  0  0  0  0  0  0  0
   -6.1370    3.1769   15.7948 C   0  0  0  0  0  0  0  0  0  0  0  0
 14 12  2  0  0  0
 14 15  1  0  0  0
  9 15  1  0  0  0
  9  3  1  0  0  0
 12 10  1  0  0  0
 15 13  2  0  0  0
  5  1  2  0  0  0
 10 11  2  0  0  0
 13 11  1  0  0  0
  1  3  1  0  0  0
  1  4  1  0  0  0
  3  7  1  0  0  0
  4  2  1  0  0  0
  7  2  1  0  0  0
  2  6  2  0  0  0
  4  8  1  0  0  0
M  END
> <minimizedAffinity>
-5.96741

$$$$
5U0E_7R4_A_302


 15 16  0  0  0  0  0  0  0  0999 V2000
   -3.1725    2.9819   13.2311 C   0  0  0  0  0  0  0  0  0  0  0  0
   -3.4304    1.3123   11.7708 C   0  0  0  0  0  0  0  0  0  0  0  0
   -4.0441    2.1018   14.0998 C   0  0  0  0  0  0  0  0  0  0  0  0
   -2.9117    2.5288   12.0023 N   0  0  0  0  0  0  0  0  0  0  0  0
   -2.7235    4.0454   13.6226 O   0  0  0  0  0  0  0  0  0  0  0  0
   -3.3224    0.4275   10.3820 S   0  0  0  0  0  0  0  0  0  0  0  0
   -4.2435    0.6116   13.1265 S   0  0  0  0  0  0  0  0  0  0  0  0
   -2.3929    3.0342   11.3355 H   0  0  0  0  0  0  0  0  0  0  0  0
   -5.3690    2.8353   14.3158 C   0  0  0  0  0  0  0  0  0  0  0  0
   -6.5242    2.4177   18.4232 C   0  0  0  0  0  0  0  0  0  0  0  0
   -5.9372    1.4023   17.7107 C   0  0  0  0  0  0  0  0  0  0  0  0
   -6.7625    3.6014   17.7903 C   0  0  0  0  0  0  0  0  0  0  0  0
   -5.5695    1.5438   16.3924 C   0  0  0  0  0  0  0  0  0  0  0  0
   -6.3939    3.7349   16.4616 C   0  0  0  0  0  0  0  0  0  0  0  0
   -5.7931    2.7211   15.7440 C   0  0  0  0  0  0  0  0  0  0  0  0
 14 12  2  0  0  0
 14 15  1  0  0  0
  9 15  1  0  0  0
  9  3  1  0  0  0
 12 10  1  0  0  0
 15 13  2  0  0  0
  5  1  2  0  0  0
 10 11  2  0  0  0
 13 11  1  0  0  0
  1  3  1  0  0  0
  1  4  1  0  0  0
  3  7  1  0  0  0
  4  2  1  0  0  0
  7  2  1  0  0  0
  2  6  2  0  0  0
  4  8  1  0  0  0
M  END
> <minimizedAffinity>
-5.95951

$$$$
5U0E_7R4_A_302


 15 16  0  0  0  0  0  0  0  0999 V2000
   -3.0646    3.7255   14.0764 C   0  0  0  0  0  0  0  0  0  0  0  0
   -2.9461    3.8766   11.8516 C   0  0  0  0  0  0  0  0  0  0  0  0
   -4.2318    2.8161   13.7612 C   0  0  0  0  0  0  0  0  0  0  0  0
   -2.4481    4.2820   13.0306 N   0  0  0  0  0  0  0  0  0  0  0  0
   -2.6954    3.9417   15.2178 O   0  0  0  0  0  0  0  0  0  0  0  0
   -2.4514    4.3373   10.3461 S   0  0  0  0  0  0  0  0  0  0  0  0
   -4.2051    2.6976   11.9742 S   0  0  0  0  0  0  0  0  0  0  0  0
   -1.7057    4.9230   13.1154 H   0  0  0  0  0  0  0  0  0  0  0  0
   -5.4998    3.4977   14.2785 C   0  0  0  0  0  0  0  0  0  0  0  0
   -6.5657    2.0831   18.1827 C   0  0  0  0  0  0  0  0  0  0  0  0
   -6.8160    3.3660   17.7645 C   0  0  0  0  0  0  0  0  0  0  0  0
   -5.9377    1.2311   17.3235 C   0  0  0  0  0  0  0  0  0  0  0  0
   -6.4705    3.8129   16.5098 C   0  0  0  0  0  0  0  0  0  0  0  0
   -5.5887    1.6895   16.0636 C   0  0  0  0  0  0  0  0  0  0  0  0
   -5.8482    2.9748   15.6341 C   0  0  0  0  0  0  0  0  0  0  0  0
 14 12  2  0  0  0
 14 15  1  0  0  0
  9 15  1  0  0  0
  9  3  1  0  0  0
 12 10  1  0  0  0
 15 13  2  0  0  0
  5  1  2  0  0  0
 10 11  2  0  0  0
 13 11  1  0  0  0
  1  3  1  0  0  0
  1  4  1  0  0  0
  3  7  1  0  0  0
  4  2  1  0  0  0
  7  2  1  0  0  0
  2  6  2  0  0  0
  4  8  1  0  0  0
M  END
> <minimizedAffinity>
-5.92257

$$$$
5U0E_7R4_A_302


 15 16  0  0  0  0  0  0  0  0999 V2000
   -3.0444    3.9407   13.1945 C   0  0  0  0  0  0  0  0  0  0  0  0
   -2.4400    6.0799   13.4070 C   0  0  0  0  0  0  0  0  0  0  0  0
   -4.0471    4.3168   14.2632 C   0  0  0  0  0  0  0  0  0  0  0  0
   -2.2017    4.9020   12.8084 N   0  0  0  0  0  0  0  0  0  0  0  0
   -3.0023    2.8262   12.7025 O   0  0  0  0  0  0  0  0  0  0  0  0
   -1.6185    7.4948   13.1914 S   0  0  0  0  0  0  0  0  0  0  0  0
   -3.8045    6.0794   14.4693 S   0  0  0  0  0  0  0  0  0  0  0  0
   -1.4807    4.7616   12.1529 H   0  0  0  0  0  0  0  0  0  0  0  0
   -3.6909    3.5307   15.5262 C   0  0  0  0  0  0  0  0  0  0  0  0
   -7.1667    1.7364   17.2810 C   0  0  0  0  0  0  0  0  0  0  0  0
   -6.0039    1.0416   17.0614 C   0  0  0  0  0  0  0  0  0  0  0  0
   -7.2198    3.0471   16.9098 C   0  0  0  0  0  0  0  0  0  0  0  0
   -4.8924    1.6244   16.4973 C   0  0  0  0  0  0  0  0  0  0  0  0
   -6.0984    3.6258   16.3381 C   0  0  0  0  0  0  0  0  0  0  0  0
   -4.9232    2.9348   16.1256 C   0  0  0  0  0  0  0  0  0  0  0  0
 14 12  2  0  0  0
 14 15  1  0  0  0
  9 15  1  0  0  0
  9  3  1  0  0  0
 12 10  1  0  0  0
 15 13  2  0  0  0
  5  1  2  0  0  0
 10 11  2  0  0  0
 13 11  1  0  0  0
  1  3  1  0  0  0
  1  4  1  0  0  0
  3  7  1  0  0  0
  4  2  1  0  0  0
  7  2  1  0  0  0
  2  6  2  0  0  0
  4  8  1  0  0  0
M  END
> <minimizedAffinity>
-5.87274

$$$$
5U0E_7R4_A_302


 15 16  0  0  0  0  0  0  0  0999 V2000
   -6.1087    3.6710   14.9250 C   0  0  0  0  0  0  0  0  0  0  0  0
   -6.0254    2.8018   16.9803 C   0  0  0  0  0  0  0  0  0  0  0  0
   -5.3801    2.3955   14.5630 C   0  0  0  0  0  0  0  0  0  0  0  0
   -6.3913    3.8450   16.2185 N   0  0  0  0  0  0  0  0  0  0  0  0
   -6.4292    4.4989   14.0897 O   0  0  0  0  0  0  0  0  0  0  0  0
   -6.2070    2.6439   18.6128 S   0  0  0  0  0  0  0  0  0  0  0  0
   -5.3453    1.4774   16.1006 S   0  0  0  0  0  0  0  0  0  0  0  0
   -6.8232    4.6541   16.5764 H   0  0  0  0  0  0  0  0  0  0  0  0
   -3.9790    2.7842   14.0877 C   0  0  0  0  0  0  0  0  0  0  0  0
   -3.0639    0.5557   10.5415 C   0  0  0  0  0  0  0  0  0  0  0  0
   -3.9570    0.1143   11.4852 C   0  0  0  0  0  0  0  0  0  0  0  0
   -2.4318    1.7451   10.7519 C   0  0  0  0  0  0  0  0  0  0  0  0
   -4.2453    0.8352   12.6212 C   0  0  0  0  0  0  0  0  0  0  0  0
   -2.7236    2.4630   11.9002 C   0  0  0  0  0  0  0  0  0  0  0  0
   -3.6292    2.0293   12.8466 C   0  0  0  0  0  0  0  0  0  0  0  0
 14 12  2  0  0  0
 14 15  1  0  0  0
  9 15  1  0  0  0
  9  3  1  0  0  0
 12 10  1  0  0  0
 15 13  2  0  0  0
  5  1  2  0  0  0
 10 11  2  0  0  0
 13 11  1  0  0  0
  1  3  1  0  0  0
  1  4  1  0  0  0
  3  7  1  0  0  0
  4  2  1  0  0  0
  7  2  1  0  0  0
  2  6  2  0  0  0
  4  8  1  0  0  0
M  END
> <minimizedAffinity>
-5.67591

$$$$
5U0E_7R4_A_302


 15 16  0  0  0  0  0  0  0  0999 V2000
   -4.2601    0.5654   13.8372 C   0  0  0  0  0  0  0  0  0  0  0  0
   -3.4968    1.0862   11.8042 C   0  0  0  0  0  0  0  0  0  0  0  0
   -4.8913    1.9370   13.7422 C   0  0  0  0  0  0  0  0  0  0  0  0
   -3.5087    0.1862   12.8003 N   0  0  0  0  0  0  0  0  0  0  0  0
   -4.4254   -0.1638   14.7999 O   0  0  0  0  0  0  0  0  0  0  0  0
   -2.6906    0.9775   10.3685 S   0  0  0  0  0  0  0  0  0  0  0  0
   -4.4978    2.4694   12.0780 S   0  0  0  0  0  0  0  0  0  0  0  0
   -3.0149   -0.6650   12.7695 H   0  0  0  0  0  0  0  0  0  0  0  0
   -4.2349    2.8207   14.8045 C   0  0  0  0  0  0  0  0  0  0  0  0
   -7.0171    3.5760   17.9776 C   0  0  0  0  0  0  0  0  0  0  0  0
   -6.9272    4.3733   16.8643 C   0  0  0  0  0  0  0  0  0  0  0  0
   -6.1741    2.5097   18.0823 C   0  0  0  0  0  0  0  0  0  0  0  0
   -6.0313    4.1246   15.8500 C   0  0  0  0  0  0  0  0  0  0  0  0
   -5.2715    2.2683   17.0593 C   0  0  0  0  0  0  0  0  0  0  0  0
   -5.1848    3.0602   15.9327 C   0  0  0  0  0  0  0  0  0  0  0  0
 14 12  2  0  0  0
 14 15  1  0  0  0
  9 15  1  0  0  0
  9  3  1  0  0  0
 12 10  1  0  0  0
 15 13  2  0  0  0
  5  1  2  0  0  0
 10 11  2  0  0  0
 13 11  1  0  0  0
  1  3  1  0  0  0
  1  4  1  0  0  0
  3  7  1  0  0  0
  4  2  1  0  0  0
  7  2  1  0  0  0
  2  6  2  0  0  0
  4  8  1  0  0  0
M  END
> <minimizedAffinity>
-5.67146

$$$$
5U0E_7R4_A_302


 15 16  0  0  0  0  0  0  0  0999 V2000
   -4.2176    1.3833   15.4173 C   0  0  0  0  0  0  0  0  0  0  0  0
   -4.2486    1.0095   13.2159 C   0  0  0  0  0  0  0  0  0  0  0  0
   -4.3781    2.8232   14.9817 C   0  0  0  0  0  0  0  0  0  0  0  0
   -4.1205    0.4767   14.4415 N   0  0  0  0  0  0  0  0  0  0  0  0
   -4.1825    1.0567   16.5911 O   0  0  0  0  0  0  0  0  0  0  0  0
   -4.1874    0.2165   11.7700 S   0  0  0  0  0  0  0  0  0  0  0  0
   -4.5692    2.7087   13.2045 S   0  0  0  0  0  0  0  0  0  0  0  0
   -3.9707   -0.4827   14.6041 H   0  0  0  0  0  0  0  0  0  0  0  0
   -3.1042    3.5701   15.3812 C   0  0  0  0  0  0  0  0  0  0  0  0
   -2.7682    7.2664   13.2355 C   0  0  0  0  0  0  0  0  0  0  0  0
   -1.7196    6.3924   13.3766 C   0  0  0  0  0  0  0  0  0  0  0  0
   -3.9599    6.9496   13.8168 C   0  0  0  0  0  0  0  0  0  0  0  0
   -1.8350    5.2080   14.0671 C   0  0  0  0  0  0  0  0  0  0  0  0
   -4.0673    5.7576   14.5145 C   0  0  0  0  0  0  0  0  0  0  0  0
   -3.0195    4.8701   14.6496 C   0  0  0  0  0  0  0  0  0  0  0  0
 14 12  2  0  0  0
 14 15  1  0  0  0
  9 15  1  0  0  0
  9  3  1  0  0  0
 12 10  1  0  0  0
 15 13  2  0  0  0
  5  1  2  0  0  0
 10 11  2  0  0  0
 13 11  1  0  0  0
  1  3  1  0  0  0
  1  4  1  0  0  0
  3  7  1  0  0  0
  4  2  1  0  0  0
  7  2  1  0  0  0
  2  6  2  0  0  0
  4  8  1  0  0  0
M  END
> <minimizedAffinity>
-5.63187

$$$$
5U0E_7R4_A_302


 15 16  0  0  0  0  0  0  0  0999 V2000
   -2.7584    2.0419   11.6500 C   0  0  0  0  0  0  0  0  0  0  0  0
   -3.2362   -0.1392   11.6833 C   0  0  0  0  0  0  0  0  0  0  0  0
   -3.6962    2.0704   12.8368 C   0  0  0  0  0  0  0  0  0  0  0  0
   -2.5823    0.8556   11.0627 N   0  0  0  0  0  0  0  0  0  0  0  0
   -2.1860    3.0396   11.2466 O   0  0  0  0  0  0  0  0  0  0  0  0
   -3.2632   -1.7341   11.2605 S   0  0  0  0  0  0  0  0  0  0  0  0
   -4.0830    0.3433   13.1117 S   0  0  0  0  0  0  0  0  0  0  0  0
   -2.0302    0.7241   10.2582 H   0  0  0  0  0  0  0  0  0  0  0  0
   -4.9273    2.8832   12.4319 C   0  0  0  0  0  0  0  0  0  0  0  0
   -5.9518    5.7257   15.4733 C   0  0  0  0  0  0  0  0  0  0  0  0
   -5.3668    6.0880   14.2860 C   0  0  0  0  0  0  0  0  0  0  0  0
   -6.2014    4.4044   15.6974 C   0  0  0  0  0  0  0  0  0  0  0  0
   -5.0404    5.1697   13.3146 C   0  0  0  0  0  0  0  0  0  0  0  0
   -5.8658    3.4851   14.7168 C   0  0  0  0  0  0  0  0  0  0  0  0
   -5.2879    3.8452   13.5168 C   0  0  0  0  0  0  0  0  0  0  0  0
 14 12  2  0  0  0
 14 15  1  0  0  0
  9 15  1  0  0  0
  9  3  1  0  0  0
 12 10  1  0  0  0
 15 13  2  0  0  0
  5  1  2  0  0  0
 10 11  2  0  0  0
 13 11  1  0  0  0
  1  3  1  0  0  0
  1  4  1  0  0  0
  3  7  1  0  0  0
  4  2  1  0  0  0
  7  2  1  0  0  0
  2  6  2  0  0  0
  4  8  1  0  0  0
M  END
> <minimizedAffinity>
-5.35930

$$$$
