5I2F_BS5_A_201


 32 34  0  0  0  0  0  0  0  0999 V2000
  -29.0457    4.8128  -31.3843 C   0  0  0  0  0  0  0  0  0  0  0  0
  -28.5959    6.0303  -30.6074 C   0  0  0  0  0  0  0  0  0  0  0  0
  -27.1751    6.0151  -30.4744 O   0  0  0  0  0  0  0  0  0  0  0  0
  -29.3384    5.8823  -29.2876 C   0  0  0  0  0  0  0  0  0  0  0  0
  -28.5772    5.2282  -28.2567 O   0  0  0  0  0  0  0  0  0  0  0  0
  -30.5311    5.0138  -29.6519 C   0  0  0  0  0  0  0  0  0  0  0  0
  -30.4078    4.6439  -31.0206 O   0  0  0  0  0  0  0  0  0  0  0  0
  -26.8982    5.1832  -30.0594 H   0  0  0  0  0  0  0  0  0  0  0  0
  -28.3220    4.3416  -28.5564 H   0  0  0  0  0  0  0  0  0  0  0  0
  -25.7970    4.8997  -35.4309 N   0  0  0  0  0  0  0  0  0  0  0  0
  -25.5610    4.6733  -34.1232 C   0  0  0  0  0  0  0  0  0  0  0  0
  -26.5229    4.6883  -33.1838 N   0  0  0  0  0  0  0  0  0  0  0  0
  -27.8080    4.9303  -33.5209 C   0  0  0  0  0  0  0  0  0  0  0  0
  -28.1497    5.1879  -34.9224 C   0  0  0  0  0  0  0  0  0  0  0  0
  -27.0398    5.1579  -35.8975 C   0  0  0  0  0  0  0  0  0  0  0  0
  -27.2958    5.4080  -37.3405 N   0  0  0  0  0  0  0  0  0  0  0  0
  -29.4773    5.4044  -34.9582 N   0  0  0  0  0  0  0  0  0  0  0  0
  -29.9500    5.2882  -33.6912 C   0  0  0  0  0  0  0  0  0  0  0  0
  -28.9466    5.0137  -32.8427 N   0  0  0  0  0  0  0  0  0  0  0  0
  -26.5507    5.3862  -37.9836 H   0  0  0  0  0  0  0  0  0  0  0  0
  -28.2104    5.5953  -37.6529 H   0  0  0  0  0  0  0  0  0  0  0  0
  -31.8322    5.7589  -29.4597 C   0  0  0  0  0  0  0  0  0  0  0  0
  -31.7328    6.3104  -28.1359 N   0  0  0  0  0  0  0  0  0  0  0  0
  -32.3056    5.7179  -27.5350 H   0  0  0  0  0  0  0  0  0  0  0  0
  -32.1562    7.8091  -27.8190 S   0  0  0  0  0  0  0  0  0  0  0  0
  -33.5668    7.7418  -27.5603 O   0  0  0  0  0  0  0  0  0  0  0  0
  -31.9549    8.6198  -28.9938 O   0  0  0  0  0  0  0  0  0  0  0  0
  -29.0370    9.3344  -26.1676 C   0  0  0  0  0  0  0  0  0  0  0  0
  -29.9353    8.1317  -26.3218 C   0  0  0  0  0  0  0  0  0  0  0  0
  -31.2331    8.3721  -26.5993 N   0  0  0  0  0  0  0  0  0  0  0  0
  -29.4685    7.0042  -26.2133 O   0  0  0  0  0  0  0  0  0  0  0  0
  -31.6907    8.9775  -25.9722 H   0  0  0  0  0  0  0  0  0  0  0  0
 23 25  1  0  0  0
 30 25  1  0  0  0
 25 26  2  0  0  0
 25 27  2  0  0  0
 15 10  2  0  0  0
 10 11  1  0  0  0
 11 12  2  0  0  0
 13 12  1  0  0  0
 14 13  2  0  0  0
 13 19  1  0  0  0
 15 14  1  0  0  0
 17 14  1  0  0  0
 16 15  1  0  0  0
 17 18  2  0  0  0
 18 19  1  0  0  0
 19  1  1  0  0  0
  1  2  1  0  0  0
  1  7  1  0  0  0
  2  3  1  0  0  0
  2  4  1  0  0  0
  4  5  1  0  0  0
  4  6  1  0  0  0
  7  6  1  0  0  0
  6 22  1  0  0  0
 22 23  1  0  0  0
 28 29  1  0  0  0
 31 29  2  0  0  0
 29 30  1  0  0  0
 16 20  1  0  0  0
 16 21  1  0  0  0
  3  8  1  0  0  0
  5  9  1  0  0  0
 23 24  1  0  0  0
 30 32  1  0  0  0
M  END
> <minimizedAffinity>
-7.28736

$$$$
5I2F_BS5_A_201


 32 34  0  0  0  0  0  0  0  0999 V2000
  -29.7647    5.1701  -30.6634 C   0  0  0  0  0  0  0  0  0  0  0  0
  -28.9619    6.2811  -30.0235 C   0  0  0  0  0  0  0  0  0  0  0  0
  -27.5710    5.9704  -30.0980 O   0  0  0  0  0  0  0  0  0  0  0  0
  -29.5081    6.3181  -28.6039 C   0  0  0  0  0  0  0  0  0  0  0  0
  -28.7483    5.5390  -27.6627 O   0  0  0  0  0  0  0  0  0  0  0  0
  -30.8947    5.7124  -28.7459 C   0  0  0  0  0  0  0  0  0  0  0  0
  -31.0605    5.2981  -30.0972 O   0  0  0  0  0  0  0  0  0  0  0  0
  -27.4100    5.1073  -29.6859 H   0  0  0  0  0  0  0  0  0  0  0  0
  -28.7288    4.6130  -27.9506 H   0  0  0  0  0  0  0  0  0  0  0  0
  -27.1523    4.6957  -35.1229 N   0  0  0  0  0  0  0  0  0  0  0  0
  -26.7628    4.4726  -33.8519 C   0  0  0  0  0  0  0  0  0  0  0  0
  -27.5682    4.6466  -32.7893 N   0  0  0  0  0  0  0  0  0  0  0  0
  -28.8439    5.0574  -32.9548 C   0  0  0  0  0  0  0  0  0  0  0  0
  -29.3464    5.3238  -34.3052 C   0  0  0  0  0  0  0  0  0  0  0  0
  -28.4031    5.1133  -35.4231 C   0  0  0  0  0  0  0  0  0  0  0  0
  -28.8285    5.3590  -36.8263 N   0  0  0  0  0  0  0  0  0  0  0  0
  -30.6238    5.7231  -34.1656 N   0  0  0  0  0  0  0  0  0  0  0  0
  -30.9200    5.7073  -32.8411 C   0  0  0  0  0  0  0  0  0  0  0  0
  -29.8509    5.3171  -32.1290 N   0  0  0  0  0  0  0  0  0  0  0  0
  -28.1939    5.2164  -37.5653 H   0  0  0  0  0  0  0  0  0  0  0  0
  -29.7449    5.6645  -37.0165 H   0  0  0  0  0  0  0  0  0  0  0  0
  -31.9707    6.7177  -28.4046 C   0  0  0  0  0  0  0  0  0  0  0  0
  -31.3189    7.6504  -27.5262 N   0  0  0  0  0  0  0  0  0  0  0  0
  -30.3338    7.3867  -27.5085 H   0  0  0  0  0  0  0  0  0  0  0  0
  -31.7620    7.8227  -26.0097 S   0  0  0  0  0  0  0  0  0  0  0  0
  -33.1968    7.8517  -26.0508 O   0  0  0  0  0  0  0  0  0  0  0  0
  -31.3025    9.0986  -25.5210 O   0  0  0  0  0  0  0  0  0  0  0  0
  -31.7145    4.7788  -23.6611 C   0  0  0  0  0  0  0  0  0  0  0  0
  -31.3713    6.2342  -23.8645 C   0  0  0  0  0  0  0  0  0  0  0  0
  -31.0975    6.6251  -25.1259 N   0  0  0  0  0  0  0  0  0  0  0  0
  -31.3710    6.9999  -22.9081 O   0  0  0  0  0  0  0  0  0  0  0  0
  -30.3916    6.1109  -25.5803 H   0  0  0  0  0  0  0  0  0  0  0  0
 23 25  1  0  0  0
 30 25  1  0  0  0
 25 26  2  0  0  0
 25 27  2  0  0  0
 15 10  2  0  0  0
 10 11  1  0  0  0
 11 12  2  0  0  0
 13 12  1  0  0  0
 14 13  2  0  0  0
 13 19  1  0  0  0
 15 14  1  0  0  0
 17 14  1  0  0  0
 16 15  1  0  0  0
 17 18  2  0  0  0
 18 19  1  0  0  0
 19  1  1  0  0  0
  1  2  1  0  0  0
  1  7  1  0  0  0
  2  3  1  0  0  0
  2  4  1  0  0  0
  4  5  1  0  0  0
  4  6  1  0  0  0
  7  6  1  0  0  0
  6 22  1  0  0  0
 22 23  1  0  0  0
 28 29  1  0  0  0
 31 29  2  0  0  0
 29 30  1  0  0  0
 16 20  1  0  0  0
 16 21  1  0  0  0
  3  8  1  0  0  0
  5  9  1  0  0  0
 23 24  1  0  0  0
 30 32  1  0  0  0
M  END
> <minimizedAffinity>
-7.02524

$$$$
5I2F_BS5_A_201


 32 34  0  0  0  0  0  0  0  0999 V2000
  -33.1455    9.1629  -26.4885 C   0  0  0  0  0  0  0  0  0  0  0  0
  -31.8701    9.7404  -27.0613 C   0  0  0  0  0  0  0  0  0  0  0  0
  -31.8076   11.1375  -26.7774 O   0  0  0  0  0  0  0  0  0  0  0  0
  -31.9897    9.4192  -28.5437 C   0  0  0  0  0  0  0  0  0  0  0  0
  -32.5532   10.4837  -29.3308 O   0  0  0  0  0  0  0  0  0  0  0  0
  -32.9338    8.2285  -28.5693 C   0  0  0  0  0  0  0  0  0  0  0  0
  -33.3642    7.9761  -27.2366 O   0  0  0  0  0  0  0  0  0  0  0  0
  -32.6030   11.5732  -27.1214 H   0  0  0  0  0  0  0  0  0  0  0  0
  -33.4396   10.6966  -28.9993 H   0  0  0  0  0  0  0  0  0  0  0  0
  -35.1038    9.9757  -21.7513 N   0  0  0  0  0  0  0  0  0  0  0  0
  -35.4738   10.4719  -22.9487 C   0  0  0  0  0  0  0  0  0  0  0  0
  -34.8548   10.1625  -24.1016 N   0  0  0  0  0  0  0  0  0  0  0  0
  -33.8085    9.3089  -24.1115 C   0  0  0  0  0  0  0  0  0  0  0  0
  -33.3417    8.7256  -22.8509 C   0  0  0  0  0  0  0  0  0  0  0  0
  -34.0690    9.1142  -21.6247 C   0  0  0  0  0  0  0  0  0  0  0  0
  -33.6635    8.5698  -20.3020 N   0  0  0  0  0  0  0  0  0  0  0  0
  -32.2963    7.9364  -23.1593 N   0  0  0  0  0  0  0  0  0  0  0  0
  -32.1116    8.0001  -24.5024 C   0  0  0  0  0  0  0  0  0  0  0  0
  -33.0122    8.8260  -25.0582 N   0  0  0  0  0  0  0  0  0  0  0  0
  -34.1534    8.8338  -19.4899 H   0  0  0  0  0  0  0  0  0  0  0  0
  -32.9051    7.9454  -20.2382 H   0  0  0  0  0  0  0  0  0  0  0  0
  -32.2461    6.9939  -29.1058 C   0  0  0  0  0  0  0  0  0  0  0  0
  -30.8499    7.2296  -28.8580 N   0  0  0  0  0  0  0  0  0  0  0  0
  -30.3798    7.1383  -29.7586 H   0  0  0  0  0  0  0  0  0  0  0  0
  -30.0207    6.3455  -27.8301 S   0  0  0  0  0  0  0  0  0  0  0  0
  -31.0096    5.5675  -27.1388 O   0  0  0  0  0  0  0  0  0  0  0  0
  -29.3783    7.2077  -26.8700 O   0  0  0  0  0  0  0  0  0  0  0  0
  -27.5459    5.6013  -30.6770 C   0  0  0  0  0  0  0  0  0  0  0  0
  -28.8202    5.2166  -29.9660 C   0  0  0  0  0  0  0  0  0  0  0  0
  -28.8931    5.5008  -28.6496 N   0  0  0  0  0  0  0  0  0  0  0  0
  -29.7326    4.6907  -30.5920 O   0  0  0  0  0  0  0  0  0  0  0  0
  -28.1558    5.1453  -28.1026 H   0  0  0  0  0  0  0  0  0  0  0  0
 23 25  1  0  0  0
 30 25  1  0  0  0
 25 26  2  0  0  0
 25 27  2  0  0  0
 15 10  2  0  0  0
 10 11  1  0  0  0
 11 12  2  0  0  0
 13 12  1  0  0  0
 14 13  2  0  0  0
 13 19  1  0  0  0
 15 14  1  0  0  0
 17 14  1  0  0  0
 16 15  1  0  0  0
 17 18  2  0  0  0
 18 19  1  0  0  0
 19  1  1  0  0  0
  1  2  1  0  0  0
  1  7  1  0  0  0
  2  3  1  0  0  0
  2  4  1  0  0  0
  4  5  1  0  0  0
  4  6  1  0  0  0
  7  6  1  0  0  0
  6 22  1  0  0  0
 22 23  1  0  0  0
 28 29  1  0  0  0
 31 29  2  0  0  0
 29 30  1  0  0  0
 16 20  1  0  0  0
 16 21  1  0  0  0
  3  8  1  0  0  0
  5  9  1  0  0  0
 23 24  1  0  0  0
 30 32  1  0  0  0
M  END
> <minimizedAffinity>
-6.81050

$$$$
5I2F_BS5_A_201


 32 34  0  0  0  0  0  0  0  0999 V2000
  -33.4469    9.1182  -27.1337 C   0  0  0  0  0  0  0  0  0  0  0  0
  -32.0839    9.5779  -27.6019 C   0  0  0  0  0  0  0  0  0  0  0  0
  -32.0385   11.0042  -27.6154 O   0  0  0  0  0  0  0  0  0  0  0  0
  -31.9698    8.9463  -28.9814 C   0  0  0  0  0  0  0  0  0  0  0  0
  -32.3764    9.8104  -30.0575 O   0  0  0  0  0  0  0  0  0  0  0  0
  -32.9224    7.7645  -28.9057 C   0  0  0  0  0  0  0  0  0  0  0  0
  -33.5672    7.7962  -27.6375 O   0  0  0  0  0  0  0  0  0  0  0  0
  -32.7587   11.3454  -28.1684 H   0  0  0  0  0  0  0  0  0  0  0  0
  -33.3000   10.0768  -29.9270 H   0  0  0  0  0  0  0  0  0  0  0  0
  -31.6060    6.9505  -22.7921 N   0  0  0  0  0  0  0  0  0  0  0  0
  -31.2816    6.7372  -24.0829 C   0  0  0  0  0  0  0  0  0  0  0  0
  -31.8600    7.3863  -25.1087 N   0  0  0  0  0  0  0  0  0  0  0  0
  -32.8147    8.3143  -24.8831 C   0  0  0  0  0  0  0  0  0  0  0  0
  -33.2269    8.6053  -23.5074 C   0  0  0  0  0  0  0  0  0  0  0  0
  -32.5491    7.8507  -22.4327 C   0  0  0  0  0  0  0  0  0  0  0  0
  -32.9046    8.0824  -21.0078 N   0  0  0  0  0  0  0  0  0  0  0  0
  -34.1855    9.5462  -23.5868 N   0  0  0  0  0  0  0  0  0  0  0  0
  -34.3686    9.8409  -24.8990 C   0  0  0  0  0  0  0  0  0  0  0  0
  -33.5530    9.0961  -25.6622 N   0  0  0  0  0  0  0  0  0  0  0  0
  -32.4482    7.5755  -20.2979 H   0  0  0  0  0  0  0  0  0  0  0  0
  -33.5964    8.7428  -20.7742 H   0  0  0  0  0  0  0  0  0  0  0  0
  -32.1835    6.4536  -29.0486 C   0  0  0  0  0  0  0  0  0  0  0  0
  -30.8354    6.7616  -28.6561 N   0  0  0  0  0  0  0  0  0  0  0  0
  -30.3324    6.9895  -29.5136 H   0  0  0  0  0  0  0  0  0  0  0  0
  -29.9312    5.7152  -27.8731 S   0  0  0  0  0  0  0  0  0  0  0  0
  -30.8662    4.8316  -27.2356 O   0  0  0  0  0  0  0  0  0  0  0  0
  -29.1908    6.4012  -26.8440 O   0  0  0  0  0  0  0  0  0  0  0  0
  -27.5598    5.5371  -30.8944 C   0  0  0  0  0  0  0  0  0  0  0  0
  -28.8602    5.0939  -30.2699 C   0  0  0  0  0  0  0  0  0  0  0  0
  -28.8961    5.0213  -28.9237 N   0  0  0  0  0  0  0  0  0  0  0  0
  -29.8234    4.8396  -30.9830 O   0  0  0  0  0  0  0  0  0  0  0  0
  -28.1926    4.4669  -28.5148 H   0  0  0  0  0  0  0  0  0  0  0  0
 23 25  1  0  0  0
 30 25  1  0  0  0
 25 26  2  0  0  0
 25 27  2  0  0  0
 15 10  2  0  0  0
 10 11  1  0  0  0
 11 12  2  0  0  0
 13 12  1  0  0  0
 14 13  2  0  0  0
 13 19  1  0  0  0
 15 14  1  0  0  0
 17 14  1  0  0  0
 16 15  1  0  0  0
 17 18  2  0  0  0
 18 19  1  0  0  0
 19  1  1  0  0  0
  1  2  1  0  0  0
  1  7  1  0  0  0
  2  3  1  0  0  0
  2  4  1  0  0  0
  4  5  1  0  0  0
  4  6  1  0  0  0
  7  6  1  0  0  0
  6 22  1  0  0  0
 22 23  1  0  0  0
 28 29  1  0  0  0
 31 29  2  0  0  0
 29 30  1  0  0  0
 16 20  1  0  0  0
 16 21  1  0  0  0
  3  8  1  0  0  0
  5  9  1  0  0  0
 23 24  1  0  0  0
 30 32  1  0  0  0
M  END
> <minimizedAffinity>
-6.76336

$$$$
5I2F_BS5_A_201


 32 34  0  0  0  0  0  0  0  0999 V2000
  -29.7228    5.4660  -30.2181 C   0  0  0  0  0  0  0  0  0  0  0  0
  -29.3081    5.6761  -28.7787 C   0  0  0  0  0  0  0  0  0  0  0  0
  -29.0070    4.4168  -28.1787 O   0  0  0  0  0  0  0  0  0  0  0  0
  -30.5205    6.3700  -28.1756 C   0  0  0  0  0  0  0  0  0  0  0  0
  -31.4498    5.4767  -27.5365 O   0  0  0  0  0  0  0  0  0  0  0  0
  -31.1931    7.0094  -29.3791 C   0  0  0  0  0  0  0  0  0  0  0  0
  -30.4708    6.6279  -30.5445 O   0  0  0  0  0  0  0  0  0  0  0  0
  -29.7717    3.8264  -28.2653 H   0  0  0  0  0  0  0  0  0  0  0  0
  -31.7687    4.8262  -28.1815 H   0  0  0  0  0  0  0  0  0  0  0  0
  -28.2391    4.5057  -35.0980 N   0  0  0  0  0  0  0  0  0  0  0  0
  -29.4680    4.5267  -34.5445 C   0  0  0  0  0  0  0  0  0  0  0  0
  -29.6904    4.7936  -33.2455 N   0  0  0  0  0  0  0  0  0  0  0  0
  -28.6616    5.0684  -32.4151 C   0  0  0  0  0  0  0  0  0  0  0  0
  -27.2925    5.0646  -32.9373 C   0  0  0  0  0  0  0  0  0  0  0  0
  -27.1257    4.7601  -34.3737 C   0  0  0  0  0  0  0  0  0  0  0  0
  -25.7720    4.7350  -34.9878 N   0  0  0  0  0  0  0  0  0  0  0  0
  -26.4870    5.3553  -31.8993 N   0  0  0  0  0  0  0  0  0  0  0  0
  -27.2703    5.5381  -30.8061 C   0  0  0  0  0  0  0  0  0  0  0  0
  -28.5623    5.3571  -31.1228 N   0  0  0  0  0  0  0  0  0  0  0  0
  -25.6697    4.5312  -35.9455 H   0  0  0  0  0  0  0  0  0  0  0  0
  -24.9780    4.9223  -34.4368 H   0  0  0  0  0  0  0  0  0  0  0  0
  -31.1920    8.5173  -29.2721 C   0  0  0  0  0  0  0  0  0  0  0  0
  -30.9291    8.7740  -27.8824 N   0  0  0  0  0  0  0  0  0  0  0  0
  -31.1493    7.9111  -27.3851 H   0  0  0  0  0  0  0  0  0  0  0  0
  -31.6617    9.9431  -27.0935 S   0  0  0  0  0  0  0  0  0  0  0  0
  -32.2315   10.7721  -28.1179 O   0  0  0  0  0  0  0  0  0  0  0  0
  -30.6819   10.7234  -26.3799 O   0  0  0  0  0  0  0  0  0  0  0  0
  -32.9145    8.6666  -23.6899 C   0  0  0  0  0  0  0  0  0  0  0  0
  -32.5185    8.3314  -25.1070 C   0  0  0  0  0  0  0  0  0  0  0  0
  -32.7160    9.2877  -26.0373 N   0  0  0  0  0  0  0  0  0  0  0  0
  -32.0250    7.2390  -25.3598 O   0  0  0  0  0  0  0  0  0  0  0  0
  -33.6331    9.6426  -26.0855 H   0  0  0  0  0  0  0  0  0  0  0  0
 23 25  1  0  0  0
 30 25  1  0  0  0
 25 26  2  0  0  0
 25 27  2  0  0  0
 15 10  2  0  0  0
 10 11  1  0  0  0
 11 12  2  0  0  0
 13 12  1  0  0  0
 14 13  2  0  0  0
 13 19  1  0  0  0
 15 14  1  0  0  0
 17 14  1  0  0  0
 16 15  1  0  0  0
 17 18  2  0  0  0
 18 19  1  0  0  0
 19  1  1  0  0  0
  1  2  1  0  0  0
  1  7  1  0  0  0
  2  3  1  0  0  0
  2  4  1  0  0  0
  4  5  1  0  0  0
  4  6  1  0  0  0
  7  6  1  0  0  0
  6 22  1  0  0  0
 22 23  1  0  0  0
 28 29  1  0  0  0
 31 29  2  0  0  0
 29 30  1  0  0  0
 16 20  1  0  0  0
 16 21  1  0  0  0
  3  8  1  0  0  0
  5  9  1  0  0  0
 23 24  1  0  0  0
 30 32  1  0  0  0
M  END
> <minimizedAffinity>
-6.64704

$$$$
5I2F_BS5_A_201


 32 34  0  0  0  0  0  0  0  0999 V2000
  -29.1413    4.8847  -31.2599 C   0  0  0  0  0  0  0  0  0  0  0  0
  -28.6676    6.1082  -30.5070 C   0  0  0  0  0  0  0  0  0  0  0  0
  -27.2477    6.0660  -30.3705 O   0  0  0  0  0  0  0  0  0  0  0  0
  -29.4154    6.0026  -29.1861 C   0  0  0  0  0  0  0  0  0  0  0  0
  -28.6699    5.3539  -28.1404 O   0  0  0  0  0  0  0  0  0  0  0  0
  -30.6253    5.1519  -29.5353 C   0  0  0  0  0  0  0  0  0  0  0  0
  -30.5073    4.7517  -30.8959 O   0  0  0  0  0  0  0  0  0  0  0  0
  -26.9889    5.2372  -29.9380 H   0  0  0  0  0  0  0  0  0  0  0  0
  -28.4328    4.4563  -28.4213 H   0  0  0  0  0  0  0  0  0  0  0  0
  -25.8786    4.8532  -35.2961 N   0  0  0  0  0  0  0  0  0  0  0  0
  -25.6492    4.6522  -33.9831 C   0  0  0  0  0  0  0  0  0  0  0  0
  -26.6140    4.6967  -33.0476 N   0  0  0  0  0  0  0  0  0  0  0  0
  -27.8955    4.9444  -33.3942 C   0  0  0  0  0  0  0  0  0  0  0  0
  -28.2300    5.1757  -34.8020 C   0  0  0  0  0  0  0  0  0  0  0  0
  -27.1172    5.1140  -35.7724 C   0  0  0  0  0  0  0  0  0  0  0  0
  -27.3659    5.3360  -37.2212 N   0  0  0  0  0  0  0  0  0  0  0  0
  -29.5552    5.4047  -34.8470 N   0  0  0  0  0  0  0  0  0  0  0  0
  -30.0332    5.3201  -33.5795 C   0  0  0  0  0  0  0  0  0  0  0  0
  -29.0354    5.0536  -32.7218 N   0  0  0  0  0  0  0  0  0  0  0  0
  -26.6190    5.2931  -37.8611 H   0  0  0  0  0  0  0  0  0  0  0  0
  -28.2776    5.5258  -37.5407 H   0  0  0  0  0  0  0  0  0  0  0  0
  -31.9109    5.9278  -29.3612 C   0  0  0  0  0  0  0  0  0  0  0  0
  -31.8365    6.4412  -28.0205 N   0  0  0  0  0  0  0  0  0  0  0  0
  -32.4239    5.8345  -27.4485 H   0  0  0  0  0  0  0  0  0  0  0  0
  -32.2602    7.9322  -27.6699 S   0  0  0  0  0  0  0  0  0  0  0  0
  -31.0278    8.5948  -27.3484 O   0  0  0  0  0  0  0  0  0  0  0  0
  -33.0870    7.9275  -26.4891 O   0  0  0  0  0  0  0  0  0  0  0  0
  -32.7900    9.3459  -31.2061 C   0  0  0  0  0  0  0  0  0  0  0  0
  -32.8039    9.6009  -29.7187 C   0  0  0  0  0  0  0  0  0  0  0  0
  -33.0977    8.5520  -28.9234 N   0  0  0  0  0  0  0  0  0  0  0  0
  -32.5361   10.7165  -29.2890 O   0  0  0  0  0  0  0  0  0  0  0  0
  -33.9434    8.0926  -29.1307 H   0  0  0  0  0  0  0  0  0  0  0  0
 23 25  1  0  0  0
 30 25  1  0  0  0
 25 26  2  0  0  0
 25 27  2  0  0  0
 15 10  2  0  0  0
 10 11  1  0  0  0
 11 12  2  0  0  0
 13 12  1  0  0  0
 14 13  2  0  0  0
 13 19  1  0  0  0
 15 14  1  0  0  0
 17 14  1  0  0  0
 16 15  1  0  0  0
 17 18  2  0  0  0
 18 19  1  0  0  0
 19  1  1  0  0  0
  1  2  1  0  0  0
  1  7  1  0  0  0
  2  3  1  0  0  0
  2  4  1  0  0  0
  4  5  1  0  0  0
  4  6  1  0  0  0
  7  6  1  0  0  0
  6 22  1  0  0  0
 22 23  1  0  0  0
 28 29  1  0  0  0
 31 29  2  0  0  0
 29 30  1  0  0  0
 16 20  1  0  0  0
 16 21  1  0  0  0
  3  8  1  0  0  0
  5  9  1  0  0  0
 23 24  1  0  0  0
 30 32  1  0  0  0
M  END
> <minimizedAffinity>
-6.56736

$$$$
5I2F_BS5_A_201


 32 34  0  0  0  0  0  0  0  0999 V2000
  -32.1100    9.2018  -25.4547 C   0  0  0  0  0  0  0  0  0  0  0  0
  -33.3245    8.4684  -24.9302 C   0  0  0  0  0  0  0  0  0  0  0  0
  -34.2654    9.4088  -24.4138 O   0  0  0  0  0  0  0  0  0  0  0  0
  -32.7327    7.5476  -23.8733 C   0  0  0  0  0  0  0  0  0  0  0  0
  -32.7679    8.0866  -22.5398 O   0  0  0  0  0  0  0  0  0  0  0  0
  -31.2851    7.3968  -24.3106 C   0  0  0  0  0  0  0  0  0  0  0  0
  -31.0771    8.2276  -25.4472 O   0  0  0  0  0  0  0  0  0  0  0  0
  -33.8375    9.9559  -23.7367 H   0  0  0  0  0  0  0  0  0  0  0  0
  -32.2765    8.9226  -22.5159 H   0  0  0  0  0  0  0  0  0  0  0  0
  -33.3509    7.8372  -30.3060 N   0  0  0  0  0  0  0  0  0  0  0  0
  -33.2430    7.0928  -29.1875 C   0  0  0  0  0  0  0  0  0  0  0  0
  -32.9046    7.6012  -27.9895 N   0  0  0  0  0  0  0  0  0  0  0  0
  -32.6583    8.9216  -27.8489 C   0  0  0  0  0  0  0  0  0  0  0  0
  -32.7525    9.8012  -29.0170 C   0  0  0  0  0  0  0  0  0  0  0  0
  -33.1266    9.1708  -30.3001 C   0  0  0  0  0  0  0  0  0  0  0  0
  -33.2458    9.9881  -31.5363 N   0  0  0  0  0  0  0  0  0  0  0  0
  -32.4481   11.0397  -28.5879 N   0  0  0  0  0  0  0  0  0  0  0  0
  -32.1885   10.9649  -27.2579 C   0  0  0  0  0  0  0  0  0  0  0  0
  -32.3089    9.6981  -26.8300 N   0  0  0  0  0  0  0  0  0  0  0  0
  -33.4955    9.5603  -32.3871 H   0  0  0  0  0  0  0  0  0  0  0  0
  -33.0751   10.9572  -31.5040 H   0  0  0  0  0  0  0  0  0  0  0  0
  -30.9703    5.9661  -24.6836 C   0  0  0  0  0  0  0  0  0  0  0  0
  -30.7486    6.0102  -26.1032 N   0  0  0  0  0  0  0  0  0  0  0  0
  -31.6355    6.2890  -26.5230 H   0  0  0  0  0  0  0  0  0  0  0  0
  -30.2524    4.7363  -26.9134 S   0  0  0  0  0  0  0  0  0  0  0  0
  -31.1475    3.6844  -26.5216 O   0  0  0  0  0  0  0  0  0  0  0  0
  -28.9256    4.3806  -26.4763 O   0  0  0  0  0  0  0  0  0  0  0  0
  -28.6870    5.7089  -30.2879 C   0  0  0  0  0  0  0  0  0  0  0  0
  -29.5945    6.0988  -29.1468 C   0  0  0  0  0  0  0  0  0  0  0  0
  -30.2279    5.0975  -28.5026 N   0  0  0  0  0  0  0  0  0  0  0  0
  -29.7101    7.2781  -28.8356 O   0  0  0  0  0  0  0  0  0  0  0  0
  -30.7536    4.4955  -29.0775 H   0  0  0  0  0  0  0  0  0  0  0  0
 23 25  1  0  0  0
 30 25  1  0  0  0
 25 26  2  0  0  0
 25 27  2  0  0  0
 15 10  2  0  0  0
 10 11  1  0  0  0
 11 12  2  0  0  0
 13 12  1  0  0  0
 14 13  2  0  0  0
 13 19  1  0  0  0
 15 14  1  0  0  0
 17 14  1  0  0  0
 16 15  1  0  0  0
 17 18  2  0  0  0
 18 19  1  0  0  0
 19  1  1  0  0  0
  1  2  1  0  0  0
  1  7  1  0  0  0
  2  3  1  0  0  0
  2  4  1  0  0  0
  4  5  1  0  0  0
  4  6  1  0  0  0
  7  6  1  0  0  0
  6 22  1  0  0  0
 22 23  1  0  0  0
 28 29  1  0  0  0
 31 29  2  0  0  0
 29 30  1  0  0  0
 16 20  1  0  0  0
 16 21  1  0  0  0
  3  8  1  0  0  0
  5  9  1  0  0  0
 23 24  1  0  0  0
 30 32  1  0  0  0
M  END
> <minimizedAffinity>
-6.49345

$$$$
5I2F_BS5_A_201


 32 34  0  0  0  0  0  0  0  0999 V2000
  -30.1596    7.0533  -25.9572 C   0  0  0  0  0  0  0  0  0  0  0  0
  -30.5471    5.7962  -26.7040 C   0  0  0  0  0  0  0  0  0  0  0  0
  -29.9263    4.6659  -26.0930 O   0  0  0  0  0  0  0  0  0  0  0  0
  -30.0568    6.0778  -28.1166 C   0  0  0  0  0  0  0  0  0  0  0  0
  -28.7427    5.5621  -28.3949 O   0  0  0  0  0  0  0  0  0  0  0  0
  -30.0185    7.5958  -28.1783 C   0  0  0  0  0  0  0  0  0  0  0  0
  -30.3668    8.1000  -26.8939 O   0  0  0  0  0  0  0  0  0  0  0  0
  -28.9663    4.8017  -26.0620 H   0  0  0  0  0  0  0  0  0  0  0  0
  -28.1053    5.9499  -27.7752 H   0  0  0  0  0  0  0  0  0  0  0  0
  -33.9991    9.9373  -23.9880 N   0  0  0  0  0  0  0  0  0  0  0  0
  -33.4000    9.9830  -25.1946 C   0  0  0  0  0  0  0  0  0  0  0  0
  -32.4029    9.1572  -25.5579 N   0  0  0  0  0  0  0  0  0  0  0  0
  -31.9499    8.2117  -24.7067 C   0  0  0  0  0  0  0  0  0  0  0  0
  -32.5469    8.0959  -23.3735 C   0  0  0  0  0  0  0  0  0  0  0  0
  -33.6356    9.0393  -23.0443 C   0  0  0  0  0  0  0  0  0  0  0  0
  -34.2984    8.9927  -21.7143 N   0  0  0  0  0  0  0  0  0  0  0  0
  -31.8999    7.0936  -22.7511 N   0  0  0  0  0  0  0  0  0  0  0  0
  -30.9727    6.6020  -23.6118 C   0  0  0  0  0  0  0  0  0  0  0  0
  -31.0058    7.2800  -24.7699 N   0  0  0  0  0  0  0  0  0  0  0  0
  -35.0230    9.6249  -21.5030 H   0  0  0  0  0  0  0  0  0  0  0  0
  -34.0128    8.3297  -21.0450 H   0  0  0  0  0  0  0  0  0  0  0  0
  -30.9990    8.1289  -29.1978 C   0  0  0  0  0  0  0  0  0  0  0  0
  -31.7750    9.0966  -28.4714 N   0  0  0  0  0  0  0  0  0  0  0  0
  -32.2501    8.5836  -27.7287 H   0  0  0  0  0  0  0  0  0  0  0  0
  -32.8859    9.9835  -29.1821 S   0  0  0  0  0  0  0  0  0  0  0  0
  -32.3944   10.1819  -30.5164 O   0  0  0  0  0  0  0  0  0  0  0  0
  -32.9549   11.2697  -28.5348 O   0  0  0  0  0  0  0  0  0  0  0  0
  -35.8796    8.3688  -27.3895 C   0  0  0  0  0  0  0  0  0  0  0  0
  -34.6810    8.1798  -28.2868 C   0  0  0  0  0  0  0  0  0  0  0  0
  -34.3248    9.2283  -29.0566 N   0  0  0  0  0  0  0  0  0  0  0  0
  -34.0724    7.1166  -28.2750 O   0  0  0  0  0  0  0  0  0  0  0  0
  -35.0401    9.5915  -29.6274 H   0  0  0  0  0  0  0  0  0  0  0  0
 23 25  1  0  0  0
 30 25  1  0  0  0
 25 26  2  0  0  0
 25 27  2  0  0  0
 15 10  2  0  0  0
 10 11  1  0  0  0
 11 12  2  0  0  0
 13 12  1  0  0  0
 14 13  2  0  0  0
 13 19  1  0  0  0
 15 14  1  0  0  0
 17 14  1  0  0  0
 16 15  1  0  0  0
 17 18  2  0  0  0
 18 19  1  0  0  0
 19  1  1  0  0  0
  1  2  1  0  0  0
  1  7  1  0  0  0
  2  3  1  0  0  0
  2  4  1  0  0  0
  4  5  1  0  0  0
  4  6  1  0  0  0
  7  6  1  0  0  0
  6 22  1  0  0  0
 22 23  1  0  0  0
 28 29  1  0  0  0
 31 29  2  0  0  0
 29 30  1  0  0  0
 16 20  1  0  0  0
 16 21  1  0  0  0
  3  8  1  0  0  0
  5  9  1  0  0  0
 23 24  1  0  0  0
 30 32  1  0  0  0
M  END
> <minimizedAffinity>
-6.42497

$$$$
5I2F_BS5_A_201


 32 34  0  0  0  0  0  0  0  0999 V2000
  -30.3787    5.8958  -30.7756 C   0  0  0  0  0  0  0  0  0  0  0  0
  -30.6556    5.2072  -29.4575 C   0  0  0  0  0  0  0  0  0  0  0  0
  -31.0590    3.8594  -29.6972 O   0  0  0  0  0  0  0  0  0  0  0  0
  -31.7450    6.0751  -28.8452 C   0  0  0  0  0  0  0  0  0  0  0  0
  -33.0813    5.6098  -29.1059 O   0  0  0  0  0  0  0  0  0  0  0  0
  -31.5454    7.4197  -29.5248 C   0  0  0  0  0  0  0  0  0  0  0  0
  -30.5047    7.2800  -30.4854 O   0  0  0  0  0  0  0  0  0  0  0  0
  -31.8257    3.8522  -30.2914 H   0  0  0  0  0  0  0  0  0  0  0  0
  -33.2306    5.5754  -30.0637 H   0  0  0  0  0  0  0  0  0  0  0  0
  -27.5894    4.5903  -34.9532 N   0  0  0  0  0  0  0  0  0  0  0  0
  -28.9169    4.7749  -34.8094 C   0  0  0  0  0  0  0  0  0  0  0  0
  -29.4953    5.1134  -33.6437 N   0  0  0  0  0  0  0  0  0  0  0  0
  -28.7478    5.2966  -32.5340 C   0  0  0  0  0  0  0  0  0  0  0  0
  -27.2956    5.1138  -32.6045 C   0  0  0  0  0  0  0  0  0  0  0  0
  -26.7319    4.7393  -33.9182 C   0  0  0  0  0  0  0  0  0  0  0  0
  -25.2685    4.5339  -34.0808 N   0  0  0  0  0  0  0  0  0  0  0  0
  -26.8210    5.3464  -31.3670 N   0  0  0  0  0  0  0  0  0  0  0  0
  -27.8751    5.6594  -30.5714 C   0  0  0  0  0  0  0  0  0  0  0  0
  -29.0180    5.6190  -31.2745 N   0  0  0  0  0  0  0  0  0  0  0  0
  -24.9010    4.2845  -34.9594 H   0  0  0  0  0  0  0  0  0  0  0  0
  -24.6668    4.6473  -33.3098 H   0  0  0  0  0  0  0  0  0  0  0  0
  -31.1537    8.4862  -28.5277 C   0  0  0  0  0  0  0  0  0  0  0  0
  -31.5197    7.9316  -27.2530 N   0  0  0  0  0  0  0  0  0  0  0  0
  -32.4651    8.2610  -27.0582 H   0  0  0  0  0  0  0  0  0  0  0  0
  -30.6691    8.2152  -25.9409 S   0  0  0  0  0  0  0  0  0  0  0  0
  -31.6289    8.6750  -24.9773 O   0  0  0  0  0  0  0  0  0  0  0  0
  -29.7421    9.2891  -26.1967 O   0  0  0  0  0  0  0  0  0  0  0  0
  -29.1214    4.7369  -26.4790 C   0  0  0  0  0  0  0  0  0  0  0  0
  -30.1576    5.5721  -25.7676 C   0  0  0  0  0  0  0  0  0  0  0  0
  -29.8478    6.8651  -25.5417 N   0  0  0  0  0  0  0  0  0  0  0  0
  -31.2272    5.0702  -25.4434 O   0  0  0  0  0  0  0  0  0  0  0  0
  -28.9997    7.0158  -25.0649 H   0  0  0  0  0  0  0  0  0  0  0  0
 23 25  1  0  0  0
 30 25  1  0  0  0
 25 26  2  0  0  0
 25 27  2  0  0  0
 15 10  2  0  0  0
 10 11  1  0  0  0
 11 12  2  0  0  0
 13 12  1  0  0  0
 14 13  2  0  0  0
 13 19  1  0  0  0
 15 14  1  0  0  0
 17 14  1  0  0  0
 16 15  1  0  0  0
 17 18  2  0  0  0
 18 19  1  0  0  0
 19  1  1  0  0  0
  1  2  1  0  0  0
  1  7  1  0  0  0
  2  3  1  0  0  0
  2  4  1  0  0  0
  4  5  1  0  0  0
  4  6  1  0  0  0
  7  6  1  0  0  0
  6 22  1  0  0  0
 22 23  1  0  0  0
 28 29  1  0  0  0
 31 29  2  0  0  0
 29 30  1  0  0  0
 16 20  1  0  0  0
 16 21  1  0  0  0
  3  8  1  0  0  0
  5  9  1  0  0  0
 23 24  1  0  0  0
 30 32  1  0  0  0
M  END
> <minimizedAffinity>
-6.32366

$$$$
5I2F_BS5_A_201


 32 34  0  0  0  0  0  0  0  0999 V2000
  -30.0913    6.9484  -25.9962 C   0  0  0  0  0  0  0  0  0  0  0  0
  -30.5495    5.7511  -26.7991 C   0  0  0  0  0  0  0  0  0  0  0  0
  -30.0225    4.5574  -26.2213 O   0  0  0  0  0  0  0  0  0  0  0  0
  -30.0103    6.0507  -28.1900 C   0  0  0  0  0  0  0  0  0  0  0  0
  -28.7298    5.4543  -28.4635 O   0  0  0  0  0  0  0  0  0  0  0  0
  -29.8647    7.5634  -28.1912 C   0  0  0  0  0  0  0  0  0  0  0  0
  -30.2046    8.0419  -26.8948 O   0  0  0  0  0  0  0  0  0  0  0  0
  -29.0563    4.6237  -26.1669 H   0  0  0  0  0  0  0  0  0  0  0  0
  -28.0803    5.7723  -27.8170 H   0  0  0  0  0  0  0  0  0  0  0  0
  -33.8981    9.8989  -24.0622 N   0  0  0  0  0  0  0  0  0  0  0  0
  -33.2863    9.9349  -25.2628 C   0  0  0  0  0  0  0  0  0  0  0  0
  -32.3006    9.0917  -25.6170 N   0  0  0  0  0  0  0  0  0  0  0  0
  -31.8730    8.1376  -24.7623 C   0  0  0  0  0  0  0  0  0  0  0  0
  -32.4852    8.0314  -23.4352 C   0  0  0  0  0  0  0  0  0  0  0  0
  -33.5601    8.9938  -23.1159 C   0  0  0  0  0  0  0  0  0  0  0  0
  -34.2368    8.9580  -21.7926 N   0  0  0  0  0  0  0  0  0  0  0  0
  -31.8623    7.0172  -22.8075 N   0  0  0  0  0  0  0  0  0  0  0  0
  -30.9356    6.5098  -23.6594 C   0  0  0  0  0  0  0  0  0  0  0  0
  -30.9451    7.1893  -24.8171 N   0  0  0  0  0  0  0  0  0  0  0  0
  -34.9520    9.6028  -21.5878 H   0  0  0  0  0  0  0  0  0  0  0  0
  -33.9696    8.2894  -21.1211 H   0  0  0  0  0  0  0  0  0  0  0  0
  -30.7833    8.2027  -29.2073 C   0  0  0  0  0  0  0  0  0  0  0  0
  -31.9901    8.4723  -28.4743 N   0  0  0  0  0  0  0  0  0  0  0  0
  -31.9061    7.9710  -27.5900 H   0  0  0  0  0  0  0  0  0  0  0  0
  -33.4232    8.1103  -29.0581 S   0  0  0  0  0  0  0  0  0  0  0  0
  -34.1314    7.5316  -27.9514 O   0  0  0  0  0  0  0  0  0  0  0  0
  -33.2817    7.0999  -30.0764 O   0  0  0  0  0  0  0  0  0  0  0  0
  -33.8189   10.9864  -31.5791 C   0  0  0  0  0  0  0  0  0  0  0  0
  -33.4852   10.5684  -30.1679 C   0  0  0  0  0  0  0  0  0  0  0  0
  -34.0844    9.4523  -29.7052 N   0  0  0  0  0  0  0  0  0  0  0  0
  -32.6873   11.2254  -29.5101 O   0  0  0  0  0  0  0  0  0  0  0  0
  -35.0669    9.4474  -29.7675 H   0  0  0  0  0  0  0  0  0  0  0  0
 23 25  1  0  0  0
 30 25  1  0  0  0
 25 26  2  0  0  0
 25 27  2  0  0  0
 15 10  2  0  0  0
 10 11  1  0  0  0
 11 12  2  0  0  0
 13 12  1  0  0  0
 14 13  2  0  0  0
 13 19  1  0  0  0
 15 14  1  0  0  0
 17 14  1  0  0  0
 16 15  1  0  0  0
 17 18  2  0  0  0
 18 19  1  0  0  0
 19  1  1  0  0  0
  1  2  1  0  0  0
  1  7  1  0  0  0
  2  3  1  0  0  0
  2  4  1  0  0  0
  4  5  1  0  0  0
  4  6  1  0  0  0
  7  6  1  0  0  0
  6 22  1  0  0  0
 22 23  1  0  0  0
 28 29  1  0  0  0
 31 29  2  0  0  0
 29 30  1  0  0  0
 16 20  1  0  0  0
 16 21  1  0  0  0
  3  8  1  0  0  0
  5  9  1  0  0  0
 23 24  1  0  0  0
 30 32  1  0  0  0
M  END
> <minimizedAffinity>
-6.14892

$$$$
