2Q8Z_NUP_A_401


 29 30  0  0  0  0  0  0  0  0999 V2000
    8.3570  -25.8925  -24.4042 C   0  0  0  0  0  0  0  0  0  0  0  0
    7.6584  -26.6847  -25.3736 O   0  0  0  0  0  0  0  0  0  0  0  0
    9.2948  -26.8644  -23.6746 C   0  0  0  0  0  0  0  0  0  0  0  0
   10.5000  -26.3115  -23.1134 O   0  0  0  0  0  0  0  0  0  0  0  0
    9.5876  -27.8577  -24.7989 C   0  0  0  0  0  0  0  0  0  0  0  0
   10.5763  -27.2720  -25.6551 O   0  0  0  0  0  0  0  0  0  0  0  0
    8.2655  -27.9517  -25.5580 C   0  0  0  0  0  0  0  0  0  0  0  0
   11.0280  -25.9048  -23.8182 H   0  0  0  0  0  0  0  0  0  0  0  0
   10.2627  -26.4091  -25.9680 H   0  0  0  0  0  0  0  0  0  0  0  0
    5.1215  -23.2740  -20.8924 O   0  0  0  0  0  0  0  0  0  0  0  0
    5.8565  -23.8494  -21.6968 C   0  0  0  0  0  0  0  0  0  0  0  0
    5.8774  -25.1897  -21.6791 N   0  0  0  0  0  0  0  0  0  0  0  0
    6.6608  -25.8909  -22.5303 C   0  0  0  0  0  0  0  0  0  0  0  0
    6.6585  -27.1402  -22.4896 O   0  0  0  0  0  0  0  0  0  0  0  0
    6.5938  -23.0831  -22.6002 C   0  0  0  0  0  0  0  0  0  0  0  0
    7.4024  -23.7839  -23.4728 C   0  0  0  0  0  0  0  0  0  0  0  0
    8.1369  -23.0966  -24.3695 N   0  0  0  0  0  0  0  0  0  0  0  0
    7.4651  -25.2011  -23.4553 N   0  0  0  0  0  0  0  0  0  0  0  0
    5.3118  -25.6730  -21.0342 H   0  0  0  0  0  0  0  0  0  0  0  0
    8.0981  -22.1130  -24.3872 H   0  0  0  0  0  0  0  0  0  0  0  0
    8.7123  -23.5780  -25.0070 H   0  0  0  0  0  0  0  0  0  0  0  0
    7.3206  -29.0372  -25.0529 C   0  0  0  0  0  0  0  0  0  0  0  0
    6.0389  -28.7530  -25.5796 O   0  0  0  0  0  0  0  0  0  0  0  0
    5.0678  -29.8725  -26.2233 P   0  0  0  0  0  0  0  0  0  0  0  0
    4.3241  -30.6317  -25.1293 O   0  0  0  0  0  0  0  0  0  0  0  0
    4.1659  -29.0425  -27.1008 O   0  0  0  0  0  0  0  0  0  0  0  0
    5.9936  -30.7930  -26.9847 O   0  0  0  0  0  0  0  0  0  0  0  0
    3.6036  -28.4796  -26.5459 H   0  0  0  0  0  0  0  0  0  0  0  0
    6.5404  -31.2922  -26.3581 H   0  0  0  0  0  0  0  0  0  0  0  0
 10 11  2  0  0  0
 11 12  1  0  0  0
 11 15  1  0  0  0
 12 13  1  0  0  0
 13 14  2  0  0  0
 13 18  1  0  0  0
 15 16  2  0  0  0
 16 18  1  0  0  0
 16 17  1  0  0  0
 18  1  1  0  0  0
  1  3  1  0  0  0
  1  2  1  0  0  0
  2  7  1  0  0  0
  3  4  1  0  0  0
  3  5  1  0  0  0
  5  6  1  0  0  0
  5  7  1  0  0  0
  7 22  1  0  0  0
 22 23  1  0  0  0
 23 24  1  0  0  0
 24 25  2  0  0  0
 24 26  1  0  0  0
 24 27  1  0  0  0
 12 19  1  0  0  0
 17 20  1  0  0  0
 17 21  1  0  0  0
  4  8  1  0  0  0
  6  9  1  0  0  0
 26 28  1  0  0  0
 27 29  1  0  0  0
M  END
> <minimizedAffinity>
-9.98071

$$$$
2Q8Z_NUP_A_401


 29 30  0  0  0  0  0  0  0  0999 V2000
    8.3930  -25.7485  -24.3848 C   0  0  0  0  0  0  0  0  0  0  0  0
    7.7030  -26.3798  -25.4713 O   0  0  0  0  0  0  0  0  0  0  0  0
    9.1882  -26.8659  -23.6953 C   0  0  0  0  0  0  0  0  0  0  0  0
   10.3914  -26.4804  -23.0046 O   0  0  0  0  0  0  0  0  0  0  0  0
    9.4776  -27.7732  -24.8908 C   0  0  0  0  0  0  0  0  0  0  0  0
   10.5730  -27.2040  -25.6185 O   0  0  0  0  0  0  0  0  0  0  0  0
    8.2120  -27.6746  -25.7402 C   0  0  0  0  0  0  0  0  0  0  0  0
   11.0027  -26.0603  -23.6297 H   0  0  0  0  0  0  0  0  0  0  0  0
   10.3580  -26.2906  -25.8643 H   0  0  0  0  0  0  0  0  0  0  0  0
    5.1368  -23.1740  -20.8595 O   0  0  0  0  0  0  0  0  0  0  0  0
    5.8764  -23.7394  -21.6668 C   0  0  0  0  0  0  0  0  0  0  0  0
    5.9054  -25.0796  -21.6584 N   0  0  0  0  0  0  0  0  0  0  0  0
    6.6942  -25.7701  -22.5133 C   0  0  0  0  0  0  0  0  0  0  0  0
    6.6994  -27.0197  -22.4814 O   0  0  0  0  0  0  0  0  0  0  0  0
    6.6103  -22.9624  -22.5638 C   0  0  0  0  0  0  0  0  0  0  0  0
    7.4243  -23.6522  -23.4401 C   0  0  0  0  0  0  0  0  0  0  0  0
    8.1560  -22.9542  -24.3310 N   0  0  0  0  0  0  0  0  0  0  0  0
    7.4956  -25.0691  -23.4324 N   0  0  0  0  0  0  0  0  0  0  0  0
    5.3418  -25.5708  -21.0178 H   0  0  0  0  0  0  0  0  0  0  0  0
    8.1113  -21.9708  -24.3418 H   0  0  0  0  0  0  0  0  0  0  0  0
    8.7352  -23.4277  -24.9709 H   0  0  0  0  0  0  0  0  0  0  0  0
    7.1433  -28.7109  -25.4078 C   0  0  0  0  0  0  0  0  0  0  0  0
    7.2155  -29.7175  -26.3990 O   0  0  0  0  0  0  0  0  0  0  0  0
    7.9451  -31.1418  -26.1761 P   0  0  0  0  0  0  0  0  0  0  0  0
    6.9728  -32.2891  -26.4307 O   0  0  0  0  0  0  0  0  0  0  0  0
    9.0756  -31.0777  -27.1711 O   0  0  0  0  0  0  0  0  0  0  0  0
    8.3915  -31.1237  -24.7323 O   0  0  0  0  0  0  0  0  0  0  0  0
    8.7151  -31.0934  -28.0715 H   0  0  0  0  0  0  0  0  0  0  0  0
    7.6146  -31.1673  -24.1531 H   0  0  0  0  0  0  0  0  0  0  0  0
 10 11  2  0  0  0
 11 12  1  0  0  0
 11 15  1  0  0  0
 12 13  1  0  0  0
 13 14  2  0  0  0
 13 18  1  0  0  0
 15 16  2  0  0  0
 16 18  1  0  0  0
 16 17  1  0  0  0
 18  1  1  0  0  0
  1  3  1  0  0  0
  1  2  1  0  0  0
  2  7  1  0  0  0
  3  4  1  0  0  0
  3  5  1  0  0  0
  5  6  1  0  0  0
  5  7  1  0  0  0
  7 22  1  0  0  0
 22 23  1  0  0  0
 23 24  1  0  0  0
 24 25  2  0  0  0
 24 26  1  0  0  0
 24 27  1  0  0  0
 12 19  1  0  0  0
 17 20  1  0  0  0
 17 21  1  0  0  0
  4  8  1  0  0  0
  6  9  1  0  0  0
 26 28  1  0  0  0
 27 29  1  0  0  0
M  END
> <minimizedAffinity>
-9.93014

$$$$
2Q8Z_NUP_A_401


 29 30  0  0  0  0  0  0  0  0999 V2000
    8.6621  -28.5299  -24.0873 C   0  0  0  0  0  0  0  0  0  0  0  0
    7.9654  -28.0834  -22.9166 O   0  0  0  0  0  0  0  0  0  0  0  0
    9.0298  -27.2558  -24.8605 C   0  0  0  0  0  0  0  0  0  0  0  0
   10.1976  -27.3160  -25.7006 O   0  0  0  0  0  0  0  0  0  0  0  0
    9.2053  -26.2741  -23.7022 C   0  0  0  0  0  0  0  0  0  0  0  0
   10.4958  -26.5047  -23.1235 O   0  0  0  0  0  0  0  0  0  0  0  0
    8.1299  -26.6925  -22.7014 C   0  0  0  0  0  0  0  0  0  0  0  0
   10.9728  -27.5377  -25.1614 H   0  0  0  0  0  0  0  0  0  0  0  0
   10.5709  -27.4356  -22.8614 H   0  0  0  0  0  0  0  0  0  0  0  0
    5.8259  -31.9602  -27.2252 O   0  0  0  0  0  0  0  0  0  0  0  0
    6.4811  -31.1984  -26.5120 C   0  0  0  0  0  0  0  0  0  0  0  0
    5.9127  -30.0418  -26.1425 N   0  0  0  0  0  0  0  0  0  0  0  0
    6.5707  -29.1541  -25.3622 C   0  0  0  0  0  0  0  0  0  0  0  0
    6.0141  -28.0840  -25.0342 O   0  0  0  0  0  0  0  0  0  0  0  0
    7.7545  -31.5928  -26.1000 C   0  0  0  0  0  0  0  0  0  0  0  0
    8.4414  -30.6953  -25.3069 C   0  0  0  0  0  0  0  0  0  0  0  0
    9.6760  -31.0228  -24.8773 N   0  0  0  0  0  0  0  0  0  0  0  0
    7.8743  -29.4519  -24.9257 N   0  0  0  0  0  0  0  0  0  0  0  0
    4.9989  -29.8346  -26.4447 H   0  0  0  0  0  0  0  0  0  0  0  0
   10.0755  -31.8840  -25.1380 H   0  0  0  0  0  0  0  0  0  0  0  0
   10.1784  -30.4009  -24.3028 H   0  0  0  0  0  0  0  0  0  0  0  0
    6.7860  -25.9954  -22.8869 C   0  0  0  0  0  0  0  0  0  0  0  0
    7.0361  -24.6032  -22.8990 O   0  0  0  0  0  0  0  0  0  0  0  0
    6.9153  -23.6612  -21.5918 P   0  0  0  0  0  0  0  0  0  0  0  0
    5.7074  -24.0616  -20.7510 O   0  0  0  0  0  0  0  0  0  0  0  0
    8.2349  -23.9027  -20.9044 O   0  0  0  0  0  0  0  0  0  0  0  0
    6.7512  -22.2622  -22.1396 O   0  0  0  0  0  0  0  0  0  0  0  0
    8.2684  -24.8164  -20.5805 H   0  0  0  0  0  0  0  0  0  0  0  0
    5.8834  -22.1814  -22.5653 H   0  0  0  0  0  0  0  0  0  0  0  0
 10 11  2  0  0  0
 11 12  1  0  0  0
 11 15  1  0  0  0
 12 13  1  0  0  0
 13 14  2  0  0  0
 13 18  1  0  0  0
 15 16  2  0  0  0
 16 18  1  0  0  0
 16 17  1  0  0  0
 18  1  1  0  0  0
  1  3  1  0  0  0
  1  2  1  0  0  0
  2  7  1  0  0  0
  3  4  1  0  0  0
  3  5  1  0  0  0
  5  6  1  0  0  0
  5  7  1  0  0  0
  7 22  1  0  0  0
 22 23  1  0  0  0
 23 24  1  0  0  0
 24 25  2  0  0  0
 24 26  1  0  0  0
 24 27  1  0  0  0
 12 19  1  0  0  0
 17 20  1  0  0  0
 17 21  1  0  0  0
  4  8  1  0  0  0
  6  9  1  0  0  0
 26 28  1  0  0  0
 27 29  1  0  0  0
M  END
> <minimizedAffinity>
-9.06271

$$$$
2Q8Z_NUP_A_401


 29 30  0  0  0  0  0  0  0  0999 V2000
    9.1137  -28.7479  -24.7575 C   0  0  0  0  0  0  0  0  0  0  0  0
    8.7240  -28.7438  -26.1372 O   0  0  0  0  0  0  0  0  0  0  0  0
    8.5668  -30.0597  -24.1775 C   0  0  0  0  0  0  0  0  0  0  0  0
    9.2738  -30.6231  -23.0568 O   0  0  0  0  0  0  0  0  0  0  0  0
    8.6403  -30.9566  -25.4130 C   0  0  0  0  0  0  0  0  0  0  0  0
    9.9991  -31.3862  -25.5629 O   0  0  0  0  0  0  0  0  0  0  0  0
    8.2848  -30.0208  -26.5666 C   0  0  0  0  0  0  0  0  0  0  0  0
   10.1925  -30.8027  -23.3113 H   0  0  0  0  0  0  0  0  0  0  0  0
   10.5802  -30.6108  -25.6079 H   0  0  0  0  0  0  0  0  0  0  0  0
    7.2160  -24.4350  -22.0271 O   0  0  0  0  0  0  0  0  0  0  0  0
    7.6267  -25.4171  -22.6477 C   0  0  0  0  0  0  0  0  0  0  0  0
    8.9403  -25.6815  -22.6045 N   0  0  0  0  0  0  0  0  0  0  0  0
    9.4652  -26.7406  -23.2622 C   0  0  0  0  0  0  0  0  0  0  0  0
   10.6941  -26.9612  -23.2028 O   0  0  0  0  0  0  0  0  0  0  0  0
    6.7058  -26.2162  -23.3263 C   0  0  0  0  0  0  0  0  0  0  0  0
    7.2265  -27.2988  -24.0068 C   0  0  0  0  0  0  0  0  0  0  0  0
    6.3841  -28.1076  -24.6794 N   0  0  0  0  0  0  0  0  0  0  0  0
    8.6162  -27.5840  -24.0014 N   0  0  0  0  0  0  0  0  0  0  0  0
    9.5343  -25.0935  -22.0842 H   0  0  0  0  0  0  0  0  0  0  0  0
    5.4185  -27.9155  -24.6873 H   0  0  0  0  0  0  0  0  0  0  0  0
    6.7343  -28.8904  -25.1630 H   0  0  0  0  0  0  0  0  0  0  0  0
    6.7963  -29.9540  -26.8928 C   0  0  0  0  0  0  0  0  0  0  0  0
    6.1490  -30.9209  -26.0884 O   0  0  0  0  0  0  0  0  0  0  0  0
    4.5794  -31.2832  -26.2139 P   0  0  0  0  0  0  0  0  0  0  0  0
    4.0088  -31.6777  -24.8555 O   0  0  0  0  0  0  0  0  0  0  0  0
    4.0017  -30.0032  -26.7616 O   0  0  0  0  0  0  0  0  0  0  0  0
    4.5289  -32.4459  -27.1782 O   0  0  0  0  0  0  0  0  0  0  0  0
    4.0682  -29.3055  -26.0911 H   0  0  0  0  0  0  0  0  0  0  0  0
    4.9158  -33.2305  -26.7592 H   0  0  0  0  0  0  0  0  0  0  0  0
 10 11  2  0  0  0
 11 12  1  0  0  0
 11 15  1  0  0  0
 12 13  1  0  0  0
 13 14  2  0  0  0
 13 18  1  0  0  0
 15 16  2  0  0  0
 16 18  1  0  0  0
 16 17  1  0  0  0
 18  1  1  0  0  0
  1  3  1  0  0  0
  1  2  1  0  0  0
  2  7  1  0  0  0
  3  4  1  0  0  0
  3  5  1  0  0  0
  5  6  1  0  0  0
  5  7  1  0  0  0
  7 22  1  0  0  0
 22 23  1  0  0  0
 23 24  1  0  0  0
 24 25  2  0  0  0
 24 26  1  0  0  0
 24 27  1  0  0  0
 12 19  1  0  0  0
 17 20  1  0  0  0
 17 21  1  0  0  0
  4  8  1  0  0  0
  6  9  1  0  0  0
 26 28  1  0  0  0
 27 29  1  0  0  0
M  END
> <minimizedAffinity>
-8.77413

$$$$
2Q8Z_NUP_A_401


 29 30  0  0  0  0  0  0  0  0999 V2000
    8.2172  -29.2127  -25.1884 C   0  0  0  0  0  0  0  0  0  0  0  0
    8.1201  -28.8211  -23.8127 O   0  0  0  0  0  0  0  0  0  0  0  0
    8.2059  -27.9049  -25.9921 C   0  0  0  0  0  0  0  0  0  0  0  0
    8.8741  -27.9166  -27.2676 O   0  0  0  0  0  0  0  0  0  0  0  0
    8.8857  -26.9659  -24.9959 C   0  0  0  0  0  0  0  0  0  0  0  0
   10.2977  -27.2004  -25.0655 O   0  0  0  0  0  0  0  0  0  0  0  0
    8.3699  -27.4373  -23.6377 C   0  0  0  0  0  0  0  0  0  0  0  0
    9.8076  -28.1479  -27.1414 H   0  0  0  0  0  0  0  0  0  0  0  0
   10.4779  -28.1395  -24.9026 H   0  0  0  0  0  0  0  0  0  0  0  0
    4.2665  -32.5708  -26.8537 O   0  0  0  0  0  0  0  0  0  0  0  0
    5.1733  -31.8261  -26.4773 C   0  0  0  0  0  0  0  0  0  0  0  0
    4.8386  -30.6073  -26.0303 N   0  0  0  0  0  0  0  0  0  0  0  0
    5.7789  -29.7339  -25.6028 C   0  0  0  0  0  0  0  0  0  0  0  0
    5.4356  -28.6045  -25.1915 O   0  0  0  0  0  0  0  0  0  0  0  0
    6.4854  -32.3002  -26.5016 C   0  0  0  0  0  0  0  0  0  0  0  0
    7.4577  -31.4186  -26.0728 C   0  0  0  0  0  0  0  0  0  0  0  0
    8.7435  -31.8220  -26.0726 N   0  0  0  0  0  0  0  0  0  0  0  0
    7.1333  -30.1129  -25.6225 N   0  0  0  0  0  0  0  0  0  0  0  0
    3.8905  -30.3430  -26.0129 H   0  0  0  0  0  0  0  0  0  0  0  0
    8.9757  -32.7267  -26.3837 H   0  0  0  0  0  0  0  0  0  0  0  0
    9.4508  -31.2119  -25.7613 H   0  0  0  0  0  0  0  0  0  0  0  0
    7.0883  -26.7526  -23.1741 C   0  0  0  0  0  0  0  0  0  0  0  0
    7.2206  -25.3755  -23.4691 O   0  0  0  0  0  0  0  0  0  0  0  0
    7.2369  -24.2170  -22.3430 P   0  0  0  0  0  0  0  0  0  0  0  0
    7.3694  -22.8417  -22.9890 O   0  0  0  0  0  0  0  0  0  0  0  0
    5.9164  -24.4319  -21.6484 O   0  0  0  0  0  0  0  0  0  0  0  0
    8.4428  -24.5291  -21.4872 O   0  0  0  0  0  0  0  0  0  0  0  0
    5.1923  -24.2127  -22.2554 H   0  0  0  0  0  0  0  0  0  0  0  0
    9.2519  -24.3685  -21.9976 H   0  0  0  0  0  0  0  0  0  0  0  0
 10 11  2  0  0  0
 11 12  1  0  0  0
 11 15  1  0  0  0
 12 13  1  0  0  0
 13 14  2  0  0  0
 13 18  1  0  0  0
 15 16  2  0  0  0
 16 18  1  0  0  0
 16 17  1  0  0  0
 18  1  1  0  0  0
  1  3  1  0  0  0
  1  2  1  0  0  0
  2  7  1  0  0  0
  3  4  1  0  0  0
  3  5  1  0  0  0
  5  6  1  0  0  0
  5  7  1  0  0  0
  7 22  1  0  0  0
 22 23  1  0  0  0
 23 24  1  0  0  0
 24 25  2  0  0  0
 24 26  1  0  0  0
 24 27  1  0  0  0
 12 19  1  0  0  0
 17 20  1  0  0  0
 17 21  1  0  0  0
  4  8  1  0  0  0
  6  9  1  0  0  0
 26 28  1  0  0  0
 27 29  1  0  0  0
M  END
> <minimizedAffinity>
-8.61044

$$$$
2Q8Z_NUP_A_401


 29 30  0  0  0  0  0  0  0  0999 V2000
    8.4253  -25.6324  -24.3950 C   0  0  0  0  0  0  0  0  0  0  0  0
    7.6909  -26.2432  -25.4641 O   0  0  0  0  0  0  0  0  0  0  0  0
    9.1327  -26.7848  -23.6684 C   0  0  0  0  0  0  0  0  0  0  0  0
   10.3607  -26.4702  -22.9855 O   0  0  0  0  0  0  0  0  0  0  0  0
    9.3541  -27.7482  -24.8341 C   0  0  0  0  0  0  0  0  0  0  0  0
   10.4904  -27.2864  -25.5750 O   0  0  0  0  0  0  0  0  0  0  0  0
    8.1007  -27.5806  -25.6908 C   0  0  0  0  0  0  0  0  0  0  0  0
   11.0028  -26.1172  -23.6210 H   0  0  0  0  0  0  0  0  0  0  0  0
   10.3456  -26.3675  -25.8498 H   0  0  0  0  0  0  0  0  0  0  0  0
    5.2438  -22.8333  -20.9744 O   0  0  0  0  0  0  0  0  0  0  0  0
    5.9598  -23.4832  -21.7381 C   0  0  0  0  0  0  0  0  0  0  0  0
    6.7381  -22.8071  -22.5951 N   0  0  0  0  0  0  0  0  0  0  0  0
    7.5491  -23.4515  -23.4651 C   0  0  0  0  0  0  0  0  0  0  0  0
    8.2632  -22.7933  -24.2520 O   0  0  0  0  0  0  0  0  0  0  0  0
    5.9502  -24.8755  -21.6460 C   0  0  0  0  0  0  0  0  0  0  0  0
    6.7692  -25.5483  -22.5308 C   0  0  0  0  0  0  0  0  0  0  0  0
    6.8025  -26.8949  -22.4872 N   0  0  0  0  0  0  0  0  0  0  0  0
    7.5807  -24.8578  -23.4675 N   0  0  0  0  0  0  0  0  0  0  0  0
    6.7190  -21.8228  -22.5912 H   0  0  0  0  0  0  0  0  0  0  0  0
    6.2420  -27.3804  -21.8397 H   0  0  0  0  0  0  0  0  0  0  0  0
    7.3873  -27.3930  -23.1030 H   0  0  0  0  0  0  0  0  0  0  0  0
    6.9562  -28.5222  -25.3305 C   0  0  0  0  0  0  0  0  0  0  0  0
    7.4374  -29.8431  -25.4872 O   0  0  0  0  0  0  0  0  0  0  0  0
    6.5434  -31.0581  -26.0662 P   0  0  0  0  0  0  0  0  0  0  0  0
    5.6819  -30.5830  -27.2317 O   0  0  0  0  0  0  0  0  0  0  0  0
    7.5943  -32.0630  -26.4639 O   0  0  0  0  0  0  0  0  0  0  0  0
    5.6834  -31.4920  -24.9016 O   0  0  0  0  0  0  0  0  0  0  0  0
    8.1045  -31.7179  -27.2132 H   0  0  0  0  0  0  0  0  0  0  0  0
    5.0338  -30.7993  -24.7037 H   0  0  0  0  0  0  0  0  0  0  0  0
 10 11  2  0  0  0
 11 12  1  0  0  0
 11 15  1  0  0  0
 12 13  1  0  0  0
 13 14  2  0  0  0
 13 18  1  0  0  0
 15 16  2  0  0  0
 16 18  1  0  0  0
 16 17  1  0  0  0
 18  1  1  0  0  0
  1  3  1  0  0  0
  1  2  1  0  0  0
  2  7  1  0  0  0
  3  4  1  0  0  0
  3  5  1  0  0  0
  5  6  1  0  0  0
  5  7  1  0  0  0
  7 22  1  0  0  0
 22 23  1  0  0  0
 23 24  1  0  0  0
 24 25  2  0  0  0
 24 26  1  0  0  0
 24 27  1  0  0  0
 12 19  1  0  0  0
 17 20  1  0  0  0
 17 21  1  0  0  0
  4  8  1  0  0  0
  6  9  1  0  0  0
 26 28  1  0  0  0
 27 29  1  0  0  0
M  END
> <minimizedAffinity>
-8.56458

$$$$
2Q8Z_NUP_A_401


 29 30  0  0  0  0  0  0  0  0999 V2000
    8.8028  -28.5395  -24.0711 C   0  0  0  0  0  0  0  0  0  0  0  0
    8.0829  -28.1170  -22.9055 O   0  0  0  0  0  0  0  0  0  0  0  0
    9.1267  -27.2541  -24.8453 C   0  0  0  0  0  0  0  0  0  0  0  0
   10.3008  -27.2720  -25.6785 O   0  0  0  0  0  0  0  0  0  0  0  0
    9.2582  -26.2639  -23.6883 C   0  0  0  0  0  0  0  0  0  0  0  0
   10.5531  -26.4444  -23.1017 O   0  0  0  0  0  0  0  0  0  0  0  0
    8.1936  -26.7205  -22.6928 C   0  0  0  0  0  0  0  0  0  0  0  0
   11.0807  -27.4631  -25.1343 H   0  0  0  0  0  0  0  0  0  0  0  0
   10.6618  -27.3712  -22.8369 H   0  0  0  0  0  0  0  0  0  0  0  0
    5.9663  -32.0292  -27.1427 O   0  0  0  0  0  0  0  0  0  0  0  0
    6.5955  -31.2251  -26.4528 C   0  0  0  0  0  0  0  0  0  0  0  0
    7.7928  -31.6039  -25.9837 N   0  0  0  0  0  0  0  0  0  0  0  0
    8.5405  -30.7767  -25.2178 C   0  0  0  0  0  0  0  0  0  0  0  0
    9.6531  -31.1586  -24.7952 O   0  0  0  0  0  0  0  0  0  0  0  0
    6.0497  -29.9605  -26.2292 C   0  0  0  0  0  0  0  0  0  0  0  0
    6.7986  -29.1058  -25.4450 C   0  0  0  0  0  0  0  0  0  0  0  0
    6.3222  -27.8700  -25.1961 N   0  0  0  0  0  0  0  0  0  0  0  0
    8.0552  -29.4924  -24.9119 N   0  0  0  0  0  0  0  0  0  0  0  0
    8.1345  -32.5014  -26.2006 H   0  0  0  0  0  0  0  0  0  0  0  0
    5.4509  -27.5952  -25.5629 H   0  0  0  0  0  0  0  0  0  0  0  0
    6.8455  -27.2420  -24.6474 H   0  0  0  0  0  0  0  0  0  0  0  0
    6.8254  -26.0750  -22.8876 C   0  0  0  0  0  0  0  0  0  0  0  0
    7.0279  -24.6761  -22.9419 O   0  0  0  0  0  0  0  0  0  0  0  0
    6.9093  -23.7045  -21.6564 P   0  0  0  0  0  0  0  0  0  0  0  0
    5.6988  -24.0808  -20.8083 O   0  0  0  0  0  0  0  0  0  0  0  0
    8.2272  -23.9359  -20.9620 O   0  0  0  0  0  0  0  0  0  0  0  0
    6.7517  -22.3175  -22.2356 O   0  0  0  0  0  0  0  0  0  0  0  0
    8.2564  -24.8422  -20.6176 H   0  0  0  0  0  0  0  0  0  0  0  0
    5.8848  -22.2426  -22.6642 H   0  0  0  0  0  0  0  0  0  0  0  0
 10 11  2  0  0  0
 11 12  1  0  0  0
 11 15  1  0  0  0
 12 13  1  0  0  0
 13 14  2  0  0  0
 13 18  1  0  0  0
 15 16  2  0  0  0
 16 18  1  0  0  0
 16 17  1  0  0  0
 18  1  1  0  0  0
  1  3  1  0  0  0
  1  2  1  0  0  0
  2  7  1  0  0  0
  3  4  1  0  0  0
  3  5  1  0  0  0
  5  6  1  0  0  0
  5  7  1  0  0  0
  7 22  1  0  0  0
 22 23  1  0  0  0
 23 24  1  0  0  0
 24 25  2  0  0  0
 24 26  1  0  0  0
 24 27  1  0  0  0
 12 19  1  0  0  0
 17 20  1  0  0  0
 17 21  1  0  0  0
  4  8  1  0  0  0
  6  9  1  0  0  0
 26 28  1  0  0  0
 27 29  1  0  0  0
M  END
> <minimizedAffinity>
-8.52042

$$$$
2Q8Z_NUP_A_401


 29 30  0  0  0  0  0  0  0  0999 V2000
    9.0101  -28.8166  -24.6132 C   0  0  0  0  0  0  0  0  0  0  0  0
    8.7924  -28.8582  -26.0296 O   0  0  0  0  0  0  0  0  0  0  0  0
    8.5473  -30.1811  -24.0837 C   0  0  0  0  0  0  0  0  0  0  0  0
    9.1720  -30.6597  -22.8779 O   0  0  0  0  0  0  0  0  0  0  0  0
    8.8700  -31.0654  -25.2880 C   0  0  0  0  0  0  0  0  0  0  0  0
   10.2765  -31.3389  -25.2670 O   0  0  0  0  0  0  0  0  0  0  0  0
    8.5543  -30.1771  -26.4897 C   0  0  0  0  0  0  0  0  0  0  0  0
   10.1290  -30.7347  -23.0173 H   0  0  0  0  0  0  0  0  0  0  0  0
   10.7682  -30.5029  -25.2533 H   0  0  0  0  0  0  0  0  0  0  0  0
    6.4326  -24.7568  -22.0574 O   0  0  0  0  0  0  0  0  0  0  0  0
    7.0333  -25.6670  -22.6310 C   0  0  0  0  0  0  0  0  0  0  0  0
    6.3199  -26.5012  -23.4007 N   0  0  0  0  0  0  0  0  0  0  0  0
    6.9091  -27.5251  -24.0598 C   0  0  0  0  0  0  0  0  0  0  0  0
    6.2170  -28.2861  -24.7700 O   0  0  0  0  0  0  0  0  0  0  0  0
    8.4174  -25.7583  -22.4798 C   0  0  0  0  0  0  0  0  0  0  0  0
    9.0333  -26.8013  -23.1425 C   0  0  0  0  0  0  0  0  0  0  0  0
   10.3695  -26.9387  -23.0345 N   0  0  0  0  0  0  0  0  0  0  0  0
    8.2975  -27.7155  -23.9397 N   0  0  0  0  0  0  0  0  0  0  0  0
    5.3486  -26.3661  -23.4879 H   0  0  0  0  0  0  0  0  0  0  0  0
   10.8863  -26.3078  -22.4830 H   0  0  0  0  0  0  0  0  0  0  0  0
   10.8290  -27.6699  -23.5072 H   0  0  0  0  0  0  0  0  0  0  0  0
    7.1183  -30.2793  -26.9935 C   0  0  0  0  0  0  0  0  0  0  0  0
    6.6341  -31.5543  -26.6182 O   0  0  0  0  0  0  0  0  0  0  0  0
    5.0792  -31.9837  -26.7113 P   0  0  0  0  0  0  0  0  0  0  0  0
    4.9316  -33.3104  -27.4492 O   0  0  0  0  0  0  0  0  0  0  0  0
    4.6827  -32.0545  -25.2587 O   0  0  0  0  0  0  0  0  0  0  0  0
    4.4159  -30.8632  -27.4786 O   0  0  0  0  0  0  0  0  0  0  0  0
    5.1451  -32.7933  -24.8330 H   0  0  0  0  0  0  0  0  0  0  0  0
    4.7172  -30.8799  -28.4004 H   0  0  0  0  0  0  0  0  0  0  0  0
 10 11  2  0  0  0
 11 12  1  0  0  0
 11 15  1  0  0  0
 12 13  1  0  0  0
 13 14  2  0  0  0
 13 18  1  0  0  0
 15 16  2  0  0  0
 16 18  1  0  0  0
 16 17  1  0  0  0
 18  1  1  0  0  0
  1  3  1  0  0  0
  1  2  1  0  0  0
  2  7  1  0  0  0
  3  4  1  0  0  0
  3  5  1  0  0  0
  5  6  1  0  0  0
  5  7  1  0  0  0
  7 22  1  0  0  0
 22 23  1  0  0  0
 23 24  1  0  0  0
 24 25  2  0  0  0
 24 26  1  0  0  0
 24 27  1  0  0  0
 12 19  1  0  0  0
 17 20  1  0  0  0
 17 21  1  0  0  0
  4  8  1  0  0  0
  6  9  1  0  0  0
 26 28  1  0  0  0
 27 29  1  0  0  0
M  END
> <minimizedAffinity>
-8.37813

$$$$
2Q8Z_NUP_A_401


 29 30  0  0  0  0  0  0  0  0999 V2000
    8.7153  -29.2478  -24.3497 C   0  0  0  0  0  0  0  0  0  0  0  0
    7.3027  -29.4247  -24.1803 O   0  0  0  0  0  0  0  0  0  0  0  0
    8.8706  -28.0700  -25.3217 C   0  0  0  0  0  0  0  0  0  0  0  0
   10.0771  -27.2910  -25.2163 O   0  0  0  0  0  0  0  0  0  0  0  0
    7.6276  -27.2552  -24.9650 C   0  0  0  0  0  0  0  0  0  0  0  0
    7.9104  -26.5272  -23.7635 O   0  0  0  0  0  0  0  0  0  0  0  0
    6.5685  -28.3146  -24.6667 C   0  0  0  0  0  0  0  0  0  0  0  0
   10.1425  -26.9154  -24.3244 H   0  0  0  0  0  0  0  0  0  0  0  0
    8.1852  -27.1452  -23.0681 H   0  0  0  0  0  0  0  0  0  0  0  0
   11.3242  -33.6676  -26.1709 O   0  0  0  0  0  0  0  0  0  0  0  0
   10.7392  -32.6723  -25.7402 C   0  0  0  0  0  0  0  0  0  0  0  0
    9.9309  -32.0085  -26.5789 N   0  0  0  0  0  0  0  0  0  0  0  0
    9.2571  -30.9058  -26.1789 C   0  0  0  0  0  0  0  0  0  0  0  0
    8.5108  -30.3084  -26.9842 O   0  0  0  0  0  0  0  0  0  0  0  0
   10.9187  -32.3134  -24.4038 C   0  0  0  0  0  0  0  0  0  0  0  0
   10.2413  -31.1870  -23.9812 C   0  0  0  0  0  0  0  0  0  0  0  0
   10.3753  -30.7930  -22.6994 N   0  0  0  0  0  0  0  0  0  0  0  0
    9.4028  -30.4496  -24.8564 N   0  0  0  0  0  0  0  0  0  0  0  0
    9.8258  -32.3297  -27.5036 H   0  0  0  0  0  0  0  0  0  0  0  0
   10.9555  -31.3001  -22.0866 H   0  0  0  0  0  0  0  0  0  0  0  0
    9.8930  -29.9981  -22.3757 H   0  0  0  0  0  0  0  0  0  0  0  0
    5.7483  -28.7491  -25.8770 C   0  0  0  0  0  0  0  0  0  0  0  0
    4.7851  -29.6773  -25.4169 O   0  0  0  0  0  0  0  0  0  0  0  0
    4.8549  -31.2629  -25.7195 P   0  0  0  0  0  0  0  0  0  0  0  0
    5.0776  -31.5167  -27.2069 O   0  0  0  0  0  0  0  0  0  0  0  0
    6.0093  -31.6999  -24.8540 O   0  0  0  0  0  0  0  0  0  0  0  0
    3.5132  -31.7987  -25.2760 O   0  0  0  0  0  0  0  0  0  0  0  0
    6.8329  -31.3198  -25.1975 H   0  0  0  0  0  0  0  0  0  0  0  0
    2.8223  -31.4777  -25.8765 H   0  0  0  0  0  0  0  0  0  0  0  0
 10 11  2  0  0  0
 11 12  1  0  0  0
 11 15  1  0  0  0
 12 13  1  0  0  0
 13 14  2  0  0  0
 13 18  1  0  0  0
 15 16  2  0  0  0
 16 18  1  0  0  0
 16 17  1  0  0  0
 18  1  1  0  0  0
  1  3  1  0  0  0
  1  2  1  0  0  0
  2  7  1  0  0  0
  3  4  1  0  0  0
  3  5  1  0  0  0
  5  6  1  0  0  0
  5  7  1  0  0  0
  7 22  1  0  0  0
 22 23  1  0  0  0
 23 24  1  0  0  0
 24 25  2  0  0  0
 24 26  1  0  0  0
 24 27  1  0  0  0
 12 19  1  0  0  0
 17 20  1  0  0  0
 17 21  1  0  0  0
  4  8  1  0  0  0
  6  9  1  0  0  0
 26 28  1  0  0  0
 27 29  1  0  0  0
M  END
> <minimizedAffinity>
-7.52964

$$$$
2Q8Z_NUP_A_401


 29 30  0  0  0  0  0  0  0  0999 V2000
    8.6407  -29.0773  -24.1779 C   0  0  0  0  0  0  0  0  0  0  0  0
    7.2215  -29.2683  -24.1092 O   0  0  0  0  0  0  0  0  0  0  0  0
    8.8610  -27.9960  -25.2449 C   0  0  0  0  0  0  0  0  0  0  0  0
   10.0432  -27.1839  -25.1173 O   0  0  0  0  0  0  0  0  0  0  0  0
    7.5810  -27.1783  -25.0739 C   0  0  0  0  0  0  0  0  0  0  0  0
    7.7511  -26.3314  -23.9306 O   0  0  0  0  0  0  0  0  0  0  0  0
    6.5155  -28.2271  -24.7614 C   0  0  0  0  0  0  0  0  0  0  0  0
   10.0278  -26.7223  -24.2643 H   0  0  0  0  0  0  0  0  0  0  0  0
    7.9750  -26.8729  -23.1575 H   0  0  0  0  0  0  0  0  0  0  0  0
   11.3248  -33.6449  -25.4392 O   0  0  0  0  0  0  0  0  0  0  0  0
   10.7132  -32.6088  -25.1731 C   0  0  0  0  0  0  0  0  0  0  0  0
   10.8473  -32.1010  -23.9396 N   0  0  0  0  0  0  0  0  0  0  0  0
   10.2053  -30.9681  -23.5732 C   0  0  0  0  0  0  0  0  0  0  0  0
   10.3504  -30.5192  -22.4157 O   0  0  0  0  0  0  0  0  0  0  0  0
    9.9494  -32.0042  -26.1721 C   0  0  0  0  0  0  0  0  0  0  0  0
    9.2838  -30.8493  -25.8125 C   0  0  0  0  0  0  0  0  0  0  0  0
    8.5315  -30.2203  -26.7369 N   0  0  0  0  0  0  0  0  0  0  0  0
    9.3853  -30.3070  -24.5054 N   0  0  0  0  0  0  0  0  0  0  0  0
   11.4241  -32.5615  -23.2880 H   0  0  0  0  0  0  0  0  0  0  0  0
    8.4566  -30.5911  -27.6458 H   0  0  0  0  0  0  0  0  0  0  0  0
    8.0567  -29.3901  -26.5033 H   0  0  0  0  0  0  0  0  0  0  0  0
    5.8065  -28.7949  -25.9867 C   0  0  0  0  0  0  0  0  0  0  0  0
    4.8217  -29.6961  -25.5187 O   0  0  0  0  0  0  0  0  0  0  0  0
    4.8914  -31.2943  -25.7459 P   0  0  0  0  0  0  0  0  0  0  0  0
    5.0694  -31.6193  -27.2254 O   0  0  0  0  0  0  0  0  0  0  0  0
    6.0745  -31.6836  -24.8967 O   0  0  0  0  0  0  0  0  0  0  0  0
    3.5671  -31.8136  -25.2353 O   0  0  0  0  0  0  0  0  0  0  0  0
    6.8849  -31.3170  -25.2837 H   0  0  0  0  0  0  0  0  0  0  0  0
    2.8562  -31.5253  -25.8288 H   0  0  0  0  0  0  0  0  0  0  0  0
 10 11  2  0  0  0
 11 12  1  0  0  0
 11 15  1  0  0  0
 12 13  1  0  0  0
 13 14  2  0  0  0
 13 18  1  0  0  0
 15 16  2  0  0  0
 16 18  1  0  0  0
 16 17  1  0  0  0
 18  1  1  0  0  0
  1  3  1  0  0  0
  1  2  1  0  0  0
  2  7  1  0  0  0
  3  4  1  0  0  0
  3  5  1  0  0  0
  5  6  1  0  0  0
  5  7  1  0  0  0
  7 22  1  0  0  0
 22 23  1  0  0  0
 23 24  1  0  0  0
 24 25  2  0  0  0
 24 26  1  0  0  0
 24 27  1  0  0  0
 12 19  1  0  0  0
 17 20  1  0  0  0
 17 21  1  0  0  0
  4  8  1  0  0  0
  6  9  1  0  0  0
 26 28  1  0  0  0
 27 29  1  0  0  0
M  END
> <minimizedAffinity>
-7.12884

$$$$
