1KM3_UP6_A_2001


 26 27  0  0  0  0  0  0  0  0999 V2000
   39.4220   39.5827   36.5760 C   0  0  0  0  0  0  0  0  0  0  0  0
   40.7408   39.6053   37.3137 C   0  0  0  0  0  0  0  0  0  0  0  0
   41.5254   38.5062   36.6252 C   0  0  0  0  0  0  0  0  0  0  0  0
   40.4598   37.5295   36.2374 C   0  0  0  0  0  0  0  0  0  0  0  0
   41.3758   40.8803   37.2516 O   0  0  0  0  0  0  0  0  0  0  0  0
   42.2046   39.0320   35.4716 O   0  0  0  0  0  0  0  0  0  0  0  0
   39.2782   38.3034   36.0327 O   0  0  0  0  0  0  0  0  0  0  0  0
   41.5122   41.1287   36.3240 H   0  0  0  0  0  0  0  0  0  0  0  0
   41.5595   39.4468   34.8778 H   0  0  0  0  0  0  0  0  0  0  0  0
   38.2017   39.9944   37.2374 N   0  0  0  0  0  0  0  0  0  0  0  0
   37.5462   41.1600   36.8594 C   0  0  0  0  0  0  0  0  0  0  0  0
   36.4191   41.4478   37.5902 N   0  0  0  0  0  0  0  0  0  0  0  0
   35.9081   40.6819   38.6392 C   0  0  0  0  0  0  0  0  0  0  0  0
   36.6432   39.5132   38.9356 C   0  0  0  0  0  0  0  0  0  0  0  0
   37.7280   39.2098   38.2589 N   0  0  0  0  0  0  0  0  0  0  0  0
   37.9720   41.8337   35.9761 O   0  0  0  0  0  0  0  0  0  0  0  0
   34.9162   41.0554   39.2073 O   0  0  0  0  0  0  0  0  0  0  0  0
   35.9280   42.2673   37.3528 H   0  0  0  0  0  0  0  0  0  0  0  0
   40.1298   36.3785   37.1590 C   0  0  0  0  0  0  0  0  0  0  0  0
   41.0202   35.2966   36.8565 O   0  0  0  0  0  0  0  0  0  0  0  0
   40.4873   33.8787   36.3439 P   0  0  0  0  0  0  0  0  0  0  0  0
   39.1300   33.9499   35.6817 O   0  0  0  0  0  0  0  0  0  0  0  0
   40.4166   33.0515   37.5866 O   0  0  0  0  0  0  0  0  0  0  0  0
   41.6207   33.2679   35.3912 O   0  0  0  0  0  0  0  0  0  0  0  0
   39.7334   33.4095   38.1749 H   0  0  0  0  0  0  0  0  0  0  0  0
   41.6789   33.7948   34.5789 H   0  0  0  0  0  0  0  0  0  0  0  0
 10 11  1  0  0  0
 10 15  1  0  0  0
 10  1  1  0  0  0
 11 12  1  0  0  0
 11 16  2  0  0  0
 12 13  1  0  0  0
 13 14  1  0  0  0
 13 17  2  0  0  0
 14 15  2  0  0  0
  1  2  1  0  0  0
  1  7  1  0  0  0
  2  3  1  0  0  0
  2  5  1  0  0  0
  3  4  1  0  0  0
  3  6  1  0  0  0
  4  7  1  0  0  0
  4 19  1  0  0  0
 19 20  1  0  0  0
 20 21  1  0  0  0
 21 22  2  0  0  0
 21 23  1  0  0  0
 21 24  1  0  0  0
 12 18  1  0  0  0
  5  8  1  0  0  0
  6  9  1  0  0  0
 23 25  1  0  0  0
 24 26  1  0  0  0
M  END
> <minimizedAffinity>
-8.21398

$$$$
1KM3_UP6_A_2001


 26 27  0  0  0  0  0  0  0  0999 V2000
   38.5377   38.1528   35.4119 C   0  0  0  0  0  0  0  0  0  0  0  0
   38.6613   38.1238   33.9060 C   0  0  0  0  0  0  0  0  0  0  0  0
   37.9543   36.8340   33.5394 C   0  0  0  0  0  0  0  0  0  0  0  0
   38.2351   35.9543   34.7172 C   0  0  0  0  0  0  0  0  0  0  0  0
   38.0915   39.2776   33.2922 O   0  0  0  0  0  0  0  0  0  0  0  0
   36.5445   37.0707   33.3816 O   0  0  0  0  0  0  0  0  0  0  0  0
   38.3704   36.8315   35.8349 O   0  0  0  0  0  0  0  0  0  0  0  0
   37.1580   39.3508   33.5455 H   0  0  0  0  0  0  0  0  0  0  0  0
   36.1895   37.4631   34.1945 H   0  0  0  0  0  0  0  0  0  0  0  0
   39.5353   38.8228   36.2194 N   0  0  0  0  0  0  0  0  0  0  0  0
   39.1703   39.5307   37.3581 C   0  0  0  0  0  0  0  0  0  0  0  0
   40.2119   40.1432   38.0119 N   0  0  0  0  0  0  0  0  0  0  0  0
   41.5534   40.1030   37.6288 C   0  0  0  0  0  0  0  0  0  0  0  0
   41.8173   39.3485   36.4647 C   0  0  0  0  0  0  0  0  0  0  0  0
   40.8443   38.7528   35.8128 N   0  0  0  0  0  0  0  0  0  0  0  0
   38.0308   39.5878   37.6951 O   0  0  0  0  0  0  0  0  0  0  0  0
   42.3674   40.6968   38.2852 O   0  0  0  0  0  0  0  0  0  0  0  0
   39.9924   40.6562   38.8230 H   0  0  0  0  0  0  0  0  0  0  0  0
   39.4244   35.0228   34.6876 C   0  0  0  0  0  0  0  0  0  0  0  0
   39.3876   34.2161   35.8720 O   0  0  0  0  0  0  0  0  0  0  0  0
   40.2416   34.5823   37.1733 P   0  0  0  0  0  0  0  0  0  0  0  0
   41.3080   35.6236   36.9196 O   0  0  0  0  0  0  0  0  0  0  0  0
   40.8669   33.2838   37.5691 O   0  0  0  0  0  0  0  0  0  0  0  0
   39.2006   35.0125   38.3121 O   0  0  0  0  0  0  0  0  0  0  0  0
   41.5010   33.0095   36.8883 H   0  0  0  0  0  0  0  0  0  0  0  0
   38.7857   35.8550   38.0693 H   0  0  0  0  0  0  0  0  0  0  0  0
 10 11  1  0  0  0
 10 15  1  0  0  0
 10  1  1  0  0  0
 11 12  1  0  0  0
 11 16  2  0  0  0
 12 13  1  0  0  0
 13 14  1  0  0  0
 13 17  2  0  0  0
 14 15  2  0  0  0
  1  2  1  0  0  0
  1  7  1  0  0  0
  2  3  1  0  0  0
  2  5  1  0  0  0
  3  4  1  0  0  0
  3  6  1  0  0  0
  4  7  1  0  0  0
  4 19  1  0  0  0
 19 20  1  0  0  0
 20 21  1  0  0  0
 21 22  2  0  0  0
 21 23  1  0  0  0
 21 24  1  0  0  0
 12 18  1  0  0  0
  5  8  1  0  0  0
  6  9  1  0  0  0
 23 25  1  0  0  0
 24 26  1  0  0  0
M  END
> <minimizedAffinity>
-7.99615

$$$$
1KM3_UP6_A_2001


 26 27  0  0  0  0  0  0  0  0999 V2000
   40.7812   38.9409   36.7533 C   0  0  0  0  0  0  0  0  0  0  0  0
   39.3949   39.5401   36.8097 C   0  0  0  0  0  0  0  0  0  0  0  0
   38.6583   38.5870   37.7299 C   0  0  0  0  0  0  0  0  0  0  0  0
   39.3146   37.2731   37.4426 C   0  0  0  0  0  0  0  0  0  0  0  0
   39.4043   40.8869   37.2772 O   0  0  0  0  0  0  0  0  0  0  0  0
   38.8436   38.9812   39.1006 O   0  0  0  0  0  0  0  0  0  0  0  0
   40.6532   37.5827   37.0563 O   0  0  0  0  0  0  0  0  0  0  0  0
   39.8149   40.9216   38.1553 H   0  0  0  0  0  0  0  0  0  0  0  0
   39.7920   39.0212   39.3001 H   0  0  0  0  0  0  0  0  0  0  0  0
   41.6152   39.1247   35.5843 N   0  0  0  0  0  0  0  0  0  0  0  0
   42.9527   39.4792   35.7135 C   0  0  0  0  0  0  0  0  0  0  0  0
   43.6186   39.6514   34.5242 N   0  0  0  0  0  0  0  0  0  0  0  0
   43.0684   39.4992   33.2505 C   0  0  0  0  0  0  0  0  0  0  0  0
   41.7062   39.1277   33.2314 C   0  0  0  0  0  0  0  0  0  0  0  0
   41.0383   38.9582   34.3502 N   0  0  0  0  0  0  0  0  0  0  0  0
   43.4379   39.6261   36.7897 O   0  0  0  0  0  0  0  0  0  0  0  0
   43.7610   39.6939   32.2869 O   0  0  0  0  0  0  0  0  0  0  0  0
   44.5686   39.9049   34.5749 H   0  0  0  0  0  0  0  0  0  0  0  0
   38.7151   36.3484   36.4089 C   0  0  0  0  0  0  0  0  0  0  0  0
   39.1090   35.0078   36.7290 O   0  0  0  0  0  0  0  0  0  0  0  0
   39.9442   34.1036   35.7083 P   0  0  0  0  0  0  0  0  0  0  0  0
   40.4245   34.8589   34.4899 O   0  0  0  0  0  0  0  0  0  0  0  0
   38.9825   33.0313   35.3093 O   0  0  0  0  0  0  0  0  0  0  0  0
   41.1355   33.4324   36.5424 O   0  0  0  0  0  0  0  0  0  0  0  0
   38.2540   33.4227   34.8024 H   0  0  0  0  0  0  0  0  0  0  0  0
   41.7691   34.1167   36.8090 H   0  0  0  0  0  0  0  0  0  0  0  0
 10 11  1  0  0  0
 10 15  1  0  0  0
 10  1  1  0  0  0
 11 12  1  0  0  0
 11 16  2  0  0  0
 12 13  1  0  0  0
 13 14  1  0  0  0
 13 17  2  0  0  0
 14 15  2  0  0  0
  1  2  1  0  0  0
  1  7  1  0  0  0
  2  3  1  0  0  0
  2  5  1  0  0  0
  3  4  1  0  0  0
  3  6  1  0  0  0
  4  7  1  0  0  0
  4 19  1  0  0  0
 19 20  1  0  0  0
 20 21  1  0  0  0
 21 22  2  0  0  0
 21 23  1  0  0  0
 21 24  1  0  0  0
 12 18  1  0  0  0
  5  8  1  0  0  0
  6  9  1  0  0  0
 23 25  1  0  0  0
 24 26  1  0  0  0
M  END
> <minimizedAffinity>
-7.97975

$$$$
1KM3_UP6_A_2001


 26 27  0  0  0  0  0  0  0  0999 V2000
   40.4921   39.7424   37.3825 C   0  0  0  0  0  0  0  0  0  0  0  0
   39.2771   40.2997   36.6775 C   0  0  0  0  0  0  0  0  0  0  0  0
   38.1976   39.2966   37.0327 C   0  0  0  0  0  0  0  0  0  0  0  0
   38.9583   38.0119   37.1365 C   0  0  0  0  0  0  0  0  0  0  0  0
   38.9732   41.6303   37.0894 O   0  0  0  0  0  0  0  0  0  0  0  0
   37.5865   39.6509   38.2854 O   0  0  0  0  0  0  0  0  0  0  0  0
   40.2760   38.3720   37.5500 O   0  0  0  0  0  0  0  0  0  0  0  0
   38.8348   41.6480   38.0493 H   0  0  0  0  0  0  0  0  0  0  0  0
   38.2688   39.7114   38.9723 H   0  0  0  0  0  0  0  0  0  0  0  0
   41.8211   39.9879   36.8636 N   0  0  0  0  0  0  0  0  0  0  0  0
   42.7631   40.6772   37.6178 C   0  0  0  0  0  0  0  0  0  0  0  0
   43.9716   40.8672   36.9928 N   0  0  0  0  0  0  0  0  0  0  0  0
   44.3046   40.4324   35.7090 C   0  0  0  0  0  0  0  0  0  0  0  0
   43.2804   39.7336   35.0332 C   0  0  0  0  0  0  0  0  0  0  0  0
   42.1113   39.5374   35.6001 N   0  0  0  0  0  0  0  0  0  0  0  0
   42.4954   41.0672   38.7094 O   0  0  0  0  0  0  0  0  0  0  0  0
   45.3984   40.6775   35.2735 O   0  0  0  0  0  0  0  0  0  0  0  0
   44.6646   41.3535   37.4953 H   0  0  0  0  0  0  0  0  0  0  0  0
   39.0609   37.1047   35.9325 C   0  0  0  0  0  0  0  0  0  0  0  0
   40.1705   36.2200   36.1350 O   0  0  0  0  0  0  0  0  0  0  0  0
   39.9709   34.6511   36.3712 P   0  0  0  0  0  0  0  0  0  0  0  0
   38.9011   34.0420   35.4936 O   0  0  0  0  0  0  0  0  0  0  0  0
   39.5811   34.5518   37.8106 O   0  0  0  0  0  0  0  0  0  0  0  0
   41.4049   33.9624   36.1849 O   0  0  0  0  0  0  0  0  0  0  0  0
   38.7132   34.9653   37.9398 H   0  0  0  0  0  0  0  0  0  0  0  0
   41.6723   34.0189   35.2542 H   0  0  0  0  0  0  0  0  0  0  0  0
 10 11  1  0  0  0
 10 15  1  0  0  0
 10  1  1  0  0  0
 11 12  1  0  0  0
 11 16  2  0  0  0
 12 13  1  0  0  0
 13 14  1  0  0  0
 13 17  2  0  0  0
 14 15  2  0  0  0
  1  2  1  0  0  0
  1  7  1  0  0  0
  2  3  1  0  0  0
  2  5  1  0  0  0
  3  4  1  0  0  0
  3  6  1  0  0  0
  4  7  1  0  0  0
  4 19  1  0  0  0
 19 20  1  0  0  0
 20 21  1  0  0  0
 21 22  2  0  0  0
 21 23  1  0  0  0
 21 24  1  0  0  0
 12 18  1  0  0  0
  5  8  1  0  0  0
  6  9  1  0  0  0
 23 25  1  0  0  0
 24 26  1  0  0  0
M  END
> <minimizedAffinity>
-7.91384

$$$$
1KM3_UP6_A_2001


 26 27  0  0  0  0  0  0  0  0999 V2000
   40.6749   38.1058   36.9842 C   0  0  0  0  0  0  0  0  0  0  0  0
   41.7624   38.9244   36.3277 C   0  0  0  0  0  0  0  0  0  0  0  0
   41.5426   40.3032   36.9181 C   0  0  0  0  0  0  0  0  0  0  0  0
   40.0610   40.3443   37.1248 C   0  0  0  0  0  0  0  0  0  0  0  0
   43.0639   38.3998   36.5798 O   0  0  0  0  0  0  0  0  0  0  0  0
   42.2529   40.4269   38.1625 O   0  0  0  0  0  0  0  0  0  0  0  0
   39.6628   38.9937   37.3582 O   0  0  0  0  0  0  0  0  0  0  0  0
   43.2153   38.3569   37.5369 H   0  0  0  0  0  0  0  0  0  0  0  0
   41.9717   39.7221   38.7667 H   0  0  0  0  0  0  0  0  0  0  0  0
   40.1160   36.9513   36.3129 N   0  0  0  0  0  0  0  0  0  0  0  0
   40.1031   35.7065   36.9305 C   0  0  0  0  0  0  0  0  0  0  0  0
   39.5727   34.6932   36.1693 N   0  0  0  0  0  0  0  0  0  0  0  0
   39.0660   34.8231   34.8753 C   0  0  0  0  0  0  0  0  0  0  0  0
   39.1167   36.1309   34.3450 C   0  0  0  0  0  0  0  0  0  0  0  0
   39.6208   37.1225   35.0443 N   0  0  0  0  0  0  0  0  0  0  0  0
   40.5414   35.5717   38.0282 O   0  0  0  0  0  0  0  0  0  0  0  0
   38.6412   33.8488   34.3127 O   0  0  0  0  0  0  0  0  0  0  0  0
   39.5479   33.7954   36.5725 H   0  0  0  0  0  0  0  0  0  0  0  0
   39.1728   40.9314   36.0527 C   0  0  0  0  0  0  0  0  0  0  0  0
   38.5644   42.1179   36.5790 O   0  0  0  0  0  0  0  0  0  0  0  0
   36.9800   42.2550   36.7460 P   0  0  0  0  0  0  0  0  0  0  0  0
   36.2224   42.0955   35.4474 O   0  0  0  0  0  0  0  0  0  0  0  0
   36.7947   43.6348   37.2896 O   0  0  0  0  0  0  0  0  0  0  0  0
   36.5335   41.2030   37.8682 O   0  0  0  0  0  0  0  0  0  0  0  0
   37.0613   44.2845   36.6205 H   0  0  0  0  0  0  0  0  0  0  0  0
   36.6481   40.3012   37.5298 H   0  0  0  0  0  0  0  0  0  0  0  0
 10 11  1  0  0  0
 10 15  1  0  0  0
 10  1  1  0  0  0
 11 12  1  0  0  0
 11 16  2  0  0  0
 12 13  1  0  0  0
 13 14  1  0  0  0
 13 17  2  0  0  0
 14 15  2  0  0  0
  1  2  1  0  0  0
  1  7  1  0  0  0
  2  3  1  0  0  0
  2  5  1  0  0  0
  3  4  1  0  0  0
  3  6  1  0  0  0
  4  7  1  0  0  0
  4 19  1  0  0  0
 19 20  1  0  0  0
 20 21  1  0  0  0
 21 22  2  0  0  0
 21 23  1  0  0  0
 21 24  1  0  0  0
 12 18  1  0  0  0
  5  8  1  0  0  0
  6  9  1  0  0  0
 23 25  1  0  0  0
 24 26  1  0  0  0
M  END
> <minimizedAffinity>
-7.84396

$$$$
1KM3_UP6_A_2001


 26 27  0  0  0  0  0  0  0  0999 V2000
   39.3795   38.2865   34.7437 C   0  0  0  0  0  0  0  0  0  0  0  0
   39.2433   37.1599   33.7457 C   0  0  0  0  0  0  0  0  0  0  0  0
   38.0849   36.3583   34.3056 C   0  0  0  0  0  0  0  0  0  0  0  0
   38.2282   36.5535   35.7824 C   0  0  0  0  0  0  0  0  0  0  0  0
   39.0177   37.6333   32.4200 O   0  0  0  0  0  0  0  0  0  0  0  0
   36.8382   36.8874   33.8217 O   0  0  0  0  0  0  0  0  0  0  0  0
   38.8352   37.8345   35.9488 O   0  0  0  0  0  0  0  0  0  0  0  0
   38.2204   38.1856   32.4052 H   0  0  0  0  0  0  0  0  0  0  0  0
   36.7755   37.8280   34.0505 H   0  0  0  0  0  0  0  0  0  0  0  0
   40.6626   38.9177   34.9703 N   0  0  0  0  0  0  0  0  0  0  0  0
   41.1908   39.8081   34.0434 C   0  0  0  0  0  0  0  0  0  0  0  0
   42.4281   40.3088   34.3684 N   0  0  0  0  0  0  0  0  0  0  0  0
   43.1584   39.9996   35.5170 C   0  0  0  0  0  0  0  0  0  0  0  0
   42.5272   39.0937   36.3974 C   0  0  0  0  0  0  0  0  0  0  0  0
   41.3455   38.5929   36.1156 N   0  0  0  0  0  0  0  0  0  0  0  0
   40.5902   40.0757   33.0519 O   0  0  0  0  0  0  0  0  0  0  0  0
   44.2407   40.4995   35.6745 O   0  0  0  0  0  0  0  0  0  0  0  0
   42.8362   40.9421   33.7347 H   0  0  0  0  0  0  0  0  0  0  0  0
   39.0008   35.5433   36.5983 C   0  0  0  0  0  0  0  0  0  0  0  0
   40.0367   35.0004   35.7695 O   0  0  0  0  0  0  0  0  0  0  0  0
   40.5920   33.5145   35.9716 P   0  0  0  0  0  0  0  0  0  0  0  0
   41.6864   33.1436   34.9966 O   0  0  0  0  0  0  0  0  0  0  0  0
   39.3911   32.6507   35.7580 O   0  0  0  0  0  0  0  0  0  0  0  0
   41.0436   33.3864   37.5029 O   0  0  0  0  0  0  0  0  0  0  0  0
   39.1049   32.7176   34.8336 H   0  0  0  0  0  0  0  0  0  0  0  0
   41.8234   33.9423   37.6575 H   0  0  0  0  0  0  0  0  0  0  0  0
 10 11  1  0  0  0
 10 15  1  0  0  0
 10  1  1  0  0  0
 11 12  1  0  0  0
 11 16  2  0  0  0
 12 13  1  0  0  0
 13 14  1  0  0  0
 13 17  2  0  0  0
 14 15  2  0  0  0
  1  2  1  0  0  0
  1  7  1  0  0  0
  2  3  1  0  0  0
  2  5  1  0  0  0
  3  4  1  0  0  0
  3  6  1  0  0  0
  4  7  1  0  0  0
  4 19  1  0  0  0
 19 20  1  0  0  0
 20 21  1  0  0  0
 21 22  2  0  0  0
 21 23  1  0  0  0
 21 24  1  0  0  0
 12 18  1  0  0  0
  5  8  1  0  0  0
  6  9  1  0  0  0
 23 25  1  0  0  0
 24 26  1  0  0  0
M  END
> <minimizedAffinity>
-7.74209

$$$$
1KM3_UP6_A_2001


 26 27  0  0  0  0  0  0  0  0999 V2000
   39.2922   38.8185   35.8085 C   0  0  0  0  0  0  0  0  0  0  0  0
   38.5903   38.9844   37.1366 C   0  0  0  0  0  0  0  0  0  0  0  0
   39.6542   38.5607   38.1298 C   0  0  0  0  0  0  0  0  0  0  0  0
   40.4194   37.5200   37.3740 C   0  0  0  0  0  0  0  0  0  0  0  0
   38.1215   40.3153   37.3403 O   0  0  0  0  0  0  0  0  0  0  0  0
   40.4860   39.6830   38.4719 O   0  0  0  0  0  0  0  0  0  0  0  0
   40.3094   37.8791   35.9971 O   0  0  0  0  0  0  0  0  0  0  0  0
   38.8668   40.9332   37.2814 H   0  0  0  0  0  0  0  0  0  0  0  0
   40.8698   40.0591   37.6643 H   0  0  0  0  0  0  0  0  0  0  0  0
   38.5379   38.5176   34.6100 N   0  0  0  0  0  0  0  0  0  0  0  0
   38.0280   39.5374   33.8156 C   0  0  0  0  0  0  0  0  0  0  0  0
   37.3062   39.1112   32.7272 N   0  0  0  0  0  0  0  0  0  0  0  0
   37.0624   37.7819   32.3784 C   0  0  0  0  0  0  0  0  0  0  0  0
   37.6336   36.8250   33.2456 C   0  0  0  0  0  0  0  0  0  0  0  0
   38.3267   37.1979   34.2978 N   0  0  0  0  0  0  0  0  0  0  0  0
   38.2138   40.6771   34.1020 O   0  0  0  0  0  0  0  0  0  0  0  0
   36.4005   37.5450   31.4028 O   0  0  0  0  0  0  0  0  0  0  0  0
   36.9271   39.8054   32.1409 H   0  0  0  0  0  0  0  0  0  0  0  0
   40.0481   36.0630   37.5243 C   0  0  0  0  0  0  0  0  0  0  0  0
   40.8665   35.3004   36.6279 O   0  0  0  0  0  0  0  0  0  0  0  0
   40.5767   33.7580   36.3208 P   0  0  0  0  0  0  0  0  0  0  0  0
   39.1818   33.5007   35.7976 O   0  0  0  0  0  0  0  0  0  0  0  0
   40.7680   33.0871   37.6426 O   0  0  0  0  0  0  0  0  0  0  0  0
   41.7252   33.2540   35.3247 O   0  0  0  0  0  0  0  0  0  0  0  0
   40.0788   33.3826   38.2579 H   0  0  0  0  0  0  0  0  0  0  0  0
   41.6145   33.6814   34.4610 H   0  0  0  0  0  0  0  0  0  0  0  0
 10 11  1  0  0  0
 10 15  1  0  0  0
 10  1  1  0  0  0
 11 12  1  0  0  0
 11 16  2  0  0  0
 12 13  1  0  0  0
 13 14  1  0  0  0
 13 17  2  0  0  0
 14 15  2  0  0  0
  1  2  1  0  0  0
  1  7  1  0  0  0
  2  3  1  0  0  0
  2  5  1  0  0  0
  3  4  1  0  0  0
  3  6  1  0  0  0
  4  7  1  0  0  0
  4 19  1  0  0  0
 19 20  1  0  0  0
 20 21  1  0  0  0
 21 22  2  0  0  0
 21 23  1  0  0  0
 21 24  1  0  0  0
 12 18  1  0  0  0
  5  8  1  0  0  0
  6  9  1  0  0  0
 23 25  1  0  0  0
 24 26  1  0  0  0
M  END
> <minimizedAffinity>
-7.68080

$$$$
1KM3_UP6_A_2001


 26 27  0  0  0  0  0  0  0  0999 V2000
   39.4651   38.5048   35.7685 C   0  0  0  0  0  0  0  0  0  0  0  0
   39.0784   39.4430   36.8883 C   0  0  0  0  0  0  0  0  0  0  0  0
   39.6989   40.7553   36.4515 C   0  0  0  0  0  0  0  0  0  0  0  0
   40.9242   40.3147   35.7137 C   0  0  0  0  0  0  0  0  0  0  0  0
   37.6665   39.5162   37.0721 O   0  0  0  0  0  0  0  0  0  0  0  0
   38.7929   41.4684   35.5918 O   0  0  0  0  0  0  0  0  0  0  0  0
   40.6103   39.0339   35.1676 O   0  0  0  0  0  0  0  0  0  0  0  0
   37.2469   39.7993   36.2447 H   0  0  0  0  0  0  0  0  0  0  0  0
   38.5550   40.9080   34.8367 H   0  0  0  0  0  0  0  0  0  0  0  0
   39.6304   37.0885   36.0191 N   0  0  0  0  0  0  0  0  0  0  0  0
   39.4873   36.1631   34.9923 C   0  0  0  0  0  0  0  0  0  0  0  0
   39.6393   34.8525   35.3752 N   0  0  0  0  0  0  0  0  0  0  0  0
   39.9179   34.4063   36.6681 C   0  0  0  0  0  0  0  0  0  0  0  0
   40.0542   35.4277   37.6335 C   0  0  0  0  0  0  0  0  0  0  0  0
   39.9114   36.6912   37.3024 N   0  0  0  0  0  0  0  0  0  0  0  0
   39.2376   36.5216   33.8858 O   0  0  0  0  0  0  0  0  0  0  0  0
   40.0132   33.2249   36.8715 O   0  0  0  0  0  0  0  0  0  0  0  0
   39.5433   34.1669   34.6752 H   0  0  0  0  0  0  0  0  0  0  0  0
   42.2427   40.2179   36.4453 C   0  0  0  0  0  0  0  0  0  0  0  0
   43.1910   41.0507   35.7656 O   0  0  0  0  0  0  0  0  0  0  0  0
   44.0646   40.5131   34.5389 P   0  0  0  0  0  0  0  0  0  0  0  0
   43.8356   41.2794   33.2559 O   0  0  0  0  0  0  0  0  0  0  0  0
   43.6260   39.0930   34.3814 O   0  0  0  0  0  0  0  0  0  0  0  0
   45.5946   40.5223   35.0126 O   0  0  0  0  0  0  0  0  0  0  0  0
   42.6997   39.0706   34.0943 H   0  0  0  0  0  0  0  0  0  0  0  0
   45.8945   41.4386   35.1195 H   0  0  0  0  0  0  0  0  0  0  0  0
 10 11  1  0  0  0
 10 15  1  0  0  0
 10  1  1  0  0  0
 11 12  1  0  0  0
 11 16  2  0  0  0
 12 13  1  0  0  0
 13 14  1  0  0  0
 13 17  2  0  0  0
 14 15  2  0  0  0
  1  2  1  0  0  0
  1  7  1  0  0  0
  2  3  1  0  0  0
  2  5  1  0  0  0
  3  4  1  0  0  0
  3  6  1  0  0  0
  4  7  1  0  0  0
  4 19  1  0  0  0
 19 20  1  0  0  0
 20 21  1  0  0  0
 21 22  2  0  0  0
 21 23  1  0  0  0
 21 24  1  0  0  0
 12 18  1  0  0  0
  5  8  1  0  0  0
  6  9  1  0  0  0
 23 25  1  0  0  0
 24 26  1  0  0  0
M  END
> <minimizedAffinity>
-7.43983

$$$$
1KM3_UP6_A_2001


 26 27  0  0  0  0  0  0  0  0999 V2000
   40.6607   37.5535   37.0466 C   0  0  0  0  0  0  0  0  0  0  0  0
   41.1225   38.7080   36.1877 C   0  0  0  0  0  0  0  0  0  0  0  0
   40.7961   39.9130   37.0474 C   0  0  0  0  0  0  0  0  0  0  0  0
   39.5749   39.4705   37.7908 C   0  0  0  0  0  0  0  0  0  0  0  0
   42.5032   38.6119   35.8457 O   0  0  0  0  0  0  0  0  0  0  0  0
   41.8868   40.1917   37.9424 O   0  0  0  0  0  0  0  0  0  0  0  0
   39.6877   38.0532   37.9163 O   0  0  0  0  0  0  0  0  0  0  0  0
   43.0348   38.5701   36.6560 H   0  0  0  0  0  0  0  0  0  0  0  0
   42.0771   39.4039   38.4754 H   0  0  0  0  0  0  0  0  0  0  0  0
   40.2136   36.3175   36.4397 N   0  0  0  0  0  0  0  0  0  0  0  0
   39.2463   36.3242   35.4420 C   0  0  0  0  0  0  0  0  0  0  0  0
   38.8925   35.0809   34.9767 N   0  0  0  0  0  0  0  0  0  0  0  0
   39.4169   33.8645   35.4167 C   0  0  0  0  0  0  0  0  0  0  0  0
   40.4001   33.9703   36.4247 C   0  0  0  0  0  0  0  0  0  0  0  0
   40.7594   35.1434   36.8951 N   0  0  0  0  0  0  0  0  0  0  0  0
   38.7775   37.3492   35.0614 O   0  0  0  0  0  0  0  0  0  0  0  0
   39.0085   32.8420   34.9330 O   0  0  0  0  0  0  0  0  0  0  0  0
   38.2081   35.0447   34.2700 H   0  0  0  0  0  0  0  0  0  0  0  0
   38.2059   39.7994   37.2423 C   0  0  0  0  0  0  0  0  0  0  0  0
   38.2357   41.1448   36.7485 O   0  0  0  0  0  0  0  0  0  0  0  0
   36.9702   42.1160   36.8590 P   0  0  0  0  0  0  0  0  0  0  0  0
   36.2117   42.2659   35.5598 O   0  0  0  0  0  0  0  0  0  0  0  0
   37.5587   43.4265   37.2713 O   0  0  0  0  0  0  0  0  0  0  0  0
   36.0612   41.5679   38.0585 O   0  0  0  0  0  0  0  0  0  0  0  0
   38.1129   43.7720   36.5541 H   0  0  0  0  0  0  0  0  0  0  0  0
   35.6715   40.7163   37.8057 H   0  0  0  0  0  0  0  0  0  0  0  0
 10 11  1  0  0  0
 10 15  1  0  0  0
 10  1  1  0  0  0
 11 12  1  0  0  0
 11 16  2  0  0  0
 12 13  1  0  0  0
 13 14  1  0  0  0
 13 17  2  0  0  0
 14 15  2  0  0  0
  1  2  1  0  0  0
  1  7  1  0  0  0
  2  3  1  0  0  0
  2  5  1  0  0  0
  3  4  1  0  0  0
  3  6  1  0  0  0
  4  7  1  0  0  0
  4 19  1  0  0  0
 19 20  1  0  0  0
 20 21  1  0  0  0
 21 22  2  0  0  0
 21 23  1  0  0  0
 21 24  1  0  0  0
 12 18  1  0  0  0
  5  8  1  0  0  0
  6  9  1  0  0  0
 23 25  1  0  0  0
 24 26  1  0  0  0
M  END
> <minimizedAffinity>
-7.33320

$$$$
1KM3_UP6_A_2001


 26 27  0  0  0  0  0  0  0  0999 V2000
   38.8576   40.4310   36.8740 C   0  0  0  0  0  0  0  0  0  0  0  0
   37.9680   39.4749   37.6346 C   0  0  0  0  0  0  0  0  0  0  0  0
   38.9622   38.4950   38.2256 C   0  0  0  0  0  0  0  0  0  0  0  0
   40.0462   38.4582   37.1944 C   0  0  0  0  0  0  0  0  0  0  0  0
   37.1724   40.1370   38.6150 O   0  0  0  0  0  0  0  0  0  0  0  0
   39.4496   38.9855   39.4866 O   0  0  0  0  0  0  0  0  0  0  0  0
   40.0357   39.7427   36.5724 O   0  0  0  0  0  0  0  0  0  0  0  0
   37.7497   40.6127   39.2324 H   0  0  0  0  0  0  0  0  0  0  0  0
   39.8352   39.8670   39.3635 H   0  0  0  0  0  0  0  0  0  0  0  0
   38.3612   41.1260   35.7050 N   0  0  0  0  0  0  0  0  0  0  0  0
   37.7945   42.3899   35.8162 C   0  0  0  0  0  0  0  0  0  0  0  0
   37.3366   42.9200   34.6343 N   0  0  0  0  0  0  0  0  0  0  0  0
   37.4009   42.3039   33.3836 C   0  0  0  0  0  0  0  0  0  0  0  0
   38.0044   41.0273   33.3796 C   0  0  0  0  0  0  0  0  0  0  0  0
   38.4498   40.4890   34.4925 N   0  0  0  0  0  0  0  0  0  0  0  0
   37.7187   42.9274   36.8748 O   0  0  0  0  0  0  0  0  0  0  0  0
   36.9489   42.8744   32.4263 O   0  0  0  0  0  0  0  0  0  0  0  0
   36.9267   43.8142   34.6731 H   0  0  0  0  0  0  0  0  0  0  0  0
   40.0170   37.3994   36.1168 C   0  0  0  0  0  0  0  0  0  0  0  0
   40.7104   36.2450   36.6081 O   0  0  0  0  0  0  0  0  0  0  0  0
   39.9867   34.8287   36.7735 P   0  0  0  0  0  0  0  0  0  0  0  0
   38.9488   34.5556   35.7086 O   0  0  0  0  0  0  0  0  0  0  0  0
   39.3415   34.9105   38.1192 O   0  0  0  0  0  0  0  0  0  0  0  0
   41.1382   33.7169   36.8293 O   0  0  0  0  0  0  0  0  0  0  0  0
   38.6406   35.5808   38.1015 H   0  0  0  0  0  0  0  0  0  0  0  0
   41.5672   33.6518   35.9618 H   0  0  0  0  0  0  0  0  0  0  0  0
 10 11  1  0  0  0
 10 15  1  0  0  0
 10  1  1  0  0  0
 11 12  1  0  0  0
 11 16  2  0  0  0
 12 13  1  0  0  0
 13 14  1  0  0  0
 13 17  2  0  0  0
 14 15  2  0  0  0
  1  2  1  0  0  0
  1  7  1  0  0  0
  2  3  1  0  0  0
  2  5  1  0  0  0
  3  4  1  0  0  0
  3  6  1  0  0  0
  4  7  1  0  0  0
  4 19  1  0  0  0
 19 20  1  0  0  0
 20 21  1  0  0  0
 21 22  2  0  0  0
 21 23  1  0  0  0
 21 24  1  0  0  0
 12 18  1  0  0  0
  5  8  1  0  0  0
  6  9  1  0  0  0
 23 25  1  0  0  0
 24 26  1  0  0  0
M  END
> <minimizedAffinity>
-7.07927

$$$$
