4ABG_91B_A_1255


 17 18  0  0  0  0  0  0  0  0999 V2000
  -21.9539    1.6429   14.2788 C   0  0  0  0  0  0  0  0  0  0  0  0
  -21.1118    1.1614   15.2486 C   0  0  0  0  0  0  0  0  0  0  0  0
  -22.6338    2.8303   14.4769 C   0  0  0  0  0  0  0  0  0  0  0  0
  -21.5855    3.0255   16.6047 C   0  0  0  0  0  0  0  0  0  0  0  0
  -20.9239    1.8160   16.4503 C   0  0  0  0  0  0  0  0  0  0  0  0
  -22.4340    3.5441   15.6522 C   0  0  0  0  0  0  0  0  0  0  0  0
  -24.2895    4.8989   14.9185 C   0  0  0  0  0  0  0  0  0  0  0  0
  -23.2736    5.1585   17.2725 C   0  0  0  0  0  0  0  0  0  0  0  0
  -24.8379    6.3248   15.1030 C   0  0  0  0  0  0  0  0  0  0  0  0
  -23.6664    6.6180   17.2428 C   0  0  0  0  0  0  0  0  0  0  0  0
  -25.6082    8.0292   16.6623 C   0  0  0  0  0  0  0  0  0  0  0  0
  -23.1398    4.7509   15.8516 N   0  0  0  0  0  0  0  0  0  0  0  0
  -24.9637    6.7164   16.5319 N   0  0  0  0  0  0  0  0  0  0  0  0
  -19.9671    1.1701   17.4505 C   0  0  0  0  0  0  0  0  0  0  0  0
  -19.3582    2.1898   18.3217 N   0  0  0  0  0  0  0  0  0  0  0  0
  -18.8303    2.8517   17.7528 H   0  0  0  0  0  0  0  0  0  0  0  0
  -18.7313    1.7378   18.9873 H   0  0  0  0  0  0  0  0  0  0  0  0
  1  2  1  0  0  0
  1  3  2  0  0  0
  2  5  2  0  0  0
  3  6  1  0  0  0
  4  5  1  0  0  0
  4  6  2  0  0  0
  5 14  1  0  0  0
  6 12  1  0  0  0
  7  9  1  0  0  0
  7 12  1  0  0  0
  8 10  1  0  0  0
  8 12  1  0  0  0
  9 13  1  0  0  0
 10 13  1  0  0  0
 11 13  1  0  0  0
 14 15  1  0  0  0
 15 16  1  0  0  0
 15 17  1  0  0  0
M  END
> <minimizedAffinity>
-6.09141

$$$$
4ABG_91B_A_1255


 17 18  0  0  0  0  0  0  0  0999 V2000
  -21.8348    1.7904   14.2706 C   0  0  0  0  0  0  0  0  0  0  0  0
  -20.9582    1.3435   15.2264 C   0  0  0  0  0  0  0  0  0  0  0  0
  -22.7390    2.7919   14.5722 C   0  0  0  0  0  0  0  0  0  0  0  0
  -21.8409    2.8805   16.7745 C   0  0  0  0  0  0  0  0  0  0  0  0
  -20.9522    1.8481   16.5121 C   0  0  0  0  0  0  0  0  0  0  0  0
  -22.7317    3.3599   15.8402 C   0  0  0  0  0  0  0  0  0  0  0  0
  -23.3533    5.0718   17.4213 C   0  0  0  0  0  0  0  0  0  0  0  0
  -24.1392    5.1475   14.9682 C   0  0  0  0  0  0  0  0  0  0  0  0
  -24.5420    5.9990   17.7298 C   0  0  0  0  0  0  0  0  0  0  0  0
  -25.3891    5.8631   15.4275 C   0  0  0  0  0  0  0  0  0  0  0  0
  -26.0506    7.7252   16.9087 C   0  0  0  0  0  0  0  0  0  0  0  0
  -23.6651    4.3752   16.1438 N   0  0  0  0  0  0  0  0  0  0  0  0
  -25.0042    6.7631   16.5409 N   0  0  0  0  0  0  0  0  0  0  0  0
  -19.9327    1.2583   17.4846 C   0  0  0  0  0  0  0  0  0  0  0  0
  -19.3755    2.3078   18.3549 N   0  0  0  0  0  0  0  0  0  0  0  0
  -18.9058    3.0098   17.7830 H   0  0  0  0  0  0  0  0  0  0  0  0
  -18.7053    1.8926   19.0020 H   0  0  0  0  0  0  0  0  0  0  0  0
  1  2  1  0  0  0
  1  3  2  0  0  0
  2  5  2  0  0  0
  3  6  1  0  0  0
  4  5  1  0  0  0
  4  6  2  0  0  0
  5 14  1  0  0  0
  6 12  1  0  0  0
  7  9  1  0  0  0
  7 12  1  0  0  0
  8 10  1  0  0  0
  8 12  1  0  0  0
  9 13  1  0  0  0
 10 13  1  0  0  0
 11 13  1  0  0  0
 14 15  1  0  0  0
 15 16  1  0  0  0
 15 17  1  0  0  0
M  END
> <minimizedAffinity>
-5.81940

$$$$
4ABG_91B_A_1255


 17 18  0  0  0  0  0  0  0  0999 V2000
  -25.9366    5.3042   14.2186 C   0  0  0  0  0  0  0  0  0  0  0  0
  -26.1247    4.9460   12.9079 C   0  0  0  0  0  0  0  0  0  0  0  0
  -24.8822    4.7738   14.9385 C   0  0  0  0  0  0  0  0  0  0  0  0
  -24.2257    3.5591   12.9999 C   0  0  0  0  0  0  0  0  0  0  0  0
  -25.2994    4.0428   12.2668 C   0  0  0  0  0  0  0  0  0  0  0  0
  -24.0004    3.8995   14.3151 C   0  0  0  0  0  0  0  0  0  0  0  0
  -23.1245    3.5068   16.5276 C   0  0  0  0  0  0  0  0  0  0  0  0
  -22.3754    2.0941   14.5067 C   0  0  0  0  0  0  0  0  0  0  0  0
  -21.8150    3.0612   17.2019 C   0  0  0  0  0  0  0  0  0  0  0  0
  -21.0319    1.9132   15.1757 C   0  0  0  0  0  0  0  0  0  0  0  0
  -20.0974    1.3454   17.3901 C   0  0  0  0  0  0  0  0  0  0  0  0
  -22.9318    3.3540   15.0599 N   0  0  0  0  0  0  0  0  0  0  0  0
  -21.2717    1.7989   16.6343 N   0  0  0  0  0  0  0  0  0  0  0  0
  -25.6224    3.7208   10.8090 C   0  0  0  0  0  0  0  0  0  0  0  0
  -26.5938    4.6853   10.2655 N   0  0  0  0  0  0  0  0  0  0  0  0
  -27.4583    4.6376   10.8047 H   0  0  0  0  0  0  0  0  0  0  0  0
  -26.7884    4.4590    9.2902 H   0  0  0  0  0  0  0  0  0  0  0  0
  1  2  1  0  0  0
  1  3  2  0  0  0
  2  5  2  0  0  0
  3  6  1  0  0  0
  4  5  1  0  0  0
  4  6  2  0  0  0
  5 14  1  0  0  0
  6 12  1  0  0  0
  7  9  1  0  0  0
  7 12  1  0  0  0
  8 10  1  0  0  0
  8 12  1  0  0  0
  9 13  1  0  0  0
 10 13  1  0  0  0
 11 13  1  0  0  0
 14 15  1  0  0  0
 15 16  1  0  0  0
 15 17  1  0  0  0
M  END
> <minimizedAffinity>
-5.47617

$$$$
4ABG_91B_A_1255


 17 18  0  0  0  0  0  0  0  0999 V2000
  -22.5659    4.3544   15.9725 C   0  0  0  0  0  0  0  0  0  0  0  0
  -21.7355    3.2680   16.0813 C   0  0  0  0  0  0  0  0  0  0  0  0
  -23.6305    4.3286   15.0908 C   0  0  0  0  0  0  0  0  0  0  0  0
  -23.0087    2.1162   14.4718 C   0  0  0  0  0  0  0  0  0  0  0  0
  -21.9087    2.1307   15.3169 C   0  0  0  0  0  0  0  0  0  0  0  0
  -23.8678    3.1842   14.3394 C   0  0  0  0  0  0  0  0  0  0  0  0
  -26.2671    3.0710   14.1215 C   0  0  0  0  0  0  0  0  0  0  0  0
  -24.7860    4.0643   12.2612 C   0  0  0  0  0  0  0  0  0  0  0  0
  -27.3309    2.8612   13.0295 C   0  0  0  0  0  0  0  0  0  0  0  0
  -25.8093    3.6030   11.2486 C   0  0  0  0  0  0  0  0  0  0  0  0
  -28.2554    3.6201   10.9084 C   0  0  0  0  0  0  0  0  0  0  0  0
  -24.9511    3.1693   13.4336 N   0  0  0  0  0  0  0  0  0  0  0  0
  -27.1490    3.7648   11.8628 N   0  0  0  0  0  0  0  0  0  0  0  0
  -20.9093    0.9946   15.5262 C   0  0  0  0  0  0  0  0  0  0  0  0
  -19.9115    1.3603   16.5459 N   0  0  0  0  0  0  0  0  0  0  0  0
  -19.3990    2.1871   16.2391 H   0  0  0  0  0  0  0  0  0  0  0  0
  -19.2604    0.5861   16.6775 H   0  0  0  0  0  0  0  0  0  0  0  0
  1  2  1  0  0  0
  1  3  2  0  0  0
  2  5  2  0  0  0
  3  6  1  0  0  0
  4  5  1  0  0  0
  4  6  2  0  0  0
  5 14  1  0  0  0
  6 12  1  0  0  0
  7  9  1  0  0  0
  7 12  1  0  0  0
  8 10  1  0  0  0
  8 12  1  0  0  0
  9 13  1  0  0  0
 10 13  1  0  0  0
 11 13  1  0  0  0
 14 15  1  0  0  0
 15 16  1  0  0  0
 15 17  1  0  0  0
M  END
> <minimizedAffinity>
-5.34537

$$$$
4ABG_91B_A_1255


 17 18  0  0  0  0  0  0  0  0999 V2000
  -23.6591    2.4426   14.3545 C   0  0  0  0  0  0  0  0  0  0  0  0
  -22.5822    1.8201   14.9328 C   0  0  0  0  0  0  0  0  0  0  0  0
  -23.9682    3.7479   14.6891 C   0  0  0  0  0  0  0  0  0  0  0  0
  -22.0942    3.7704   16.1560 C   0  0  0  0  0  0  0  0  0  0  0  0
  -21.7864    2.4482   15.8708 C   0  0  0  0  0  0  0  0  0  0  0  0
  -23.1628    4.4309   15.5921 C   0  0  0  0  0  0  0  0  0  0  0  0
  -24.6771    6.2651   15.1928 C   0  0  0  0  0  0  0  0  0  0  0  0
  -23.3171    6.0852   17.3743 C   0  0  0  0  0  0  0  0  0  0  0  0
  -24.7992    7.7667   15.5062 C   0  0  0  0  0  0  0  0  0  0  0  0
  -23.3111    7.5947   17.4538 C   0  0  0  0  0  0  0  0  0  0  0  0
  -24.8720    9.4943   17.2208 C   0  0  0  0  0  0  0  0  0  0  0  0
  -23.4909    5.7605   15.9365 N   0  0  0  0  0  0  0  0  0  0  0  0
  -24.6209    8.0732   16.9502 N   0  0  0  0  0  0  0  0  0  0  0  0
  -20.6237    1.6419   16.4465 C   0  0  0  0  0  0  0  0  0  0  0  0
  -19.9499    2.3931   17.5194 N   0  0  0  0  0  0  0  0  0  0  0  0
  -19.5807    3.2662   17.1429 H   0  0  0  0  0  0  0  0  0  0  0  0
  -19.1842    1.8346   17.8963 H   0  0  0  0  0  0  0  0  0  0  0  0
  1  2  1  0  0  0
  1  3  2  0  0  0
  2  5  2  0  0  0
  3  6  1  0  0  0
  4  5  1  0  0  0
  4  6  2  0  0  0
  5 14  1  0  0  0
  6 12  1  0  0  0
  7  9  1  0  0  0
  7 12  1  0  0  0
  8 10  1  0  0  0
  8 12  1  0  0  0
  9 13  1  0  0  0
 10 13  1  0  0  0
 11 13  1  0  0  0
 14 15  1  0  0  0
 15 16  1  0  0  0
 15 17  1  0  0  0
M  END
> <minimizedAffinity>
-5.12145

$$$$
4ABG_91B_A_1255


 17 18  0  0  0  0  0  0  0  0999 V2000
  -23.2330    4.7770   15.5284 C   0  0  0  0  0  0  0  0  0  0  0  0
  -22.2374    3.8560   15.7336 C   0  0  0  0  0  0  0  0  0  0  0  0
  -24.4442    4.3817   14.9916 C   0  0  0  0  0  0  0  0  0  0  0  0
  -23.6277    2.1478   14.9045 C   0  0  0  0  0  0  0  0  0  0  0  0
  -22.3884    2.5237   15.4018 C   0  0  0  0  0  0  0  0  0  0  0  0
  -24.6531    3.0415   14.6901 C   0  0  0  0  0  0  0  0  0  0  0  0
  -26.5558    1.5783   14.9247 C   0  0  0  0  0  0  0  0  0  0  0  0
  -26.6874    3.7580   13.5565 C   0  0  0  0  0  0  0  0  0  0  0  0
  -27.7725    1.1064   14.1092 C   0  0  0  0  0  0  0  0  0  0  0  0
  -27.7242    3.1005   12.6745 C   0  0  0  0  0  0  0  0  0  0  0  0
  -29.7764    1.7419   12.8802 C   0  0  0  0  0  0  0  0  0  0  0  0
  -25.8892    2.6472   14.1326 N   0  0  0  0  0  0  0  0  0  0  0  0
  -28.5590    2.2320   13.5388 N   0  0  0  0  0  0  0  0  0  0  0  0
  -21.2005    1.6021   15.6715 C   0  0  0  0  0  0  0  0  0  0  0  0
  -20.2774    1.5931   14.5238 N   0  0  0  0  0  0  0  0  0  0  0  0
  -20.7671    1.2529   13.6963 H   0  0  0  0  0  0  0  0  0  0  0  0
  -19.4877    0.9805   14.7275 H   0  0  0  0  0  0  0  0  0  0  0  0
  1  2  1  0  0  0
  1  3  2  0  0  0
  2  5  2  0  0  0
  3  6  1  0  0  0
  4  5  1  0  0  0
  4  6  2  0  0  0
  5 14  1  0  0  0
  6 12  1  0  0  0
  7  9  1  0  0  0
  7 12  1  0  0  0
  8 10  1  0  0  0
  8 12  1  0  0  0
  9 13  1  0  0  0
 10 13  1  0  0  0
 11 13  1  0  0  0
 14 15  1  0  0  0
 15 16  1  0  0  0
 15 17  1  0  0  0
M  END
> <minimizedAffinity>
-5.10427

$$$$
4ABG_91B_A_1255


 17 18  0  0  0  0  0  0  0  0999 V2000
  -25.6232    6.7473   15.0312 C   0  0  0  0  0  0  0  0  0  0  0  0
  -25.0936    7.8373   15.6739 C   0  0  0  0  0  0  0  0  0  0  0  0
  -24.8906    5.5794   14.9269 C   0  0  0  0  0  0  0  0  0  0  0  0
  -23.1281    6.6278   16.1346 C   0  0  0  0  0  0  0  0  0  0  0  0
  -23.8236    7.8253   16.2169 C   0  0  0  0  0  0  0  0  0  0  0  0
  -23.6281    5.5110   15.5031 C   0  0  0  0  0  0  0  0  0  0  0  0
  -22.4395    3.7887   16.7020 C   0  0  0  0  0  0  0  0  0  0  0  0
  -23.3673    3.3909   14.3311 C   0  0  0  0  0  0  0  0  0  0  0  0
  -21.4800    2.6196   16.4184 C   0  0  0  0  0  0  0  0  0  0  0  0
  -22.2341    2.4201   14.0885 C   0  0  0  0  0  0  0  0  0  0  0  0
  -21.1002    0.5372   15.2146 C   0  0  0  0  0  0  0  0  0  0  0  0
  -22.8819    4.3181   15.3835 N   0  0  0  0  0  0  0  0  0  0  0  0
  -21.9815    1.7024   15.3610 N   0  0  0  0  0  0  0  0  0  0  0  0
  -23.3475    9.1071   16.8975 C   0  0  0  0  0  0  0  0  0  0  0  0
  -22.5901    8.7962   18.1218 N   0  0  0  0  0  0  0  0  0  0  0  0
  -23.1898    8.2898   18.7732 H   0  0  0  0  0  0  0  0  0  0  0  0
  -22.2734    9.6636   18.5552 H   0  0  0  0  0  0  0  0  0  0  0  0
  1  2  1  0  0  0
  1  3  2  0  0  0
  2  5  2  0  0  0
  3  6  1  0  0  0
  4  5  1  0  0  0
  4  6  2  0  0  0
  5 14  1  0  0  0
  6 12  1  0  0  0
  7  9  1  0  0  0
  7 12  1  0  0  0
  8 10  1  0  0  0
  8 12  1  0  0  0
  9 13  1  0  0  0
 10 13  1  0  0  0
 11 13  1  0  0  0
 14 15  1  0  0  0
 15 16  1  0  0  0
 15 17  1  0  0  0
M  END
> <minimizedAffinity>
-4.86264

$$$$
4ABG_91B_A_1255


 17 18  0  0  0  0  0  0  0  0999 V2000
  -23.2753   10.6039   15.3517 C   0  0  0  0  0  0  0  0  0  0  0  0
  -22.3640   11.0659   16.2670 C   0  0  0  0  0  0  0  0  0  0  0  0
  -23.6312    9.2680   15.3403 C   0  0  0  0  0  0  0  0  0  0  0  0
  -22.1647    8.9059   17.1795 C   0  0  0  0  0  0  0  0  0  0  0  0
  -21.7577   10.2320   17.1861 C   0  0  0  0  0  0  0  0  0  0  0  0
  -23.0805    8.4061   16.2808 C   0  0  0  0  0  0  0  0  0  0  0  0
  -23.3448    6.4025   17.5969 C   0  0  0  0  0  0  0  0  0  0  0  0
  -24.5768    6.7202   15.3559 C   0  0  0  0  0  0  0  0  0  0  0  0
  -23.5641    4.8930   17.3930 C   0  0  0  0  0  0  0  0  0  0  0  0
  -24.5295    5.2222   15.1577 C   0  0  0  0  0  0  0  0  0  0  0  0
  -24.9560    3.1455   16.4243 C   0  0  0  0  0  0  0  0  0  0  0  0
  -23.4413    7.0410   16.2562 N   0  0  0  0  0  0  0  0  0  0  0  0
  -24.7041    4.5906   16.4876 N   0  0  0  0  0  0  0  0  0  0  0  0
  -20.7530   10.8688   18.1443 C   0  0  0  0  0  0  0  0  0  0  0  0
  -19.5646   11.3418   17.4140 N   0  0  0  0  0  0  0  0  0  0  0  0
  -19.1129   10.5525   16.9522 H   0  0  0  0  0  0  0  0  0  0  0  0
  -18.9116   11.7715   18.0693 H   0  0  0  0  0  0  0  0  0  0  0  0
  1  2  1  0  0  0
  1  3  2  0  0  0
  2  5  2  0  0  0
  3  6  1  0  0  0
  4  5  1  0  0  0
  4  6  2  0  0  0
  5 14  1  0  0  0
  6 12  1  0  0  0
  7  9  1  0  0  0
  7 12  1  0  0  0
  8 10  1  0  0  0
  8 12  1  0  0  0
  9 13  1  0  0  0
 10 13  1  0  0  0
 11 13  1  0  0  0
 14 15  1  0  0  0
 15 16  1  0  0  0
 15 17  1  0  0  0
M  END
> <minimizedAffinity>
-4.58364

$$$$
4ABG_91B_A_1255


 17 18  0  0  0  0  0  0  0  0999 V2000
  -24.5087    6.9776   18.1022 C   0  0  0  0  0  0  0  0  0  0  0  0
  -24.2384    8.1616   17.4645 C   0  0  0  0  0  0  0  0  0  0  0  0
  -24.0484    5.7850   17.5757 C   0  0  0  0  0  0  0  0  0  0  0  0
  -23.0416    7.0074   15.7991 C   0  0  0  0  0  0  0  0  0  0  0  0
  -23.5268    8.2140   16.2819 C   0  0  0  0  0  0  0  0  0  0  0  0
  -23.2868    5.7998   16.4137 C   0  0  0  0  0  0  0  0  0  0  0  0
  -22.3324    3.6447   16.9252 C   0  0  0  0  0  0  0  0  0  0  0  0
  -23.6345    4.0626   14.7410 C   0  0  0  0  0  0  0  0  0  0  0  0
  -21.6851    2.4530   16.1980 C   0  0  0  0  0  0  0  0  0  0  0  0
  -22.7720    3.0191   14.0684 C   0  0  0  0  0  0  0  0  0  0  0  0
  -21.9140    0.7405   14.4820 C   0  0  0  0  0  0  0  0  0  0  0  0
  -22.8288    4.5767   15.8766 N   0  0  0  0  0  0  0  0  0  0  0  0
  -22.5050    1.9525   15.0630 N   0  0  0  0  0  0  0  0  0  0  0  0
  -23.3021    9.5943   15.6674 C   0  0  0  0  0  0  0  0  0  0  0  0
  -21.8636    9.8604   15.4970 N   0  0  0  0  0  0  0  0  0  0  0  0
  -21.4029    9.8344   16.4066 H   0  0  0  0  0  0  0  0  0  0  0  0
  -21.7356   10.7812   15.0773 H   0  0  0  0  0  0  0  0  0  0  0  0
  1  2  1  0  0  0
  1  3  2  0  0  0
  2  5  2  0  0  0
  3  6  1  0  0  0
  4  5  1  0  0  0
  4  6  2  0  0  0
  5 14  1  0  0  0
  6 12  1  0  0  0
  7  9  1  0  0  0
  7 12  1  0  0  0
  8 10  1  0  0  0
  8 12  1  0  0  0
  9 13  1  0  0  0
 10 13  1  0  0  0
 11 13  1  0  0  0
 14 15  1  0  0  0
 15 16  1  0  0  0
 15 17  1  0  0  0
M  END
> <minimizedAffinity>
-4.54894

$$$$
4ABG_91B_A_1255


 17 18  0  0  0  0  0  0  0  0999 V2000
  -25.2781    2.6934   14.8011 C   0  0  0  0  0  0  0  0  0  0  0  0
  -24.0877    2.0941   14.4764 C   0  0  0  0  0  0  0  0  0  0  0  0
  -25.2861    3.9096   15.4586 C   0  0  0  0  0  0  0  0  0  0  0  0
  -22.9064    3.8955   15.4238 C   0  0  0  0  0  0  0  0  0  0  0  0
  -22.8687    2.6559   14.8024 C   0  0  0  0  0  0  0  0  0  0  0  0
  -24.0807    4.5312   15.7605 C   0  0  0  0  0  0  0  0  0  0  0  0
  -24.4450    5.6216   17.8805 C   0  0  0  0  0  0  0  0  0  0  0  0
  -23.0340    6.7157   16.0224 C   0  0  0  0  0  0  0  0  0  0  0  0
  -24.6246    7.0411   18.4469 C   0  0  0  0  0  0  0  0  0  0  0  0
  -23.4671    8.0689   16.5388 C   0  0  0  0  0  0  0  0  0  0  0  0
  -23.6919    9.2784   18.6802 C   0  0  0  0  0  0  0  0  0  0  0  0
  -24.0970    5.7683   16.4412 N   0  0  0  0  0  0  0  0  0  0  0  0
  -23.5520    7.9764   18.0160 N   0  0  0  0  0  0  0  0  0  0  0  0
  -21.6164    1.8830   14.3930 C   0  0  0  0  0  0  0  0  0  0  0  0
  -21.4620    1.8799   12.9283 N   0  0  0  0  0  0  0  0  0  0  0  0
  -22.2718    1.4294   12.5020 H   0  0  0  0  0  0  0  0  0  0  0  0
  -20.6164    1.3680   12.6766 H   0  0  0  0  0  0  0  0  0  0  0  0
  1  2  1  0  0  0
  1  3  2  0  0  0
  2  5  2  0  0  0
  3  6  1  0  0  0
  4  5  1  0  0  0
  4  6  2  0  0  0
  5 14  1  0  0  0
  6 12  1  0  0  0
  7  9  1  0  0  0
  7 12  1  0  0  0
  8 10  1  0  0  0
  8 12  1  0  0  0
  9 13  1  0  0  0
 10 13  1  0  0  0
 11 13  1  0  0  0
 14 15  1  0  0  0
 15 16  1  0  0  0
 15 17  1  0  0  0
M  END
> <minimizedAffinity>
-4.41882

$$$$
