4RFR_RHN_B_301


 24 26  0  0  0  0  0  0  0  0999 V2000
   -2.2659    5.3048    2.6261 O   0  0  0  0  0  0  0  0  0  0  0  0
   -1.0089    0.4958    4.7468 O   0  0  0  0  0  0  0  0  0  0  0  0
   -0.2317    1.5244    6.8571 O   0  0  0  0  0  0  0  0  0  0  0  0
   -2.5654   -0.6537    2.9270 O   0  0  0  0  0  0  0  0  0  0  0  0
   -1.2403    5.0123    6.6933 C   0  0  0  0  0  0  0  0  0  0  0  0
   -0.7231    3.8166    7.1686 C   0  0  0  0  0  0  0  0  0  0  0  0
   -1.7430    5.0846    5.3899 C   0  0  0  0  0  0  0  0  0  0  0  0
   -3.2781    0.6699    1.1491 C   0  0  0  0  0  0  0  0  0  0  0  0
   -3.1076    3.0379    1.2289 C   0  0  0  0  0  0  0  0  0  0  0  0
   -3.4584    1.8850    0.5336 C   0  0  0  0  0  0  0  0  0  0  0  0
   -0.6978    2.6967    6.3452 C   0  0  0  0  0  0  0  0  0  0  0  0
   -2.6088    0.5696    2.3614 C   0  0  0  0  0  0  0  0  0  0  0  0
   -2.1441    4.0753    3.2276 C   0  0  0  0  0  0  0  0  0  0  0  0
   -1.2869    1.6949    4.1735 C   0  0  0  0  0  0  0  0  0  0  0  0
   -1.6694    3.9866    4.5378 C   0  0  0  0  0  0  0  0  0  0  0  0
   -2.4935    2.9497    2.4885 C   0  0  0  0  0  0  0  0  0  0  0  0
   -1.2754    2.7579    5.0679 C   0  0  0  0  0  0  0  0  0  0  0  0
   -2.1565    1.7040    3.0294 C   0  0  0  0  0  0  0  0  0  0  0  0
    0.1505    1.5057    7.7124 H   0  0  0  0  0  0  0  0  0  0  0  0
   -2.8769   -1.4000    2.4537 H   0  0  0  0  0  0  0  0  0  0  0  0
   -4.3811    3.0368   -1.3399 O   0  0  0  0  0  0  0  0  0  0  0  0
   -4.4628    0.8817   -1.4085 O   0  0  0  0  0  0  0  0  0  0  0  0
   -4.1342    1.9347   -0.8102 C   0  0  0  0  0  0  0  0  0  0  0  0
   -4.2831    0.0474   -1.0216 H   0  0  0  0  0  0  0  0  0  0  0  0
 21 23  2  0  0  0
 13  1  2  0  0  0
  2 14  2  0  0  0
 23 22  1  0  0  0
  3 11  1  0  0  0
  4 12  1  0  0  0
  6  5  2  0  0  0
  5  7  1  0  0  0
 11  6  1  0  0  0
 15  7  2  0  0  0
 12  8  2  0  0  0
  8 10  1  0  0  0
 16  9  1  0  0  0
 10  9  2  0  0  0
 10 23  1  0  0  0
 11 17  2  0  0  0
 12 18  1  0  0  0
 15 13  1  0  0  0
 16 13  1  0  0  0
 14 17  1  0  0  0
 14 18  1  0  0  0
 17 15  1  0  0  0
 18 16  2  0  0  0
 22 24  1  0  0  0
  3 19  1  0  0  0
  4 20  1  0  0  0
M  END
> <minimizedAffinity>
-12.09100

$$$$
4RFR_RHN_B_301


 24 26  0  0  0  0  0  0  0  0999 V2000
   -1.5130    0.0371    3.3382 O   0  0  0  0  0  0  0  0  0  0  0  0
   -2.5953    5.1148    1.8387 O   0  0  0  0  0  0  0  0  0  0  0  0
   -3.6325    4.3682   -0.2784 O   0  0  0  0  0  0  0  0  0  0  0  0
   -2.2909    5.8697    4.3672 O   0  0  0  0  0  0  0  0  0  0  0  0
   -3.9537    0.7580   -0.0089 C   0  0  0  0  0  0  0  0  0  0  0  0
   -4.0507    2.0512   -0.5001 C   0  0  0  0  0  0  0  0  0  0  0  0
   -3.2856    0.5190    1.1967 C   0  0  0  0  0  0  0  0  0  0  0  0
   -1.3241    4.3341    5.8258 C   0  0  0  0  0  0  0  0  0  0  0  0
   -1.1330    2.0375    5.2495 C   0  0  0  0  0  0  0  0  0  0  0  0
   -0.9012    3.0687    6.1543 C   0  0  0  0  0  0  0  0  0  0  0  0
   -3.4760    3.1041    0.2024 C   0  0  0  0  0  0  0  0  0  0  0  0
   -1.8167    4.6223    4.5602 C   0  0  0  0  0  0  0  0  0  0  0  0
   -1.9641    1.3059    3.0648 C   0  0  0  0  0  0  0  0  0  0  0  0
   -2.2687    3.8517    2.2151 C   0  0  0  0  0  0  0  0  0  0  0  0
   -2.6565    1.5567    1.8783 C   0  0  0  0  0  0  0  0  0  0  0  0
   -1.6966    2.3077    3.9922 C   0  0  0  0  0  0  0  0  0  0  0  0
   -2.8769    2.8654    1.4487 C   0  0  0  0  0  0  0  0  0  0  0  0
   -1.9631    3.6243    3.6008 C   0  0  0  0  0  0  0  0  0  0  0  0
   -4.0352    4.5053   -1.1132 H   0  0  0  0  0  0  0  0  0  0  0  0
   -2.1780    6.5217    5.0306 H   0  0  0  0  0  0  0  0  0  0  0  0
   -0.8105    1.9441    8.2556 O   0  0  0  0  0  0  0  0  0  0  0  0
    0.6620    3.4884    7.9341 O   0  0  0  0  0  0  0  0  0  0  0  0
   -0.3159    2.8207    7.5185 C   0  0  0  0  0  0  0  0  0  0  0  0
    1.0427    4.1497    7.3904 H   0  0  0  0  0  0  0  0  0  0  0  0
 21 23  2  0  0  0
 13  1  2  0  0  0
  2 14  2  0  0  0
 23 22  1  0  0  0
  3 11  1  0  0  0
  4 12  1  0  0  0
  6  5  2  0  0  0
  5  7  1  0  0  0
 11  6  1  0  0  0
 15  7  2  0  0  0
 12  8  2  0  0  0
  8 10  1  0  0  0
 16  9  1  0  0  0
 10  9  2  0  0  0
 10 23  1  0  0  0
 11 17  2  0  0  0
 12 18  1  0  0  0
 15 13  1  0  0  0
 16 13  1  0  0  0
 14 17  1  0  0  0
 14 18  1  0  0  0
 17 15  1  0  0  0
 18 16  2  0  0  0
 22 24  1  0  0  0
  3 19  1  0  0  0
  4 20  1  0  0  0
M  END
> <minimizedAffinity>
-9.70403

$$$$
4RFR_RHN_B_301


 24 26  0  0  0  0  0  0  0  0999 V2000
   -2.7831    5.1078    2.7835 O   0  0  0  0  0  0  0  0  0  0  0  0
   -2.2702   -0.2401    3.3671 O   0  0  0  0  0  0  0  0  0  0  0  0
   -3.3201   -0.6750    1.1708 O   0  0  0  0  0  0  0  0  0  0  0  0
   -0.4425    0.1940    5.2451 O   0  0  0  0  0  0  0  0  0  0  0  0
   -3.5789    2.5600   -0.4654 C   0  0  0  0  0  0  0  0  0  0  0  0
   -3.6443    1.1927   -0.2430 C   0  0  0  0  0  0  0  0  0  0  0  0
   -3.1532    3.4127    0.5586 C   0  0  0  0  0  0  0  0  0  0  0  0
   -0.2588    2.3641    6.0681 C   0  0  0  0  0  0  0  0  0  0  0  0
   -1.2341    4.2034    4.9240 C   0  0  0  0  0  0  0  0  0  0  0  0
   -0.5185    3.7122    6.0114 C   0  0  0  0  0  0  0  0  0  0  0  0
   -3.2952    0.6753    0.9992 C   0  0  0  0  0  0  0  0  0  0  0  0
   -0.8327    1.4820    5.1625 C   0  0  0  0  0  0  0  0  0  0  0  0
   -2.4637    3.7729    2.8499 C   0  0  0  0  0  0  0  0  0  0  0  0
   -2.4321    1.1043    3.2659 C   0  0  0  0  0  0  0  0  0  0  0  0
   -2.8575    2.9123    1.8232 C   0  0  0  0  0  0  0  0  0  0  0  0
   -1.7596    3.3250    3.9630 C   0  0  0  0  0  0  0  0  0  0  0  0
   -2.7949    1.5292    1.9939 C   0  0  0  0  0  0  0  0  0  0  0  0
   -1.6376    1.9403    4.1233 C   0  0  0  0  0  0  0  0  0  0  0  0
   -3.6585   -1.2272    0.4936 H   0  0  0  0  0  0  0  0  0  0  0  0
    0.0995   -0.0867    5.9561 H   0  0  0  0  0  0  0  0  0  0  0  0
    1.3152    4.6747    7.1943 O   0  0  0  0  0  0  0  0  0  0  0  0
   -0.6540    5.3206    7.7952 O   0  0  0  0  0  0  0  0  0  0  0  0
    0.0768    4.6195    7.0542 C   0  0  0  0  0  0  0  0  0  0  0  0
   -1.5857    5.2884    7.7002 H   0  0  0  0  0  0  0  0  0  0  0  0
 21 23  2  0  0  0
 13  1  2  0  0  0
  2 14  2  0  0  0
 23 22  1  0  0  0
  3 11  1  0  0  0
  4 12  1  0  0  0
  6  5  2  0  0  0
  5  7  1  0  0  0
 11  6  1  0  0  0
 15  7  2  0  0  0
 12  8  2  0  0  0
  8 10  1  0  0  0
 16  9  1  0  0  0
 10  9  2  0  0  0
 10 23  1  0  0  0
 11 17  2  0  0  0
 12 18  1  0  0  0
 15 13  1  0  0  0
 16 13  1  0  0  0
 14 17  1  0  0  0
 14 18  1  0  0  0
 17 15  1  0  0  0
 18 16  2  0  0  0
 22 24  1  0  0  0
  3 19  1  0  0  0
  4 20  1  0  0  0
M  END
> <minimizedAffinity>
-9.11577

$$$$
