5N1Z_8GQ_A_202


 39 44  0  0  0  0  0  0  0  0999 V2000
    4.7259   -2.5332  -11.8872 C   0  0  0  0  0  0  0  0  0  0  0  0
    5.3496   -2.2145  -13.0978 C   0  0  0  0  0  0  0  0  0  0  0  0
    5.1120   -2.9928  -14.2237 C   0  0  0  0  0  0  0  0  0  0  0  0
    5.0544   -1.8655  -10.6895 N   0  0  0  0  0  0  0  0  0  0  0  0
    2.0493   -5.9450  -14.2316 C   0  0  0  0  0  0  0  0  0  0  0  0
    2.9007   -5.6966  -15.4509 C   0  0  0  0  0  0  0  0  0  0  0  0
    6.7137   -1.7811  -15.5878 C   0  0  0  0  0  0  0  0  0  0  0  0
    8.0519   -2.3799  -15.2964 C   0  0  0  0  0  0  0  0  0  0  0  0
    9.1476   -1.7366  -14.9104 C   0  0  0  0  0  0  0  0  0  0  0  0
   10.5001   -2.3558  -14.7508 C   0  0  0  0  0  0  0  0  0  0  0  0
   11.0857   -3.3986  -12.5956 C   0  0  0  0  0  0  0  0  0  0  0  0
   12.0187   -3.2302  -11.4030 C   0  0  0  0  0  0  0  0  0  0  0  0
   11.2026   -2.3749  -10.4156 C   0  0  0  0  0  0  0  0  0  0  0  0
    9.7300   -3.6063  -11.9375 C   0  0  0  0  0  0  0  0  0  0  0  0
    6.3205   -1.7305  -10.1385 C   0  0  0  0  0  0  0  0  0  0  0  0
    7.8453   -0.5634   -8.7453 C   0  0  0  0  0  0  0  0  0  0  0  0
    7.7811    0.4048   -7.7479 C   0  0  0  0  0  0  0  0  0  0  0  0
    6.4103    0.6645   -7.5950 C   0  0  0  0  0  0  0  0  0  0  0  0
    5.6418   -0.0316   -8.4625 N   0  0  0  0  0  0  0  0  0  0  0  0
    6.5467   -0.8325   -9.1385 N   0  0  0  0  0  0  0  0  0  0  0  0
    7.4149   -2.4104  -10.6539 C   0  0  0  0  0  0  0  0  0  0  0  0
    8.9144   -1.2173   -9.2176 N   0  0  0  0  0  0  0  0  0  0  0  0
    8.7024   -2.0784  -10.2323 C   0  0  0  0  0  0  0  0  0  0  0  0
    9.8081   -2.6776  -10.8089 N   0  0  0  0  0  0  0  0  0  0  0  0
   11.0562   -2.2163  -13.4120 O   0  0  0  0  0  0  0  0  0  0  0  0
    5.6574   -2.7560  -15.4675 O   0  0  0  0  0  0  0  0  0  0  0  0
    4.1745   -4.0439  -14.1790 C   0  0  0  0  0  0  0  0  0  0  0  0
    3.8662   -4.7529  -15.3360 N   0  0  0  0  0  0  0  0  0  0  0  0
    2.6671   -6.2493  -16.5156 O   0  0  0  0  0  0  0  0  0  0  0  0
    2.6091   -5.5251  -12.8927 C   0  0  0  0  0  0  0  0  0  0  0  0
    3.5403   -4.3402  -12.9668 C   0  0  0  0  0  0  0  0  0  0  0  0
    3.8514   -3.6138  -11.8226 C   0  0  0  0  0  0  0  0  0  0  0  0
    4.3100   -1.4535  -10.1941 H   0  0  0  0  0  0  0  0  0  0  0  0
    4.3956   -4.5513  -16.1411 H   0  0  0  0  0  0  0  0  0  0  0  0
   11.6285   -0.9128  -10.4115 C   0  0  0  0  0  0  0  0  0  0  0  0
   11.6502   -0.3648   -9.0990 O   0  0  0  0  0  0  0  0  0  0  0  0
   10.7591   -0.4035   -8.7177 H   0  0  0  0  0  0  0  0  0  0  0  0
    9.7567    1.4968   -6.5273 N   0  0  0  0  0  0  0  0  0  0  0  0
    8.8774    1.0069   -7.0641 C   0  0  0  0  0  0  0  0  0  0  0  0
 29  6  2  0  0  0
  7 26  1  0  0  0
  7  8  1  0  0  0
  6 28  1  0  0  0
  6  5  1  0  0  0
 26  3  1  0  0  0
 28 27  1  0  0  0
  8  9  2  0  0  0
  9 10  1  0  0  0
 10 25  1  0  0  0
  5 30  1  0  0  0
  3 27  2  0  0  0
  3  2  1  0  0  0
 27 31  1  0  0  0
 25 11  1  0  0  0
  2  1  2  0  0  0
 31 30  1  0  0  0
 31 32  2  0  0  0
 11 14  1  0  0  0
 11 12  1  0  0  0
 14 24  1  0  0  0
  1 32  1  0  0  0
  1  4  1  0  0  0
 12 13  1  0  0  0
 24 13  1  0  0  0
 24 23  1  0  0  0
 21 23  1  0  0  0
 21 15  2  0  0  0
  4 15  1  0  0  0
 13 35  1  0  0  0
 35 36  1  0  0  0
 23 22  2  0  0  0
 15 20  1  0  0  0
 22 16  1  0  0  0
 20 16  1  0  0  0
 20 19  1  0  0  0
 16 17  2  0  0  0
 19 18  2  0  0  0
 17 18  1  0  0  0
 17 39  1  0  0  0
 39 38  3  0  0  0
  4 33  1  0  0  0
 36 37  1  0  0  0
 28 34  1  0  0  0
M  END
> <minimizedAffinity>
-10.64062

$$$$
5N1Z_8GQ_A_202


 39 44  0  0  0  0  0  0  0  0999 V2000
    3.3981   -5.1595  -15.9365 C   0  0  0  0  0  0  0  0  0  0  0  0
    4.0233   -4.1361  -15.2169 C   0  0  0  0  0  0  0  0  0  0  0  0
    4.9817   -3.3426  -15.8347 C   0  0  0  0  0  0  0  0  0  0  0  0
    2.5349   -6.0816  -15.3097 N   0  0  0  0  0  0  0  0  0  0  0  0
    5.6074   -3.5463  -20.0374 C   0  0  0  0  0  0  0  0  0  0  0  0
    6.4035   -2.6027  -19.1719 C   0  0  0  0  0  0  0  0  0  0  0  0
    5.5138   -2.1324  -13.7982 C   0  0  0  0  0  0  0  0  0  0  0  0
    6.5013   -2.9736  -13.0554 C   0  0  0  0  0  0  0  0  0  0  0  0
    6.4091   -3.3900  -11.7978 C   0  0  0  0  0  0  0  0  0  0  0  0
    7.4780   -4.1246  -11.0521 C   0  0  0  0  0  0  0  0  0  0  0  0
    7.5736   -6.5818  -11.2206 C   0  0  0  0  0  0  0  0  0  0  0  0
    7.3863   -7.8431  -10.3868 C   0  0  0  0  0  0  0  0  0  0  0  0
    5.8999   -8.1961  -10.5831 C   0  0  0  0  0  0  0  0  0  0  0  0
    6.7443   -6.8712  -12.4626 C   0  0  0  0  0  0  0  0  0  0  0  0
    2.8290   -6.8733  -14.2090 C   0  0  0  0  0  0  0  0  0  0  0  0
    2.1161   -8.1205  -12.3210 C   0  0  0  0  0  0  0  0  0  0  0  0
    0.9228   -8.6487  -11.8378 C   0  0  0  0  0  0  0  0  0  0  0  0
   -0.0311   -8.3162  -12.8122 C   0  0  0  0  0  0  0  0  0  0  0  0
    0.4819   -7.5785  -13.8222 N   0  0  0  0  0  0  0  0  0  0  0  0
    1.8332   -7.5085  -13.5289 N   0  0  0  0  0  0  0  0  0  0  0  0
    4.1151   -6.9557  -13.6945 C   0  0  0  0  0  0  0  0  0  0  0  0
    3.3509   -8.2253  -11.8132 N   0  0  0  0  0  0  0  0  0  0  0  0
    4.3333   -7.5676  -12.4601 C   0  0  0  0  0  0  0  0  0  0  0  0
    5.5933   -7.5697  -11.8887 N   0  0  0  0  0  0  0  0  0  0  0  0
    7.0553   -5.4233  -10.5464 O   0  0  0  0  0  0  0  0  0  0  0  0
    5.6425   -2.2972  -15.2255 O   0  0  0  0  0  0  0  0  0  0  0  0
    5.2606   -3.4996  -17.2070 C   0  0  0  0  0  0  0  0  0  0  0  0
    6.1462   -2.6342  -17.8420 N   0  0  0  0  0  0  0  0  0  0  0  0
    7.1705   -1.7845  -19.6579 O   0  0  0  0  0  0  0  0  0  0  0  0
    4.9802   -4.7462  -19.3672 C   0  0  0  0  0  0  0  0  0  0  0  0
    4.6128   -4.5136  -17.9223 C   0  0  0  0  0  0  0  0  0  0  0  0
    3.7217   -5.3621  -17.2748 C   0  0  0  0  0  0  0  0  0  0  0  0
    1.6322   -6.1728  -15.6917 H   0  0  0  0  0  0  0  0  0  0  0  0
    6.6277   -1.9887  -17.2757 H   0  0  0  0  0  0  0  0  0  0  0  0
    5.0375   -7.7958   -9.3934 C   0  0  0  0  0  0  0  0  0  0  0  0
    5.8118   -7.2623   -8.3261 O   0  0  0  0  0  0  0  0  0  0  0  0
    6.4365   -7.9347   -8.0122 H   0  0  0  0  0  0  0  0  0  0  0  0
    0.5823   -9.9108   -9.6295 N   0  0  0  0  0  0  0  0  0  0  0  0
    0.7275   -9.3459  -10.6100 C   0  0  0  0  0  0  0  0  0  0  0  0
 29  6  2  0  0  0
  7 26  1  0  0  0
  7  8  1  0  0  0
  6 28  1  0  0  0
  6  5  1  0  0  0
 26  3  1  0  0  0
 28 27  1  0  0  0
  8  9  2  0  0  0
  9 10  1  0  0  0
 10 25  1  0  0  0
  5 30  1  0  0  0
  3 27  2  0  0  0
  3  2  1  0  0  0
 27 31  1  0  0  0
 25 11  1  0  0  0
  2  1  2  0  0  0
 31 30  1  0  0  0
 31 32  2  0  0  0
 11 14  1  0  0  0
 11 12  1  0  0  0
 14 24  1  0  0  0
  1 32  1  0  0  0
  1  4  1  0  0  0
 12 13  1  0  0  0
 24 13  1  0  0  0
 24 23  1  0  0  0
 21 23  1  0  0  0
 21 15  2  0  0  0
  4 15  1  0  0  0
 13 35  1  0  0  0
 35 36  1  0  0  0
 23 22  2  0  0  0
 15 20  1  0  0  0
 22 16  1  0  0  0
 20 16  1  0  0  0
 20 19  1  0  0  0
 16 17  2  0  0  0
 19 18  2  0  0  0
 17 18  1  0  0  0
 17 39  1  0  0  0
 39 38  3  0  0  0
  4 33  1  0  0  0
 36 37  1  0  0  0
 28 34  1  0  0  0
M  END
> <minimizedAffinity>
-9.23048

$$$$
5N1Z_8GQ_A_202


 39 44  0  0  0  0  0  0  0  0999 V2000
    2.4841   -6.8731  -14.4294 C   0  0  0  0  0  0  0  0  0  0  0  0
    3.4995   -7.4743  -13.6788 C   0  0  0  0  0  0  0  0  0  0  0  0
    3.1882   -8.1279  -12.4932 C   0  0  0  0  0  0  0  0  0  0  0  0
    2.7725   -6.0731  -15.5541 N   0  0  0  0  0  0  0  0  0  0  0  0
   -0.8561   -8.8832  -11.4123 C   0  0  0  0  0  0  0  0  0  0  0  0
    0.2854   -9.3279  -10.5335 C   0  0  0  0  0  0  0  0  0  0  0  0
    5.5117   -8.5803  -11.9535 C   0  0  0  0  0  0  0  0  0  0  0  0
    6.0362   -7.3485  -11.2885 C   0  0  0  0  0  0  0  0  0  0  0  0
    7.1151   -6.6542  -11.6310 C   0  0  0  0  0  0  0  0  0  0  0  0
    7.6772   -5.4997  -10.8631 C   0  0  0  0  0  0  0  0  0  0  0  0
    6.8186   -3.2348  -11.3195 C   0  0  0  0  0  0  0  0  0  0  0  0
    7.2452   -1.8909  -11.8967 C   0  0  0  0  0  0  0  0  0  0  0  0
    6.8747   -1.9970  -13.3880 C   0  0  0  0  0  0  0  0  0  0  0  0
    5.5021   -3.5060  -12.0316 C   0  0  0  0  0  0  0  0  0  0  0  0
    3.6153   -4.9716  -15.5913 C   0  0  0  0  0  0  0  0  0  0  0  0
    5.0255   -3.4988  -16.8038 C   0  0  0  0  0  0  0  0  0  0  0  0
    5.2710   -3.1878  -18.1378 C   0  0  0  0  0  0  0  0  0  0  0  0
    4.3815   -3.9989  -18.8594 C   0  0  0  0  0  0  0  0  0  0  0  0
    3.6544   -4.8185  -18.0673 N   0  0  0  0  0  0  0  0  0  0  0  0
    4.0294   -4.4584  -16.7841 N   0  0  0  0  0  0  0  0  0  0  0  0
    4.1547   -4.4285  -14.4339 C   0  0  0  0  0  0  0  0  0  0  0  0
    5.5493   -2.9499  -15.7002 N   0  0  0  0  0  0  0  0  0  0  0  0
    5.1726   -3.4786  -14.5193 C   0  0  0  0  0  0  0  0  0  0  0  0
    5.7879   -3.0019  -13.3756 N   0  0  0  0  0  0  0  0  0  0  0  0
    7.7664   -4.2680  -11.6351 O   0  0  0  0  0  0  0  0  0  0  0  0
    4.1063   -8.7695  -11.6894 O   0  0  0  0  0  0  0  0  0  0  0  0
    1.8458   -8.2712  -12.0893 C   0  0  0  0  0  0  0  0  0  0  0  0
    1.5345   -9.0149  -10.9551 N   0  0  0  0  0  0  0  0  0  0  0  0
    0.0967  -10.0190   -9.5433 O   0  0  0  0  0  0  0  0  0  0  0  0
   -0.5927   -7.7528  -12.3792 C   0  0  0  0  0  0  0  0  0  0  0  0
    0.8359   -7.6834  -12.8600 C   0  0  0  0  0  0  0  0  0  0  0  0
    1.1636   -6.9536  -13.9972 C   0  0  0  0  0  0  0  0  0  0  0  0
    2.3312   -6.3212  -16.3985 H   0  0  0  0  0  0  0  0  0  0  0  0
    2.2874   -9.3422  -10.4116 H   0  0  0  0  0  0  0  0  0  0  0  0
    8.0799   -2.2782  -14.2756 C   0  0  0  0  0  0  0  0  0  0  0  0
    8.3622   -3.6691  -14.3707 O   0  0  0  0  0  0  0  0  0  0  0  0
    8.5691   -4.0181  -13.4896 H   0  0  0  0  0  0  0  0  0  0  0  0
    6.9988   -1.5197  -19.0421 N   0  0  0  0  0  0  0  0  0  0  0  0
    6.2355   -2.2668  -18.6410 C   0  0  0  0  0  0  0  0  0  0  0  0
 29  6  2  0  0  0
  7 26  1  0  0  0
  7  8  1  0  0  0
  6 28  1  0  0  0
  6  5  1  0  0  0
 26  3  1  0  0  0
 28 27  1  0  0  0
  8  9  2  0  0  0
  9 10  1  0  0  0
 10 25  1  0  0  0
  5 30  1  0  0  0
  3 27  2  0  0  0
  3  2  1  0  0  0
 27 31  1  0  0  0
 25 11  1  0  0  0
  2  1  2  0  0  0
 31 30  1  0  0  0
 31 32  2  0  0  0
 11 14  1  0  0  0
 11 12  1  0  0  0
 14 24  1  0  0  0
  1 32  1  0  0  0
  1  4  1  0  0  0
 12 13  1  0  0  0
 24 13  1  0  0  0
 24 23  1  0  0  0
 21 23  1  0  0  0
 21 15  2  0  0  0
  4 15  1  0  0  0
 13 35  1  0  0  0
 35 36  1  0  0  0
 23 22  2  0  0  0
 15 20  1  0  0  0
 22 16  1  0  0  0
 20 16  1  0  0  0
 20 19  1  0  0  0
 16 17  2  0  0  0
 19 18  2  0  0  0
 17 18  1  0  0  0
 17 39  1  0  0  0
 39 38  3  0  0  0
  4 33  1  0  0  0
 36 37  1  0  0  0
 28 34  1  0  0  0
M  END
> <minimizedAffinity>
-9.20073

$$$$
5N1Z_8GQ_A_202


 39 44  0  0  0  0  0  0  0  0999 V2000
    5.9645   -2.7182  -11.2938 C   0  0  0  0  0  0  0  0  0  0  0  0
    7.3323   -3.0098  -11.2813 C   0  0  0  0  0  0  0  0  0  0  0  0
    8.1784   -2.3198  -10.4224 C   0  0  0  0  0  0  0  0  0  0  0  0
    5.0979   -3.2838  -12.2515 N   0  0  0  0  0  0  0  0  0  0  0  0
    6.6144    0.2171   -7.3870 C   0  0  0  0  0  0  0  0  0  0  0  0
    8.0999    0.0235   -7.5572 C   0  0  0  0  0  0  0  0  0  0  0  0
   10.1805   -3.3793  -11.2963 C   0  0  0  0  0  0  0  0  0  0  0  0
   10.5699   -2.6031  -12.5130 C   0  0  0  0  0  0  0  0  0  0  0  0
   10.7861   -3.0842  -13.7317 C   0  0  0  0  0  0  0  0  0  0  0  0
   11.2969   -2.2919  -14.8935 C   0  0  0  0  0  0  0  0  0  0  0  0
    9.6833   -1.0866  -16.3144 C   0  0  0  0  0  0  0  0  0  0  0  0
    9.1064   -1.0812  -17.7245 C   0  0  0  0  0  0  0  0  0  0  0  0
    7.8655   -1.9874  -17.6176 C   0  0  0  0  0  0  0  0  0  0  0  0
    8.4400   -1.0229  -15.4402 C   0  0  0  0  0  0  0  0  0  0  0  0
    5.2426   -3.2321  -13.6304 C   0  0  0  0  0  0  0  0  0  0  0  0
    4.8044   -4.1321  -15.7812 C   0  0  0  0  0  0  0  0  0  0  0  0
    3.9263   -5.0545  -16.3423 C   0  0  0  0  0  0  0  0  0  0  0  0
    3.1263   -5.4786  -15.2699 C   0  0  0  0  0  0  0  0  0  0  0  0
    3.4887   -4.9255  -14.0908 N   0  0  0  0  0  0  0  0  0  0  0  0
    4.5032   -4.0479  -14.4337 N   0  0  0  0  0  0  0  0  0  0  0  0
    6.2131   -2.4431  -14.2313 C   0  0  0  0  0  0  0  0  0  0  0  0
    5.7255   -3.3701  -16.3849 N   0  0  0  0  0  0  0  0  0  0  0  0
    6.4854   -2.5897  -15.5915 C   0  0  0  0  0  0  0  0  0  0  0  0
    7.5166   -1.8820  -16.1829 N   0  0  0  0  0  0  0  0  0  0  0  0
   10.4069   -2.2990  -16.0464 O   0  0  0  0  0  0  0  0  0  0  0  0
    9.5349   -2.5416  -10.3154 O   0  0  0  0  0  0  0  0  0  0  0  0
    7.6553   -1.3950   -9.4968 C   0  0  0  0  0  0  0  0  0  0  0  0
    8.4954   -0.7840   -8.5709 N   0  0  0  0  0  0  0  0  0  0  0  0
    8.9000    0.4933   -6.7616 O   0  0  0  0  0  0  0  0  0  0  0  0
    5.7327   -0.0674   -8.5803 C   0  0  0  0  0  0  0  0  0  0  0  0
    6.2814   -1.1268   -9.5039 C   0  0  0  0  0  0  0  0  0  0  0  0
    5.4543   -1.7552  -10.4282 C   0  0  0  0  0  0  0  0  0  0  0  0
    4.3106   -3.7639  -11.9069 H   0  0  0  0  0  0  0  0  0  0  0  0
    9.4611   -0.9532   -8.6600 H   0  0  0  0  0  0  0  0  0  0  0  0
    8.1045   -3.3820  -18.1806 C   0  0  0  0  0  0  0  0  0  0  0  0
    8.7367   -4.2392  -17.2379 O   0  0  0  0  0  0  0  0  0  0  0  0
    9.6038   -3.8750  -17.0003 H   0  0  0  0  0  0  0  0  0  0  0  0
    3.8582   -5.8305  -18.7874 N   0  0  0  0  0  0  0  0  0  0  0  0
    3.8827   -5.4811  -17.7017 C   0  0  0  0  0  0  0  0  0  0  0  0
 29  6  2  0  0  0
  7 26  1  0  0  0
  7  8  1  0  0  0
  6 28  1  0  0  0
  6  5  1  0  0  0
 26  3  1  0  0  0
 28 27  1  0  0  0
  8  9  2  0  0  0
  9 10  1  0  0  0
 10 25  1  0  0  0
  5 30  1  0  0  0
  3 27  2  0  0  0
  3  2  1  0  0  0
 27 31  1  0  0  0
 25 11  1  0  0  0
  2  1  2  0  0  0
 31 30  1  0  0  0
 31 32  2  0  0  0
 11 14  1  0  0  0
 11 12  1  0  0  0
 14 24  1  0  0  0
  1 32  1  0  0  0
  1  4  1  0  0  0
 12 13  1  0  0  0
 24 13  1  0  0  0
 24 23  1  0  0  0
 21 23  1  0  0  0
 21 15  2  0  0  0
  4 15  1  0  0  0
 13 35  1  0  0  0
 35 36  1  0  0  0
 23 22  2  0  0  0
 15 20  1  0  0  0
 22 16  1  0  0  0
 20 16  1  0  0  0
 20 19  1  0  0  0
 16 17  2  0  0  0
 19 18  2  0  0  0
 17 18  1  0  0  0
 17 39  1  0  0  0
 39 38  3  0  0  0
  4 33  1  0  0  0
 36 37  1  0  0  0
 28 34  1  0  0  0
M  END
> <minimizedAffinity>
-8.69126

$$$$
5N1Z_8GQ_A_202


 39 44  0  0  0  0  0  0  0  0999 V2000
    8.5254   -2.6682  -11.3846 C   0  0  0  0  0  0  0  0  0  0  0  0
    7.1715   -2.7220  -11.7315 C   0  0  0  0  0  0  0  0  0  0  0  0
    6.2207   -2.1495  -10.8962 C   0  0  0  0  0  0  0  0  0  0  0  0
    9.5046   -3.3646  -12.1225 N   0  0  0  0  0  0  0  0  0  0  0  0
    7.3835    0.3079   -7.6244 C   0  0  0  0  0  0  0  0  0  0  0  0
    5.9305    0.0420   -7.9264 C   0  0  0  0  0  0  0  0  0  0  0  0
    4.3515   -2.9321  -12.2335 C   0  0  0  0  0  0  0  0  0  0  0  0
    4.0801   -4.3354  -11.7960 C   0  0  0  0  0  0  0  0  0  0  0  0
    4.0100   -5.4131  -12.5687 C   0  0  0  0  0  0  0  0  0  0  0  0
    3.6116   -6.7798  -12.1084 C   0  0  0  0  0  0  0  0  0  0  0  0
    5.3431   -8.2842  -11.2061 C   0  0  0  0  0  0  0  0  0  0  0  0
    6.0709   -9.5866  -11.5148 C   0  0  0  0  0  0  0  0  0  0  0  0
    7.3132   -9.1351  -12.3057 C   0  0  0  0  0  0  0  0  0  0  0  0
    6.4813   -7.3322  -10.8709 C   0  0  0  0  0  0  0  0  0  0  0  0
    9.5109   -4.7209  -12.4143 C   0  0  0  0  0  0  0  0  0  0  0  0
   10.2030   -6.5279  -13.7869 C   0  0  0  0  0  0  0  0  0  0  0  0
   11.1583   -6.7528  -14.7735 C   0  0  0  0  0  0  0  0  0  0  0  0
   11.8454   -5.5340  -14.8846 C   0  0  0  0  0  0  0  0  0  0  0  0
   11.3433   -4.5704  -14.0803 N   0  0  0  0  0  0  0  0  0  0  0  0
   10.3525   -5.2196  -13.3634 N   0  0  0  0  0  0  0  0  0  0  0  0
    8.5942   -5.5925  -11.8437 C   0  0  0  0  0  0  0  0  0  0  0  0
    9.3364   -7.3905  -13.2406 N   0  0  0  0  0  0  0  0  0  0  0  0
    8.4762   -6.8948  -12.3293 C   0  0  0  0  0  0  0  0  0  0  0  0
    7.5000   -7.7432  -11.8381 N   0  0  0  0  0  0  0  0  0  0  0  0
    4.6226   -7.7997  -12.3513 O   0  0  0  0  0  0  0  0  0  0  0  0
    4.8661   -2.1282  -11.1519 O   0  0  0  0  0  0  0  0  0  0  0  0
    6.6177   -1.4328   -9.7498 C   0  0  0  0  0  0  0  0  0  0  0  0
    5.6673   -0.7756   -8.9743 N   0  0  0  0  0  0  0  0  0  0  0  0
    5.0374    0.6124   -7.3175 O   0  0  0  0  0  0  0  0  0  0  0  0
    8.3971   -0.6833   -8.1463 C   0  0  0  0  0  0  0  0  0  0  0  0
    7.9775   -1.3675   -9.4240 C   0  0  0  0  0  0  0  0  0  0  0  0
    8.9153   -2.0201  -10.2165 C   0  0  0  0  0  0  0  0  0  0  0  0
   10.2603   -2.8348  -12.4652 H   0  0  0  0  0  0  0  0  0  0  0  0
    4.7213   -0.9171   -9.2075 H   0  0  0  0  0  0  0  0  0  0  0  0
    7.1696   -9.3579  -13.8053 C   0  0  0  0  0  0  0  0  0  0  0  0
    6.5280   -8.2644  -14.4503 O   0  0  0  0  0  0  0  0  0  0  0  0
    5.6335   -8.1566  -14.0909 H   0  0  0  0  0  0  0  0  0  0  0  0
   11.5104   -8.9129  -16.1135 N   0  0  0  0  0  0  0  0  0  0  0  0
   11.3606   -7.9534  -15.5148 C   0  0  0  0  0  0  0  0  0  0  0  0
 29  6  2  0  0  0
  7 26  1  0  0  0
  7  8  1  0  0  0
  6 28  1  0  0  0
  6  5  1  0  0  0
 26  3  1  0  0  0
 28 27  1  0  0  0
  8  9  2  0  0  0
  9 10  1  0  0  0
 10 25  1  0  0  0
  5 30  1  0  0  0
  3 27  2  0  0  0
  3  2  1  0  0  0
 27 31  1  0  0  0
 25 11  1  0  0  0
  2  1  2  0  0  0
 31 30  1  0  0  0
 31 32  2  0  0  0
 11 14  1  0  0  0
 11 12  1  0  0  0
 14 24  1  0  0  0
  1 32  1  0  0  0
  1  4  1  0  0  0
 12 13  1  0  0  0
 24 13  1  0  0  0
 24 23  1  0  0  0
 21 23  1  0  0  0
 21 15  2  0  0  0
  4 15  1  0  0  0
 13 35  1  0  0  0
 35 36  1  0  0  0
 23 22  2  0  0  0
 15 20  1  0  0  0
 22 16  1  0  0  0
 20 16  1  0  0  0
 20 19  1  0  0  0
 16 17  2  0  0  0
 19 18  2  0  0  0
 17 18  1  0  0  0
 17 39  1  0  0  0
 39 38  3  0  0  0
  4 33  1  0  0  0
 36 37  1  0  0  0
 28 34  1  0  0  0
M  END
> <minimizedAffinity>
-8.39715

$$$$
5N1Z_8GQ_A_202


 39 44  0  0  0  0  0  0  0  0999 V2000
    7.7491   -3.9588  -11.2553 C   0  0  0  0  0  0  0  0  0  0  0  0
    8.6806   -4.2162  -12.2663 C   0  0  0  0  0  0  0  0  0  0  0  0
    9.8045   -3.4096  -12.3924 C   0  0  0  0  0  0  0  0  0  0  0  0
    6.5245   -4.6542  -11.1855 N   0  0  0  0  0  0  0  0  0  0  0  0
   10.7982   -0.5633   -9.3913 C   0  0  0  0  0  0  0  0  0  0  0  0
   11.6588   -0.7426  -10.6161 C   0  0  0  0  0  0  0  0  0  0  0  0
   10.5645   -4.5212  -14.4127 C   0  0  0  0  0  0  0  0  0  0  0  0
    9.8227   -3.8876  -15.5453 C   0  0  0  0  0  0  0  0  0  0  0  0
    9.0989   -4.5062  -16.4710 C   0  0  0  0  0  0  0  0  0  0  0  0
    8.4758   -3.8474  -17.6610 C   0  0  0  0  0  0  0  0  0  0  0  0
    6.2301   -2.8572  -17.4340 C   0  0  0  0  0  0  0  0  0  0  0  0
    4.7944   -3.0335  -17.9125 C   0  0  0  0  0  0  0  0  0  0  0  0
    4.1613   -3.9478  -16.8468 C   0  0  0  0  0  0  0  0  0  0  0  0
    6.0696   -2.7171  -15.9278 C   0  0  0  0  0  0  0  0  0  0  0  0
    5.5776   -4.7647  -12.1935 C   0  0  0  0  0  0  0  0  0  0  0  0
    3.7712   -5.9252  -13.2026 C   0  0  0  0  0  0  0  0  0  0  0  0
    2.8746   -6.9275  -12.8448 C   0  0  0  0  0  0  0  0  0  0  0  0
    3.2033   -7.2380  -11.5161 C   0  0  0  0  0  0  0  0  0  0  0  0
    4.2669   -6.5398  -11.0591 N   0  0  0  0  0  0  0  0  0  0  0  0
    4.5782   -5.6871  -12.1046 N   0  0  0  0  0  0  0  0  0  0  0  0
    5.6757   -4.0318  -13.3678 C   0  0  0  0  0  0  0  0  0  0  0  0
    3.8379   -5.2206  -14.3395 N   0  0  0  0  0  0  0  0  0  0  0  0
    4.8470   -4.3340  -14.4484 C   0  0  0  0  0  0  0  0  0  0  0  0
    5.0004   -3.6793  -15.6574 N   0  0  0  0  0  0  0  0  0  0  0  0
    7.0306   -4.0123  -17.7344 O   0  0  0  0  0  0  0  0  0  0  0  0
   10.7923   -3.5867  -13.3376 O   0  0  0  0  0  0  0  0  0  0  0  0
   10.0615   -2.3927  -11.4514 C   0  0  0  0  0  0  0  0  0  0  0  0
   11.2402   -1.6566  -11.5246 N   0  0  0  0  0  0  0  0  0  0  0  0
   12.7284   -0.1632  -10.7349 O   0  0  0  0  0  0  0  0  0  0  0  0
    9.3572   -1.0082   -9.4801 C   0  0  0  0  0  0  0  0  0  0  0  0
    9.1325   -2.1580  -10.4309 C   0  0  0  0  0  0  0  0  0  0  0  0
    7.9654   -2.9109  -10.3654 C   0  0  0  0  0  0  0  0  0  0  0  0
    6.3207   -5.1071  -10.3355 H   0  0  0  0  0  0  0  0  0  0  0  0
   11.8205   -1.8136  -12.3043 H   0  0  0  0  0  0  0  0  0  0  0  0
    4.0409   -5.3941  -17.3082 C   0  0  0  0  0  0  0  0  0  0  0  0
    2.8045   -5.9796  -16.9185 O   0  0  0  0  0  0  0  0  0  0  0  0
    2.7389   -5.9824  -15.9507 H   0  0  0  0  0  0  0  0  0  0  0  0
    1.0646   -7.9943  -14.3183 N   0  0  0  0  0  0  0  0  0  0  0  0
    1.8700   -7.5146  -13.6682 C   0  0  0  0  0  0  0  0  0  0  0  0
 29  6  2  0  0  0
  7 26  1  0  0  0
  7  8  1  0  0  0
  6 28  1  0  0  0
  6  5  1  0  0  0
 26  3  1  0  0  0
 28 27  1  0  0  0
  8  9  2  0  0  0
  9 10  1  0  0  0
 10 25  1  0  0  0
  5 30  1  0  0  0
  3 27  2  0  0  0
  3  2  1  0  0  0
 27 31  1  0  0  0
 25 11  1  0  0  0
  2  1  2  0  0  0
 31 30  1  0  0  0
 31 32  2  0  0  0
 11 14  1  0  0  0
 11 12  1  0  0  0
 14 24  1  0  0  0
  1 32  1  0  0  0
  1  4  1  0  0  0
 12 13  1  0  0  0
 24 13  1  0  0  0
 24 23  1  0  0  0
 21 23  1  0  0  0
 21 15  2  0  0  0
  4 15  1  0  0  0
 13 35  1  0  0  0
 35 36  1  0  0  0
 23 22  2  0  0  0
 15 20  1  0  0  0
 22 16  1  0  0  0
 20 16  1  0  0  0
 20 19  1  0  0  0
 16 17  2  0  0  0
 19 18  2  0  0  0
 17 18  1  0  0  0
 17 39  1  0  0  0
 39 38  3  0  0  0
  4 33  1  0  0  0
 36 37  1  0  0  0
 28 34  1  0  0  0
M  END
> <minimizedAffinity>
-7.89456

$$$$
5N1Z_8GQ_A_202


 39 44  0  0  0  0  0  0  0  0999 V2000
    4.0889   -8.1430  -10.5103 C   0  0  0  0  0  0  0  0  0  0  0  0
    3.9655   -6.7868  -10.8293 C   0  0  0  0  0  0  0  0  0  0  0  0
    2.7637   -6.3008  -11.3283 C   0  0  0  0  0  0  0  0  0  0  0  0
    5.3296   -8.7057  -10.1465 N   0  0  0  0  0  0  0  0  0  0  0  0
   -0.7402   -8.7129  -11.3197 C   0  0  0  0  0  0  0  0  0  0  0  0
   -0.7630   -7.3008  -11.8474 C   0  0  0  0  0  0  0  0  0  0  0  0
    3.6442   -4.0690  -11.7005 C   0  0  0  0  0  0  0  0  0  0  0  0
    4.3309   -4.1041  -13.0277 C   0  0  0  0  0  0  0  0  0  0  0  0
    5.5812   -3.7414  -13.2896 C   0  0  0  0  0  0  0  0  0  0  0  0
    6.1914   -3.6727  -14.6539 C   0  0  0  0  0  0  0  0  0  0  0  0
    7.2234   -5.7010  -15.6004 C   0  0  0  0  0  0  0  0  0  0  0  0
    8.5749   -6.2709  -16.0128 C   0  0  0  0  0  0  0  0  0  0  0  0
    9.0771   -6.9821  -14.7422 C   0  0  0  0  0  0  0  0  0  0  0  0
    6.6332   -6.8139  -14.7477 C   0  0  0  0  0  0  0  0  0  0  0  0
    6.5093   -8.6474  -10.8744 C   0  0  0  0  0  0  0  0  0  0  0  0
    8.8789   -8.7207  -10.9632 C   0  0  0  0  0  0  0  0  0  0  0  0
    9.9196   -9.1227  -10.1314 C   0  0  0  0  0  0  0  0  0  0  0  0
    9.2831   -9.6161   -8.9820 C   0  0  0  0  0  0  0  0  0  0  0  0
    7.9377   -9.4926   -9.0302 N   0  0  0  0  0  0  0  0  0  0  0  0
    7.6966   -8.9803  -10.2937 N   0  0  0  0  0  0  0  0  0  0  0  0
    6.5427   -8.1447  -12.1673 C   0  0  0  0  0  0  0  0  0  0  0  0
    8.9347   -8.2506  -12.2160 N   0  0  0  0  0  0  0  0  0  0  0  0
    7.7677   -7.8839  -12.7815 C   0  0  0  0  0  0  0  0  0  0  0  0
    7.8165   -7.2908  -14.0304 N   0  0  0  0  0  0  0  0  0  0  0  0
    7.3733   -4.5089  -14.8120 O   0  0  0  0  0  0  0  0  0  0  0  0
    2.5285   -4.9822  -11.6549 O   0  0  0  0  0  0  0  0  0  0  0  0
    1.6392   -7.1443  -11.4267 C   0  0  0  0  0  0  0  0  0  0  0  0
    0.4122   -6.6265  -11.8302 N   0  0  0  0  0  0  0  0  0  0  0  0
   -1.8074   -6.7614  -12.1822 O   0  0  0  0  0  0  0  0  0  0  0  0
    0.5936   -9.4212  -11.2798 C   0  0  0  0  0  0  0  0  0  0  0  0
    1.7689   -8.4954  -11.0842 C   0  0  0  0  0  0  0  0  0  0  0  0
    2.9995   -8.9939  -10.6715 C   0  0  0  0  0  0  0  0  0  0  0  0
    5.3620   -9.1888   -9.2894 H   0  0  0  0  0  0  0  0  0  0  0  0
    0.3966   -5.6886  -12.1291 H   0  0  0  0  0  0  0  0  0  0  0  0
   10.1269   -6.1740  -13.9910 C   0  0  0  0  0  0  0  0  0  0  0  0
    9.5416   -5.2287  -13.1039 O   0  0  0  0  0  0  0  0  0  0  0  0
    9.0053   -4.5989  -13.6104 H   0  0  0  0  0  0  0  0  0  0  0  0
   12.4355   -8.9302  -10.5995 N   0  0  0  0  0  0  0  0  0  0  0  0
   11.3169   -9.0222  -10.3950 C   0  0  0  0  0  0  0  0  0  0  0  0
 29  6  2  0  0  0
  7 26  1  0  0  0
  7  8  1  0  0  0
  6 28  1  0  0  0
  6  5  1  0  0  0
 26  3  1  0  0  0
 28 27  1  0  0  0
  8  9  2  0  0  0
  9 10  1  0  0  0
 10 25  1  0  0  0
  5 30  1  0  0  0
  3 27  2  0  0  0
  3  2  1  0  0  0
 27 31  1  0  0  0
 25 11  1  0  0  0
  2  1  2  0  0  0
 31 30  1  0  0  0
 31 32  2  0  0  0
 11 14  1  0  0  0
 11 12  1  0  0  0
 14 24  1  0  0  0
  1 32  1  0  0  0
  1  4  1  0  0  0
 12 13  1  0  0  0
 24 13  1  0  0  0
 24 23  1  0  0  0
 21 23  1  0  0  0
 21 15  2  0  0  0
  4 15  1  0  0  0
 13 35  1  0  0  0
 35 36  1  0  0  0
 23 22  2  0  0  0
 15 20  1  0  0  0
 22 16  1  0  0  0
 20 16  1  0  0  0
 20 19  1  0  0  0
 16 17  2  0  0  0
 19 18  2  0  0  0
 17 18  1  0  0  0
 17 39  1  0  0  0
 39 38  3  0  0  0
  4 33  1  0  0  0
 36 37  1  0  0  0
 28 34  1  0  0  0
M  END
> <minimizedAffinity>
-7.64712

$$$$
