4CK3_K1T_A_1213


 30 31  0  0  0  0  0  0  0  0999 V2000
   70.2221   50.8627    0.7304 C   0  0  0  0  0  0  0  0  0  0  0  0
   69.7652   49.6454    1.5216 C   0  0  0  0  0  0  0  0  0  0  0  0
   69.9959   47.1486    1.5970 C   0  0  0  0  0  0  0  0  0  0  0  0
   69.6803   48.3477    0.7314 C   0  0  0  0  0  0  0  0  0  0  0  0
   68.2724   48.2199    0.1781 C   0  0  0  0  0  0  0  0  0  0  0  0
   69.2824   52.0217    0.9774 C   0  0  0  0  0  0  0  0  0  0  0  0
   68.7732   52.7212   -0.2514 C   0  0  0  0  0  0  0  0  0  0  0  0
   68.6477   54.1058   -0.3446 C   0  0  0  0  0  0  0  0  0  0  0  0
   68.1383   54.6092   -1.5198 C   0  0  0  0  0  0  0  0  0  0  0  0
   67.7569   53.8106   -2.5530 C   0  0  0  0  0  0  0  0  0  0  0  0
   67.8674   52.4472   -2.4772 C   0  0  0  0  0  0  0  0  0  0  0  0
   68.3749   51.9187   -1.3108 C   0  0  0  0  0  0  0  0  0  0  0  0
   67.2628   54.5142   -3.6130 O   0  0  0  0  0  0  0  0  0  0  0  0
   67.1357   55.7952   -2.9932 C   0  0  0  0  0  0  0  0  0  0  0  0
   67.9293   55.9350   -1.8064 O   0  0  0  0  0  0  0  0  0  0  0  0
   69.0291   55.0813    0.7140 C   0  0  0  0  0  0  0  0  0  0  0  0
   68.1462   55.8996    1.1034 O   0  0  0  0  0  0  0  0  0  0  0  0
   70.2228   55.0521    1.1277 O   0  0  0  0  0  0  0  0  0  0  0  0
   67.2799   55.8582    0.7486 H   0  0  0  0  0  0  0  0  0  0  0  0
   71.6142   51.2418    1.1890 C   0  0  0  0  0  0  0  0  0  0  0  0
   72.0244   52.5181    0.6524 N   0  0  0  0  0  0  0  0  0  0  0  0
   72.6414   52.5724   -0.5775 C   0  0  0  0  0  0  0  0  0  0  0  0
   73.1023   51.6102   -1.1731 O   0  0  0  0  0  0  0  0  0  0  0  0
   71.8639   53.3445    1.1628 H   0  0  0  0  0  0  0  0  0  0  0  0
   72.6957   53.9553   -1.1516 C   0  0  0  0  0  0  0  0  0  0  0  0
   73.6177   54.8073   -0.3178 C   0  0  0  0  0  0  0  0  0  0  0  0
   73.4093   56.2499   -0.7154 C   0  0  0  0  0  0  0  0  0  0  0  0
   71.9643   56.4991   -0.9203 N   0  0  0  0  0  0  0  0  0  0  0  0
   71.6152   55.8878   -1.6584 H   0  0  0  0  0  0  0  0  0  0  0  0
   71.8220   57.4726   -1.1895 H   0  0  0  0  0  0  0  0  0  0  0  0
  3  4  1  0  0  0
  2  4  1  0  0  0
  4  5  1  0  0  0
  1  2  1  0  0  0
 20  1  1  0  0  0
  1  6  1  0  0  0
  7  6  1  0  0  0
 12  7  2  0  0  0
  7  8  1  0  0  0
  9  8  2  0  0  0
  8 16  1  0  0  0
 10  9  1  0  0  0
  9 15  1  0  0  0
 13 10  1  0  0  0
 11 10  2  0  0  0
 11 12  1  0  0  0
 13 14  1  0  0  0
 14 15  1  0  0  0
 16 18  2  0  0  0
 16 17  1  0  0  0
 20 21  1  0  0  0
 21 22  1  0  0  0
 23 22  2  0  0  0
 22 25  1  0  0  0
 25 26  1  0  0  0
 26 27  1  0  0  0
 27 28  1  0  0  0
 17 19  1  0  0  0
 21 24  1  0  0  0
 28 29  1  0  0  0
 28 30  1  0  0  0
M  END
> <minimizedAffinity>
-7.29864

$$$$
4CK3_K1T_A_1213


 30 31  0  0  0  0  0  0  0  0999 V2000
   69.9263   51.6018    0.2734 C   0  0  0  0  0  0  0  0  0  0  0  0
   69.3433   50.3164    0.8429 C   0  0  0  0  0  0  0  0  0  0  0  0
   68.3077   48.1539    0.1054 C   0  0  0  0  0  0  0  0  0  0  0  0
   69.4895   49.0860   -0.0406 C   0  0  0  0  0  0  0  0  0  0  0  0
   69.5991   49.5472   -1.4828 C   0  0  0  0  0  0  0  0  0  0  0  0
   68.9762   52.7527    0.5183 C   0  0  0  0  0  0  0  0  0  0  0  0
   68.4668   53.4504   -0.7115 C   0  0  0  0  0  0  0  0  0  0  0  0
   68.3731   54.8364   -0.8190 C   0  0  0  0  0  0  0  0  0  0  0  0
   67.8596   55.3386   -1.9929 C   0  0  0  0  0  0  0  0  0  0  0  0
   67.4447   54.5378   -3.0114 C   0  0  0  0  0  0  0  0  0  0  0  0
   67.5236   53.1731   -2.9212 C   0  0  0  0  0  0  0  0  0  0  0  0
   68.0345   52.6457   -1.7558 C   0  0  0  0  0  0  0  0  0  0  0  0
   66.9528   55.2411   -4.0727 O   0  0  0  0  0  0  0  0  0  0  0  0
   66.8652   56.5317   -3.4662 C   0  0  0  0  0  0  0  0  0  0  0  0
   67.6785   56.6658   -2.2921 O   0  0  0  0  0  0  0  0  0  0  0  0
   68.7926   55.8144    0.2227 C   0  0  0  0  0  0  0  0  0  0  0  0
   69.8172   56.5184   -0.0120 O   0  0  0  0  0  0  0  0  0  0  0  0
   68.1180   55.8502    1.2908 O   0  0  0  0  0  0  0  0  0  0  0  0
   70.2655   56.4350   -0.8306 H   0  0  0  0  0  0  0  0  0  0  0  0
   71.2420   51.8839    0.9670 C   0  0  0  0  0  0  0  0  0  0  0  0
   71.8794   53.0685    0.4421 N   0  0  0  0  0  0  0  0  0  0  0  0
   72.0395   54.1706    1.2520 C   0  0  0  0  0  0  0  0  0  0  0  0
   71.4754   54.3413    2.3223 O   0  0  0  0  0  0  0  0  0  0  0  0
   72.1977   53.0881   -0.4894 H   0  0  0  0  0  0  0  0  0  0  0  0
   73.0034   55.1759    0.6994 C   0  0  0  0  0  0  0  0  0  0  0  0
   74.1093   54.4593   -0.0318 C   0  0  0  0  0  0  0  0  0  0  0  0
   74.0766   54.8987   -1.4769 C   0  0  0  0  0  0  0  0  0  0  0  0
   73.5475   53.7975   -2.3134 N   0  0  0  0  0  0  0  0  0  0  0  0
   74.1493   52.9795   -2.2189 H   0  0  0  0  0  0  0  0  0  0  0  0
   73.5254   54.0925   -3.2895 H   0  0  0  0  0  0  0  0  0  0  0  0
  3  4  1  0  0  0
  2  4  1  0  0  0
  4  5  1  0  0  0
  1  2  1  0  0  0
 20  1  1  0  0  0
  1  6  1  0  0  0
  7  6  1  0  0  0
 12  7  2  0  0  0
  7  8  1  0  0  0
  9  8  2  0  0  0
  8 16  1  0  0  0
 10  9  1  0  0  0
  9 15  1  0  0  0
 13 10  1  0  0  0
 11 10  2  0  0  0
 11 12  1  0  0  0
 13 14  1  0  0  0
 14 15  1  0  0  0
 16 18  2  0  0  0
 16 17  1  0  0  0
 20 21  1  0  0  0
 21 22  1  0  0  0
 23 22  2  0  0  0
 22 25  1  0  0  0
 25 26  1  0  0  0
 26 27  1  0  0  0
 27 28  1  0  0  0
 17 19  1  0  0  0
 21 24  1  0  0  0
 28 29  1  0  0  0
 28 30  1  0  0  0
M  END
> <minimizedAffinity>
-7.02681

$$$$
4CK3_K1T_A_1213


 30 31  0  0  0  0  0  0  0  0999 V2000
   70.8098   52.3591    0.0426 C   0  0  0  0  0  0  0  0  0  0  0  0
   71.4119   53.2724   -1.0156 C   0  0  0  0  0  0  0  0  0  0  0  0
   72.5564   54.3073    0.9623 C   0  0  0  0  0  0  0  0  0  0  0  0
   72.5601   54.1517   -0.5419 C   0  0  0  0  0  0  0  0  0  0  0  0
   73.8631   53.5106   -0.9843 C   0  0  0  0  0  0  0  0  0  0  0  0
   69.3258   52.6224    0.1683 C   0  0  0  0  0  0  0  0  0  0  0  0
   68.6981   53.3729   -0.9725 C   0  0  0  0  0  0  0  0  0  0  0  0
   68.4847   54.7497   -0.9548 C   0  0  0  0  0  0  0  0  0  0  0  0
   67.8719   55.3011   -2.0568 C   0  0  0  0  0  0  0  0  0  0  0  0
   67.4730   54.5546   -3.1218 C   0  0  0  0  0  0  0  0  0  0  0  0
   67.6691   53.1991   -3.1543 C   0  0  0  0  0  0  0  0  0  0  0  0
   68.2809   52.6232   -2.0628 C   0  0  0  0  0  0  0  0  0  0  0  0
   66.8709   55.2982   -4.0952 O   0  0  0  0  0  0  0  0  0  0  0  0
   66.7080   56.5215   -3.3754 C   0  0  0  0  0  0  0  0  0  0  0  0
   67.5665   56.6277   -2.2310 O   0  0  0  0  0  0  0  0  0  0  0  0
   68.8746   55.6705    0.1487 C   0  0  0  0  0  0  0  0  0  0  0  0
   69.8717   56.4256   -0.0419 O   0  0  0  0  0  0  0  0  0  0  0  0
   68.2055   55.6103    1.2191 O   0  0  0  0  0  0  0  0  0  0  0  0
   70.3178   56.4136   -0.8658 H   0  0  0  0  0  0  0  0  0  0  0  0
   71.0280   50.9217   -0.3795 C   0  0  0  0  0  0  0  0  0  0  0  0
   70.2436   50.0064    0.4155 N   0  0  0  0  0  0  0  0  0  0  0  0
   69.4854   49.0410   -0.2084 C   0  0  0  0  0  0  0  0  0  0  0  0
   69.2139   49.0248   -1.3995 O   0  0  0  0  0  0  0  0  0  0  0  0
   70.2509   50.0722    1.3978 H   0  0  0  0  0  0  0  0  0  0  0  0
   69.0107   47.9679    0.7233 C   0  0  0  0  0  0  0  0  0  0  0  0
   70.1810   47.4325    1.5076 C   0  0  0  0  0  0  0  0  0  0  0  0
   69.9678   47.7797    2.9624 C   0  0  0  0  0  0  0  0  0  0  0  0
   70.8048   48.9487    3.3162 N   0  0  0  0  0  0  0  0  0  0  0  0
   71.7872   48.7233    3.1595 H   0  0  0  0  0  0  0  0  0  0  0  0
   70.6625   49.1839    4.2985 H   0  0  0  0  0  0  0  0  0  0  0  0
  3  4  1  0  0  0
  2  4  1  0  0  0
  4  5  1  0  0  0
  1  2  1  0  0  0
 20  1  1  0  0  0
  1  6  1  0  0  0
  7  6  1  0  0  0
 12  7  2  0  0  0
  7  8  1  0  0  0
  9  8  2  0  0  0
  8 16  1  0  0  0
 10  9  1  0  0  0
  9 15  1  0  0  0
 13 10  1  0  0  0
 11 10  2  0  0  0
 11 12  1  0  0  0
 13 14  1  0  0  0
 14 15  1  0  0  0
 16 18  2  0  0  0
 16 17  1  0  0  0
 20 21  1  0  0  0
 21 22  1  0  0  0
 23 22  2  0  0  0
 22 25  1  0  0  0
 25 26  1  0  0  0
 26 27  1  0  0  0
 27 28  1  0  0  0
 17 19  1  0  0  0
 21 24  1  0  0  0
 28 29  1  0  0  0
 28 30  1  0  0  0
M  END
> <minimizedAffinity>
-6.95318

$$$$
4CK3_K1T_A_1213


 30 31  0  0  0  0  0  0  0  0999 V2000
   70.1697   51.2112    0.5968 C   0  0  0  0  0  0  0  0  0  0  0  0
   69.7234   49.8607    1.1384 C   0  0  0  0  0  0  0  0  0  0  0  0
   68.1218   48.2532    0.0690 C   0  0  0  0  0  0  0  0  0  0  0  0
   69.5439   48.7666    0.0960 C   0  0  0  0  0  0  0  0  0  0  0  0
   69.9036   49.3412   -1.2624 C   0  0  0  0  0  0  0  0  0  0  0  0
   69.0905   52.2443    0.8325 C   0  0  0  0  0  0  0  0  0  0  0  0
   68.6148   52.9800   -0.3885 C   0  0  0  0  0  0  0  0  0  0  0  0
   68.5562   54.3699   -0.4676 C   0  0  0  0  0  0  0  0  0  0  0  0
   68.0708   54.9092   -1.6370 C   0  0  0  0  0  0  0  0  0  0  0  0
   67.6504   54.1405   -2.6777 C   0  0  0  0  0  0  0  0  0  0  0  0
   67.6950   52.7726   -2.6158 C   0  0  0  0  0  0  0  0  0  0  0  0
   68.1773   52.2084   -1.4554 C   0  0  0  0  0  0  0  0  0  0  0  0
   67.1900   54.8779   -3.7299 O   0  0  0  0  0  0  0  0  0  0  0  0
   67.1255   56.1571   -3.0971 C   0  0  0  0  0  0  0  0  0  0  0  0
   67.9259   56.2464   -1.9100 O   0  0  0  0  0  0  0  0  0  0  0  0
   68.9851   55.3151    0.6002 C   0  0  0  0  0  0  0  0  0  0  0  0
   68.1072   56.0814    1.0929 O   0  0  0  0  0  0  0  0  0  0  0  0
   70.2082   55.3157    0.9183 O   0  0  0  0  0  0  0  0  0  0  0  0
   67.2176   56.0208    0.8050 H   0  0  0  0  0  0  0  0  0  0  0  0
   71.4297   51.6303    1.3238 C   0  0  0  0  0  0  0  0  0  0  0  0
   72.6159   51.1337    0.6668 N   0  0  0  0  0  0  0  0  0  0  0  0
   73.3849   50.1736    1.2856 C   0  0  0  0  0  0  0  0  0  0  0  0
   73.2991   49.8590    2.4631 O   0  0  0  0  0  0  0  0  0  0  0  0
   72.8732   51.4796   -0.2183 H   0  0  0  0  0  0  0  0  0  0  0  0
   74.3645   49.5150    0.3627 C   0  0  0  0  0  0  0  0  0  0  0  0
   74.2634   50.1417   -1.0042 C   0  0  0  0  0  0  0  0  0  0  0  0
   75.4966   49.7574   -1.7877 C   0  0  0  0  0  0  0  0  0  0  0  0
   75.7835   50.8030   -2.7961 N   0  0  0  0  0  0  0  0  0  0  0  0
   74.9896   50.8906   -3.4304 H   0  0  0  0  0  0  0  0  0  0  0  0
   76.6156   50.5446   -3.3265 H   0  0  0  0  0  0  0  0  0  0  0  0
  3  4  1  0  0  0
  2  4  1  0  0  0
  4  5  1  0  0  0
  1  2  1  0  0  0
 20  1  1  0  0  0
  1  6  1  0  0  0
  7  6  1  0  0  0
 12  7  2  0  0  0
  7  8  1  0  0  0
  9  8  2  0  0  0
  8 16  1  0  0  0
 10  9  1  0  0  0
  9 15  1  0  0  0
 13 10  1  0  0  0
 11 10  2  0  0  0
 11 12  1  0  0  0
 13 14  1  0  0  0
 14 15  1  0  0  0
 16 18  2  0  0  0
 16 17  1  0  0  0
 20 21  1  0  0  0
 21 22  1  0  0  0
 23 22  2  0  0  0
 22 25  1  0  0  0
 25 26  1  0  0  0
 26 27  1  0  0  0
 27 28  1  0  0  0
 17 19  1  0  0  0
 21 24  1  0  0  0
 28 29  1  0  0  0
 28 30  1  0  0  0
M  END
> <minimizedAffinity>
-6.94119

$$$$
4CK3_K1T_A_1213


 30 31  0  0  0  0  0  0  0  0999 V2000
   70.1755   51.3835   -0.1348 C   0  0  0  0  0  0  0  0  0  0  0  0
   69.9808   50.0529    0.5779 C   0  0  0  0  0  0  0  0  0  0  0  0
   68.1709   48.3765    0.1231 C   0  0  0  0  0  0  0  0  0  0  0  0
   69.5233   48.9007   -0.3047 C   0  0  0  0  0  0  0  0  0  0  0  0
   69.4461   49.4006   -1.7361 C   0  0  0  0  0  0  0  0  0  0  0  0
   69.0778   52.3462    0.2596 C   0  0  0  0  0  0  0  0  0  0  0  0
   68.5434   53.2135   -0.8452 C   0  0  0  0  0  0  0  0  0  0  0  0
   68.4876   54.6034   -0.7653 C   0  0  0  0  0  0  0  0  0  0  0  0
   67.9453   55.2697   -1.8404 C   0  0  0  0  0  0  0  0  0  0  0  0
   67.4680   54.6219   -2.9374 C   0  0  0  0  0  0  0  0  0  0  0  0
   67.5091   53.2557   -3.0311 C   0  0  0  0  0  0  0  0  0  0  0  0
   68.0477   52.5657   -1.9676 C   0  0  0  0  0  0  0  0  0  0  0  0
   66.9577   55.4720   -3.8753 O   0  0  0  0  0  0  0  0  0  0  0  0
   66.9322   56.6724   -3.1010 C   0  0  0  0  0  0  0  0  0  0  0  0
   67.7931   56.6290   -1.9543 O   0  0  0  0  0  0  0  0  0  0  0  0
   68.9755   55.4235    0.3779 C   0  0  0  0  0  0  0  0  0  0  0  0
   68.1157   56.0629    1.0507 O   0  0  0  0  0  0  0  0  0  0  0  0
   70.2229   55.4568    0.5781 O   0  0  0  0  0  0  0  0  0  0  0  0
   67.2056   55.9866    0.8410 H   0  0  0  0  0  0  0  0  0  0  0  0
   71.5149   51.9586    0.2741 C   0  0  0  0  0  0  0  0  0  0  0  0
   71.3829   52.8992    1.3617 N   0  0  0  0  0  0  0  0  0  0  0  0
   72.2120   52.7943    2.4562 C   0  0  0  0  0  0  0  0  0  0  0  0
   72.9070   51.8242    2.7182 O   0  0  0  0  0  0  0  0  0  0  0  0
   70.7042   53.6112    1.3211 H   0  0  0  0  0  0  0  0  0  0  0  0
   72.1999   54.0139    3.3265 C   0  0  0  0  0  0  0  0  0  0  0  0
   73.2795   53.8938    4.3712 C   0  0  0  0  0  0  0  0  0  0  0  0
   72.6296   53.4792    5.6705 C   0  0  0  0  0  0  0  0  0  0  0  0
   71.6390   54.5033    6.0730 N   0  0  0  0  0  0  0  0  0  0  0  0
   72.1085   55.4002    6.1972 H   0  0  0  0  0  0  0  0  0  0  0  0
   71.1998   54.2251    6.9506 H   0  0  0  0  0  0  0  0  0  0  0  0
  3  4  1  0  0  0
  2  4  1  0  0  0
  4  5  1  0  0  0
  1  2  1  0  0  0
 20  1  1  0  0  0
  1  6  1  0  0  0
  7  6  1  0  0  0
 12  7  2  0  0  0
  7  8  1  0  0  0
  9  8  2  0  0  0
  8 16  1  0  0  0
 10  9  1  0  0  0
  9 15  1  0  0  0
 13 10  1  0  0  0
 11 10  2  0  0  0
 11 12  1  0  0  0
 13 14  1  0  0  0
 14 15  1  0  0  0
 16 18  2  0  0  0
 16 17  1  0  0  0
 20 21  1  0  0  0
 21 22  1  0  0  0
 23 22  2  0  0  0
 22 25  1  0  0  0
 25 26  1  0  0  0
 26 27  1  0  0  0
 27 28  1  0  0  0
 17 19  1  0  0  0
 21 24  1  0  0  0
 28 29  1  0  0  0
 28 30  1  0  0  0
M  END
> <minimizedAffinity>
-6.92863

$$$$
4CK3_K1T_A_1213


 30 31  0  0  0  0  0  0  0  0999 V2000
   68.9585   53.3435   -0.4165 C   0  0  0  0  0  0  0  0  0  0  0  0
   68.7374   54.3027   -1.5773 C   0  0  0  0  0  0  0  0  0  0  0  0
   67.0104   55.3331   -3.0768 C   0  0  0  0  0  0  0  0  0  0  0  0
   67.4683   54.0694   -2.3839 C   0  0  0  0  0  0  0  0  0  0  0  0
   67.7538   52.9961   -3.4189 C   0  0  0  0  0  0  0  0  0  0  0  0
   70.0480   52.3539   -0.7645 C   0  0  0  0  0  0  0  0  0  0  0  0
   69.8817   50.9737   -0.1935 C   0  0  0  0  0  0  0  0  0  0  0  0
   70.7518   50.4271    0.7475 C   0  0  0  0  0  0  0  0  0  0  0  0
   70.4960   49.1397    1.1612 C   0  0  0  0  0  0  0  0  0  0  0  0
   69.4540   48.4100    0.6789 C   0  0  0  0  0  0  0  0  0  0  0  0
   68.5918   48.9286   -0.2509 C   0  0  0  0  0  0  0  0  0  0  0  0
   68.8265   50.2160   -0.6809 C   0  0  0  0  0  0  0  0  0  0  0  0
   69.3960   47.1536    1.2089 O   0  0  0  0  0  0  0  0  0  0  0  0
   70.6725   47.1204    1.8495 C   0  0  0  0  0  0  0  0  0  0  0  0
   71.2336   48.4222    2.0693 O   0  0  0  0  0  0  0  0  0  0  0  0
   71.9232   51.1231    1.3482 C   0  0  0  0  0  0  0  0  0  0  0  0
   71.8661   51.4131    2.5784 O   0  0  0  0  0  0  0  0  0  0  0  0
   72.8838   51.4124    0.5795 O   0  0  0  0  0  0  0  0  0  0  0  0
   71.1178   51.1636    3.0842 H   0  0  0  0  0  0  0  0  0  0  0  0
   69.3798   54.1439    0.7975 C   0  0  0  0  0  0  0  0  0  0  0  0
   70.6517   54.7959    0.5924 N   0  0  0  0  0  0  0  0  0  0  0  0
   71.6263   54.7060    1.5611 C   0  0  0  0  0  0  0  0  0  0  0  0
   71.4425   54.3217    2.7062 O   0  0  0  0  0  0  0  0  0  0  0  0
   70.8212   55.3018   -0.2350 H   0  0  0  0  0  0  0  0  0  0  0  0
   72.9815   55.1237    1.0773 C   0  0  0  0  0  0  0  0  0  0  0  0
   73.0822   54.8746   -0.4056 C   0  0  0  0  0  0  0  0  0  0  0  0
   73.4711   56.1730   -1.0731 C   0  0  0  0  0  0  0  0  0  0  0  0
   72.2834   57.0522   -1.1666 N   0  0  0  0  0  0  0  0  0  0  0  0
   71.5599   56.5890   -1.7165 H   0  0  0  0  0  0  0  0  0  0  0  0
   72.5442   57.9290   -1.6178 H   0  0  0  0  0  0  0  0  0  0  0  0
  3  4  1  0  0  0
  2  4  1  0  0  0
  4  5  1  0  0  0
  1  2  1  0  0  0
 20  1  1  0  0  0
  1  6  1  0  0  0
  7  6  1  0  0  0
 12  7  2  0  0  0
  7  8  1  0  0  0
  9  8  2  0  0  0
  8 16  1  0  0  0
 10  9  1  0  0  0
  9 15  1  0  0  0
 13 10  1  0  0  0
 11 10  2  0  0  0
 11 12  1  0  0  0
 13 14  1  0  0  0
 14 15  1  0  0  0
 16 18  2  0  0  0
 16 17  1  0  0  0
 20 21  1  0  0  0
 21 22  1  0  0  0
 23 22  2  0  0  0
 22 25  1  0  0  0
 25 26  1  0  0  0
 26 27  1  0  0  0
 27 28  1  0  0  0
 17 19  1  0  0  0
 21 24  1  0  0  0
 28 29  1  0  0  0
 28 30  1  0  0  0
M  END
> <minimizedAffinity>
-6.67055

$$$$
4CK3_K1T_A_1213


 30 31  0  0  0  0  0  0  0  0999 V2000
   70.7043   51.2968    0.7971 C   0  0  0  0  0  0  0  0  0  0  0  0
   71.3088   51.6687   -0.5492 C   0  0  0  0  0  0  0  0  0  0  0  0
   73.7360   51.4353   -1.1382 C   0  0  0  0  0  0  0  0  0  0  0  0
   72.6871   52.3111   -0.4907 C   0  0  0  0  0  0  0  0  0  0  0  0
   72.6206   53.6447   -1.2130 C   0  0  0  0  0  0  0  0  0  0  0  0
   69.2510   51.7129    0.8434 C   0  0  0  0  0  0  0  0  0  0  0  0
   68.7622   52.5059   -0.3359 C   0  0  0  0  0  0  0  0  0  0  0  0
   68.6431   53.8941   -0.3256 C   0  0  0  0  0  0  0  0  0  0  0  0
   68.1526   54.4874   -1.4664 C   0  0  0  0  0  0  0  0  0  0  0  0
   67.7831   53.7712   -2.5624 C   0  0  0  0  0  0  0  0  0  0  0  0
   67.8876   52.4054   -2.5886 C   0  0  0  0  0  0  0  0  0  0  0  0
   68.3762   51.7877   -1.4585 C   0  0  0  0  0  0  0  0  0  0  0  0
   67.3070   54.5555   -3.5729 O   0  0  0  0  0  0  0  0  0  0  0  0
   67.1758   55.7864   -2.8597 C   0  0  0  0  0  0  0  0  0  0  0  0
   67.9527   55.8322   -1.6546 O   0  0  0  0  0  0  0  0  0  0  0  0
   69.0128   54.7848    0.8091 C   0  0  0  0  0  0  0  0  0  0  0  0
   68.1070   55.5222    1.2953 O   0  0  0  0  0  0  0  0  0  0  0  0
   70.2184   54.7729    1.1878 O   0  0  0  0  0  0  0  0  0  0  0  0
   67.2332   55.4737    0.9604 H   0  0  0  0  0  0  0  0  0  0  0  0
   70.8000   49.7960    0.9712 C   0  0  0  0  0  0  0  0  0  0  0  0
   70.3271   49.3776    2.2699 N   0  0  0  0  0  0  0  0  0  0  0  0
   70.3796   48.0459    2.6163 C   0  0  0  0  0  0  0  0  0  0  0  0
   70.5697   47.1258    1.8352 O   0  0  0  0  0  0  0  0  0  0  0  0
   69.9694   50.0404    2.9038 H   0  0  0  0  0  0  0  0  0  0  0  0
   70.1870   47.8082    4.0831 C   0  0  0  0  0  0  0  0  0  0  0  0
   71.3339   46.9856    4.6115 C   0  0  0  0  0  0  0  0  0  0  0  0
   72.5203   47.9020    4.7985 C   0  0  0  0  0  0  0  0  0  0  0  0
   72.0414   49.2703    5.0999 N   0  0  0  0  0  0  0  0  0  0  0  0
   71.4678   49.6077    4.3269 H   0  0  0  0  0  0  0  0  0  0  0  0
   72.8413   49.8905    5.2257 H   0  0  0  0  0  0  0  0  0  0  0  0
  3  4  1  0  0  0
  2  4  1  0  0  0
  4  5  1  0  0  0
  1  2  1  0  0  0
 20  1  1  0  0  0
  1  6  1  0  0  0
  7  6  1  0  0  0
 12  7  2  0  0  0
  7  8  1  0  0  0
  9  8  2  0  0  0
  8 16  1  0  0  0
 10  9  1  0  0  0
  9 15  1  0  0  0
 13 10  1  0  0  0
 11 10  2  0  0  0
 11 12  1  0  0  0
 13 14  1  0  0  0
 14 15  1  0  0  0
 16 18  2  0  0  0
 16 17  1  0  0  0
 20 21  1  0  0  0
 21 22  1  0  0  0
 23 22  2  0  0  0
 22 25  1  0  0  0
 25 26  1  0  0  0
 26 27  1  0  0  0
 27 28  1  0  0  0
 17 19  1  0  0  0
 21 24  1  0  0  0
 28 29  1  0  0  0
 28 30  1  0  0  0
M  END
> <minimizedAffinity>
-6.35954

$$$$
4CK3_K1T_A_1213


 30 31  0  0  0  0  0  0  0  0999 V2000
   70.4061   50.7310    0.9331 C   0  0  0  0  0  0  0  0  0  0  0  0
   69.6976   49.5523    1.5853 C   0  0  0  0  0  0  0  0  0  0  0  0
   69.9881   47.0607    1.5792 C   0  0  0  0  0  0  0  0  0  0  0  0
   69.6463   48.2797    0.7524 C   0  0  0  0  0  0  0  0  0  0  0  0
   68.2435   48.1365    0.1899 C   0  0  0  0  0  0  0  0  0  0  0  0
   69.5943   51.9924    1.1257 C   0  0  0  0  0  0  0  0  0  0  0  0
   69.0177   52.5938   -0.1251 C   0  0  0  0  0  0  0  0  0  0  0  0
   68.7465   53.9534   -0.2633 C   0  0  0  0  0  0  0  0  0  0  0  0
   68.1903   54.3616   -1.4542 C   0  0  0  0  0  0  0  0  0  0  0  0
   67.8989   53.4940   -2.4607 C   0  0  0  0  0  0  0  0  0  0  0  0
   68.1530   52.1532   -2.3404 C   0  0  0  0  0  0  0  0  0  0  0  0
   68.7100   51.7196   -1.1576 C   0  0  0  0  0  0  0  0  0  0  0  0
   67.3363   54.1065   -3.5429 O   0  0  0  0  0  0  0  0  0  0  0  0
   67.0724   55.3862   -2.9652 C   0  0  0  0  0  0  0  0  0  0  0  0
   67.8430   55.6478   -1.7838 O   0  0  0  0  0  0  0  0  0  0  0  0
   69.0190   54.9977    0.7627 C   0  0  0  0  0  0  0  0  0  0  0  0
   68.0287   55.6234    1.2406 O   0  0  0  0  0  0  0  0  0  0  0  0
   70.2272   55.2167    1.0618 O   0  0  0  0  0  0  0  0  0  0  0  0
   67.1595   55.4027    0.9687 H   0  0  0  0  0  0  0  0  0  0  0  0
   71.7598   50.9032    1.5885 C   0  0  0  0  0  0  0  0  0  0  0  0
   71.9431   49.9826    2.6858 N   0  0  0  0  0  0  0  0  0  0  0  0
   72.8938   50.2490    3.6458 C   0  0  0  0  0  0  0  0  0  0  0  0
   73.7823   51.0810    3.5399 O   0  0  0  0  0  0  0  0  0  0  0  0
   71.3917   49.1694    2.7473 H   0  0  0  0  0  0  0  0  0  0  0  0
   72.7396   49.4125    4.8792 C   0  0  0  0  0  0  0  0  0  0  0  0
   73.7411   48.2867    4.8488 C   0  0  0  0  0  0  0  0  0  0  0  0
   73.0406   47.0508    4.3348 C   0  0  0  0  0  0  0  0  0  0  0  0
   73.3508   46.8718    2.8982 N   0  0  0  0  0  0  0  0  0  0  0  0
   73.0300   47.6877    2.3769 H   0  0  0  0  0  0  0  0  0  0  0  0
   72.8779   46.0380    2.5495 H   0  0  0  0  0  0  0  0  0  0  0  0
  3  4  1  0  0  0
  2  4  1  0  0  0
  4  5  1  0  0  0
  1  2  1  0  0  0
 20  1  1  0  0  0
  1  6  1  0  0  0
  7  6  1  0  0  0
 12  7  2  0  0  0
  7  8  1  0  0  0
  9  8  2  0  0  0
  8 16  1  0  0  0
 10  9  1  0  0  0
  9 15  1  0  0  0
 13 10  1  0  0  0
 11 10  2  0  0  0
 11 12  1  0  0  0
 13 14  1  0  0  0
 14 15  1  0  0  0
 16 18  2  0  0  0
 16 17  1  0  0  0
 20 21  1  0  0  0
 21 22  1  0  0  0
 23 22  2  0  0  0
 22 25  1  0  0  0
 25 26  1  0  0  0
 26 27  1  0  0  0
 27 28  1  0  0  0
 17 19  1  0  0  0
 21 24  1  0  0  0
 28 29  1  0  0  0
 28 30  1  0  0  0
M  END
> <minimizedAffinity>
-6.34329

$$$$
4CK3_K1T_A_1213


 30 31  0  0  0  0  0  0  0  0999 V2000
   69.1261   51.3475   -1.6095 C   0  0  0  0  0  0  0  0  0  0  0  0
   67.7167   51.9050   -1.7481 C   0  0  0  0  0  0  0  0  0  0  0  0
   66.8026   54.1088   -2.5229 C   0  0  0  0  0  0  0  0  0  0  0  0
   67.4946   52.8294   -2.9363 C   0  0  0  0  0  0  0  0  0  0  0  0
   68.8472   53.1554   -3.5438 C   0  0  0  0  0  0  0  0  0  0  0  0
   69.7518   51.8390   -0.3233 C   0  0  0  0  0  0  0  0  0  0  0  0
   70.9766   52.6957   -0.4801 C   0  0  0  0  0  0  0  0  0  0  0  0
   70.9486   54.0871   -0.4120 C   0  0  0  0  0  0  0  0  0  0  0  0
   72.1413   54.7461   -0.6042 C   0  0  0  0  0  0  0  0  0  0  0  0
   73.3055   54.0911   -0.8620 C   0  0  0  0  0  0  0  0  0  0  0  0
   73.3512   52.7241   -0.9384 C   0  0  0  0  0  0  0  0  0  0  0  0
   72.1700   52.0412   -0.7494 C   0  0  0  0  0  0  0  0  0  0  0  0
   74.3622   54.9368   -1.0381 O   0  0  0  0  0  0  0  0  0  0  0  0
   73.6494   56.1716   -1.1300 C   0  0  0  0  0  0  0  0  0  0  0  0
   72.3242   56.1062   -0.5848 O   0  0  0  0  0  0  0  0  0  0  0  0
   69.7414   54.9147   -0.1377 C   0  0  0  0  0  0  0  0  0  0  0  0
   69.3516   55.7034   -1.0470 O   0  0  0  0  0  0  0  0  0  0  0  0
   69.2066   54.8019    1.0018 O   0  0  0  0  0  0  0  0  0  0  0  0
   69.8013   55.7299   -1.8686 H   0  0  0  0  0  0  0  0  0  0  0  0
   69.0466   49.8359   -1.5805 C   0  0  0  0  0  0  0  0  0  0  0  0
   69.5615   49.2974   -0.3436 N   0  0  0  0  0  0  0  0  0  0  0  0
   68.8755   48.2904    0.2979 C   0  0  0  0  0  0  0  0  0  0  0  0
   67.7265   47.9572    0.0497 O   0  0  0  0  0  0  0  0  0  0  0  0
   70.3982   49.6482    0.0389 H   0  0  0  0  0  0  0  0  0  0  0  0
   69.6841   47.6051    1.3568 C   0  0  0  0  0  0  0  0  0  0  0  0
   70.8257   48.4977    1.7707 C   0  0  0  0  0  0  0  0  0  0  0  0
   71.0795   48.2804    3.2441 C   0  0  0  0  0  0  0  0  0  0  0  0
   71.9110   49.3878    3.7679 N   0  0  0  0  0  0  0  0  0  0  0  0
   72.8000   49.4113    3.2682 H   0  0  0  0  0  0  0  0  0  0  0  0
   72.0839   49.2420    4.7626 H   0  0  0  0  0  0  0  0  0  0  0  0
  3  4  1  0  0  0
  2  4  1  0  0  0
  4  5  1  0  0  0
  1  2  1  0  0  0
 20  1  1  0  0  0
  1  6  1  0  0  0
  7  6  1  0  0  0
 12  7  2  0  0  0
  7  8  1  0  0  0
  9  8  2  0  0  0
  8 16  1  0  0  0
 10  9  1  0  0  0
  9 15  1  0  0  0
 13 10  1  0  0  0
 11 10  2  0  0  0
 11 12  1  0  0  0
 13 14  1  0  0  0
 14 15  1  0  0  0
 16 18  2  0  0  0
 16 17  1  0  0  0
 20 21  1  0  0  0
 21 22  1  0  0  0
 23 22  2  0  0  0
 22 25  1  0  0  0
 25 26  1  0  0  0
 26 27  1  0  0  0
 27 28  1  0  0  0
 17 19  1  0  0  0
 21 24  1  0  0  0
 28 29  1  0  0  0
 28 30  1  0  0  0
M  END
> <minimizedAffinity>
-6.08120

$$$$
4CK3_K1T_A_1213


 30 31  0  0  0  0  0  0  0  0999 V2000
   69.1259   51.2722   -1.6973 C   0  0  0  0  0  0  0  0  0  0  0  0
   67.6858   51.7317   -1.8746 C   0  0  0  0  0  0  0  0  0  0  0  0
   66.9217   54.0662   -2.3839 C   0  0  0  0  0  0  0  0  0  0  0  0
   67.4630   52.7764   -2.9585 C   0  0  0  0  0  0  0  0  0  0  0  0
   68.7919   53.0419   -3.6426 C   0  0  0  0  0  0  0  0  0  0  0  0
   69.6672   51.7680   -0.3750 C   0  0  0  0  0  0  0  0  0  0  0  0
   70.6492   52.9027   -0.4569 C   0  0  0  0  0  0  0  0  0  0  0  0
   72.0260   52.7146   -0.5584 C   0  0  0  0  0  0  0  0  0  0  0  0
   72.8100   53.8451   -0.5944 C   0  0  0  0  0  0  0  0  0  0  0  0
   72.2882   55.0995   -0.5238 C   0  0  0  0  0  0  0  0  0  0  0  0
   70.9377   55.3037   -0.4178 C   0  0  0  0  0  0  0  0  0  0  0  0
   70.1313   54.1876   -0.3800 C   0  0  0  0  0  0  0  0  0  0  0  0
   73.2432   56.0740   -0.5572 O   0  0  0  0  0  0  0  0  0  0  0  0
   74.4028   55.2589   -0.3782 C   0  0  0  0  0  0  0  0  0  0  0  0
   74.1792   53.8752   -0.6836 O   0  0  0  0  0  0  0  0  0  0  0  0
   72.7143   51.3968   -0.6428 C   0  0  0  0  0  0  0  0  0  0  0  0
   73.5092   51.2107   -1.6094 O   0  0  0  0  0  0  0  0  0  0  0  0
   72.4301   50.5357    0.2375 O   0  0  0  0  0  0  0  0  0  0  0  0
   73.6696   51.9001   -2.2234 H   0  0  0  0  0  0  0  0  0  0  0  0
   69.1549   49.7586   -1.7130 C   0  0  0  0  0  0  0  0  0  0  0  0
   69.6683   49.2212   -0.4750 N   0  0  0  0  0  0  0  0  0  0  0  0
   68.9225   48.3021    0.2287 C   0  0  0  0  0  0  0  0  0  0  0  0
   67.7403   48.0627    0.0341 O   0  0  0  0  0  0  0  0  0  0  0  0
   70.5462   49.5103   -0.1360 H   0  0  0  0  0  0  0  0  0  0  0  0
   69.7086   47.5862    1.2845 C   0  0  0  0  0  0  0  0  0  0  0  0
   69.8903   48.4933    2.4743 C   0  0  0  0  0  0  0  0  0  0  0  0
   71.3366   48.4175    2.9043 C   0  0  0  0  0  0  0  0  0  0  0  0
   71.8736   49.7878    3.0652 N   0  0  0  0  0  0  0  0  0  0  0  0
   71.8071   50.2855    2.1773 H   0  0  0  0  0  0  0  0  0  0  0  0
   72.8504   49.7384    3.3548 H   0  0  0  0  0  0  0  0  0  0  0  0
  3  4  1  0  0  0
  2  4  1  0  0  0
  4  5  1  0  0  0
  1  2  1  0  0  0
 20  1  1  0  0  0
  1  6  1  0  0  0
  7  6  1  0  0  0
 12  7  2  0  0  0
  7  8  1  0  0  0
  9  8  2  0  0  0
  8 16  1  0  0  0
 10  9  1  0  0  0
  9 15  1  0  0  0
 13 10  1  0  0  0
 11 10  2  0  0  0
 11 12  1  0  0  0
 13 14  1  0  0  0
 14 15  1  0  0  0
 16 18  2  0  0  0
 16 17  1  0  0  0
 20 21  1  0  0  0
 21 22  1  0  0  0
 23 22  2  0  0  0
 22 25  1  0  0  0
 25 26  1  0  0  0
 26 27  1  0  0  0
 27 28  1  0  0  0
 17 19  1  0  0  0
 21 24  1  0  0  0
 28 29  1  0  0  0
 28 30  1  0  0  0
M  END
> <minimizedAffinity>
-6.06415

$$$$
