6FHK_ADP_A_401


 34 36  0  0  0  0  0  0  0  0999 V2000
   21.9899   -6.3111   72.3829 C   0  0  0  0  0  0  0  0  0  0  0  0
   22.5607   -4.9989   72.4709 O   0  0  0  0  0  0  0  0  0  0  0  0
   21.4347   -6.6607   73.7471 C   0  0  0  0  0  0  0  0  0  0  0  0
   22.3124   -7.6426   74.2978 O   0  0  0  0  0  0  0  0  0  0  0  0
   21.5866   -5.3498   74.4864 C   0  0  0  0  0  0  0  0  0  0  0  0
   21.7730   -5.5019   75.8943 O   0  0  0  0  0  0  0  0  0  0  0  0
   22.8303   -4.7603   73.8434 C   0  0  0  0  0  0  0  0  0  0  0  0
   23.2229   -7.3087   74.2800 H   0  0  0  0  0  0  0  0  0  0  0  0
   22.5592   -6.0455   76.0594 H   0  0  0  0  0  0  0  0  0  0  0  0
   22.8865   -3.3033   74.0296 N   0  0  0  0  0  0  0  0  0  0  0  0
   22.0200   -2.4005   73.5295 C   0  0  0  0  0  0  0  0  0  0  0  0
   22.3963   -1.1659   73.8992 N   0  0  0  0  0  0  0  0  0  0  0  0
   23.5248   -1.2948   74.6395 C   0  0  0  0  0  0  0  0  0  0  0  0
   24.4284   -0.3798   75.3611 C   0  0  0  0  0  0  0  0  0  0  0  0
   24.2135    0.9577   75.3640 N   0  0  0  0  0  0  0  0  0  0  0  0
   25.4901   -0.9397   75.9774 N   0  0  0  0  0  0  0  0  0  0  0  0
   25.7217   -2.2689   76.0014 C   0  0  0  0  0  0  0  0  0  0  0  0
   24.9333   -3.1589   75.3783 N   0  0  0  0  0  0  0  0  0  0  0  0
   23.8480   -2.7000   74.7143 C   0  0  0  0  0  0  0  0  0  0  0  0
   23.4275    1.3310   74.9034 H   0  0  0  0  0  0  0  0  0  0  0  0
   24.8433    1.5564   75.8266 H   0  0  0  0  0  0  0  0  0  0  0  0
   20.8848   -6.2083   71.3737 C   0  0  0  0  0  0  0  0  0  0  0  0
   21.0531   -7.2861   70.4602 O   0  0  0  0  0  0  0  0  0  0  0  0
   21.0027   -6.9170   68.9142 P   0  0  0  0  0  0  0  0  0  0  0  0
   21.9487   -5.7442   68.7736 O   0  0  0  0  0  0  0  0  0  0  0  0
   19.5866   -6.8034   68.4735 O   0  0  0  0  0  0  0  0  0  0  0  0
   19.5585   -6.5782   67.5304 H   0  0  0  0  0  0  0  0  0  0  0  0
   21.5640   -8.2312   68.1743 O   0  0  0  0  0  0  0  0  0  0  0  0
   20.8444   -9.6651   67.8713 P   0  0  0  0  0  0  0  0  0  0  0  0
   21.3505  -10.6082   68.9680 O   0  0  0  0  0  0  0  0  0  0  0  0
   19.3991   -9.3573   67.9150 O   0  0  0  0  0  0  0  0  0  0  0  0
   21.4263   -9.9006   66.5145 O   0  0  0  0  0  0  0  0  0  0  0  0
   18.8910  -10.1655   67.7428 H   0  0  0  0  0  0  0  0  0  0  0  0
   21.0968  -10.7424   66.1630 H   0  0  0  0  0  0  0  0  0  0  0  0
 29 30  2  0  0  0
 29 31  1  0  0  0
 29 32  1  0  0  0
 29 28  1  0  0  0
 24 25  2  0  0  0
 24 26  1  0  0  0
 24 28  1  0  0  0
 24 23  1  0  0  0
 23 22  1  0  0  0
 22  1  1  0  0  0
  1  2  1  0  0  0
  1  3  1  0  0  0
  2  7  1  0  0  0
  3  4  1  0  0  0
  3  5  1  0  0  0
  5  6  1  0  0  0
  5  7  1  0  0  0
  7 10  1  0  0  0
 10 11  1  0  0  0
 10 19  1  0  0  0
 11 12  2  0  0  0
 12 13  1  0  0  0
 13 14  1  0  0  0
 13 19  2  0  0  0
 14 15  1  0  0  0
 14 16  2  0  0  0
 16 17  1  0  0  0
 17 18  2  0  0  0
 18 19  1  0  0  0
 31 33  1  0  0  0
 32 34  1  0  0  0
 26 27  1  0  0  0
  4  8  1  0  0  0
  6  9  1  0  0  0
 15 20  1  0  0  0
 15 21  1  0  0  0
M  END
> <minimizedAffinity>
-11.61993

$$$$
6FHK_ADP_A_401


 34 36  0  0  0  0  0  0  0  0999 V2000
   20.6054   -5.7912   71.0029 C   0  0  0  0  0  0  0  0  0  0  0  0
   21.5234   -5.9274   72.0957 O   0  0  0  0  0  0  0  0  0  0  0  0
   20.3488   -4.3128   70.8027 C   0  0  0  0  0  0  0  0  0  0  0  0
   19.0226   -4.0689   71.2711 O   0  0  0  0  0  0  0  0  0  0  0  0
   21.3582   -3.6950   71.7448 C   0  0  0  0  0  0  0  0  0  0  0  0
   20.9557   -2.4288   72.2688 O   0  0  0  0  0  0  0  0  0  0  0  0
   21.4395   -4.7306   72.8533 C   0  0  0  0  0  0  0  0  0  0  0  0
   18.9347   -4.3985   72.1792 H   0  0  0  0  0  0  0  0  0  0  0  0
   20.1117   -2.5262   72.7370 H   0  0  0  0  0  0  0  0  0  0  0  0
   22.6940   -4.6044   73.6091 N   0  0  0  0  0  0  0  0  0  0  0  0
   23.5524   -5.6005   73.9033 C   0  0  0  0  0  0  0  0  0  0  0  0
   24.5804   -5.1104   74.6144 N   0  0  0  0  0  0  0  0  0  0  0  0
   24.3599   -3.7825   74.7763 C   0  0  0  0  0  0  0  0  0  0  0  0
   25.0744   -2.6601   75.4119 C   0  0  0  0  0  0  0  0  0  0  0  0
   26.2559   -2.8521   76.0462 N   0  0  0  0  0  0  0  0  0  0  0  0
   24.4726   -1.4535   75.3606 N   0  0  0  0  0  0  0  0  0  0  0  0
   23.3030   -1.2310   74.7253 C   0  0  0  0  0  0  0  0  0  0  0  0
   22.6071   -2.2031   74.1148 N   0  0  0  0  0  0  0  0  0  0  0  0
   23.1147   -3.4568   74.1222 C   0  0  0  0  0  0  0  0  0  0  0  0
   26.6657   -3.7470   76.0632 H   0  0  0  0  0  0  0  0  0  0  0  0
   26.7047   -2.0966   76.4902 H   0  0  0  0  0  0  0  0  0  0  0  0
   21.3034   -6.3723   69.8090 C   0  0  0  0  0  0  0  0  0  0  0  0
   20.7837   -7.6833   69.6197 O   0  0  0  0  0  0  0  0  0  0  0  0
   20.5958   -8.1587   68.1138 P   0  0  0  0  0  0  0  0  0  0  0  0
   20.6256   -6.8793   67.3062 O   0  0  0  0  0  0  0  0  0  0  0  0
   19.4344   -9.0835   68.0231 O   0  0  0  0  0  0  0  0  0  0  0  0
   19.3219   -9.3720   67.1038 H   0  0  0  0  0  0  0  0  0  0  0  0
   21.8837   -9.0793   67.8251 O   0  0  0  0  0  0  0  0  0  0  0  0
   22.0287  -10.7037   67.7469 P   0  0  0  0  0  0  0  0  0  0  0  0
   21.3504  -11.1047   66.4327 O   0  0  0  0  0  0  0  0  0  0  0  0
   23.4874  -10.9369   67.8061 O   0  0  0  0  0  0  0  0  0  0  0  0
   21.2586  -11.0352   68.9846 O   0  0  0  0  0  0  0  0  0  0  0  0
   23.6645  -11.8897   67.7648 H   0  0  0  0  0  0  0  0  0  0  0  0
   21.2382  -11.9975   69.1048 H   0  0  0  0  0  0  0  0  0  0  0  0
 29 30  2  0  0  0
 29 31  1  0  0  0
 29 32  1  0  0  0
 29 28  1  0  0  0
 24 25  2  0  0  0
 24 26  1  0  0  0
 24 28  1  0  0  0
 24 23  1  0  0  0
 23 22  1  0  0  0
 22  1  1  0  0  0
  1  2  1  0  0  0
  1  3  1  0  0  0
  2  7  1  0  0  0
  3  4  1  0  0  0
  3  5  1  0  0  0
  5  6  1  0  0  0
  5  7  1  0  0  0
  7 10  1  0  0  0
 10 11  1  0  0  0
 10 19  1  0  0  0
 11 12  2  0  0  0
 12 13  1  0  0  0
 13 14  1  0  0  0
 13 19  2  0  0  0
 14 15  1  0  0  0
 14 16  2  0  0  0
 16 17  1  0  0  0
 17 18  2  0  0  0
 18 19  1  0  0  0
 31 33  1  0  0  0
 32 34  1  0  0  0
 26 27  1  0  0  0
  4  8  1  0  0  0
  6  9  1  0  0  0
 15 20  1  0  0  0
 15 21  1  0  0  0
M  END
> <minimizedAffinity>
-11.42455

$$$$
6FHK_ADP_A_401


 34 36  0  0  0  0  0  0  0  0999 V2000
   22.1817   -6.0825   72.2638 C   0  0  0  0  0  0  0  0  0  0  0  0
   21.9188   -4.6781   72.1456 O   0  0  0  0  0  0  0  0  0  0  0  0
   22.1717   -6.4271   73.7378 C   0  0  0  0  0  0  0  0  0  0  0  0
   23.5306   -6.6681   74.1025 O   0  0  0  0  0  0  0  0  0  0  0  0
   21.6866   -5.1332   74.3531 C   0  0  0  0  0  0  0  0  0  0  0  0
   22.1717   -4.9090   75.6776 O   0  0  0  0  0  0  0  0  0  0  0  0
   22.2446   -4.0932   73.3966 C   0  0  0  0  0  0  0  0  0  0  0  0
   24.0743   -5.9070   73.8455 H   0  0  0  0  0  0  0  0  0  0  0  0
   23.1417   -4.9060   75.6705 H   0  0  0  0  0  0  0  0  0  0  0  0
   21.5020   -2.8283   73.4928 N   0  0  0  0  0  0  0  0  0  0  0  0
   20.2157   -2.6291   73.1441 C   0  0  0  0  0  0  0  0  0  0  0  0
   19.8860   -1.3460   73.3624 N   0  0  0  0  0  0  0  0  0  0  0  0
   20.9882   -0.7256   73.8507 C   0  0  0  0  0  0  0  0  0  0  0  0
   21.3196    0.6338   74.3160 C   0  0  0  0  0  0  0  0  0  0  0  0
   20.3958    1.6244   74.2973 N   0  0  0  0  0  0  0  0  0  0  0  0
   22.5903    0.8420   74.7192 N   0  0  0  0  0  0  0  0  0  0  0  0
   23.5271   -0.1285   74.7602 C   0  0  0  0  0  0  0  0  0  0  0  0
   23.2902   -1.3893   74.3651 N   0  0  0  0  0  0  0  0  0  0  0  0
   22.0498   -1.7013   73.9256 C   0  0  0  0  0  0  0  0  0  0  0  0
   19.4775    1.4355   73.9967 H   0  0  0  0  0  0  0  0  0  0  0  0
   20.6427    2.5332   74.5843 H   0  0  0  0  0  0  0  0  0  0  0  0
   21.0535   -6.7699   71.5533 C   0  0  0  0  0  0  0  0  0  0  0  0
   20.6471   -5.9147   70.4912 O   0  0  0  0  0  0  0  0  0  0  0  0
   20.8204   -6.4864   69.0174 P   0  0  0  0  0  0  0  0  0  0  0  0
   22.1405   -5.9181   68.5435 O   0  0  0  0  0  0  0  0  0  0  0  0
   19.5738   -6.2521   68.2407 O   0  0  0  0  0  0  0  0  0  0  0  0
   19.6820   -6.6015   67.3424 H   0  0  0  0  0  0  0  0  0  0  0  0
   20.8922   -8.0816   69.2169 O   0  0  0  0  0  0  0  0  0  0  0  0
   20.7828   -9.2916   68.1260 P   0  0  0  0  0  0  0  0  0  0  0  0
   21.2615  -10.5446   68.8668 O   0  0  0  0  0  0  0  0  0  0  0  0
   19.3578   -9.2916   67.7323 O   0  0  0  0  0  0  0  0  0  0  0  0
   21.7434   -8.7441   67.1199 O   0  0  0  0  0  0  0  0  0  0  0  0
   19.2033   -9.9902   67.0773 H   0  0  0  0  0  0  0  0  0  0  0  0
   21.8091   -9.3554   66.3697 H   0  0  0  0  0  0  0  0  0  0  0  0
 29 30  2  0  0  0
 29 31  1  0  0  0
 29 32  1  0  0  0
 29 28  1  0  0  0
 24 25  2  0  0  0
 24 26  1  0  0  0
 24 28  1  0  0  0
 24 23  1  0  0  0
 23 22  1  0  0  0
 22  1  1  0  0  0
  1  2  1  0  0  0
  1  3  1  0  0  0
  2  7  1  0  0  0
  3  4  1  0  0  0
  3  5  1  0  0  0
  5  6  1  0  0  0
  5  7  1  0  0  0
  7 10  1  0  0  0
 10 11  1  0  0  0
 10 19  1  0  0  0
 11 12  2  0  0  0
 12 13  1  0  0  0
 13 14  1  0  0  0
 13 19  2  0  0  0
 14 15  1  0  0  0
 14 16  2  0  0  0
 16 17  1  0  0  0
 17 18  2  0  0  0
 18 19  1  0  0  0
 31 33  1  0  0  0
 32 34  1  0  0  0
 26 27  1  0  0  0
  4  8  1  0  0  0
  6  9  1  0  0  0
 15 20  1  0  0  0
 15 21  1  0  0  0
M  END
> <minimizedAffinity>
-10.87881

$$$$
6FHK_ADP_A_401


 34 36  0  0  0  0  0  0  0  0999 V2000
   19.0816   -2.3989   73.3584 C   0  0  0  0  0  0  0  0  0  0  0  0
   20.3701   -2.0717   73.8952 O   0  0  0  0  0  0  0  0  0  0  0  0
   19.2260   -3.6865   72.5755 C   0  0  0  0  0  0  0  0  0  0  0  0
   19.1364   -3.3295   71.1963 O   0  0  0  0  0  0  0  0  0  0  0  0
   20.6405   -4.0983   72.9185 C   0  0  0  0  0  0  0  0  0  0  0  0
   21.2840   -4.8545   71.8919 O   0  0  0  0  0  0  0  0  0  0  0  0
   21.3293   -2.7573   73.1058 C   0  0  0  0  0  0  0  0  0  0  0  0
   19.7843   -2.6350   70.9994 H   0  0  0  0  0  0  0  0  0  0  0  0
   21.3005   -4.3374   71.0714 H   0  0  0  0  0  0  0  0  0  0  0  0
   22.5464   -2.8927   73.9189 N   0  0  0  0  0  0  0  0  0  0  0  0
   23.1581   -4.0455   74.2546 C   0  0  0  0  0  0  0  0  0  0  0  0
   24.2339   -3.7776   75.0119 N   0  0  0  0  0  0  0  0  0  0  0  0
   24.2950   -2.4314   75.1610 C   0  0  0  0  0  0  0  0  0  0  0  0
   25.2033   -1.4798   75.8272 C   0  0  0  0  0  0  0  0  0  0  0  0
   26.2867   -1.9119   76.5161 N   0  0  0  0  0  0  0  0  0  0  0  0
   24.8760   -0.1733   75.7457 N   0  0  0  0  0  0  0  0  0  0  0  0
   23.8108    0.2860   75.0562 C   0  0  0  0  0  0  0  0  0  0  0  0
   22.9516   -0.5224   74.4158 N   0  0  0  0  0  0  0  0  0  0  0  0
   23.1789   -1.8553   74.4491 C   0  0  0  0  0  0  0  0  0  0  0  0
   26.4947   -2.8735   76.5538 H   0  0  0  0  0  0  0  0  0  0  0  0
   26.8660   -1.2644   76.9792 H   0  0  0  0  0  0  0  0  0  0  0  0
   18.1848   -2.5997   74.5440 C   0  0  0  0  0  0  0  0  0  0  0  0
   17.7491   -1.3106   74.9599 O   0  0  0  0  0  0  0  0  0  0  0  0
   16.1769   -1.0742   74.9988 P   0  0  0  0  0  0  0  0  0  0  0  0
   15.8014   -1.2623   76.4526 O   0  0  0  0  0  0  0  0  0  0  0  0
   15.5232   -1.8860   73.9377 O   0  0  0  0  0  0  0  0  0  0  0  0
   14.5645   -1.7401   73.9634 H   0  0  0  0  0  0  0  0  0  0  0  0
   15.9939    0.4530   74.5258 O   0  0  0  0  0  0  0  0  0  0  0  0
   16.6082    1.2434   73.2359 P   0  0  0  0  0  0  0  0  0  0  0  0
   16.3661    0.3134   72.0424 O   0  0  0  0  0  0  0  0  0  0  0  0
   15.8624    2.5196   73.2087 O   0  0  0  0  0  0  0  0  0  0  0  0
   18.0264    1.3199   73.7024 O   0  0  0  0  0  0  0  0  0  0  0  0
   16.1693    3.0576   72.4623 H   0  0  0  0  0  0  0  0  0  0  0  0
   18.5621    1.7768   73.0352 H   0  0  0  0  0  0  0  0  0  0  0  0
 29 30  2  0  0  0
 29 31  1  0  0  0
 29 32  1  0  0  0
 29 28  1  0  0  0
 24 25  2  0  0  0
 24 26  1  0  0  0
 24 28  1  0  0  0
 24 23  1  0  0  0
 23 22  1  0  0  0
 22  1  1  0  0  0
  1  2  1  0  0  0
  1  3  1  0  0  0
  2  7  1  0  0  0
  3  4  1  0  0  0
  3  5  1  0  0  0
  5  6  1  0  0  0
  5  7  1  0  0  0
  7 10  1  0  0  0
 10 11  1  0  0  0
 10 19  1  0  0  0
 11 12  2  0  0  0
 12 13  1  0  0  0
 13 14  1  0  0  0
 13 19  2  0  0  0
 14 15  1  0  0  0
 14 16  2  0  0  0
 16 17  1  0  0  0
 17 18  2  0  0  0
 18 19  1  0  0  0
 31 33  1  0  0  0
 32 34  1  0  0  0
 26 27  1  0  0  0
  4  8  1  0  0  0
  6  9  1  0  0  0
 15 20  1  0  0  0
 15 21  1  0  0  0
M  END
> <minimizedAffinity>
-10.51332

$$$$
6FHK_ADP_A_401


 34 36  0  0  0  0  0  0  0  0999 V2000
   22.1798   -5.9663   71.9368 C   0  0  0  0  0  0  0  0  0  0  0  0
   22.1070   -4.5345   71.9405 O   0  0  0  0  0  0  0  0  0  0  0  0
   21.7617   -6.4490   73.3092 C   0  0  0  0  0  0  0  0  0  0  0  0
   22.9508   -6.9062   73.9531 O   0  0  0  0  0  0  0  0  0  0  0  0
   21.2783   -5.1679   73.9520 C   0  0  0  0  0  0  0  0  0  0  0  0
   21.4347   -5.1422   75.3714 O   0  0  0  0  0  0  0  0  0  0  0  0
   22.1674   -4.1244   73.2975 C   0  0  0  0  0  0  0  0  0  0  0  0
   23.6198   -6.2042   73.9328 H   0  0  0  0  0  0  0  0  0  0  0  0
   22.3697   -5.2698   75.5960 H   0  0  0  0  0  0  0  0  0  0  0  0
   21.5642   -2.7862   73.3756 N   0  0  0  0  0  0  0  0  0  0  0  0
   22.2062   -1.6110   73.2250 C   0  0  0  0  0  0  0  0  0  0  0  0
   21.3333   -0.6016   73.3726 N   0  0  0  0  0  0  0  0  0  0  0  0
   20.1212   -1.1528   73.6280 C   0  0  0  0  0  0  0  0  0  0  0  0
   18.7557   -0.6473   73.8605 C   0  0  0  0  0  0  0  0  0  0  0  0
   18.4926    0.6814   73.8635 N   0  0  0  0  0  0  0  0  0  0  0  0
   17.8028   -1.5706   74.1062 N   0  0  0  0  0  0  0  0  0  0  0  0
   18.0339   -2.9001   74.0969 C   0  0  0  0  0  0  0  0  0  0  0  0
   19.2483   -3.4287   73.8788 N   0  0  0  0  0  0  0  0  0  0  0  0
   20.2801   -2.5879   73.6384 C   0  0  0  0  0  0  0  0  0  0  0  0
   19.2133    1.3264   73.6799 H   0  0  0  0  0  0  0  0  0  0  0  0
   17.5805    1.0022   74.0494 H   0  0  0  0  0  0  0  0  0  0  0  0
   21.2004   -6.4218   70.8958 C   0  0  0  0  0  0  0  0  0  0  0  0
   21.7608   -6.1014   69.6278 O   0  0  0  0  0  0  0  0  0  0  0  0
   21.1593   -6.8725   68.3738 P   0  0  0  0  0  0  0  0  0  0  0  0
   22.0143   -6.4251   67.2081 O   0  0  0  0  0  0  0  0  0  0  0  0
   19.6827   -6.6965   68.3402 O   0  0  0  0  0  0  0  0  0  0  0  0
   19.3183   -7.1676   67.5746 H   0  0  0  0  0  0  0  0  0  0  0  0
   21.3847   -8.4280   68.7194 O   0  0  0  0  0  0  0  0  0  0  0  0
   20.8564   -9.7704   67.9547 P   0  0  0  0  0  0  0  0  0  0  0  0
   21.4813   -9.7085   66.5569 O   0  0  0  0  0  0  0  0  0  0  0  0
   21.3258  -10.8796   68.8121 O   0  0  0  0  0  0  0  0  0  0  0  0
   19.3928   -9.4710   68.0087 O   0  0  0  0  0  0  0  0  0  0  0  0
   21.0509  -11.7257   68.4255 H   0  0  0  0  0  0  0  0  0  0  0  0
   18.8998  -10.1901   67.5836 H   0  0  0  0  0  0  0  0  0  0  0  0
 29 30  2  0  0  0
 29 31  1  0  0  0
 29 32  1  0  0  0
 29 28  1  0  0  0
 24 25  2  0  0  0
 24 26  1  0  0  0
 24 28  1  0  0  0
 24 23  1  0  0  0
 23 22  1  0  0  0
 22  1  1  0  0  0
  1  2  1  0  0  0
  1  3  1  0  0  0
  2  7  1  0  0  0
  3  4  1  0  0  0
  3  5  1  0  0  0
  5  6  1  0  0  0
  5  7  1  0  0  0
  7 10  1  0  0  0
 10 11  1  0  0  0
 10 19  1  0  0  0
 11 12  2  0  0  0
 12 13  1  0  0  0
 13 14  1  0  0  0
 13 19  2  0  0  0
 14 15  1  0  0  0
 14 16  2  0  0  0
 16 17  1  0  0  0
 17 18  2  0  0  0
 18 19  1  0  0  0
 31 33  1  0  0  0
 32 34  1  0  0  0
 26 27  1  0  0  0
  4  8  1  0  0  0
  6  9  1  0  0  0
 15 20  1  0  0  0
 15 21  1  0  0  0
M  END
> <minimizedAffinity>
-9.95795

$$$$
6FHK_ADP_A_401


 34 36  0  0  0  0  0  0  0  0999 V2000
   21.9907   -5.9677   71.5409 C   0  0  0  0  0  0  0  0  0  0  0  0
   21.2664   -4.7330   71.6193 O   0  0  0  0  0  0  0  0  0  0  0  0
   22.1375   -6.5021   72.9496 C   0  0  0  0  0  0  0  0  0  0  0  0
   23.5073   -6.3196   73.3071 O   0  0  0  0  0  0  0  0  0  0  0  0
   21.2611   -5.5500   73.7328 C   0  0  0  0  0  0  0  0  0  0  0  0
   21.6777   -5.3668   75.0866 O   0  0  0  0  0  0  0  0  0  0  0  0
   21.4095   -4.2574   72.9485 C   0  0  0  0  0  0  0  0  0  0  0  0
   23.7552   -5.3912   73.1746 H   0  0  0  0  0  0  0  0  0  0  0  0
   22.5892   -5.0354   75.1023 H   0  0  0  0  0  0  0  0  0  0  0  0
   20.2866   -3.3450   73.2081 N   0  0  0  0  0  0  0  0  0  0  0  0
   18.9843   -3.6830   73.2834 C   0  0  0  0  0  0  0  0  0  0  0  0
   18.2498   -2.5851   73.5238 N   0  0  0  0  0  0  0  0  0  0  0  0
   19.1062   -1.5363   73.5937 C   0  0  0  0  0  0  0  0  0  0  0  0
   18.9893   -0.0888   73.8493 C   0  0  0  0  0  0  0  0  0  0  0  0
   17.7840    0.4869   74.0744 N   0  0  0  0  0  0  0  0  0  0  0  0
   20.1325    0.6269   73.8075 N   0  0  0  0  0  0  0  0  0  0  0  0
   21.3475    0.0782   73.5981 C   0  0  0  0  0  0  0  0  0  0  0  0
   21.5277   -1.2327   73.3726 N   0  0  0  0  0  0  0  0  0  0  0  0
   20.4420   -2.0393   73.3762 C   0  0  0  0  0  0  0  0  0  0  0  0
   16.9706   -0.0671   74.0980 H   0  0  0  0  0  0  0  0  0  0  0  0
   17.7214    1.4594   74.2143 H   0  0  0  0  0  0  0  0  0  0  0  0
   21.1418   -6.8868   70.7133 C   0  0  0  0  0  0  0  0  0  0  0  0
   21.6291   -6.8150   69.3784 O   0  0  0  0  0  0  0  0  0  0  0  0
   20.9779   -7.8211   68.3330 P   0  0  0  0  0  0  0  0  0  0  0  0
   19.7120   -8.3023   69.0083 O   0  0  0  0  0  0  0  0  0  0  0  0
   22.0039   -8.7929   67.8691 O   0  0  0  0  0  0  0  0  0  0  0  0
   21.6044   -9.4053   67.2317 H   0  0  0  0  0  0  0  0  0  0  0  0
   20.6604   -6.9065   67.0475 O   0  0  0  0  0  0  0  0  0  0  0  0
   21.6102   -5.8575   66.2331 P   0  0  0  0  0  0  0  0  0  0  0  0
   22.9205   -6.6121   65.9842 O   0  0  0  0  0  0  0  0  0  0  0  0
   20.8264   -5.5289   65.0234 O   0  0  0  0  0  0  0  0  0  0  0  0
   21.6807   -4.7934   67.2807 O   0  0  0  0  0  0  0  0  0  0  0  0
   21.3246   -4.9022   64.4757 H   0  0  0  0  0  0  0  0  0  0  0  0
   22.2270   -4.0590   66.9594 H   0  0  0  0  0  0  0  0  0  0  0  0
 29 30  2  0  0  0
 29 31  1  0  0  0
 29 32  1  0  0  0
 29 28  1  0  0  0
 24 25  2  0  0  0
 24 26  1  0  0  0
 24 28  1  0  0  0
 24 23  1  0  0  0
 23 22  1  0  0  0
 22  1  1  0  0  0
  1  2  1  0  0  0
  1  3  1  0  0  0
  2  7  1  0  0  0
  3  4  1  0  0  0
  3  5  1  0  0  0
  5  6  1  0  0  0
  5  7  1  0  0  0
  7 10  1  0  0  0
 10 11  1  0  0  0
 10 19  1  0  0  0
 11 12  2  0  0  0
 12 13  1  0  0  0
 13 14  1  0  0  0
 13 19  2  0  0  0
 14 15  1  0  0  0
 14 16  2  0  0  0
 16 17  1  0  0  0
 17 18  2  0  0  0
 18 19  1  0  0  0
 31 33  1  0  0  0
 32 34  1  0  0  0
 26 27  1  0  0  0
  4  8  1  0  0  0
  6  9  1  0  0  0
 15 20  1  0  0  0
 15 21  1  0  0  0
M  END
> <minimizedAffinity>
-9.80727

$$$$
6FHK_ADP_A_401


 34 36  0  0  0  0  0  0  0  0999 V2000
   21.3958   -4.5567   71.6931 C   0  0  0  0  0  0  0  0  0  0  0  0
   20.4332   -3.5188   71.9203 O   0  0  0  0  0  0  0  0  0  0  0  0
   21.8055   -5.1040   73.0438 C   0  0  0  0  0  0  0  0  0  0  0  0
   23.1332   -4.6362   73.2801 O   0  0  0  0  0  0  0  0  0  0  0  0
   20.8324   -4.4049   73.9671 C   0  0  0  0  0  0  0  0  0  0  0  0
   21.3422   -4.1908   75.2840 O   0  0  0  0  0  0  0  0  0  0  0  0
   20.6114   -3.0799   73.2577 C   0  0  0  0  0  0  0  0  0  0  0  0
   23.1578   -3.6712   73.1850 H   0  0  0  0  0  0  0  0  0  0  0  0
   22.1562   -3.6657   75.2342 H   0  0  0  0  0  0  0  0  0  0  0  0
   19.3517   -2.4523   73.6819 N   0  0  0  0  0  0  0  0  0  0  0  0
   18.2255   -3.0931   74.0520 C   0  0  0  0  0  0  0  0  0  0  0  0
   17.2794   -2.1926   74.3630 N   0  0  0  0  0  0  0  0  0  0  0  0
   17.8191   -0.9627   74.1778 C   0  0  0  0  0  0  0  0  0  0  0  0
   17.3653    0.4297   74.3496 C   0  0  0  0  0  0  0  0  0  0  0  0
   16.1121    0.7091   74.7811 N   0  0  0  0  0  0  0  0  0  0  0  0
   18.2454    1.3976   74.0189 N   0  0  0  0  0  0  0  0  0  0  0  0
   19.5034    1.1486   73.5988 C   0  0  0  0  0  0  0  0  0  0  0  0
   19.9857   -0.0932   73.4336 N   0  0  0  0  0  0  0  0  0  0  0  0
   19.1775   -1.1387   73.7213 C   0  0  0  0  0  0  0  0  0  0  0  0
   15.4968   -0.0235   75.0136 H   0  0  0  0  0  0  0  0  0  0  0  0
   15.8165    1.6446   74.8622 H   0  0  0  0  0  0  0  0  0  0  0  0
   20.6830   -5.6060   70.8925 C   0  0  0  0  0  0  0  0  0  0  0  0
   20.0296   -4.9388   69.8190 O   0  0  0  0  0  0  0  0  0  0  0  0
   20.2971   -5.5148   68.3610 P   0  0  0  0  0  0  0  0  0  0  0  0
   21.7964   -5.4127   68.1826 O   0  0  0  0  0  0  0  0  0  0  0  0
   19.3742   -4.8673   67.3908 O   0  0  0  0  0  0  0  0  0  0  0  0
   19.5393   -5.2203   66.5025 H   0  0  0  0  0  0  0  0  0  0  0  0
   19.8067   -7.0453   68.4433 O   0  0  0  0  0  0  0  0  0  0  0  0
   20.4080   -8.3897   67.7385 P   0  0  0  0  0  0  0  0  0  0  0  0
   20.0241   -8.2738   66.2595 O   0  0  0  0  0  0  0  0  0  0  0  0
   21.8569   -8.3278   68.0257 O   0  0  0  0  0  0  0  0  0  0  0  0
   19.6247   -9.3951   68.5198 O   0  0  0  0  0  0  0  0  0  0  0  0
   22.2968   -9.1000   67.6371 H   0  0  0  0  0  0  0  0  0  0  0  0
   19.8606  -10.2887   68.2251 H   0  0  0  0  0  0  0  0  0  0  0  0
 29 30  2  0  0  0
 29 31  1  0  0  0
 29 32  1  0  0  0
 29 28  1  0  0  0
 24 25  2  0  0  0
 24 26  1  0  0  0
 24 28  1  0  0  0
 24 23  1  0  0  0
 23 22  1  0  0  0
 22  1  1  0  0  0
  1  2  1  0  0  0
  1  3  1  0  0  0
  2  7  1  0  0  0
  3  4  1  0  0  0
  3  5  1  0  0  0
  5  6  1  0  0  0
  5  7  1  0  0  0
  7 10  1  0  0  0
 10 11  1  0  0  0
 10 19  1  0  0  0
 11 12  2  0  0  0
 12 13  1  0  0  0
 13 14  1  0  0  0
 13 19  2  0  0  0
 14 15  1  0  0  0
 14 16  2  0  0  0
 16 17  1  0  0  0
 17 18  2  0  0  0
 18 19  1  0  0  0
 31 33  1  0  0  0
 32 34  1  0  0  0
 26 27  1  0  0  0
  4  8  1  0  0  0
  6  9  1  0  0  0
 15 20  1  0  0  0
 15 21  1  0  0  0
M  END
> <minimizedAffinity>
-9.66514

$$$$
6FHK_ADP_A_401


 34 36  0  0  0  0  0  0  0  0999 V2000
   20.6345   -5.8353   71.2283 C   0  0  0  0  0  0  0  0  0  0  0  0
   21.5585   -5.8997   72.3227 O   0  0  0  0  0  0  0  0  0  0  0  0
   20.3951   -4.3733   70.9174 C   0  0  0  0  0  0  0  0  0  0  0  0
   19.0754   -4.0771   71.3739 O   0  0  0  0  0  0  0  0  0  0  0  0
   21.4187   -3.6986   71.8034 C   0  0  0  0  0  0  0  0  0  0  0  0
   21.0358   -2.3910   72.2318 O   0  0  0  0  0  0  0  0  0  0  0  0
   21.4949   -4.6476   72.9872 C   0  0  0  0  0  0  0  0  0  0  0  0
   18.9897   -4.3354   72.3050 H   0  0  0  0  0  0  0  0  0  0  0  0
   20.1940   -2.4414   72.7111 H   0  0  0  0  0  0  0  0  0  0  0  0
   22.7562   -4.4805   73.7235 N   0  0  0  0  0  0  0  0  0  0  0  0
   23.6468   -5.4498   74.0117 C   0  0  0  0  0  0  0  0  0  0  0  0
   24.6707   -4.9257   74.7042 N   0  0  0  0  0  0  0  0  0  0  0  0
   24.4149   -3.6035   74.8604 C   0  0  0  0  0  0  0  0  0  0  0  0
   25.1064   -2.4567   75.4778 C   0  0  0  0  0  0  0  0  0  0  0  0
   26.3020   -2.6106   76.0958 N   0  0  0  0  0  0  0  0  0  0  0  0
   24.4698   -1.2681   75.4272 N   0  0  0  0  0  0  0  0  0  0  0  0
   23.2852   -1.0834   74.8078 C   0  0  0  0  0  0  0  0  0  0  0  0
   22.6084   -2.0792   74.2142 N   0  0  0  0  0  0  0  0  0  0  0  0
   23.1515   -3.3178   74.2226 C   0  0  0  0  0  0  0  0  0  0  0  0
   26.7373   -3.4935   76.1127 H   0  0  0  0  0  0  0  0  0  0  0  0
   26.7355   -1.8396   76.5280 H   0  0  0  0  0  0  0  0  0  0  0  0
   21.3167   -6.5148   70.0780 C   0  0  0  0  0  0  0  0  0  0  0  0
   20.5778   -7.6973   69.7949 O   0  0  0  0  0  0  0  0  0  0  0  0
   20.6220   -8.2159   68.2922 P   0  0  0  0  0  0  0  0  0  0  0  0
   19.4263   -9.1359   68.1736 O   0  0  0  0  0  0  0  0  0  0  0  0
   21.9890   -8.7075   67.9732 O   0  0  0  0  0  0  0  0  0  0  0  0
   22.0134   -9.0231   67.0563 H   0  0  0  0  0  0  0  0  0  0  0  0
   20.4425   -6.8835   67.4077 O   0  0  0  0  0  0  0  0  0  0  0  0
   21.5352   -6.0277   66.5478 P   0  0  0  0  0  0  0  0  0  0  0  0
   22.7507   -6.9507   66.4111 O   0  0  0  0  0  0  0  0  0  0  0  0
   20.8315   -5.7125   65.2864 O   0  0  0  0  0  0  0  0  0  0  0  0
   21.7047   -4.8942   67.5077 O   0  0  0  0  0  0  0  0  0  0  0  0
   21.4173   -5.1981   64.7092 H   0  0  0  0  0  0  0  0  0  0  0  0
   22.3449   -4.2598   67.1491 H   0  0  0  0  0  0  0  0  0  0  0  0
 29 30  2  0  0  0
 29 31  1  0  0  0
 29 32  1  0  0  0
 29 28  1  0  0  0
 24 25  2  0  0  0
 24 26  1  0  0  0
 24 28  1  0  0  0
 24 23  1  0  0  0
 23 22  1  0  0  0
 22  1  1  0  0  0
  1  2  1  0  0  0
  1  3  1  0  0  0
  2  7  1  0  0  0
  3  4  1  0  0  0
  3  5  1  0  0  0
  5  6  1  0  0  0
  5  7  1  0  0  0
  7 10  1  0  0  0
 10 11  1  0  0  0
 10 19  1  0  0  0
 11 12  2  0  0  0
 12 13  1  0  0  0
 13 14  1  0  0  0
 13 19  2  0  0  0
 14 15  1  0  0  0
 14 16  2  0  0  0
 16 17  1  0  0  0
 17 18  2  0  0  0
 18 19  1  0  0  0
 31 33  1  0  0  0
 32 34  1  0  0  0
 26 27  1  0  0  0
  4  8  1  0  0  0
  6  9  1  0  0  0
 15 20  1  0  0  0
 15 21  1  0  0  0
M  END
> <minimizedAffinity>
-9.57903

$$$$
6FHK_ADP_A_401


 34 36  0  0  0  0  0  0  0  0999 V2000
   20.3138   -3.2063   73.1651 C   0  0  0  0  0  0  0  0  0  0  0  0
   20.8765   -1.9158   73.4358 O   0  0  0  0  0  0  0  0  0  0  0  0
   21.3656   -4.2429   73.4981 C   0  0  0  0  0  0  0  0  0  0  0  0
   21.8314   -4.7567   72.2504 O   0  0  0  0  0  0  0  0  0  0  0  0
   22.4373   -3.3960   74.1480 C   0  0  0  0  0  0  0  0  0  0  0  0
   23.7582   -3.9134   73.9820 O   0  0  0  0  0  0  0  0  0  0  0  0
   22.2867   -2.0717   73.4190 C   0  0  0  0  0  0  0  0  0  0  0  0
   22.1191   -4.0225   71.6855 H   0  0  0  0  0  0  0  0  0  0  0  0
   23.9569   -3.9952   73.0361 H   0  0  0  0  0  0  0  0  0  0  0  0
   22.8568   -0.9654   74.2013 N   0  0  0  0  0  0  0  0  0  0  0  0
   24.0795   -0.9346   74.7669 C   0  0  0  0  0  0  0  0  0  0  0  0
   24.2467    0.2327   75.4089 N   0  0  0  0  0  0  0  0  0  0  0  0
   23.1046    0.9458   75.2497 C   0  0  0  0  0  0  0  0  0  0  0  0
   22.6238    2.2796   75.6548 C   0  0  0  0  0  0  0  0  0  0  0  0
   23.4026    3.1115   76.3871 N   0  0  0  0  0  0  0  0  0  0  0  0
   21.3651    2.6043   75.2928 N   0  0  0  0  0  0  0  0  0  0  0  0
   20.5721    1.8009   74.5533 C   0  0  0  0  0  0  0  0  0  0  0  0
   20.9508    0.5814   74.1394 N   0  0  0  0  0  0  0  0  0  0  0  0
   22.1912    0.1506   74.4637 C   0  0  0  0  0  0  0  0  0  0  0  0
   24.3167    2.8410   76.6328 H   0  0  0  0  0  0  0  0  0  0  0  0
   23.0545    3.9868   76.6735 H   0  0  0  0  0  0  0  0  0  0  0  0
   19.1342   -3.3376   74.0824 C   0  0  0  0  0  0  0  0  0  0  0  0
   18.1191   -2.4753   73.5818 O   0  0  0  0  0  0  0  0  0  0  0  0
   17.0445   -1.9619   74.6358 P   0  0  0  0  0  0  0  0  0  0  0  0
   17.5340   -2.4935   75.9654 O   0  0  0  0  0  0  0  0  0  0  0  0
   15.6757   -2.2830   74.1506 O   0  0  0  0  0  0  0  0  0  0  0  0
   15.0222   -1.9689   74.7950 H   0  0  0  0  0  0  0  0  0  0  0  0
   17.1475   -0.3578   74.5576 O   0  0  0  0  0  0  0  0  0  0  0  0
   17.0621    0.6479   73.2742 P   0  0  0  0  0  0  0  0  0  0  0  0
   15.7779    0.2514   72.5381 O   0  0  0  0  0  0  0  0  0  0  0  0
   17.0585    1.9981   73.8763 O   0  0  0  0  0  0  0  0  0  0  0  0
   18.3315    0.2294   72.6046 O   0  0  0  0  0  0  0  0  0  0  0  0
   17.0089    2.6652   73.1739 H   0  0  0  0  0  0  0  0  0  0  0  0
   18.4517    0.7423   71.7902 H   0  0  0  0  0  0  0  0  0  0  0  0
 29 30  2  0  0  0
 29 31  1  0  0  0
 29 32  1  0  0  0
 29 28  1  0  0  0
 24 25  2  0  0  0
 24 26  1  0  0  0
 24 28  1  0  0  0
 24 23  1  0  0  0
 23 22  1  0  0  0
 22  1  1  0  0  0
  1  2  1  0  0  0
  1  3  1  0  0  0
  2  7  1  0  0  0
  3  4  1  0  0  0
  3  5  1  0  0  0
  5  6  1  0  0  0
  5  7  1  0  0  0
  7 10  1  0  0  0
 10 11  1  0  0  0
 10 19  1  0  0  0
 11 12  2  0  0  0
 12 13  1  0  0  0
 13 14  1  0  0  0
 13 19  2  0  0  0
 14 15  1  0  0  0
 14 16  2  0  0  0
 16 17  1  0  0  0
 17 18  2  0  0  0
 18 19  1  0  0  0
 31 33  1  0  0  0
 32 34  1  0  0  0
 26 27  1  0  0  0
  4  8  1  0  0  0
  6  9  1  0  0  0
 15 20  1  0  0  0
 15 21  1  0  0  0
M  END
> <minimizedAffinity>
-9.44156

$$$$
6FHK_ADP_A_401


 34 36  0  0  0  0  0  0  0  0999 V2000
   20.6037   -4.7693   72.0876 C   0  0  0  0  0  0  0  0  0  0  0  0
   21.6930   -4.3616   72.9257 O   0  0  0  0  0  0  0  0  0  0  0  0
   19.6893   -3.5756   71.9131 C   0  0  0  0  0  0  0  0  0  0  0  0
   18.5201   -3.8499   72.6846 O   0  0  0  0  0  0  0  0  0  0  0  0
   20.4965   -2.4724   72.5607 C   0  0  0  0  0  0  0  0  0  0  0  0
   19.6980   -1.4341   73.1301 O   0  0  0  0  0  0  0  0  0  0  0  0
   21.2520   -3.2211   73.6454 C   0  0  0  0  0  0  0  0  0  0  0  0
   18.7763   -4.0620   73.5958 H   0  0  0  0  0  0  0  0  0  0  0  0
   19.1000   -1.8129   73.7933 H   0  0  0  0  0  0  0  0  0  0  0  0
   22.4505   -2.4815   74.0670 N   0  0  0  0  0  0  0  0  0  0  0  0
   22.5934   -1.1419   74.0944 C   0  0  0  0  0  0  0  0  0  0  0  0
   23.8266   -0.8318   74.5255 N   0  0  0  0  0  0  0  0  0  0  0  0
   24.4732   -1.9989   74.7664 C   0  0  0  0  0  0  0  0  0  0  0  0
   25.8043   -2.3884   75.2670 C   0  0  0  0  0  0  0  0  0  0  0  0
   26.7283   -1.4546   75.5976 N   0  0  0  0  0  0  0  0  0  0  0  0
   26.0602   -3.7113   75.3385 N   0  0  0  0  0  0  0  0  0  0  0  0
   25.1551   -4.6628   75.0279 C   0  0  0  0  0  0  0  0  0  0  0  0
   23.9219   -4.3792   74.5799 N   0  0  0  0  0  0  0  0  0  0  0  0
   23.5681   -3.0798   74.4546 C   0  0  0  0  0  0  0  0  0  0  0  0
   26.5060   -0.4977   75.5330 H   0  0  0  0  0  0  0  0  0  0  0  0
   27.6221   -1.7328   75.9024 H   0  0  0  0  0  0  0  0  0  0  0  0
   21.2209   -5.1577   70.7767 C   0  0  0  0  0  0  0  0  0  0  0  0
   20.6307   -6.3925   70.3877 O   0  0  0  0  0  0  0  0  0  0  0  0
   20.8961   -6.8629   68.8919 P   0  0  0  0  0  0  0  0  0  0  0  0
   22.1118   -6.0738   68.4567 O   0  0  0  0  0  0  0  0  0  0  0  0
   19.6304   -6.7924   68.1139 O   0  0  0  0  0  0  0  0  0  0  0  0
   19.7949   -7.0798   67.2022 H   0  0  0  0  0  0  0  0  0  0  0  0
   21.2172   -8.4345   69.0217 O   0  0  0  0  0  0  0  0  0  0  0  0
   20.8341   -9.6789   68.0365 P   0  0  0  0  0  0  0  0  0  0  0  0
   21.5384   -9.3726   66.7104 O   0  0  0  0  0  0  0  0  0  0  0  0
   21.3272  -10.8718   68.7572 O   0  0  0  0  0  0  0  0  0  0  0  0
   19.3524   -9.4811   68.0278 O   0  0  0  0  0  0  0  0  0  0  0  0
   21.1376  -11.6666   68.2345 H   0  0  0  0  0  0  0  0  0  0  0  0
   18.9391  -10.1582   67.4697 H   0  0  0  0  0  0  0  0  0  0  0  0
 29 30  2  0  0  0
 29 31  1  0  0  0
 29 32  1  0  0  0
 29 28  1  0  0  0
 24 25  2  0  0  0
 24 26  1  0  0  0
 24 28  1  0  0  0
 24 23  1  0  0  0
 23 22  1  0  0  0
 22  1  1  0  0  0
  1  2  1  0  0  0
  1  3  1  0  0  0
  2  7  1  0  0  0
  3  4  1  0  0  0
  3  5  1  0  0  0
  5  6  1  0  0  0
  5  7  1  0  0  0
  7 10  1  0  0  0
 10 11  1  0  0  0
 10 19  1  0  0  0
 11 12  2  0  0  0
 12 13  1  0  0  0
 13 14  1  0  0  0
 13 19  2  0  0  0
 14 15  1  0  0  0
 14 16  2  0  0  0
 16 17  1  0  0  0
 17 18  2  0  0  0
 18 19  1  0  0  0
 31 33  1  0  0  0
 32 34  1  0  0  0
 26 27  1  0  0  0
  4  8  1  0  0  0
  6  9  1  0  0  0
 15 20  1  0  0  0
 15 21  1  0  0  0
M  END
> <minimizedAffinity>
-9.31991

$$$$
