1XH9_R69_A_351


 41 44  0  0  0  0  0  0  0  0999 V2000
   10.8948   40.2598   13.3596 N   0  0  0  0  0  0  0  0  0  0  0  0
   12.1037   40.1541   14.0218 C   0  0  0  0  0  0  0  0  0  0  0  0
   12.8879   41.0934   13.9760 O   0  0  0  0  0  0  0  0  0  0  0  0
   10.3414   39.4533   13.2474 H   0  0  0  0  0  0  0  0  0  0  0  0
    9.3513   41.2265   11.7078 C   0  0  0  0  0  0  0  0  0  0  0  0
    7.9226   41.7794   11.8508 C   0  0  0  0  0  0  0  0  0  0  0  0
    7.2708   41.2269   13.0902 N   0  0  0  0  0  0  0  0  0  0  0  0
    7.4990   42.0891   14.3339 C   0  0  0  0  0  0  0  0  0  0  0  0
    8.9156   41.9693   14.8977 C   0  0  0  0  0  0  0  0  0  0  0  0
    9.9716   42.5245   13.9286 C   0  0  0  0  0  0  0  0  0  0  0  0
   10.4053   41.5452   12.8138 C   0  0  0  0  0  0  0  0  0  0  0  0
    7.6503   40.2969   13.2677 H   0  0  0  0  0  0  0  0  0  0  0  0
   10.0897   39.6576    9.5218 O   0  0  0  0  0  0  0  0  0  0  0  0
   10.0952   40.8909    9.3419 C   0  0  0  0  0  0  0  0  0  0  0  0
    9.8965   41.7221   10.4365 N   0  0  0  0  0  0  0  0  0  0  0  0
   10.1288   42.6755   10.3580 H   0  0  0  0  0  0  0  0  0  0  0  0
   10.2480   41.4891    8.0085 C   0  0  0  0  0  0  0  0  0  0  0  0
    9.8242   40.7972    6.8720 C   0  0  0  0  0  0  0  0  0  0  0  0
    9.9367   41.3459    5.5974 C   0  0  0  0  0  0  0  0  0  0  0  0
   10.4603   42.5527    5.4173 N   0  0  0  0  0  0  0  0  0  0  0  0
   10.8872   43.2368    6.4882 C   0  0  0  0  0  0  0  0  0  0  0  0
   10.7982   42.7572    7.7930 C   0  0  0  0  0  0  0  0  0  0  0  0
   12.4094   38.9602   14.8355 C   0  0  0  0  0  0  0  0  0  0  0  0
   13.7507   38.5907   15.0881 C   0  0  0  0  0  0  0  0  0  0  0  0
   14.0444   37.4961   15.8883 C   0  0  0  0  0  0  0  0  0  0  0  0
   11.3895   38.2110   15.4129 C   0  0  0  0  0  0  0  0  0  0  0  0
   11.6916   37.1170   16.2075 C   0  0  0  0  0  0  0  0  0  0  0  0
   13.0049   36.7395   16.4585 C   0  0  0  0  0  0  0  0  0  0  0  0
   13.3130   35.6217   17.3459 C   0  0  0  0  0  0  0  0  0  0  0  0
   14.2788   35.7798   18.1281 O   0  0  0  0  0  0  0  0  0  0  0  0
   12.5809   34.3931   17.4508 C   0  0  0  0  0  0  0  0  0  0  0  0
   12.5578   33.4575   16.3797 C   0  0  0  0  0  0  0  0  0  0  0  0
   13.1612   33.6846   15.2551 O   0  0  0  0  0  0  0  0  0  0  0  0
   11.8314   32.2510   16.5710 C   0  0  0  0  0  0  0  0  0  0  0  0
   11.1735   32.0118   17.7576 C   0  0  0  0  0  0  0  0  0  0  0  0
   11.9095   34.1383   18.6646 C   0  0  0  0  0  0  0  0  0  0  0  0
   11.2095   32.9479   18.8209 C   0  0  0  0  0  0  0  0  0  0  0  0
   13.6392   34.4811   15.1324 H   0  0  0  0  0  0  0  0  0  0  0  0
   10.5051   32.6828   20.0251 N   0  0  0  0  0  0  0  0  0  0  0  0
   10.8775   33.4550   21.2258 C   0  0  0  0  0  0  0  0  0  0  0  0
   10.2544   31.2521   20.2830 C   0  0  0  0  0  0  0  0  0  0  0  0
 13 14  2  0  0  0
 14 17  1  0  0  0
 14 15  1  0  0  0
 17 18  2  0  0  0
 17 22  1  0  0  0
 18 19  1  0  0  0
 19 20  2  0  0  0
 20 21  1  0  0  0
 21 22  2  0  0  0
 15  5  1  0  0  0
  5  6  1  0  0  0
  5 11  1  0  0  0
  6  7  1  0  0  0
  7  8  1  0  0  0
  8  9  1  0  0  0
  9 10  1  0  0  0
 10 11  1  0  0  0
 11  1  1  0  0  0
  1  2  1  0  0  0
  2  3  2  0  0  0
  2 23  1  0  0  0
 23 24  2  0  0  0
 23 26  1  0  0  0
 24 25  1  0  0  0
 25 28  2  0  0  0
 26 27  2  0  0  0
 27 28  1  0  0  0
 28 29  1  0  0  0
 29 30  2  0  0  0
 29 31  1  0  0  0
 31 32  2  0  0  0
 31 36  1  0  0  0
 32 33  1  0  0  0
 32 34  1  0  0  0
 34 35  2  0  0  0
 35 37  1  0  0  0
 36 37  2  0  0  0
 37 39  1  0  0  0
 39 40  1  0  0  0
 39 41  1  0  0  0
 15 16  1  0  0  0
  7 12  1  0  0  0
  1  4  1  0  0  0
 33 38  1  0  0  0
M  END
> <minimizedAffinity>
-13.62246

$$$$
