1YQY_915_A_782


 26 27  0  0  0  0  0  0  0  0999 V2000
   10.5473   17.8947   26.3482 N   0  0  0  0  0  0  0  0  0  0  0  0
   10.2824   17.1627   25.6891 H   0  0  0  0  0  0  0  0  0  0  0  0
    9.5266   19.2584   26.0317 S   0  0  0  0  0  0  0  0  0  0  0  0
   10.4157   20.0778   25.2819 O   0  0  0  0  0  0  0  0  0  0  0  0
    8.2813   18.7524   25.4784 O   0  0  0  0  0  0  0  0  0  0  0  0
    9.1773   20.0425   27.5774 C   0  0  0  0  0  0  0  0  0  0  0  0
    8.2464   19.4310   28.4760 C   0  0  0  0  0  0  0  0  0  0  0  0
    7.9172   20.0907   29.6876 C   0  0  0  0  0  0  0  0  0  0  0  0
    8.5433   21.3339   29.9552 C   0  0  0  0  0  0  0  0  0  0  0  0
    9.5155   21.9297   29.0779 C   0  0  0  0  0  0  0  0  0  0  0  0
    9.8103   21.2796   27.8872 C   0  0  0  0  0  0  0  0  0  0  0  0
    8.2210   21.9980   31.0771 F   0  0  0  0  0  0  0  0  0  0  0  0
    6.8987   19.5063   30.6304 C   0  0  0  0  0  0  0  0  0  0  0  0
   12.0004   18.0608   26.2463 C   0  0  0  0  0  0  0  0  0  0  0  0
   12.6697   18.4008   27.5948 C   0  0  0  0  0  0  0  0  0  0  0  0
   13.8762   19.0301   27.4857 N   0  0  0  0  0  0  0  0  0  0  0  0
   14.5596   19.3605   28.6458 O   0  0  0  0  0  0  0  0  0  0  0  0
   12.1995   18.1281   28.6625 O   0  0  0  0  0  0  0  0  0  0  0  0
   14.2530   19.2447   26.6019 H   0  0  0  0  0  0  0  0  0  0  0  0
   14.0441   19.0762   29.4168 H   0  0  0  0  0  0  0  0  0  0  0  0
   12.7602   16.8341   25.7053 C   0  0  0  0  0  0  0  0  0  0  0  0
   13.1650   15.7423   26.7545 C   0  0  0  0  0  0  0  0  0  0  0  0
   13.9112   14.5474   26.1723 C   0  0  0  0  0  0  0  0  0  0  0  0
   13.1479   13.9788   25.1272 O   0  0  0  0  0  0  0  0  0  0  0  0
   12.8423   14.8745   24.0367 C   0  0  0  0  0  0  0  0  0  0  0  0
   12.0497   16.0910   24.5487 C   0  0  0  0  0  0  0  0  0  0  0  0
  6  7  2  0  0  0
  6 11  1  0  0  0
  6  3  1  0  0  0
  7  8  1  0  0  0
  8  9  2  0  0  0
  8 13  1  0  0  0
  9 10  1  0  0  0
  9 12  1  0  0  0
 10 11  2  0  0  0
  3  1  1  0  0  0
  3  4  2  0  0  0
  3  5  2  0  0  0
  1 14  1  0  0  0
 14 15  1  0  0  0
 14 21  1  0  0  0
 15 16  1  0  0  0
 15 18  2  0  0  0
 16 17  1  0  0  0
 21 22  1  0  0  0
 21 26  1  0  0  0
 22 23  1  0  0  0
 23 24  1  0  0  0
 24 25  1  0  0  0
 25 26  1  0  0  0
  1  2  1  0  0  0
 16 19  1  0  0  0
 17 20  1  0  0  0
M  END
> <minimizedAffinity>
-10.14142

$$$$
1YQY_915_A_782


 26 27  0  0  0  0  0  0  0  0999 V2000
   10.5854   17.6136   26.1684 N   0  0  0  0  0  0  0  0  0  0  0  0
   10.3986   16.8607   25.5061 H   0  0  0  0  0  0  0  0  0  0  0  0
    9.4914   18.9039   25.7941 S   0  0  0  0  0  0  0  0  0  0  0  0
   10.3874   19.8395   25.2059 O   0  0  0  0  0  0  0  0  0  0  0  0
    8.3743   18.3304   25.0619 O   0  0  0  0  0  0  0  0  0  0  0  0
    8.8860   19.5593   27.3206 C   0  0  0  0  0  0  0  0  0  0  0  0
    9.3890   20.8140   27.7901 C   0  0  0  0  0  0  0  0  0  0  0  0
    8.9519   21.3101   29.0449 C   0  0  0  0  0  0  0  0  0  0  0  0
    8.0187   20.5323   29.7750 C   0  0  0  0  0  0  0  0  0  0  0  0
    7.4738   19.2939   29.2859 C   0  0  0  0  0  0  0  0  0  0  0  0
    7.9283   18.8139   28.0651 C   0  0  0  0  0  0  0  0  0  0  0  0
    7.6171   20.9600   30.9831 F   0  0  0  0  0  0  0  0  0  0  0  0
    9.5026   22.5979   29.5980 C   0  0  0  0  0  0  0  0  0  0  0  0
   12.0274   17.8754   26.1276 C   0  0  0  0  0  0  0  0  0  0  0  0
   12.6007   18.3350   27.4848 C   0  0  0  0  0  0  0  0  0  0  0  0
   13.8167   18.9503   27.4069 N   0  0  0  0  0  0  0  0  0  0  0  0
   14.4176   19.3833   28.5788 O   0  0  0  0  0  0  0  0  0  0  0  0
   12.0530   18.1604   28.5359 O   0  0  0  0  0  0  0  0  0  0  0  0
   14.2577   19.0838   26.5369 H   0  0  0  0  0  0  0  0  0  0  0  0
   13.8459   19.1705   29.3330 H   0  0  0  0  0  0  0  0  0  0  0  0
   12.8953   16.6771   25.6965 C   0  0  0  0  0  0  0  0  0  0  0  0
   13.2594   15.6386   26.8126 C   0  0  0  0  0  0  0  0  0  0  0  0
   14.1158   14.4703   26.3383 C   0  0  0  0  0  0  0  0  0  0  0  0
   13.4805   13.8321   25.2487 O   0  0  0  0  0  0  0  0  0  0  0  0
   13.2289   14.6791   24.1067 C   0  0  0  0  0  0  0  0  0  0  0  0
   12.3316   15.8646   24.5063 C   0  0  0  0  0  0  0  0  0  0  0  0
  6  7  2  0  0  0
  6 11  1  0  0  0
  6  3  1  0  0  0
  7  8  1  0  0  0
  8  9  2  0  0  0
  8 13  1  0  0  0
  9 10  1  0  0  0
  9 12  1  0  0  0
 10 11  2  0  0  0
  3  1  1  0  0  0
  3  4  2  0  0  0
  3  5  2  0  0  0
  1 14  1  0  0  0
 14 15  1  0  0  0
 14 21  1  0  0  0
 15 16  1  0  0  0
 15 18  2  0  0  0
 16 17  1  0  0  0
 21 22  1  0  0  0
 21 26  1  0  0  0
 22 23  1  0  0  0
 23 24  1  0  0  0
 24 25  1  0  0  0
 25 26  1  0  0  0
  1  2  1  0  0  0
 16 19  1  0  0  0
 17 20  1  0  0  0
M  END
> <minimizedAffinity>
-9.65636

$$$$
1YQY_915_A_782


 26 27  0  0  0  0  0  0  0  0999 V2000
   11.8574   18.9164   26.2692 N   0  0  0  0  0  0  0  0  0  0  0  0
   12.1639   19.5311   27.0234 H   0  0  0  0  0  0  0  0  0  0  0  0
   10.1253   18.8952   26.3018 S   0  0  0  0  0  0  0  0  0  0  0  0
    9.8358   19.6216   25.1133 O   0  0  0  0  0  0  0  0  0  0  0  0
    9.7092   17.5154   26.4912 O   0  0  0  0  0  0  0  0  0  0  0  0
    9.5994   19.8382   27.7020 C   0  0  0  0  0  0  0  0  0  0  0  0
    8.6245   19.2839   28.5909 C   0  0  0  0  0  0  0  0  0  0  0  0
    8.1548   20.0642   29.6782 C   0  0  0  0  0  0  0  0  0  0  0  0
    8.6898   21.3671   29.8371 C   0  0  0  0  0  0  0  0  0  0  0  0
    9.7047   21.9110   28.9747 C   0  0  0  0  0  0  0  0  0  0  0  0
   10.1378   21.1406   27.9040 C   0  0  0  0  0  0  0  0  0  0  0  0
    8.2349   22.1413   30.8357 F   0  0  0  0  0  0  0  0  0  0  0  0
    7.0874   19.5366   30.6002 C   0  0  0  0  0  0  0  0  0  0  0  0
   12.5826   17.6515   26.4229 C   0  0  0  0  0  0  0  0  0  0  0  0
   12.7115   16.8602   25.1040 C   0  0  0  0  0  0  0  0  0  0  0  0
   11.7976   15.8574   24.9535 N   0  0  0  0  0  0  0  0  0  0  0  0
   11.8468   15.0817   23.8056 O   0  0  0  0  0  0  0  0  0  0  0  0
   13.5479   17.0756   24.2738 O   0  0  0  0  0  0  0  0  0  0  0  0
   11.1180   15.6886   25.6455 H   0  0  0  0  0  0  0  0  0  0  0  0
   12.5733   15.3870   23.2399 H   0  0  0  0  0  0  0  0  0  0  0  0
   14.0184   17.7854   26.9667 C   0  0  0  0  0  0  0  0  0  0  0  0
   14.2537   18.8842   28.0594 C   0  0  0  0  0  0  0  0  0  0  0  0
   15.6874   18.9769   28.5686 C   0  0  0  0  0  0  0  0  0  0  0  0
   16.1048   17.7095   29.0351 O   0  0  0  0  0  0  0  0  0  0  0  0
   16.0592   16.6518   28.0532 C   0  0  0  0  0  0  0  0  0  0  0  0
   14.6248   16.4748   27.5226 C   0  0  0  0  0  0  0  0  0  0  0  0
  6  7  2  0  0  0
  6 11  1  0  0  0
  6  3  1  0  0  0
  7  8  1  0  0  0
  8  9  2  0  0  0
  8 13  1  0  0  0
  9 10  1  0  0  0
  9 12  1  0  0  0
 10 11  2  0  0  0
  3  1  1  0  0  0
  3  4  2  0  0  0
  3  5  2  0  0  0
  1 14  1  0  0  0
 14 15  1  0  0  0
 14 21  1  0  0  0
 15 16  1  0  0  0
 15 18  2  0  0  0
 16 17  1  0  0  0
 21 22  1  0  0  0
 21 26  1  0  0  0
 22 23  1  0  0  0
 23 24  1  0  0  0
 24 25  1  0  0  0
 25 26  1  0  0  0
  1  2  1  0  0  0
 16 19  1  0  0  0
 17 20  1  0  0  0
M  END
> <minimizedAffinity>
-9.36830

$$$$
1YQY_915_A_782


 26 27  0  0  0  0  0  0  0  0999 V2000
   11.5736   17.9389   27.2970 N   0  0  0  0  0  0  0  0  0  0  0  0
   12.0085   18.5737   27.9667 H   0  0  0  0  0  0  0  0  0  0  0  0
   12.8546   17.1397   26.4473 S   0  0  0  0  0  0  0  0  0  0  0  0
   12.4748   15.7805   26.6267 O   0  0  0  0  0  0  0  0  0  0  0  0
   12.9554   17.7524   25.1330 O   0  0  0  0  0  0  0  0  0  0  0  0
   14.3585   17.4440   27.3261 C   0  0  0  0  0  0  0  0  0  0  0  0
   15.3107   16.3852   27.4680 C   0  0  0  0  0  0  0  0  0  0  0  0
   16.4879   16.6089   28.2268 C   0  0  0  0  0  0  0  0  0  0  0  0
   16.6687   17.8904   28.8049 C   0  0  0  0  0  0  0  0  0  0  0  0
   15.7378   18.9725   28.6254 C   0  0  0  0  0  0  0  0  0  0  0  0
   14.5816   18.7292   27.8965 C   0  0  0  0  0  0  0  0  0  0  0  0
   17.7560   18.1176   29.5597 F   0  0  0  0  0  0  0  0  0  0  0  0
   17.4845   15.5016   28.4464 C   0  0  0  0  0  0  0  0  0  0  0  0
   10.5987   18.7221   26.5316 C   0  0  0  0  0  0  0  0  0  0  0  0
    9.5765   17.8481   25.7745 C   0  0  0  0  0  0  0  0  0  0  0  0
    8.9070   18.4955   24.7765 N   0  0  0  0  0  0  0  0  0  0  0  0
    7.9563   17.7937   24.0514 O   0  0  0  0  0  0  0  0  0  0  0  0
    9.3559   16.6997   26.0345 O   0  0  0  0  0  0  0  0  0  0  0  0
    9.0952   19.4408   24.5758 H   0  0  0  0  0  0  0  0  0  0  0  0
    7.9036   16.8837   24.3831 H   0  0  0  0  0  0  0  0  0  0  0  0
    9.7605   19.7118   27.3639 C   0  0  0  0  0  0  0  0  0  0  0  0
    9.6045   19.3875   28.8894 C   0  0  0  0  0  0  0  0  0  0  0  0
    8.7703   20.3956   29.6712 C   0  0  0  0  0  0  0  0  0  0  0  0
    9.3030   21.6919   29.4869 O   0  0  0  0  0  0  0  0  0  0  0  0
    9.3562   22.1412   28.1157 C   0  0  0  0  0  0  0  0  0  0  0  0
   10.2206   21.1864   27.2722 C   0  0  0  0  0  0  0  0  0  0  0  0
  6  7  2  0  0  0
  6 11  1  0  0  0
  6  3  1  0  0  0
  7  8  1  0  0  0
  8  9  2  0  0  0
  8 13  1  0  0  0
  9 10  1  0  0  0
  9 12  1  0  0  0
 10 11  2  0  0  0
  3  1  1  0  0  0
  3  4  2  0  0  0
  3  5  2  0  0  0
  1 14  1  0  0  0
 14 15  1  0  0  0
 14 21  1  0  0  0
 15 16  1  0  0  0
 15 18  2  0  0  0
 16 17  1  0  0  0
 21 22  1  0  0  0
 21 26  1  0  0  0
 22 23  1  0  0  0
 23 24  1  0  0  0
 24 25  1  0  0  0
 25 26  1  0  0  0
  1  2  1  0  0  0
 16 19  1  0  0  0
 17 20  1  0  0  0
M  END
> <minimizedAffinity>
-8.28991

$$$$
1YQY_915_A_782


 26 27  0  0  0  0  0  0  0  0999 V2000
   10.0391   18.0379   26.7875 N   0  0  0  0  0  0  0  0  0  0  0  0
    9.7167   17.7315   27.7054 H   0  0  0  0  0  0  0  0  0  0  0  0
   11.7628   18.1878   26.8773 S   0  0  0  0  0  0  0  0  0  0  0  0
   11.9520   19.4136   26.1803 O   0  0  0  0  0  0  0  0  0  0  0  0
   12.1438   18.0177   28.2697 O   0  0  0  0  0  0  0  0  0  0  0  0
   12.4699   16.8687   25.9358 C   0  0  0  0  0  0  0  0  0  0  0  0
   13.7612   16.3681   26.2958 C   0  0  0  0  0  0  0  0  0  0  0  0
   14.3570   15.3539   25.5032 C   0  0  0  0  0  0  0  0  0  0  0  0
   13.6287   14.8741   24.3859 C   0  0  0  0  0  0  0  0  0  0  0  0
   12.3103   15.3401   24.0477 C   0  0  0  0  0  0  0  0  0  0  0  0
   11.7514   16.3471   24.8228 C   0  0  0  0  0  0  0  0  0  0  0  0
   14.1855   13.9412   23.5966 F   0  0  0  0  0  0  0  0  0  0  0  0
   15.7385   14.8434   25.8170 C   0  0  0  0  0  0  0  0  0  0  0  0
    9.2454   19.2156   26.4231 C   0  0  0  0  0  0  0  0  0  0  0  0
    8.1039   18.8974   25.4342 C   0  0  0  0  0  0  0  0  0  0  0  0
    8.2905   17.7618   24.7001 N   0  0  0  0  0  0  0  0  0  0  0  0
    7.3234   17.4044   23.7733 O   0  0  0  0  0  0  0  0  0  0  0  0
    7.1333   19.5847   25.2896 O   0  0  0  0  0  0  0  0  0  0  0  0
    9.0948   17.2082   24.8262 H   0  0  0  0  0  0  0  0  0  0  0  0
    6.6077   18.0591   23.7840 H   0  0  0  0  0  0  0  0  0  0  0  0
    8.5769   19.9424   27.6062 C   0  0  0  0  0  0  0  0  0  0  0  0
    7.7960   19.0462   28.6278 C   0  0  0  0  0  0  0  0  0  0  0  0
    7.1551   19.8087   29.7816 C   0  0  0  0  0  0  0  0  0  0  0  0
    8.1393   20.5790   30.4418 O   0  0  0  0  0  0  0  0  0  0  0  0
    8.8215   21.5417   29.6095 C   0  0  0  0  0  0  0  0  0  0  0  0
    9.5288   20.8330   28.4400 C   0  0  0  0  0  0  0  0  0  0  0  0
  6  7  2  0  0  0
  6 11  1  0  0  0
  6  3  1  0  0  0
  7  8  1  0  0  0
  8  9  2  0  0  0
  8 13  1  0  0  0
  9 10  1  0  0  0
  9 12  1  0  0  0
 10 11  2  0  0  0
  3  1  1  0  0  0
  3  4  2  0  0  0
  3  5  2  0  0  0
  1 14  1  0  0  0
 14 15  1  0  0  0
 14 21  1  0  0  0
 15 16  1  0  0  0
 15 18  2  0  0  0
 16 17  1  0  0  0
 21 22  1  0  0  0
 21 26  1  0  0  0
 22 23  1  0  0  0
 23 24  1  0  0  0
 24 25  1  0  0  0
 25 26  1  0  0  0
  1  2  1  0  0  0
 16 19  1  0  0  0
 17 20  1  0  0  0
M  END
> <minimizedAffinity>
-8.22831

$$$$
1YQY_915_A_782


 26 27  0  0  0  0  0  0  0  0999 V2000
   13.2406   17.6250   25.7753 N   0  0  0  0  0  0  0  0  0  0  0  0
   12.9492   18.4125   25.1962 H   0  0  0  0  0  0  0  0  0  0  0  0
   12.6065   16.1901   25.0401 S   0  0  0  0  0  0  0  0  0  0  0  0
   11.7661   15.7145   26.0849 O   0  0  0  0  0  0  0  0  0  0  0  0
   12.0890   16.5613   23.7335 O   0  0  0  0  0  0  0  0  0  0  0  0
   13.9479   15.0608   24.8133 C   0  0  0  0  0  0  0  0  0  0  0  0
   13.6929   13.7840   24.2195 C   0  0  0  0  0  0  0  0  0  0  0  0
   14.7555   12.8527   24.0954 C   0  0  0  0  0  0  0  0  0  0  0  0
   16.0354   13.2434   24.5626 C   0  0  0  0  0  0  0  0  0  0  0  0
   16.3074   14.5430   25.1164 C   0  0  0  0  0  0  0  0  0  0  0  0
   15.2511   15.4341   25.2486 C   0  0  0  0  0  0  0  0  0  0  0  0
   17.0506   12.3671   24.4919 F   0  0  0  0  0  0  0  0  0  0  0  0
   14.5129   11.4787   23.5289 C   0  0  0  0  0  0  0  0  0  0  0  0
   12.8582   17.9403   27.1552 C   0  0  0  0  0  0  0  0  0  0  0  0
   14.0490   18.3872   28.0294 C   0  0  0  0  0  0  0  0  0  0  0  0
   14.8713   17.3730   28.4278 N   0  0  0  0  0  0  0  0  0  0  0  0
   15.9598   17.6778   29.2304 O   0  0  0  0  0  0  0  0  0  0  0  0
   14.2466   19.5212   28.3613 O   0  0  0  0  0  0  0  0  0  0  0  0
   14.6950   16.4448   28.1510 H   0  0  0  0  0  0  0  0  0  0  0  0
   15.9777   18.6323   29.4022 H   0  0  0  0  0  0  0  0  0  0  0  0
   11.7991   19.0503   27.3004 C   0  0  0  0  0  0  0  0  0  0  0  0
   10.7504   19.1736   26.1420 C   0  0  0  0  0  0  0  0  0  0  0  0
    9.7221   20.2826   26.3314 C   0  0  0  0  0  0  0  0  0  0  0  0
    9.0748   20.1175   27.5771 O   0  0  0  0  0  0  0  0  0  0  0  0
    9.9487   20.1334   28.7264 C   0  0  0  0  0  0  0  0  0  0  0  0
   10.9933   19.0074   28.6208 C   0  0  0  0  0  0  0  0  0  0  0  0
  6  7  2  0  0  0
  6 11  1  0  0  0
  6  3  1  0  0  0
  7  8  1  0  0  0
  8  9  2  0  0  0
  8 13  1  0  0  0
  9 10  1  0  0  0
  9 12  1  0  0  0
 10 11  2  0  0  0
  3  1  1  0  0  0
  3  4  2  0  0  0
  3  5  2  0  0  0
  1 14  1  0  0  0
 14 15  1  0  0  0
 14 21  1  0  0  0
 15 16  1  0  0  0
 15 18  2  0  0  0
 16 17  1  0  0  0
 21 22  1  0  0  0
 21 26  1  0  0  0
 22 23  1  0  0  0
 23 24  1  0  0  0
 24 25  1  0  0  0
 25 26  1  0  0  0
  1  2  1  0  0  0
 16 19  1  0  0  0
 17 20  1  0  0  0
M  END
> <minimizedAffinity>
-8.18959

$$$$
1YQY_915_A_782


 26 27  0  0  0  0  0  0  0  0999 V2000
   10.8582   17.2406   26.1926 N   0  0  0  0  0  0  0  0  0  0  0  0
   10.4547   16.7867   27.0121 H   0  0  0  0  0  0  0  0  0  0  0  0
   12.5760   17.0392   26.2932 S   0  0  0  0  0  0  0  0  0  0  0  0
   13.0054   18.0030   25.3389 O   0  0  0  0  0  0  0  0  0  0  0  0
   12.9432   17.1176   27.6975 O   0  0  0  0  0  0  0  0  0  0  0  0
   12.9661   15.4199   25.6999 C   0  0  0  0  0  0  0  0  0  0  0  0
   13.3989   14.4212   26.6290 C   0  0  0  0  0  0  0  0  0  0  0  0
   13.7730   13.1411   26.1463 C   0  0  0  0  0  0  0  0  0  0  0  0
   13.6881   12.9097   24.7505 C   0  0  0  0  0  0  0  0  0  0  0  0
   13.2084   13.8945   23.8179 C   0  0  0  0  0  0  0  0  0  0  0  0
   12.8657   15.1482   24.3059 C   0  0  0  0  0  0  0  0  0  0  0  0
   14.0723   11.7190   24.2625 F   0  0  0  0  0  0  0  0  0  0  0  0
   14.2883   12.0839   27.0868 C   0  0  0  0  0  0  0  0  0  0  0  0
   10.3080   18.5985   26.1376 C   0  0  0  0  0  0  0  0  0  0  0  0
    9.1420   18.7422   25.1366 C   0  0  0  0  0  0  0  0  0  0  0  0
    8.5910   17.5595   24.7353 N   0  0  0  0  0  0  0  0  0  0  0  0
    7.5471   17.5894   23.8236 O   0  0  0  0  0  0  0  0  0  0  0  0
    8.7472   19.7921   24.7159 O   0  0  0  0  0  0  0  0  0  0  0  0
    8.9278   16.7034   25.0859 H   0  0  0  0  0  0  0  0  0  0  0  0
    7.3487   18.5095   23.5893 H   0  0  0  0  0  0  0  0  0  0  0  0
    9.7717   19.1390   27.4775 C   0  0  0  0  0  0  0  0  0  0  0  0
    9.9831   20.6678   27.7509 C   0  0  0  0  0  0  0  0  0  0  0  0
    9.4337   21.1563   29.0861 C   0  0  0  0  0  0  0  0  0  0  0  0
    8.0658   20.8143   29.1864 O   0  0  0  0  0  0  0  0  0  0  0  0
    7.7804   19.4023   29.0887 C   0  0  0  0  0  0  0  0  0  0  0  0
    8.2748   18.8478   27.7403 C   0  0  0  0  0  0  0  0  0  0  0  0
  6  7  2  0  0  0
  6 11  1  0  0  0
  6  3  1  0  0  0
  7  8  1  0  0  0
  8  9  2  0  0  0
  8 13  1  0  0  0
  9 10  1  0  0  0
  9 12  1  0  0  0
 10 11  2  0  0  0
  3  1  1  0  0  0
  3  4  2  0  0  0
  3  5  2  0  0  0
  1 14  1  0  0  0
 14 15  1  0  0  0
 14 21  1  0  0  0
 15 16  1  0  0  0
 15 18  2  0  0  0
 16 17  1  0  0  0
 21 22  1  0  0  0
 21 26  1  0  0  0
 22 23  1  0  0  0
 23 24  1  0  0  0
 24 25  1  0  0  0
 25 26  1  0  0  0
  1  2  1  0  0  0
 16 19  1  0  0  0
 17 20  1  0  0  0
M  END
> <minimizedAffinity>
-8.11632

$$$$
1YQY_915_A_782


 26 27  0  0  0  0  0  0  0  0999 V2000
   13.5054   14.6839   27.6432 N   0  0  0  0  0  0  0  0  0  0  0  0
   13.8857   14.9869   28.5399 H   0  0  0  0  0  0  0  0  0  0  0  0
   13.6992   12.9642   27.5631 S   0  0  0  0  0  0  0  0  0  0  0  0
   14.3517   12.7197   28.8034 O   0  0  0  0  0  0  0  0  0  0  0  0
   12.4018   12.3933   27.2407 O   0  0  0  0  0  0  0  0  0  0  0  0
   14.8151   12.6070   26.2389 C   0  0  0  0  0  0  0  0  0  0  0  0
   14.2901   12.3596   24.9308 C   0  0  0  0  0  0  0  0  0  0  0  0
   15.1788   12.0104   23.8820 C   0  0  0  0  0  0  0  0  0  0  0  0
   16.5614   11.9335   24.1845 C   0  0  0  0  0  0  0  0  0  0  0  0
   17.0991   12.2278   25.4860 C   0  0  0  0  0  0  0  0  0  0  0  0
   16.2125   12.5482   26.5051 C   0  0  0  0  0  0  0  0  0  0  0  0
   17.4205   11.5679   23.2193 F   0  0  0  0  0  0  0  0  0  0  0  0
   14.6575   11.6865   22.5069 C   0  0  0  0  0  0  0  0  0  0  0  0
   14.1289   15.5143   26.6082 C   0  0  0  0  0  0  0  0  0  0  0  0
   13.1063   16.3066   25.7663 C   0  0  0  0  0  0  0  0  0  0  0  0
   11.8011   16.0562   26.0777 N   0  0  0  0  0  0  0  0  0  0  0  0
   10.8108   16.7112   25.3619 O   0  0  0  0  0  0  0  0  0  0  0  0
   13.4069   17.0693   24.8927 O   0  0  0  0  0  0  0  0  0  0  0  0
   11.5679   15.4240   26.7954 H   0  0  0  0  0  0  0  0  0  0  0  0
   11.2196   17.2904   24.7000 H   0  0  0  0  0  0  0  0  0  0  0  0
   15.1340   16.5598   27.1294 C   0  0  0  0  0  0  0  0  0  0  0  0
   14.5536   17.6965   28.0392 C   0  0  0  0  0  0  0  0  0  0  0  0
   15.5852   18.7044   28.5326 C   0  0  0  0  0  0  0  0  0  0  0  0
   16.6332   18.0219   29.1914 O   0  0  0  0  0  0  0  0  0  0  0  0
   17.3286   17.0464   28.3854 C   0  0  0  0  0  0  0  0  0  0  0  0
   16.3492   15.9696   27.8839 C   0  0  0  0  0  0  0  0  0  0  0  0
  6  7  2  0  0  0
  6 11  1  0  0  0
  6  3  1  0  0  0
  7  8  1  0  0  0
  8  9  2  0  0  0
  8 13  1  0  0  0
  9 10  1  0  0  0
  9 12  1  0  0  0
 10 11  2  0  0  0
  3  1  1  0  0  0
  3  4  2  0  0  0
  3  5  2  0  0  0
  1 14  1  0  0  0
 14 15  1  0  0  0
 14 21  1  0  0  0
 15 16  1  0  0  0
 15 18  2  0  0  0
 16 17  1  0  0  0
 21 22  1  0  0  0
 21 26  1  0  0  0
 22 23  1  0  0  0
 23 24  1  0  0  0
 24 25  1  0  0  0
 25 26  1  0  0  0
  1  2  1  0  0  0
 16 19  1  0  0  0
 17 20  1  0  0  0
M  END
> <minimizedAffinity>
-7.99597

$$$$
1YQY_915_A_782


 26 27  0  0  0  0  0  0  0  0999 V2000
   11.9337   17.9432   27.6341 N   0  0  0  0  0  0  0  0  0  0  0  0
   12.5338   18.1204   28.4397 H   0  0  0  0  0  0  0  0  0  0  0  0
   12.8908   17.0990   26.4623 S   0  0  0  0  0  0  0  0  0  0  0  0
   12.1017   15.9296   26.2785 O   0  0  0  0  0  0  0  0  0  0  0  0
   13.1719   18.0262   25.3787 O   0  0  0  0  0  0  0  0  0  0  0  0
   14.4191   16.6540   27.2320 C   0  0  0  0  0  0  0  0  0  0  0  0
   15.1360   17.6394   27.9823 C   0  0  0  0  0  0  0  0  0  0  0  0
   16.3928   17.3019   28.5466 C   0  0  0  0  0  0  0  0  0  0  0  0
   16.8764   15.9850   28.3447 C   0  0  0  0  0  0  0  0  0  0  0  0
   16.1379   14.9767   27.6320 C   0  0  0  0  0  0  0  0  0  0  0  0
   14.9190   15.3308   27.0696 C   0  0  0  0  0  0  0  0  0  0  0  0
   18.0807   15.6503   28.8357 F   0  0  0  0  0  0  0  0  0  0  0  0
   17.2024   18.3290   29.2931 C   0  0  0  0  0  0  0  0  0  0  0  0
   11.3257   19.2238   27.2598 C   0  0  0  0  0  0  0  0  0  0  0  0
   10.3682   19.1132   26.0545 C   0  0  0  0  0  0  0  0  0  0  0  0
    9.8996   17.8533   25.8170 N   0  0  0  0  0  0  0  0  0  0  0  0
    9.0449   17.6545   24.7437 O   0  0  0  0  0  0  0  0  0  0  0  0
   10.0614   20.0376   25.3570 O   0  0  0  0  0  0  0  0  0  0  0  0
   10.1630   17.1016   26.3957 H   0  0  0  0  0  0  0  0  0  0  0  0
    8.8958   18.4980   24.2886 H   0  0  0  0  0  0  0  0  0  0  0  0
   10.5105   19.9084   28.3741 C   0  0  0  0  0  0  0  0  0  0  0  0
   10.1910   21.4298   28.1741 C   0  0  0  0  0  0  0  0  0  0  0  0
    9.3806   22.0621   29.2997 C   0  0  0  0  0  0  0  0  0  0  0  0
    8.1921   21.3227   29.4976 O   0  0  0  0  0  0  0  0  0  0  0  0
    8.3866   19.9311   29.8299 C   0  0  0  0  0  0  0  0  0  0  0  0
    9.1678   19.2173   28.7116 C   0  0  0  0  0  0  0  0  0  0  0  0
  6  7  2  0  0  0
  6 11  1  0  0  0
  6  3  1  0  0  0
  7  8  1  0  0  0
  8  9  2  0  0  0
  8 13  1  0  0  0
  9 10  1  0  0  0
  9 12  1  0  0  0
 10 11  2  0  0  0
  3  1  1  0  0  0
  3  4  2  0  0  0
  3  5  2  0  0  0
  1 14  1  0  0  0
 14 15  1  0  0  0
 14 21  1  0  0  0
 15 16  1  0  0  0
 15 18  2  0  0  0
 16 17  1  0  0  0
 21 22  1  0  0  0
 21 26  1  0  0  0
 22 23  1  0  0  0
 23 24  1  0  0  0
 24 25  1  0  0  0
 25 26  1  0  0  0
  1  2  1  0  0  0
 16 19  1  0  0  0
 17 20  1  0  0  0
M  END
> <minimizedAffinity>
-7.95298

$$$$
1YQY_915_A_782


 26 27  0  0  0  0  0  0  0  0999 V2000
   13.4828   16.1912   27.2248 N   0  0  0  0  0  0  0  0  0  0  0  0
   12.6234   15.6558   27.1012 H   0  0  0  0  0  0  0  0  0  0  0  0
   13.2000   17.7676   26.5640 S   0  0  0  0  0  0  0  0  0  0  0  0
   13.9707   18.5637   27.4564 O   0  0  0  0  0  0  0  0  0  0  0  0
   13.4820   17.7008   25.1396 O   0  0  0  0  0  0  0  0  0  0  0  0
   11.4862   18.1450   26.7806 C   0  0  0  0  0  0  0  0  0  0  0  0
   11.0906   19.0028   27.8556 C   0  0  0  0  0  0  0  0  0  0  0  0
    9.7113   19.2551   28.0693 C   0  0  0  0  0  0  0  0  0  0  0  0
    8.7831   18.6449   27.1889 C   0  0  0  0  0  0  0  0  0  0  0  0
    9.1779   17.8205   26.0779 C   0  0  0  0  0  0  0  0  0  0  0  0
   10.5310   17.5683   25.8964 C   0  0  0  0  0  0  0  0  0  0  0  0
    7.4694   18.8365   27.3916 F   0  0  0  0  0  0  0  0  0  0  0  0
    9.2541   20.1055   29.2249 C   0  0  0  0  0  0  0  0  0  0  0  0
   14.5768   15.3820   26.6789 C   0  0  0  0  0  0  0  0  0  0  0  0
   15.8675   15.4563   27.5219 C   0  0  0  0  0  0  0  0  0  0  0  0
   15.8339   16.3768   28.5293 N   0  0  0  0  0  0  0  0  0  0  0  0
   16.9559   16.5256   29.3299 O   0  0  0  0  0  0  0  0  0  0  0  0
   16.8395   14.7866   27.3172 O   0  0  0  0  0  0  0  0  0  0  0  0
   15.0299   16.9236   28.6840 H   0  0  0  0  0  0  0  0  0  0  0  0
   17.6466   15.9114   29.0359 H   0  0  0  0  0  0  0  0  0  0  0  0
   14.2653   13.8799   26.5312 C   0  0  0  0  0  0  0  0  0  0  0  0
   13.3990   13.2296   27.6641 C   0  0  0  0  0  0  0  0  0  0  0  0
   13.1147   11.7443   27.4731 C   0  0  0  0  0  0  0  0  0  0  0  0
   12.5206   11.5372   26.2073 O   0  0  0  0  0  0  0  0  0  0  0  0
   13.3111   11.9772   25.0820 C   0  0  0  0  0  0  0  0  0  0  0  0
   13.6033   13.4850   25.1895 C   0  0  0  0  0  0  0  0  0  0  0  0
  6  7  2  0  0  0
  6 11  1  0  0  0
  6  3  1  0  0  0
  7  8  1  0  0  0
  8  9  2  0  0  0
  8 13  1  0  0  0
  9 10  1  0  0  0
  9 12  1  0  0  0
 10 11  2  0  0  0
  3  1  1  0  0  0
  3  4  2  0  0  0
  3  5  2  0  0  0
  1 14  1  0  0  0
 14 15  1  0  0  0
 14 21  1  0  0  0
 15 16  1  0  0  0
 15 18  2  0  0  0
 16 17  1  0  0  0
 21 22  1  0  0  0
 21 26  1  0  0  0
 22 23  1  0  0  0
 23 24  1  0  0  0
 24 25  1  0  0  0
 25 26  1  0  0  0
  1  2  1  0  0  0
 16 19  1  0  0  0
 17 20  1  0  0  0
M  END
> <minimizedAffinity>
-7.84298

$$$$
