4O2P_11V_A_601


 35 39  0  0  0  0  0  0  0  0999 V2000
   -6.2543    5.7486   30.6862 C   0  0  0  0  0  0  0  0  0  0  0  0
   -6.4587    4.7858   31.5867 N   0  0  0  0  0  0  0  0  0  0  0  0
   -5.4593    3.9567   31.9090 C   0  0  0  0  0  0  0  0  0  0  0  0
   -5.0511    5.8877   30.1042 N   0  0  0  0  0  0  0  0  0  0  0  0
   -4.0480    5.0500   30.4318 C   0  0  0  0  0  0  0  0  0  0  0  0
   -4.2490    4.0738   31.3343 C   0  0  0  0  0  0  0  0  0  0  0  0
   -3.0984    3.4051   31.4402 C   0  0  0  0  0  0  0  0  0  0  0  0
   -2.2034    3.9756   30.6189 N   0  0  0  0  0  0  0  0  0  0  0  0
   -2.7834    4.9685   30.0000 N   0  0  0  0  0  0  0  0  0  0  0  0
   -5.6549    2.9914   32.8115 N   0  0  0  0  0  0  0  0  0  0  0  0
   -5.1972    2.1232   32.7341 H   0  0  0  0  0  0  0  0  0  0  0  0
   -6.4998    3.2444   33.8324 C   0  0  0  0  0  0  0  0  0  0  0  0
   -7.7769    2.6721   33.8622 C   0  0  0  0  0  0  0  0  0  0  0  0
   -8.6356    2.9303   34.9328 C   0  0  0  0  0  0  0  0  0  0  0  0
   -8.2209    3.7547   35.9846 C   0  0  0  0  0  0  0  0  0  0  0  0
   -6.9448    4.3229   35.9700 C   0  0  0  0  0  0  0  0  0  0  0  0
   -6.0968    4.0733   34.8895 C   0  0  0  0  0  0  0  0  0  0  0  0
   -7.5563    6.7708   30.3066 S   0  0  0  0  0  0  0  0  0  0  0  0
   -6.7777    7.8016   29.0198 C   0  0  0  0  0  0  0  0  0  0  0  0
   -6.9859    7.2683   27.6081 C   0  0  0  0  0  0  0  0  0  0  0  0
   -4.8850    7.7000   26.5075 C   0  0  0  0  0  0  0  0  0  0  0  0
   -4.1297    8.7198   25.6787 C   0  0  0  0  0  0  0  0  0  0  0  0
   -4.8077    8.9059   24.4125 O   0  0  0  0  0  0  0  0  0  0  0  0
   -6.2142    9.2901   24.5041 C   0  0  0  0  0  0  0  0  0  0  0  0
   -6.9730    8.3036   25.3964 C   0  0  0  0  0  0  0  0  0  0  0  0
   -6.2750    8.1530   26.6868 N   0  0  0  0  0  0  0  0  0  0  0  0
   -2.1972    5.9080   28.9783 C   0  0  0  0  0  0  0  0  0  0  0  0
   -1.1404    6.8211   29.6335 C   0  0  0  0  0  0  0  0  0  0  0  0
   -1.7947    7.4857   31.1991 Cl  0  0  0  0  0  0  0  0  0  0  0  0
   -0.7080    7.8517   28.7734 C   0  0  0  0  0  0  0  0  0  0  0  0
   -1.5892    8.8893   28.4667 C   0  0  0  0  0  0  0  0  0  0  0  0
   -1.2111    9.9313   27.6184 C   0  0  0  0  0  0  0  0  0  0  0  0
    0.0653    9.9442   27.0673 C   0  0  0  0  0  0  0  0  0  0  0  0
    0.9549    8.9077   27.3642 C   0  0  0  0  0  0  0  0  0  0  0  0
    0.5753    7.8650   28.2152 C   0  0  0  0  0  0  0  0  0  0  0  0
 23 24  1  0  0  0
 23 22  1  0  0  0
 24 25  1  0  0  0
 25 26  1  0  0  0
 33 34  2  0  0  0
 33 32  1  0  0  0
 34 35  1  0  0  0
 32 31  2  0  0  0
 22 21  1  0  0  0
 21 26  1  0  0  0
 26 20  1  0  0  0
 35 30  2  0  0  0
 20 19  1  0  0  0
 31 30  1  0  0  0
 30 28  1  0  0  0
 27 28  1  0  0  0
 27  9  1  0  0  0
 28 29  1  0  0  0
 19 18  1  0  0  0
  9  5  1  0  0  0
  9  8  1  0  0  0
  4  5  2  0  0  0
  4  1  1  0  0  0
 18  1  1  0  0  0
  5  6  1  0  0  0
  1  2  2  0  0  0
  8  7  2  0  0  0
  6  7  1  0  0  0
  6  3  2  0  0  0
  2  3  1  0  0  0
  3 10  1  0  0  0
 10 12  1  0  0  0
 13 12  2  0  0  0
 13 14  1  0  0  0
 12 17  1  0  0  0
 14 15  2  0  0  0
 17 16  2  0  0  0
 15 16  1  0  0  0
 10 11  1  0  0  0
M  END
> <minimizedAffinity>
-9.64775

$$$$
4O2P_11V_A_601


 35 39  0  0  0  0  0  0  0  0999 V2000
   -6.3173    5.8341   30.7032 C   0  0  0  0  0  0  0  0  0  0  0  0
   -6.4962    4.8591   31.5961 N   0  0  0  0  0  0  0  0  0  0  0  0
   -5.4841    4.0343   31.8884 C   0  0  0  0  0  0  0  0  0  0  0  0
   -5.1272    5.9896   30.0991 N   0  0  0  0  0  0  0  0  0  0  0  0
   -4.1113    5.1562   30.3966 C   0  0  0  0  0  0  0  0  0  0  0  0
   -4.2865    4.1679   31.2912 C   0  0  0  0  0  0  0  0  0  0  0  0
   -3.1288    3.5072   31.3660 C   0  0  0  0  0  0  0  0  0  0  0  0
   -2.2549    4.0946   30.5339 N   0  0  0  0  0  0  0  0  0  0  0  0
   -2.8549    5.0900   29.9386 N   0  0  0  0  0  0  0  0  0  0  0  0
   -5.6541    3.0568   32.7830 N   0  0  0  0  0  0  0  0  0  0  0  0
   -5.1835    2.1969   32.6915 H   0  0  0  0  0  0  0  0  0  0  0  0
   -6.4912    3.2859   33.8159 C   0  0  0  0  0  0  0  0  0  0  0  0
   -7.7628    2.7017   33.8487 C   0  0  0  0  0  0  0  0  0  0  0  0
   -8.6134    2.9350   34.9315 C   0  0  0  0  0  0  0  0  0  0  0  0
   -8.1958    3.7463   35.9923 C   0  0  0  0  0  0  0  0  0  0  0  0
   -6.9250    4.3261   35.9746 C   0  0  0  0  0  0  0  0  0  0  0  0
   -6.0854    4.1015   34.8822 C   0  0  0  0  0  0  0  0  0  0  0  0
   -7.6347    6.8502   30.3619 S   0  0  0  0  0  0  0  0  0  0  0  0
   -7.4481    7.0051   28.5548 C   0  0  0  0  0  0  0  0  0  0  0  0
   -7.9010    5.7674   27.7907 C   0  0  0  0  0  0  0  0  0  0  0  0
  -10.0914    6.7704   27.7008 C   0  0  0  0  0  0  0  0  0  0  0  0
  -11.5309    6.5969   28.1423 C   0  0  0  0  0  0  0  0  0  0  0  0
  -12.0770    5.3994   27.5380 O   0  0  0  0  0  0  0  0  0  0  0  0
  -11.3312    4.1700   27.7959 C   0  0  0  0  0  0  0  0  0  0  0  0
   -9.8593    4.3571   27.4168 C   0  0  0  0  0  0  0  0  0  0  0  0
   -9.3229    5.5680   28.0656 N   0  0  0  0  0  0  0  0  0  0  0  0
   -2.2966    6.0461   28.9168 C   0  0  0  0  0  0  0  0  0  0  0  0
   -1.1917    6.9193   29.5468 C   0  0  0  0  0  0  0  0  0  0  0  0
   -1.7715    7.5787   31.1436 Cl  0  0  0  0  0  0  0  0  0  0  0  0
   -0.7604    7.9499   28.6862 C   0  0  0  0  0  0  0  0  0  0  0  0
   -1.6548    8.9663   28.3486 C   0  0  0  0  0  0  0  0  0  0  0  0
   -1.2782   10.0073   27.4985 C   0  0  0  0  0  0  0  0  0  0  0  0
    0.0102   10.0408   26.9769 C   0  0  0  0  0  0  0  0  0  0  0  0
    0.9133    9.0255   27.3049 C   0  0  0  0  0  0  0  0  0  0  0  0
    0.5351    7.9838   28.1577 C   0  0  0  0  0  0  0  0  0  0  0  0
 23 24  1  0  0  0
 23 22  1  0  0  0
 24 25  1  0  0  0
 25 26  1  0  0  0
 33 34  2  0  0  0
 33 32  1  0  0  0
 34 35  1  0  0  0
 32 31  2  0  0  0
 22 21  1  0  0  0
 21 26  1  0  0  0
 26 20  1  0  0  0
 35 30  2  0  0  0
 20 19  1  0  0  0
 31 30  1  0  0  0
 30 28  1  0  0  0
 27 28  1  0  0  0
 27  9  1  0  0  0
 28 29  1  0  0  0
 19 18  1  0  0  0
  9  5  1  0  0  0
  9  8  1  0  0  0
  4  5  2  0  0  0
  4  1  1  0  0  0
 18  1  1  0  0  0
  5  6  1  0  0  0
  1  2  2  0  0  0
  8  7  2  0  0  0
  6  7  1  0  0  0
  6  3  2  0  0  0
  2  3  1  0  0  0
  3 10  1  0  0  0
 10 12  1  0  0  0
 13 12  2  0  0  0
 13 14  1  0  0  0
 12 17  1  0  0  0
 14 15  2  0  0  0
 17 16  2  0  0  0
 15 16  1  0  0  0
 10 11  1  0  0  0
M  END
> <minimizedAffinity>
-9.29307

$$$$
4O2P_11V_A_601


 35 39  0  0  0  0  0  0  0  0999 V2000
   -6.1959    5.8626   30.6996 C   0  0  0  0  0  0  0  0  0  0  0  0
   -6.3565    4.8985   31.6076 N   0  0  0  0  0  0  0  0  0  0  0  0
   -5.3309    4.0934   31.9079 C   0  0  0  0  0  0  0  0  0  0  0  0
   -5.0106    6.0270   30.0882 N   0  0  0  0  0  0  0  0  0  0  0  0
   -3.9811    5.2134   30.3938 C   0  0  0  0  0  0  0  0  0  0  0  0
   -4.1379    4.2361   31.3038 C   0  0  0  0  0  0  0  0  0  0  0  0
   -2.9701    3.5941   31.3837 C   0  0  0  0  0  0  0  0  0  0  0  0
   -2.1084    4.1820   30.5393 N   0  0  0  0  0  0  0  0  0  0  0  0
   -2.7257    5.1592   29.9317 N   0  0  0  0  0  0  0  0  0  0  0  0
   -5.4826    3.1271   32.8177 N   0  0  0  0  0  0  0  0  0  0  0  0
   -4.9558    2.2967   32.7696 H   0  0  0  0  0  0  0  0  0  0  0  0
   -6.3808    3.3255   33.8047 C   0  0  0  0  0  0  0  0  0  0  0  0
   -7.6540    2.7476   33.7394 C   0  0  0  0  0  0  0  0  0  0  0  0
   -8.5686    2.9486   34.7755 C   0  0  0  0  0  0  0  0  0  0  0  0
   -8.2142    3.7209   35.8871 C   0  0  0  0  0  0  0  0  0  0  0  0
   -6.9427    4.2938   35.9673 C   0  0  0  0  0  0  0  0  0  0  0  0
   -6.0383    4.1019   34.9213 C   0  0  0  0  0  0  0  0  0  0  0  0
   -7.5297    6.8536   30.3486 S   0  0  0  0  0  0  0  0  0  0  0  0
   -6.8031    7.9039   29.0473 C   0  0  0  0  0  0  0  0  0  0  0  0
   -7.8436    8.6104   28.1877 C   0  0  0  0  0  0  0  0  0  0  0  0
   -7.8455   10.8959   27.4207 C   0  0  0  0  0  0  0  0  0  0  0  0
   -7.7289   12.3358   27.8791 C   0  0  0  0  0  0  0  0  0  0  0  0
   -8.8370   12.6511   28.7568 O   0  0  0  0  0  0  0  0  0  0  0  0
   -8.9878   11.7758   29.9167 C   0  0  0  0  0  0  0  0  0  0  0  0
   -9.0376   10.3120   29.4693 C   0  0  0  0  0  0  0  0  0  0  0  0
   -7.8854   10.0126   28.5988 N   0  0  0  0  0  0  0  0  0  0  0  0
   -2.1859    6.1083   28.8934 C   0  0  0  0  0  0  0  0  0  0  0  0
   -1.2835    7.1702   29.5551 C   0  0  0  0  0  0  0  0  0  0  0  0
   -2.2384    8.0881   30.8067 Cl  0  0  0  0  0  0  0  0  0  0  0  0
   -0.6917    8.0388   28.6148 C   0  0  0  0  0  0  0  0  0  0  0  0
   -1.4258    9.1298   28.1480 C   0  0  0  0  0  0  0  0  0  0  0  0
   -0.8869   10.0173   27.2150 C   0  0  0  0  0  0  0  0  0  0  0  0
    0.4045    9.8193   26.7398 C   0  0  0  0  0  0  0  0  0  0  0  0
    1.1476    8.7272   27.1972 C   0  0  0  0  0  0  0  0  0  0  0  0
    0.6070    7.8395   28.1328 C   0  0  0  0  0  0  0  0  0  0  0  0
 23 24  1  0  0  0
 23 22  1  0  0  0
 24 25  1  0  0  0
 25 26  1  0  0  0
 33 34  2  0  0  0
 33 32  1  0  0  0
 34 35  1  0  0  0
 32 31  2  0  0  0
 22 21  1  0  0  0
 21 26  1  0  0  0
 26 20  1  0  0  0
 35 30  2  0  0  0
 20 19  1  0  0  0
 31 30  1  0  0  0
 30 28  1  0  0  0
 27 28  1  0  0  0
 27  9  1  0  0  0
 28 29  1  0  0  0
 19 18  1  0  0  0
  9  5  1  0  0  0
  9  8  1  0  0  0
  4  5  2  0  0  0
  4  1  1  0  0  0
 18  1  1  0  0  0
  5  6  1  0  0  0
  1  2  2  0  0  0
  8  7  2  0  0  0
  6  7  1  0  0  0
  6  3  2  0  0  0
  2  3  1  0  0  0
  3 10  1  0  0  0
 10 12  1  0  0  0
 13 12  2  0  0  0
 13 14  1  0  0  0
 12 17  1  0  0  0
 14 15  2  0  0  0
 17 16  2  0  0  0
 15 16  1  0  0  0
 10 11  1  0  0  0
M  END
> <minimizedAffinity>
-8.84032

$$$$
4O2P_11V_A_601


 35 39  0  0  0  0  0  0  0  0999 V2000
   -6.0512    5.7319   30.4427 C   0  0  0  0  0  0  0  0  0  0  0  0
   -6.3662    4.7453   31.2838 N   0  0  0  0  0  0  0  0  0  0  0  0
   -5.4106    3.9183   31.7228 C   0  0  0  0  0  0  0  0  0  0  0  0
   -4.7808    5.8968   30.0372 N   0  0  0  0  0  0  0  0  0  0  0  0
   -3.8221    5.0611   30.4819 C   0  0  0  0  0  0  0  0  0  0  0  0
   -4.1338    4.0612   31.3250 C   0  0  0  0  0  0  0  0  0  0  0  0
   -3.0004    3.4012   31.5745 C   0  0  0  0  0  0  0  0  0  0  0  0
   -2.0075    4.0004   30.8991 N   0  0  0  0  0  0  0  0  0  0  0  0
   -2.5088    5.0024   30.2284 N   0  0  0  0  0  0  0  0  0  0  0  0
   -5.7170    2.9293   32.5669 N   0  0  0  0  0  0  0  0  0  0  0  0
   -5.4334    2.0034   32.3892 H   0  0  0  0  0  0  0  0  0  0  0  0
   -6.4277    3.2399   33.6708 C   0  0  0  0  0  0  0  0  0  0  0  0
   -5.9003    4.0984   34.6425 C   0  0  0  0  0  0  0  0  0  0  0  0
   -6.6531    4.4238   35.7730 C   0  0  0  0  0  0  0  0  0  0  0  0
   -7.9405    3.9006   35.9356 C   0  0  0  0  0  0  0  0  0  0  0  0
   -8.4805    3.0509   34.9671 C   0  0  0  0  0  0  0  0  0  0  0  0
   -7.7172    2.7173   33.8469 C   0  0  0  0  0  0  0  0  0  0  0  0
   -7.3011    6.7505   29.9092 S   0  0  0  0  0  0  0  0  0  0  0  0
   -7.1894    6.4648   28.1119 C   0  0  0  0  0  0  0  0  0  0  0  0
   -8.4049    6.9657   27.3422 C   0  0  0  0  0  0  0  0  0  0  0  0
  -10.8034    6.9374   27.5825 C   0  0  0  0  0  0  0  0  0  0  0  0
  -11.9606    6.1555   28.1715 C   0  0  0  0  0  0  0  0  0  0  0  0
  -12.0290    4.8528   27.5423 O   0  0  0  0  0  0  0  0  0  0  0  0
  -10.8073    4.0551   27.6164 C   0  0  0  0  0  0  0  0  0  0  0  0
   -9.6183    4.8618   27.0866 C   0  0  0  0  0  0  0  0  0  0  0  0
   -9.5582    6.1715   27.7620 N   0  0  0  0  0  0  0  0  0  0  0  0
   -1.7987    5.9723   29.3201 C   0  0  0  0  0  0  0  0  0  0  0  0
   -1.6700    7.3501   30.0022 C   0  0  0  0  0  0  0  0  0  0  0  0
   -2.1067    7.2011   31.7652 Cl  0  0  0  0  0  0  0  0  0  0  0  0
   -2.4364    8.3449   29.3606 C   0  0  0  0  0  0  0  0  0  0  0  0
   -2.0013    8.8454   28.1328 C   0  0  0  0  0  0  0  0  0  0  0  0
   -2.7220    9.8325   27.4586 C   0  0  0  0  0  0  0  0  0  0  0  0
   -3.8967   10.3290   28.0122 C   0  0  0  0  0  0  0  0  0  0  0  0
   -4.3399    9.8381   29.2437 C   0  0  0  0  0  0  0  0  0  0  0  0
   -3.6176    8.8483   29.9175 C   0  0  0  0  0  0  0  0  0  0  0  0
 23 24  1  0  0  0
 23 22  1  0  0  0
 24 25  1  0  0  0
 25 26  1  0  0  0
 33 34  2  0  0  0
 33 32  1  0  0  0
 34 35  1  0  0  0
 32 31  2  0  0  0
 22 21  1  0  0  0
 21 26  1  0  0  0
 26 20  1  0  0  0
 35 30  2  0  0  0
 20 19  1  0  0  0
 31 30  1  0  0  0
 30 28  1  0  0  0
 27 28  1  0  0  0
 27  9  1  0  0  0
 28 29  1  0  0  0
 19 18  1  0  0  0
  9  5  1  0  0  0
  9  8  1  0  0  0
  4  5  2  0  0  0
  4  1  1  0  0  0
 18  1  1  0  0  0
  5  6  1  0  0  0
  1  2  2  0  0  0
  8  7  2  0  0  0
  6  7  1  0  0  0
  6  3  2  0  0  0
  2  3  1  0  0  0
  3 10  1  0  0  0
 10 12  1  0  0  0
 13 12  2  0  0  0
 13 14  1  0  0  0
 12 17  1  0  0  0
 14 15  2  0  0  0
 17 16  2  0  0  0
 15 16  1  0  0  0
 10 11  1  0  0  0
M  END
> <minimizedAffinity>
-8.83273

$$$$
4O2P_11V_A_601


 35 39  0  0  0  0  0  0  0  0999 V2000
   -7.2994    6.5092   30.0473 C   0  0  0  0  0  0  0  0  0  0  0  0
   -7.2331    5.3721   30.7420 N   0  0  0  0  0  0  0  0  0  0  0  0
   -6.0565    4.9600   31.2278 C   0  0  0  0  0  0  0  0  0  0  0  0
   -6.1915    7.2394   29.8355 N   0  0  0  0  0  0  0  0  0  0  0  0
   -5.0091    6.8199   30.3265 C   0  0  0  0  0  0  0  0  0  0  0  0
   -4.9342    5.6719   31.0224 C   0  0  0  0  0  0  0  0  0  0  0  0
   -3.6530    5.5105   31.3611 C   0  0  0  0  0  0  0  0  0  0  0  0
   -2.9575    6.5552   30.8859 N   0  0  0  0  0  0  0  0  0  0  0  0
   -3.7800    7.3452   30.2497 N   0  0  0  0  0  0  0  0  0  0  0  0
   -5.9817    3.8238   31.9264 N   0  0  0  0  0  0  0  0  0  0  0  0
   -5.5650    3.0183   31.5432 H   0  0  0  0  0  0  0  0  0  0  0  0
   -6.4954    3.8156   33.1739 C   0  0  0  0  0  0  0  0  0  0  0  0
   -5.8631    4.5096   34.2120 C   0  0  0  0  0  0  0  0  0  0  0  0
   -6.4143    4.5053   35.4953 C   0  0  0  0  0  0  0  0  0  0  0  0
   -7.6049    3.8150   35.7475 C   0  0  0  0  0  0  0  0  0  0  0  0
   -8.2496    3.1274   34.7164 C   0  0  0  0  0  0  0  0  0  0  0  0
   -7.6856    3.1228   33.4395 C   0  0  0  0  0  0  0  0  0  0  0  0
   -8.8147    6.9856   29.4462 S   0  0  0  0  0  0  0  0  0  0  0  0
   -8.2808    8.0641   28.0764 C   0  0  0  0  0  0  0  0  0  0  0  0
   -8.7336    7.5734   26.7071 C   0  0  0  0  0  0  0  0  0  0  0  0
   -8.2431    8.9985   24.8256 C   0  0  0  0  0  0  0  0  0  0  0  0
   -7.2282    9.2690   23.7329 C   0  0  0  0  0  0  0  0  0  0  0  0
   -5.9706    9.6635   24.3332 O   0  0  0  0  0  0  0  0  0  0  0  0
   -5.4136    8.7208   25.3002 C   0  0  0  0  0  0  0  0  0  0  0  0
   -6.4557    8.3875   26.3717 C   0  0  0  0  0  0  0  0  0  0  0  0
   -7.7162    7.9650   25.7332 N   0  0  0  0  0  0  0  0  0  0  0  0
   -3.4777    8.6399   29.5409 C   0  0  0  0  0  0  0  0  0  0  0  0
   -2.9752    8.3627   28.1089 C   0  0  0  0  0  0  0  0  0  0  0  0
   -3.4146    6.6611   27.6268 Cl  0  0  0  0  0  0  0  0  0  0  0  0
   -1.5928    8.6016   27.9650 C   0  0  0  0  0  0  0  0  0  0  0  0
   -1.1705    9.8136   27.4176 C   0  0  0  0  0  0  0  0  0  0  0  0
    0.1860   10.0977   27.2512 C   0  0  0  0  0  0  0  0  0  0  0  0
    1.1395    9.1627   27.6380 C   0  0  0  0  0  0  0  0  0  0  0  0
    0.7278    7.9434   28.1837 C   0  0  0  0  0  0  0  0  0  0  0  0
   -0.6314    7.6606   28.3509 C   0  0  0  0  0  0  0  0  0  0  0  0
 23 24  1  0  0  0
 23 22  1  0  0  0
 24 25  1  0  0  0
 25 26  1  0  0  0
 33 34  2  0  0  0
 33 32  1  0  0  0
 34 35  1  0  0  0
 32 31  2  0  0  0
 22 21  1  0  0  0
 21 26  1  0  0  0
 26 20  1  0  0  0
 35 30  2  0  0  0
 20 19  1  0  0  0
 31 30  1  0  0  0
 30 28  1  0  0  0
 27 28  1  0  0  0
 27  9  1  0  0  0
 28 29  1  0  0  0
 19 18  1  0  0  0
  9  5  1  0  0  0
  9  8  1  0  0  0
  4  5  2  0  0  0
  4  1  1  0  0  0
 18  1  1  0  0  0
  5  6  1  0  0  0
  1  2  2  0  0  0
  8  7  2  0  0  0
  6  7  1  0  0  0
  6  3  2  0  0  0
  2  3  1  0  0  0
  3 10  1  0  0  0
 10 12  1  0  0  0
 13 12  2  0  0  0
 13 14  1  0  0  0
 12 17  1  0  0  0
 14 15  2  0  0  0
 17 16  2  0  0  0
 15 16  1  0  0  0
 10 11  1  0  0  0
M  END
> <minimizedAffinity>
-8.63526

$$$$
4O2P_11V_A_601


 35 39  0  0  0  0  0  0  0  0999 V2000
   -7.0424    7.0229   30.3384 C   0  0  0  0  0  0  0  0  0  0  0  0
   -7.1041    5.8341   30.9409 N   0  0  0  0  0  0  0  0  0  0  0  0
   -5.9747    5.1737   31.2209 C   0  0  0  0  0  0  0  0  0  0  0  0
   -5.8530    7.5570   30.0136 N   0  0  0  0  0  0  0  0  0  0  0  0
   -4.7186    6.8878   30.2973 C   0  0  0  0  0  0  0  0  0  0  0  0
   -4.7739    5.6867   30.8991 C   0  0  0  0  0  0  0  0  0  0  0  0
   -3.5141    5.2662   31.0346 C   0  0  0  0  0  0  0  0  0  0  0  0
   -2.7002    6.2068   30.5306 N   0  0  0  0  0  0  0  0  0  0  0  0
   -3.4328    7.1869   30.0746 N   0  0  0  0  0  0  0  0  0  0  0  0
   -6.0274    3.9840   31.8261 N   0  0  0  0  0  0  0  0  0  0  0  0
   -5.7527    3.1629   31.3575 H   0  0  0  0  0  0  0  0  0  0  0  0
   -6.4692    3.9437   33.1003 C   0  0  0  0  0  0  0  0  0  0  0  0
   -5.7768    4.6094   34.1184 C   0  0  0  0  0  0  0  0  0  0  0  0
   -6.2539    4.5721   35.4305 C   0  0  0  0  0  0  0  0  0  0  0  0
   -7.4302    3.8770   35.7321 C   0  0  0  0  0  0  0  0  0  0  0  0
   -8.1346    3.2176   34.7219 C   0  0  0  0  0  0  0  0  0  0  0  0
   -7.6443    3.2457   33.4151 C   0  0  0  0  0  0  0  0  0  0  0  0
   -8.5042    7.8180   29.9986 S   0  0  0  0  0  0  0  0  0  0  0  0
   -8.0898    8.5534   28.3824 C   0  0  0  0  0  0  0  0  0  0  0  0
   -8.9568    8.0367   27.2414 C   0  0  0  0  0  0  0  0  0  0  0  0
  -10.7619    6.4402   27.3097 C   0  0  0  0  0  0  0  0  0  0  0  0
  -11.1460    5.0538   27.7868 C   0  0  0  0  0  0  0  0  0  0  0  0
  -10.3285    4.0694   27.1084 O   0  0  0  0  0  0  0  0  0  0  0  0
   -8.8853    4.2534   27.2406 C   0  0  0  0  0  0  0  0  0  0  0  0
   -8.4951    5.6749   26.8257 C   0  0  0  0  0  0  0  0  0  0  0  0
   -9.3248    6.6559   27.5497 N   0  0  0  0  0  0  0  0  0  0  0  0
   -2.9842    8.4647   29.4141 C   0  0  0  0  0  0  0  0  0  0  0  0
   -2.5678    8.1956   27.9532 C   0  0  0  0  0  0  0  0  0  0  0  0
   -1.0595    9.1417   27.5647 Cl  0  0  0  0  0  0  0  0  0  0  0  0
   -3.6031    8.4711   27.0362 C   0  0  0  0  0  0  0  0  0  0  0  0
   -3.6986    9.7518   26.4905 C   0  0  0  0  0  0  0  0  0  0  0  0
   -4.7065   10.0763   25.5810 C   0  0  0  0  0  0  0  0  0  0  0  0
   -5.6339    9.1112   25.2049 C   0  0  0  0  0  0  0  0  0  0  0  0
   -5.5504    7.8261   25.7485 C   0  0  0  0  0  0  0  0  0  0  0  0
   -4.5394    7.5019   26.6586 C   0  0  0  0  0  0  0  0  0  0  0  0
 23 24  1  0  0  0
 23 22  1  0  0  0
 24 25  1  0  0  0
 25 26  1  0  0  0
 33 34  2  0  0  0
 33 32  1  0  0  0
 34 35  1  0  0  0
 32 31  2  0  0  0
 22 21  1  0  0  0
 21 26  1  0  0  0
 26 20  1  0  0  0
 35 30  2  0  0  0
 20 19  1  0  0  0
 31 30  1  0  0  0
 30 28  1  0  0  0
 27 28  1  0  0  0
 27  9  1  0  0  0
 28 29  1  0  0  0
 19 18  1  0  0  0
  9  5  1  0  0  0
  9  8  1  0  0  0
  4  5  2  0  0  0
  4  1  1  0  0  0
 18  1  1  0  0  0
  5  6  1  0  0  0
  1  2  2  0  0  0
  8  7  2  0  0  0
  6  7  1  0  0  0
  6  3  2  0  0  0
  2  3  1  0  0  0
  3 10  1  0  0  0
 10 12  1  0  0  0
 13 12  2  0  0  0
 13 14  1  0  0  0
 12 17  1  0  0  0
 14 15  2  0  0  0
 17 16  2  0  0  0
 15 16  1  0  0  0
 10 11  1  0  0  0
M  END
> <minimizedAffinity>
-8.52490

$$$$
4O2P_11V_A_601


 35 39  0  0  0  0  0  0  0  0999 V2000
   -4.7021    7.3195   28.1482 C   0  0  0  0  0  0  0  0  0  0  0  0
   -3.3793    7.3393   27.9761 N   0  0  0  0  0  0  0  0  0  0  0  0
   -2.5950    6.6167   28.7841 C   0  0  0  0  0  0  0  0  0  0  0  0
   -5.2471    6.5778   29.1272 N   0  0  0  0  0  0  0  0  0  0  0  0
   -4.4530    5.8522   29.9384 C   0  0  0  0  0  0  0  0  0  0  0  0
   -3.1187    5.8723   29.7742 C   0  0  0  0  0  0  0  0  0  0  0  0
   -2.6030    5.0829   30.7195 C   0  0  0  0  0  0  0  0  0  0  0  0
   -3.6140    4.5790   31.4441 N   0  0  0  0  0  0  0  0  0  0  0  0
   -4.7364    5.0539   30.9752 N   0  0  0  0  0  0  0  0  0  0  0  0
   -1.2697    6.6291   28.6173 N   0  0  0  0  0  0  0  0  0  0  0  0
   -0.7280    5.8259   28.7929 H   0  0  0  0  0  0  0  0  0  0  0  0
   -0.6973    7.7774   28.2004 C   0  0  0  0  0  0  0  0  0  0  0  0
   -1.4581    8.9431   28.0530 C   0  0  0  0  0  0  0  0  0  0  0  0
   -0.8496   10.1288   27.6355 C   0  0  0  0  0  0  0  0  0  0  0  0
    0.5240   10.1596   27.3710 C   0  0  0  0  0  0  0  0  0  0  0  0
    1.2946    9.0047   27.5247 C   0  0  0  0  0  0  0  0  0  0  0  0
    0.6778    7.8189   27.9275 C   0  0  0  0  0  0  0  0  0  0  0  0
   -5.6535    8.2590   27.1009 S   0  0  0  0  0  0  0  0  0  0  0  0
   -7.0510    7.1169   26.8416 C   0  0  0  0  0  0  0  0  0  0  0  0
   -8.4121    7.7661   27.0578 C   0  0  0  0  0  0  0  0  0  0  0  0
   -8.7621    5.3940   27.3077 C   0  0  0  0  0  0  0  0  0  0  0  0
   -9.8021    4.2969   27.1985 C   0  0  0  0  0  0  0  0  0  0  0  0
  -10.8521    4.5330   28.1677 O   0  0  0  0  0  0  0  0  0  0  0  0
  -11.5026    5.8383   28.0828 C   0  0  0  0  0  0  0  0  0  0  0  0
  -10.4538    6.9534   28.1232 C   0  0  0  0  0  0  0  0  0  0  0  0
   -9.4120    6.7010   27.1103 N   0  0  0  0  0  0  0  0  0  0  0  0
   -6.1402    4.7882   31.4537 C   0  0  0  0  0  0  0  0  0  0  0  0
   -6.1978    3.4596   32.2356 C   0  0  0  0  0  0  0  0  0  0  0  0
   -7.2323    2.2633   31.3304 Cl  0  0  0  0  0  0  0  0  0  0  0  0
   -6.6444    3.6316   33.5622 C   0  0  0  0  0  0  0  0  0  0  0  0
   -7.8815    3.1026   33.9320 C   0  0  0  0  0  0  0  0  0  0  0  0
   -8.3701    3.2480   35.2314 C   0  0  0  0  0  0  0  0  0  0  0  0
   -7.6156    3.9283   36.1806 C   0  0  0  0  0  0  0  0  0  0  0  0
   -6.3768    4.4662   35.8201 C   0  0  0  0  0  0  0  0  0  0  0  0
   -5.8878    4.3187   34.5183 C   0  0  0  0  0  0  0  0  0  0  0  0
 23 24  1  0  0  0
 23 22  1  0  0  0
 24 25  1  0  0  0
 25 26  1  0  0  0
 33 34  2  0  0  0
 33 32  1  0  0  0
 34 35  1  0  0  0
 32 31  2  0  0  0
 22 21  1  0  0  0
 21 26  1  0  0  0
 26 20  1  0  0  0
 35 30  2  0  0  0
 20 19  1  0  0  0
 31 30  1  0  0  0
 30 28  1  0  0  0
 27 28  1  0  0  0
 27  9  1  0  0  0
 28 29  1  0  0  0
 19 18  1  0  0  0
  9  5  1  0  0  0
  9  8  1  0  0  0
  4  5  2  0  0  0
  4  1  1  0  0  0
 18  1  1  0  0  0
  5  6  1  0  0  0
  1  2  2  0  0  0
  8  7  2  0  0  0
  6  7  1  0  0  0
  6  3  2  0  0  0
  2  3  1  0  0  0
  3 10  1  0  0  0
 10 12  1  0  0  0
 13 12  2  0  0  0
 13 14  1  0  0  0
 12 17  1  0  0  0
 14 15  2  0  0  0
 17 16  2  0  0  0
 15 16  1  0  0  0
 10 11  1  0  0  0
M  END
> <minimizedAffinity>
-8.52062

$$$$
4O2P_11V_A_601


 35 39  0  0  0  0  0  0  0  0999 V2000
   -7.3412    6.3280   29.9275 C   0  0  0  0  0  0  0  0  0  0  0  0
   -6.0613    6.6594   29.7488 N   0  0  0  0  0  0  0  0  0  0  0  0
   -5.7421    7.9161   29.4186 C   0  0  0  0  0  0  0  0  0  0  0  0
   -8.3072    7.2500   29.7777 N   0  0  0  0  0  0  0  0  0  0  0  0
   -7.9805    8.5140   29.4448 C   0  0  0  0  0  0  0  0  0  0  0  0
   -6.6930    8.8533   29.2575 C   0  0  0  0  0  0  0  0  0  0  0  0
   -6.6805   10.1465   28.9260 C   0  0  0  0  0  0  0  0  0  0  0  0
   -7.9464   10.5920   28.9227 N   0  0  0  0  0  0  0  0  0  0  0  0
   -8.7360    9.5980   29.2286 N   0  0  0  0  0  0  0  0  0  0  0  0
   -4.4628    8.2569   29.2401 N   0  0  0  0  0  0  0  0  0  0  0  0
   -4.2172    9.1457   28.8953 H   0  0  0  0  0  0  0  0  0  0  0  0
   -3.5182    7.3440   29.5476 C   0  0  0  0  0  0  0  0  0  0  0  0
   -2.8214    7.4166   30.7594 C   0  0  0  0  0  0  0  0  0  0  0  0
   -1.8569    6.4560   31.0717 C   0  0  0  0  0  0  0  0  0  0  0  0
   -1.5886    5.4122   30.1794 C   0  0  0  0  0  0  0  0  0  0  0  0
   -2.2853    5.3244   28.9717 C   0  0  0  0  0  0  0  0  0  0  0  0
   -3.2373    6.2963   28.6585 C   0  0  0  0  0  0  0  0  0  0  0  0
   -7.6951    4.7187   30.3391 S   0  0  0  0  0  0  0  0  0  0  0  0
   -6.5880    4.5139   31.7734 C   0  0  0  0  0  0  0  0  0  0  0  0
   -6.6019    3.1052   32.3530 C   0  0  0  0  0  0  0  0  0  0  0  0
   -5.9376    4.3870   34.2837 C   0  0  0  0  0  0  0  0  0  0  0  0
   -5.9254    4.3909   35.7993 C   0  0  0  0  0  0  0  0  0  0  0  0
   -7.2881    4.3965   36.2900 O   0  0  0  0  0  0  0  0  0  0  0  0
   -8.1336    3.3074   35.8072 C   0  0  0  0  0  0  0  0  0  0  0  0
   -8.0985    3.2516   34.2772 C   0  0  0  0  0  0  0  0  0  0  0  0
   -6.7010    3.2211   33.8069 N   0  0  0  0  0  0  0  0  0  0  0  0
  -10.2379    9.5956   29.3489 C   0  0  0  0  0  0  0  0  0  0  0  0
  -10.6761    8.7725   30.5780 C   0  0  0  0  0  0  0  0  0  0  0  0
  -11.9693    7.5858   30.0879 Cl  0  0  0  0  0  0  0  0  0  0  0  0
  -11.0978    9.5851   31.6506 C   0  0  0  0  0  0  0  0  0  0  0  0
  -12.0145    9.0701   32.5680 C   0  0  0  0  0  0  0  0  0  0  0  0
  -12.4658    9.8345   33.6452 C   0  0  0  0  0  0  0  0  0  0  0  0
  -11.9960   11.1319   33.8158 C   0  0  0  0  0  0  0  0  0  0  0  0
  -11.0807   11.6596   32.9006 C   0  0  0  0  0  0  0  0  0  0  0  0
  -10.6285   10.8923   31.8225 C   0  0  0  0  0  0  0  0  0  0  0  0
 23 24  1  0  0  0
 23 22  1  0  0  0
 24 25  1  0  0  0
 25 26  1  0  0  0
 33 34  2  0  0  0
 33 32  1  0  0  0
 34 35  1  0  0  0
 32 31  2  0  0  0
 22 21  1  0  0  0
 21 26  1  0  0  0
 26 20  1  0  0  0
 35 30  2  0  0  0
 20 19  1  0  0  0
 31 30  1  0  0  0
 30 28  1  0  0  0
 27 28  1  0  0  0
 27  9  1  0  0  0
 28 29  1  0  0  0
 19 18  1  0  0  0
  9  5  1  0  0  0
  9  8  1  0  0  0
  4  5  2  0  0  0
  4  1  1  0  0  0
 18  1  1  0  0  0
  5  6  1  0  0  0
  1  2  2  0  0  0
  8  7  2  0  0  0
  6  7  1  0  0  0
  6  3  2  0  0  0
  2  3  1  0  0  0
  3 10  1  0  0  0
 10 12  1  0  0  0
 13 12  2  0  0  0
 13 14  1  0  0  0
 12 17  1  0  0  0
 14 15  2  0  0  0
 17 16  2  0  0  0
 15 16  1  0  0  0
 10 11  1  0  0  0
M  END
> <minimizedAffinity>
-8.29282

$$$$
4O2P_11V_A_601


 35 39  0  0  0  0  0  0  0  0999 V2000
   -8.3748    6.7373   29.4036 C   0  0  0  0  0  0  0  0  0  0  0  0
   -9.4072    7.5537   29.6218 N   0  0  0  0  0  0  0  0  0  0  0  0
   -9.3088    8.8479   29.2971 C   0  0  0  0  0  0  0  0  0  0  0  0
   -7.2404    7.2098   28.8599 N   0  0  0  0  0  0  0  0  0  0  0  0
   -7.1462    8.5140   28.5350 C   0  0  0  0  0  0  0  0  0  0  0  0
   -8.1809    9.3433   28.7577 C   0  0  0  0  0  0  0  0  0  0  0  0
   -7.7944   10.5566   28.3564 C   0  0  0  0  0  0  0  0  0  0  0  0
   -6.5416   10.4641   27.8841 N   0  0  0  0  0  0  0  0  0  0  0  0
   -6.1453    9.2253   28.0015 N   0  0  0  0  0  0  0  0  0  0  0  0
  -10.3387    9.6716   29.5101 N   0  0  0  0  0  0  0  0  0  0  0  0
  -10.9344    9.9411   28.7740 H   0  0  0  0  0  0  0  0  0  0  0  0
  -10.5362   10.1225   30.7663 C   0  0  0  0  0  0  0  0  0  0  0  0
  -11.1336    9.3056   31.7333 C   0  0  0  0  0  0  0  0  0  0  0  0
  -11.3180    9.7797   33.0340 C   0  0  0  0  0  0  0  0  0  0  0  0
  -10.8991   11.0694   33.3789 C   0  0  0  0  0  0  0  0  0  0  0  0
  -10.2926   11.8893   32.4243 C   0  0  0  0  0  0  0  0  0  0  0  0
  -10.1250   11.4152   31.1220 C   0  0  0  0  0  0  0  0  0  0  0  0
   -8.5470    5.1048   29.8392 S   0  0  0  0  0  0  0  0  0  0  0  0
   -7.0221    4.8803   30.8133 C   0  0  0  0  0  0  0  0  0  0  0  0
   -7.0534    3.6514   31.7131 C   0  0  0  0  0  0  0  0  0  0  0  0
   -7.7470    3.1144   33.9586 C   0  0  0  0  0  0  0  0  0  0  0  0
   -7.9123    3.6851   35.3529 C   0  0  0  0  0  0  0  0  0  0  0  0
   -6.6161    4.0747   35.8686 O   0  0  0  0  0  0  0  0  0  0  0  0
   -5.8666    5.0139   35.0378 C   0  0  0  0  0  0  0  0  0  0  0  0
   -5.7530    4.4780   33.6077 C   0  0  0  0  0  0  0  0  0  0  0  0
   -7.0886    4.1135   33.0995 N   0  0  0  0  0  0  0  0  0  0  0  0
   -4.8183    8.6244   27.6167 C   0  0  0  0  0  0  0  0  0  0  0  0
   -3.7518    8.9531   28.6818 C   0  0  0  0  0  0  0  0  0  0  0  0
   -2.5238   10.1029   27.9809 Cl  0  0  0  0  0  0  0  0  0  0  0  0
   -3.1386    7.7973   29.2079 C   0  0  0  0  0  0  0  0  0  0  0  0
   -2.5419    7.8634   30.4675 C   0  0  0  0  0  0  0  0  0  0  0  0
   -1.9194    6.7486   31.0315 C   0  0  0  0  0  0  0  0  0  0  0  0
   -1.8915    5.5466   30.3334 C   0  0  0  0  0  0  0  0  0  0  0  0
   -2.4822    5.4700   29.0688 C   0  0  0  0  0  0  0  0  0  0  0  0
   -3.1067    6.5872   28.5054 C   0  0  0  0  0  0  0  0  0  0  0  0
 23 24  1  0  0  0
 23 22  1  0  0  0
 24 25  1  0  0  0
 25 26  1  0  0  0
 33 34  2  0  0  0
 33 32  1  0  0  0
 34 35  1  0  0  0
 32 31  2  0  0  0
 22 21  1  0  0  0
 21 26  1  0  0  0
 26 20  1  0  0  0
 35 30  2  0  0  0
 20 19  1  0  0  0
 31 30  1  0  0  0
 30 28  1  0  0  0
 27 28  1  0  0  0
 27  9  1  0  0  0
 28 29  1  0  0  0
 19 18  1  0  0  0
  9  5  1  0  0  0
  9  8  1  0  0  0
  4  5  2  0  0  0
  4  1  1  0  0  0
 18  1  1  0  0  0
  5  6  1  0  0  0
  1  2  2  0  0  0
  8  7  2  0  0  0
  6  7  1  0  0  0
  6  3  2  0  0  0
  2  3  1  0  0  0
  3 10  1  0  0  0
 10 12  1  0  0  0
 13 12  2  0  0  0
 13 14  1  0  0  0
 12 17  1  0  0  0
 14 15  2  0  0  0
 17 16  2  0  0  0
 15 16  1  0  0  0
 10 11  1  0  0  0
M  END
> <minimizedAffinity>
-8.27961

$$$$
4O2P_11V_A_601


 35 39  0  0  0  0  0  0  0  0999 V2000
   -3.9102    5.7953   30.7654 C   0  0  0  0  0  0  0  0  0  0  0  0
   -4.2808    4.7318   31.4806 N   0  0  0  0  0  0  0  0  0  0  0  0
   -5.5498    4.3105   31.4328 C   0  0  0  0  0  0  0  0  0  0  0  0
   -4.8050    6.4420   29.9994 N   0  0  0  0  0  0  0  0  0  0  0  0
   -6.0818    6.0141   29.9550 C   0  0  0  0  0  0  0  0  0  0  0  0
   -6.4632    4.9465   30.6778 C   0  0  0  0  0  0  0  0  0  0  0  0
   -7.7668    4.7725   30.4481 C   0  0  0  0  0  0  0  0  0  0  0  0
   -8.1717    5.7177   29.5857 N   0  0  0  0  0  0  0  0  0  0  0  0
   -7.1501    6.4769   29.2939 N   0  0  0  0  0  0  0  0  0  0  0  0
   -5.9288    3.2451   32.1440 N   0  0  0  0  0  0  0  0  0  0  0  0
   -5.8046    2.3322   31.7968 H   0  0  0  0  0  0  0  0  0  0  0  0
   -6.4871    3.4602   33.3532 C   0  0  0  0  0  0  0  0  0  0  0  0
   -5.8422    4.2562   34.3070 C   0  0  0  0  0  0  0  0  0  0  0  0
   -6.4388    4.4831   35.5492 C   0  0  0  0  0  0  0  0  0  0  0  0
   -7.6870    3.9235   35.8431 C   0  0  0  0  0  0  0  0  0  0  0  0
   -8.3441    3.1358   34.8948 C   0  0  0  0  0  0  0  0  0  0  0  0
   -7.7356    2.9001   33.6607 C   0  0  0  0  0  0  0  0  0  0  0  0
   -2.2899    6.2943   30.8653 S   0  0  0  0  0  0  0  0  0  0  0  0
   -1.9400    6.5708   29.0973 C   0  0  0  0  0  0  0  0  0  0  0  0
   -0.7058    7.4291   28.8510 C   0  0  0  0  0  0  0  0  0  0  0  0
   -2.3056    9.1909   28.4658 C   0  0  0  0  0  0  0  0  0  0  0  0
   -2.7735   10.2118   27.4480 C   0  0  0  0  0  0  0  0  0  0  0  0
   -1.7046   11.1534   27.1867 O   0  0  0  0  0  0  0  0  0  0  0  0
   -0.4419   10.5638   26.7482 C   0  0  0  0  0  0  0  0  0  0  0  0
    0.0052    9.4816   27.7351 C   0  0  0  0  0  0  0  0  0  0  0  0
   -1.0927    8.5237   27.9627 N   0  0  0  0  0  0  0  0  0  0  0  0
   -7.1004    7.6712   28.3767 C   0  0  0  0  0  0  0  0  0  0  0  0
   -6.8669    7.2195   26.9202 C   0  0  0  0  0  0  0  0  0  0  0  0
   -5.1291    7.5183   26.4600 Cl  0  0  0  0  0  0  0  0  0  0  0  0
   -7.7560    7.8338   26.0143 C   0  0  0  0  0  0  0  0  0  0  0  0
   -7.2347    8.5168   24.9148 C   0  0  0  0  0  0  0  0  0  0  0  0
   -8.0718    9.1443   23.9907 C   0  0  0  0  0  0  0  0  0  0  0  0
   -9.4507    9.0899   24.1601 C   0  0  0  0  0  0  0  0  0  0  0  0
   -9.9839    8.4121   25.2603 C   0  0  0  0  0  0  0  0  0  0  0  0
   -9.1442    7.7829   26.1847 C   0  0  0  0  0  0  0  0  0  0  0  0
 23 24  1  0  0  0
 23 22  1  0  0  0
 24 25  1  0  0  0
 25 26  1  0  0  0
 33 34  2  0  0  0
 33 32  1  0  0  0
 34 35  1  0  0  0
 32 31  2  0  0  0
 22 21  1  0  0  0
 21 26  1  0  0  0
 26 20  1  0  0  0
 35 30  2  0  0  0
 20 19  1  0  0  0
 31 30  1  0  0  0
 30 28  1  0  0  0
 27 28  1  0  0  0
 27  9  1  0  0  0
 28 29  1  0  0  0
 19 18  1  0  0  0
  9  5  1  0  0  0
  9  8  1  0  0  0
  4  5  2  0  0  0
  4  1  1  0  0  0
 18  1  1  0  0  0
  5  6  1  0  0  0
  1  2  2  0  0  0
  8  7  2  0  0  0
  6  7  1  0  0  0
  6  3  2  0  0  0
  2  3  1  0  0  0
  3 10  1  0  0  0
 10 12  1  0  0  0
 13 12  2  0  0  0
 13 14  1  0  0  0
 12 17  1  0  0  0
 14 15  2  0  0  0
 17 16  2  0  0  0
 15 16  1  0  0  0
 10 11  1  0  0  0
M  END
> <minimizedAffinity>
-8.15897

$$$$
