4UP5_94W_A_1385


 14 15  0  0  0  0  0  0  0  0999 V2000
  -23.0892   11.7291   -4.6520 C   0  0  0  0  0  0  0  0  0  0  0  0
  -22.6921   10.4002   -4.6542 C   0  0  0  0  0  0  0  0  0  0  0  0
  -21.3333   10.1275   -4.6958 C   0  0  0  0  0  0  0  0  0  0  0  0
  -20.3800   11.1492   -4.7337 C   0  0  0  0  0  0  0  0  0  0  0  0
  -20.8063   12.4761   -4.7311 C   0  0  0  0  0  0  0  0  0  0  0  0
  -22.1613   12.7605   -4.6903 C   0  0  0  0  0  0  0  0  0  0  0  0
  -19.0526   10.7211   -4.7731 N   0  0  0  0  0  0  0  0  0  0  0  0
  -18.9908    9.4144   -4.7640 C   0  0  0  0  0  0  0  0  0  0  0  0
  -17.8510    8.7150   -4.7952 N   0  0  0  0  0  0  0  0  0  0  0  0
  -20.5380    8.5783   -4.7088 S   0  0  0  0  0  0  0  0  0  0  0  0
  -16.9861    9.1844   -4.8260 H   0  0  0  0  0  0  0  0  0  0  0  0
  -17.8769    7.7309   -4.7872 H   0  0  0  0  0  0  0  0  0  0  0  0
  -24.4251   12.0292   -4.6124 O   0  0  0  0  0  0  0  0  0  0  0  0
  -25.3292   10.9748   -4.2946 C   0  0  0  0  0  0  0  0  0  0  0  0
  1 13  1  0  0  0
  1  2  1  0  0  0
  1  6  2  0  0  0
 13 14  1  0  0  0
  2  3  2  0  0  0
  3  4  1  0  0  0
  3 10  1  0  0  0
  4  5  2  0  0  0
  4  7  1  0  0  0
  5  6  1  0  0  0
  7  8  2  0  0  0
  8  9  1  0  0  0
  8 10  1  0  0  0
  9 11  1  0  0  0
  9 12  1  0  0  0
M  END
> <minimizedAffinity>
-4.86590

$$$$
4UP5_94W_A_1385


 14 15  0  0  0  0  0  0  0  0999 V2000
  -20.8329   11.4035   -4.7852 C   0  0  0  0  0  0  0  0  0  0  0  0
  -21.7662   10.3778   -4.7609 C   0  0  0  0  0  0  0  0  0  0  0  0
  -23.0974   10.7143   -4.5685 C   0  0  0  0  0  0  0  0  0  0  0  0
  -23.5030   12.0419   -4.4034 C   0  0  0  0  0  0  0  0  0  0  0  0
  -22.5444   13.0531   -4.4314 C   0  0  0  0  0  0  0  0  0  0  0  0
  -21.2114   12.7288   -4.6224 C   0  0  0  0  0  0  0  0  0  0  0  0
  -24.8739   12.2250   -4.2195 N   0  0  0  0  0  0  0  0  0  0  0  0
  -25.4985   11.0758   -4.2446 C   0  0  0  0  0  0  0  0  0  0  0  0
  -26.8202   10.9346   -4.0952 N   0  0  0  0  0  0  0  0  0  0  0  0
  -24.4820    9.6609   -4.4917 S   0  0  0  0  0  0  0  0  0  0  0  0
  -27.3875   11.7272   -3.9570 H   0  0  0  0  0  0  0  0  0  0  0  0
  -27.2257   10.0379   -4.1235 H   0  0  0  0  0  0  0  0  0  0  0  0
  -19.5100   11.1015   -4.9725 O   0  0  0  0  0  0  0  0  0  0  0  0
  -18.9597   10.0392   -4.1986 C   0  0  0  0  0  0  0  0  0  0  0  0
  1 13  1  0  0  0
  1  2  1  0  0  0
  1  6  2  0  0  0
 13 14  1  0  0  0
  2  3  2  0  0  0
  3  4  1  0  0  0
  3 10  1  0  0  0
  4  5  2  0  0  0
  4  7  1  0  0  0
  5  6  1  0  0  0
  7  8  2  0  0  0
  8  9  1  0  0  0
  8 10  1  0  0  0
  9 11  1  0  0  0
  9 12  1  0  0  0
M  END
> <minimizedAffinity>
-4.44864

$$$$
4UP5_94W_A_1385


 14 15  0  0  0  0  0  0  0  0999 V2000
  -23.2818   10.8071   -4.5906 C   0  0  0  0  0  0  0  0  0  0  0  0
  -21.9842   11.2297   -4.3431 C   0  0  0  0  0  0  0  0  0  0  0  0
  -20.9528   10.3322   -4.5735 C   0  0  0  0  0  0  0  0  0  0  0  0
  -21.1964    9.0379   -5.0419 C   0  0  0  0  0  0  0  0  0  0  0  0
  -22.5100    8.6387   -5.2820 C   0  0  0  0  0  0  0  0  0  0  0  0
  -23.5485    9.5266   -5.0547 C   0  0  0  0  0  0  0  0  0  0  0  0
  -20.0599    8.2498   -5.2262 N   0  0  0  0  0  0  0  0  0  0  0  0
  -18.9808    8.9188   -4.9111 C   0  0  0  0  0  0  0  0  0  0  0  0
  -17.7403    8.4240   -4.9859 N   0  0  0  0  0  0  0  0  0  0  0  0
  -19.2410   10.5689   -4.3584 S   0  0  0  0  0  0  0  0  0  0  0  0
  -17.5964    7.5006   -5.2953 H   0  0  0  0  0  0  0  0  0  0  0  0
  -16.9711    8.9833   -4.7314 H   0  0  0  0  0  0  0  0  0  0  0  0
  -24.3215   11.6715   -4.3711 O   0  0  0  0  0  0  0  0  0  0  0  0
  -25.6294   11.1167   -4.2631 C   0  0  0  0  0  0  0  0  0  0  0  0
  1 13  1  0  0  0
  1  2  1  0  0  0
  1  6  2  0  0  0
 13 14  1  0  0  0
  2  3  2  0  0  0
  3  4  1  0  0  0
  3 10  1  0  0  0
  4  5  2  0  0  0
  4  7  1  0  0  0
  5  6  1  0  0  0
  7  8  2  0  0  0
  8  9  1  0  0  0
  8 10  1  0  0  0
  9 11  1  0  0  0
  9 12  1  0  0  0
M  END
> <minimizedAffinity>
-4.41151

$$$$
4UP5_94W_A_1385


 14 15  0  0  0  0  0  0  0  0999 V2000
  -20.0059   10.4228   -4.6784 C   0  0  0  0  0  0  0  0  0  0  0  0
  -20.7268   11.6058   -4.7460 C   0  0  0  0  0  0  0  0  0  0  0  0
  -22.1106   11.5270   -4.7132 C   0  0  0  0  0  0  0  0  0  0  0  0
  -22.7743   10.3006   -4.6143 C   0  0  0  0  0  0  0  0  0  0  0  0
  -22.0258    9.1269   -4.5486 C   0  0  0  0  0  0  0  0  0  0  0  0
  -20.6426    9.1934   -4.5812 C   0  0  0  0  0  0  0  0  0  0  0  0
  -24.1671   10.3799   -4.5923 N   0  0  0  0  0  0  0  0  0  0  0  0
  -24.5579   11.6259   -4.6700 C   0  0  0  0  0  0  0  0  0  0  0  0
  -25.8379   12.0141   -4.6715 N   0  0  0  0  0  0  0  0  0  0  0  0
  -23.2725   12.8225   -4.7795 S   0  0  0  0  0  0  0  0  0  0  0  0
  -26.5559   11.3433   -4.6102 H   0  0  0  0  0  0  0  0  0  0  0  0
  -26.0621   12.9708   -4.7340 H   0  0  0  0  0  0  0  0  0  0  0  0
  -18.6373   10.4693   -4.7098 O   0  0  0  0  0  0  0  0  0  0  0  0
  -17.9383    9.2361   -4.8541 C   0  0  0  0  0  0  0  0  0  0  0  0
  1 13  1  0  0  0
  1  2  1  0  0  0
  1  6  2  0  0  0
 13 14  1  0  0  0
  2  3  2  0  0  0
  3  4  1  0  0  0
  3 10  1  0  0  0
  4  5  2  0  0  0
  4  7  1  0  0  0
  5  6  1  0  0  0
  7  8  2  0  0  0
  8  9  1  0  0  0
  8 10  1  0  0  0
  9 11  1  0  0  0
  9 12  1  0  0  0
M  END
> <minimizedAffinity>
-4.36776

$$$$
4UP5_94W_A_1385


 14 15  0  0  0  0  0  0  0  0999 V2000
  -23.3590   12.6118   -4.4646 C   0  0  0  0  0  0  0  0  0  0  0  0
  -23.7041   11.2697   -4.5211 C   0  0  0  0  0  0  0  0  0  0  0  0
  -22.6948   10.3479   -4.7536 C   0  0  0  0  0  0  0  0  0  0  0  0
  -21.3650   10.7428   -4.9267 C   0  0  0  0  0  0  0  0  0  0  0  0
  -21.0458   12.0980   -4.8657 C   0  0  0  0  0  0  0  0  0  0  0  0
  -22.0459   13.0280   -4.6347 C   0  0  0  0  0  0  0  0  0  0  0  0
  -20.4620    9.7034   -5.1523 N   0  0  0  0  0  0  0  0  0  0  0  0
  -21.0791    8.5499   -5.1504 C   0  0  0  0  0  0  0  0  0  0  0  0
  -20.4736    7.3725   -5.3411 N   0  0  0  0  0  0  0  0  0  0  0  0
  -22.8160    8.6150   -4.8767 S   0  0  0  0  0  0  0  0  0  0  0  0
  -19.5017    7.3379   -5.4942 H   0  0  0  0  0  0  0  0  0  0  0  0
  -20.9999    6.5406   -5.3284 H   0  0  0  0  0  0  0  0  0  0  0  0
  -24.3350   13.5457   -4.2374 O   0  0  0  0  0  0  0  0  0  0  0  0
  -25.4123   13.6138   -5.1675 C   0  0  0  0  0  0  0  0  0  0  0  0
  1 13  1  0  0  0
  1  2  1  0  0  0
  1  6  2  0  0  0
 13 14  1  0  0  0
  2  3  2  0  0  0
  3  4  1  0  0  0
  3 10  1  0  0  0
  4  5  2  0  0  0
  4  7  1  0  0  0
  5  6  1  0  0  0
  7  8  2  0  0  0
  8  9  1  0  0  0
  8 10  1  0  0  0
  9 11  1  0  0  0
  9 12  1  0  0  0
M  END
> <minimizedAffinity>
-4.32973

$$$$
4UP5_94W_A_1385


 14 15  0  0  0  0  0  0  0  0999 V2000
  -20.0301   10.6527   -4.6013 C   0  0  0  0  0  0  0  0  0  0  0  0
  -20.8028    9.5021   -4.5487 C   0  0  0  0  0  0  0  0  0  0  0  0
  -22.1763    9.6343   -4.6841 C   0  0  0  0  0  0  0  0  0  0  0  0
  -22.7794   10.8817   -4.8697 C   0  0  0  0  0  0  0  0  0  0  0  0
  -21.9796   12.0220   -4.9182 C   0  0  0  0  0  0  0  0  0  0  0  0
  -20.6063   11.9022   -4.7834 C   0  0  0  0  0  0  0  0  0  0  0  0
  -24.1692   10.8568   -4.9900 N   0  0  0  0  0  0  0  0  0  0  0  0
  -24.6163    9.6306   -4.9013 C   0  0  0  0  0  0  0  0  0  0  0  0
  -25.9083    9.2934   -4.9802 N   0  0  0  0  0  0  0  0  0  0  0  0
  -23.3931    8.3887   -4.6612 S   0  0  0  0  0  0  0  0  0  0  0  0
  -26.5914    9.9895   -5.1146 H   0  0  0  0  0  0  0  0  0  0  0  0
  -26.1762    8.3491   -4.9039 H   0  0  0  0  0  0  0  0  0  0  0  0
  -18.6703   10.5534   -4.4694 O   0  0  0  0  0  0  0  0  0  0  0  0
  -18.0584    9.3245   -4.8508 C   0  0  0  0  0  0  0  0  0  0  0  0
  1 13  1  0  0  0
  1  2  1  0  0  0
  1  6  2  0  0  0
 13 14  1  0  0  0
  2  3  2  0  0  0
  3  4  1  0  0  0
  3 10  1  0  0  0
  4  5  2  0  0  0
  4  7  1  0  0  0
  5  6  1  0  0  0
  7  8  2  0  0  0
  8  9  1  0  0  0
  8 10  1  0  0  0
  9 11  1  0  0  0
  9 12  1  0  0  0
M  END
> <minimizedAffinity>
-4.25127

$$$$
4UP5_94W_A_1385


 14 15  0  0  0  0  0  0  0  0999 V2000
  -20.8880    9.2924   -4.9766 C   0  0  0  0  0  0  0  0  0  0  0  0
  -22.2702    9.3931   -4.9214 C   0  0  0  0  0  0  0  0  0  0  0  0
  -22.8224   10.6433   -4.6882 C   0  0  0  0  0  0  0  0  0  0  0  0
  -22.0244   11.7776   -4.5129 C   0  0  0  0  0  0  0  0  0  0  0  0
  -20.6381   11.6483   -4.5726 C   0  0  0  0  0  0  0  0  0  0  0  0
  -20.0751   10.4041   -4.8044 C   0  0  0  0  0  0  0  0  0  0  0  0
  -22.7220   12.9646   -4.2867 N   0  0  0  0  0  0  0  0  0  0  0  0
  -24.0120   12.7474   -4.2902 C   0  0  0  0  0  0  0  0  0  0  0  0
  -24.9352   13.6964   -4.0995 N   0  0  0  0  0  0  0  0  0  0  0  0
  -24.5036   11.0807   -4.5664 S   0  0  0  0  0  0  0  0  0  0  0  0
  -24.6583   14.6285   -3.9451 H   0  0  0  0  0  0  0  0  0  0  0  0
  -25.8914   13.4628   -4.1135 H   0  0  0  0  0  0  0  0  0  0  0  0
  -20.3137    8.0699   -5.2044 O   0  0  0  0  0  0  0  0  0  0  0  0
  -21.1336    7.0507   -5.7694 C   0  0  0  0  0  0  0  0  0  0  0  0
  1 13  1  0  0  0
  1  2  1  0  0  0
  1  6  2  0  0  0
 13 14  1  0  0  0
  2  3  2  0  0  0
  3  4  1  0  0  0
  3 10  1  0  0  0
  4  5  2  0  0  0
  4  7  1  0  0  0
  5  6  1  0  0  0
  7  8  2  0  0  0
  8  9  1  0  0  0
  8 10  1  0  0  0
  9 11  1  0  0  0
  9 12  1  0  0  0
M  END
> <minimizedAffinity>
-4.04398

$$$$
4UP5_94W_A_1385


 14 15  0  0  0  0  0  0  0  0999 V2000
  -22.9115   11.0203   -4.6017 C   0  0  0  0  0  0  0  0  0  0  0  0
  -23.4333    9.7946   -4.9877 C   0  0  0  0  0  0  0  0  0  0  0  0
  -22.5444    8.7653   -5.2577 C   0  0  0  0  0  0  0  0  0  0  0  0
  -21.1619    8.9410   -5.1480 C   0  0  0  0  0  0  0  0  0  0  0  0
  -20.6642   10.1832   -4.7587 C   0  0  0  0  0  0  0  0  0  0  0  0
  -21.5427   11.2190   -4.4870 C   0  0  0  0  0  0  0  0  0  0  0  0
  -20.3949    7.8158   -5.4515 N   0  0  0  0  0  0  0  0  0  0  0  0
  -21.1642    6.8105   -5.7813 C   0  0  0  0  0  0  0  0  0  0  0  0
  -20.7131    5.5986   -6.1234 N   0  0  0  0  0  0  0  0  0  0  0  0
  -22.8936    7.1339   -5.7570 S   0  0  0  0  0  0  0  0  0  0  0  0
  -19.7452    5.4193   -6.1365 H   0  0  0  0  0  0  0  0  0  0  0  0
  -21.3490    4.8859   -6.3622 H   0  0  0  0  0  0  0  0  0  0  0  0
  -23.7652   12.0563   -4.3294 O   0  0  0  0  0  0  0  0  0  0  0  0
  -23.2032   13.3599   -4.2073 C   0  0  0  0  0  0  0  0  0  0  0  0
  1 13  1  0  0  0
  1  2  1  0  0  0
  1  6  2  0  0  0
 13 14  1  0  0  0
  2  3  2  0  0  0
  3  4  1  0  0  0
  3 10  1  0  0  0
  4  5  2  0  0  0
  4  7  1  0  0  0
  5  6  1  0  0  0
  7  8  2  0  0  0
  8  9  1  0  0  0
  8 10  1  0  0  0
  9 11  1  0  0  0
  9 12  1  0  0  0
M  END
> <minimizedAffinity>
-3.85039

$$$$
4UP5_94W_A_1385


 14 15  0  0  0  0  0  0  0  0999 V2000
  -23.9868   12.4204   -4.3357 C   0  0  0  0  0  0  0  0  0  0  0  0
  -22.6152   12.2204   -4.3840 C   0  0  0  0  0  0  0  0  0  0  0  0
  -22.1532   10.9313   -4.6006 C   0  0  0  0  0  0  0  0  0  0  0  0
  -23.0298    9.8553   -4.7681 C   0  0  0  0  0  0  0  0  0  0  0  0
  -24.4035   10.0840   -4.7145 C   0  0  0  0  0  0  0  0  0  0  0  0
  -24.8766   11.3677   -4.4980 C   0  0  0  0  0  0  0  0  0  0  0  0
  -22.4182    8.6189   -4.9777 N   0  0  0  0  0  0  0  0  0  0  0  0
  -21.1160    8.7435   -4.9728 C   0  0  0  0  0  0  0  0  0  0  0  0
  -20.2625    7.7287   -5.1488 N   0  0  0  0  0  0  0  0  0  0  0  0
  -20.5072   10.3734   -4.7110 S   0  0  0  0  0  0  0  0  0  0  0  0
  -20.6049    6.8173   -5.2952 H   0  0  0  0  0  0  0  0  0  0  0  0
  -19.2920    7.8932   -5.1321 H   0  0  0  0  0  0  0  0  0  0  0  0
  -24.4728   13.6831   -4.1220 O   0  0  0  0  0  0  0  0  0  0  0  0
  -25.6173   14.0850   -4.8696 C   0  0  0  0  0  0  0  0  0  0  0  0
  1 13  1  0  0  0
  1  2  1  0  0  0
  1  6  2  0  0  0
 13 14  1  0  0  0
  2  3  2  0  0  0
  3  4  1  0  0  0
  3 10  1  0  0  0
  4  5  2  0  0  0
  4  7  1  0  0  0
  5  6  1  0  0  0
  7  8  2  0  0  0
  8  9  1  0  0  0
  8 10  1  0  0  0
  9 11  1  0  0  0
  9 12  1  0  0  0
M  END
> <minimizedAffinity>
-3.82546

$$$$
4UP5_94W_A_1385


 14 15  0  0  0  0  0  0  0  0999 V2000
  -21.6545    9.1259   -5.1131 C   0  0  0  0  0  0  0  0  0  0  0  0
  -21.4215   10.4786   -4.9138 C   0  0  0  0  0  0  0  0  0  0  0  0
  -22.5117   11.2951   -4.6549 C   0  0  0  0  0  0  0  0  0  0  0  0
  -23.8121   10.7861   -4.5922 C   0  0  0  0  0  0  0  0  0  0  0  0
  -24.0183    9.4230   -4.7969 C   0  0  0  0  0  0  0  0  0  0  0  0
  -22.9367    8.5977   -5.0570 C   0  0  0  0  0  0  0  0  0  0  0  0
  -24.8057   11.7280   -4.3233 N   0  0  0  0  0  0  0  0  0  0  0  0
  -24.2837   12.9192   -4.1828 C   0  0  0  0  0  0  0  0  0  0  0  0
  -24.9904   14.0239   -3.9190 N   0  0  0  0  0  0  0  0  0  0  0  0
  -22.5361   13.0122   -4.3655 S   0  0  0  0  0  0  0  0  0  0  0  0
  -25.9681   13.9701   -3.8171 H   0  0  0  0  0  0  0  0  0  0  0  0
  -24.5328   14.8907   -3.8268 H   0  0  0  0  0  0  0  0  0  0  0  0
  -20.5969    8.2947   -5.3719 O   0  0  0  0  0  0  0  0  0  0  0  0
  -20.8900    6.9649   -5.7914 C   0  0  0  0  0  0  0  0  0  0  0  0
  1 13  1  0  0  0
  1  2  1  0  0  0
  1  6  2  0  0  0
 13 14  1  0  0  0
  2  3  2  0  0  0
  3  4  1  0  0  0
  3 10  1  0  0  0
  4  5  2  0  0  0
  4  7  1  0  0  0
  5  6  1  0  0  0
  7  8  2  0  0  0
  8  9  1  0  0  0
  8 10  1  0  0  0
  9 11  1  0  0  0
  9 12  1  0  0  0
M  END
> <minimizedAffinity>
-3.74841

$$$$
