2VVU_H22_A_1244


 34 37  0  0  0  0  0  0  0  0999 V2000
   -5.2281   10.7107   21.3777 N   0  0  0  0  0  0  0  0  0  0  0  0
   -5.3904   11.9819   20.9734 C   0  0  0  0  0  0  0  0  0  0  0  0
   -5.7686   12.2910   19.8546 O   0  0  0  0  0  0  0  0  0  0  0  0
   -4.8591   10.5274   22.2718 H   0  0  0  0  0  0  0  0  0  0  0  0
   -3.3802    9.6677   19.6638 F   0  0  0  0  0  0  0  0  0  0  0  0
   -4.6201    9.1505   19.6961 C   0  0  0  0  0  0  0  0  0  0  0  0
   -4.9178    8.0978   18.8409 C   0  0  0  0  0  0  0  0  0  0  0  0
   -6.1847    7.5458   18.8493 C   0  0  0  0  0  0  0  0  0  0  0  0
   -7.1522    8.0543   19.7241 C   0  0  0  0  0  0  0  0  0  0  0  0
   -6.8476    9.1174   20.5913 C   0  0  0  0  0  0  0  0  0  0  0  0
   -5.5683    9.6745   20.5647 C   0  0  0  0  0  0  0  0  0  0  0  0
   -6.4547    6.4788   17.9579 N   0  0  0  0  0  0  0  0  0  0  0  0
   -6.3536    5.2202   18.3720 C   0  0  0  0  0  0  0  0  0  0  0  0
   -6.6161    4.1502   17.5269 C   0  0  0  0  0  0  0  0  0  0  0  0
   -7.0101    4.3037   16.1345 C   0  0  0  0  0  0  0  0  0  0  0  0
   -7.0942    5.6992   15.7316 C   0  0  0  0  0  0  0  0  0  0  0  0
   -6.8310    6.7324   16.6140 C   0  0  0  0  0  0  0  0  0  0  0  0
   -6.9336    7.9983   16.1448 O   0  0  0  0  0  0  0  0  0  0  0  0
   -5.1018   13.1017   21.9515 C   0  0  0  0  0  0  0  0  0  0  0  0
   -4.9656   12.5866   23.3176 N   0  0  0  0  0  0  0  0  0  0  0  0
   -3.6168   12.0279   23.5545 C   0  0  0  0  0  0  0  0  0  0  0  0
   -3.1613   12.4637   24.9455 C   0  0  0  0  0  0  0  0  0  0  0  0
   -4.2983   13.3272   25.4812 C   0  0  0  0  0  0  0  0  0  0  0  0
   -5.1706   13.6835   24.2768 C   0  0  0  0  0  0  0  0  0  0  0  0
   -3.0715   11.2630   25.7796 N   0  0  0  0  0  0  0  0  0  0  0  0
   -1.9714   10.5103   25.7293 C   0  0  0  0  0  0  0  0  0  0  0  0
   -1.0403   10.8022   24.9909 O   0  0  0  0  0  0  0  0  0  0  0  0
   -3.8169   11.0136   26.3724 H   0  0  0  0  0  0  0  0  0  0  0  0
   -1.8426    9.2812   26.5620 C   0  0  0  0  0  0  0  0  0  0  0  0
   -2.5226    8.7782   27.6816 C   0  0  0  0  0  0  0  0  0  0  0  0
   -2.0205    7.5505   28.1002 C   0  0  0  0  0  0  0  0  0  0  0  0
   -0.5672    8.2583   25.9715 S   0  0  0  0  0  0  0  0  0  0  0  0
   -0.9751    7.1847   27.2618 C   0  0  0  0  0  0  0  0  0  0  0  0
   -0.0226    5.6185   27.4510 Cl  0  0  0  0  0  0  0  0  0  0  0  0
  5  6  1  0  0  0
  6  7  1  0  0  0
  6 11  2  0  0  0
  7  8  2  0  0  0
  8 12  1  0  0  0
  8  9  1  0  0  0
 12 13  1  0  0  0
 12 17  1  0  0  0
 13 14  2  0  0  0
 14 15  1  0  0  0
 15 16  2  0  0  0
 16 17  1  0  0  0
 17 18  2  0  0  0
  9 10  2  0  0  0
 10 11  1  0  0  0
 11  1  1  0  0  0
  1  2  1  0  0  0
  2  3  2  0  0  0
  2 19  1  0  0  0
 19 20  1  0  0  0
 20 21  1  0  0  0
 20 24  1  0  0  0
 21 22  1  0  0  0
 23 22  1  0  0  0
 23 24  1  0  0  0
 22 25  1  0  0  0
 25 26  1  0  0  0
 26 27  2  0  0  0
 26 29  1  0  0  0
 29 30  2  0  0  0
 29 32  1  0  0  0
 30 31  1  0  0  0
 31 33  2  0  0  0
 32 33  1  0  0  0
 33 34  1  0  0  0
  1  4  1  0  0  0
 25 28  1  0  0  0
M  END
> <minimizedAffinity>
-10.69586

$$$$
2VVU_H22_A_1244


 34 37  0  0  0  0  0  0  0  0999 V2000
   -4.9543   11.3146   21.2147 N   0  0  0  0  0  0  0  0  0  0  0  0
   -5.1273   12.6288   20.9948 C   0  0  0  0  0  0  0  0  0  0  0  0
   -5.6046   13.0838   19.9674 O   0  0  0  0  0  0  0  0  0  0  0  0
   -4.5050   11.0134   22.0373 H   0  0  0  0  0  0  0  0  0  0  0  0
   -3.2106   10.2416   19.4124 F   0  0  0  0  0  0  0  0  0  0  0  0
   -4.4976    9.8553   19.3999 C   0  0  0  0  0  0  0  0  0  0  0  0
   -4.8958    8.9194   18.4544 C   0  0  0  0  0  0  0  0  0  0  0  0
   -6.2131    8.5034   18.4151 C   0  0  0  0  0  0  0  0  0  0  0  0
   -7.1298    9.0300   19.3329 C   0  0  0  0  0  0  0  0  0  0  0  0
   -6.7237    9.9744   20.2912 C   0  0  0  0  0  0  0  0  0  0  0  0
   -5.3934   10.3957   20.3129 C   0  0  0  0  0  0  0  0  0  0  0  0
   -6.5849    7.5538   17.4323 N   0  0  0  0  0  0  0  0  0  0  0  0
   -7.2504    7.9394   16.3486 C   0  0  0  0  0  0  0  0  0  0  0  0
   -7.6259    7.0366   15.3627 C   0  0  0  0  0  0  0  0  0  0  0  0
   -7.3393    5.6113   15.4269 C   0  0  0  0  0  0  0  0  0  0  0  0
   -6.6204    5.2431   16.6370 C   0  0  0  0  0  0  0  0  0  0  0  0
   -6.2601    6.1819   17.5879 C   0  0  0  0  0  0  0  0  0  0  0  0
   -5.5949    5.7418   18.6820 O   0  0  0  0  0  0  0  0  0  0  0  0
   -4.7218   13.6096   22.0753 C   0  0  0  0  0  0  0  0  0  0  0  0
   -4.7175   12.9690   23.3943 N   0  0  0  0  0  0  0  0  0  0  0  0
   -3.3855   12.4175   23.7249 C   0  0  0  0  0  0  0  0  0  0  0  0
   -3.0955   12.7273   25.1919 C   0  0  0  0  0  0  0  0  0  0  0  0
   -4.3093   13.5124   25.6775 C   0  0  0  0  0  0  0  0  0  0  0  0
   -5.0576   13.9646   24.4229 C   0  0  0  0  0  0  0  0  0  0  0  0
   -3.0593   11.4544   25.9156 N   0  0  0  0  0  0  0  0  0  0  0  0
   -1.9606   10.6998   25.8606 C   0  0  0  0  0  0  0  0  0  0  0  0
   -0.9865   11.0501   25.2081 O   0  0  0  0  0  0  0  0  0  0  0  0
   -3.8392   11.1581   26.4382 H   0  0  0  0  0  0  0  0  0  0  0  0
   -1.8853    9.3984   26.5826 C   0  0  0  0  0  0  0  0  0  0  0  0
   -2.6386    8.7962   27.6019 C   0  0  0  0  0  0  0  0  0  0  0  0
   -2.1628    7.5332   27.9381 C   0  0  0  0  0  0  0  0  0  0  0  0
   -0.5700    8.4300   25.9879 S   0  0  0  0  0  0  0  0  0  0  0  0
   -1.0618    7.2429   27.1424 C   0  0  0  0  0  0  0  0  0  0  0  0
   -0.1201    5.6625   27.2498 Cl  0  0  0  0  0  0  0  0  0  0  0  0
  5  6  1  0  0  0
  6  7  1  0  0  0
  6 11  2  0  0  0
  7  8  2  0  0  0
  8 12  1  0  0  0
  8  9  1  0  0  0
 12 13  1  0  0  0
 12 17  1  0  0  0
 13 14  2  0  0  0
 14 15  1  0  0  0
 15 16  2  0  0  0
 16 17  1  0  0  0
 17 18  2  0  0  0
  9 10  2  0  0  0
 10 11  1  0  0  0
 11  1  1  0  0  0
  1  2  1  0  0  0
  2  3  2  0  0  0
  2 19  1  0  0  0
 19 20  1  0  0  0
 20 21  1  0  0  0
 20 24  1  0  0  0
 21 22  1  0  0  0
 23 22  1  0  0  0
 23 24  1  0  0  0
 22 25  1  0  0  0
 25 26  1  0  0  0
 26 27  2  0  0  0
 26 29  1  0  0  0
 29 30  2  0  0  0
 29 32  1  0  0  0
 30 31  1  0  0  0
 31 33  2  0  0  0
 32 33  1  0  0  0
 33 34  1  0  0  0
  1  4  1  0  0  0
 25 28  1  0  0  0
M  END
> <minimizedAffinity>
-9.27188

$$$$
2VVU_H22_A_1244


 34 37  0  0  0  0  0  0  0  0999 V2000
   -2.0967   11.7161   19.1295 N   0  0  0  0  0  0  0  0  0  0  0  0
   -2.6900   12.8899   18.8543 C   0  0  0  0  0  0  0  0  0  0  0  0
   -3.1670   13.6212   19.7075 O   0  0  0  0  0  0  0  0  0  0  0  0
   -1.7884   11.1416   18.3919 H   0  0  0  0  0  0  0  0  0  0  0  0
   -3.9277   10.0698   20.3031 F   0  0  0  0  0  0  0  0  0  0  0  0
   -2.8554   10.4748   21.0044 C   0  0  0  0  0  0  0  0  0  0  0  0
   -2.7233   10.0401   22.3166 C   0  0  0  0  0  0  0  0  0  0  0  0
   -1.6323   10.4409   23.0643 C   0  0  0  0  0  0  0  0  0  0  0  0
   -0.6713   11.2791   22.4866 C   0  0  0  0  0  0  0  0  0  0  0  0
   -0.8052   11.7148   21.1572 C   0  0  0  0  0  0  0  0  0  0  0  0
   -1.9176   11.3132   20.4163 C   0  0  0  0  0  0  0  0  0  0  0  0
   -1.5346    9.9846   24.4015 N   0  0  0  0  0  0  0  0  0  0  0  0
   -0.6345    9.0636   24.7292 C   0  0  0  0  0  0  0  0  0  0  0  0
   -0.5074    8.5975   26.0310 C   0  0  0  0  0  0  0  0  0  0  0  0
   -1.3372    9.0583   27.1341 C   0  0  0  0  0  0  0  0  0  0  0  0
   -2.3110   10.0558   26.7178 C   0  0  0  0  0  0  0  0  0  0  0  0
   -2.3934   10.4954   25.4081 C   0  0  0  0  0  0  0  0  0  0  0  0
   -3.3341   11.4249   25.1175 O   0  0  0  0  0  0  0  0  0  0  0  0
   -2.7693   13.3479   17.4128 C   0  0  0  0  0  0  0  0  0  0  0  0
   -3.2399   12.2666   16.5412 N   0  0  0  0  0  0  0  0  0  0  0  0
   -4.4937   11.6681   17.0483 C   0  0  0  0  0  0  0  0  0  0  0  0
   -5.4173   11.4231   15.8570 C   0  0  0  0  0  0  0  0  0  0  0  0
   -4.6474   11.9412   14.6470 C   0  0  0  0  0  0  0  0  0  0  0  0
   -3.5113   12.8037   15.1984 C   0  0  0  0  0  0  0  0  0  0  0  0
   -5.5751    9.9745   15.7082 N   0  0  0  0  0  0  0  0  0  0  0  0
   -6.3797    9.3135   16.5419 C   0  0  0  0  0  0  0  0  0  0  0  0
   -6.9807    9.8967   17.4342 O   0  0  0  0  0  0  0  0  0  0  0  0
   -5.0914    9.4928   14.9989 H   0  0  0  0  0  0  0  0  0  0  0  0
   -6.5659    7.8398   16.4231 C   0  0  0  0  0  0  0  0  0  0  0  0
   -6.9903    6.9835   15.3956 C   0  0  0  0  0  0  0  0  0  0  0  0
   -6.9857    5.6474   15.7822 C   0  0  0  0  0  0  0  0  0  0  0  0
   -6.1319    7.0348   17.9014 S   0  0  0  0  0  0  0  0  0  0  0  0
   -6.5498    5.5635   17.0985 C   0  0  0  0  0  0  0  0  0  0  0  0
   -6.3849    3.9725   18.0137 Cl  0  0  0  0  0  0  0  0  0  0  0  0
  5  6  1  0  0  0
  6  7  1  0  0  0
  6 11  2  0  0  0
  7  8  2  0  0  0
  8 12  1  0  0  0
  8  9  1  0  0  0
 12 13  1  0  0  0
 12 17  1  0  0  0
 13 14  2  0  0  0
 14 15  1  0  0  0
 15 16  2  0  0  0
 16 17  1  0  0  0
 17 18  2  0  0  0
  9 10  2  0  0  0
 10 11  1  0  0  0
 11  1  1  0  0  0
  1  2  1  0  0  0
  2  3  2  0  0  0
  2 19  1  0  0  0
 19 20  1  0  0  0
 20 21  1  0  0  0
 20 24  1  0  0  0
 21 22  1  0  0  0
 23 22  1  0  0  0
 23 24  1  0  0  0
 22 25  1  0  0  0
 25 26  1  0  0  0
 26 27  2  0  0  0
 26 29  1  0  0  0
 29 30  2  0  0  0
 29 32  1  0  0  0
 30 31  1  0  0  0
 31 33  2  0  0  0
 32 33  1  0  0  0
 33 34  1  0  0  0
  1  4  1  0  0  0
 25 28  1  0  0  0
M  END
> <minimizedAffinity>
-8.45032

$$$$
2VVU_H22_A_1244


 34 37  0  0  0  0  0  0  0  0999 V2000
   -1.6649   11.7742   19.1702 N   0  0  0  0  0  0  0  0  0  0  0  0
   -2.1995   12.9706   18.8732 C   0  0  0  0  0  0  0  0  0  0  0  0
   -2.7788   13.6717   19.6877 O   0  0  0  0  0  0  0  0  0  0  0  0
   -1.2665   11.2277   18.4547 H   0  0  0  0  0  0  0  0  0  0  0  0
    0.3874   12.4111   20.8502 F   0  0  0  0  0  0  0  0  0  0  0  0
   -0.6189   11.6403   21.2961 C   0  0  0  0  0  0  0  0  0  0  0  0
   -0.5706   11.1870   22.6077 C   0  0  0  0  0  0  0  0  0  0  0  0
   -1.5898   10.3909   23.0951 C   0  0  0  0  0  0  0  0  0  0  0  0
   -2.6610   10.0540   22.2592 C   0  0  0  0  0  0  0  0  0  0  0  0
   -2.7094   10.5169   20.9331 C   0  0  0  0  0  0  0  0  0  0  0  0
   -1.6682   11.3100   20.4488 C   0  0  0  0  0  0  0  0  0  0  0  0
   -1.5032    9.9403   24.4351 N   0  0  0  0  0  0  0  0  0  0  0  0
   -0.6026    9.0243   24.7752 C   0  0  0  0  0  0  0  0  0  0  0  0
   -0.4862    8.5640   26.0800 C   0  0  0  0  0  0  0  0  0  0  0  0
   -1.3284    9.0259   27.1733 C   0  0  0  0  0  0  0  0  0  0  0  0
   -2.3021   10.0178   26.7435 C   0  0  0  0  0  0  0  0  0  0  0  0
   -2.3737   10.4518   25.4314 C   0  0  0  0  0  0  0  0  0  0  0  0
   -3.3152   11.3763   25.1279 O   0  0  0  0  0  0  0  0  0  0  0  0
   -2.0755   13.4948   17.4577 C   0  0  0  0  0  0  0  0  0  0  0  0
   -2.6650   12.5587   16.4951 N   0  0  0  0  0  0  0  0  0  0  0  0
   -4.0586   12.2175   16.8544 C   0  0  0  0  0  0  0  0  0  0  0  0
   -4.8879   12.2017   15.5720 C   0  0  0  0  0  0  0  0  0  0  0  0
   -3.9111   12.5837   14.4650 C   0  0  0  0  0  0  0  0  0  0  0  0
   -2.6854   13.1776   15.1604 C   0  0  0  0  0  0  0  0  0  0  0  0
   -5.3198   10.8216   15.3398 N   0  0  0  0  0  0  0  0  0  0  0  0
   -6.5871   10.4818   15.5805 C   0  0  0  0  0  0  0  0  0  0  0  0
   -7.3917   11.3025   16.0006 O   0  0  0  0  0  0  0  0  0  0  0  0
   -4.6802   10.1503   15.0088 H   0  0  0  0  0  0  0  0  0  0  0  0
   -7.0646    9.0880   15.3572 C   0  0  0  0  0  0  0  0  0  0  0  0
   -6.5824    7.8172   15.7062 C   0  0  0  0  0  0  0  0  0  0  0  0
   -7.4142    6.7940   15.2639 C   0  0  0  0  0  0  0  0  0  0  0  0
   -8.5667    9.0755   14.4824 S   0  0  0  0  0  0  0  0  0  0  0  0
   -8.4967    7.3533   14.5970 C   0  0  0  0  0  0  0  0  0  0  0  0
   -9.8541    6.3560   13.8494 Cl  0  0  0  0  0  0  0  0  0  0  0  0
  5  6  1  0  0  0
  6  7  1  0  0  0
  6 11  2  0  0  0
  7  8  2  0  0  0
  8 12  1  0  0  0
  8  9  1  0  0  0
 12 13  1  0  0  0
 12 17  1  0  0  0
 13 14  2  0  0  0
 14 15  1  0  0  0
 15 16  2  0  0  0
 16 17  1  0  0  0
 17 18  2  0  0  0
  9 10  2  0  0  0
 10 11  1  0  0  0
 11  1  1  0  0  0
  1  2  1  0  0  0
  2  3  2  0  0  0
  2 19  1  0  0  0
 19 20  1  0  0  0
 20 21  1  0  0  0
 20 24  1  0  0  0
 21 22  1  0  0  0
 23 22  1  0  0  0
 23 24  1  0  0  0
 22 25  1  0  0  0
 25 26  1  0  0  0
 26 27  2  0  0  0
 26 29  1  0  0  0
 29 30  2  0  0  0
 29 32  1  0  0  0
 30 31  1  0  0  0
 31 33  2  0  0  0
 32 33  1  0  0  0
 33 34  1  0  0  0
  1  4  1  0  0  0
 25 28  1  0  0  0
M  END
> <minimizedAffinity>
-7.74219

$$$$
2VVU_H22_A_1244


 34 37  0  0  0  0  0  0  0  0999 V2000
   -4.3942   10.4495   18.2965 N   0  0  0  0  0  0  0  0  0  0  0  0
   -4.5359   11.6061   18.9656 C   0  0  0  0  0  0  0  0  0  0  0  0
   -5.5058   12.3383   18.8494 O   0  0  0  0  0  0  0  0  0  0  0  0
   -3.5596    9.9348   18.3849 H   0  0  0  0  0  0  0  0  0  0  0  0
   -6.2961    8.7910   19.3321 F   0  0  0  0  0  0  0  0  0  0  0  0
   -6.3551    9.1386   18.0354 C   0  0  0  0  0  0  0  0  0  0  0  0
   -7.3899    8.6284   17.2626 C   0  0  0  0  0  0  0  0  0  0  0  0
   -7.4766    8.9660   15.9253 C   0  0  0  0  0  0  0  0  0  0  0  0
   -6.5198    9.8221   15.3671 C   0  0  0  0  0  0  0  0  0  0  0  0
   -5.4755   10.3401   16.1521 C   0  0  0  0  0  0  0  0  0  0  0  0
   -5.3916    9.9821   17.4983 C   0  0  0  0  0  0  0  0  0  0  0  0
   -8.5406    8.4205   15.1660 N   0  0  0  0  0  0  0  0  0  0  0  0
   -8.4149    7.2230   14.6038 C   0  0  0  0  0  0  0  0  0  0  0  0
   -9.4393    6.6556   13.8577 C   0  0  0  0  0  0  0  0  0  0  0  0
  -10.7172    7.3098   13.6191 C   0  0  0  0  0  0  0  0  0  0  0  0
  -10.7962    8.6200   14.2467 C   0  0  0  0  0  0  0  0  0  0  0  0
   -9.7502    9.1398   14.9889 C   0  0  0  0  0  0  0  0  0  0  0  0
   -9.9175   10.3687   15.5321 O   0  0  0  0  0  0  0  0  0  0  0  0
   -3.4456   12.0320   19.9268 C   0  0  0  0  0  0  0  0  0  0  0  0
   -3.7500   11.5996   21.2945 N   0  0  0  0  0  0  0  0  0  0  0  0
   -2.5169   11.3233   22.0629 C   0  0  0  0  0  0  0  0  0  0  0  0
   -2.7001   11.8861   23.4708 C   0  0  0  0  0  0  0  0  0  0  0  0
   -4.0831   12.5286   23.4627 C   0  0  0  0  0  0  0  0  0  0  0  0
   -4.4832   12.6670   21.9932 C   0  0  0  0  0  0  0  0  0  0  0  0
   -2.7307   10.7548   24.4006 N   0  0  0  0  0  0  0  0  0  0  0  0
   -1.6961   10.5488   25.2170 C   0  0  0  0  0  0  0  0  0  0  0  0
   -0.7185   11.2846   25.1949 O   0  0  0  0  0  0  0  0  0  0  0  0
   -3.5083   10.1515   24.4229 H   0  0  0  0  0  0  0  0  0  0  0  0
   -1.6895    9.4087   26.1765 C   0  0  0  0  0  0  0  0  0  0  0  0
   -2.4473    9.0744   27.3092 C   0  0  0  0  0  0  0  0  0  0  0  0
   -2.0526    7.8664   27.8744 C   0  0  0  0  0  0  0  0  0  0  0  0
   -0.4700    8.2443   25.7537 S   0  0  0  0  0  0  0  0  0  0  0  0
   -1.0048    7.3435   27.1272 C   0  0  0  0  0  0  0  0  0  0  0  0
   -0.1770    5.7446   27.5198 Cl  0  0  0  0  0  0  0  0  0  0  0  0
  5  6  1  0  0  0
  6  7  1  0  0  0
  6 11  2  0  0  0
  7  8  2  0  0  0
  8 12  1  0  0  0
  8  9  1  0  0  0
 12 13  1  0  0  0
 12 17  1  0  0  0
 13 14  2  0  0  0
 14 15  1  0  0  0
 15 16  2  0  0  0
 16 17  1  0  0  0
 17 18  2  0  0  0
  9 10  2  0  0  0
 10 11  1  0  0  0
 11  1  1  0  0  0
  1  2  1  0  0  0
  2  3  2  0  0  0
  2 19  1  0  0  0
 19 20  1  0  0  0
 20 21  1  0  0  0
 20 24  1  0  0  0
 21 22  1  0  0  0
 23 22  1  0  0  0
 23 24  1  0  0  0
 22 25  1  0  0  0
 25 26  1  0  0  0
 26 27  2  0  0  0
 26 29  1  0  0  0
 29 30  2  0  0  0
 29 32  1  0  0  0
 30 31  1  0  0  0
 31 33  2  0  0  0
 32 33  1  0  0  0
 33 34  1  0  0  0
  1  4  1  0  0  0
 25 28  1  0  0  0
M  END
> <minimizedAffinity>
-7.71490

$$$$
