2E9U_A25_A_1001


 26 28  0  0  0  0  0  0  0  0999 V2000
   -0.8533    8.0104  -18.7510 C   0  0  0  0  0  0  0  0  0  0  0  0
   -2.2123    8.4342  -18.5383 C   0  0  0  0  0  0  0  0  0  0  0  0
   -2.6987    9.5917  -19.2260 C   0  0  0  0  0  0  0  0  0  0  0  0
   -1.8206   10.3009  -20.1066 C   0  0  0  0  0  0  0  0  0  0  0  0
   -0.4956    9.8560  -20.2898 C   0  0  0  0  0  0  0  0  0  0  0  0
    0.0002    8.7202  -19.6250 C   0  0  0  0  0  0  0  0  0  0  0  0
    0.5426   10.7313  -21.3588 Cl  0  0  0  0  0  0  0  0  0  0  0  0
   -3.1329    7.7899  -17.6878 O   0  0  0  0  0  0  0  0  0  0  0  0
   -2.6144    6.9844  -16.6374 C   0  0  0  0  0  0  0  0  0  0  0  0
   -4.0258   10.0067  -19.0166 N   0  0  0  0  0  0  0  0  0  0  0  0
   -4.7135   10.9859  -19.7223 C   0  0  0  0  0  0  0  0  0  0  0  0
   -5.9999   11.2231  -19.3370 N   0  0  0  0  0  0  0  0  0  0  0  0
   -4.2235   11.6266  -20.6462 O   0  0  0  0  0  0  0  0  0  0  0  0
   -6.7757   10.6617  -18.3458 C   0  0  0  0  0  0  0  0  0  0  0  0
   -6.4124    9.4077  -17.9290 N   0  0  0  0  0  0  0  0  0  0  0  0
   -7.1554    8.8028  -16.9464 C   0  0  0  0  0  0  0  0  0  0  0  0
   -8.2823    9.4736  -16.3734 C   0  0  0  0  0  0  0  0  0  0  0  0
   -8.6479   10.7204  -16.7813 N   0  0  0  0  0  0  0  0  0  0  0  0
   -7.9027   11.3102  -17.7606 C   0  0  0  0  0  0  0  0  0  0  0  0
   -6.7125    7.5200  -16.5868 O   0  0  0  0  0  0  0  0  0  0  0  0
   -6.6399    7.1941  -15.1917 C   0  0  0  0  0  0  0  0  0  0  0  0
   -5.2932    7.6529  -14.6041 C   0  0  0  0  0  0  0  0  0  0  0  0
   -3.7043    6.0496  -16.1256 C   0  0  0  0  0  0  0  0  0  0  0  0
   -4.2501    6.5836  -14.7959 C   0  0  0  0  0  0  0  0  0  0  0  0
   -4.5194    9.5560  -18.2939 H   0  0  0  0  0  0  0  0  0  0  0  0
   -6.4564   11.9204  -19.8609 H   0  0  0  0  0  0  0  0  0  0  0  0
  1  2  1  0  0  0
  1  6  2  0  0  0
  2  8  1  0  0  0
  2  3  2  0  0  0
  3  4  1  0  0  0
  3 10  1  0  0  0
  4  5  2  0  0  0
  5  6  1  0  0  0
  5  7  1  0  0  0
  8  9  1  0  0  0
  9 23  1  0  0  0
 10 11  1  0  0  0
 11 13  2  0  0  0
 11 12  1  0  0  0
 12 14  1  0  0  0
 14 19  1  0  0  0
 14 15  2  0  0  0
 15 16  1  0  0  0
 16 17  2  0  0  0
 16 20  1  0  0  0
 17 18  1  0  0  0
 18 19  2  0  0  0
 20 21  1  0  0  0
 21 22  1  0  0  0
 22 24  1  0  0  0
 23 24  1  0  0  0
 10 25  1  0  0  0
 12 26  1  0  0  0
M  END
> <minimizedAffinity>
-10.61625

$$$$
2E9U_A25_A_1001


 26 28  0  0  0  0  0  0  0  0999 V2000
   -3.9914   10.9432  -19.8588 C   0  0  0  0  0  0  0  0  0  0  0  0
   -4.1186    9.9310  -18.8435 C   0  0  0  0  0  0  0  0  0  0  0  0
   -3.0034    9.0779  -18.5641 C   0  0  0  0  0  0  0  0  0  0  0  0
   -1.7896    9.2511  -19.3033 C   0  0  0  0  0  0  0  0  0  0  0  0
   -1.7023   10.2535  -20.2906 C   0  0  0  0  0  0  0  0  0  0  0  0
   -2.7858   11.1025  -20.5782 C   0  0  0  0  0  0  0  0  0  0  0  0
   -0.2249   10.4400  -21.1676 Cl  0  0  0  0  0  0  0  0  0  0  0  0
   -5.2788    9.7000  -18.0776 O   0  0  0  0  0  0  0  0  0  0  0  0
   -6.5230   10.1342  -18.6108 C   0  0  0  0  0  0  0  0  0  0  0  0
   -3.1285    8.0878  -17.5735 N   0  0  0  0  0  0  0  0  0  0  0  0
   -2.1114    7.2988  -17.0513 C   0  0  0  0  0  0  0  0  0  0  0  0
   -2.4719    6.3960  -16.0950 N   0  0  0  0  0  0  0  0  0  0  0  0
   -0.9405    7.3779  -17.4077 O   0  0  0  0  0  0  0  0  0  0  0  0
   -3.6937    6.1024  -15.5290 C   0  0  0  0  0  0  0  0  0  0  0  0
   -4.6402    7.0922  -15.5832 N   0  0  0  0  0  0  0  0  0  0  0  0
   -5.8728    6.8513  -15.0300 C   0  0  0  0  0  0  0  0  0  0  0  0
   -6.1565    5.5914  -14.4132 C   0  0  0  0  0  0  0  0  0  0  0  0
   -5.2216    4.6028  -14.3574 N   0  0  0  0  0  0  0  0  0  0  0  0
   -3.9992    4.8554  -14.9088 C   0  0  0  0  0  0  0  0  0  0  0  0
   -6.7755    7.9220  -15.1285 O   0  0  0  0  0  0  0  0  0  0  0  0
   -8.1250    7.6369  -15.5227 C   0  0  0  0  0  0  0  0  0  0  0  0
   -8.2389    7.6044  -17.0574 C   0  0  0  0  0  0  0  0  0  0  0  0
   -7.5598   10.2038  -17.4955 C   0  0  0  0  0  0  0  0  0  0  0  0
   -8.4921    8.9901  -17.5902 C   0  0  0  0  0  0  0  0  0  0  0  0
   -4.0319    7.9380  -17.2121 H   0  0  0  0  0  0  0  0  0  0  0  0
   -1.7253    5.8572  -15.7463 H   0  0  0  0  0  0  0  0  0  0  0  0
  1  2  1  0  0  0
  1  6  2  0  0  0
  2  8  1  0  0  0
  2  3  2  0  0  0
  3  4  1  0  0  0
  3 10  1  0  0  0
  4  5  2  0  0  0
  5  6  1  0  0  0
  5  7  1  0  0  0
  8  9  1  0  0  0
  9 23  1  0  0  0
 10 11  1  0  0  0
 11 13  2  0  0  0
 11 12  1  0  0  0
 12 14  1  0  0  0
 14 19  1  0  0  0
 14 15  2  0  0  0
 15 16  1  0  0  0
 16 17  2  0  0  0
 16 20  1  0  0  0
 17 18  1  0  0  0
 18 19  2  0  0  0
 20 21  1  0  0  0
 21 22  1  0  0  0
 22 24  1  0  0  0
 23 24  1  0  0  0
 10 25  1  0  0  0
 12 26  1  0  0  0
M  END
> <minimizedAffinity>
-9.92491

$$$$
2E9U_A25_A_1001


 26 28  0  0  0  0  0  0  0  0999 V2000
   -6.2262    5.5136  -14.3962 C   0  0  0  0  0  0  0  0  0  0  0  0
   -5.7616    6.4092  -15.4228 C   0  0  0  0  0  0  0  0  0  0  0  0
   -4.3807    6.3831  -15.7998 C   0  0  0  0  0  0  0  0  0  0  0  0
   -3.4953    5.4685  -15.1446 C   0  0  0  0  0  0  0  0  0  0  0  0
   -3.9867    4.6064  -14.1434 C   0  0  0  0  0  0  0  0  0  0  0  0
   -5.3399    4.6155  -13.7606 C   0  0  0  0  0  0  0  0  0  0  0  0
   -2.8955    3.5126  -13.3692 Cl  0  0  0  0  0  0  0  0  0  0  0  0
   -6.5710    7.3360  -16.1096 O   0  0  0  0  0  0  0  0  0  0  0  0
   -7.7720    7.7625  -15.4799 C   0  0  0  0  0  0  0  0  0  0  0  0
   -3.9265    7.2594  -16.8013 N   0  0  0  0  0  0  0  0  0  0  0  0
   -2.6789    7.2513  -17.4120 C   0  0  0  0  0  0  0  0  0  0  0  0
   -2.4598    8.2060  -18.3608 N   0  0  0  0  0  0  0  0  0  0  0  0
   -1.7945    6.4471  -17.1378 O   0  0  0  0  0  0  0  0  0  0  0  0
   -3.2640    9.2149  -18.8453 C   0  0  0  0  0  0  0  0  0  0  0  0
   -4.6151    9.0348  -18.7018 N   0  0  0  0  0  0  0  0  0  0  0  0
   -5.4597   10.0091  -19.1716 C   0  0  0  0  0  0  0  0  0  0  0  0
   -4.9338   11.1849  -19.7953 C   0  0  0  0  0  0  0  0  0  0  0  0
   -3.5926   11.3715  -19.9397 N   0  0  0  0  0  0  0  0  0  0  0  0
   -2.7633   10.3945  -19.4706 C   0  0  0  0  0  0  0  0  0  0  0  0
   -6.8244    9.7372  -18.9850 O   0  0  0  0  0  0  0  0  0  0  0  0
   -7.6664   10.7939  -18.5029 C   0  0  0  0  0  0  0  0  0  0  0  0
   -7.6279   10.8496  -16.9652 C   0  0  0  0  0  0  0  0  0  0  0  0
   -8.6981    8.3871  -16.5172 C   0  0  0  0  0  0  0  0  0  0  0  0
   -8.6553    9.9141  -16.3843 C   0  0  0  0  0  0  0  0  0  0  0  0
   -4.5593    7.9514  -17.1012 H   0  0  0  0  0  0  0  0  0  0  0  0
   -1.5669    8.1678  -18.7737 H   0  0  0  0  0  0  0  0  0  0  0  0
  1  2  1  0  0  0
  1  6  2  0  0  0
  2  8  1  0  0  0
  2  3  2  0  0  0
  3  4  1  0  0  0
  3 10  1  0  0  0
  4  5  2  0  0  0
  5  6  1  0  0  0
  5  7  1  0  0  0
  8  9  1  0  0  0
  9 23  1  0  0  0
 10 11  1  0  0  0
 11 13  2  0  0  0
 11 12  1  0  0  0
 12 14  1  0  0  0
 14 19  1  0  0  0
 14 15  2  0  0  0
 15 16  1  0  0  0
 16 17  2  0  0  0
 16 20  1  0  0  0
 17 18  1  0  0  0
 18 19  2  0  0  0
 20 21  1  0  0  0
 21 22  1  0  0  0
 22 24  1  0  0  0
 23 24  1  0  0  0
 10 25  1  0  0  0
 12 26  1  0  0  0
M  END
> <minimizedAffinity>
-9.91920

$$$$
2E9U_A25_A_1001


 26 28  0  0  0  0  0  0  0  0999 V2000
   -2.3462    7.2427  -16.9002 C   0  0  0  0  0  0  0  0  0  0  0  0
   -1.4354    7.8613  -17.8273 C   0  0  0  0  0  0  0  0  0  0  0  0
   -1.9404    8.8059  -18.7772 C   0  0  0  0  0  0  0  0  0  0  0  0
   -3.3393    9.1102  -18.7832 C   0  0  0  0  0  0  0  0  0  0  0  0
   -4.2009    8.4841  -17.8598 C   0  0  0  0  0  0  0  0  0  0  0  0
   -3.7239    7.5552  -16.9178 C   0  0  0  0  0  0  0  0  0  0  0  0
   -5.8852    8.8701  -17.8897 Cl  0  0  0  0  0  0  0  0  0  0  0  0
   -0.0496    7.6116  -17.8828 O   0  0  0  0  0  0  0  0  0  0  0  0
    0.4247    6.3819  -17.3503 C   0  0  0  0  0  0  0  0  0  0  0  0
   -1.0509    9.4088  -19.6842 N   0  0  0  0  0  0  0  0  0  0  0  0
   -1.3266   10.4639  -20.5447 C   0  0  0  0  0  0  0  0  0  0  0  0
   -0.3023   10.8825  -21.3416 N   0  0  0  0  0  0  0  0  0  0  0  0
   -2.4208   11.0134  -20.6155 O   0  0  0  0  0  0  0  0  0  0  0  0
    0.9983   10.4436  -21.4650 C   0  0  0  0  0  0  0  0  0  0  0  0
    1.5200    9.7825  -20.3837 N   0  0  0  0  0  0  0  0  0  0  0  0
    2.8131    9.3284  -20.4545 C   0  0  0  0  0  0  0  0  0  0  0  0
    3.5929    9.5431  -21.6352 C   0  0  0  0  0  0  0  0  0  0  0  0
    3.0806   10.1975  -22.7140 N   0  0  0  0  0  0  0  0  0  0  0  0
    1.7945   10.6461  -22.6304 C   0  0  0  0  0  0  0  0  0  0  0  0
    3.2630    8.6676  -19.3004 O   0  0  0  0  0  0  0  0  0  0  0  0
    3.9957    7.4449  -19.4614 C   0  0  0  0  0  0  0  0  0  0  0  0
    3.0290    6.2528  -19.5771 C   0  0  0  0  0  0  0  0  0  0  0  0
    1.9251    6.4793  -17.0991 C   0  0  0  0  0  0  0  0  0  0  0  0
    2.6767    5.7333  -18.2081 C   0  0  0  0  0  0  0  0  0  0  0  0
   -0.1365    9.0450  -19.7122 H   0  0  0  0  0  0  0  0  0  0  0  0
   -0.5333   11.6331  -21.9354 H   0  0  0  0  0  0  0  0  0  0  0  0
  1  2  1  0  0  0
  1  6  2  0  0  0
  2  8  1  0  0  0
  2  3  2  0  0  0
  3  4  1  0  0  0
  3 10  1  0  0  0
  4  5  2  0  0  0
  5  6  1  0  0  0
  5  7  1  0  0  0
  8  9  1  0  0  0
  9 23  1  0  0  0
 10 11  1  0  0  0
 11 13  2  0  0  0
 11 12  1  0  0  0
 12 14  1  0  0  0
 14 19  1  0  0  0
 14 15  2  0  0  0
 15 16  1  0  0  0
 16 17  2  0  0  0
 16 20  1  0  0  0
 17 18  1  0  0  0
 18 19  2  0  0  0
 20 21  1  0  0  0
 21 22  1  0  0  0
 22 24  1  0  0  0
 23 24  1  0  0  0
 10 25  1  0  0  0
 12 26  1  0  0  0
M  END
> <minimizedAffinity>
-7.77625

$$$$
2E9U_A25_A_1001


 26 28  0  0  0  0  0  0  0  0999 V2000
    0.0776   10.4719  -20.7229 C   0  0  0  0  0  0  0  0  0  0  0  0
   -0.6856    9.6641  -19.8083 C   0  0  0  0  0  0  0  0  0  0  0  0
   -0.0995    8.4730  -19.2721 C   0  0  0  0  0  0  0  0  0  0  0  0
    1.2306    8.1134  -19.6609 C   0  0  0  0  0  0  0  0  0  0  0  0
    1.9475    8.9295  -20.5593 C   0  0  0  0  0  0  0  0  0  0  0  0
    1.3900   10.1041  -21.0952 C   0  0  0  0  0  0  0  0  0  0  0  0
    3.5513    8.4712  -21.0114 Cl  0  0  0  0  0  0  0  0  0  0  0  0
   -1.9974    9.9520  -19.3815 O   0  0  0  0  0  0  0  0  0  0  0  0
   -2.7960   10.7875  -20.2091 C   0  0  0  0  0  0  0  0  0  0  0  0
   -0.8459    7.6829  -18.3800 N   0  0  0  0  0  0  0  0  0  0  0  0
   -0.3835    6.6065  -17.6335 C   0  0  0  0  0  0  0  0  0  0  0  0
   -1.2959    5.9842  -16.8336 N   0  0  0  0  0  0  0  0  0  0  0  0
    0.7750    6.2053  -17.6673 O   0  0  0  0  0  0  0  0  0  0  0  0
   -2.6360    6.2231  -16.6177 C   0  0  0  0  0  0  0  0  0  0  0  0
   -3.0766    7.4924  -16.8881 N   0  0  0  0  0  0  0  0  0  0  0  0
   -4.4025    7.7829  -16.6858 C   0  0  0  0  0  0  0  0  0  0  0  0
   -5.2994    6.7770  -16.2041 C   0  0  0  0  0  0  0  0  0  0  0  0
   -4.8690    5.5133  -15.9351 N   0  0  0  0  0  0  0  0  0  0  0  0
   -3.5480    5.2376  -16.1381 C   0  0  0  0  0  0  0  0  0  0  0  0
   -4.7616    9.1067  -16.9850 O   0  0  0  0  0  0  0  0  0  0  0  0
   -5.9680    9.3303  -17.7283 C   0  0  0  0  0  0  0  0  0  0  0  0
   -5.6923    9.2292  -19.2393 C   0  0  0  0  0  0  0  0  0  0  0  0
   -3.9704   11.3312  -19.4036 C   0  0  0  0  0  0  0  0  0  0  0  0
   -5.2436   10.5625  -19.7771 C   0  0  0  0  0  0  0  0  0  0  0  0
   -1.7961    7.9172  -18.2733 H   0  0  0  0  0  0  0  0  0  0  0  0
   -0.9321    5.2287  -16.3178 H   0  0  0  0  0  0  0  0  0  0  0  0
  1  2  1  0  0  0
  1  6  2  0  0  0
  2  8  1  0  0  0
  2  3  2  0  0  0
  3  4  1  0  0  0
  3 10  1  0  0  0
  4  5  2  0  0  0
  5  6  1  0  0  0
  5  7  1  0  0  0
  8  9  1  0  0  0
  9 23  1  0  0  0
 10 11  1  0  0  0
 11 13  2  0  0  0
 11 12  1  0  0  0
 12 14  1  0  0  0
 14 19  1  0  0  0
 14 15  2  0  0  0
 15 16  1  0  0  0
 16 17  2  0  0  0
 16 20  1  0  0  0
 17 18  1  0  0  0
 18 19  2  0  0  0
 20 21  1  0  0  0
 21 22  1  0  0  0
 22 24  1  0  0  0
 23 24  1  0  0  0
 10 25  1  0  0  0
 12 26  1  0  0  0
M  END
> <minimizedAffinity>
-7.67517

$$$$
2E9U_A25_A_1001


 26 28  0  0  0  0  0  0  0  0999 V2000
   -1.7283    7.8133  -17.9993 C   0  0  0  0  0  0  0  0  0  0  0  0
   -3.1291    7.7518  -17.6740 C   0  0  0  0  0  0  0  0  0  0  0  0
   -4.0279    8.6885  -18.2775 C   0  0  0  0  0  0  0  0  0  0  0  0
   -3.5111    9.6650  -19.1879 C   0  0  0  0  0  0  0  0  0  0  0  0
   -2.1328    9.6946  -19.4822 C   0  0  0  0  0  0  0  0  0  0  0  0
   -1.2343    8.7821  -18.9013 C   0  0  0  0  0  0  0  0  0  0  0  0
   -1.5363   10.8843  -20.5847 Cl  0  0  0  0  0  0  0  0  0  0  0  0
   -3.7099    6.8226  -16.7880 O   0  0  0  0  0  0  0  0  0  0  0  0
   -2.8695    6.2228  -15.8108 C   0  0  0  0  0  0  0  0  0  0  0  0
   -5.3961    8.6295  -17.9582 N   0  0  0  0  0  0  0  0  0  0  0  0
   -6.4259    9.3307  -18.5727 C   0  0  0  0  0  0  0  0  0  0  0  0
   -7.6823    9.1153  -18.0882 N   0  0  0  0  0  0  0  0  0  0  0  0
   -6.2541   10.1128  -19.5017 O   0  0  0  0  0  0  0  0  0  0  0  0
   -8.1436    8.3108  -17.0688 C   0  0  0  0  0  0  0  0  0  0  0  0
   -7.3498    7.2459  -16.7306 N   0  0  0  0  0  0  0  0  0  0  0  0
   -7.7664    6.4115  -15.7238 C   0  0  0  0  0  0  0  0  0  0  0  0
   -9.0029    6.6553  -15.0457 C   0  0  0  0  0  0  0  0  0  0  0  0
   -9.7958    7.7124  -15.3751 N   0  0  0  0  0  0  0  0  0  0  0  0
   -9.3717    8.5333  -16.3794 C   0  0  0  0  0  0  0  0  0  0  0  0
   -6.8928    5.3473  -15.4495 O   0  0  0  0  0  0  0  0  0  0  0  0
   -6.6038    5.0439  -14.0775 C   0  0  0  0  0  0  0  0  0  0  0  0
   -5.4454    5.9201  -13.5680 C   0  0  0  0  0  0  0  0  0  0  0  0
   -3.5394    4.9681  -15.2623 C   0  0  0  0  0  0  0  0  0  0  0  0
   -4.1238    5.2672  -13.8766 C   0  0  0  0  0  0  0  0  0  0  0  0
   -5.6510    8.0281  -17.2216 H   0  0  0  0  0  0  0  0  0  0  0  0
   -8.3861    9.6262  -18.5496 H   0  0  0  0  0  0  0  0  0  0  0  0
  1  2  1  0  0  0
  1  6  2  0  0  0
  2  8  1  0  0  0
  2  3  2  0  0  0
  3  4  1  0  0  0
  3 10  1  0  0  0
  4  5  2  0  0  0
  5  6  1  0  0  0
  5  7  1  0  0  0
  8  9  1  0  0  0
  9 23  1  0  0  0
 10 11  1  0  0  0
 11 13  2  0  0  0
 11 12  1  0  0  0
 12 14  1  0  0  0
 14 19  1  0  0  0
 14 15  2  0  0  0
 15 16  1  0  0  0
 16 17  2  0  0  0
 16 20  1  0  0  0
 17 18  1  0  0  0
 18 19  2  0  0  0
 20 21  1  0  0  0
 21 22  1  0  0  0
 22 24  1  0  0  0
 23 24  1  0  0  0
 10 25  1  0  0  0
 12 26  1  0  0  0
M  END
> <minimizedAffinity>
-7.67254

$$$$
2E9U_A25_A_1001


 26 28  0  0  0  0  0  0  0  0999 V2000
   -2.0290   10.7002  -20.6401 C   0  0  0  0  0  0  0  0  0  0  0  0
   -1.1365    9.7189  -20.0812 C   0  0  0  0  0  0  0  0  0  0  0  0
   -1.6125    8.8503  -19.0476 C   0  0  0  0  0  0  0  0  0  0  0  0
   -2.9639    8.9805  -18.5936 C   0  0  0  0  0  0  0  0  0  0  0  0
   -3.8089    9.9536  -19.1648 C   0  0  0  0  0  0  0  0  0  0  0  0
   -3.3607   10.8147  -20.1823 C   0  0  0  0  0  0  0  0  0  0  0  0
   -5.4357   10.0887  -18.5973 Cl  0  0  0  0  0  0  0  0  0  0  0  0
    0.2039    9.5329  -20.4746 O   0  0  0  0  0  0  0  0  0  0  0  0
    0.8708   10.6241  -21.0952 C   0  0  0  0  0  0  0  0  0  0  0  0
   -0.7399    7.8930  -18.5003 N   0  0  0  0  0  0  0  0  0  0  0  0
   -1.0734    6.8634  -17.6294 C   0  0  0  0  0  0  0  0  0  0  0  0
   -0.0528    6.0546  -17.2246 N   0  0  0  0  0  0  0  0  0  0  0  0
   -2.2123    6.6621  -17.2213 O   0  0  0  0  0  0  0  0  0  0  0  0
    1.2933    6.0637  -17.5201 C   0  0  0  0  0  0  0  0  0  0  0  0
    1.6524    6.6772  -18.6919 N   0  0  0  0  0  0  0  0  0  0  0  0
    2.9810    6.7098  -19.0343 C   0  0  0  0  0  0  0  0  0  0  0  0
    3.9640    6.1154  -18.1807 C   0  0  0  0  0  0  0  0  0  0  0  0
    3.6147    5.5058  -17.0141 N   0  0  0  0  0  0  0  0  0  0  0  0
    2.2904    5.4779  -16.6861 C   0  0  0  0  0  0  0  0  0  0  0  0
    3.2538    7.3542  -20.2514 O   0  0  0  0  0  0  0  0  0  0  0  0
    4.3580    8.2686  -20.3017 C   0  0  0  0  0  0  0  0  0  0  0  0
    3.9152    9.6685  -19.8400 C   0  0  0  0  0  0  0  0  0  0  0  0
    2.1085   10.1169  -21.8262 C   0  0  0  0  0  0  0  0  0  0  0  0
    3.3583   10.4482  -21.0020 C   0  0  0  0  0  0  0  0  0  0  0  0
    0.2069    7.9595  -18.7618 H   0  0  0  0  0  0  0  0  0  0  0  0
   -0.3267    5.3351  -16.6110 H   0  0  0  0  0  0  0  0  0  0  0  0
  1  2  1  0  0  0
  1  6  2  0  0  0
  2  8  1  0  0  0
  2  3  2  0  0  0
  3  4  1  0  0  0
  3 10  1  0  0  0
  4  5  2  0  0  0
  5  6  1  0  0  0
  5  7  1  0  0  0
  8  9  1  0  0  0
  9 23  1  0  0  0
 10 11  1  0  0  0
 11 13  2  0  0  0
 11 12  1  0  0  0
 12 14  1  0  0  0
 14 19  1  0  0  0
 14 15  2  0  0  0
 15 16  1  0  0  0
 16 17  2  0  0  0
 16 20  1  0  0  0
 17 18  1  0  0  0
 18 19  2  0  0  0
 20 21  1  0  0  0
 21 22  1  0  0  0
 22 24  1  0  0  0
 23 24  1  0  0  0
 10 25  1  0  0  0
 12 26  1  0  0  0
M  END
> <minimizedAffinity>
-7.63838

$$$$
