5GJ9_VGL_A_402


 10 10  0  0  0  0  0  0  0  0999 V2000
   12.6695   -5.1422  -33.5690 C   0  0  0  0  0  0  0  0  0  0  0  0
   11.2548   -6.8815  -34.0586 C   0  0  0  0  0  0  0  0  0  0  0  0
   11.8923   -7.0499  -35.2895 C   0  0  0  0  0  0  0  0  0  0  0  0
   13.3086   -5.3083  -34.7988 C   0  0  0  0  0  0  0  0  0  0  0  0
   11.6629   -5.9348  -33.2280 N   0  0  0  0  0  0  0  0  0  0  0  0
   12.9006   -6.2572  -35.6306 N   0  0  0  0  0  0  0  0  0  0  0  0
   13.1463   -4.0473  -32.6268 C   0  0  0  0  0  0  0  0  0  0  0  0
   14.3482   -4.0216  -32.2072 O   0  0  0  0  0  0  0  0  0  0  0  0
   12.3050   -3.1874  -32.2601 O   0  0  0  0  0  0  0  0  0  0  0  0
   11.4257   -3.2253  -32.5815 H   0  0  0  0  0  0  0  0  0  0  0  0
  1  7  1  0  0  0
  1  4  1  0  0  0
  1  5  2  0  0  0
  2  3  2  0  0  0
  2  5  1  0  0  0
  3  6  1  0  0  0
  7  8  2  0  0  0
  7  9  1  0  0  0
  4  6  2  0  0  0
  9 10  1  0  0  0
M  END
> <minimizedAffinity>
-5.40473

$$$$
5GJ9_VGL_A_402


 10 10  0  0  0  0  0  0  0  0999 V2000
   13.5183   -4.9031  -33.4990 C   0  0  0  0  0  0  0  0  0  0  0  0
   14.4429   -6.9177  -34.0932 C   0  0  0  0  0  0  0  0  0  0  0  0
   14.0103   -6.7256  -35.4070 C   0  0  0  0  0  0  0  0  0  0  0  0
   13.0847   -4.7085  -34.8114 C   0  0  0  0  0  0  0  0  0  0  0  0
   14.1897   -5.9992  -33.1740 N   0  0  0  0  0  0  0  0  0  0  0  0
   13.3390   -5.6279  -35.7326 N   0  0  0  0  0  0  0  0  0  0  0  0
   13.2162   -3.8414  -32.4524 C   0  0  0  0  0  0  0  0  0  0  0  0
   12.0392   -3.3763  -32.3119 O   0  0  0  0  0  0  0  0  0  0  0  0
   14.1741   -3.4245  -31.7523 O   0  0  0  0  0  0  0  0  0  0  0  0
   15.0323   -3.7810  -31.8726 H   0  0  0  0  0  0  0  0  0  0  0  0
  1  7  1  0  0  0
  1  4  1  0  0  0
  1  5  2  0  0  0
  2  3  2  0  0  0
  2  5  1  0  0  0
  3  6  1  0  0  0
  7  8  2  0  0  0
  7  9  1  0  0  0
  4  6  2  0  0  0
  9 10  1  0  0  0
M  END
> <minimizedAffinity>
-5.34956

$$$$
5GJ9_VGL_A_402


 10 10  0  0  0  0  0  0  0  0999 V2000
   13.1326   -5.4952  -33.8045 C   0  0  0  0  0  0  0  0  0  0  0  0
   10.8770   -5.6491  -34.1981 C   0  0  0  0  0  0  0  0  0  0  0  0
   11.1281   -6.4676  -35.3013 C   0  0  0  0  0  0  0  0  0  0  0  0
   13.3865   -6.3131  -34.9068 C   0  0  0  0  0  0  0  0  0  0  0  0
   11.8857   -5.1878  -33.4753 N   0  0  0  0  0  0  0  0  0  0  0  0
   12.3763   -6.7762  -35.6304 N   0  0  0  0  0  0  0  0  0  0  0  0
   14.3016   -4.9687  -32.9860 C   0  0  0  0  0  0  0  0  0  0  0  0
   14.1550   -3.9833  -32.1930 O   0  0  0  0  0  0  0  0  0  0  0  0
   15.4187   -5.5253  -33.1410 O   0  0  0  0  0  0  0  0  0  0  0  0
   15.5038   -6.2491  -33.7299 H   0  0  0  0  0  0  0  0  0  0  0  0
  1  7  1  0  0  0
  1  4  1  0  0  0
  1  5  2  0  0  0
  2  3  2  0  0  0
  2  5  1  0  0  0
  3  6  1  0  0  0
  7  8  2  0  0  0
  7  9  1  0  0  0
  4  6  2  0  0  0
  9 10  1  0  0  0
M  END
> <minimizedAffinity>
-5.30166

$$$$
5GJ9_VGL_A_402


 10 10  0  0  0  0  0  0  0  0999 V2000
   12.0185   -5.9841  -34.5673 C   0  0  0  0  0  0  0  0  0  0  0  0
   14.2630   -6.3946  -34.8129 C   0  0  0  0  0  0  0  0  0  0  0  0
   14.4589   -6.1188  -33.4580 C   0  0  0  0  0  0  0  0  0  0  0  0
   12.2114   -5.7079  -33.2127 C   0  0  0  0  0  0  0  0  0  0  0  0
   13.0470   -6.3245  -35.3316 N   0  0  0  0  0  0  0  0  0  0  0  0
   13.4293   -5.7788  -32.6926 N   0  0  0  0  0  0  0  0  0  0  0  0
   10.6165   -5.8952  -35.1505 C   0  0  0  0  0  0  0  0  0  0  0  0
    9.8373   -4.9372  -34.8399 O   0  0  0  0  0  0  0  0  0  0  0  0
   10.2496   -6.8134  -35.9275 O   0  0  0  0  0  0  0  0  0  0  0  0
   10.8396   -7.5089  -36.1426 H   0  0  0  0  0  0  0  0  0  0  0  0
  1  7  1  0  0  0
  1  4  1  0  0  0
  1  5  2  0  0  0
  2  3  2  0  0  0
  2  5  1  0  0  0
  3  6  1  0  0  0
  7  8  2  0  0  0
  7  9  1  0  0  0
  4  6  2  0  0  0
  9 10  1  0  0  0
M  END
> <minimizedAffinity>
-5.17479

$$$$
5GJ9_VGL_A_402


 10 10  0  0  0  0  0  0  0  0999 V2000
   13.0577   -5.4902  -33.8202 C   0  0  0  0  0  0  0  0  0  0  0  0
   12.0884   -7.0493  -35.1973 C   0  0  0  0  0  0  0  0  0  0  0  0
   10.9062   -6.3059  -35.2022 C   0  0  0  0  0  0  0  0  0  0  0  0
   11.8773   -4.7452  -33.8234 C   0  0  0  0  0  0  0  0  0  0  0  0
   13.1352   -6.6198  -34.5100 N   0  0  0  0  0  0  0  0  0  0  0  0
   10.8288   -5.1746  -34.5125 N   0  0  0  0  0  0  0  0  0  0  0  0
   14.2509   -4.9869  -33.0224 C   0  0  0  0  0  0  0  0  0  0  0  0
   14.1357   -4.0037  -32.2215 O   0  0  0  0  0  0  0  0  0  0  0  0
   15.3557   -5.5601  -33.2025 O   0  0  0  0  0  0  0  0  0  0  0  0
   15.4176   -6.2819  -33.7968 H   0  0  0  0  0  0  0  0  0  0  0  0
  1  7  1  0  0  0
  1  4  1  0  0  0
  1  5  2  0  0  0
  2  3  2  0  0  0
  2  5  1  0  0  0
  3  6  1  0  0  0
  7  8  2  0  0  0
  7  9  1  0  0  0
  4  6  2  0  0  0
  9 10  1  0  0  0
M  END
> <minimizedAffinity>
-5.14196

$$$$
5GJ9_VGL_A_402


 10 10  0  0  0  0  0  0  0  0999 V2000
   13.5886   -5.7129  -34.2830 C   0  0  0  0  0  0  0  0  0  0  0  0
   11.9669   -4.3678  -33.3734 C   0  0  0  0  0  0  0  0  0  0  0  0
   12.8948   -3.8767  -32.4525 C   0  0  0  0  0  0  0  0  0  0  0  0
   14.5181   -5.2237  -33.3637 C   0  0  0  0  0  0  0  0  0  0  0  0
   12.3391   -5.2700  -34.2679 N   0  0  0  0  0  0  0  0  0  0  0  0
   14.1459   -4.3193  -32.4680 N   0  0  0  0  0  0  0  0  0  0  0  0
   14.0292   -6.7527  -35.3021 C   0  0  0  0  0  0  0  0  0  0  0  0
   15.2495   -7.1049  -35.3928 O   0  0  0  0  0  0  0  0  0  0  0  0
   13.1504   -7.2297  -36.0647 O   0  0  0  0  0  0  0  0  0  0  0  0
   12.2582   -6.9562  -35.9803 H   0  0  0  0  0  0  0  0  0  0  0  0
  1  7  1  0  0  0
  1  4  1  0  0  0
  1  5  2  0  0  0
  2  3  2  0  0  0
  2  5  1  0  0  0
  3  6  1  0  0  0
  7  8  2  0  0  0
  7  9  1  0  0  0
  4  6  2  0  0  0
  9 10  1  0  0  0
M  END
> <minimizedAffinity>
-5.05060

$$$$
5GJ9_VGL_A_402


 10 10  0  0  0  0  0  0  0  0999 V2000
   12.4240   -5.5451  -34.3176 C   0  0  0  0  0  0  0  0  0  0  0  0
   12.3691   -3.9203  -32.6979 C   0  0  0  0  0  0  0  0  0  0  0  0
   13.7616   -3.9691  -32.6056 C   0  0  0  0  0  0  0  0  0  0  0  0
   13.8160   -5.5959  -34.2275 C   0  0  0  0  0  0  0  0  0  0  0  0
   11.7365   -4.7064  -33.5549 N   0  0  0  0  0  0  0  0  0  0  0  0
   14.4501   -4.8080  -33.3697 N   0  0  0  0  0  0  0  0  0  0  0  0
   11.7103   -6.4574  -35.3035 C   0  0  0  0  0  0  0  0  0  0  0  0
   10.4425   -6.4326  -35.4195 O   0  0  0  0  0  0  0  0  0  0  0  0
   12.4152   -7.2511  -35.9780 O   0  0  0  0  0  0  0  0  0  0  0  0
   13.3467   -7.2522  -35.8767 H   0  0  0  0  0  0  0  0  0  0  0  0
  1  7  1  0  0  0
  1  4  1  0  0  0
  1  5  2  0  0  0
  2  3  2  0  0  0
  2  5  1  0  0  0
  3  6  1  0  0  0
  7  8  2  0  0  0
  7  9  1  0  0  0
  4  6  2  0  0  0
  9 10  1  0  0  0
M  END
> <minimizedAffinity>
-5.04963

$$$$
5GJ9_VGL_A_402


 10 10  0  0  0  0  0  0  0  0999 V2000
   13.0491   -5.9360  -34.4461 C   0  0  0  0  0  0  0  0  0  0  0  0
   11.0552   -6.4509  -35.4588 C   0  0  0  0  0  0  0  0  0  0  0  0
   10.4149   -5.4805  -34.6853 C   0  0  0  0  0  0  0  0  0  0  0  0
   12.4117   -4.9653  -33.6716 C   0  0  0  0  0  0  0  0  0  0  0  0
   12.3569   -6.6505  -35.3225 N   0  0  0  0  0  0  0  0  0  0  0  0
   11.1080   -4.7646  -33.8086 N   0  0  0  0  0  0  0  0  0  0  0  0
   14.5444   -6.1574  -34.2755 C   0  0  0  0  0  0  0  0  0  0  0  0
   15.2036   -5.5233  -33.3898 O   0  0  0  0  0  0  0  0  0  0  0  0
   15.1059   -6.9680  -35.0560 O   0  0  0  0  0  0  0  0  0  0  0  0
   14.6012   -7.4239  -35.7005 H   0  0  0  0  0  0  0  0  0  0  0  0
  1  7  1  0  0  0
  1  4  1  0  0  0
  1  5  2  0  0  0
  2  3  2  0  0  0
  2  5  1  0  0  0
  3  6  1  0  0  0
  7  8  2  0  0  0
  7  9  1  0  0  0
  4  6  2  0  0  0
  9 10  1  0  0  0
M  END
> <minimizedAffinity>
-4.77221

$$$$
5GJ9_VGL_A_402


 10 10  0  0  0  0  0  0  0  0999 V2000
   13.7002   -5.4862  -33.9717 C   0  0  0  0  0  0  0  0  0  0  0  0
   11.7781   -4.4154  -33.3193 C   0  0  0  0  0  0  0  0  0  0  0  0
   12.5166   -3.6442  -32.4193 C   0  0  0  0  0  0  0  0  0  0  0  0
   14.4408   -4.7167  -33.0730 C   0  0  0  0  0  0  0  0  0  0  0  0
   12.3898   -5.3135  -34.0756 N   0  0  0  0  0  0  0  0  0  0  0  0
   13.8286   -3.8163  -32.3159 N   0  0  0  0  0  0  0  0  0  0  0  0
   14.4157   -6.5175  -34.8310 C   0  0  0  0  0  0  0  0  0  0  0  0
   14.4228   -6.4209  -36.1006 O   0  0  0  0  0  0  0  0  0  0  0  0
   14.9755   -7.4780  -34.2431 O   0  0  0  0  0  0  0  0  0  0  0  0
   14.9580   -7.5292  -33.3077 H   0  0  0  0  0  0  0  0  0  0  0  0
  1  7  1  0  0  0
  1  4  1  0  0  0
  1  5  2  0  0  0
  2  3  2  0  0  0
  2  5  1  0  0  0
  3  6  1  0  0  0
  7  8  2  0  0  0
  7  9  1  0  0  0
  4  6  2  0  0  0
  9 10  1  0  0  0
M  END
> <minimizedAffinity>
-4.54182

$$$$
5GJ9_VGL_A_402


 10 10  0  0  0  0  0  0  0  0999 V2000
   11.6910   -6.0542  -34.6242 C   0  0  0  0  0  0  0  0  0  0  0  0
   13.5798   -7.2666  -35.1026 C   0  0  0  0  0  0  0  0  0  0  0  0
   14.3664   -6.1487  -34.8168 C   0  0  0  0  0  0  0  0  0  0  0  0
   12.4748   -4.9353  -34.3378 C   0  0  0  0  0  0  0  0  0  0  0  0
   12.2625   -7.1918  -34.9944 N   0  0  0  0  0  0  0  0  0  0  0  0
   13.7945   -5.0102  -34.4452 N   0  0  0  0  0  0  0  0  0  0  0  0
   10.1784   -5.9523  -34.5000 C   0  0  0  0  0  0  0  0  0  0  0  0
    9.5165   -6.8112  -33.8326 O   0  0  0  0  0  0  0  0  0  0  0  0
    9.6072   -5.0060  -35.1000 O   0  0  0  0  0  0  0  0  0  0  0  0
   10.1141   -4.3851  -35.5853 H   0  0  0  0  0  0  0  0  0  0  0  0
  1  7  1  0  0  0
  1  4  1  0  0  0
  1  5  2  0  0  0
  2  3  2  0  0  0
  2  5  1  0  0  0
  3  6  1  0  0  0
  7  8  2  0  0  0
  7  9  1  0  0  0
  4  6  2  0  0  0
  9 10  1  0  0  0
M  END
> <minimizedAffinity>
-3.71770

$$$$
