1A99_PUT_A_371


 10  9  0  0  0  0  0  0  0  0999 V2000
  183.0538    7.7415   62.6177 C   0  0  0  0  0  0  0  0  0  0  0  0
  183.4312    6.7332   60.3620 N   0  0  0  0  0  0  0  0  0  0  0  0
  184.0940    7.3093   61.5689 C   0  0  0  0  0  0  0  0  0  0  0  0
  184.1411    6.4555   59.6843 H   0  0  0  0  0  0  0  0  0  0  0  0
  182.8177    7.4329   59.9444 H   0  0  0  0  0  0  0  0  0  0  0  0
  183.6766    8.2015   63.9241 C   0  0  0  0  0  0  0  0  0  0  0  0
  184.9170    7.4098   64.2880 C   0  0  0  0  0  0  0  0  0  0  0  0
  185.6691    8.0732   65.3806 N   0  0  0  0  0  0  0  0  0  0  0  0
  185.9629    9.0014   65.0764 H   0  0  0  0  0  0  0  0  0  0  0  0
  186.4909    7.5162   65.6147 H   0  0  0  0  0  0  0  0  0  0  0  0
  2  3  1  0  0  0
  3  1  1  0  0  0
  1  6  1  0  0  0
  6  7  1  0  0  0
  7  8  1  0  0  0
  2  4  1  0  0  0
  2  5  1  0  0  0
  8  9  1  0  0  0
  8 10  1  0  0  0
M  END
> <minimizedAffinity>
-4.94218

$$$$
1A99_PUT_A_371


 10  9  0  0  0  0  0  0  0  0999 V2000
  183.6782    8.2208   63.9267 C   0  0  0  0  0  0  0  0  0  0  0  0
  185.7018    8.0689   65.3857 N   0  0  0  0  0  0  0  0  0  0  0  0
  184.9222    7.3973   64.3046 C   0  0  0  0  0  0  0  0  0  0  0  0
  186.5190    7.5039   65.6169 H   0  0  0  0  0  0  0  0  0  0  0  0
  185.1151    8.1728   66.2136 H   0  0  0  0  0  0  0  0  0  0  0  0
  183.0667    7.8066   62.5997 C   0  0  0  0  0  0  0  0  0  0  0  0
  184.1060    7.3359   61.6017 C   0  0  0  0  0  0  0  0  0  0  0  0
  183.4629    6.7231   60.4141 N   0  0  0  0  0  0  0  0  0  0  0  0
  182.9127    5.9148   60.7045 H   0  0  0  0  0  0  0  0  0  0  0  0
  184.1813    6.4260   59.7537 H   0  0  0  0  0  0  0  0  0  0  0  0
  2  3  1  0  0  0
  3  1  1  0  0  0
  1  6  1  0  0  0
  6  7  1  0  0  0
  7  8  1  0  0  0
  2  4  1  0  0  0
  2  5  1  0  0  0
  8  9  1  0  0  0
  8 10  1  0  0  0
M  END
> <minimizedAffinity>
-4.93511

$$$$
1A99_PUT_A_371


 10  9  0  0  0  0  0  0  0  0999 V2000
  184.6466    7.6498   60.5886 C   0  0  0  0  0  0  0  0  0  0  0  0
  183.3417    6.2379   58.9914 N   0  0  0  0  0  0  0  0  0  0  0  0
  184.7029    6.5396   59.5240 C   0  0  0  0  0  0  0  0  0  0  0  0
  183.4069    5.5007   58.2894 H   0  0  0  0  0  0  0  0  0  0  0  0
  182.9489    7.0780   58.5666 H   0  0  0  0  0  0  0  0  0  0  0  0
  184.1082    7.1704   61.9252 C   0  0  0  0  0  0  0  0  0  0  0  0
  182.7910    7.8253   62.2906 C   0  0  0  0  0  0  0  0  0  0  0  0
  181.6825    7.2855   61.4662 N   0  0  0  0  0  0  0  0  0  0  0  0
  181.8683    7.4742   60.4812 H   0  0  0  0  0  0  0  0  0  0  0  0
  180.8071    7.7324   61.7388 H   0  0  0  0  0  0  0  0  0  0  0  0
  2  3  1  0  0  0
  3  1  1  0  0  0
  1  6  1  0  0  0
  6  7  1  0  0  0
  7  8  1  0  0  0
  2  4  1  0  0  0
  2  5  1  0  0  0
  8  9  1  0  0  0
  8 10  1  0  0  0
M  END
> <minimizedAffinity>
-4.90065

$$$$
1A99_PUT_A_371


 10  9  0  0  0  0  0  0  0  0999 V2000
  184.0966    7.1347   61.8735 C   0  0  0  0  0  0  0  0  0  0  0  0
  181.6271    7.2417   61.5031 N   0  0  0  0  0  0  0  0  0  0  0  0
  182.7752    7.8229   62.2593 C   0  0  0  0  0  0  0  0  0  0  0  0
  180.7656    7.7143   61.7768 H   0  0  0  0  0  0  0  0  0  0  0  0
  181.5504    6.2465   61.7133 H   0  0  0  0  0  0  0  0  0  0  0  0
  184.6676    7.6310   60.5567 C   0  0  0  0  0  0  0  0  0  0  0  0
  184.7071    6.5497   59.4951 C   0  0  0  0  0  0  0  0  0  0  0  0
  183.3435    6.2407   59.0005 N   0  0  0  0  0  0  0  0  0  0  0  0
  182.7691    5.9054   59.7738 H   0  0  0  0  0  0  0  0  0  0  0  0
  183.3981    5.5205   58.2803 H   0  0  0  0  0  0  0  0  0  0  0  0
  2  3  1  0  0  0
  3  1  1  0  0  0
  1  6  1  0  0  0
  6  7  1  0  0  0
  7  8  1  0  0  0
  2  4  1  0  0  0
  2  5  1  0  0  0
  8  9  1  0  0  0
  8 10  1  0  0  0
M  END
> <minimizedAffinity>
-4.88785

$$$$
1A99_PUT_A_371


 10  9  0  0  0  0  0  0  0  0999 V2000
  184.0760    7.0503   62.9969 C   0  0  0  0  0  0  0  0  0  0  0  0
  185.1115    8.1045   65.0128 N   0  0  0  0  0  0  0  0  0  0  0  0
  183.9171    8.0930   64.1177 C   0  0  0  0  0  0  0  0  0  0  0  0
  184.9809    8.8024   65.7451 H   0  0  0  0  0  0  0  0  0  0  0  0
  185.9425    8.3348   64.4679 H   0  0  0  0  0  0  0  0  0  0  0  0
  183.6072    7.5516   61.6423 C   0  0  0  0  0  0  0  0  0  0  0  0
  184.5368    7.1430   60.5169 C   0  0  0  0  0  0  0  0  0  0  0  0
  184.7855    8.2777   59.5948 N   0  0  0  0  0  0  0  0  0  0  0  0
  183.9029    8.5810   59.1831 H   0  0  0  0  0  0  0  0  0  0  0  0
  185.4218    7.9813   58.8548 H   0  0  0  0  0  0  0  0  0  0  0  0
  2  3  1  0  0  0
  3  1  1  0  0  0
  1  6  1  0  0  0
  6  7  1  0  0  0
  7  8  1  0  0  0
  2  4  1  0  0  0
  2  5  1  0  0  0
  8  9  1  0  0  0
  8 10  1  0  0  0
M  END
> <minimizedAffinity>
-4.67561

$$$$
1A99_PUT_A_371


 10  9  0  0  0  0  0  0  0  0999 V2000
  185.5082    7.7599   64.6021 C   0  0  0  0  0  0  0  0  0  0  0  0
  186.7232    8.6474   66.5979 N   0  0  0  0  0  0  0  0  0  0  0  0
  186.2799    7.4119   65.8875 C   0  0  0  0  0  0  0  0  0  0  0  0
  187.2309    8.3894   67.4441 H   0  0  0  0  0  0  0  0  0  0  0  0
  185.9078    9.2069   66.8479 H   0  0  0  0  0  0  0  0  0  0  0  0
  184.0279    7.4309   64.6853 C   0  0  0  0  0  0  0  0  0  0  0  0
  183.2849    7.7649   63.4070 C   0  0  0  0  0  0  0  0  0  0  0  0
  183.4604    6.6946   62.3954 N   0  0  0  0  0  0  0  0  0  0  0  0
  184.4507    6.5980   62.1709 H   0  0  0  0  0  0  0  0  0  0  0  0
  182.9424    6.9367   61.5508 H   0  0  0  0  0  0  0  0  0  0  0  0
  2  3  1  0  0  0
  3  1  1  0  0  0
  1  6  1  0  0  0
  6  7  1  0  0  0
  7  8  1  0  0  0
  2  4  1  0  0  0
  2  5  1  0  0  0
  8  9  1  0  0  0
  8 10  1  0  0  0
M  END
> <minimizedAffinity>
-4.38928

$$$$
1A99_PUT_A_371


 10  9  0  0  0  0  0  0  0  0999 V2000
  184.2399    7.1499   64.5446 C   0  0  0  0  0  0  0  0  0  0  0  0
  183.4101    6.6898   62.2322 N   0  0  0  0  0  0  0  0  0  0  0  0
  183.3607    7.6415   63.3809 C   0  0  0  0  0  0  0  0  0  0  0  0
  182.8204    7.0383   61.4764 H   0  0  0  0  0  0  0  0  0  0  0  0
  183.0720    5.7757   62.5333 H   0  0  0  0  0  0  0  0  0  0  0  0
  185.2932    8.1591   64.9667 C   0  0  0  0  0  0  0  0  0  0  0  0
  186.3886    7.5384   65.8108 C   0  0  0  0  0  0  0  0  0  0  0  0
  186.9113    8.5106   66.8014 N   0  0  0  0  0  0  0  0  0  0  0  0
  187.3043    9.3154   66.3133 H   0  0  0  0  0  0  0  0  0  0  0  0
  187.6371    8.0662   67.3636 H   0  0  0  0  0  0  0  0  0  0  0  0
  2  3  1  0  0  0
  3  1  1  0  0  0
  1  6  1  0  0  0
  6  7  1  0  0  0
  7  8  1  0  0  0
  2  4  1  0  0  0
  2  5  1  0  0  0
  8  9  1  0  0  0
  8 10  1  0  0  0
M  END
> <minimizedAffinity>
-4.36462

$$$$
1A99_PUT_A_371


 10  9  0  0  0  0  0  0  0  0999 V2000
  183.4382    7.0447   60.7911 C   0  0  0  0  0  0  0  0  0  0  0  0
  181.1999    7.2480   61.8846 N   0  0  0  0  0  0  0  0  0  0  0  0
  182.6354    7.6506   61.9560 C   0  0  0  0  0  0  0  0  0  0  0  0
  180.6914    7.6618   62.6661 H   0  0  0  0  0  0  0  0  0  0  0  0
  181.1290    6.2316   61.9329 H   0  0  0  0  0  0  0  0  0  0  0  0
  184.9314    6.9841   61.0610 C   0  0  0  0  0  0  0  0  0  0  0  0
  185.7553    7.4775   59.8882 C   0  0  0  0  0  0  0  0  0  0  0  0
  185.1598    8.7009   59.2980 N   0  0  0  0  0  0  0  0  0  0  0  0
  184.2200    8.4929   58.9605 H   0  0  0  0  0  0  0  0  0  0  0  0
  185.7378    9.0191   58.5201 H   0  0  0  0  0  0  0  0  0  0  0  0
  2  3  1  0  0  0
  3  1  1  0  0  0
  1  6  1  0  0  0
  6  7  1  0  0  0
  7  8  1  0  0  0
  2  4  1  0  0  0
  2  5  1  0  0  0
  8  9  1  0  0  0
  8 10  1  0  0  0
M  END
> <minimizedAffinity>
-3.04838

$$$$
1A99_PUT_A_371


 10  9  0  0  0  0  0  0  0  0999 V2000
  186.2345    7.9341   65.2897 C   0  0  0  0  0  0  0  0  0  0  0  0
  188.2397    8.0979   66.7727 N   0  0  0  0  0  0  0  0  0  0  0  0
  186.8691    7.5244   66.6307 C   0  0  0  0  0  0  0  0  0  0  0  0
  188.6368    7.8120   67.6677 H   0  0  0  0  0  0  0  0  0  0  0  0
  188.1882    9.1158   66.7333 H   0  0  0  0  0  0  0  0  0  0  0  0
  185.2382    6.9159   64.7633 C   0  0  0  0  0  0  0  0  0  0  0  0
  183.8232    7.4573   64.7154 C   0  0  0  0  0  0  0  0  0  0  0  0
  183.8137    8.8839   64.3101 N   0  0  0  0  0  0  0  0  0  0  0  0
  184.3410    9.4336   64.9884 H   0  0  0  0  0  0  0  0  0  0  0  0
  182.8516    9.2207   64.2739 H   0  0  0  0  0  0  0  0  0  0  0  0
  2  3  1  0  0  0
  3  1  1  0  0  0
  1  6  1  0  0  0
  6  7  1  0  0  0
  7  8  1  0  0  0
  2  4  1  0  0  0
  2  5  1  0  0  0
  8  9  1  0  0  0
  8 10  1  0  0  0
M  END
> <minimizedAffinity>
-2.99039

$$$$
