5LJQ_ANV_A_302


 27 29  0  0  0  0  0  0  0  0999 V2000
   -4.6512    2.5116   13.3321 C   0  0  0  0  0  0  0  0  0  0  0  0
   -5.5528    3.2880   14.0321 C   0  0  0  0  0  0  0  0  0  0  0  0
   -6.0412    2.8630   15.2507 C   0  0  0  0  0  0  0  0  0  0  0  0
   -5.6380    1.6412   15.7615 C   0  0  0  0  0  0  0  0  0  0  0  0
   -4.7321    0.8488   15.0697 C   0  0  0  0  0  0  0  0  0  0  0  0
   -4.2342    1.2879   13.8514 C   0  0  0  0  0  0  0  0  0  0  0  0
   -6.3310    1.0783   17.2805 S   0  0  0  0  0  0  0  0  0  0  0  0
   -7.7166    0.8124   17.0281 O   0  0  0  0  0  0  0  0  0  0  0  0
   -5.5033    0.0023   17.7483 O   0  0  0  0  0  0  0  0  0  0  0  0
   -6.2390    2.2844   18.3248 N   0  0  0  0  0  0  0  0  0  0  0  0
   -7.7956    0.0817   16.3951 H   0  0  0  0  0  0  0  0  0  0  0  0
   -5.5503   -0.7373   17.1225 H   0  0  0  0  0  0  0  0  0  0  0  0
   -6.8231    3.0568   18.0044 H   0  0  0  0  0  0  0  0  0  0  0  0
   -5.2710    2.5977   18.3979 H   0  0  0  0  0  0  0  0  0  0  0  0
   -2.9473    3.6931   10.4414 C   0  0  0  0  0  0  0  0  0  0  0  0
   -2.8944    3.3459   11.7573 C   0  0  0  0  0  0  0  0  0  0  0  0
   -4.1511    2.9734   12.0791 N   0  0  0  0  0  0  0  0  0  0  0  0
   -4.9637    3.0770   11.0010 N   0  0  0  0  0  0  0  0  0  0  0  0
   -4.2258    3.5158   10.0066 N   0  0  0  0  0  0  0  0  0  0  0  0
   -1.8712    4.1977    9.5470 C   0  0  0  0  0  0  0  0  0  0  0  0
   -0.8040    3.2507    9.5152 O   0  0  0  0  0  0  0  0  0  0  0  0
    0.4769    3.6610    9.7898 C   0  0  0  0  0  0  0  0  0  0  0  0
    1.3200    3.7653    8.6943 C   0  0  0  0  0  0  0  0  0  0  0  0
    2.6196    4.2070    8.8761 C   0  0  0  0  0  0  0  0  0  0  0  0
    3.0766    4.5378   10.1356 C   0  0  0  0  0  0  0  0  0  0  0  0
    2.2371    4.4231   11.2235 C   0  0  0  0  0  0  0  0  0  0  0  0
    0.9344    3.9847   11.0611 C   0  0  0  0  0  0  0  0  0  0  0  0
 20 21  1  0  0  0
 20 15  1  0  0  0
 21 22  1  0  0  0
 22 23  2  0  0  0
 22 27  1  0  0  0
 23 24  1  0  0  0
 24 25  2  0  0  0
 25 26  1  0  0  0
 26 27  2  0  0  0
 15 16  2  0  0  0
 15 19  1  0  0  0
 16 17  1  0  0  0
 17 18  1  0  0  0
 17  1  1  0  0  0
 18 19  2  0  0  0
  1  2  2  0  0  0
  1  6  1  0  0  0
  2  3  1  0  0  0
  3  4  2  0  0  0
  4  5  1  0  0  0
  4  7  1  0  0  0
  5  6  2  0  0  0
  7  8  1  0  0  0
  7  9  1  0  0  0
  7 10  1  0  0  0
  8 11  1  0  0  0
  9 12  1  0  0  0
 10 13  1  0  0  0
 10 14  1  0  0  0
M  END
> <minimizedAffinity>
-7.84058

$$$$
5LJQ_ANV_A_302


 27 29  0  0  0  0  0  0  0  0999 V2000
   -4.6806    2.5228   13.3575 C   0  0  0  0  0  0  0  0  0  0  0  0
   -5.5753    3.3002   14.0652 C   0  0  0  0  0  0  0  0  0  0  0  0
   -6.0593    2.8725   15.2845 C   0  0  0  0  0  0  0  0  0  0  0  0
   -5.6586    1.6471   15.7886 C   0  0  0  0  0  0  0  0  0  0  0  0
   -4.7596    0.8536   15.0890 C   0  0  0  0  0  0  0  0  0  0  0  0
   -4.2661    1.2954   13.8700 C   0  0  0  0  0  0  0  0  0  0  0  0
   -6.3462    1.0811   17.3089 S   0  0  0  0  0  0  0  0  0  0  0  0
   -7.7329    0.8162   17.0610 O   0  0  0  0  0  0  0  0  0  0  0  0
   -5.5172    0.0039   17.7713 O   0  0  0  0  0  0  0  0  0  0  0  0
   -6.2500    2.2850   18.3554 N   0  0  0  0  0  0  0  0  0  0  0  0
   -7.8144    0.0868   16.4267 H   0  0  0  0  0  0  0  0  0  0  0  0
   -5.5666   -0.7344   17.1442 H   0  0  0  0  0  0  0  0  0  0  0  0
   -6.8351    3.0582   18.0388 H   0  0  0  0  0  0  0  0  0  0  0  0
   -5.2817    2.5978   18.4256 H   0  0  0  0  0  0  0  0  0  0  0  0
   -2.9982    3.7544   10.4752 C   0  0  0  0  0  0  0  0  0  0  0  0
   -2.9535    3.4500   11.8019 C   0  0  0  0  0  0  0  0  0  0  0  0
   -4.1850    2.9874   12.1038 N   0  0  0  0  0  0  0  0  0  0  0  0
   -4.9737    2.9950   11.0033 N   0  0  0  0  0  0  0  0  0  0  0  0
   -4.2463    3.4630   10.0145 N   0  0  0  0  0  0  0  0  0  0  0  0
   -1.9416    4.3179    9.5927 C   0  0  0  0  0  0  0  0  0  0  0  0
   -0.9108    3.3471    9.4148 O   0  0  0  0  0  0  0  0  0  0  0  0
    0.4026    3.7141    9.5721 C   0  0  0  0  0  0  0  0  0  0  0  0
    0.8011    3.9689   10.8752 C   0  0  0  0  0  0  0  0  0  0  0  0
    2.1188    4.3104   11.1288 C   0  0  0  0  0  0  0  0  0  0  0  0
    3.0295    4.4012   10.0959 C   0  0  0  0  0  0  0  0  0  0  0  0
    2.6259    4.1562    8.8002 C   0  0  0  0  0  0  0  0  0  0  0  0
    1.3134    3.8123    8.5274 C   0  0  0  0  0  0  0  0  0  0  0  0
 20 21  1  0  0  0
 20 15  1  0  0  0
 21 22  1  0  0  0
 22 23  2  0  0  0
 22 27  1  0  0  0
 23 24  1  0  0  0
 24 25  2  0  0  0
 25 26  1  0  0  0
 26 27  2  0  0  0
 15 16  2  0  0  0
 15 19  1  0  0  0
 16 17  1  0  0  0
 17 18  1  0  0  0
 17  1  1  0  0  0
 18 19  2  0  0  0
  1  2  2  0  0  0
  1  6  1  0  0  0
  2  3  1  0  0  0
  3  4  2  0  0  0
  4  5  1  0  0  0
  4  7  1  0  0  0
  5  6  2  0  0  0
  7  8  1  0  0  0
  7  9  1  0  0  0
  7 10  1  0  0  0
  8 11  1  0  0  0
  9 12  1  0  0  0
 10 13  1  0  0  0
 10 14  1  0  0  0
M  END
> <minimizedAffinity>
-7.81469

$$$$
5LJQ_ANV_A_302


 27 29  0  0  0  0  0  0  0  0999 V2000
   -4.9600    2.8397   13.4921 C   0  0  0  0  0  0  0  0  0  0  0  0
   -5.8551    3.5224   14.2910 C   0  0  0  0  0  0  0  0  0  0  0  0
   -6.2551    2.9931   15.5009 C   0  0  0  0  0  0  0  0  0  0  0  0
   -5.7694    1.7608   15.9033 C   0  0  0  0  0  0  0  0  0  0  0  0
   -4.8688    1.0618   15.1111 C   0  0  0  0  0  0  0  0  0  0  0  0
   -4.4600    1.6056   13.9021 C   0  0  0  0  0  0  0  0  0  0  0  0
   -6.3506    1.0638   17.4135 S   0  0  0  0  0  0  0  0  0  0  0  0
   -7.7442    0.7837   17.2292 O   0  0  0  0  0  0  0  0  0  0  0  0
   -5.4728   -0.0242   17.7410 O   0  0  0  0  0  0  0  0  0  0  0  0
   -6.2150    2.1867   18.5425 N   0  0  0  0  0  0  0  0  0  0  0  0
   -7.8495    0.1028   16.5463 H   0  0  0  0  0  0  0  0  0  0  0  0
   -5.5456   -0.7137   17.0626 H   0  0  0  0  0  0  0  0  0  0  0  0
   -6.8341    2.9668   18.3222 H   0  0  0  0  0  0  0  0  0  0  0  0
   -5.2508    2.5175   18.5788 H   0  0  0  0  0  0  0  0  0  0  0  0
   -3.7174    4.6244   10.6767 C   0  0  0  0  0  0  0  0  0  0  0  0
   -3.8401    4.5341   12.0301 C   0  0  0  0  0  0  0  0  0  0  0  0
   -4.5519    3.4086   12.2498 N   0  0  0  0  0  0  0  0  0  0  0  0
   -4.8601    2.8095   11.0754 N   0  0  0  0  0  0  0  0  0  0  0  0
   -4.3497    3.5539   10.1207 N   0  0  0  0  0  0  0  0  0  0  0  0
   -3.0478    5.6638    9.8497 C   0  0  0  0  0  0  0  0  0  0  0  0
   -3.6060    6.9407   10.1574 O   0  0  0  0  0  0  0  0  0  0  0  0
   -4.9534    7.1495    9.9984 C   0  0  0  0  0  0  0  0  0  0  0  0
   -5.6193    7.6367   11.1124 C   0  0  0  0  0  0  0  0  0  0  0  0
   -6.9742    7.9098   11.0290 C   0  0  0  0  0  0  0  0  0  0  0  0
   -7.6600    7.6967    9.8506 C   0  0  0  0  0  0  0  0  0  0  0  0
   -6.9951    7.2027    8.7481 C   0  0  0  0  0  0  0  0  0  0  0  0
   -5.6407    6.9251    8.8119 C   0  0  0  0  0  0  0  0  0  0  0  0
 20 21  1  0  0  0
 20 15  1  0  0  0
 21 22  1  0  0  0
 22 23  2  0  0  0
 22 27  1  0  0  0
 23 24  1  0  0  0
 24 25  2  0  0  0
 25 26  1  0  0  0
 26 27  2  0  0  0
 15 16  2  0  0  0
 15 19  1  0  0  0
 16 17  1  0  0  0
 17 18  1  0  0  0
 17  1  1  0  0  0
 18 19  2  0  0  0
  1  2  2  0  0  0
  1  6  1  0  0  0
  2  3  1  0  0  0
  3  4  2  0  0  0
  4  5  1  0  0  0
  4  7  1  0  0  0
  5  6  2  0  0  0
  7  8  1  0  0  0
  7  9  1  0  0  0
  7 10  1  0  0  0
  8 11  1  0  0  0
  9 12  1  0  0  0
 10 13  1  0  0  0
 10 14  1  0  0  0
M  END
> <minimizedAffinity>
-7.77868

$$$$
5LJQ_ANV_A_302


 27 29  0  0  0  0  0  0  0  0999 V2000
   -4.4175    4.3921   14.6951 C   0  0  0  0  0  0  0  0  0  0  0  0
   -3.5506    3.3928   15.0895 C   0  0  0  0  0  0  0  0  0  0  0  0
   -4.0194    2.2956   15.7827 C   0  0  0  0  0  0  0  0  0  0  0  0
   -5.3641    2.2096   16.1001 C   0  0  0  0  0  0  0  0  0  0  0  0
   -6.2485    3.2062   15.7107 C   0  0  0  0  0  0  0  0  0  0  0  0
   -5.7733    4.3002   15.0022 C   0  0  0  0  0  0  0  0  0  0  0  0
   -5.9322    0.8409   17.0532 S   0  0  0  0  0  0  0  0  0  0  0  0
   -5.4508   -0.3424   16.4033 O   0  0  0  0  0  0  0  0  0  0  0  0
   -5.5384    1.0816   18.4128 O   0  0  0  0  0  0  0  0  0  0  0  0
   -7.5284    0.8345   16.9775 N   0  0  0  0  0  0  0  0  0  0  0  0
   -4.4815   -0.3587   16.4377 H   0  0  0  0  0  0  0  0  0  0  0  0
   -4.5702    1.0879   18.4727 H   0  0  0  0  0  0  0  0  0  0  0  0
   -7.8226    0.6643   16.0158 H   0  0  0  0  0  0  0  0  0  0  0  0
   -7.8871    1.7374   17.2881 H   0  0  0  0  0  0  0  0  0  0  0  0
   -2.7971    7.2102   13.2503 C   0  0  0  0  0  0  0  0  0  0  0  0
   -2.8479    6.2904   14.2534 C   0  0  0  0  0  0  0  0  0  0  0  0
   -3.9144    5.5129   13.9712 N   0  0  0  0  0  0  0  0  0  0  0  0
   -4.5089    5.9262   12.8272 N   0  0  0  0  0  0  0  0  0  0  0  0
   -3.8248    6.9600   12.3923 N   0  0  0  0  0  0  0  0  0  0  0  0
   -1.8453    8.3333   13.0371 C   0  0  0  0  0  0  0  0  0  0  0  0
   -1.2743    8.7096   14.2897 O   0  0  0  0  0  0  0  0  0  0  0  0
   -0.9662   10.0260   14.5280 C   0  0  0  0  0  0  0  0  0  0  0  0
    0.1709   10.2464   15.2897 C   0  0  0  0  0  0  0  0  0  0  0  0
    0.5750   11.5452   15.5480 C   0  0  0  0  0  0  0  0  0  0  0  0
   -0.1471   12.6137   15.0566 C   0  0  0  0  0  0  0  0  0  0  0  0
   -1.2829   12.3893   14.3076 C   0  0  0  0  0  0  0  0  0  0  0  0
   -1.7017   11.0981   14.0379 C   0  0  0  0  0  0  0  0  0  0  0  0
 20 21  1  0  0  0
 20 15  1  0  0  0
 21 22  1  0  0  0
 22 23  2  0  0  0
 22 27  1  0  0  0
 23 24  1  0  0  0
 24 25  2  0  0  0
 25 26  1  0  0  0
 26 27  2  0  0  0
 15 16  2  0  0  0
 15 19  1  0  0  0
 16 17  1  0  0  0
 17 18  1  0  0  0
 17  1  1  0  0  0
 18 19  2  0  0  0
  1  2  2  0  0  0
  1  6  1  0  0  0
  2  3  1  0  0  0
  3  4  2  0  0  0
  4  5  1  0  0  0
  4  7  1  0  0  0
  5  6  2  0  0  0
  7  8  1  0  0  0
  7  9  1  0  0  0
  7 10  1  0  0  0
  8 11  1  0  0  0
  9 12  1  0  0  0
 10 13  1  0  0  0
 10 14  1  0  0  0
M  END
> <minimizedAffinity>
-7.53439

$$$$
5LJQ_ANV_A_302


 27 29  0  0  0  0  0  0  0  0999 V2000
   -3.8766    3.6620   14.5620 C   0  0  0  0  0  0  0  0  0  0  0  0
   -3.2701    2.6655   15.3002 C   0  0  0  0  0  0  0  0  0  0  0  0
   -4.0066    1.9075   16.1873 C   0  0  0  0  0  0  0  0  0  0  0  0
   -5.3572    2.1640   16.3501 C   0  0  0  0  0  0  0  0  0  0  0  0
   -5.9818    3.1626   15.6154 C   0  0  0  0  0  0  0  0  0  0  0  0
   -5.2386    3.9122   14.7150 C   0  0  0  0  0  0  0  0  0  0  0  0
   -6.2657    1.2396   17.5436 S   0  0  0  0  0  0  0  0  0  0  0  0
   -5.6179   -0.0337   17.6594 O   0  0  0  0  0  0  0  0  0  0  0  0
   -6.3753    2.0593   18.7174 O   0  0  0  0  0  0  0  0  0  0  0  0
   -7.7299    0.9996   16.9500 N   0  0  0  0  0  0  0  0  0  0  0  0
   -4.7253    0.0892   18.0188 H   0  0  0  0  0  0  0  0  0  0  0  0
   -5.4922    2.2128   19.0881 H   0  0  0  0  0  0  0  0  0  0  0  0
   -7.6669    0.4178   16.1145 H   0  0  0  0  0  0  0  0  0  0  0  0
   -8.1501    1.8971   16.7085 H   0  0  0  0  0  0  0  0  0  0  0  0
   -2.3476    5.8811   12.2397 C   0  0  0  0  0  0  0  0  0  0  0  0
   -3.4441    5.5488   12.9760 C   0  0  0  0  0  0  0  0  0  0  0  0
   -3.0996    4.4275   13.6435 N   0  0  0  0  0  0  0  0  0  0  0  0
   -1.8286    4.0716   13.3418 N   0  0  0  0  0  0  0  0  0  0  0  0
   -1.3753    4.9598   12.4866 N   0  0  0  0  0  0  0  0  0  0  0  0
   -2.1426    7.0131   11.2968 C   0  0  0  0  0  0  0  0  0  0  0  0
   -1.0635    7.8228   11.7621 O   0  0  0  0  0  0  0  0  0  0  0  0
   -1.3088    8.8304   12.6616 C   0  0  0  0  0  0  0  0  0  0  0  0
   -1.8347    9.9960   12.1262 C   0  0  0  0  0  0  0  0  0  0  0  0
   -2.1459   11.0506   12.9676 C   0  0  0  0  0  0  0  0  0  0  0  0
   -1.9324   10.9479   14.3272 C   0  0  0  0  0  0  0  0  0  0  0  0
   -1.4000    9.7900   14.8537 C   0  0  0  0  0  0  0  0  0  0  0  0
   -1.0839    8.7247   14.0286 C   0  0  0  0  0  0  0  0  0  0  0  0
 20 21  1  0  0  0
 20 15  1  0  0  0
 21 22  1  0  0  0
 22 23  2  0  0  0
 22 27  1  0  0  0
 23 24  1  0  0  0
 24 25  2  0  0  0
 25 26  1  0  0  0
 26 27  2  0  0  0
 15 16  2  0  0  0
 15 19  1  0  0  0
 16 17  1  0  0  0
 17 18  1  0  0  0
 17  1  1  0  0  0
 18 19  2  0  0  0
  1  2  2  0  0  0
  1  6  1  0  0  0
  2  3  1  0  0  0
  3  4  2  0  0  0
  4  5  1  0  0  0
  4  7  1  0  0  0
  5  6  2  0  0  0
  7  8  1  0  0  0
  7  9  1  0  0  0
  7 10  1  0  0  0
  8 11  1  0  0  0
  9 12  1  0  0  0
 10 13  1  0  0  0
 10 14  1  0  0  0
M  END
> <minimizedAffinity>
-7.22881

$$$$
5LJQ_ANV_A_302


 27 29  0  0  0  0  0  0  0  0999 V2000
   -4.9869    4.3567   14.2704 C   0  0  0  0  0  0  0  0  0  0  0  0
   -6.1876    4.5054   14.9351 C   0  0  0  0  0  0  0  0  0  0  0  0
   -6.5860    3.5749   15.8729 C   0  0  0  0  0  0  0  0  0  0  0  0
   -5.7838    2.4768   16.1316 C   0  0  0  0  0  0  0  0  0  0  0  0
   -4.5736    2.3130   15.4716 C   0  0  0  0  0  0  0  0  0  0  0  0
   -4.1722    3.2591   14.5396 C   0  0  0  0  0  0  0  0  0  0  0  0
   -6.3440    1.2582   17.2743 S   0  0  0  0  0  0  0  0  0  0  0  0
   -6.0785    1.7702   18.5864 O   0  0  0  0  0  0  0  0  0  0  0  0
   -7.7011    0.9453   16.9251 O   0  0  0  0  0  0  0  0  0  0  0  0
   -5.4477   -0.0473   17.0598 N   0  0  0  0  0  0  0  0  0  0  0  0
   -6.6136    2.5649   18.7378 H   0  0  0  0  0  0  0  0  0  0  0  0
   -8.2567    1.7305   17.0509 H   0  0  0  0  0  0  0  0  0  0  0  0
   -4.4796    0.1610   17.3045 H   0  0  0  0  0  0  0  0  0  0  0  0
   -5.4968   -0.3367   16.0829 H   0  0  0  0  0  0  0  0  0  0  0  0
   -3.6778    6.9716   12.2446 C   0  0  0  0  0  0  0  0  0  0  0  0
   -3.6929    6.3347   13.4483 C   0  0  0  0  0  0  0  0  0  0  0  0
   -4.5890    5.3347   13.3119 N   0  0  0  0  0  0  0  0  0  0  0  0
   -5.1138    5.3395   12.0638 N   0  0  0  0  0  0  0  0  0  0  0  0
   -4.5557    6.3382   11.4180 N   0  0  0  0  0  0  0  0  0  0  0  0
   -2.8948    8.1579   11.8060 C   0  0  0  0  0  0  0  0  0  0  0  0
   -3.4486    8.6639   10.5920 O   0  0  0  0  0  0  0  0  0  0  0  0
   -4.1898    9.8192   10.6129 C   0  0  0  0  0  0  0  0  0  0  0  0
   -3.4874   10.9758   10.9143 C   0  0  0  0  0  0  0  0  0  0  0  0
   -4.1504   12.1913   10.9219 C   0  0  0  0  0  0  0  0  0  0  0  0
   -5.4991   12.2548   10.6363 C   0  0  0  0  0  0  0  0  0  0  0  0
   -6.1954   11.1002   10.3467 C   0  0  0  0  0  0  0  0  0  0  0  0
   -5.5495    9.8763   10.3330 C   0  0  0  0  0  0  0  0  0  0  0  0
 20 21  1  0  0  0
 20 15  1  0  0  0
 21 22  1  0  0  0
 22 23  2  0  0  0
 22 27  1  0  0  0
 23 24  1  0  0  0
 24 25  2  0  0  0
 25 26  1  0  0  0
 26 27  2  0  0  0
 15 16  2  0  0  0
 15 19  1  0  0  0
 16 17  1  0  0  0
 17 18  1  0  0  0
 17  1  1  0  0  0
 18 19  2  0  0  0
  1  2  2  0  0  0
  1  6  1  0  0  0
  2  3  1  0  0  0
  3  4  2  0  0  0
  4  5  1  0  0  0
  4  7  1  0  0  0
  5  6  2  0  0  0
  7  8  1  0  0  0
  7  9  1  0  0  0
  7 10  1  0  0  0
  8 11  1  0  0  0
  9 12  1  0  0  0
 10 13  1  0  0  0
 10 14  1  0  0  0
M  END
> <minimizedAffinity>
-7.18491

$$$$
5LJQ_ANV_A_302


 27 29  0  0  0  0  0  0  0  0999 V2000
   -1.8744    7.0902   14.0561 C   0  0  0  0  0  0  0  0  0  0  0  0
   -2.1585    7.8575   15.1679 C   0  0  0  0  0  0  0  0  0  0  0  0
   -1.6154    9.1188   15.3026 C   0  0  0  0  0  0  0  0  0  0  0  0
   -0.7653    9.6063   14.3248 C   0  0  0  0  0  0  0  0  0  0  0  0
   -0.4698    8.8468   13.2009 C   0  0  0  0  0  0  0  0  0  0  0  0
   -1.0298    7.5848   13.0647 C   0  0  0  0  0  0  0  0  0  0  0  0
   -0.0189   11.1863   14.5501 S   0  0  0  0  0  0  0  0  0  0  0  0
    0.4592   11.2277   15.9007 O   0  0  0  0  0  0  0  0  0  0  0  0
    0.9279   11.3610   13.4849 O   0  0  0  0  0  0  0  0  0  0  0  0
   -1.1688   12.2853   14.3965 N   0  0  0  0  0  0  0  0  0  0  0  0
    1.1597   10.5667   16.0162 H   0  0  0  0  0  0  0  0  0  0  0  0
    1.6322   10.6991   13.5666 H   0  0  0  0  0  0  0  0  0  0  0  0
   -1.8493   12.1727   15.1479 H   0  0  0  0  0  0  0  0  0  0  0  0
   -1.6337   12.1675   13.4963 H   0  0  0  0  0  0  0  0  0  0  0  0
   -3.7451    4.0997   13.5942 C   0  0  0  0  0  0  0  0  0  0  0  0
   -3.7064    5.4605   13.5550 C   0  0  0  0  0  0  0  0  0  0  0  0
   -2.4536    5.7930   13.9315 N   0  0  0  0  0  0  0  0  0  0  0  0
   -1.7289    4.6794   14.1919 N   0  0  0  0  0  0  0  0  0  0  0  0
   -2.5200    3.6511   13.9851 N   0  0  0  0  0  0  0  0  0  0  0  0
   -4.8686    3.1714   13.2967 C   0  0  0  0  0  0  0  0  0  0  0  0
   -4.7471    2.0088   14.1154 O   0  0  0  0  0  0  0  0  0  0  0  0
   -5.4185    1.9466   15.3111 C   0  0  0  0  0  0  0  0  0  0  0  0
   -5.1231    0.8509   16.1073 C   0  0  0  0  0  0  0  0  0  0  0  0
   -5.7286    0.7279   17.3464 C   0  0  0  0  0  0  0  0  0  0  0  0
   -6.6217    1.6834   17.7870 C   0  0  0  0  0  0  0  0  0  0  0  0
   -6.9196    2.7664   16.9871 C   0  0  0  0  0  0  0  0  0  0  0  0
   -6.3233    2.9071   15.7461 C   0  0  0  0  0  0  0  0  0  0  0  0
 20 21  1  0  0  0
 20 15  1  0  0  0
 21 22  1  0  0  0
 22 23  2  0  0  0
 22 27  1  0  0  0
 23 24  1  0  0  0
 24 25  2  0  0  0
 25 26  1  0  0  0
 26 27  2  0  0  0
 15 16  2  0  0  0
 15 19  1  0  0  0
 16 17  1  0  0  0
 17 18  1  0  0  0
 17  1  1  0  0  0
 18 19  2  0  0  0
  1  2  2  0  0  0
  1  6  1  0  0  0
  2  3  1  0  0  0
  3  4  2  0  0  0
  4  5  1  0  0  0
  4  7  1  0  0  0
  5  6  2  0  0  0
  7  8  1  0  0  0
  7  9  1  0  0  0
  7 10  1  0  0  0
  8 11  1  0  0  0
  9 12  1  0  0  0
 10 13  1  0  0  0
 10 14  1  0  0  0
M  END
> <minimizedAffinity>
-6.99375

$$$$
5LJQ_ANV_A_302


 27 29  0  0  0  0  0  0  0  0999 V2000
   -4.5378    2.9373   13.7041 C   0  0  0  0  0  0  0  0  0  0  0  0
   -4.1847    1.6546   14.0722 C   0  0  0  0  0  0  0  0  0  0  0  0
   -4.7860    1.0491   15.1565 C   0  0  0  0  0  0  0  0  0  0  0  0
   -5.7340    1.7425   15.8892 C   0  0  0  0  0  0  0  0  0  0  0  0
   -6.0999    3.0331   15.5320 C   0  0  0  0  0  0  0  0  0  0  0  0
   -5.5015    3.6314   14.4325 C   0  0  0  0  0  0  0  0  0  0  0  0
   -6.4346    0.9840   17.3169 S   0  0  0  0  0  0  0  0  0  0  0  0
   -7.8432    0.8732   17.0758 O   0  0  0  0  0  0  0  0  0  0  0  0
   -5.6878   -0.2168   17.5655 O   0  0  0  0  0  0  0  0  0  0  0  0
   -6.2182    1.9833   18.5449 N   0  0  0  0  0  0  0  0  0  0  0  0
   -7.9974    0.2696   16.3323 H   0  0  0  0  0  0  0  0  0  0  0  0
   -5.8107   -0.8329   16.8265 H   0  0  0  0  0  0  0  0  0  0  0  0
   -6.7439    2.8420   18.3813 H   0  0  0  0  0  0  0  0  0  0  0  0
   -5.2262    2.2037   18.6332 H   0  0  0  0  0  0  0  0  0  0  0  0
   -3.4487    4.4801   10.6893 C   0  0  0  0  0  0  0  0  0  0  0  0
   -4.4781    3.9914   11.4352 C   0  0  0  0  0  0  0  0  0  0  0  0
   -3.9113    3.5414   12.5745 N   0  0  0  0  0  0  0  0  0  0  0  0
   -2.5733    3.7462   12.5476 N   0  0  0  0  0  0  0  0  0  0  0  0
   -2.2967    4.3179   11.3975 N   0  0  0  0  0  0  0  0  0  0  0  0
   -3.4630    5.0901    9.3327 C   0  0  0  0  0  0  0  0  0  0  0  0
   -3.6060    6.5047    9.4550 O   0  0  0  0  0  0  0  0  0  0  0  0
   -4.8515    7.0473    9.6522 C   0  0  0  0  0  0  0  0  0  0  0  0
   -4.8942    8.1677   10.4675 C   0  0  0  0  0  0  0  0  0  0  0  0
   -6.1055    8.8001   10.6909 C   0  0  0  0  0  0  0  0  0  0  0  0
   -7.2629    8.3203   10.1122 C   0  0  0  0  0  0  0  0  0  0  0  0
   -7.2166    7.1997    9.3099 C   0  0  0  0  0  0  0  0  0  0  0  0
   -6.0149    6.5550    9.0739 C   0  0  0  0  0  0  0  0  0  0  0  0
 20 21  1  0  0  0
 20 15  1  0  0  0
 21 22  1  0  0  0
 22 23  2  0  0  0
 22 27  1  0  0  0
 23 24  1  0  0  0
 24 25  2  0  0  0
 25 26  1  0  0  0
 26 27  2  0  0  0
 15 16  2  0  0  0
 15 19  1  0  0  0
 16 17  1  0  0  0
 17 18  1  0  0  0
 17  1  1  0  0  0
 18 19  2  0  0  0
  1  2  2  0  0  0
  1  6  1  0  0  0
  2  3  1  0  0  0
  3  4  2  0  0  0
  4  5  1  0  0  0
  4  7  1  0  0  0
  5  6  2  0  0  0
  7  8  1  0  0  0
  7  9  1  0  0  0
  7 10  1  0  0  0
  8 11  1  0  0  0
  9 12  1  0  0  0
 10 13  1  0  0  0
 10 14  1  0  0  0
M  END
> <minimizedAffinity>
-6.90948

$$$$
5LJQ_ANV_A_302


 27 29  0  0  0  0  0  0  0  0999 V2000
   -2.0618    7.3553   13.4767 C   0  0  0  0  0  0  0  0  0  0  0  0
   -2.0912    8.0522   12.2855 C   0  0  0  0  0  0  0  0  0  0  0  0
   -1.8959    9.4181   12.2709 C   0  0  0  0  0  0  0  0  0  0  0  0
   -1.6897   10.0929   13.4619 C   0  0  0  0  0  0  0  0  0  0  0  0
   -1.6574    9.4066   14.6681 C   0  0  0  0  0  0  0  0  0  0  0  0
   -1.8408    8.0314   14.6747 C   0  0  0  0  0  0  0  0  0  0  0  0
   -1.5204   11.8465   13.4333 S   0  0  0  0  0  0  0  0  0  0  0  0
   -2.7626   12.3729   12.9494 O   0  0  0  0  0  0  0  0  0  0  0  0
   -1.0699   12.2477   14.7362 O   0  0  0  0  0  0  0  0  0  0  0  0
   -0.3827   12.2003   12.3683 N   0  0  0  0  0  0  0  0  0  0  0  0
   -3.4687   12.1688   13.5824 H   0  0  0  0  0  0  0  0  0  0  0  0
   -1.7523   12.0382   15.3930 H   0  0  0  0  0  0  0  0  0  0  0  0
   -0.6899   11.9202   11.4369 H   0  0  0  0  0  0  0  0  0  0  0  0
    0.4743   11.7017   12.6080 H   0  0  0  0  0  0  0  0  0  0  0  0
   -3.0298    3.9343   13.6004 C   0  0  0  0  0  0  0  0  0  0  0  0
   -3.3694    5.2421   13.7718 C   0  0  0  0  0  0  0  0  0  0  0  0
   -2.2562    5.9426   13.4690 N   0  0  0  0  0  0  0  0  0  0  0  0
   -1.2543    5.1043   13.1135 N   0  0  0  0  0  0  0  0  0  0  0  0
   -1.7305    3.8826   13.1954 N   0  0  0  0  0  0  0  0  0  0  0  0
   -3.8444    2.7061   13.8012 C   0  0  0  0  0  0  0  0  0  0  0  0
   -3.6896    2.2541   15.1460 O   0  0  0  0  0  0  0  0  0  0  0  0
   -4.7986    1.9162   15.8812 C   0  0  0  0  0  0  0  0  0  0  0  0
   -5.8068    2.8671   15.9153 C   0  0  0  0  0  0  0  0  0  0  0  0
   -6.9762    2.5936   16.6043 C   0  0  0  0  0  0  0  0  0  0  0  0
   -7.1391    1.3880   17.2559 C   0  0  0  0  0  0  0  0  0  0  0  0
   -6.1293    0.4493   17.2272 C   0  0  0  0  0  0  0  0  0  0  0  0
   -4.9539    0.7042   16.5425 C   0  0  0  0  0  0  0  0  0  0  0  0
 20 21  1  0  0  0
 20 15  1  0  0  0
 21 22  1  0  0  0
 22 23  2  0  0  0
 22 27  1  0  0  0
 23 24  1  0  0  0
 24 25  2  0  0  0
 25 26  1  0  0  0
 26 27  2  0  0  0
 15 16  2  0  0  0
 15 19  1  0  0  0
 16 17  1  0  0  0
 17 18  1  0  0  0
 17  1  1  0  0  0
 18 19  2  0  0  0
  1  2  2  0  0  0
  1  6  1  0  0  0
  2  3  1  0  0  0
  3  4  2  0  0  0
  4  5  1  0  0  0
  4  7  1  0  0  0
  5  6  2  0  0  0
  7  8  1  0  0  0
  7  9  1  0  0  0
  7 10  1  0  0  0
  8 11  1  0  0  0
  9 12  1  0  0  0
 10 13  1  0  0  0
 10 14  1  0  0  0
M  END
> <minimizedAffinity>
-6.81266

$$$$
5LJQ_ANV_A_302


 27 29  0  0  0  0  0  0  0  0999 V2000
   -4.6828    3.9861   14.2547 C   0  0  0  0  0  0  0  0  0  0  0  0
   -5.9698    4.1411   14.7294 C   0  0  0  0  0  0  0  0  0  0  0  0
   -6.4449    3.3265   15.7367 C   0  0  0  0  0  0  0  0  0  0  0  0
   -5.6302    2.3361   16.2579 C   0  0  0  0  0  0  0  0  0  0  0  0
   -4.3337    2.1674   15.7912 C   0  0  0  0  0  0  0  0  0  0  0  0
   -3.8573    2.9985   14.7877 C   0  0  0  0  0  0  0  0  0  0  0  0
   -6.2788    1.2544   17.4883 S   0  0  0  0  0  0  0  0  0  0  0  0
   -7.6151    0.9269   17.0866 O   0  0  0  0  0  0  0  0  0  0  0  0
   -5.3334    0.1861   17.6510 O   0  0  0  0  0  0  0  0  0  0  0  0
   -6.3590    2.0778   18.8555 N   0  0  0  0  0  0  0  0  0  0  0  0
   -7.5895    0.4256   16.2566 H   0  0  0  0  0  0  0  0  0  0  0  0
   -5.2751   -0.3224   16.8270 H   0  0  0  0  0  0  0  0  0  0  0  0
   -7.0280    2.8411   18.7540 H   0  0  0  0  0  0  0  0  0  0  0  0
   -5.4392    2.4591   19.0772 H   0  0  0  0  0  0  0  0  0  0  0  0
   -3.1162    6.2455   11.9971 C   0  0  0  0  0  0  0  0  0  0  0  0
   -3.1257    5.6513   13.2226 C   0  0  0  0  0  0  0  0  0  0  0  0
   -4.2078    4.8446   13.2199 N   0  0  0  0  0  0  0  0  0  0  0  0
   -4.8519    4.9246   12.0316 N   0  0  0  0  0  0  0  0  0  0  0  0
   -4.1832    5.7790   11.2908 N   0  0  0  0  0  0  0  0  0  0  0  0
   -2.1697    7.2440   11.4317 C   0  0  0  0  0  0  0  0  0  0  0  0
   -0.8359    6.7533   11.5614 O   0  0  0  0  0  0  0  0  0  0  0  0
   -0.4050    5.7338   10.7493 C   0  0  0  0  0  0  0  0  0  0  0  0
   -0.3686    6.0227    9.3940 C   0  0  0  0  0  0  0  0  0  0  0  0
    0.0878    5.0630    8.5063 C   0  0  0  0  0  0  0  0  0  0  0  0
    0.5000    3.8274    8.9623 C   0  0  0  0  0  0  0  0  0  0  0  0
    0.4526    3.5415   10.3105 C   0  0  0  0  0  0  0  0  0  0  0  0
    0.0008    4.4885   11.2130 C   0  0  0  0  0  0  0  0  0  0  0  0
 20 21  1  0  0  0
 20 15  1  0  0  0
 21 22  1  0  0  0
 22 23  2  0  0  0
 22 27  1  0  0  0
 23 24  1  0  0  0
 24 25  2  0  0  0
 25 26  1  0  0  0
 26 27  2  0  0  0
 15 16  2  0  0  0
 15 19  1  0  0  0
 16 17  1  0  0  0
 17 18  1  0  0  0
 17  1  1  0  0  0
 18 19  2  0  0  0
  1  2  2  0  0  0
  1  6  1  0  0  0
  2  3  1  0  0  0
  3  4  2  0  0  0
  4  5  1  0  0  0
  4  7  1  0  0  0
  5  6  2  0  0  0
  7  8  1  0  0  0
  7  9  1  0  0  0
  7 10  1  0  0  0
  8 11  1  0  0  0
  9 12  1  0  0  0
 10 13  1  0  0  0
 10 14  1  0  0  0
M  END
> <minimizedAffinity>
-6.73019

$$$$
