5FL4_9FK_A_269


 26 29  0  0  0  0  0  0  0  0999 V2000
   14.6618  -26.3342   58.7532 C   0  0  0  0  0  0  0  0  0  0  0  0
   15.7754  -26.0180   59.5367 C   0  0  0  0  0  0  0  0  0  0  0  0
   16.7804  -26.2339   58.6612 N   0  0  0  0  0  0  0  0  0  0  0  0
   16.3418  -26.6229   57.3966 N   0  0  0  0  0  0  0  0  0  0  0  0
   14.9447  -26.6676   57.4781 N   0  0  0  0  0  0  0  0  0  0  0  0
   18.1283  -26.1366   58.7599 C   0  0  0  0  0  0  0  0  0  0  0  0
   18.9555  -27.2135   59.1231 C   0  0  0  0  0  0  0  0  0  0  0  0
   20.3562  -27.1704   59.1596 C   0  0  0  0  0  0  0  0  0  0  0  0
   21.0428  -26.0193   58.8141 C   0  0  0  0  0  0  0  0  0  0  0  0
   20.3415  -24.8881   58.4176 C   0  0  0  0  0  0  0  0  0  0  0  0
   18.8452  -24.8912   58.3492 C   0  0  0  0  0  0  0  0  0  0  0  0
   21.0497  -23.7472   58.0829 C   0  0  0  0  0  0  0  0  0  0  0  0
   20.3636  -22.6116   57.6745 C   0  0  0  0  0  0  0  0  0  0  0  0
   18.9636  -22.6030   57.6134 C   0  0  0  0  0  0  0  0  0  0  0  0
   18.2111  -23.7267   57.9308 C   0  0  0  0  0  0  0  0  0  0  0  0
   10.8179  -26.7724   58.9607 C   0  0  0  0  0  0  0  0  0  0  0  0
   12.2453  -27.4752   58.2866 S   0  0  0  0  0  0  0  0  0  0  0  0
   13.2027  -26.2611   59.0406 C   0  0  0  0  0  0  0  0  0  0  0  0
   12.4555  -25.3238   59.7468 C   0  0  0  0  0  0  0  0  0  0  0  0
   11.0684  -25.6191   59.6993 C   0  0  0  0  0  0  0  0  0  0  0  0
    8.3208  -26.4844   59.2651 O   0  0  0  0  0  0  0  0  0  0  0  0
    9.2939  -27.3591   58.6404 S   0  0  0  0  0  0  0  0  0  0  0  0
    9.2097  -28.6601   59.2325 O   0  0  0  0  0  0  0  0  0  0  0  0
    9.1432  -27.5407   57.0568 N   0  0  0  0  0  0  0  0  0  0  0  0
    8.2130  -27.9003   56.8428 H   0  0  0  0  0  0  0  0  0  0  0  0
    9.8473  -28.1982   56.7215 H   0  0  0  0  0  0  0  0  0  0  0  0
 21 22  2  0  0  0
 22 23  2  0  0  0
 22 24  1  0  0  0
 22 16  1  0  0  0
 16 17  1  0  0  0
 16 20  2  0  0  0
 17 18  1  0  0  0
 18 19  2  0  0  0
 18  1  1  0  0  0
 19 20  1  0  0  0
  1  2  2  0  0  0
  1  5  1  0  0  0
  2  3  1  0  0  0
  3  4  1  0  0  0
  3  6  1  0  0  0
  4  5  2  0  0  0
  6  7  1  0  0  0
  6 11  2  0  0  0
  7  8  2  0  0  0
  8  9  1  0  0  0
  9 10  2  0  0  0
 10 11  1  0  0  0
 10 12  1  0  0  0
 11 15  1  0  0  0
 12 13  2  0  0  0
 13 14  1  0  0  0
 14 15  2  0  0  0
 24 25  1  0  0  0
 24 26  1  0  0  0
M  END
> <minimizedAffinity>
-8.39892

$$$$
5FL4_9FK_A_269


 26 29  0  0  0  0  0  0  0  0999 V2000
   14.7802  -26.8306   58.8496 C   0  0  0  0  0  0  0  0  0  0  0  0
   15.9046  -26.3862   59.5509 C   0  0  0  0  0  0  0  0  0  0  0  0
   16.9012  -26.9126   58.8072 N   0  0  0  0  0  0  0  0  0  0  0  0
   16.4501  -27.6113   57.6887 N   0  0  0  0  0  0  0  0  0  0  0  0
   15.0529  -27.5308   57.7304 N   0  0  0  0  0  0  0  0  0  0  0  0
   18.2510  -26.8883   58.9217 C   0  0  0  0  0  0  0  0  0  0  0  0
   19.0531  -25.8667   58.3839 C   0  0  0  0  0  0  0  0  0  0  0  0
   20.4417  -25.7680   58.5494 C   0  0  0  0  0  0  0  0  0  0  0  0
   21.1386  -26.7036   59.2943 C   0  0  0  0  0  0  0  0  0  0  0  0
   20.4589  -27.7546   59.8958 C   0  0  0  0  0  0  0  0  0  0  0  0
   18.9737  -27.8932   59.7593 C   0  0  0  0  0  0  0  0  0  0  0  0
   21.1782  -28.6809   60.6306 C   0  0  0  0  0  0  0  0  0  0  0  0
   20.5118  -29.7313   61.2468 C   0  0  0  0  0  0  0  0  0  0  0  0
   19.1235  -29.8728   61.1194 C   0  0  0  0  0  0  0  0  0  0  0  0
   18.3589  -28.9630   60.4001 C   0  0  0  0  0  0  0  0  0  0  0  0
   10.9067  -26.8567   58.9319 C   0  0  0  0  0  0  0  0  0  0  0  0
   12.2756  -27.7855   58.4323 S   0  0  0  0  0  0  0  0  0  0  0  0
   13.3276  -26.5746   59.0535 C   0  0  0  0  0  0  0  0  0  0  0  0
   12.6582  -25.4767   59.5845 C   0  0  0  0  0  0  0  0  0  0  0  0
   11.2503  -25.6389   59.5125 C   0  0  0  0  0  0  0  0  0  0  0  0
    8.4395  -26.3844   59.2489 O   0  0  0  0  0  0  0  0  0  0  0  0
    9.3418  -27.3319   58.6242 S   0  0  0  0  0  0  0  0  0  0  0  0
    9.1662  -28.6196   59.2254 O   0  0  0  0  0  0  0  0  0  0  0  0
    9.1683  -27.5117   57.0428 N   0  0  0  0  0  0  0  0  0  0  0  0
    8.2129  -27.8033   56.8365 H   0  0  0  0  0  0  0  0  0  0  0  0
    9.8201  -28.2211   56.7077 H   0  0  0  0  0  0  0  0  0  0  0  0
 21 22  2  0  0  0
 22 23  2  0  0  0
 22 24  1  0  0  0
 22 16  1  0  0  0
 16 17  1  0  0  0
 16 20  2  0  0  0
 17 18  1  0  0  0
 18 19  2  0  0  0
 18  1  1  0  0  0
 19 20  1  0  0  0
  1  2  2  0  0  0
  1  5  1  0  0  0
  2  3  1  0  0  0
  3  4  1  0  0  0
  3  6  1  0  0  0
  4  5  2  0  0  0
  6  7  1  0  0  0
  6 11  2  0  0  0
  7  8  2  0  0  0
  8  9  1  0  0  0
  9 10  2  0  0  0
 10 11  1  0  0  0
 10 12  1  0  0  0
 11 15  1  0  0  0
 12 13  2  0  0  0
 13 14  1  0  0  0
 14 15  2  0  0  0
 24 25  1  0  0  0
 24 26  1  0  0  0
M  END
> <minimizedAffinity>
-8.11024

$$$$
5FL4_9FK_A_269


 26 29  0  0  0  0  0  0  0  0999 V2000
   14.9060  -27.6601   59.6202 C   0  0  0  0  0  0  0  0  0  0  0  0
   16.0355  -27.1555   60.2710 C   0  0  0  0  0  0  0  0  0  0  0  0
   16.9624  -28.0798   59.9396 N   0  0  0  0  0  0  0  0  0  0  0  0
   16.4729  -29.0833   59.1053 N   0  0  0  0  0  0  0  0  0  0  0  0
   15.1224  -28.7774   58.8978 N   0  0  0  0  0  0  0  0  0  0  0  0
   18.2751  -28.2218   60.2439 C   0  0  0  0  0  0  0  0  0  0  0  0
   18.7689  -29.2423   61.0751 C   0  0  0  0  0  0  0  0  0  0  0  0
   20.1254  -29.4663   61.3483 C   0  0  0  0  0  0  0  0  0  0  0  0
   21.1069  -28.6703   60.7834 C   0  0  0  0  0  0  0  0  0  0  0  0
   20.7512  -27.6368   59.9267 C   0  0  0  0  0  0  0  0  0  0  0  0
   19.3157  -27.3686   59.5936 C   0  0  0  0  0  0  0  0  0  0  0  0
   21.7498  -26.8507   59.3790 C   0  0  0  0  0  0  0  0  0  0  0  0
   21.4112  -25.8204   58.5125 C   0  0  0  0  0  0  0  0  0  0  0  0
   20.0707  -25.5578   58.2000 C   0  0  0  0  0  0  0  0  0  0  0  0
   19.0353  -26.3256   58.7180 C   0  0  0  0  0  0  0  0  0  0  0  0
   11.1262  -27.0369   59.0405 C   0  0  0  0  0  0  0  0  0  0  0  0
   12.3221  -28.2837   59.0785 S   0  0  0  0  0  0  0  0  0  0  0  0
   13.5237  -27.1228   59.4875 C   0  0  0  0  0  0  0  0  0  0  0  0
   13.0390  -25.8202   59.5494 C   0  0  0  0  0  0  0  0  0  0  0  0
   11.6453  -25.7690   59.2877 C   0  0  0  0  0  0  0  0  0  0  0  0
    8.7273  -26.2295   59.1028 O   0  0  0  0  0  0  0  0  0  0  0  0
    9.5421  -27.3282   58.6222 S   0  0  0  0  0  0  0  0  0  0  0  0
    9.1464  -28.5352   59.2832 O   0  0  0  0  0  0  0  0  0  0  0  0
    9.4758  -27.5994   57.0456 N   0  0  0  0  0  0  0  0  0  0  0  0
    8.5099  -27.7801   56.7720 H   0  0  0  0  0  0  0  0  0  0  0  0
   10.0515  -28.4093   56.8154 H   0  0  0  0  0  0  0  0  0  0  0  0
 21 22  2  0  0  0
 22 23  2  0  0  0
 22 24  1  0  0  0
 22 16  1  0  0  0
 16 17  1  0  0  0
 16 20  2  0  0  0
 17 18  1  0  0  0
 18 19  2  0  0  0
 18  1  1  0  0  0
 19 20  1  0  0  0
  1  2  2  0  0  0
  1  5  1  0  0  0
  2  3  1  0  0  0
  3  4  1  0  0  0
  3  6  1  0  0  0
  4  5  2  0  0  0
  6  7  1  0  0  0
  6 11  2  0  0  0
  7  8  2  0  0  0
  8  9  1  0  0  0
  9 10  2  0  0  0
 10 11  1  0  0  0
 10 12  1  0  0  0
 11 15  1  0  0  0
 12 13  2  0  0  0
 13 14  1  0  0  0
 14 15  2  0  0  0
 24 25  1  0  0  0
 24 26  1  0  0  0
M  END
> <minimizedAffinity>
-8.05930

$$$$
5FL4_9FK_A_269


 26 29  0  0  0  0  0  0  0  0999 V2000
   14.2412  -26.4698   58.3870 C   0  0  0  0  0  0  0  0  0  0  0  0
   15.2831  -25.8325   59.0667 C   0  0  0  0  0  0  0  0  0  0  0  0
   16.2043  -25.7198   58.0858 N   0  0  0  0  0  0  0  0  0  0  0  0
   15.7706  -26.2138   56.8568 N   0  0  0  0  0  0  0  0  0  0  0  0
   14.4717  -26.6882   57.0769 N   0  0  0  0  0  0  0  0  0  0  0  0
   17.4601  -25.2122   58.0520 C   0  0  0  0  0  0  0  0  0  0  0  0
   17.7481  -23.8892   57.6742 C   0  0  0  0  0  0  0  0  0  0  0  0
   19.0236  -23.3081   57.7023 C   0  0  0  0  0  0  0  0  0  0  0  0
   20.1248  -24.0274   58.1332 C   0  0  0  0  0  0  0  0  0  0  0  0
   19.9715  -25.3425   58.5524 C   0  0  0  0  0  0  0  0  0  0  0  0
   18.6261  -26.0010   58.5540 C   0  0  0  0  0  0  0  0  0  0  0  0
   21.0882  -26.0432   58.9731 C   0  0  0  0  0  0  0  0  0  0  0  0
   20.9497  -27.3552   59.4051 C   0  0  0  0  0  0  0  0  0  0  0  0
   19.6962  -27.9817   59.4041 C   0  0  0  0  0  0  0  0  0  0  0  0
   18.5463  -27.3156   58.9996 C   0  0  0  0  0  0  0  0  0  0  0  0
   10.5328  -26.6497   59.4943 C   0  0  0  0  0  0  0  0  0  0  0  0
   11.7435  -25.5571   58.9230 S   0  0  0  0  0  0  0  0  0  0  0  0
   12.8701  -26.8531   58.8230 C   0  0  0  0  0  0  0  0  0  0  0  0
   12.3544  -28.0716   59.2534 C   0  0  0  0  0  0  0  0  0  0  0  0
   10.9958  -27.9539   59.6458 C   0  0  0  0  0  0  0  0  0  0  0  0
    8.6863  -26.7231   61.2253 O   0  0  0  0  0  0  0  0  0  0  0  0
    9.0087  -26.1468   59.9345 S   0  0  0  0  0  0  0  0  0  0  0  0
    8.0980  -26.6501   58.9508 O   0  0  0  0  0  0  0  0  0  0  0  0
    8.9614  -24.5481   59.8604 N   0  0  0  0  0  0  0  0  0  0  0  0
    8.0324  -24.2227   60.1277 H   0  0  0  0  0  0  0  0  0  0  0  0
    9.1667  -24.2457   58.9082 H   0  0  0  0  0  0  0  0  0  0  0  0
 21 22  2  0  0  0
 22 23  2  0  0  0
 22 24  1  0  0  0
 22 16  1  0  0  0
 16 17  1  0  0  0
 16 20  2  0  0  0
 17 18  1  0  0  0
 18 19  2  0  0  0
 18  1  1  0  0  0
 19 20  1  0  0  0
  1  2  2  0  0  0
  1  5  1  0  0  0
  2  3  1  0  0  0
  3  4  1  0  0  0
  3  6  1  0  0  0
  4  5  2  0  0  0
  6  7  1  0  0  0
  6 11  2  0  0  0
  7  8  2  0  0  0
  8  9  1  0  0  0
  9 10  2  0  0  0
 10 11  1  0  0  0
 10 12  1  0  0  0
 11 15  1  0  0  0
 12 13  2  0  0  0
 13 14  1  0  0  0
 14 15  2  0  0  0
 24 25  1  0  0  0
 24 26  1  0  0  0
M  END
> <minimizedAffinity>
-7.97193

$$$$
5FL4_9FK_A_269


 26 29  0  0  0  0  0  0  0  0999 V2000
   14.9034  -26.8113   58.4805 C   0  0  0  0  0  0  0  0  0  0  0  0
   16.0664  -26.4739   57.7823 C   0  0  0  0  0  0  0  0  0  0  0  0
   16.9908  -26.5470   58.7638 N   0  0  0  0  0  0  0  0  0  0  0  0
   16.4656  -26.9403   59.9936 N   0  0  0  0  0  0  0  0  0  0  0  0
   15.0940  -27.1222   59.7783 N   0  0  0  0  0  0  0  0  0  0  0  0
   18.3276  -26.3276   58.7919 C   0  0  0  0  0  0  0  0  0  0  0  0
   19.2684  -27.3298   59.0864 C   0  0  0  0  0  0  0  0  0  0  0  0
   20.6592  -27.1584   59.0482 C   0  0  0  0  0  0  0  0  0  0  0  0
   21.2178  -25.9432   58.6915 C   0  0  0  0  0  0  0  0  0  0  0  0
   20.3954  -24.8750   58.3583 C   0  0  0  0  0  0  0  0  0  0  0  0
   18.9041  -25.0148   58.3704 C   0  0  0  0  0  0  0  0  0  0  0  0
   20.9770  -23.6682   58.0109 C   0  0  0  0  0  0  0  0  0  0  0  0
   20.1687  -22.5940   57.6650 C   0  0  0  0  0  0  0  0  0  0  0  0
   18.7726  -22.7133   57.6797 C   0  0  0  0  0  0  0  0  0  0  0  0
   18.1443  -23.9067   58.0124 C   0  0  0  0  0  0  0  0  0  0  0  0
   11.0728  -27.2471   58.0973 C   0  0  0  0  0  0  0  0  0  0  0  0
   12.3052  -26.8941   59.2559 S   0  0  0  0  0  0  0  0  0  0  0  0
   13.4994  -26.9999   58.0224 C   0  0  0  0  0  0  0  0  0  0  0  0
   12.9816  -27.3375   56.7759 C   0  0  0  0  0  0  0  0  0  0  0  0
   11.5708  -27.4834   56.8189 C   0  0  0  0  0  0  0  0  0  0  0  0
    9.3216  -28.6046   59.3226 O   0  0  0  0  0  0  0  0  0  0  0  0
    9.4703  -27.4091   58.5159 S   0  0  0  0  0  0  0  0  0  0  0  0
    8.7303  -27.5638   57.2998 O   0  0  0  0  0  0  0  0  0  0  0  0
    8.9858  -26.0469   59.2038 N   0  0  0  0  0  0  0  0  0  0  0  0
    8.0038  -26.1294   59.4670 H   0  0  0  0  0  0  0  0  0  0  0  0
    9.0979  -25.2754   58.5461 H   0  0  0  0  0  0  0  0  0  0  0  0
 21 22  2  0  0  0
 22 23  2  0  0  0
 22 24  1  0  0  0
 22 16  1  0  0  0
 16 17  1  0  0  0
 16 20  2  0  0  0
 17 18  1  0  0  0
 18 19  2  0  0  0
 18  1  1  0  0  0
 19 20  1  0  0  0
  1  2  2  0  0  0
  1  5  1  0  0  0
  2  3  1  0  0  0
  3  4  1  0  0  0
  3  6  1  0  0  0
  4  5  2  0  0  0
  6  7  1  0  0  0
  6 11  2  0  0  0
  7  8  2  0  0  0
  8  9  1  0  0  0
  9 10  2  0  0  0
 10 11  1  0  0  0
 10 12  1  0  0  0
 11 15  1  0  0  0
 12 13  2  0  0  0
 13 14  1  0  0  0
 14 15  2  0  0  0
 24 25  1  0  0  0
 24 26  1  0  0  0
M  END
> <minimizedAffinity>
-7.84063

$$$$
5FL4_9FK_A_269


 26 29  0  0  0  0  0  0  0  0999 V2000
   15.5151  -26.3235   58.7221 C   0  0  0  0  0  0  0  0  0  0  0  0
   14.6226  -27.3521   58.4068 C   0  0  0  0  0  0  0  0  0  0  0  0
   13.4364  -26.7296   58.5759 N   0  0  0  0  0  0  0  0  0  0  0  0
   13.5589  -25.3886   58.9358 N   0  0  0  0  0  0  0  0  0  0  0  0
   14.9351  -25.1415   59.0114 N   0  0  0  0  0  0  0  0  0  0  0  0
   12.1514  -27.1417   58.4541 C   0  0  0  0  0  0  0  0  0  0  0  0
   11.3028  -27.3591   59.5536 C   0  0  0  0  0  0  0  0  0  0  0  0
    9.9485  -27.7092   59.4629 C   0  0  0  0  0  0  0  0  0  0  0  0
    9.3319  -27.8577   58.2325 C   0  0  0  0  0  0  0  0  0  0  0  0
   10.0568  -27.6518   57.0660 C   0  0  0  0  0  0  0  0  0  0  0  0
   11.5024  -27.2622   57.1133 C   0  0  0  0  0  0  0  0  0  0  0  0
    9.4202  -27.8122   55.8478 C   0  0  0  0  0  0  0  0  0  0  0  0
   10.1284  -27.5996   54.6729 C   0  0  0  0  0  0  0  0  0  0  0  0
   11.4826  -27.2412   54.7069 C   0  0  0  0  0  0  0  0  0  0  0  0
   12.1609  -27.0597   55.9056 C   0  0  0  0  0  0  0  0  0  0  0  0
   19.3341  -26.9204   58.9852 C   0  0  0  0  0  0  0  0  0  0  0  0
   17.8049  -27.6885   59.2247 S   0  0  0  0  0  0  0  0  0  0  0  0
   17.0024  -26.2650   58.6874 C   0  0  0  0  0  0  0  0  0  0  0  0
   17.8697  -25.2221   58.3778 C   0  0  0  0  0  0  0  0  0  0  0  0
   19.2257  -25.6016   58.5525 C   0  0  0  0  0  0  0  0  0  0  0  0
   20.7372  -28.0677   60.7533 O   0  0  0  0  0  0  0  0  0  0  0  0
   20.7764  -27.6600   59.3625 S   0  0  0  0  0  0  0  0  0  0  0  0
   21.8097  -26.6849   59.1841 O   0  0  0  0  0  0  0  0  0  0  0  0
   21.0355  -28.8343   58.3054 N   0  0  0  0  0  0  0  0  0  0  0  0
   21.9172  -29.2989   58.5227 H   0  0  0  0  0  0  0  0  0  0  0  0
   21.0808  -28.4415   57.3652 H   0  0  0  0  0  0  0  0  0  0  0  0
 21 22  2  0  0  0
 22 23  2  0  0  0
 22 24  1  0  0  0
 22 16  1  0  0  0
 16 17  1  0  0  0
 16 20  2  0  0  0
 17 18  1  0  0  0
 18 19  2  0  0  0
 18  1  1  0  0  0
 19 20  1  0  0  0
  1  2  2  0  0  0
  1  5  1  0  0  0
  2  3  1  0  0  0
  3  4  1  0  0  0
  3  6  1  0  0  0
  4  5  2  0  0  0
  6  7  1  0  0  0
  6 11  2  0  0  0
  7  8  2  0  0  0
  8  9  1  0  0  0
  9 10  2  0  0  0
 10 11  1  0  0  0
 10 12  1  0  0  0
 11 15  1  0  0  0
 12 13  2  0  0  0
 13 14  1  0  0  0
 14 15  2  0  0  0
 24 25  1  0  0  0
 24 26  1  0  0  0
M  END
> <minimizedAffinity>
-7.57748

$$$$
5FL4_9FK_A_269


 26 29  0  0  0  0  0  0  0  0999 V2000
   15.4799  -26.1573   58.7398 C   0  0  0  0  0  0  0  0  0  0  0  0
   14.6166  -27.1935   58.3724 C   0  0  0  0  0  0  0  0  0  0  0  0
   13.4141  -26.6325   58.6222 N   0  0  0  0  0  0  0  0  0  0  0  0
   13.4982  -25.3186   59.0799 N   0  0  0  0  0  0  0  0  0  0  0  0
   14.8660  -25.0241   59.1349 N   0  0  0  0  0  0  0  0  0  0  0  0
   12.1420  -27.0844   58.5060 C   0  0  0  0  0  0  0  0  0  0  0  0
   11.3101  -27.3413   59.6097 C   0  0  0  0  0  0  0  0  0  0  0  0
    9.9669  -27.7338   59.5257 C   0  0  0  0  0  0  0  0  0  0  0  0
    9.3452  -27.8882   58.2987 C   0  0  0  0  0  0  0  0  0  0  0  0
   10.0534  -27.6460   57.1289 C   0  0  0  0  0  0  0  0  0  0  0  0
   11.4860  -27.2106   57.1691 C   0  0  0  0  0  0  0  0  0  0  0  0
    9.4121  -27.8131   55.9139 C   0  0  0  0  0  0  0  0  0  0  0  0
   10.1033  -27.5646   54.7360 C   0  0  0  0  0  0  0  0  0  0  0  0
   11.4456  -27.1632   54.7633 C   0  0  0  0  0  0  0  0  0  0  0  0
   12.1277  -26.9734   55.9586 C   0  0  0  0  0  0  0  0  0  0  0  0
   19.1714  -25.1587   58.1182 C   0  0  0  0  0  0  0  0  0  0  0  0
   17.5466  -24.6092   57.9087 S   0  0  0  0  0  0  0  0  0  0  0  0
   16.9622  -26.0381   58.6674 C   0  0  0  0  0  0  0  0  0  0  0  0
   17.9700  -26.9266   59.0288 C   0  0  0  0  0  0  0  0  0  0  0  0
   19.2549  -26.4170   58.7081 C   0  0  0  0  0  0  0  0  0  0  0  0
   20.0271  -23.0222   57.0628 O   0  0  0  0  0  0  0  0  0  0  0  0
   20.4843  -24.3095   57.5485 S   0  0  0  0  0  0  0  0  0  0  0  0
   21.0310  -25.0597   56.4582 O   0  0  0  0  0  0  0  0  0  0  0  0
   21.5940  -24.2585   58.7014 N   0  0  0  0  0  0  0  0  0  0  0  0
   22.4070  -23.7405   58.3681 H   0  0  0  0  0  0  0  0  0  0  0  0
   21.8732  -25.2083   58.9469 H   0  0  0  0  0  0  0  0  0  0  0  0
 21 22  2  0  0  0
 22 23  2  0  0  0
 22 24  1  0  0  0
 22 16  1  0  0  0
 16 17  1  0  0  0
 16 20  2  0  0  0
 17 18  1  0  0  0
 18 19  2  0  0  0
 18  1  1  0  0  0
 19 20  1  0  0  0
  1  2  2  0  0  0
  1  5  1  0  0  0
  2  3  1  0  0  0
  3  4  1  0  0  0
  3  6  1  0  0  0
  4  5  2  0  0  0
  6  7  1  0  0  0
  6 11  2  0  0  0
  7  8  2  0  0  0
  8  9  1  0  0  0
  9 10  2  0  0  0
 10 11  1  0  0  0
 10 12  1  0  0  0
 11 15  1  0  0  0
 12 13  2  0  0  0
 13 14  1  0  0  0
 14 15  2  0  0  0
 24 25  1  0  0  0
 24 26  1  0  0  0
M  END
> <minimizedAffinity>
-7.51153

$$$$
5FL4_9FK_A_269


 26 29  0  0  0  0  0  0  0  0999 V2000
   13.8933  -27.0055   57.5948 C   0  0  0  0  0  0  0  0  0  0  0  0
   15.2278  -27.0565   58.0075 C   0  0  0  0  0  0  0  0  0  0  0  0
   15.8651  -26.6833   56.8771 N   0  0  0  0  0  0  0  0  0  0  0  0
   15.0010  -26.3779   55.8270 N   0  0  0  0  0  0  0  0  0  0  0  0
   13.7097  -26.5833   56.3279 N   0  0  0  0  0  0  0  0  0  0  0  0
   17.1742  -26.5338   56.5613 C   0  0  0  0  0  0  0  0  0  0  0  0
   17.9090  -27.4917   55.8411 C   0  0  0  0  0  0  0  0  0  0  0  0
   19.2401  -27.3365   55.4298 C   0  0  0  0  0  0  0  0  0  0  0  0
   19.9412  -26.1760   55.7086 C   0  0  0  0  0  0  0  0  0  0  0  0
   19.3219  -25.1426   56.3992 C   0  0  0  0  0  0  0  0  0  0  0  0
   17.8967  -25.2568   56.8459 C   0  0  0  0  0  0  0  0  0  0  0  0
   20.0451  -23.9946   56.6716 C   0  0  0  0  0  0  0  0  0  0  0  0
   19.4370  -22.9484   57.3518 C   0  0  0  0  0  0  0  0  0  0  0  0
   18.1062  -23.0486   57.7793 C   0  0  0  0  0  0  0  0  0  0  0  0
   17.3384  -24.1770   57.5208 C   0  0  0  0  0  0  0  0  0  0  0  0
   10.4432  -26.7858   59.3440 C   0  0  0  0  0  0  0  0  0  0  0  0
   11.5303  -25.8983   58.3358 S   0  0  0  0  0  0  0  0  0  0  0  0
   12.6230  -27.2267   58.3394 C   0  0  0  0  0  0  0  0  0  0  0  0
   12.1948  -28.2958   59.1201 C   0  0  0  0  0  0  0  0  0  0  0  0
   10.9282  -28.0395   59.7063 C   0  0  0  0  0  0  0  0  0  0  0  0
    8.7863  -26.6471   61.2536 O   0  0  0  0  0  0  0  0  0  0  0  0
    9.0217  -26.1373   59.9169 S   0  0  0  0  0  0  0  0  0  0  0  0
    7.9743  -26.5840   59.0487 O   0  0  0  0  0  0  0  0  0  0  0  0
    9.1045  -24.5433   59.7901 N   0  0  0  0  0  0  0  0  0  0  0  0
    8.2395  -24.1293   60.1375 H   0  0  0  0  0  0  0  0  0  0  0  0
    9.2353  -24.2864   58.8117 H   0  0  0  0  0  0  0  0  0  0  0  0
 21 22  2  0  0  0
 22 23  2  0  0  0
 22 24  1  0  0  0
 22 16  1  0  0  0
 16 17  1  0  0  0
 16 20  2  0  0  0
 17 18  1  0  0  0
 18 19  2  0  0  0
 18  1  1  0  0  0
 19 20  1  0  0  0
  1  2  2  0  0  0
  1  5  1  0  0  0
  2  3  1  0  0  0
  3  4  1  0  0  0
  3  6  1  0  0  0
  4  5  2  0  0  0
  6  7  1  0  0  0
  6 11  2  0  0  0
  7  8  2  0  0  0
  8  9  1  0  0  0
  9 10  2  0  0  0
 10 11  1  0  0  0
 10 12  1  0  0  0
 11 15  1  0  0  0
 12 13  2  0  0  0
 13 14  1  0  0  0
 14 15  2  0  0  0
 24 25  1  0  0  0
 24 26  1  0  0  0
M  END
> <minimizedAffinity>
-7.26005

$$$$
5FL4_9FK_A_269


 26 29  0  0  0  0  0  0  0  0999 V2000
   15.0266  -26.2888   58.7921 C   0  0  0  0  0  0  0  0  0  0  0  0
   16.1905  -26.3608   58.0214 C   0  0  0  0  0  0  0  0  0  0  0  0
   17.1266  -26.0082   58.9285 N   0  0  0  0  0  0  0  0  0  0  0  0
   16.6059  -25.7652   60.1984 N   0  0  0  0  0  0  0  0  0  0  0  0
   15.2253  -25.9704   60.0868 N   0  0  0  0  0  0  0  0  0  0  0  0
   18.4709  -25.8552   58.8567 C   0  0  0  0  0  0  0  0  0  0  0  0
   19.3822  -26.8783   59.1712 C   0  0  0  0  0  0  0  0  0  0  0  0
   20.7739  -26.7809   59.0341 C   0  0  0  0  0  0  0  0  0  0  0  0
   21.3629  -25.6263   58.5484 C   0  0  0  0  0  0  0  0  0  0  0  0
   20.5701  -24.5463   58.1827 C   0  0  0  0  0  0  0  0  0  0  0  0
   19.0780  -24.6092   58.2977 C   0  0  0  0  0  0  0  0  0  0  0  0
   21.1822  -23.4005   57.7056 C   0  0  0  0  0  0  0  0  0  0  0  0
   20.4029  -22.3163   57.3260 C   0  0  0  0  0  0  0  0  0  0  0  0
   19.0067  -22.3634   57.4360 C   0  0  0  0  0  0  0  0  0  0  0  0
   18.3478  -23.4947   57.9004 C   0  0  0  0  0  0  0  0  0  0  0  0
   11.6536  -27.3662   57.2195 C   0  0  0  0  0  0  0  0  0  0  0  0
   13.3591  -27.3636   56.9418 S   0  0  0  0  0  0  0  0  0  0  0  0
   13.6095  -26.6111   58.4683 C   0  0  0  0  0  0  0  0  0  0  0  0
   12.4291  -26.3297   59.1488 C   0  0  0  0  0  0  0  0  0  0  0  0
   11.2910  -26.7667   58.4226 C   0  0  0  0  0  0  0  0  0  0  0  0
   10.9409  -29.2654   55.7042 O   0  0  0  0  0  0  0  0  0  0  0  0
   10.5636  -27.9198   56.0905 S   0  0  0  0  0  0  0  0  0  0  0  0
   10.6598  -27.0562   54.9524 O   0  0  0  0  0  0  0  0  0  0  0  0
    9.0877  -27.7617   56.6908 N   0  0  0  0  0  0  0  0  0  0  0  0
    8.4061  -28.0971   56.0101 H   0  0  0  0  0  0  0  0  0  0  0  0
    8.9077  -26.7790   56.8962 H   0  0  0  0  0  0  0  0  0  0  0  0
 21 22  2  0  0  0
 22 23  2  0  0  0
 22 24  1  0  0  0
 22 16  1  0  0  0
 16 17  1  0  0  0
 16 20  2  0  0  0
 17 18  1  0  0  0
 18 19  2  0  0  0
 18  1  1  0  0  0
 19 20  1  0  0  0
  1  2  2  0  0  0
  1  5  1  0  0  0
  2  3  1  0  0  0
  3  4  1  0  0  0
  3  6  1  0  0  0
  4  5  2  0  0  0
  6  7  1  0  0  0
  6 11  2  0  0  0
  7  8  2  0  0  0
  8  9  1  0  0  0
  9 10  2  0  0  0
 10 11  1  0  0  0
 10 12  1  0  0  0
 11 15  1  0  0  0
 12 13  2  0  0  0
 13 14  1  0  0  0
 14 15  2  0  0  0
 24 25  1  0  0  0
 24 26  1  0  0  0
M  END
> <minimizedAffinity>
-7.05977

$$$$
5FL4_9FK_A_269


 26 29  0  0  0  0  0  0  0  0999 V2000
   15.3760  -26.5272   57.5415 C   0  0  0  0  0  0  0  0  0  0  0  0
   14.2571  -26.8728   58.3046 C   0  0  0  0  0  0  0  0  0  0  0  0
   13.2791  -26.8148   57.3753 N   0  0  0  0  0  0  0  0  0  0  0  0
   13.7423  -26.4934   56.1006 N   0  0  0  0  0  0  0  0  0  0  0  0
   15.1259  -26.3234   56.2326 N   0  0  0  0  0  0  0  0  0  0  0  0
   11.9406  -27.0183   57.4291 C   0  0  0  0  0  0  0  0  0  0  0  0
   11.2510  -27.8579   56.5371 C   0  0  0  0  0  0  0  0  0  0  0  0
    9.8824  -28.1526   56.6107 C   0  0  0  0  0  0  0  0  0  0  0  0
    9.0926  -27.6223   57.6162 C   0  0  0  0  0  0  0  0  0  0  0  0
    9.6578  -26.7908   58.5741 C   0  0  0  0  0  0  0  0  0  0  0  0
   11.1183  -26.4594   58.5448 C   0  0  0  0  0  0  0  0  0  0  0  0
    8.8468  -26.2678   59.5660 C   0  0  0  0  0  0  0  0  0  0  0  0
    9.3988  -25.4436   60.5370 C   0  0  0  0  0  0  0  0  0  0  0  0
   10.7627  -25.1227   60.5141 C   0  0  0  0  0  0  0  0  0  0  0  0
   11.6172  -25.6312   59.5440 C   0  0  0  0  0  0  0  0  0  0  0  0
   19.0370  -27.1298   58.6570 C   0  0  0  0  0  0  0  0  0  0  0  0
   17.5353  -27.9387   58.3807 S   0  0  0  0  0  0  0  0  0  0  0  0
   16.8214  -26.4523   57.8908 C   0  0  0  0  0  0  0  0  0  0  0  0
   17.6862  -25.3658   57.9774 C   0  0  0  0  0  0  0  0  0  0  0  0
   18.9743  -25.7585   58.4248 C   0  0  0  0  0  0  0  0  0  0  0  0
   20.6491  -29.0697   58.4358 O   0  0  0  0  0  0  0  0  0  0  0  0
   20.3762  -27.9103   59.2626 S   0  0  0  0  0  0  0  0  0  0  0  0
   20.0497  -28.3410   60.5886 O   0  0  0  0  0  0  0  0  0  0  0  0
   21.5702  -26.8502   59.3815 N   0  0  0  0  0  0  0  0  0  0  0  0
   22.4002  -27.3131   59.7518 H   0  0  0  0  0  0  0  0  0  0  0  0
   21.2933  -26.0953   60.0091 H   0  0  0  0  0  0  0  0  0  0  0  0
 21 22  2  0  0  0
 22 23  2  0  0  0
 22 24  1  0  0  0
 22 16  1  0  0  0
 16 17  1  0  0  0
 16 20  2  0  0  0
 17 18  1  0  0  0
 18 19  2  0  0  0
 18  1  1  0  0  0
 19 20  1  0  0  0
  1  2  2  0  0  0
  1  5  1  0  0  0
  2  3  1  0  0  0
  3  4  1  0  0  0
  3  6  1  0  0  0
  4  5  2  0  0  0
  6  7  1  0  0  0
  6 11  2  0  0  0
  7  8  2  0  0  0
  8  9  1  0  0  0
  9 10  2  0  0  0
 10 11  1  0  0  0
 10 12  1  0  0  0
 11 15  1  0  0  0
 12 13  2  0  0  0
 13 14  1  0  0  0
 14 15  2  0  0  0
 24 25  1  0  0  0
 24 26  1  0  0  0
M  END
> <minimizedAffinity>
-7.04300

$$$$
