1MU6_CDA_B_248


 33 35  0  0  0  0  0  0  0  0999 V2000
   18.1591  -15.7009   22.8372 C   0  0  0  0  0  0  0  0  0  0  0  0
   17.6045  -14.3437   22.5728 C   0  0  0  0  0  0  0  0  0  0  0  0
   18.2764  -13.5956   21.6298 N   0  0  0  0  0  0  0  0  0  0  0  0
   19.4437  -14.1057   20.9525 C   0  0  0  0  0  0  0  0  0  0  0  0
   19.9202  -15.3877   21.2786 C   0  0  0  0  0  0  0  0  0  0  0  0
   19.2759  -16.1250   22.1828 N   0  0  0  0  0  0  0  0  0  0  0  0
   16.6119  -13.8995   23.1468 O   0  0  0  0  0  0  0  0  0  0  0  0
   20.1756  -13.3364   19.9247 C   0  0  0  0  0  0  0  0  0  0  0  0
   17.5216  -16.4725   23.7780 N   0  0  0  0  0  0  0  0  0  0  0  0
   16.5417  -16.3990   23.8378 H   0  0  0  0  0  0  0  0  0  0  0  0
   18.1908  -17.4002   24.7032 C   0  0  0  0  0  0  0  0  0  0  0  0
   18.5244  -16.7268   26.0228 C   0  0  0  0  0  0  0  0  0  0  0  0
   17.4218  -16.0452   26.4036 F   0  0  0  0  0  0  0  0  0  0  0  0
   18.7543  -17.7118   26.9021 F   0  0  0  0  0  0  0  0  0  0  0  0
   20.8835  -16.4072   25.2426 N   0  0  0  0  0  0  0  0  0  0  0  0
   19.7892  -15.8723   25.9539 C   0  0  0  0  0  0  0  0  0  0  0  0
   19.8514  -14.5361   26.5299 C   0  0  0  0  0  0  0  0  0  0  0  0
   21.0851  -13.8186   26.3175 C   0  0  0  0  0  0  0  0  0  0  0  0
   22.1812  -14.4068   25.5618 C   0  0  0  0  0  0  0  0  0  0  0  0
   22.0742  -15.7407   25.0133 C   0  0  0  0  0  0  0  0  0  0  0  0
   17.7529  -12.2541   21.3077 C   0  0  0  0  0  0  0  0  0  0  0  0
   16.4045  -12.3449   20.6140 C   0  0  0  0  0  0  0  0  0  0  0  0
   15.3683  -11.8778   21.3537 N   0  0  0  0  0  0  0  0  0  0  0  0
   16.3205  -12.7852   19.4689 O   0  0  0  0  0  0  0  0  0  0  0  0
   15.5293  -11.5586   22.2710 H   0  0  0  0  0  0  0  0  0  0  0  0
   14.0099  -11.8433   20.8009 C   0  0  0  0  0  0  0  0  0  0  0  0
   12.9689  -11.5848   21.8656 C   0  0  0  0  0  0  0  0  0  0  0  0
   11.9434  -12.5556   22.0913 C   0  0  0  0  0  0  0  0  0  0  0  0
   10.9583  -12.3481   23.1175 C   0  0  0  0  0  0  0  0  0  0  0  0
   11.0301  -11.1389   23.8985 C   0  0  0  0  0  0  0  0  0  0  0  0
   13.0209  -10.4273   22.6231 N   0  0  0  0  0  0  0  0  0  0  0  0
   11.9620  -13.6216   21.2916 F   0  0  0  0  0  0  0  0  0  0  0  0
   12.0863  -10.1875   23.6190 C   0  0  0  0  0  0  0  0  0  0  0  0
 15 16  1  0  0  0
 15 20  2  0  0  0
 16 17  2  0  0  0
 16 12  1  0  0  0
 17 18  1  0  0  0
 18 19  2  0  0  0
 19 20  1  0  0  0
 12 11  1  0  0  0
 12 13  1  0  0  0
 12 14  1  0  0  0
 11  9  1  0  0  0
  9  1  1  0  0  0
  1  2  1  0  0  0
  1  6  2  0  0  0
  2  3  1  0  0  0
  2  7  2  0  0  0
  3  4  1  0  0  0
  3 21  1  0  0  0
  4  5  2  0  0  0
  4  8  1  0  0  0
  5  6  1  0  0  0
 21 22  1  0  0  0
 22 23  1  0  0  0
 22 24  2  0  0  0
 23 26  1  0  0  0
 26 27  1  0  0  0
 27 28  2  0  0  0
 27 31  1  0  0  0
 28 29  1  0  0  0
 28 32  1  0  0  0
 29 30  2  0  0  0
 30 33  1  0  0  0
 31 33  2  0  0  0
  9 10  1  0  0  0
 23 25  1  0  0  0
M  END
> <minimizedAffinity>
-8.90446

$$$$
1MU6_CDA_B_248


 33 35  0  0  0  0  0  0  0  0999 V2000
   17.3809  -14.6069   22.5618 C   0  0  0  0  0  0  0  0  0  0  0  0
   16.3018  -14.9449   21.5919 C   0  0  0  0  0  0  0  0  0  0  0  0
   16.4315  -14.3927   20.3354 N   0  0  0  0  0  0  0  0  0  0  0  0
   17.5450  -13.5403   19.9962 C   0  0  0  0  0  0  0  0  0  0  0  0
   18.5085  -13.2477   20.9775 C   0  0  0  0  0  0  0  0  0  0  0  0
   18.3997  -13.7809   22.1942 N   0  0  0  0  0  0  0  0  0  0  0  0
   15.3479  -15.6682   21.8726 O   0  0  0  0  0  0  0  0  0  0  0  0
   17.7224  -12.9475   18.6542 C   0  0  0  0  0  0  0  0  0  0  0  0
   17.2807  -15.1312   23.8275 N   0  0  0  0  0  0  0  0  0  0  0  0
   16.9190  -14.5482   24.5336 H   0  0  0  0  0  0  0  0  0  0  0  0
   17.6726  -16.4970   24.2090 C   0  0  0  0  0  0  0  0  0  0  0  0
   18.3046  -16.5300   25.5894 C   0  0  0  0  0  0  0  0  0  0  0  0
   17.3353  -16.2009   26.4712 F   0  0  0  0  0  0  0  0  0  0  0  0
   18.6775  -17.7993   25.8039 F   0  0  0  0  0  0  0  0  0  0  0  0
   20.3956  -15.6123   24.5588 N   0  0  0  0  0  0  0  0  0  0  0  0
   19.5582  -15.6625   25.6928 C   0  0  0  0  0  0  0  0  0  0  0  0
   19.8495  -14.8634   26.8750 C   0  0  0  0  0  0  0  0  0  0  0  0
   21.0275  -14.0338   26.7963 C   0  0  0  0  0  0  0  0  0  0  0  0
   21.8518  -14.0033   25.5970 C   0  0  0  0  0  0  0  0  0  0  0  0
   21.5246  -14.8200   24.4492 C   0  0  0  0  0  0  0  0  0  0  0  0
   15.4055  -14.7179   19.3260 C   0  0  0  0  0  0  0  0  0  0  0  0
   14.4424  -13.5593   19.1317 C   0  0  0  0  0  0  0  0  0  0  0  0
   13.8298  -13.1509   20.2706 N   0  0  0  0  0  0  0  0  0  0  0  0
   14.2909  -13.0536   18.0211 O   0  0  0  0  0  0  0  0  0  0  0  0
   14.0008  -13.6289   21.1142 H   0  0  0  0  0  0  0  0  0  0  0  0
   12.9148  -12.0044   20.2584 C   0  0  0  0  0  0  0  0  0  0  0  0
   12.3585  -11.7059   21.6316 C   0  0  0  0  0  0  0  0  0  0  0  0
   12.8163  -10.5481   22.3350 C   0  0  0  0  0  0  0  0  0  0  0  0
   12.2821  -10.2251   23.6300 C   0  0  0  0  0  0  0  0  0  0  0  0
   11.2868  -11.1006   24.1959 C   0  0  0  0  0  0  0  0  0  0  0  0
   11.4041  -12.5377   22.1916 N   0  0  0  0  0  0  0  0  0  0  0  0
   13.7568   -9.8276   21.7247 F   0  0  0  0  0  0  0  0  0  0  0  0
   10.8678  -12.2637   23.4406 C   0  0  0  0  0  0  0  0  0  0  0  0
 15 16  1  0  0  0
 15 20  2  0  0  0
 16 17  2  0  0  0
 16 12  1  0  0  0
 17 18  1  0  0  0
 18 19  2  0  0  0
 19 20  1  0  0  0
 12 11  1  0  0  0
 12 13  1  0  0  0
 12 14  1  0  0  0
 11  9  1  0  0  0
  9  1  1  0  0  0
  1  2  1  0  0  0
  1  6  2  0  0  0
  2  3  1  0  0  0
  2  7  2  0  0  0
  3  4  1  0  0  0
  3 21  1  0  0  0
  4  5  2  0  0  0
  4  8  1  0  0  0
  5  6  1  0  0  0
 21 22  1  0  0  0
 22 23  1  0  0  0
 22 24  2  0  0  0
 23 26  1  0  0  0
 26 27  1  0  0  0
 27 28  2  0  0  0
 27 31  1  0  0  0
 28 29  1  0  0  0
 28 32  1  0  0  0
 29 30  2  0  0  0
 30 33  1  0  0  0
 31 33  2  0  0  0
  9 10  1  0  0  0
 23 25  1  0  0  0
M  END
> <minimizedAffinity>
-8.48888

$$$$
1MU6_CDA_B_248


 33 35  0  0  0  0  0  0  0  0999 V2000
   15.8111  -13.0799   21.4664 C   0  0  0  0  0  0  0  0  0  0  0  0
   16.0724  -14.5447   21.5407 C   0  0  0  0  0  0  0  0  0  0  0  0
   17.3883  -14.9266   21.3897 N   0  0  0  0  0  0  0  0  0  0  0  0
   18.4355  -13.9587   21.1703 C   0  0  0  0  0  0  0  0  0  0  0  0
   18.1023  -12.5952   21.0861 C   0  0  0  0  0  0  0  0  0  0  0  0
   16.8351  -12.2111   21.2380 N   0  0  0  0  0  0  0  0  0  0  0  0
   15.1863  -15.3771   21.7247 O   0  0  0  0  0  0  0  0  0  0  0  0
   19.8572  -14.3338   21.0223 C   0  0  0  0  0  0  0  0  0  0  0  0
   14.5098  -12.6617   21.6029 N   0  0  0  0  0  0  0  0  0  0  0  0
   14.0290  -12.9313   22.4186 H   0  0  0  0  0  0  0  0  0  0  0  0
   13.7794  -11.8418   20.6237 C   0  0  0  0  0  0  0  0  0  0  0  0
   13.1573  -10.6191   21.2749 C   0  0  0  0  0  0  0  0  0  0  0  0
   14.1714   -9.7810   21.5821 F   0  0  0  0  0  0  0  0  0  0  0  0
   12.3846  -10.0461   20.3416 F   0  0  0  0  0  0  0  0  0  0  0  0
   11.6145  -12.2212   22.4280 N   0  0  0  0  0  0  0  0  0  0  0  0
   12.2585  -10.9667   22.4607 C   0  0  0  0  0  0  0  0  0  0  0  0
   12.1208  -10.0838   23.6108 C   0  0  0  0  0  0  0  0  0  0  0  0
   11.3003  -10.5813   24.6884 C   0  0  0  0  0  0  0  0  0  0  0  0
   10.6692  -11.8909   24.6155 C   0  0  0  0  0  0  0  0  0  0  0  0
   10.8310  -12.7300   23.4487 C   0  0  0  0  0  0  0  0  0  0  0  0
   17.7080  -16.3641   21.4833 C   0  0  0  0  0  0  0  0  0  0  0  0
   18.0789  -16.7508   22.9048 C   0  0  0  0  0  0  0  0  0  0  0  0
   19.3934  -17.0367   23.0763 N   0  0  0  0  0  0  0  0  0  0  0  0
   17.2267  -16.7594   23.7914 O   0  0  0  0  0  0  0  0  0  0  0  0
   20.0008  -17.0198   22.3017 H   0  0  0  0  0  0  0  0  0  0  0  0
   19.9195  -17.3707   24.4043 C   0  0  0  0  0  0  0  0  0  0  0  0
   20.3733  -16.1439   25.1614 C   0  0  0  0  0  0  0  0  0  0  0  0
   19.6599  -15.7421   26.3338 C   0  0  0  0  0  0  0  0  0  0  0  0
   20.0881  -14.5962   27.0890 C   0  0  0  0  0  0  0  0  0  0  0  0
   21.2422  -13.8666   26.6275 C   0  0  0  0  0  0  0  0  0  0  0  0
   21.4781  -15.4295   24.7307 N   0  0  0  0  0  0  0  0  0  0  0  0
   18.5940  -16.4772   26.6497 F   0  0  0  0  0  0  0  0  0  0  0  0
   21.9198  -14.3156   25.4283 C   0  0  0  0  0  0  0  0  0  0  0  0
 15 16  1  0  0  0
 15 20  2  0  0  0
 16 17  2  0  0  0
 16 12  1  0  0  0
 17 18  1  0  0  0
 18 19  2  0  0  0
 19 20  1  0  0  0
 12 11  1  0  0  0
 12 13  1  0  0  0
 12 14  1  0  0  0
 11  9  1  0  0  0
  9  1  1  0  0  0
  1  2  1  0  0  0
  1  6  2  0  0  0
  2  3  1  0  0  0
  2  7  2  0  0  0
  3  4  1  0  0  0
  3 21  1  0  0  0
  4  5  2  0  0  0
  4  8  1  0  0  0
  5  6  1  0  0  0
 21 22  1  0  0  0
 22 23  1  0  0  0
 22 24  2  0  0  0
 23 26  1  0  0  0
 26 27  1  0  0  0
 27 28  2  0  0  0
 27 31  1  0  0  0
 28 29  1  0  0  0
 28 32  1  0  0  0
 29 30  2  0  0  0
 30 33  1  0  0  0
 31 33  2  0  0  0
  9 10  1  0  0  0
 23 25  1  0  0  0
M  END
> <minimizedAffinity>
-8.45067

$$$$
1MU6_CDA_B_248


 33 35  0  0  0  0  0  0  0  0999 V2000
   18.1099  -15.4048   22.9504 C   0  0  0  0  0  0  0  0  0  0  0  0
   17.4420  -14.1849   22.4163 C   0  0  0  0  0  0  0  0  0  0  0  0
   18.1585  -13.4718   21.4788 N   0  0  0  0  0  0  0  0  0  0  0  0
   19.4723  -13.8900   21.0541 C   0  0  0  0  0  0  0  0  0  0  0  0
   20.0446  -15.0396   21.6267 C   0  0  0  0  0  0  0  0  0  0  0  0
   19.3600  -15.7429   22.5284 N   0  0  0  0  0  0  0  0  0  0  0  0
   16.3239  -13.8193   22.7741 O   0  0  0  0  0  0  0  0  0  0  0  0
   20.2585  -13.1582   20.0390 C   0  0  0  0  0  0  0  0  0  0  0  0
   17.4303  -16.1361   23.8939 N   0  0  0  0  0  0  0  0  0  0  0  0
   16.4755  -15.9347   24.0240 H   0  0  0  0  0  0  0  0  0  0  0  0
   18.0200  -17.1974   24.7251 C   0  0  0  0  0  0  0  0  0  0  0  0
   18.4588  -16.6658   26.0781 C   0  0  0  0  0  0  0  0  0  0  0  0
   17.4121  -15.9795   26.5869 F   0  0  0  0  0  0  0  0  0  0  0  0
   18.6933  -17.7381   26.8473 F   0  0  0  0  0  0  0  0  0  0  0  0
   20.8681  -16.4891   25.4144 N   0  0  0  0  0  0  0  0  0  0  0  0
   19.7554  -15.8602   26.0111 C   0  0  0  0  0  0  0  0  0  0  0  0
   19.8331  -14.4811   26.4728 C   0  0  0  0  0  0  0  0  0  0  0  0
   21.1018  -13.8235   26.2729 C   0  0  0  0  0  0  0  0  0  0  0  0
   22.2168  -14.5095   25.6367 C   0  0  0  0  0  0  0  0  0  0  0  0
   22.0930  -15.8824   25.1996 C   0  0  0  0  0  0  0  0  0  0  0  0
   17.5323  -12.2701   20.8950 C   0  0  0  0  0  0  0  0  0  0  0  0
   16.6353  -12.6343   19.7243 C   0  0  0  0  0  0  0  0  0  0  0  0
   15.3118  -12.4646   19.9665 N   0  0  0  0  0  0  0  0  0  0  0  0
   17.1213  -13.0170   18.6615 O   0  0  0  0  0  0  0  0  0  0  0  0
   15.0134  -12.1687   20.8568 H   0  0  0  0  0  0  0  0  0  0  0  0
   14.3202  -12.7175   18.9154 C   0  0  0  0  0  0  0  0  0  0  0  0
   13.6301  -14.0502   19.0931 C   0  0  0  0  0  0  0  0  0  0  0  0
   14.1138  -15.1893   18.3766 C   0  0  0  0  0  0  0  0  0  0  0  0
   13.4939  -16.4748   18.5499 C   0  0  0  0  0  0  0  0  0  0  0  0
   12.3751  -16.5773   19.4526 C   0  0  0  0  0  0  0  0  0  0  0  0
   12.5521  -14.1662   19.9539 N   0  0  0  0  0  0  0  0  0  0  0  0
   15.1369  -14.9691   17.5515 F   0  0  0  0  0  0  0  0  0  0  0  0
   11.9236  -15.3874   20.1447 C   0  0  0  0  0  0  0  0  0  0  0  0
 15 16  1  0  0  0
 15 20  2  0  0  0
 16 17  2  0  0  0
 16 12  1  0  0  0
 17 18  1  0  0  0
 18 19  2  0  0  0
 19 20  1  0  0  0
 12 11  1  0  0  0
 12 13  1  0  0  0
 12 14  1  0  0  0
 11  9  1  0  0  0
  9  1  1  0  0  0
  1  2  1  0  0  0
  1  6  2  0  0  0
  2  3  1  0  0  0
  2  7  2  0  0  0
  3  4  1  0  0  0
  3 21  1  0  0  0
  4  5  2  0  0  0
  4  8  1  0  0  0
  5  6  1  0  0  0
 21 22  1  0  0  0
 22 23  1  0  0  0
 22 24  2  0  0  0
 23 26  1  0  0  0
 26 27  1  0  0  0
 27 28  2  0  0  0
 27 31  1  0  0  0
 28 29  1  0  0  0
 28 32  1  0  0  0
 29 30  2  0  0  0
 30 33  1  0  0  0
 31 33  2  0  0  0
  9 10  1  0  0  0
 23 25  1  0  0  0
M  END
> <minimizedAffinity>
-8.34929

$$$$
1MU6_CDA_B_248


 33 35  0  0  0  0  0  0  0  0999 V2000
   17.1151  -14.2603   20.3925 C   0  0  0  0  0  0  0  0  0  0  0  0
   15.8679  -15.0520   20.1997 C   0  0  0  0  0  0  0  0  0  0  0  0
   14.9323  -14.4985   19.3519 N   0  0  0  0  0  0  0  0  0  0  0  0
   15.1583  -13.2303   18.7022 C   0  0  0  0  0  0  0  0  0  0  0  0
   16.3516  -12.5318   18.9578 C   0  0  0  0  0  0  0  0  0  0  0  0
   17.2682  -13.0588   19.7693 N   0  0  0  0  0  0  0  0  0  0  0  0
   15.6653  -16.1323   20.7510 O   0  0  0  0  0  0  0  0  0  0  0  0
   14.1839  -12.6186   17.7747 C   0  0  0  0  0  0  0  0  0  0  0  0
   18.0670  -14.7755   21.2384 N   0  0  0  0  0  0  0  0  0  0  0  0
   18.2505  -15.7411   21.1818 H   0  0  0  0  0  0  0  0  0  0  0  0
   18.8333  -13.9951   22.2223 C   0  0  0  0  0  0  0  0  0  0  0  0
   20.2313  -14.5570   22.4118 C   0  0  0  0  0  0  0  0  0  0  0  0
   20.2534  -15.7635   21.8042 F   0  0  0  0  0  0  0  0  0  0  0  0
   21.0626  -13.7274   21.7659 F   0  0  0  0  0  0  0  0  0  0  0  0
   22.0121  -14.9309   24.1338 N   0  0  0  0  0  0  0  0  0  0  0  0
   20.6676  -14.5913   23.8758 C   0  0  0  0  0  0  0  0  0  0  0  0
   19.7668  -14.2231   24.9593 C   0  0  0  0  0  0  0  0  0  0  0  0
   20.3428  -14.2274   26.2823 C   0  0  0  0  0  0  0  0  0  0  0  0
   21.7413  -14.5693   26.4967 C   0  0  0  0  0  0  0  0  0  0  0  0
   22.5957  -14.9340   25.3884 C   0  0  0  0  0  0  0  0  0  0  0  0
   13.6900  -15.2544   19.1021 C   0  0  0  0  0  0  0  0  0  0  0  0
   12.6050  -14.8667   20.0922 C   0  0  0  0  0  0  0  0  0  0  0  0
   13.0716  -14.5152   21.3161 N   0  0  0  0  0  0  0  0  0  0  0  0
   11.4233  -14.8612   19.7521 O   0  0  0  0  0  0  0  0  0  0  0  0
   14.0369  -14.5666   21.5028 H   0  0  0  0  0  0  0  0  0  0  0  0
   12.1526  -14.0591   22.3646 C   0  0  0  0  0  0  0  0  0  0  0  0
   12.2938  -12.5800   22.6409 C   0  0  0  0  0  0  0  0  0  0  0  0
   11.4137  -11.9569   23.5801 C   0  0  0  0  0  0  0  0  0  0  0  0
   11.5455  -10.5578   23.8830 C   0  0  0  0  0  0  0  0  0  0  0  0
   12.5763   -9.8077   23.2108 C   0  0  0  0  0  0  0  0  0  0  0  0
   13.2765  -11.8435   22.0019 N   0  0  0  0  0  0  0  0  0  0  0  0
   10.4834  -12.7439   24.1199 F   0  0  0  0  0  0  0  0  0  0  0  0
   13.4328  -10.4907   22.2627 C   0  0  0  0  0  0  0  0  0  0  0  0
 15 16  1  0  0  0
 15 20  2  0  0  0
 16 17  2  0  0  0
 16 12  1  0  0  0
 17 18  1  0  0  0
 18 19  2  0  0  0
 19 20  1  0  0  0
 12 11  1  0  0  0
 12 13  1  0  0  0
 12 14  1  0  0  0
 11  9  1  0  0  0
  9  1  1  0  0  0
  1  2  1  0  0  0
  1  6  2  0  0  0
  2  3  1  0  0  0
  2  7  2  0  0  0
  3  4  1  0  0  0
  3 21  1  0  0  0
  4  5  2  0  0  0
  4  8  1  0  0  0
  5  6  1  0  0  0
 21 22  1  0  0  0
 22 23  1  0  0  0
 22 24  2  0  0  0
 23 26  1  0  0  0
 26 27  1  0  0  0
 27 28  2  0  0  0
 27 31  1  0  0  0
 28 29  1  0  0  0
 28 32  1  0  0  0
 29 30  2  0  0  0
 30 33  1  0  0  0
 31 33  2  0  0  0
  9 10  1  0  0  0
 23 25  1  0  0  0
M  END
> <minimizedAffinity>
-8.31229

$$$$
1MU6_CDA_B_248


 33 35  0  0  0  0  0  0  0  0999 V2000
   16.1769  -15.7154   21.5469 C   0  0  0  0  0  0  0  0  0  0  0  0
   16.0089  -14.9820   20.2611 C   0  0  0  0  0  0  0  0  0  0  0  0
   14.9248  -15.3557   19.4958 N   0  0  0  0  0  0  0  0  0  0  0  0
   14.0206  -16.3954   19.9237 C   0  0  0  0  0  0  0  0  0  0  0  0
   14.2641  -17.0585   21.1394 C   0  0  0  0  0  0  0  0  0  0  0  0
   15.3041  -16.7022   21.8929 N   0  0  0  0  0  0  0  0  0  0  0  0
   16.7757  -14.0965   19.8870 O   0  0  0  0  0  0  0  0  0  0  0  0
   12.8402  -16.8069   19.1356 C   0  0  0  0  0  0  0  0  0  0  0  0
   17.2519  -15.3771   22.3323 N   0  0  0  0  0  0  0  0  0  0  0  0
   17.0697  -14.8802   23.1625 H   0  0  0  0  0  0  0  0  0  0  0  0
   18.6546  -15.7002   22.0281 C   0  0  0  0  0  0  0  0  0  0  0  0
   19.5535  -14.4871   22.1911 C   0  0  0  0  0  0  0  0  0  0  0  0
   20.3766  -14.4636   21.1200 F   0  0  0  0  0  0  0  0  0  0  0  0
   18.7513  -13.4143   22.1491 F   0  0  0  0  0  0  0  0  0  0  0  0
   21.6737  -14.6871   23.5107 N   0  0  0  0  0  0  0  0  0  0  0  0
   20.2817  -14.4599   23.5341 C   0  0  0  0  0  0  0  0  0  0  0  0
   19.5952  -14.1443   24.7792 C   0  0  0  0  0  0  0  0  0  0  0  0
   20.4284  -14.0785   25.9553 C   0  0  0  0  0  0  0  0  0  0  0  0
   21.8642  -14.3046   25.8781 C   0  0  0  0  0  0  0  0  0  0  0  0
   22.5002  -14.6209   24.6184 C   0  0  0  0  0  0  0  0  0  0  0  0
   14.6942  -14.6418   18.2253 C   0  0  0  0  0  0  0  0  0  0  0  0
   14.3063  -13.1941   18.4735 C   0  0  0  0  0  0  0  0  0  0  0  0
   13.5923  -12.9988   19.6098 N   0  0  0  0  0  0  0  0  0  0  0  0
   14.6602  -12.3111   17.6942 O   0  0  0  0  0  0  0  0  0  0  0  0
   13.3396  -13.7713   20.1654 H   0  0  0  0  0  0  0  0  0  0  0  0
   13.1926  -11.6481   20.0195 C   0  0  0  0  0  0  0  0  0  0  0  0
   12.5246  -11.6392   21.3751 C   0  0  0  0  0  0  0  0  0  0  0  0
   12.8428  -10.6002   22.3047 C   0  0  0  0  0  0  0  0  0  0  0  0
   12.2000  -10.5517   23.5897 C   0  0  0  0  0  0  0  0  0  0  0  0
   11.2407  -11.5777   23.9125 C   0  0  0  0  0  0  0  0  0  0  0  0
   11.6029  -12.6186   21.7031 N   0  0  0  0  0  0  0  0  0  0  0  0
   13.7628   -9.7218   21.9067 F   0  0  0  0  0  0  0  0  0  0  0  0
   10.9649  -12.6100   22.9342 C   0  0  0  0  0  0  0  0  0  0  0  0
 15 16  1  0  0  0
 15 20  2  0  0  0
 16 17  2  0  0  0
 16 12  1  0  0  0
 17 18  1  0  0  0
 18 19  2  0  0  0
 19 20  1  0  0  0
 12 11  1  0  0  0
 12 13  1  0  0  0
 12 14  1  0  0  0
 11  9  1  0  0  0
  9  1  1  0  0  0
  1  2  1  0  0  0
  1  6  2  0  0  0
  2  3  1  0  0  0
  2  7  2  0  0  0
  3  4  1  0  0  0
  3 21  1  0  0  0
  4  5  2  0  0  0
  4  8  1  0  0  0
  5  6  1  0  0  0
 21 22  1  0  0  0
 22 23  1  0  0  0
 22 24  2  0  0  0
 23 26  1  0  0  0
 26 27  1  0  0  0
 27 28  2  0  0  0
 27 31  1  0  0  0
 28 29  1  0  0  0
 28 32  1  0  0  0
 29 30  2  0  0  0
 30 33  1  0  0  0
 31 33  2  0  0  0
  9 10  1  0  0  0
 23 25  1  0  0  0
M  END
> <minimizedAffinity>
-8.22115

$$$$
1MU6_CDA_B_248


 33 35  0  0  0  0  0  0  0  0999 V2000
   16.0295  -14.0332   21.6927 C   0  0  0  0  0  0  0  0  0  0  0  0
   17.0201  -15.1093   21.9757 C   0  0  0  0  0  0  0  0  0  0  0  0
   18.3060  -14.8689   21.5405 N   0  0  0  0  0  0  0  0  0  0  0  0
   18.6551  -13.6498   20.8525 C   0  0  0  0  0  0  0  0  0  0  0  0
   17.6550  -12.6942   20.6001 C   0  0  0  0  0  0  0  0  0  0  0  0
   16.4093  -12.9101   21.0221 N   0  0  0  0  0  0  0  0  0  0  0  0
   16.7314  -16.1525   22.5589 O   0  0  0  0  0  0  0  0  0  0  0  0
   20.0269  -13.3542   20.3892 C   0  0  0  0  0  0  0  0  0  0  0  0
   14.7351  -14.2411   22.1031 N   0  0  0  0  0  0  0  0  0  0  0  0
   14.5078  -13.9991   23.0299 H   0  0  0  0  0  0  0  0  0  0  0  0
   13.6625  -14.7977   21.2639 C   0  0  0  0  0  0  0  0  0  0  0  0
   12.7640  -13.7052   20.7115 C   0  0  0  0  0  0  0  0  0  0  0  0
   13.3344  -13.2716   19.5662 F   0  0  0  0  0  0  0  0  0  0  0  0
   11.5930  -14.2895   20.4223 F   0  0  0  0  0  0  0  0  0  0  0  0
   13.3247  -11.4648   21.6824 N   0  0  0  0  0  0  0  0  0  0  0  0
   12.4824  -12.5955   21.7235 C   0  0  0  0  0  0  0  0  0  0  0  0
   11.3562  -12.6575   22.6449 C   0  0  0  0  0  0  0  0  0  0  0  0
   11.1706  -11.5005   23.4868 C   0  0  0  0  0  0  0  0  0  0  0  0
   12.0572  -10.3496   23.3962 C   0  0  0  0  0  0  0  0  0  0  0  0
   13.1665  -10.3371   22.4684 C   0  0  0  0  0  0  0  0  0  0  0  0
   19.3344  -15.8894   21.8200 C   0  0  0  0  0  0  0  0  0  0  0  0
   19.9496  -15.6845   23.1938 C   0  0  0  0  0  0  0  0  0  0  0  0
   21.1534  -15.0602   23.1743 N   0  0  0  0  0  0  0  0  0  0  0  0
   19.3514  -16.0464   24.2054 O   0  0  0  0  0  0  0  0  0  0  0  0
   21.5646  -14.8214   22.3123 H   0  0  0  0  0  0  0  0  0  0  0  0
   21.8491  -14.7373   24.4248 C   0  0  0  0  0  0  0  0  0  0  0  0
   22.9034  -15.7634   24.7706 C   0  0  0  0  0  0  0  0  0  0  0  0
   22.6086  -16.7680   25.7446 C   0  0  0  0  0  0  0  0  0  0  0  0
   23.5831  -17.7734   26.0706 C   0  0  0  0  0  0  0  0  0  0  0  0
   24.8573  -17.7328   25.3984 C   0  0  0  0  0  0  0  0  0  0  0  0
   24.1339  -15.7374   24.1369 N   0  0  0  0  0  0  0  0  0  0  0  0
   21.4083  -16.6908   26.3187 F   0  0  0  0  0  0  0  0  0  0  0  0
   25.1025  -16.6863   24.4271 C   0  0  0  0  0  0  0  0  0  0  0  0
 15 16  1  0  0  0
 15 20  2  0  0  0
 16 17  2  0  0  0
 16 12  1  0  0  0
 17 18  1  0  0  0
 18 19  2  0  0  0
 19 20  1  0  0  0
 12 11  1  0  0  0
 12 13  1  0  0  0
 12 14  1  0  0  0
 11  9  1  0  0  0
  9  1  1  0  0  0
  1  2  1  0  0  0
  1  6  2  0  0  0
  2  3  1  0  0  0
  2  7  2  0  0  0
  3  4  1  0  0  0
  3 21  1  0  0  0
  4  5  2  0  0  0
  4  8  1  0  0  0
  5  6  1  0  0  0
 21 22  1  0  0  0
 22 23  1  0  0  0
 22 24  2  0  0  0
 23 26  1  0  0  0
 26 27  1  0  0  0
 27 28  2  0  0  0
 27 31  1  0  0  0
 28 29  1  0  0  0
 28 32  1  0  0  0
 29 30  2  0  0  0
 30 33  1  0  0  0
 31 33  2  0  0  0
  9 10  1  0  0  0
 23 25  1  0  0  0
M  END
> <minimizedAffinity>
-8.19238

$$$$
1MU6_CDA_B_248


 33 35  0  0  0  0  0  0  0  0999 V2000
   16.1468  -13.6555   21.8677 C   0  0  0  0  0  0  0  0  0  0  0  0
   16.7097  -15.0320   21.7791 C   0  0  0  0  0  0  0  0  0  0  0  0
   18.0370  -15.1138   21.4156 N   0  0  0  0  0  0  0  0  0  0  0  0
   18.8183  -13.9332   21.1378 C   0  0  0  0  0  0  0  0  0  0  0  0
   18.2050  -12.6705   21.2179 C   0  0  0  0  0  0  0  0  0  0  0  0
   16.9246  -12.5761   21.5757 N   0  0  0  0  0  0  0  0  0  0  0  0
   16.0510  -16.0440   22.0114 O   0  0  0  0  0  0  0  0  0  0  0  0
   20.2469  -13.9858   20.7632 C   0  0  0  0  0  0  0  0  0  0  0  0
   14.8240  -13.5343   22.2180 N   0  0  0  0  0  0  0  0  0  0  0  0
   14.6037  -13.5599   23.1772 H   0  0  0  0  0  0  0  0  0  0  0  0
   13.7113  -13.3693   21.2697 C   0  0  0  0  0  0  0  0  0  0  0  0
   12.3668  -13.4308   21.9729 C   0  0  0  0  0  0  0  0  0  0  0  0
   11.4330  -13.6209   21.0152 F   0  0  0  0  0  0  0  0  0  0  0  0
   12.4045  -14.5102   22.7665 F   0  0  0  0  0  0  0  0  0  0  0  0
   12.8860  -11.0688   22.6272 N   0  0  0  0  0  0  0  0  0  0  0  0
   12.1033  -12.2181   22.8644 C   0  0  0  0  0  0  0  0  0  0  0  0
   11.0479  -12.2115   23.8679 C   0  0  0  0  0  0  0  0  0  0  0  0
   10.8661  -10.9689   24.5784 C   0  0  0  0  0  0  0  0  0  0  0  0
   11.6884   -9.8038   24.2864 C   0  0  0  0  0  0  0  0  0  0  0  0
   12.7290   -9.8610   23.2838 C   0  0  0  0  0  0  0  0  0  0  0  0
   18.6538  -16.4521   21.3403 C   0  0  0  0  0  0  0  0  0  0  0  0
   19.2498  -16.8561   22.6779 C   0  0  0  0  0  0  0  0  0  0  0  0
   20.5804  -16.6176   22.7864 N   0  0  0  0  0  0  0  0  0  0  0  0
   18.5365  -17.3273   23.5619 O   0  0  0  0  0  0  0  0  0  0  0  0
   21.0742  -16.2520   22.0171 H   0  0  0  0  0  0  0  0  0  0  0  0
   21.2915  -16.8989   24.0383 C   0  0  0  0  0  0  0  0  0  0  0  0
   21.0536  -15.8303   25.0801 C   0  0  0  0  0  0  0  0  0  0  0  0
   21.7234  -14.5727   24.9575 C   0  0  0  0  0  0  0  0  0  0  0  0
   21.4924  -13.5288   25.9185 C   0  0  0  0  0  0  0  0  0  0  0  0
   20.5805  -13.7892   27.0038 C   0  0  0  0  0  0  0  0  0  0  0  0
   20.1833  -16.0644   26.1309 N   0  0  0  0  0  0  0  0  0  0  0  0
   22.5622  -14.4555   23.9285 F   0  0  0  0  0  0  0  0  0  0  0  0
   19.9376  -15.0851   27.0813 C   0  0  0  0  0  0  0  0  0  0  0  0
 15 16  1  0  0  0
 15 20  2  0  0  0
 16 17  2  0  0  0
 16 12  1  0  0  0
 17 18  1  0  0  0
 18 19  2  0  0  0
 19 20  1  0  0  0
 12 11  1  0  0  0
 12 13  1  0  0  0
 12 14  1  0  0  0
 11  9  1  0  0  0
  9  1  1  0  0  0
  1  2  1  0  0  0
  1  6  2  0  0  0
  2  3  1  0  0  0
  2  7  2  0  0  0
  3  4  1  0  0  0
  3 21  1  0  0  0
  4  5  2  0  0  0
  4  8  1  0  0  0
  5  6  1  0  0  0
 21 22  1  0  0  0
 22 23  1  0  0  0
 22 24  2  0  0  0
 23 26  1  0  0  0
 26 27  1  0  0  0
 27 28  2  0  0  0
 27 31  1  0  0  0
 28 29  1  0  0  0
 28 32  1  0  0  0
 29 30  2  0  0  0
 30 33  1  0  0  0
 31 33  2  0  0  0
  9 10  1  0  0  0
 23 25  1  0  0  0
M  END
> <minimizedAffinity>
-8.08494

$$$$
1MU6_CDA_B_248


 33 35  0  0  0  0  0  0  0  0999 V2000
   16.4067  -14.0428   21.5672 C   0  0  0  0  0  0  0  0  0  0  0  0
   17.4694  -15.0602   21.8021 C   0  0  0  0  0  0  0  0  0  0  0  0
   18.7366  -14.7090   21.3884 N   0  0  0  0  0  0  0  0  0  0  0  0
   19.0018  -13.4351   20.7652 C   0  0  0  0  0  0  0  0  0  0  0  0
   17.9381  -12.5400   20.5547 C   0  0  0  0  0  0  0  0  0  0  0  0
   16.7093  -12.8633   20.9567 N   0  0  0  0  0  0  0  0  0  0  0  0
   17.2525  -16.1494   22.3299 O   0  0  0  0  0  0  0  0  0  0  0  0
   20.3511  -13.0214   20.3268 C   0  0  0  0  0  0  0  0  0  0  0  0
   15.1288  -14.3611   21.9577 N   0  0  0  0  0  0  0  0  0  0  0  0
   14.9417  -14.3855   22.9239 H   0  0  0  0  0  0  0  0  0  0  0  0
   14.0183  -14.6684   21.0429 C   0  0  0  0  0  0  0  0  0  0  0  0
   12.6725  -14.3767   21.6830 C   0  0  0  0  0  0  0  0  0  0  0  0
   11.7303  -14.6498   20.7541 F   0  0  0  0  0  0  0  0  0  0  0  0
   12.5441  -15.2381   22.7017 F   0  0  0  0  0  0  0  0  0  0  0  0
   13.4389  -11.9917   21.7128 N   0  0  0  0  0  0  0  0  0  0  0  0
   12.5810  -12.9663   22.2638 C   0  0  0  0  0  0  0  0  0  0  0  0
   11.6079  -12.6144   23.2887 C   0  0  0  0  0  0  0  0  0  0  0  0
   11.5865  -11.2265   23.6827 C   0  0  0  0  0  0  0  0  0  0  0  0
   12.4811  -10.2537   23.0727 C   0  0  0  0  0  0  0  0  0  0  0  0
   13.4352  -10.6527   22.0618 C   0  0  0  0  0  0  0  0  0  0  0  0
   19.8331  -15.6681   21.6229 C   0  0  0  0  0  0  0  0  0  0  0  0
   20.4614  -15.4576   22.9899 C   0  0  0  0  0  0  0  0  0  0  0  0
   19.9415  -16.2429   23.9656 N   0  0  0  0  0  0  0  0  0  0  0  0
   21.3792  -14.6525   23.1372 O   0  0  0  0  0  0  0  0  0  0  0  0
   19.1937  -16.8483   23.7571 H   0  0  0  0  0  0  0  0  0  0  0  0
   20.4820  -16.1994   25.3287 C   0  0  0  0  0  0  0  0  0  0  0  0
   20.0484  -17.3912   26.1508 C   0  0  0  0  0  0  0  0  0  0  0  0
   18.7698  -17.3714   26.7907 C   0  0  0  0  0  0  0  0  0  0  0  0
   18.3208  -18.5037   27.5543 C   0  0  0  0  0  0  0  0  0  0  0  0
   19.1945  -19.6449   27.6614 C   0  0  0  0  0  0  0  0  0  0  0  0
   20.8763  -18.4946   26.2668 N   0  0  0  0  0  0  0  0  0  0  0  0
   18.0599  -16.2531   26.6432 F   0  0  0  0  0  0  0  0  0  0  0  0
   20.4821  -19.6045   26.9986 C   0  0  0  0  0  0  0  0  0  0  0  0
 15 16  1  0  0  0
 15 20  2  0  0  0
 16 17  2  0  0  0
 16 12  1  0  0  0
 17 18  1  0  0  0
 18 19  2  0  0  0
 19 20  1  0  0  0
 12 11  1  0  0  0
 12 13  1  0  0  0
 12 14  1  0  0  0
 11  9  1  0  0  0
  9  1  1  0  0  0
  1  2  1  0  0  0
  1  6  2  0  0  0
  2  3  1  0  0  0
  2  7  2  0  0  0
  3  4  1  0  0  0
  3 21  1  0  0  0
  4  5  2  0  0  0
  4  8  1  0  0  0
  5  6  1  0  0  0
 21 22  1  0  0  0
 22 23  1  0  0  0
 22 24  2  0  0  0
 23 26  1  0  0  0
 26 27  1  0  0  0
 27 28  2  0  0  0
 27 31  1  0  0  0
 28 29  1  0  0  0
 28 32  1  0  0  0
 29 30  2  0  0  0
 30 33  1  0  0  0
 31 33  2  0  0  0
  9 10  1  0  0  0
 23 25  1  0  0  0
M  END
> <minimizedAffinity>
-8.01752

$$$$
1MU6_CDA_B_248


 33 35  0  0  0  0  0  0  0  0999 V2000
   16.2312  -12.8373   20.5080 C   0  0  0  0  0  0  0  0  0  0  0  0
   16.2414  -13.8205   21.6273 C   0  0  0  0  0  0  0  0  0  0  0  0
   17.4310  -14.4878   21.8273 N   0  0  0  0  0  0  0  0  0  0  0  0
   18.5840  -14.2423   20.9954 C   0  0  0  0  0  0  0  0  0  0  0  0
   18.4846  -13.3169   19.9414 C   0  0  0  0  0  0  0  0  0  0  0  0
   17.3429  -12.6590   19.7414 N   0  0  0  0  0  0  0  0  0  0  0  0
   15.2632  -14.0382   22.3398 O   0  0  0  0  0  0  0  0  0  0  0  0
   19.8781  -14.9275   21.1947 C   0  0  0  0  0  0  0  0  0  0  0  0
   15.0599  -12.1596   20.2720 N   0  0  0  0  0  0  0  0  0  0  0  0
   14.6264  -12.2921   19.3980 H   0  0  0  0  0  0  0  0  0  0  0  0
   14.4035  -11.2511   21.2249 C   0  0  0  0  0  0  0  0  0  0  0  0
   12.8913  -11.3093   21.0985 C   0  0  0  0  0  0  0  0  0  0  0  0
   12.5228  -10.2630   20.3273 F   0  0  0  0  0  0  0  0  0  0  0  0
   12.6100  -12.4491   20.4518 F   0  0  0  0  0  0  0  0  0  0  0  0
   12.2698  -10.2171   23.2658 N   0  0  0  0  0  0  0  0  0  0  0  0
   12.1809  -11.3645   22.4502 C   0  0  0  0  0  0  0  0  0  0  0  0
   11.3861  -12.5144   22.8591 C   0  0  0  0  0  0  0  0  0  0  0  0
   10.7099  -12.3900   24.1276 C   0  0  0  0  0  0  0  0  0  0  0  0
   10.8188  -11.1782   24.9267 C   0  0  0  0  0  0  0  0  0  0  0  0
   11.6254  -10.0638   24.4807 C   0  0  0  0  0  0  0  0  0  0  0  0
   17.5058  -15.4526   22.9412 C   0  0  0  0  0  0  0  0  0  0  0  0
   16.8902  -16.7859   22.5526 C   0  0  0  0  0  0  0  0  0  0  0  0
   15.7938  -17.1220   23.2765 N   0  0  0  0  0  0  0  0  0  0  0  0
   17.3678  -17.4494   21.6339 O   0  0  0  0  0  0  0  0  0  0  0  0
   15.4931  -16.5342   24.0068 H   0  0  0  0  0  0  0  0  0  0  0  0
   15.0512  -18.3524   22.9824 C   0  0  0  0  0  0  0  0  0  0  0  0
   13.7791  -18.0791   22.2135 C   0  0  0  0  0  0  0  0  0  0  0  0
   13.0885  -19.1676   21.5946 C   0  0  0  0  0  0  0  0  0  0  0  0
   11.8608  -18.9393   20.8822 C   0  0  0  0  0  0  0  0  0  0  0  0
   11.3570  -17.5913   20.8043 C   0  0  0  0  0  0  0  0  0  0  0  0
   13.2824  -16.7899   22.1260 N   0  0  0  0  0  0  0  0  0  0  0  0
   13.6618  -20.3651   21.7111 F   0  0  0  0  0  0  0  0  0  0  0  0
   12.1042  -16.5274   21.4436 C   0  0  0  0  0  0  0  0  0  0  0  0
 15 16  1  0  0  0
 15 20  2  0  0  0
 16 17  2  0  0  0
 16 12  1  0  0  0
 17 18  1  0  0  0
 18 19  2  0  0  0
 19 20  1  0  0  0
 12 11  1  0  0  0
 12 13  1  0  0  0
 12 14  1  0  0  0
 11  9  1  0  0  0
  9  1  1  0  0  0
  1  2  1  0  0  0
  1  6  2  0  0  0
  2  3  1  0  0  0
  2  7  2  0  0  0
  3  4  1  0  0  0
  3 21  1  0  0  0
  4  5  2  0  0  0
  4  8  1  0  0  0
  5  6  1  0  0  0
 21 22  1  0  0  0
 22 23  1  0  0  0
 22 24  2  0  0  0
 23 26  1  0  0  0
 26 27  1  0  0  0
 27 28  2  0  0  0
 27 31  1  0  0  0
 28 29  1  0  0  0
 28 32  1  0  0  0
 29 30  2  0  0  0
 30 33  1  0  0  0
 31 33  2  0  0  0
  9 10  1  0  0  0
 23 25  1  0  0  0
M  END
> <minimizedAffinity>
-7.89992

$$$$
