3P5O_EAM_A_1


 31 34  0  0  0  0  0  0  0  0999 V2000
   26.4822   50.4498   -2.4514 C   0  0  0  0  0  0  0  0  0  0  0  0
   25.2640   50.7465   -2.7488 N   0  0  0  0  0  0  0  0  0  0  0  0
   27.0769   50.3138   -1.0848 C   0  0  0  0  0  0  0  0  0  0  0  0
   26.2872   49.9942    0.0213 C   0  0  0  0  0  0  0  0  0  0  0  0
   26.7292   50.3368    1.3009 C   0  0  0  0  0  0  0  0  0  0  0  0
   27.9800   50.9105    1.5114 C   0  0  0  0  0  0  0  0  0  0  0  0
   28.8070   51.1773    0.4202 C   0  0  0  0  0  0  0  0  0  0  0  0
   28.3526   50.8590   -0.8563 C   0  0  0  0  0  0  0  0  0  0  0  0
   24.9683   49.4463   -0.0785 N   0  0  0  0  0  0  0  0  0  0  0  0
   23.9773   50.0553   -0.8157 C   0  0  0  0  0  0  0  0  0  0  0  0
   22.8589   49.3823   -0.6874 N   0  0  0  0  0  0  0  0  0  0  0  0
   23.1142   48.3079    0.1784 N   0  0  0  0  0  0  0  0  0  0  0  0
   24.3749   48.3637    0.5349 C   0  0  0  0  0  0  0  0  0  0  0  0
   25.0303   47.3959    1.4504 C   0  0  0  0  0  0  0  0  0  0  0  0
   24.3657   51.2370   -1.6967 C   0  0  0  0  0  0  0  0  0  0  0  0
   29.8889   48.5911   -7.0436 Cl  0  0  0  0  0  0  0  0  0  0  0  0
   28.8974   49.1547   -5.7295 C   0  0  0  0  0  0  0  0  0  0  0  0
   29.3056   48.9178   -4.4285 C   0  0  0  0  0  0  0  0  0  0  0  0
   28.5163   49.3433   -3.3774 C   0  0  0  0  0  0  0  0  0  0  0  0
   27.7096   49.8294   -5.9998 C   0  0  0  0  0  0  0  0  0  0  0  0
   26.9202   50.2622   -4.9338 C   0  0  0  0  0  0  0  0  0  0  0  0
   27.3343   50.0540   -3.6126 C   0  0  0  0  0  0  0  0  0  0  0  0
   30.0595   51.7560    0.5479 O   0  0  0  0  0  0  0  0  0  0  0  0
   30.4190   52.4118    1.7660 C   0  0  0  0  0  0  0  0  0  0  0  0
   23.1526   51.8147   -2.4334 C   0  0  0  0  0  0  0  0  0  0  0  0
   23.4882   52.1895   -3.8677 C   0  0  0  0  0  0  0  0  0  0  0  0
   23.9172   53.3032   -4.1403 O   0  0  0  0  0  0  0  0  0  0  0  0
   23.2859   51.2587   -4.8018 N   0  0  0  0  0  0  0  0  0  0  0  0
   22.9339   50.3776   -4.5391 H   0  0  0  0  0  0  0  0  0  0  0  0
   23.5773   51.5249   -6.2044 C   0  0  0  0  0  0  0  0  0  0  0  0
   23.7883   50.2612   -7.0127 C   0  0  0  0  0  0  0  0  0  0  0  0
 16 17  1  0  0  0
 17 18  2  0  0  0
 17 20  1  0  0  0
 18 19  1  0  0  0
 19 22  2  0  0  0
 20 21  2  0  0  0
 21 22  1  0  0  0
 22  1  1  0  0  0
  1  2  2  0  0  0
  1  3  1  0  0  0
  2 15  1  0  0  0
  3  4  2  0  0  0
  3  8  1  0  0  0
  4  5  1  0  0  0
  4  9  1  0  0  0
  5  6  2  0  0  0
  6  7  1  0  0  0
  7 23  1  0  0  0
  7  8  2  0  0  0
 23 24  1  0  0  0
  9 10  1  0  0  0
  9 13  1  0  0  0
 10 11  2  0  0  0
 10 15  1  0  0  0
 11 12  1  0  0  0
 12 13  2  0  0  0
 13 14  1  0  0  0
 15 25  1  0  0  0
 25 26  1  0  0  0
 26 27  2  0  0  0
 26 28  1  0  0  0
 28 30  1  0  0  0
 30 31  1  0  0  0
 28 29  1  0  0  0
M  END
> <minimizedAffinity>
-9.36826

$$$$
3P5O_EAM_A_1


 31 34  0  0  0  0  0  0  0  0999 V2000
   26.7370   50.4404   -0.8114 C   0  0  0  0  0  0  0  0  0  0  0  0
   25.5993   50.2431   -0.2393 N   0  0  0  0  0  0  0  0  0  0  0  0
   27.0283   50.4408   -2.2793 C   0  0  0  0  0  0  0  0  0  0  0  0
   26.0342   50.7300   -3.2159 C   0  0  0  0  0  0  0  0  0  0  0  0
   26.1732   50.2699   -4.5271 C   0  0  0  0  0  0  0  0  0  0  0  0
   27.3211   49.6048   -4.9490 C   0  0  0  0  0  0  0  0  0  0  0  0
   28.3508   49.3649   -4.0392 C   0  0  0  0  0  0  0  0  0  0  0  0
   28.1980   49.8014   -2.7264 C   0  0  0  0  0  0  0  0  0  0  0  0
   24.7948   51.3658   -2.8852 N   0  0  0  0  0  0  0  0  0  0  0  0
   23.9591   50.8746   -1.9070 C   0  0  0  0  0  0  0  0  0  0  0  0
   22.8718   51.6059   -1.8514 N   0  0  0  0  0  0  0  0  0  0  0  0
   22.9838   52.5976   -2.8379 N   0  0  0  0  0  0  0  0  0  0  0  0
   24.1338   52.4372   -3.4471 C   0  0  0  0  0  0  0  0  0  0  0  0
   24.6203   53.2940   -4.5577 C   0  0  0  0  0  0  0  0  0  0  0  0
   24.4733   49.7366   -1.0331 C   0  0  0  0  0  0  0  0  0  0  0  0
   31.1223   52.4065    2.8015 Cl  0  0  0  0  0  0  0  0  0  0  0  0
   29.8513   51.8122    1.7723 C   0  0  0  0  0  0  0  0  0  0  0  0
   29.9409   52.0152    0.4063 C   0  0  0  0  0  0  0  0  0  0  0  0
   28.9278   51.5652   -0.4184 C   0  0  0  0  0  0  0  0  0  0  0  0
   28.7631   51.1473    2.3316 C   0  0  0  0  0  0  0  0  0  0  0  0
   27.7465   50.6896    1.4926 C   0  0  0  0  0  0  0  0  0  0  0  0
   27.8370   50.8634    0.1062 C   0  0  0  0  0  0  0  0  0  0  0  0
   29.5181   48.7007   -4.3804 O   0  0  0  0  0  0  0  0  0  0  0  0
   30.0813   48.8758   -5.6825 C   0  0  0  0  0  0  0  0  0  0  0  0
   23.4224   49.2905   -0.0110 C   0  0  0  0  0  0  0  0  0  0  0  0
   23.8543   48.0379    0.7338 C   0  0  0  0  0  0  0  0  0  0  0  0
   24.9445   47.5248    0.5173 O   0  0  0  0  0  0  0  0  0  0  0  0
   22.9931   47.5288    1.6164 N   0  0  0  0  0  0  0  0  0  0  0  0
   22.1243   47.9705    1.7553 H   0  0  0  0  0  0  0  0  0  0  0  0
   23.3174   46.3297    2.3782 C   0  0  0  0  0  0  0  0  0  0  0  0
   23.8983   46.6375    3.7429 C   0  0  0  0  0  0  0  0  0  0  0  0
 16 17  1  0  0  0
 17 18  2  0  0  0
 17 20  1  0  0  0
 18 19  1  0  0  0
 19 22  2  0  0  0
 20 21  2  0  0  0
 21 22  1  0  0  0
 22  1  1  0  0  0
  1  2  2  0  0  0
  1  3  1  0  0  0
  2 15  1  0  0  0
  3  4  2  0  0  0
  3  8  1  0  0  0
  4  5  1  0  0  0
  4  9  1  0  0  0
  5  6  2  0  0  0
  6  7  1  0  0  0
  7 23  1  0  0  0
  7  8  2  0  0  0
 23 24  1  0  0  0
  9 10  1  0  0  0
  9 13  1  0  0  0
 10 11  2  0  0  0
 10 15  1  0  0  0
 11 12  1  0  0  0
 12 13  2  0  0  0
 13 14  1  0  0  0
 15 25  1  0  0  0
 25 26  1  0  0  0
 26 27  2  0  0  0
 26 28  1  0  0  0
 28 30  1  0  0  0
 30 31  1  0  0  0
 28 29  1  0  0  0
M  END
> <minimizedAffinity>
-8.39209

$$$$
3P5O_EAM_A_1


 31 34  0  0  0  0  0  0  0  0999 V2000
   26.4429   50.7524   -1.8884 C   0  0  0  0  0  0  0  0  0  0  0  0
   25.2633   50.8189   -1.3741 N   0  0  0  0  0  0  0  0  0  0  0  0
   26.7975   50.6403   -3.3380 C   0  0  0  0  0  0  0  0  0  0  0  0
   25.9330   51.0992   -4.3337 C   0  0  0  0  0  0  0  0  0  0  0  0
   26.0339   50.5747   -5.6239 C   0  0  0  0  0  0  0  0  0  0  0  0
   27.0336   49.6687   -5.9672 C   0  0  0  0  0  0  0  0  0  0  0  0
   27.9445   49.2495   -4.9975 C   0  0  0  0  0  0  0  0  0  0  0  0
   27.8251   49.7540   -3.7057 C   0  0  0  0  0  0  0  0  0  0  0  0
   24.8421   51.9926   -4.0858 N   0  0  0  0  0  0  0  0  0  0  0  0
   23.8756   51.7225   -3.1427 C   0  0  0  0  0  0  0  0  0  0  0  0
   22.9665   52.6677   -3.1635 N   0  0  0  0  0  0  0  0  0  0  0  0
   23.3330   53.5786   -4.1660 N   0  0  0  0  0  0  0  0  0  0  0  0
   24.4506   53.1587   -4.7082 C   0  0  0  0  0  0  0  0  0  0  0  0
   25.1601   53.8547   -5.8112 C   0  0  0  0  0  0  0  0  0  0  0  0
   24.0947   50.5331   -2.2151 C   0  0  0  0  0  0  0  0  0  0  0  0
   30.9249   51.8881    1.9549 Cl  0  0  0  0  0  0  0  0  0  0  0  0
   29.6241   51.5322    0.8553 C   0  0  0  0  0  0  0  0  0  0  0  0
   29.7359   51.9213   -0.4681 C   0  0  0  0  0  0  0  0  0  0  0  0
   28.7007   51.6616   -1.3456 C   0  0  0  0  0  0  0  0  0  0  0  0
   28.4906   50.8683    1.3172 C   0  0  0  0  0  0  0  0  0  0  0  0
   27.4515   50.6033    0.4246 C   0  0  0  0  0  0  0  0  0  0  0  0
   27.5625   50.9663   -0.9231 C   0  0  0  0  0  0  0  0  0  0  0  0
   28.9595   48.3432   -5.2591 O   0  0  0  0  0  0  0  0  0  0  0  0
   30.0379   48.7126   -6.1215 C   0  0  0  0  0  0  0  0  0  0  0  0
   22.9256   50.3539   -1.2409 C   0  0  0  0  0  0  0  0  0  0  0  0
   23.3508   49.6277    0.0248 C   0  0  0  0  0  0  0  0  0  0  0  0
   23.3016   50.1852    1.1136 O   0  0  0  0  0  0  0  0  0  0  0  0
   23.7823   48.3727   -0.1110 N   0  0  0  0  0  0  0  0  0  0  0  0
   23.8109   47.9648   -1.0066 H   0  0  0  0  0  0  0  0  0  0  0  0
   24.2121   47.5958    1.0444 C   0  0  0  0  0  0  0  0  0  0  0  0
   25.7156   47.5958    1.2285 C   0  0  0  0  0  0  0  0  0  0  0  0
 16 17  1  0  0  0
 17 18  2  0  0  0
 17 20  1  0  0  0
 18 19  1  0  0  0
 19 22  2  0  0  0
 20 21  2  0  0  0
 21 22  1  0  0  0
 22  1  1  0  0  0
  1  2  2  0  0  0
  1  3  1  0  0  0
  2 15  1  0  0  0
  3  4  2  0  0  0
  3  8  1  0  0  0
  4  5  1  0  0  0
  4  9  1  0  0  0
  5  6  2  0  0  0
  6  7  1  0  0  0
  7 23  1  0  0  0
  7  8  2  0  0  0
 23 24  1  0  0  0
  9 10  1  0  0  0
  9 13  1  0  0  0
 10 11  2  0  0  0
 10 15  1  0  0  0
 11 12  1  0  0  0
 12 13  2  0  0  0
 13 14  1  0  0  0
 15 25  1  0  0  0
 25 26  1  0  0  0
 26 27  2  0  0  0
 26 28  1  0  0  0
 28 30  1  0  0  0
 30 31  1  0  0  0
 28 29  1  0  0  0
M  END
> <minimizedAffinity>
-8.29888

$$$$
3P5O_EAM_A_1


 31 34  0  0  0  0  0  0  0  0999 V2000
   24.3314   51.5907   -3.8834 C   0  0  0  0  0  0  0  0  0  0  0  0
   24.0238   50.7762   -4.8334 N   0  0  0  0  0  0  0  0  0  0  0  0
   24.2445   53.0845   -3.9031 C   0  0  0  0  0  0  0  0  0  0  0  0
   23.3553   53.7482   -4.7505 C   0  0  0  0  0  0  0  0  0  0  0  0
   23.6100   55.0736   -5.1089 C   0  0  0  0  0  0  0  0  0  0  0  0
   24.6820   55.7814   -4.5722 C   0  0  0  0  0  0  0  0  0  0  0  0
   25.5427   55.1500   -3.6742 C   0  0  0  0  0  0  0  0  0  0  0  0
   25.3014   53.8207   -3.3394 C   0  0  0  0  0  0  0  0  0  0  0  0
   22.2484   53.1088   -5.3952 N   0  0  0  0  0  0  0  0  0  0  0  0
   22.4058   51.9834   -6.1732 C   0  0  0  0  0  0  0  0  0  0  0  0
   21.2497   51.6427   -6.6904 N   0  0  0  0  0  0  0  0  0  0  0  0
   20.3039   52.5848   -6.2578 N   0  0  0  0  0  0  0  0  0  0  0  0
   20.9170   53.4535   -5.4903 C   0  0  0  0  0  0  0  0  0  0  0  0
   20.2531   54.6099   -4.8373 C   0  0  0  0  0  0  0  0  0  0  0  0
   23.7702   51.3039   -6.1794 C   0  0  0  0  0  0  0  0  0  0  0  0
   25.5184   48.7493    1.2806 Cl  0  0  0  0  0  0  0  0  0  0  0  0
   25.1986   49.5898   -0.2091 C   0  0  0  0  0  0  0  0  0  0  0  0
   23.8882   49.8654   -0.5586 C   0  0  0  0  0  0  0  0  0  0  0  0
   23.6214   50.5145   -1.7487 C   0  0  0  0  0  0  0  0  0  0  0  0
   26.2577   49.9690   -1.0298 C   0  0  0  0  0  0  0  0  0  0  0  0
   25.9819   50.6300   -2.2273 C   0  0  0  0  0  0  0  0  0  0  0  0
   24.6629   50.9401   -2.5804 C   0  0  0  0  0  0  0  0  0  0  0  0
   26.6362   55.7839   -3.1064 O   0  0  0  0  0  0  0  0  0  0  0  0
   27.4322   56.6714   -3.8949 C   0  0  0  0  0  0  0  0  0  0  0  0
   23.7889   50.0834   -7.1058 C   0  0  0  0  0  0  0  0  0  0  0  0
   25.2061   49.6718   -7.4697 C   0  0  0  0  0  0  0  0  0  0  0  0
   25.4678   49.2483   -8.5882 O   0  0  0  0  0  0  0  0  0  0  0  0
   26.1347   49.7859   -6.5188 N   0  0  0  0  0  0  0  0  0  0  0  0
   25.8793   50.1260   -5.6309 H   0  0  0  0  0  0  0  0  0  0  0  0
   27.5209   49.4154   -6.7727 C   0  0  0  0  0  0  0  0  0  0  0  0
   28.1807   48.7501   -5.5825 C   0  0  0  0  0  0  0  0  0  0  0  0
 16 17  1  0  0  0
 17 18  2  0  0  0
 17 20  1  0  0  0
 18 19  1  0  0  0
 19 22  2  0  0  0
 20 21  2  0  0  0
 21 22  1  0  0  0
 22  1  1  0  0  0
  1  2  2  0  0  0
  1  3  1  0  0  0
  2 15  1  0  0  0
  3  4  2  0  0  0
  3  8  1  0  0  0
  4  5  1  0  0  0
  4  9  1  0  0  0
  5  6  2  0  0  0
  6  7  1  0  0  0
  7 23  1  0  0  0
  7  8  2  0  0  0
 23 24  1  0  0  0
  9 10  1  0  0  0
  9 13  1  0  0  0
 10 11  2  0  0  0
 10 15  1  0  0  0
 11 12  1  0  0  0
 12 13  2  0  0  0
 13 14  1  0  0  0
 15 25  1  0  0  0
 25 26  1  0  0  0
 26 27  2  0  0  0
 26 28  1  0  0  0
 28 30  1  0  0  0
 30 31  1  0  0  0
 28 29  1  0  0  0
M  END
> <minimizedAffinity>
-7.81227

$$$$
3P5O_EAM_A_1


 31 34  0  0  0  0  0  0  0  0999 V2000
   25.8748   50.9260   -2.1349 C   0  0  0  0  0  0  0  0  0  0  0  0
   27.0582   50.8427   -2.6379 N   0  0  0  0  0  0  0  0  0  0  0  0
   25.3785   50.2986   -0.8702 C   0  0  0  0  0  0  0  0  0  0  0  0
   26.2520   49.9726    0.1691 C   0  0  0  0  0  0  0  0  0  0  0  0
   25.8840   48.9904    1.0909 C   0  0  0  0  0  0  0  0  0  0  0  0
   24.6293   48.3884    1.0539 C   0  0  0  0  0  0  0  0  0  0  0  0
   23.7216   48.7507    0.0585 C   0  0  0  0  0  0  0  0  0  0  0  0
   24.1012   49.7109   -0.8748 C   0  0  0  0  0  0  0  0  0  0  0  0
   27.5810   50.4932    0.2798 N   0  0  0  0  0  0  0  0  0  0  0  0
   28.4967   50.3841   -0.7431 C   0  0  0  0  0  0  0  0  0  0  0  0
   29.6458   50.8856   -0.3581 N   0  0  0  0  0  0  0  0  0  0  0  0
   29.4899   51.3198    0.9671 N   0  0  0  0  0  0  0  0  0  0  0  0
   28.2547   51.0745    1.3327 C   0  0  0  0  0  0  0  0  0  0  0  0
   27.6992   51.3904    2.6728 C   0  0  0  0  0  0  0  0  0  0  0  0
   28.0058   49.8650   -2.0895 C   0  0  0  0  0  0  0  0  0  0  0  0
   22.4174   54.8581   -5.0903 Cl  0  0  0  0  0  0  0  0  0  0  0  0
   23.3932   53.7054   -4.2261 C   0  0  0  0  0  0  0  0  0  0  0  0
   24.4974   54.1521   -3.5216 C   0  0  0  0  0  0  0  0  0  0  0  0
   25.2907   53.2432   -2.8481 C   0  0  0  0  0  0  0  0  0  0  0  0
   23.0569   52.3545   -4.2567 C   0  0  0  0  0  0  0  0  0  0  0  0
   23.8584   51.4425   -3.5692 C   0  0  0  0  0  0  0  0  0  0  0  0
   24.9625   51.8833   -2.8295 C   0  0  0  0  0  0  0  0  0  0  0  0
   22.4594   48.1894   -0.0505 O   0  0  0  0  0  0  0  0  0  0  0  0
   21.7374   47.8284    1.1291 C   0  0  0  0  0  0  0  0  0  0  0  0
   29.1441   49.7829   -3.1120 C   0  0  0  0  0  0  0  0  0  0  0  0
   28.6592   50.0762   -4.5224 C   0  0  0  0  0  0  0  0  0  0  0  0
   29.0739   51.0499   -5.1378 O   0  0  0  0  0  0  0  0  0  0  0  0
   27.7648   49.2351   -5.0442 N   0  0  0  0  0  0  0  0  0  0  0  0
   27.4539   48.4675   -4.5119 H   0  0  0  0  0  0  0  0  0  0  0  0
   27.2404   49.4339   -6.3891 C   0  0  0  0  0  0  0  0  0  0  0  0
   25.8685   50.0759   -6.3979 C   0  0  0  0  0  0  0  0  0  0  0  0
 16 17  1  0  0  0
 17 18  2  0  0  0
 17 20  1  0  0  0
 18 19  1  0  0  0
 19 22  2  0  0  0
 20 21  2  0  0  0
 21 22  1  0  0  0
 22  1  1  0  0  0
  1  2  2  0  0  0
  1  3  1  0  0  0
  2 15  1  0  0  0
  3  4  2  0  0  0
  3  8  1  0  0  0
  4  5  1  0  0  0
  4  9  1  0  0  0
  5  6  2  0  0  0
  6  7  1  0  0  0
  7 23  1  0  0  0
  7  8  2  0  0  0
 23 24  1  0  0  0
  9 10  1  0  0  0
  9 13  1  0  0  0
 10 11  2  0  0  0
 10 15  1  0  0  0
 11 12  1  0  0  0
 12 13  2  0  0  0
 13 14  1  0  0  0
 15 25  1  0  0  0
 25 26  1  0  0  0
 26 27  2  0  0  0
 26 28  1  0  0  0
 28 30  1  0  0  0
 30 31  1  0  0  0
 28 29  1  0  0  0
M  END
> <minimizedAffinity>
-7.22899

$$$$
3P5O_EAM_A_1


 31 34  0  0  0  0  0  0  0  0999 V2000
   24.9562   51.3226   -3.8176 C   0  0  0  0  0  0  0  0  0  0  0  0
   24.8800   50.4462   -4.7592 N   0  0  0  0  0  0  0  0  0  0  0  0
   24.6542   52.7854   -3.9109 C   0  0  0  0  0  0  0  0  0  0  0  0
   23.7784   53.2850   -4.8766 C   0  0  0  0  0  0  0  0  0  0  0  0
   23.8750   54.6237   -5.2623 C   0  0  0  0  0  0  0  0  0  0  0  0
   24.7644   55.4986   -4.6448 C   0  0  0  0  0  0  0  0  0  0  0  0
   25.6018   55.0279   -3.6333 C   0  0  0  0  0  0  0  0  0  0  0  0
   25.5217   53.6869   -3.2693 C   0  0  0  0  0  0  0  0  0  0  0  0
   22.8567   52.4696   -5.6082 N   0  0  0  0  0  0  0  0  0  0  0  0
   23.2638   51.3603   -6.3156 C   0  0  0  0  0  0  0  0  0  0  0  0
   22.2356   50.8361   -6.9387 N   0  0  0  0  0  0  0  0  0  0  0  0
   21.1195   51.6365   -6.6510 N   0  0  0  0  0  0  0  0  0  0  0  0
   21.5085   52.6075   -5.8603 C   0  0  0  0  0  0  0  0  0  0  0  0
   20.6132   53.6680   -5.3328 C   0  0  0  0  0  0  0  0  0  0  0  0
   24.7049   50.8937   -6.1461 C   0  0  0  0  0  0  0  0  0  0  0  0
   25.9055   48.8532    1.5814 Cl  0  0  0  0  0  0  0  0  0  0  0  0
   25.6552   49.5853    0.0228 C   0  0  0  0  0  0  0  0  0  0  0  0
   24.3662   49.8889   -0.3791 C   0  0  0  0  0  0  0  0  0  0  0  0
   24.1539   50.4520   -1.6227 C   0  0  0  0  0  0  0  0  0  0  0  0
   26.7472   49.8515   -0.7992 C   0  0  0  0  0  0  0  0  0  0  0  0
   26.5266   50.4262   -2.0513 C   0  0  0  0  0  0  0  0  0  0  0  0
   25.2307   50.7642   -2.4598 C   0  0  0  0  0  0  0  0  0  0  0  0
   26.5198   55.8339   -2.9793 O   0  0  0  0  0  0  0  0  0  0  0  0
   27.6668   56.3192   -3.6807 C   0  0  0  0  0  0  0  0  0  0  0  0
   25.0062   49.6657   -7.0116 C   0  0  0  0  0  0  0  0  0  0  0  0
   25.2226   50.0405   -8.4687 C   0  0  0  0  0  0  0  0  0  0  0  0
   26.2926   50.5014   -8.8448 O   0  0  0  0  0  0  0  0  0  0  0  0
   24.1986   49.8523   -9.3027 N   0  0  0  0  0  0  0  0  0  0  0  0
   23.3536   49.4843   -8.9566 H   0  0  0  0  0  0  0  0  0  0  0  0
   24.3102   50.1826  -10.7175 C   0  0  0  0  0  0  0  0  0  0  0  0
   23.5285   51.4234  -11.0966 C   0  0  0  0  0  0  0  0  0  0  0  0
 16 17  1  0  0  0
 17 18  2  0  0  0
 17 20  1  0  0  0
 18 19  1  0  0  0
 19 22  2  0  0  0
 20 21  2  0  0  0
 21 22  1  0  0  0
 22  1  1  0  0  0
  1  2  2  0  0  0
  1  3  1  0  0  0
  2 15  1  0  0  0
  3  4  2  0  0  0
  3  8  1  0  0  0
  4  5  1  0  0  0
  4  9  1  0  0  0
  5  6  2  0  0  0
  6  7  1  0  0  0
  7 23  1  0  0  0
  7  8  2  0  0  0
 23 24  1  0  0  0
  9 10  1  0  0  0
  9 13  1  0  0  0
 10 11  2  0  0  0
 10 15  1  0  0  0
 11 12  1  0  0  0
 12 13  2  0  0  0
 13 14  1  0  0  0
 15 25  1  0  0  0
 25 26  1  0  0  0
 26 27  2  0  0  0
 26 28  1  0  0  0
 28 30  1  0  0  0
 30 31  1  0  0  0
 28 29  1  0  0  0
M  END
> <minimizedAffinity>
-7.10950

$$$$
3P5O_EAM_A_1


 31 34  0  0  0  0  0  0  0  0999 V2000
   24.6928   51.6192   -4.2475 C   0  0  0  0  0  0  0  0  0  0  0  0
   25.3914   51.2409   -5.2620 N   0  0  0  0  0  0  0  0  0  0  0  0
   24.8564   51.1943   -2.8219 C   0  0  0  0  0  0  0  0  0  0  0  0
   26.0840   50.7389   -2.3372 C   0  0  0  0  0  0  0  0  0  0  0  0
   26.1131   49.9204   -1.2061 C   0  0  0  0  0  0  0  0  0  0  0  0
   24.9555   49.6176   -0.4946 C   0  0  0  0  0  0  0  0  0  0  0  0
   23.7289   50.1186   -0.9310 C   0  0  0  0  0  0  0  0  0  0  0  0
   23.6997   50.9125   -2.0739 C   0  0  0  0  0  0  0  0  0  0  0  0
   27.3294   50.9499   -3.0108 N   0  0  0  0  0  0  0  0  0  0  0  0
   27.5238   50.5774   -4.3224 C   0  0  0  0  0  0  0  0  0  0  0  0
   28.7637   50.8264   -4.6698 N   0  0  0  0  0  0  0  0  0  0  0  0
   29.4138   51.3600   -3.5464 N   0  0  0  0  0  0  0  0  0  0  0  0
   28.5455   51.4227   -2.5658 C   0  0  0  0  0  0  0  0  0  0  0  0
   28.8531   51.9328   -1.2058 C   0  0  0  0  0  0  0  0  0  0  0  0
   26.3122   50.1069   -5.1186 C   0  0  0  0  0  0  0  0  0  0  0  0
   20.8927   56.0686   -5.6302 Cl  0  0  0  0  0  0  0  0  0  0  0  0
   21.9733   54.7715   -5.2086 C   0  0  0  0  0  0  0  0  0  0  0  0
   23.3359   55.0124   -5.1816 C   0  0  0  0  0  0  0  0  0  0  0  0
   24.2045   53.9848   -4.8676 C   0  0  0  0  0  0  0  0  0  0  0  0
   21.4587   53.5127   -4.9095 C   0  0  0  0  0  0  0  0  0  0  0  0
   22.3407   52.4809   -4.5869 C   0  0  0  0  0  0  0  0  0  0  0  0
   23.7196   52.7169   -4.5285 C   0  0  0  0  0  0  0  0  0  0  0  0
   22.5332   49.8530   -0.2832 O   0  0  0  0  0  0  0  0  0  0  0  0
   22.4493   48.7609    0.6352 C   0  0  0  0  0  0  0  0  0  0  0  0
   26.6957   49.7101   -6.5482 C   0  0  0  0  0  0  0  0  0  0  0  0
   25.4910   49.7024   -7.4750 C   0  0  0  0  0  0  0  0  0  0  0  0
   24.8113   48.6932   -7.6106 O   0  0  0  0  0  0  0  0  0  0  0  0
   25.2216   50.8328   -8.1302 N   0  0  0  0  0  0  0  0  0  0  0  0
   25.7981   51.6195   -7.9959 H   0  0  0  0  0  0  0  0  0  0  0  0
   24.0881   50.9222   -9.0415 C   0  0  0  0  0  0  0  0  0  0  0  0
   22.8920   51.6201   -8.4277 C   0  0  0  0  0  0  0  0  0  0  0  0
 16 17  1  0  0  0
 17 18  2  0  0  0
 17 20  1  0  0  0
 18 19  1  0  0  0
 19 22  2  0  0  0
 20 21  2  0  0  0
 21 22  1  0  0  0
 22  1  1  0  0  0
  1  2  2  0  0  0
  1  3  1  0  0  0
  2 15  1  0  0  0
  3  4  2  0  0  0
  3  8  1  0  0  0
  4  5  1  0  0  0
  4  9  1  0  0  0
  5  6  2  0  0  0
  6  7  1  0  0  0
  7 23  1  0  0  0
  7  8  2  0  0  0
 23 24  1  0  0  0
  9 10  1  0  0  0
  9 13  1  0  0  0
 10 11  2  0  0  0
 10 15  1  0  0  0
 11 12  1  0  0  0
 12 13  2  0  0  0
 13 14  1  0  0  0
 15 25  1  0  0  0
 25 26  1  0  0  0
 26 27  2  0  0  0
 26 28  1  0  0  0
 28 30  1  0  0  0
 30 31  1  0  0  0
 28 29  1  0  0  0
M  END
> <minimizedAffinity>
-7.05687

$$$$
3P5O_EAM_A_1


 31 34  0  0  0  0  0  0  0  0999 V2000
   24.8381   51.3938   -3.2034 C   0  0  0  0  0  0  0  0  0  0  0  0
   23.7712   52.1140   -3.2636 N   0  0  0  0  0  0  0  0  0  0  0  0
   25.9741   51.3690   -4.1772 C   0  0  0  0  0  0  0  0  0  0  0  0
   26.2582   52.4693   -4.9883 C   0  0  0  0  0  0  0  0  0  0  0  0
   26.9634   52.2793   -6.1786 C   0  0  0  0  0  0  0  0  0  0  0  0
   27.4693   51.0325   -6.5359 C   0  0  0  0  0  0  0  0  0  0  0  0
   27.2478   49.9358   -5.7028 C   0  0  0  0  0  0  0  0  0  0  0  0
   26.5218   50.1231   -4.5301 C   0  0  0  0  0  0  0  0  0  0  0  0
   25.7517   53.7858   -4.7438 N   0  0  0  0  0  0  0  0  0  0  0  0
   24.4055   54.0356   -4.5960 C   0  0  0  0  0  0  0  0  0  0  0  0
   24.2127   55.3241   -4.4449 N   0  0  0  0  0  0  0  0  0  0  0  0
   25.4684   55.9463   -4.5166 N   0  0  0  0  0  0  0  0  0  0  0  0
   26.3736   55.0153   -4.6991 C   0  0  0  0  0  0  0  0  0  0  0  0
   27.8297   55.2760   -4.8272 C   0  0  0  0  0  0  0  0  0  0  0  0
   23.4632   52.8413   -4.5008 C   0  0  0  0  0  0  0  0  0  0  0  0
   25.4366   48.0539    1.7601 Cl  0  0  0  0  0  0  0  0  0  0  0  0
   25.2806   49.0419    0.3362 C   0  0  0  0  0  0  0  0  0  0  0  0
   24.0561   49.1101   -0.3050 C   0  0  0  0  0  0  0  0  0  0  0  0
   23.9259   49.8756   -1.4478 C   0  0  0  0  0  0  0  0  0  0  0  0
   26.3837   49.7447   -0.1417 C   0  0  0  0  0  0  0  0  0  0  0  0
   26.2439   50.5211   -1.2925 C   0  0  0  0  0  0  0  0  0  0  0  0
   25.0043   50.6215   -1.9357 C   0  0  0  0  0  0  0  0  0  0  0  0
   27.7096   48.6624   -5.9949 O   0  0  0  0  0  0  0  0  0  0  0  0
   29.0713   48.4721   -6.3858 C   0  0  0  0  0  0  0  0  0  0  0  0
   22.0030   53.2842   -4.3604 C   0  0  0  0  0  0  0  0  0  0  0  0
   21.1440   52.7697   -5.5040 C   0  0  0  0  0  0  0  0  0  0  0  0
   21.4727   52.9575   -6.6682 O   0  0  0  0  0  0  0  0  0  0  0  0
   20.0252   52.1200   -5.1785 N   0  0  0  0  0  0  0  0  0  0  0  0
   19.7960   51.9962   -4.2290 H   0  0  0  0  0  0  0  0  0  0  0  0
   19.1369   51.5906   -6.2050 C   0  0  0  0  0  0  0  0  0  0  0  0
   17.7163   52.1000   -6.0751 C   0  0  0  0  0  0  0  0  0  0  0  0
 16 17  1  0  0  0
 17 18  2  0  0  0
 17 20  1  0  0  0
 18 19  1  0  0  0
 19 22  2  0  0  0
 20 21  2  0  0  0
 21 22  1  0  0  0
 22  1  1  0  0  0
  1  2  2  0  0  0
  1  3  1  0  0  0
  2 15  1  0  0  0
  3  4  2  0  0  0
  3  8  1  0  0  0
  4  5  1  0  0  0
  4  9  1  0  0  0
  5  6  2  0  0  0
  6  7  1  0  0  0
  7 23  1  0  0  0
  7  8  2  0  0  0
 23 24  1  0  0  0
  9 10  1  0  0  0
  9 13  1  0  0  0
 10 11  2  0  0  0
 10 15  1  0  0  0
 11 12  1  0  0  0
 12 13  2  0  0  0
 13 14  1  0  0  0
 15 25  1  0  0  0
 25 26  1  0  0  0
 26 27  2  0  0  0
 26 28  1  0  0  0
 28 30  1  0  0  0
 30 31  1  0  0  0
 28 29  1  0  0  0
M  END
> <minimizedAffinity>
-6.80326

$$$$
3P5O_EAM_A_1


 31 34  0  0  0  0  0  0  0  0999 V2000
   27.8902   51.0481   -2.0250 C   0  0  0  0  0  0  0  0  0  0  0  0
   26.9061   50.9453   -1.1995 N   0  0  0  0  0  0  0  0  0  0  0  0
   27.8950   50.7030   -3.4812 C   0  0  0  0  0  0  0  0  0  0  0  0
   26.7178   50.7092   -4.2318 C   0  0  0  0  0  0  0  0  0  0  0  0
   26.6469   49.9494   -5.4013 C   0  0  0  0  0  0  0  0  0  0  0  0
   27.7504   49.2540   -5.8877 C   0  0  0  0  0  0  0  0  0  0  0  0
   28.9527   49.2906   -5.1812 C   0  0  0  0  0  0  0  0  0  0  0  0
   29.0127   50.0273   -4.0018 C   0  0  0  0  0  0  0  0  0  0  0  0
   25.5102   51.3498   -3.8065 N   0  0  0  0  0  0  0  0  0  0  0  0
   24.9262   51.0752   -2.5899 C   0  0  0  0  0  0  0  0  0  0  0  0
   23.8058   51.7480   -2.4796 N   0  0  0  0  0  0  0  0  0  0  0  0
   23.6341   52.4726   -3.6690 N   0  0  0  0  0  0  0  0  0  0  0  0
   24.6567   52.2203   -4.4500 C   0  0  0  0  0  0  0  0  0  0  0  0
   24.8401   52.8008   -5.8042 C   0  0  0  0  0  0  0  0  0  0  0  0
   25.7020   50.2097   -1.6038 C   0  0  0  0  0  0  0  0  0  0  0  0
   32.6432   54.0452    0.1141 Cl  0  0  0  0  0  0  0  0  0  0  0  0
   31.2761   53.1536   -0.4889 C   0  0  0  0  0  0  0  0  0  0  0  0
   30.9113   53.2969   -1.8162 C   0  0  0  0  0  0  0  0  0  0  0  0
   29.8154   52.6092   -2.3009 C   0  0  0  0  0  0  0  0  0  0  0  0
   30.5662   52.3148    0.3663 C   0  0  0  0  0  0  0  0  0  0  0  0
   29.4643   51.6180   -0.1310 C   0  0  0  0  0  0  0  0  0  0  0  0
   29.1005   51.7318   -1.4782 C   0  0  0  0  0  0  0  0  0  0  0  0
   30.0905   48.6167   -5.5951 O   0  0  0  0  0  0  0  0  0  0  0  0
   30.2694   48.3065   -6.9789 C   0  0  0  0  0  0  0  0  0  0  0  0
   24.9117   49.9799   -0.3112 C   0  0  0  0  0  0  0  0  0  0  0  0
   25.8165   49.5687    0.8389 C   0  0  0  0  0  0  0  0  0  0  0  0
   26.0741   48.3894    1.0427 O   0  0  0  0  0  0  0  0  0  0  0  0
   26.3014   50.5444    1.6088 N   0  0  0  0  0  0  0  0  0  0  0  0
   26.0640   51.4794    1.4124 H   0  0  0  0  0  0  0  0  0  0  0  0
   27.1766   50.2488    2.7356 C   0  0  0  0  0  0  0  0  0  0  0  0
   27.9536   51.4588    3.2118 C   0  0  0  0  0  0  0  0  0  0  0  0
 16 17  1  0  0  0
 17 18  2  0  0  0
 17 20  1  0  0  0
 18 19  1  0  0  0
 19 22  2  0  0  0
 20 21  2  0  0  0
 21 22  1  0  0  0
 22  1  1  0  0  0
  1  2  2  0  0  0
  1  3  1  0  0  0
  2 15  1  0  0  0
  3  4  2  0  0  0
  3  8  1  0  0  0
  4  5  1  0  0  0
  4  9  1  0  0  0
  5  6  2  0  0  0
  6  7  1  0  0  0
  7 23  1  0  0  0
  7  8  2  0  0  0
 23 24  1  0  0  0
  9 10  1  0  0  0
  9 13  1  0  0  0
 10 11  2  0  0  0
 10 15  1  0  0  0
 11 12  1  0  0  0
 12 13  2  0  0  0
 13 14  1  0  0  0
 15 25  1  0  0  0
 25 26  1  0  0  0
 26 27  2  0  0  0
 26 28  1  0  0  0
 28 30  1  0  0  0
 30 31  1  0  0  0
 28 29  1  0  0  0
M  END
> <minimizedAffinity>
-6.73506

$$$$
3P5O_EAM_A_1


 31 34  0  0  0  0  0  0  0  0999 V2000
   23.6091   52.0077   -5.0424 C   0  0  0  0  0  0  0  0  0  0  0  0
   23.8913   51.4986   -6.1920 N   0  0  0  0  0  0  0  0  0  0  0  0
   24.2366   51.6791   -3.7241 C   0  0  0  0  0  0  0  0  0  0  0  0
   25.5314   51.1629   -3.6458 C   0  0  0  0  0  0  0  0  0  0  0  0
   25.9106   50.4319   -2.5180 C   0  0  0  0  0  0  0  0  0  0  0  0
   25.0590   50.2787   -1.4275 C   0  0  0  0  0  0  0  0  0  0  0  0
   23.7842   50.8437   -1.4654 C   0  0  0  0  0  0  0  0  0  0  0  0
   23.3995   51.5493   -2.6019 C   0  0  0  0  0  0  0  0  0  0  0  0
   26.4738   51.2206   -4.7219 N   0  0  0  0  0  0  0  0  0  0  0  0
   26.1809   50.7361   -5.9773 C   0  0  0  0  0  0  0  0  0  0  0  0
   27.2335   50.8565   -6.7503 N   0  0  0  0  0  0  0  0  0  0  0  0
   28.2597   51.4182   -5.9753 N   0  0  0  0  0  0  0  0  0  0  0  0
   27.7910   51.6249   -4.7683 C   0  0  0  0  0  0  0  0  0  0  0  0
   28.5776   52.2088   -3.6526 C   0  0  0  0  0  0  0  0  0  0  0  0
   24.7460   50.3074   -6.2610 C   0  0  0  0  0  0  0  0  0  0  0  0
   19.8504   56.6818   -5.4596 Cl  0  0  0  0  0  0  0  0  0  0  0  0
   20.9221   55.3185   -5.3155 C   0  0  0  0  0  0  0  0  0  0  0  0
   22.2827   55.5116   -5.4793 C   0  0  0  0  0  0  0  0  0  0  0  0
   23.1410   54.4329   -5.3868 C   0  0  0  0  0  0  0  0  0  0  0  0
   20.4016   54.0560   -5.0434 C   0  0  0  0  0  0  0  0  0  0  0  0
   21.2744   52.9718   -4.9449 C   0  0  0  0  0  0  0  0  0  0  0  0
   22.6556   53.1568   -5.0807 C   0  0  0  0  0  0  0  0  0  0  0  0
   22.8766   50.7258   -0.4251 O   0  0  0  0  0  0  0  0  0  0  0  0
   23.0326   49.6830    0.5400 C   0  0  0  0  0  0  0  0  0  0  0  0
   24.5879   49.7745   -7.6890 C   0  0  0  0  0  0  0  0  0  0  0  0
   24.1007   50.8523   -8.6437 C   0  0  0  0  0  0  0  0  0  0  0  0
   24.8956   51.5708   -9.2357 O   0  0  0  0  0  0  0  0  0  0  0  0
   22.7812   50.9789   -8.7943 N   0  0  0  0  0  0  0  0  0  0  0  0
   22.1775   50.3834   -8.2941 H   0  0  0  0  0  0  0  0  0  0  0  0
   22.2190   51.9840   -9.6869 C   0  0  0  0  0  0  0  0  0  0  0  0
   21.6969   53.2004   -8.9505 C   0  0  0  0  0  0  0  0  0  0  0  0
 16 17  1  0  0  0
 17 18  2  0  0  0
 17 20  1  0  0  0
 18 19  1  0  0  0
 19 22  2  0  0  0
 20 21  2  0  0  0
 21 22  1  0  0  0
 22  1  1  0  0  0
  1  2  2  0  0  0
  1  3  1  0  0  0
  2 15  1  0  0  0
  3  4  2  0  0  0
  3  8  1  0  0  0
  4  5  1  0  0  0
  4  9  1  0  0  0
  5  6  2  0  0  0
  6  7  1  0  0  0
  7 23  1  0  0  0
  7  8  2  0  0  0
 23 24  1  0  0  0
  9 10  1  0  0  0
  9 13  1  0  0  0
 10 11  2  0  0  0
 10 15  1  0  0  0
 11 12  1  0  0  0
 12 13  2  0  0  0
 13 14  1  0  0  0
 15 25  1  0  0  0
 25 26  1  0  0  0
 26 27  2  0  0  0
 26 28  1  0  0  0
 28 30  1  0  0  0
 30 31  1  0  0  0
 28 29  1  0  0  0
M  END
> <minimizedAffinity>
-6.65730

$$$$
