2Z94_TLD_A_902


 11 11  0  0  0  0  0  0  0  0999 V2000
   13.7975   -0.9809   23.1550 C   0  0  0  0  0  0  0  0  0  0  0  0
   15.2681   -0.9605   23.4071 C   0  0  0  0  0  0  0  0  0  0  0  0
   15.7698   -0.3508   24.5557 C   0  0  0  0  0  0  0  0  0  0  0  0
   14.8290    0.2799   25.5197 C   0  0  0  0  0  0  0  0  0  0  0  0
   13.4859    0.2554   25.2712 C   0  0  0  0  0  0  0  0  0  0  0  0
   12.9482   -0.4003   24.0353 C   0  0  0  0  0  0  0  0  0  0  0  0
   12.5357    0.8988   26.2406 C   0  0  0  0  0  0  0  0  0  0  0  0
   16.3451   -1.7394   22.1952 S   0  0  0  0  0  0  0  0  0  0  0  0
   17.5328   -0.2842   24.9053 S   0  0  0  0  0  0  0  0  0  0  0  0
   15.5938   -2.2505   21.1833 H   0  0  0  0  0  0  0  0  0  0  0  0
   18.2161   -0.9124   23.9113 H   0  0  0  0  0  0  0  0  0  0  0  0
  1  2  2  0  0  0
  1  6  1  0  0  0
  2  3  1  0  0  0
  2  8  1  0  0  0
  3  4  2  0  0  0
  3  9  1  0  0  0
  4  5  1  0  0  0
  5  6  2  0  0  0
  5  7  1  0  0  0
  8 10  1  0  0  0
  9 11  1  0  0  0
M  END
> <minimizedAffinity>
-3.42789

$$$$
2Z94_TLD_A_902


 11 11  0  0  0  0  0  0  0  0999 V2000
   15.4116   -0.7195   22.9289 C   0  0  0  0  0  0  0  0  0  0  0  0
   16.0863   -1.9106   23.5229 C   0  0  0  0  0  0  0  0  0  0  0  0
   15.5760   -2.4951   24.6808 C   0  0  0  0  0  0  0  0  0  0  0  0
   14.3612   -1.9192   25.3169 C   0  0  0  0  0  0  0  0  0  0  0  0
   13.7585   -0.8260   24.7618 C   0  0  0  0  0  0  0  0  0  0  0  0
   14.3089   -0.1984   23.5170 C   0  0  0  0  0  0  0  0  0  0  0  0
   12.5360   -0.2392   25.4080 C   0  0  0  0  0  0  0  0  0  0  0  0
   17.5532   -2.5494   22.7012 S   0  0  0  0  0  0  0  0  0  0  0  0
   16.3542   -3.9233   25.4485 S   0  0  0  0  0  0  0  0  0  0  0  0
   17.8240   -1.7927   21.6041 H   0  0  0  0  0  0  0  0  0  0  0  0
   17.4408   -4.2941   24.7194 H   0  0  0  0  0  0  0  0  0  0  0  0
  1  2  2  0  0  0
  1  6  1  0  0  0
  2  3  1  0  0  0
  2  8  1  0  0  0
  3  4  2  0  0  0
  3  9  1  0  0  0
  4  5  1  0  0  0
  5  6  2  0  0  0
  5  7  1  0  0  0
  8 10  1  0  0  0
  9 11  1  0  0  0
M  END
> <minimizedAffinity>
-3.36495

$$$$
2Z94_TLD_A_902


 11 11  0  0  0  0  0  0  0  0999 V2000
   15.3351   -2.5751   25.4030 C   0  0  0  0  0  0  0  0  0  0  0  0
   16.2576   -2.4955   24.2328 C   0  0  0  0  0  0  0  0  0  0  0  0
   15.9318   -1.6909   23.1423 C   0  0  0  0  0  0  0  0  0  0  0  0
   14.6596   -0.9205   23.1555 C   0  0  0  0  0  0  0  0  0  0  0  0
   13.8249   -1.0081   24.2335 C   0  0  0  0  0  0  0  0  0  0  0  0
   14.1766   -1.8743   25.4051 C   0  0  0  0  0  0  0  0  0  0  0  0
   12.5363   -0.2363   24.2443 C   0  0  0  0  0  0  0  0  0  0  0  0
   17.7759   -3.4583   24.2853 S   0  0  0  0  0  0  0  0  0  0  0  0
   16.9981   -1.5662   21.6993 S   0  0  0  0  0  0  0  0  0  0  0  0
   17.8368   -4.1452   25.4575 H   0  0  0  0  0  0  0  0  0  0  0  0
   18.1017   -2.3395   21.8829 H   0  0  0  0  0  0  0  0  0  0  0  0
  1  2  2  0  0  0
  1  6  1  0  0  0
  2  3  1  0  0  0
  2  8  1  0  0  0
  3  4  2  0  0  0
  3  9  1  0  0  0
  4  5  1  0  0  0
  5  6  2  0  0  0
  5  7  1  0  0  0
  8 10  1  0  0  0
  9 11  1  0  0  0
M  END
> <minimizedAffinity>
-3.31630

$$$$
2Z94_TLD_A_902


 11 11  0  0  0  0  0  0  0  0999 V2000
   18.9039   -6.9932   26.8320 C   0  0  0  0  0  0  0  0  0  0  0  0
   19.8209   -6.5019   25.7623 C   0  0  0  0  0  0  0  0  0  0  0  0
   19.3154   -6.1849   24.5026 C   0  0  0  0  0  0  0  0  0  0  0  0
   17.8609   -6.3453   24.2363 C   0  0  0  0  0  0  0  0  0  0  0  0
   17.0364   -6.8001   25.2261 C   0  0  0  0  0  0  0  0  0  0  0  0
   17.5818   -7.1410   26.5799 C   0  0  0  0  0  0  0  0  0  0  0  0
   15.5686   -6.9695   24.9556 C   0  0  0  0  0  0  0  0  0  0  0  0
   21.5682   -6.3371   26.1557 S   0  0  0  0  0  0  0  0  0  0  0  0
   20.3745   -5.6011   23.1713 S   0  0  0  0  0  0  0  0  0  0  0  0
   21.7798   -6.7124   27.4456 H   0  0  0  0  0  0  0  0  0  0  0  0
   21.6580   -5.5232   23.6142 H   0  0  0  0  0  0  0  0  0  0  0  0
  1  2  2  0  0  0
  1  6  1  0  0  0
  2  3  1  0  0  0
  2  8  1  0  0  0
  3  4  2  0  0  0
  3  9  1  0  0  0
  4  5  1  0  0  0
  5  6  2  0  0  0
  5  7  1  0  0  0
  8 10  1  0  0  0
  9 11  1  0  0  0
M  END
> <minimizedAffinity>
-3.31619

$$$$
2Z94_TLD_A_902


 11 11  0  0  0  0  0  0  0  0999 V2000
   19.1734   -6.1472   23.9138 C   0  0  0  0  0  0  0  0  0  0  0  0
   20.3149   -6.3648   24.8499 C   0  0  0  0  0  0  0  0  0  0  0  0
   20.0707   -6.7084   26.1784 C   0  0  0  0  0  0  0  0  0  0  0  0
   18.6677   -6.8506   26.6514 C   0  0  0  0  0  0  0  0  0  0  0  0
   17.6346   -6.6440   25.7817 C   0  0  0  0  0  0  0  0  0  0  0  0
   17.8991   -6.2739   24.3536 C   0  0  0  0  0  0  0  0  0  0  0  0
   16.2174   -6.7800   26.2606 C   0  0  0  0  0  0  0  0  0  0  0  0
   21.9840   -6.1711   24.2083 S   0  0  0  0  0  0  0  0  0  0  0  0
   21.4058   -6.9700   27.3548 S   0  0  0  0  0  0  0  0  0  0  0  0
   21.9274   -5.8358   22.8915 H   0  0  0  0  0  0  0  0  0  0  0  0
   22.6011   -6.7948   26.7302 H   0  0  0  0  0  0  0  0  0  0  0  0
  1  2  2  0  0  0
  1  6  1  0  0  0
  2  3  1  0  0  0
  2  8  1  0  0  0
  3  4  2  0  0  0
  3  9  1  0  0  0
  4  5  1  0  0  0
  5  6  2  0  0  0
  5  7  1  0  0  0
  8 10  1  0  0  0
  9 11  1  0  0  0
M  END
> <minimizedAffinity>
-3.19990

$$$$
2Z94_TLD_A_902


 11 11  0  0  0  0  0  0  0  0999 V2000
   18.3859   -6.1886   24.0918 C   0  0  0  0  0  0  0  0  0  0  0  0
   19.8781   -6.1755   24.0940 C   0  0  0  0  0  0  0  0  0  0  0  0
   20.5758   -6.4857   25.2600 C   0  0  0  0  0  0  0  0  0  0  0  0
   19.8212   -6.8235   26.4963 C   0  0  0  0  0  0  0  0  0  0  0  0
   18.4552   -6.8270   26.4775 C   0  0  0  0  0  0  0  0  0  0  0  0
   17.7065   -6.4926   25.2228 C   0  0  0  0  0  0  0  0  0  0  0  0
   17.6924   -7.1606   27.7277 C   0  0  0  0  0  0  0  0  0  0  0  0
   20.7227   -5.7533   22.5631 S   0  0  0  0  0  0  0  0  0  0  0  0
   22.3732   -6.4731   25.3255 S   0  0  0  0  0  0  0  0  0  0  0  0
   19.8036   -5.4983   21.5937 H   0  0  0  0  0  0  0  0  0  0  0  0
   22.8691   -6.1432   24.1029 H   0  0  0  0  0  0  0  0  0  0  0  0
  1  2  2  0  0  0
  1  6  1  0  0  0
  2  3  1  0  0  0
  2  8  1  0  0  0
  3  4  2  0  0  0
  3  9  1  0  0  0
  4  5  1  0  0  0
  5  6  2  0  0  0
  5  7  1  0  0  0
  8 10  1  0  0  0
  9 11  1  0  0  0
M  END
> <minimizedAffinity>
-3.16928

$$$$
2Z94_TLD_A_902


 11 11  0  0  0  0  0  0  0  0999 V2000
   17.4486   -4.0264   25.6339 C   0  0  0  0  0  0  0  0  0  0  0  0
   18.6427   -4.5311   24.8949 C   0  0  0  0  0  0  0  0  0  0  0  0
   18.6190   -5.7985   24.3153 C   0  0  0  0  0  0  0  0  0  0  0  0
   17.3991   -6.6395   24.4446 C   0  0  0  0  0  0  0  0  0  0  0  0
   16.3163   -6.1631   25.1280 C   0  0  0  0  0  0  0  0  0  0  0  0
   16.3438   -4.8002   25.7511 C   0  0  0  0  0  0  0  0  0  0  0  0
   15.0867   -7.0149   25.2655 C   0  0  0  0  0  0  0  0  0  0  0  0
   20.0835   -3.4603   24.7832 S   0  0  0  0  0  0  0  0  0  0  0  0
   20.0325   -6.4643   23.4245 S   0  0  0  0  0  0  0  0  0  0  0  0
   19.8318   -2.2924   25.4331 H   0  0  0  0  0  0  0  0  0  0  0  0
   21.0374   -5.5479   23.4189 H   0  0  0  0  0  0  0  0  0  0  0  0
  1  2  2  0  0  0
  1  6  1  0  0  0
  2  3  1  0  0  0
  2  8  1  0  0  0
  3  4  2  0  0  0
  3  9  1  0  0  0
  4  5  1  0  0  0
  5  6  2  0  0  0
  5  7  1  0  0  0
  8 10  1  0  0  0
  9 11  1  0  0  0
M  END
> <minimizedAffinity>
-3.14207

$$$$
2Z94_TLD_A_902


 11 11  0  0  0  0  0  0  0  0999 V2000
   16.6139   -2.8505   24.6155 C   0  0  0  0  0  0  0  0  0  0  0  0
   17.3699   -2.9392   23.3320 C   0  0  0  0  0  0  0  0  0  0  0  0
   16.9618   -2.1900   22.2298 C   0  0  0  0  0  0  0  0  0  0  0  0
   15.7685   -1.3097   22.3447 C   0  0  0  0  0  0  0  0  0  0  0  0
   15.0858   -1.2436   23.5262 C   0  0  0  0  0  0  0  0  0  0  0  0
   15.5258   -2.0503   24.7103 C   0  0  0  0  0  0  0  0  0  0  0  0
   13.8760   -0.3605   23.6407 C   0  0  0  0  0  0  0  0  0  0  0  0
   18.8001   -4.0279   23.2661 S   0  0  0  0  0  0  0  0  0  0  0  0
   17.8259   -2.2666   20.6542 S   0  0  0  0  0  0  0  0  0  0  0  0
   18.9672   -4.6305   24.4738 H   0  0  0  0  0  0  0  0  0  0  0  0
   18.8796   -3.1203   20.7561 H   0  0  0  0  0  0  0  0  0  0  0  0
  1  2  2  0  0  0
  1  6  1  0  0  0
  2  3  1  0  0  0
  2  8  1  0  0  0
  3  4  2  0  0  0
  3  9  1  0  0  0
  4  5  1  0  0  0
  5  6  2  0  0  0
  5  7  1  0  0  0
  8 10  1  0  0  0
  9 11  1  0  0  0
M  END
> <minimizedAffinity>
-3.13773

$$$$
2Z94_TLD_A_902


 11 11  0  0  0  0  0  0  0  0999 V2000
   16.2079   -1.9324   22.3589 C   0  0  0  0  0  0  0  0  0  0  0  0
   17.0024   -1.1403   21.3751 C   0  0  0  0  0  0  0  0  0  0  0  0
   17.0879    0.2450   21.5027 C   0  0  0  0  0  0  0  0  0  0  0  0
   16.3787    0.9219   22.6212 C   0  0  0  0  0  0  0  0  0  0  0  0
   15.6526    0.1816   23.5106 C   0  0  0  0  0  0  0  0  0  0  0  0
   15.5613   -1.3080   23.3715 C   0  0  0  0  0  0  0  0  0  0  0  0
   14.9298    0.8653   24.6360 C   0  0  0  0  0  0  0  0  0  0  0  0
   17.8295   -2.0265   20.0462 S   0  0  0  0  0  0  0  0  0  0  0  0
   18.0196    1.2523   20.3399 S   0  0  0  0  0  0  0  0  0  0  0  0
   17.5776   -3.3578   20.1637 H   0  0  0  0  0  0  0  0  0  0  0  0
   18.5889    0.4506   19.4003 H   0  0  0  0  0  0  0  0  0  0  0  0
  1  2  2  0  0  0
  1  6  1  0  0  0
  2  3  1  0  0  0
  2  8  1  0  0  0
  3  4  2  0  0  0
  3  9  1  0  0  0
  4  5  1  0  0  0
  5  6  2  0  0  0
  5  7  1  0  0  0
  8 10  1  0  0  0
  9 11  1  0  0  0
M  END
> <minimizedAffinity>
-3.09565

$$$$
2Z94_TLD_A_902


 11 11  0  0  0  0  0  0  0  0999 V2000
   16.9638    1.1823   23.1136 C   0  0  0  0  0  0  0  0  0  0  0  0
   17.7026    0.1509   22.3280 C   0  0  0  0  0  0  0  0  0  0  0  0
   17.0766   -1.0474   21.9891 C   0  0  0  0  0  0  0  0  0  0  0  0
   15.6736   -1.2875   22.4205 C   0  0  0  0  0  0  0  0  0  0  0  0
   15.0135   -0.3340   23.1425 C   0  0  0  0  0  0  0  0  0  0  0  0
   15.6885    0.9538   23.5066 C   0  0  0  0  0  0  0  0  0  0  0  0
   13.5991   -0.5790   23.5851 C   0  0  0  0  0  0  0  0  0  0  0  0
   19.3977    0.5091   21.8448 S   0  0  0  0  0  0  0  0  0  0  0  0
   17.9214   -2.3317   21.0554 S   0  0  0  0  0  0  0  0  0  0  0  0
   19.7501    1.7393   22.3053 H   0  0  0  0  0  0  0  0  0  0  0  0
   19.1835   -1.9209   20.7591 H   0  0  0  0  0  0  0  0  0  0  0  0
  1  2  2  0  0  0
  1  6  1  0  0  0
  2  3  1  0  0  0
  2  8  1  0  0  0
  3  4  2  0  0  0
  3  9  1  0  0  0
  4  5  1  0  0  0
  5  6  2  0  0  0
  5  7  1  0  0  0
  8 10  1  0  0  0
  9 11  1  0  0  0
M  END
> <minimizedAffinity>
-3.08391

$$$$
