5MKS_TI8_A_401


 36 39  0  0  0  0  0  0  0  0999 V2000
  -20.1028   -9.3003   12.7851 C   0  0  0  0  0  0  0  0  0  0  0  0
  -19.1948   -9.0531   11.7318 C   0  0  0  0  0  0  0  0  0  0  0  0
  -17.9916   -8.4579   12.0702 C   0  0  0  0  0  0  0  0  0  0  0  0
  -21.2883   -9.8856   12.6193 N   0  0  0  0  0  0  0  0  0  0  0  0
  -18.5394   -8.3575   14.2166 C   0  0  0  0  0  0  0  0  0  0  0  0
  -17.2853   -8.3461   10.8916 N   0  0  0  0  0  0  0  0  0  0  0  0
  -18.1146   -8.8566    9.9113 C   0  0  0  0  0  0  0  0  0  0  0  0
  -19.2638   -9.3009   10.3706 N   0  0  0  0  0  0  0  0  0  0  0  0
  -17.6029   -8.0819   13.2995 N   0  0  0  0  0  0  0  0  0  0  0  0
  -19.7381   -8.9309   14.0389 N   0  0  0  0  0  0  0  0  0  0  0  0
  -21.8782  -10.0308   13.3940 H   0  0  0  0  0  0  0  0  0  0  0  0
  -21.5742  -10.1729   11.7222 H   0  0  0  0  0  0  0  0  0  0  0  0
  -15.9072   -7.9144   10.7779 C   0  0  0  0  0  0  0  0  0  0  0  0
  -14.9285   -9.0036   10.3810 C   0  0  0  0  0  0  0  0  0  0  0  0
  -13.7717   -8.1470    9.8772 C   0  0  0  0  0  0  0  0  0  0  0  0
  -14.4971   -6.9939    9.1776 C   0  0  0  0  0  0  0  0  0  0  0  0
  -14.6079   -9.8149   11.5008 O   0  0  0  0  0  0  0  0  0  0  0  0
  -12.9783   -7.6756   10.9560 O   0  0  0  0  0  0  0  0  0  0  0  0
  -15.8189   -6.9397    9.7619 O   0  0  0  0  0  0  0  0  0  0  0  0
  -14.2836   -9.2550   12.2235 H   0  0  0  0  0  0  0  0  0  0  0  0
  -13.5373   -7.1839   11.5778 H   0  0  0  0  0  0  0  0  0  0  0  0
  -14.5900   -7.0716    7.6678 C   0  0  0  0  0  0  0  0  0  0  0  0
  -13.3799   -6.4853    6.9473 C   0  0  0  0  0  0  0  0  0  0  0  0
  -12.3891   -7.5398    6.5315 C   0  0  0  0  0  0  0  0  0  0  0  0
  -10.4247   -7.9238    7.8127 C   0  0  0  0  0  0  0  0  0  0  0  0
  -11.0610   -7.1277    6.9439 O   0  0  0  0  0  0  0  0  0  0  0  0
  -17.8656   -8.8781    8.5985 N   0  0  0  0  0  0  0  0  0  0  0  0
  -17.7616   -8.0284    8.1122 H   0  0  0  0  0  0  0  0  0  0  0  0
  -17.7457  -10.1341    7.8752 C   0  0  0  0  0  0  0  0  0  0  0  0
  -15.4278  -10.6921    7.0374 C   0  0  0  0  0  0  0  0  0  0  0  0
  -16.6410  -10.0472    6.8531 C   0  0  0  0  0  0  0  0  0  0  0  0
  -16.8200   -9.3019    5.7006 C   0  0  0  0  0  0  0  0  0  0  0  0
  -14.4207  -10.6029    6.0941 C   0  0  0  0  0  0  0  0  0  0  0  0
  -14.6356   -9.8595    4.9565 C   0  0  0  0  0  0  0  0  0  0  0  0
  -15.8235   -9.2012    4.7515 C   0  0  0  0  0  0  0  0  0  0  0  0
  -13.3984   -9.7827    3.7351 Cl  0  0  0  0  0  0  0  0  0  0  0  0
 23 24  1  0  0  0
 23 22  1  0  0  0
 19 16  1  0  0  0
 19 13  1  0  0  0
 16 22  1  0  0  0
 16 15  1  0  0  0
 24 26  1  0  0  0
  9  5  2  0  0  0
  9  3  1  0  0  0
 18 15  1  0  0  0
  5 10  1  0  0  0
 13  6  1  0  0  0
 13 14  1  0  0  0
  3  6  1  0  0  0
  3  2  2  0  0  0
  6  7  1  0  0  0
 10  1  2  0  0  0
 15 14  1  0  0  0
  2  1  1  0  0  0
  2  8  1  0  0  0
  1  4  1  0  0  0
  7 27  1  0  0  0
  7  8  2  0  0  0
 26 25  1  0  0  0
 27 29  1  0  0  0
 14 17  1  0  0  0
 29 31  1  0  0  0
 31 32  2  0  0  0
 31 30  1  0  0  0
 32 35  1  0  0  0
 30 33  2  0  0  0
 35 34  2  0  0  0
 33 34  1  0  0  0
 34 36  1  0  0  0
  4 11  1  0  0  0
  4 12  1  0  0  0
 17 20  1  0  0  0
 27 28  1  0  0  0
 18 21  1  0  0  0
M  END
> <minimizedAffinity>
-8.53710

$$$$
5MKS_TI8_A_401


 36 39  0  0  0  0  0  0  0  0999 V2000
  -20.1267   -9.3113   12.8156 C   0  0  0  0  0  0  0  0  0  0  0  0
  -19.2212   -9.0468   11.7643 C   0  0  0  0  0  0  0  0  0  0  0  0
  -18.0187   -8.4540   12.1090 C   0  0  0  0  0  0  0  0  0  0  0  0
  -21.3111   -9.8968   12.6436 N   0  0  0  0  0  0  0  0  0  0  0  0
  -18.5626   -8.3859   14.2576 C   0  0  0  0  0  0  0  0  0  0  0  0
  -17.3150   -8.3235   10.9308 N   0  0  0  0  0  0  0  0  0  0  0  0
  -18.1450   -8.8215    9.9448 C   0  0  0  0  0  0  0  0  0  0  0  0
  -19.2923   -9.2750   10.3998 N   0  0  0  0  0  0  0  0  0  0  0  0
  -17.6285   -8.0950   13.3428 N   0  0  0  0  0  0  0  0  0  0  0  0
  -19.7603   -8.9593   14.0740 N   0  0  0  0  0  0  0  0  0  0  0  0
  -21.8992  -10.0545   13.4173 H   0  0  0  0  0  0  0  0  0  0  0  0
  -21.5983  -10.1717   11.7430 H   0  0  0  0  0  0  0  0  0  0  0  0
  -15.9381   -7.8871   10.8207 C   0  0  0  0  0  0  0  0  0  0  0  0
  -14.9524   -8.9762   10.4410 C   0  0  0  0  0  0  0  0  0  0  0  0
  -13.7963   -8.1200    9.9351 C   0  0  0  0  0  0  0  0  0  0  0  0
  -14.5223   -6.9773    9.2192 C   0  0  0  0  0  0  0  0  0  0  0  0
  -14.6350   -9.7744   11.5711 O   0  0  0  0  0  0  0  0  0  0  0  0
  -13.0112   -7.6340   11.0136 O   0  0  0  0  0  0  0  0  0  0  0  0
  -15.8478   -6.9227    9.7952 O   0  0  0  0  0  0  0  0  0  0  0  0
  -14.3174   -9.2057   12.2898 H   0  0  0  0  0  0  0  0  0  0  0  0
  -13.5760   -7.1383   11.6269 H   0  0  0  0  0  0  0  0  0  0  0  0
  -14.6059   -7.0711    7.7099 C   0  0  0  0  0  0  0  0  0  0  0  0
  -13.3645   -6.5496    6.9927 C   0  0  0  0  0  0  0  0  0  0  0  0
  -12.5531   -7.6528    6.3676 C   0  0  0  0  0  0  0  0  0  0  0  0
  -10.7250   -8.0675    7.8284 C   0  0  0  0  0  0  0  0  0  0  0  0
  -11.1570   -7.4651    6.7130 O   0  0  0  0  0  0  0  0  0  0  0  0
  -17.8986   -8.8234    8.6313 N   0  0  0  0  0  0  0  0  0  0  0  0
  -17.9141   -7.9731    8.1353 H   0  0  0  0  0  0  0  0  0  0  0  0
  -17.6079  -10.0589    7.9214 C   0  0  0  0  0  0  0  0  0  0  0  0
  -19.6086  -10.3626    6.4079 C   0  0  0  0  0  0  0  0  0  0  0  0
  -18.2667  -10.0521    6.5655 C   0  0  0  0  0  0  0  0  0  0  0  0
  -17.5279   -9.7405    5.4373 C   0  0  0  0  0  0  0  0  0  0  0  0
  -20.2015  -10.3558    5.1587 C   0  0  0  0  0  0  0  0  0  0  0  0
  -19.4389  -10.0340    4.0596 C   0  0  0  0  0  0  0  0  0  0  0  0
  -18.1047   -9.7322    4.1840 C   0  0  0  0  0  0  0  0  0  0  0  0
  -20.1835   -9.9676    2.4882 Cl  0  0  0  0  0  0  0  0  0  0  0  0
 23 24  1  0  0  0
 23 22  1  0  0  0
 19 16  1  0  0  0
 19 13  1  0  0  0
 16 22  1  0  0  0
 16 15  1  0  0  0
 24 26  1  0  0  0
  9  5  2  0  0  0
  9  3  1  0  0  0
 18 15  1  0  0  0
  5 10  1  0  0  0
 13  6  1  0  0  0
 13 14  1  0  0  0
  3  6  1  0  0  0
  3  2  2  0  0  0
  6  7  1  0  0  0
 10  1  2  0  0  0
 15 14  1  0  0  0
  2  1  1  0  0  0
  2  8  1  0  0  0
  1  4  1  0  0  0
  7 27  1  0  0  0
  7  8  2  0  0  0
 26 25  1  0  0  0
 27 29  1  0  0  0
 14 17  1  0  0  0
 29 31  1  0  0  0
 31 32  2  0  0  0
 31 30  1  0  0  0
 32 35  1  0  0  0
 30 33  2  0  0  0
 35 34  2  0  0  0
 33 34  1  0  0  0
 34 36  1  0  0  0
  4 11  1  0  0  0
  4 12  1  0  0  0
 17 20  1  0  0  0
 27 28  1  0  0  0
 18 21  1  0  0  0
M  END
> <minimizedAffinity>
-8.42192

$$$$
5MKS_TI8_A_401


 36 39  0  0  0  0  0  0  0  0999 V2000
  -19.4044   -8.7027   13.0567 C   0  0  0  0  0  0  0  0  0  0  0  0
  -18.7100   -8.7279   11.8270 C   0  0  0  0  0  0  0  0  0  0  0  0
  -17.4307   -8.1993   11.8204 C   0  0  0  0  0  0  0  0  0  0  0  0
  -20.6317   -9.1935   13.2248 N   0  0  0  0  0  0  0  0  0  0  0  0
  -17.5355   -7.6783   13.9732 C   0  0  0  0  0  0  0  0  0  0  0  0
  -16.9665   -8.3597   10.5322 N   0  0  0  0  0  0  0  0  0  0  0  0
  -18.0021   -8.9515    9.8349 C   0  0  0  0  0  0  0  0  0  0  0  0
  -19.0618   -9.1995   10.5729 N   0  0  0  0  0  0  0  0  0  0  0  0
  -16.7846   -7.6549   12.8643 N   0  0  0  0  0  0  0  0  0  0  0  0
  -18.7773   -8.1583   14.1300 N   0  0  0  0  0  0  0  0  0  0  0  0
  -21.0639   -9.1465   14.1081 H   0  0  0  0  0  0  0  0  0  0  0  0
  -21.1062   -9.6033   12.4658 H   0  0  0  0  0  0  0  0  0  0  0  0
  -15.6152   -8.0860   10.0880 C   0  0  0  0  0  0  0  0  0  0  0  0
  -14.7362   -9.3120    9.9270 C   0  0  0  0  0  0  0  0  0  0  0  0
  -13.6563   -8.7434    9.0126 C   0  0  0  0  0  0  0  0  0  0  0  0
  -14.4589   -7.8207    8.0906 C   0  0  0  0  0  0  0  0  0  0  0  0
  -14.2586   -9.7497   11.1901 O   0  0  0  0  0  0  0  0  0  0  0  0
  -12.6908   -8.0140    9.7552 O   0  0  0  0  0  0  0  0  0  0  0  0
  -15.6690   -7.4903    8.8103 O   0  0  0  0  0  0  0  0  0  0  0  0
  -13.8111   -9.0152   11.6387 H   0  0  0  0  0  0  0  0  0  0  0  0
  -13.1327   -7.3126   10.2589 H   0  0  0  0  0  0  0  0  0  0  0  0
  -14.7931   -8.3636    6.7167 C   0  0  0  0  0  0  0  0  0  0  0  0
  -13.5799   -8.5138    5.8041 C   0  0  0  0  0  0  0  0  0  0  0  0
  -13.8848   -9.3137    4.5658 C   0  0  0  0  0  0  0  0  0  0  0  0
  -12.7416  -10.6301    2.9508 C   0  0  0  0  0  0  0  0  0  0  0  0
  -12.6622   -9.9337    4.0920 O   0  0  0  0  0  0  0  0  0  0  0  0
  -18.0200   -9.2228    8.5264 N   0  0  0  0  0  0  0  0  0  0  0  0
  -17.6323   -8.5762    7.8933 H   0  0  0  0  0  0  0  0  0  0  0  0
  -18.6017  -10.4562    8.0209 C   0  0  0  0  0  0  0  0  0  0  0  0
  -20.2760  -10.4473    6.1282 C   0  0  0  0  0  0  0  0  0  0  0  0
  -18.9685  -10.3054    6.5665 C   0  0  0  0  0  0  0  0  0  0  0  0
  -17.9882  -10.0284    5.6295 C   0  0  0  0  0  0  0  0  0  0  0  0
  -20.6001  -10.3095    4.7910 C   0  0  0  0  0  0  0  0  0  0  0  0
  -19.6015  -10.0267    3.8878 C   0  0  0  0  0  0  0  0  0  0  0  0
  -18.2957   -9.8908    4.2915 C   0  0  0  0  0  0  0  0  0  0  0  0
  -20.0020   -9.7962    2.2101 Cl  0  0  0  0  0  0  0  0  0  0  0  0
 23 24  1  0  0  0
 23 22  1  0  0  0
 19 16  1  0  0  0
 19 13  1  0  0  0
 16 22  1  0  0  0
 16 15  1  0  0  0
 24 26  1  0  0  0
  9  5  2  0  0  0
  9  3  1  0  0  0
 18 15  1  0  0  0
  5 10  1  0  0  0
 13  6  1  0  0  0
 13 14  1  0  0  0
  3  6  1  0  0  0
  3  2  2  0  0  0
  6  7  1  0  0  0
 10  1  2  0  0  0
 15 14  1  0  0  0
  2  1  1  0  0  0
  2  8  1  0  0  0
  1  4  1  0  0  0
  7 27  1  0  0  0
  7  8  2  0  0  0
 26 25  1  0  0  0
 27 29  1  0  0  0
 14 17  1  0  0  0
 29 31  1  0  0  0
 31 32  2  0  0  0
 31 30  1  0  0  0
 32 35  1  0  0  0
 30 33  2  0  0  0
 35 34  2  0  0  0
 33 34  1  0  0  0
 34 36  1  0  0  0
  4 11  1  0  0  0
  4 12  1  0  0  0
 17 20  1  0  0  0
 27 28  1  0  0  0
 18 21  1  0  0  0
M  END
> <minimizedAffinity>
-7.80494

$$$$
5MKS_TI8_A_401


 36 39  0  0  0  0  0  0  0  0999 V2000
  -17.5733   -7.8245   13.0064 C   0  0  0  0  0  0  0  0  0  0  0  0
  -16.6796   -8.1047   11.9491 C   0  0  0  0  0  0  0  0  0  0  0  0
  -17.1767   -8.8438   10.8895 C   0  0  0  0  0  0  0  0  0  0  0  0
  -17.2480   -7.1072   14.0811 N   0  0  0  0  0  0  0  0  0  0  0  0
  -19.1796   -9.0116   11.8262 C   0  0  0  0  0  0  0  0  0  0  0  0
  -16.1351   -8.9607    9.9940 N   0  0  0  0  0  0  0  0  0  0  0  0
  -15.0670   -8.3077   10.5787 C   0  0  0  0  0  0  0  0  0  0  0  0
  -15.3507   -7.7711   11.7452 N   0  0  0  0  0  0  0  0  0  0  0  0
  -18.4223   -9.3309   10.7686 N   0  0  0  0  0  0  0  0  0  0  0  0
  -18.8393   -8.3040   12.9128 N   0  0  0  0  0  0  0  0  0  0  0  0
  -17.9162   -6.9458   14.7860 H   0  0  0  0  0  0  0  0  0  0  0  0
  -16.3395   -6.7386   14.1704 H   0  0  0  0  0  0  0  0  0  0  0  0
  -16.2318   -9.5296    8.6653 C   0  0  0  0  0  0  0  0  0  0  0  0
  -16.8350   -8.6099    7.6203 C   0  0  0  0  0  0  0  0  0  0  0  0
  -16.3258   -9.2844    6.3508 C   0  0  0  0  0  0  0  0  0  0  0  0
  -14.9199   -9.7342    6.7590 C   0  0  0  0  0  0  0  0  0  0  0  0
  -18.2493   -8.5840    7.7389 O   0  0  0  0  0  0  0  0  0  0  0  0
  -17.1391  -10.3944    6.0014 O   0  0  0  0  0  0  0  0  0  0  0  0
  -14.9325   -9.8255    8.2022 O   0  0  0  0  0  0  0  0  0  0  0  0
  -18.5941   -9.4896    7.6953 H   0  0  0  0  0  0  0  0  0  0  0  0
  -17.1718  -11.0177    6.7439 H   0  0  0  0  0  0  0  0  0  0  0  0
  -13.7711   -8.8632    6.2948 C   0  0  0  0  0  0  0  0  0  0  0  0
  -12.4135   -9.2963    6.8393 C   0  0  0  0  0  0  0  0  0  0  0  0
  -11.3814   -8.2038    6.7518 C   0  0  0  0  0  0  0  0  0  0  0  0
   -9.3636   -7.6802    7.8929 C   0  0  0  0  0  0  0  0  0  0  0  0
  -10.1751   -8.6393    7.4291 O   0  0  0  0  0  0  0  0  0  0  0  0
  -13.8238   -8.2355   10.0939 N   0  0  0  0  0  0  0  0  0  0  0  0
  -13.6831   -8.2529    9.1196 H   0  0  0  0  0  0  0  0  0  0  0  0
  -12.6749   -8.1318   10.9795 C   0  0  0  0  0  0  0  0  0  0  0  0
  -10.3628   -9.1508   11.0193 C   0  0  0  0  0  0  0  0  0  0  0  0
  -11.7128   -9.2641   10.7252 C   0  0  0  0  0  0  0  0  0  0  0  0
  -12.1678  -10.4503   10.1759 C   0  0  0  0  0  0  0  0  0  0  0  0
   -9.4891  -10.1953   10.7791 C   0  0  0  0  0  0  0  0  0  0  0  0
   -9.9770  -11.3628   10.2390 C   0  0  0  0  0  0  0  0  0  0  0  0
  -11.3078  -11.5003    9.9279 C   0  0  0  0  0  0  0  0  0  0  0  0
   -8.9000  -12.7053    9.9821 Cl  0  0  0  0  0  0  0  0  0  0  0  0
 23 24  1  0  0  0
 23 22  1  0  0  0
 19 16  1  0  0  0
 19 13  1  0  0  0
 16 22  1  0  0  0
 16 15  1  0  0  0
 24 26  1  0  0  0
  9  5  2  0  0  0
  9  3  1  0  0  0
 18 15  1  0  0  0
  5 10  1  0  0  0
 13  6  1  0  0  0
 13 14  1  0  0  0
  3  6  1  0  0  0
  3  2  2  0  0  0
  6  7  1  0  0  0
 10  1  2  0  0  0
 15 14  1  0  0  0
  2  1  1  0  0  0
  2  8  1  0  0  0
  1  4  1  0  0  0
  7 27  1  0  0  0
  7  8  2  0  0  0
 26 25  1  0  0  0
 27 29  1  0  0  0
 14 17  1  0  0  0
 29 31  1  0  0  0
 31 32  2  0  0  0
 31 30  1  0  0  0
 32 35  1  0  0  0
 30 33  2  0  0  0
 35 34  2  0  0  0
 33 34  1  0  0  0
 34 36  1  0  0  0
  4 11  1  0  0  0
  4 12  1  0  0  0
 17 20  1  0  0  0
 27 28  1  0  0  0
 18 21  1  0  0  0
M  END
> <minimizedAffinity>
-7.61007

$$$$
5MKS_TI8_A_401


 36 39  0  0  0  0  0  0  0  0999 V2000
  -15.6726   -6.9706    9.9150 C   0  0  0  0  0  0  0  0  0  0  0  0
  -16.1189   -7.8186    8.8773 C   0  0  0  0  0  0  0  0  0  0  0  0
  -16.7870   -8.9706    9.2550 C   0  0  0  0  0  0  0  0  0  0  0  0
  -15.0361   -5.8184    9.7082 N   0  0  0  0  0  0  0  0  0  0  0  0
  -16.5752   -8.4969   11.4109 C   0  0  0  0  0  0  0  0  0  0  0  0
  -17.1327   -9.6045    8.0806 N   0  0  0  0  0  0  0  0  0  0  0  0
  -16.6305   -8.8101    7.0677 C   0  0  0  0  0  0  0  0  0  0  0  0
  -16.0250   -7.7252    7.4984 N   0  0  0  0  0  0  0  0  0  0  0  0
  -17.0462   -9.3699   10.5108 N   0  0  0  0  0  0  0  0  0  0  0  0
  -15.9196   -7.3477   11.1950 N   0  0  0  0  0  0  0  0  0  0  0  0
  -14.7494   -5.2701   10.4740 H   0  0  0  0  0  0  0  0  0  0  0  0
  -14.8526   -5.5154    8.7897 H   0  0  0  0  0  0  0  0  0  0  0  0
  -17.9758  -10.7779    7.9781 C   0  0  0  0  0  0  0  0  0  0  0  0
  -19.4614  -10.5111    8.1311 C   0  0  0  0  0  0  0  0  0  0  0  0
  -20.0233  -11.7735    7.4857 C   0  0  0  0  0  0  0  0  0  0  0  0
  -19.0490  -12.0124    6.3285 C   0  0  0  0  0  0  0  0  0  0  0  0
  -19.7996  -10.3576    9.5011 O   0  0  0  0  0  0  0  0  0  0  0  0
  -20.0134  -12.8609    8.3983 O   0  0  0  0  0  0  0  0  0  0  0  0
  -17.8235  -11.3357    6.6913 O   0  0  0  0  0  0  0  0  0  0  0  0
  -19.4980  -11.1343    9.9977 H   0  0  0  0  0  0  0  0  0  0  0  0
  -19.1105  -13.0022    8.7232 H   0  0  0  0  0  0  0  0  0  0  0  0
  -19.5100  -11.5698    4.9553 C   0  0  0  0  0  0  0  0  0  0  0  0
  -18.4764  -11.7993    3.8571 C   0  0  0  0  0  0  0  0  0  0  0  0
  -18.7359  -10.9585    2.6356 C   0  0  0  0  0  0  0  0  0  0  0  0
  -17.8279  -12.9244    1.6565 C   0  0  0  0  0  0  0  0  0  0  0  0
  -18.3755  -11.7191    1.4544 O   0  0  0  0  0  0  0  0  0  0  0  0
  -16.6676   -9.0807    5.7595 N   0  0  0  0  0  0  0  0  0  0  0  0
  -17.4115   -9.6142    5.3971 H   0  0  0  0  0  0  0  0  0  0  0  0
  -15.6290   -8.6013    4.8616 C   0  0  0  0  0  0  0  0  0  0  0  0
  -14.8360  -10.9952    4.6990 C   0  0  0  0  0  0  0  0  0  0  0  0
  -14.5465   -9.6395    4.7101 C   0  0  0  0  0  0  0  0  0  0  0  0
  -13.2241   -9.2494    4.5878 C   0  0  0  0  0  0  0  0  0  0  0  0
  -13.8343  -11.9386    4.5622 C   0  0  0  0  0  0  0  0  0  0  0  0
  -12.5314  -11.5151    4.4354 C   0  0  0  0  0  0  0  0  0  0  0  0
  -12.2133  -10.1790    4.4534 C   0  0  0  0  0  0  0  0  0  0  0  0
  -11.2662  -12.6880    4.2074 Cl  0  0  0  0  0  0  0  0  0  0  0  0
 23 24  1  0  0  0
 23 22  1  0  0  0
 19 16  1  0  0  0
 19 13  1  0  0  0
 16 22  1  0  0  0
 16 15  1  0  0  0
 24 26  1  0  0  0
  9  5  2  0  0  0
  9  3  1  0  0  0
 18 15  1  0  0  0
  5 10  1  0  0  0
 13  6  1  0  0  0
 13 14  1  0  0  0
  3  6  1  0  0  0
  3  2  2  0  0  0
  6  7  1  0  0  0
 10  1  2  0  0  0
 15 14  1  0  0  0
  2  1  1  0  0  0
  2  8  1  0  0  0
  1  4  1  0  0  0
  7 27  1  0  0  0
  7  8  2  0  0  0
 26 25  1  0  0  0
 27 29  1  0  0  0
 14 17  1  0  0  0
 29 31  1  0  0  0
 31 32  2  0  0  0
 31 30  1  0  0  0
 32 35  1  0  0  0
 30 33  2  0  0  0
 35 34  2  0  0  0
 33 34  1  0  0  0
 34 36  1  0  0  0
  4 11  1  0  0  0
  4 12  1  0  0  0
 17 20  1  0  0  0
 27 28  1  0  0  0
 18 21  1  0  0  0
M  END
> <minimizedAffinity>
-7.12245

$$$$
5MKS_TI8_A_401


 36 39  0  0  0  0  0  0  0  0999 V2000
  -17.6432   -8.1118   12.7532 C   0  0  0  0  0  0  0  0  0  0  0  0
  -16.6169   -8.0577   11.7843 C   0  0  0  0  0  0  0  0  0  0  0  0
  -16.9467   -8.4581   10.5010 C   0  0  0  0  0  0  0  0  0  0  0  0
  -17.4845   -7.7387   14.0224 N   0  0  0  0  0  0  0  0  0  0  0  0
  -19.0364   -8.9183   11.0826 C   0  0  0  0  0  0  0  0  0  0  0  0
  -15.8010   -8.2938    9.7520 N   0  0  0  0  0  0  0  0  0  0  0  0
  -14.8441   -7.8289   10.6336 C   0  0  0  0  0  0  0  0  0  0  0  0
  -15.2912   -7.6628   11.8590 N   0  0  0  0  0  0  0  0  0  0  0  0
  -18.1434   -8.9031   10.0845 N   0  0  0  0  0  0  0  0  0  0  0  0
  -18.8638   -8.5578   12.3623 N   0  0  0  0  0  0  0  0  0  0  0  0
  -18.2392   -7.8000   14.6516 H   0  0  0  0  0  0  0  0  0  0  0  0
  -16.6125   -7.4018   14.3311 H   0  0  0  0  0  0  0  0  0  0  0  0
  -15.7101   -8.4475    8.3145 C   0  0  0  0  0  0  0  0  0  0  0  0
  -14.9905   -7.3209    7.5969 C   0  0  0  0  0  0  0  0  0  0  0  0
  -14.6434   -8.0221    6.2879 C   0  0  0  0  0  0  0  0  0  0  0  0
  -14.3034   -9.4404    6.7549 C   0  0  0  0  0  0  0  0  0  0  0  0
  -15.8483   -6.1998    7.4475 O   0  0  0  0  0  0  0  0  0  0  0  0
  -15.7522   -8.0252    5.4011 O   0  0  0  0  0  0  0  0  0  0  0  0
  -14.9670   -9.6120    8.0283 O   0  0  0  0  0  0  0  0  0  0  0  0
  -16.6656   -6.4750    7.0034 H   0  0  0  0  0  0  0  0  0  0  0  0
  -16.5121   -8.4435    5.8352 H   0  0  0  0  0  0  0  0  0  0  0  0
  -12.8316   -9.7763    6.8770 C   0  0  0  0  0  0  0  0  0  0  0  0
  -12.3820  -10.9084    5.9586 C   0  0  0  0  0  0  0  0  0  0  0  0
  -13.4941  -11.4138    5.0787 C   0  0  0  0  0  0  0  0  0  0  0  0
  -13.1113  -12.1851    2.8636 C   0  0  0  0  0  0  0  0  0  0  0  0
  -13.1633  -11.1358    3.6941 O   0  0  0  0  0  0  0  0  0  0  0  0
  -13.5568   -7.6022   10.3548 N   0  0  0  0  0  0  0  0  0  0  0  0
  -13.3142   -7.1857    9.4964 H   0  0  0  0  0  0  0  0  0  0  0  0
  -12.5081   -7.9599   11.2967 C   0  0  0  0  0  0  0  0  0  0  0  0
  -12.2022  -10.3248   10.4603 C   0  0  0  0  0  0  0  0  0  0  0  0
  -11.6638   -9.0786   10.7415 C   0  0  0  0  0  0  0  0  0  0  0  0
  -10.3140   -8.8790   10.5095 C   0  0  0  0  0  0  0  0  0  0  0  0
  -11.4174  -11.3444    9.9538 C   0  0  0  0  0  0  0  0  0  0  0  0
  -10.0808  -11.1087    9.7283 C   0  0  0  0  0  0  0  0  0  0  0  0
   -9.5174   -9.8874   10.0071 C   0  0  0  0  0  0  0  0  0  0  0  0
   -9.0922  -12.3646    9.0400 Cl  0  0  0  0  0  0  0  0  0  0  0  0
 23 24  1  0  0  0
 23 22  1  0  0  0
 19 16  1  0  0  0
 19 13  1  0  0  0
 16 22  1  0  0  0
 16 15  1  0  0  0
 24 26  1  0  0  0
  9  5  2  0  0  0
  9  3  1  0  0  0
 18 15  1  0  0  0
  5 10  1  0  0  0
 13  6  1  0  0  0
 13 14  1  0  0  0
  3  6  1  0  0  0
  3  2  2  0  0  0
  6  7  1  0  0  0
 10  1  2  0  0  0
 15 14  1  0  0  0
  2  1  1  0  0  0
  2  8  1  0  0  0
  1  4  1  0  0  0
  7 27  1  0  0  0
  7  8  2  0  0  0
 26 25  1  0  0  0
 27 29  1  0  0  0
 14 17  1  0  0  0
 29 31  1  0  0  0
 31 32  2  0  0  0
 31 30  1  0  0  0
 32 35  1  0  0  0
 30 33  2  0  0  0
 35 34  2  0  0  0
 33 34  1  0  0  0
 34 36  1  0  0  0
  4 11  1  0  0  0
  4 12  1  0  0  0
 17 20  1  0  0  0
 27 28  1  0  0  0
 18 21  1  0  0  0
M  END
> <minimizedAffinity>
-7.11159

$$$$
5MKS_TI8_A_401


 36 39  0  0  0  0  0  0  0  0999 V2000
  -18.2604   -8.8846   11.2730 C   0  0  0  0  0  0  0  0  0  0  0  0
  -17.1285   -8.9673   10.4321 C   0  0  0  0  0  0  0  0  0  0  0  0
  -15.9635   -8.3778   10.8920 C   0  0  0  0  0  0  0  0  0  0  0  0
  -19.4435   -9.4218   10.9779 N   0  0  0  0  0  0  0  0  0  0  0  0
  -16.9362   -7.7028   12.7670 C   0  0  0  0  0  0  0  0  0  0  0  0
  -15.0166   -8.6111    9.9177 N   0  0  0  0  0  0  0  0  0  0  0  0
  -15.6736   -9.3042    8.9191 C   0  0  0  0  0  0  0  0  0  0  0  0
  -16.9371   -9.5485    9.1894 N   0  0  0  0  0  0  0  0  0  0  0  0
  -15.8022   -7.7252   12.0546 N   0  0  0  0  0  0  0  0  0  0  0  0
  -18.1283   -8.2308   12.4547 N   0  0  0  0  0  0  0  0  0  0  0  0
  -20.1961   -9.3302   11.6059 H   0  0  0  0  0  0  0  0  0  0  0  0
  -19.5650   -9.9104   10.1318 H   0  0  0  0  0  0  0  0  0  0  0  0
  -13.6053   -8.3046   10.0299 C   0  0  0  0  0  0  0  0  0  0  0  0
  -12.7286   -9.4752   10.4334 C   0  0  0  0  0  0  0  0  0  0  0  0
  -11.3711   -8.9606    9.9663 C   0  0  0  0  0  0  0  0  0  0  0  0
  -11.7254   -8.2317    8.6669 C   0  0  0  0  0  0  0  0  0  0  0  0
  -12.8158   -9.7017   11.8320 O   0  0  0  0  0  0  0  0  0  0  0  0
  -10.8081   -8.0700   10.9179 O   0  0  0  0  0  0  0  0  0  0  0  0
  -13.1279   -7.8936    8.7676 O   0  0  0  0  0  0  0  0  0  0  0  0
  -12.6017   -8.8830   12.3061 H   0  0  0  0  0  0  0  0  0  0  0  0
  -11.4253   -7.3399   11.0821 H   0  0  0  0  0  0  0  0  0  0  0  0
  -11.4535   -8.9789    7.3779 C   0  0  0  0  0  0  0  0  0  0  0  0
  -11.8268   -8.1952    6.1234 C   0  0  0  0  0  0  0  0  0  0  0  0
  -12.2325   -9.0904    4.9831 C   0  0  0  0  0  0  0  0  0  0  0  0
  -11.7080  -11.2614    4.1711 C   0  0  0  0  0  0  0  0  0  0  0  0
  -11.3302  -10.2246    4.9299 O   0  0  0  0  0  0  0  0  0  0  0  0
  -15.1577   -9.6734    7.7429 N   0  0  0  0  0  0  0  0  0  0  0  0
  -14.4937  -10.3997    7.7128 H   0  0  0  0  0  0  0  0  0  0  0  0
  -15.5594   -9.0215    6.5065 C   0  0  0  0  0  0  0  0  0  0  0  0
  -15.6159  -11.1983    5.2242 C   0  0  0  0  0  0  0  0  0  0  0  0
  -16.2303  -10.0096    5.5867 C   0  0  0  0  0  0  0  0  0  0  0  0
  -17.4864   -9.7366    5.0734 C   0  0  0  0  0  0  0  0  0  0  0  0
  -16.2399  -12.0959    4.3775 C   0  0  0  0  0  0  0  0  0  0  0  0
  -17.4917  -11.7957    3.8917 C   0  0  0  0  0  0  0  0  0  0  0  0
  -18.1206  -10.6210    4.2253 C   0  0  0  0  0  0  0  0  0  0  0  0
  -18.3126  -12.9399    2.8694 Cl  0  0  0  0  0  0  0  0  0  0  0  0
 23 24  1  0  0  0
 23 22  1  0  0  0
 19 16  1  0  0  0
 19 13  1  0  0  0
 16 22  1  0  0  0
 16 15  1  0  0  0
 24 26  1  0  0  0
  9  5  2  0  0  0
  9  3  1  0  0  0
 18 15  1  0  0  0
  5 10  1  0  0  0
 13  6  1  0  0  0
 13 14  1  0  0  0
  3  6  1  0  0  0
  3  2  2  0  0  0
  6  7  1  0  0  0
 10  1  2  0  0  0
 15 14  1  0  0  0
  2  1  1  0  0  0
  2  8  1  0  0  0
  1  4  1  0  0  0
  7 27  1  0  0  0
  7  8  2  0  0  0
 26 25  1  0  0  0
 27 29  1  0  0  0
 14 17  1  0  0  0
 29 31  1  0  0  0
 31 32  2  0  0  0
 31 30  1  0  0  0
 32 35  1  0  0  0
 30 33  2  0  0  0
 35 34  2  0  0  0
 33 34  1  0  0  0
 34 36  1  0  0  0
  4 11  1  0  0  0
  4 12  1  0  0  0
 17 20  1  0  0  0
 27 28  1  0  0  0
 18 21  1  0  0  0
M  END
> <minimizedAffinity>
-7.02695

$$$$
5MKS_TI8_A_401


 36 39  0  0  0  0  0  0  0  0999 V2000
  -19.4325   -8.6540   13.1982 C   0  0  0  0  0  0  0  0  0  0  0  0
  -18.3460   -8.5749   12.2990 C   0  0  0  0  0  0  0  0  0  0  0  0
  -18.5466   -9.0882   11.0292 C   0  0  0  0  0  0  0  0  0  0  0  0
  -19.3986   -8.1838   14.4444 N   0  0  0  0  0  0  0  0  0  0  0  0
  -20.6278   -9.6905   11.5014 C   0  0  0  0  0  0  0  0  0  0  0  0
  -17.3669   -8.8743   10.3488 N   0  0  0  0  0  0  0  0  0  0  0  0
  -16.5189   -8.2688   11.2562 C   0  0  0  0  0  0  0  0  0  0  0  0
  -17.0668   -8.0607   12.4333 N   0  0  0  0  0  0  0  0  0  0  0  0
  -19.6685   -9.6639   10.5670 N   0  0  0  0  0  0  0  0  0  0  0  0
  -20.5799   -9.2310   12.7598 N   0  0  0  0  0  0  0  0  0  0  0  0
  -20.1897   -8.2689   15.0242 H   0  0  0  0  0  0  0  0  0  0  0  0
  -18.5825   -7.7514   14.7854 H   0  0  0  0  0  0  0  0  0  0  0  0
  -17.1585   -9.1158    8.9358 C   0  0  0  0  0  0  0  0  0  0  0  0
  -16.6759  -10.5125    8.5919 C   0  0  0  0  0  0  0  0  0  0  0  0
  -17.0521  -10.5646    7.1149 C   0  0  0  0  0  0  0  0  0  0  0  0
  -18.3843   -9.8095    7.0883 C   0  0  0  0  0  0  0  0  0  0  0  0
  -15.2839  -10.6325    8.8429 O   0  0  0  0  0  0  0  0  0  0  0  0
  -16.0760   -9.9126    6.3164 O   0  0  0  0  0  0  0  0  0  0  0  0
  -18.3893   -8.9659    8.2630 O   0  0  0  0  0  0  0  0  0  0  0  0
  -14.8079   -9.9355    8.3649 H   0  0  0  0  0  0  0  0  0  0  0  0
  -15.9673   -8.9981    6.6212 H   0  0  0  0  0  0  0  0  0  0  0  0
  -19.6393  -10.6560    7.0407 C   0  0  0  0  0  0  0  0  0  0  0  0
  -20.4337  -10.5040    5.7473 C   0  0  0  0  0  0  0  0  0  0  0  0
  -19.6881  -11.0246    4.5476 C   0  0  0  0  0  0  0  0  0  0  0  0
  -20.5077   -9.2775    3.1607 C   0  0  0  0  0  0  0  0  0  0  0  0
  -19.4362   -9.9255    3.6354 O   0  0  0  0  0  0  0  0  0  0  0  0
  -15.2380   -7.9489   11.0486 N   0  0  0  0  0  0  0  0  0  0  0  0
  -14.5301   -8.5094   11.4410 H   0  0  0  0  0  0  0  0  0  0  0  0
  -14.8712   -6.7877   10.2536 C   0  0  0  0  0  0  0  0  0  0  0  0
  -13.0118   -8.0553    9.1038 C   0  0  0  0  0  0  0  0  0  0  0  0
  -14.1103   -7.2134    9.0237 C   0  0  0  0  0  0  0  0  0  0  0  0
  -14.4968   -6.7550    7.7762 C   0  0  0  0  0  0  0  0  0  0  0  0
  -12.3199   -8.4368    7.9690 C   0  0  0  0  0  0  0  0  0  0  0  0
  -12.7363   -7.9682    6.7442 C   0  0  0  0  0  0  0  0  0  0  0  0
  -13.8148   -7.1247    6.6352 C   0  0  0  0  0  0  0  0  0  0  0  0
  -11.9096   -8.4832    5.3021 Cl  0  0  0  0  0  0  0  0  0  0  0  0
 23 24  1  0  0  0
 23 22  1  0  0  0
 19 16  1  0  0  0
 19 13  1  0  0  0
 16 22  1  0  0  0
 16 15  1  0  0  0
 24 26  1  0  0  0
  9  5  2  0  0  0
  9  3  1  0  0  0
 18 15  1  0  0  0
  5 10  1  0  0  0
 13  6  1  0  0  0
 13 14  1  0  0  0
  3  6  1  0  0  0
  3  2  2  0  0  0
  6  7  1  0  0  0
 10  1  2  0  0  0
 15 14  1  0  0  0
  2  1  1  0  0  0
  2  8  1  0  0  0
  1  4  1  0  0  0
  7 27  1  0  0  0
  7  8  2  0  0  0
 26 25  1  0  0  0
 27 29  1  0  0  0
 14 17  1  0  0  0
 29 31  1  0  0  0
 31 32  2  0  0  0
 31 30  1  0  0  0
 32 35  1  0  0  0
 30 33  2  0  0  0
 35 34  2  0  0  0
 33 34  1  0  0  0
 34 36  1  0  0  0
  4 11  1  0  0  0
  4 12  1  0  0  0
 17 20  1  0  0  0
 27 28  1  0  0  0
 18 21  1  0  0  0
M  END
> <minimizedAffinity>
-6.94390

$$$$
5MKS_TI8_A_401


 36 39  0  0  0  0  0  0  0  0999 V2000
  -19.2699  -11.1227    2.8204 C   0  0  0  0  0  0  0  0  0  0  0  0
  -18.4809  -10.6008    3.8693 C   0  0  0  0  0  0  0  0  0  0  0  0
  -19.1435  -10.2378    5.0292 C   0  0  0  0  0  0  0  0  0  0  0  0
  -18.7738  -11.5355    1.6548 N   0  0  0  0  0  0  0  0  0  0  0  0
  -21.1135  -10.8234    4.1966 C   0  0  0  0  0  0  0  0  0  0  0  0
  -18.1673   -9.7872    5.8920 N   0  0  0  0  0  0  0  0  0  0  0  0
  -16.9799   -9.8818    5.1919 C   0  0  0  0  0  0  0  0  0  0  0  0
  -17.1189  -10.3737    3.9804 N   0  0  0  0  0  0  0  0  0  0  0  0
  -20.4645  -10.3224    5.2557 N   0  0  0  0  0  0  0  0  0  0  0  0
  -20.6088  -11.2201    3.0197 N   0  0  0  0  0  0  0  0  0  0  0  0
  -19.3760  -11.8903    0.9614 H   0  0  0  0  0  0  0  0  0  0  0  0
  -17.8050  -11.4857    1.4868 H   0  0  0  0  0  0  0  0  0  0  0  0
  -18.3737   -9.4387    7.2828 C   0  0  0  0  0  0  0  0  0  0  0  0
  -18.4540  -10.6202    8.2311 C   0  0  0  0  0  0  0  0  0  0  0  0
  -18.1588   -9.9178    9.5522 C   0  0  0  0  0  0  0  0  0  0  0  0
  -17.1020   -8.8862    9.1468 C   0  0  0  0  0  0  0  0  0  0  0  0
  -19.7378  -11.2225    8.1660 O   0  0  0  0  0  0  0  0  0  0  0  0
  -19.3222   -9.2868   10.0658 O   0  0  0  0  0  0  0  0  0  0  0  0
  -17.2754   -8.6728    7.7270 O   0  0  0  0  0  0  0  0  0  0  0  0
  -20.4184  -10.5519    8.3330 H   0  0  0  0  0  0  0  0  0  0  0  0
  -19.6716   -8.6670    9.4065 H   0  0  0  0  0  0  0  0  0  0  0  0
  -15.6616   -9.2379    9.4559 C   0  0  0  0  0  0  0  0  0  0  0  0
  -15.0645   -8.4284   10.6028 C   0  0  0  0  0  0  0  0  0  0  0  0
  -16.0825   -7.5509   11.2810 C   0  0  0  0  0  0  0  0  0  0  0  0
  -17.7398   -7.9382   12.9397 C   0  0  0  0  0  0  0  0  0  0  0  0
  -16.4883   -8.1748   12.5259 O   0  0  0  0  0  0  0  0  0  0  0  0
  -15.7782   -9.4801    5.6169 N   0  0  0  0  0  0  0  0  0  0  0  0
  -15.6029   -9.4188    6.5837 H   0  0  0  0  0  0  0  0  0  0  0  0
  -14.7247   -9.1318    4.6767 C   0  0  0  0  0  0  0  0  0  0  0  0
  -12.2116   -8.9591    4.8781 C   0  0  0  0  0  0  0  0  0  0  0  0
  -13.4705   -8.7403    5.4159 C   0  0  0  0  0  0  0  0  0  0  0  0
  -13.5574   -8.1560    6.6676 C   0  0  0  0  0  0  0  0  0  0  0  0
  -11.0681   -8.5982    5.5667 C   0  0  0  0  0  0  0  0  0  0  0  0
  -11.1917   -8.0127    6.8056 C   0  0  0  0  0  0  0  0  0  0  0  0
  -12.4254   -7.7930    7.3680 C   0  0  0  0  0  0  0  0  0  0  0  0
   -9.7640   -7.5031    7.6602 Cl  0  0  0  0  0  0  0  0  0  0  0  0
 23 24  1  0  0  0
 23 22  1  0  0  0
 19 16  1  0  0  0
 19 13  1  0  0  0
 16 22  1  0  0  0
 16 15  1  0  0  0
 24 26  1  0  0  0
  9  5  2  0  0  0
  9  3  1  0  0  0
 18 15  1  0  0  0
  5 10  1  0  0  0
 13  6  1  0  0  0
 13 14  1  0  0  0
  3  6  1  0  0  0
  3  2  2  0  0  0
  6  7  1  0  0  0
 10  1  2  0  0  0
 15 14  1  0  0  0
  2  1  1  0  0  0
  2  8  1  0  0  0
  1  4  1  0  0  0
  7 27  1  0  0  0
  7  8  2  0  0  0
 26 25  1  0  0  0
 27 29  1  0  0  0
 14 17  1  0  0  0
 29 31  1  0  0  0
 31 32  2  0  0  0
 31 30  1  0  0  0
 32 35  1  0  0  0
 30 33  2  0  0  0
 35 34  2  0  0  0
 33 34  1  0  0  0
 34 36  1  0  0  0
  4 11  1  0  0  0
  4 12  1  0  0  0
 17 20  1  0  0  0
 27 28  1  0  0  0
 18 21  1  0  0  0
M  END
> <minimizedAffinity>
-6.89931

$$$$
5MKS_TI8_A_401


 36 39  0  0  0  0  0  0  0  0999 V2000
  -11.6229   -8.1375    6.5661 C   0  0  0  0  0  0  0  0  0  0  0  0
  -13.0165   -8.3676    6.5705 C   0  0  0  0  0  0  0  0  0  0  0  0
  -13.5588   -8.9432    5.4344 C   0  0  0  0  0  0  0  0  0  0  0  0
  -10.9553   -7.6125    7.5927 N   0  0  0  0  0  0  0  0  0  0  0  0
  -11.5864   -9.0296    4.4248 C   0  0  0  0  0  0  0  0  0  0  0  0
  -14.9059   -9.0821    5.6923 N   0  0  0  0  0  0  0  0  0  0  0  0
  -15.0982   -8.5593    6.9567 C   0  0  0  0  0  0  0  0  0  0  0  0
  -13.9925   -8.1295    7.5241 N   0  0  0  0  0  0  0  0  0  0  0  0
  -12.8948   -9.2969    4.3219 N   0  0  0  0  0  0  0  0  0  0  0  0
  -10.9247   -8.4844    5.4553 N   0  0  0  0  0  0  0  0  0  0  0  0
   -9.9823   -7.4762    7.5292 H   0  0  0  0  0  0  0  0  0  0  0  0
  -11.4350   -7.3609    8.4148 H   0  0  0  0  0  0  0  0  0  0  0  0
  -15.8548   -9.7738    4.8441 C   0  0  0  0  0  0  0  0  0  0  0  0
  -16.0433  -11.2445    5.1653 C   0  0  0  0  0  0  0  0  0  0  0  0
  -17.3866  -11.4920    4.4869 C   0  0  0  0  0  0  0  0  0  0  0  0
  -18.1394  -10.1872    4.7632 C   0  0  0  0  0  0  0  0  0  0  0  0
  -14.9726  -12.0099    4.6336 O   0  0  0  0  0  0  0  0  0  0  0  0
  -17.2226  -11.7052    3.0929 O   0  0  0  0  0  0  0  0  0  0  0  0
  -17.1261   -9.1856    5.0109 O   0  0  0  0  0  0  0  0  0  0  0  0
  -14.8903  -11.8341    3.6832 H   0  0  0  0  0  0  0  0  0  0  0  0
  -16.7637  -10.9455    2.7014 H   0  0  0  0  0  0  0  0  0  0  0  0
  -19.1436  -10.2142    5.8967 C   0  0  0  0  0  0  0  0  0  0  0  0
  -20.5919  -10.3291    5.4312 C   0  0  0  0  0  0  0  0  0  0  0  0
  -20.7765   -9.8848    4.0047 C   0  0  0  0  0  0  0  0  0  0  0  0
  -22.4389  -11.3628    3.1682 C   0  0  0  0  0  0  0  0  0  0  0  0
  -21.1413  -11.0328    3.1968 O   0  0  0  0  0  0  0  0  0  0  0  0
  -16.2701   -8.4184    7.5835 N   0  0  0  0  0  0  0  0  0  0  0  0
  -16.7659   -7.5723    7.4970 H   0  0  0  0  0  0  0  0  0  0  0  0
  -16.8261   -9.4926    8.3910 C   0  0  0  0  0  0  0  0  0  0  0  0
  -16.0725   -8.3963   10.5396 C   0  0  0  0  0  0  0  0  0  0  0  0
  -17.0679   -9.0173    9.8010 C   0  0  0  0  0  0  0  0  0  0  0  0
  -18.3046   -9.2055   10.3936 C   0  0  0  0  0  0  0  0  0  0  0  0
  -16.3051   -7.9671   11.8333 C   0  0  0  0  0  0  0  0  0  0  0  0
  -17.5485   -8.1637   12.3884 C   0  0  0  0  0  0  0  0  0  0  0  0
  -18.5510   -8.7851   11.6844 C   0  0  0  0  0  0  0  0  0  0  0  0
  -17.8730   -7.5799   13.9953 Cl  0  0  0  0  0  0  0  0  0  0  0  0
 23 24  1  0  0  0
 23 22  1  0  0  0
 19 16  1  0  0  0
 19 13  1  0  0  0
 16 22  1  0  0  0
 16 15  1  0  0  0
 24 26  1  0  0  0
  9  5  2  0  0  0
  9  3  1  0  0  0
 18 15  1  0  0  0
  5 10  1  0  0  0
 13  6  1  0  0  0
 13 14  1  0  0  0
  3  6  1  0  0  0
  3  2  2  0  0  0
  6  7  1  0  0  0
 10  1  2  0  0  0
 15 14  1  0  0  0
  2  1  1  0  0  0
  2  8  1  0  0  0
  1  4  1  0  0  0
  7 27  1  0  0  0
  7  8  2  0  0  0
 26 25  1  0  0  0
 27 29  1  0  0  0
 14 17  1  0  0  0
 29 31  1  0  0  0
 31 32  2  0  0  0
 31 30  1  0  0  0
 32 35  1  0  0  0
 30 33  2  0  0  0
 35 34  2  0  0  0
 33 34  1  0  0  0
 34 36  1  0  0  0
  4 11  1  0  0  0
  4 12  1  0  0  0
 17 20  1  0  0  0
 27 28  1  0  0  0
 18 21  1  0  0  0
M  END
> <minimizedAffinity>
-6.89649

$$$$
