4EB8_IM5_A_302


 26 28  0  0  0  0  0  0  0  0999 V2000
   21.4422  -27.6763  -19.5467 N   0  0  0  0  0  0  0  0  0  0  0  0
   20.0858  -27.3165  -19.6028 C   0  0  0  0  0  0  0  0  0  0  0  0
   19.6213  -26.7770  -20.7294 N   0  0  0  0  0  0  0  0  0  0  0  0
   19.2960  -27.5007  -18.5217 N   0  0  0  0  0  0  0  0  0  0  0  0
   19.7999  -28.0329  -17.3814 C   0  0  0  0  0  0  0  0  0  0  0  0
   21.1050  -28.3905  -17.3030 C   0  0  0  0  0  0  0  0  0  0  0  0
   21.9287  -28.2386  -18.3648 C   0  0  0  0  0  0  0  0  0  0  0  0
   23.1103  -28.5986  -18.3407 O   0  0  0  0  0  0  0  0  0  0  0  0
   21.3187  -28.8887  -16.0725 N   0  0  0  0  0  0  0  0  0  0  0  0
   20.1746  -28.8305  -15.3801 C   0  0  0  0  0  0  0  0  0  0  0  0
   19.2491  -28.3228  -16.1916 C   0  0  0  0  0  0  0  0  0  0  0  0
   22.0345  -27.5357  -20.3205 H   0  0  0  0  0  0  0  0  0  0  0  0
   20.2210  -26.6554  -21.5007 H   0  0  0  0  0  0  0  0  0  0  0  0
   18.6785  -26.5001  -20.7905 H   0  0  0  0  0  0  0  0  0  0  0  0
   22.1753  -29.2386  -15.7362 H   0  0  0  0  0  0  0  0  0  0  0  0
   17.7835  -28.0455  -15.7621 C   0  0  0  0  0  0  0  0  0  0  0  0
   17.4264  -26.6628  -15.3817 N   0  0  0  0  0  0  0  0  0  0  0  0
   16.3154  -26.1318  -16.1927 C   0  0  0  0  0  0  0  0  0  0  0  0
   15.9512  -24.8493  -15.4534 C   0  0  0  0  0  0  0  0  0  0  0  0
   16.8345  -23.7813  -15.8238 O   0  0  0  0  0  0  0  0  0  0  0  0
   16.1727  -25.1808  -13.9920 C   0  0  0  0  0  0  0  0  0  0  0  0
   16.9709  -26.5289  -13.9821 C   0  0  0  0  0  0  0  0  0  0  0  0
   17.7503  -24.0387  -15.6342 H   0  0  0  0  0  0  0  0  0  0  0  0
   14.8143  -25.3631  -13.3544 C   0  0  0  0  0  0  0  0  0  0  0  0
   13.9331  -24.3755  -13.8887 O   0  0  0  0  0  0  0  0  0  0  0  0
   14.2831  -23.4916  -13.6961 H   0  0  0  0  0  0  0  0  0  0  0  0
  2  1  1  0  0  0
  1  7  1  0  0  0
  3  2  1  0  0  0
  4  2  2  0  0  0
  4  5  1  0  0  0
 11  5  1  0  0  0
  5  6  2  0  0  0
  6  9  1  0  0  0
  6  7  1  0  0  0
  7  8  2  0  0  0
 10  9  1  0  0  0
 11 10  2  0  0  0
 16 11  1  0  0  0
 16 17  1  0  0  0
 17 18  1  0  0  0
 17 22  1  0  0  0
 18 19  1  0  0  0
 20 19  1  0  0  0
 19 21  1  0  0  0
 22 21  1  0  0  0
 21 24  1  0  0  0
 24 25  1  0  0  0
  1 12  1  0  0  0
  3 13  1  0  0  0
  3 14  1  0  0  0
  9 15  1  0  0  0
 20 23  1  0  0  0
 25 26  1  0  0  0
M  END
> <minimizedAffinity>
-9.99227

$$$$
4EB8_IM5_A_302


 26 28  0  0  0  0  0  0  0  0999 V2000
   21.3759  -27.9694  -19.5355 N   0  0  0  0  0  0  0  0  0  0  0  0
   20.1367  -27.3086  -19.5239 C   0  0  0  0  0  0  0  0  0  0  0  0
   19.6351  -26.8862  -20.6842 N   0  0  0  0  0  0  0  0  0  0  0  0
   19.4981  -27.0973  -18.3517 N   0  0  0  0  0  0  0  0  0  0  0  0
   20.0413  -27.5199  -17.1839 C   0  0  0  0  0  0  0  0  0  0  0  0
   21.2348  -28.1622  -17.1688 C   0  0  0  0  0  0  0  0  0  0  0  0
   21.9021  -28.4089  -18.3190 C   0  0  0  0  0  0  0  0  0  0  0  0
   22.9678  -29.0335  -18.3432 O   0  0  0  0  0  0  0  0  0  0  0  0
   21.5191  -28.4658  -15.8901 N   0  0  0  0  0  0  0  0  0  0  0  0
   20.5325  -28.0082  -15.1097 C   0  0  0  0  0  0  0  0  0  0  0  0
   19.6269  -27.4474  -15.9088 C   0  0  0  0  0  0  0  0  0  0  0  0
   21.8608  -28.1189  -20.3791 H   0  0  0  0  0  0  0  0  0  0  0  0
   20.1235  -27.0550  -21.5222 H   0  0  0  0  0  0  0  0  0  0  0  0
   18.7763  -26.4052  -20.7032 H   0  0  0  0  0  0  0  0  0  0  0  0
   22.3206  -28.9455  -15.5791 H   0  0  0  0  0  0  0  0  0  0  0  0
   18.3379  -26.7508  -15.3965 C   0  0  0  0  0  0  0  0  0  0  0  0
   17.1761  -27.6041  -15.0707 N   0  0  0  0  0  0  0  0  0  0  0  0
   16.3809  -27.9415  -16.2658 C   0  0  0  0  0  0  0  0  0  0  0  0
   15.4397  -29.0202  -15.7417 C   0  0  0  0  0  0  0  0  0  0  0  0
   14.3189  -28.4320  -15.0666 O   0  0  0  0  0  0  0  0  0  0  0  0
   16.2696  -29.7866  -14.7325 C   0  0  0  0  0  0  0  0  0  0  0  0
   17.5419  -28.9081  -14.4792 C   0  0  0  0  0  0  0  0  0  0  0  0
   14.6361  -27.8712  -14.3415 H   0  0  0  0  0  0  0  0  0  0  0  0
   16.6520  -31.1058  -15.3637 C   0  0  0  0  0  0  0  0  0  0  0  0
   17.8228  -31.5927  -14.7084 O   0  0  0  0  0  0  0  0  0  0  0  0
   18.5406  -30.9478  -14.8074 H   0  0  0  0  0  0  0  0  0  0  0  0
  2  1  1  0  0  0
  1  7  1  0  0  0
  3  2  1  0  0  0
  4  2  2  0  0  0
  4  5  1  0  0  0
 11  5  1  0  0  0
  5  6  2  0  0  0
  6  9  1  0  0  0
  6  7  1  0  0  0
  7  8  2  0  0  0
 10  9  1  0  0  0
 11 10  2  0  0  0
 16 11  1  0  0  0
 16 17  1  0  0  0
 17 18  1  0  0  0
 17 22  1  0  0  0
 18 19  1  0  0  0
 20 19  1  0  0  0
 19 21  1  0  0  0
 22 21  1  0  0  0
 21 24  1  0  0  0
 24 25  1  0  0  0
  1 12  1  0  0  0
  3 13  1  0  0  0
  3 14  1  0  0  0
  9 15  1  0  0  0
 20 23  1  0  0  0
 25 26  1  0  0  0
M  END
> <minimizedAffinity>
-9.72937

$$$$
4EB8_IM5_A_302


 26 28  0  0  0  0  0  0  0  0999 V2000
   21.3709  -27.9076  -19.8900 N   0  0  0  0  0  0  0  0  0  0  0  0
   20.1681  -27.2333  -19.6235 C   0  0  0  0  0  0  0  0  0  0  0  0
   19.5454  -26.6285  -20.6348 N   0  0  0  0  0  0  0  0  0  0  0  0
   19.6853  -27.1924  -18.3618 N   0  0  0  0  0  0  0  0  0  0  0  0
   20.3501  -27.7993  -17.3484 C   0  0  0  0  0  0  0  0  0  0  0  0
   21.5116  -28.4585  -17.5803 C   0  0  0  0  0  0  0  0  0  0  0  0
   22.0242  -28.5383  -18.8292 C   0  0  0  0  0  0  0  0  0  0  0  0
   23.0547  -29.1716  -19.0808 O   0  0  0  0  0  0  0  0  0  0  0  0
   21.9376  -28.9601  -16.4076 N   0  0  0  0  0  0  0  0  0  0  0  0
   21.0711  -28.6092  -15.4495 C   0  0  0  0  0  0  0  0  0  0  0  0
   20.0969  -27.9156  -16.0349 C   0  0  0  0  0  0  0  0  0  0  0  0
   21.7437  -27.9349  -20.8008 H   0  0  0  0  0  0  0  0  0  0  0  0
   19.9215  -26.6759  -21.5434 H   0  0  0  0  0  0  0  0  0  0  0  0
   18.7094  -26.1344  -20.4732 H   0  0  0  0  0  0  0  0  0  0  0  0
   22.7523  -29.4967  -16.2755 H   0  0  0  0  0  0  0  0  0  0  0  0
   18.9069  -27.2819  -15.2658 C   0  0  0  0  0  0  0  0  0  0  0  0
   17.5408  -27.5731  -15.7483 N   0  0  0  0  0  0  0  0  0  0  0  0
   16.5849  -27.7501  -14.6395 C   0  0  0  0  0  0  0  0  0  0  0  0
   15.2415  -27.7555  -15.3601 C   0  0  0  0  0  0  0  0  0  0  0  0
   14.9646  -29.0518  -15.9086 O   0  0  0  0  0  0  0  0  0  0  0  0
   15.4205  -26.7724  -16.4986 C   0  0  0  0  0  0  0  0  0  0  0  0
   16.9608  -26.4975  -16.5797 C   0  0  0  0  0  0  0  0  0  0  0  0
   15.6794  -29.3067  -16.5127 H   0  0  0  0  0  0  0  0  0  0  0  0
   14.6742  -25.5098  -16.1329 C   0  0  0  0  0  0  0  0  0  0  0  0
   15.6119  -24.4350  -16.0801 O   0  0  0  0  0  0  0  0  0  0  0  0
   16.2922  -24.6318  -15.4172 H   0  0  0  0  0  0  0  0  0  0  0  0
  2  1  1  0  0  0
  1  7  1  0  0  0
  3  2  1  0  0  0
  4  2  2  0  0  0
  4  5  1  0  0  0
 11  5  1  0  0  0
  5  6  2  0  0  0
  6  9  1  0  0  0
  6  7  1  0  0  0
  7  8  2  0  0  0
 10  9  1  0  0  0
 11 10  2  0  0  0
 16 11  1  0  0  0
 16 17  1  0  0  0
 17 18  1  0  0  0
 17 22  1  0  0  0
 18 19  1  0  0  0
 20 19  1  0  0  0
 19 21  1  0  0  0
 22 21  1  0  0  0
 21 24  1  0  0  0
 24 25  1  0  0  0
  1 12  1  0  0  0
  3 13  1  0  0  0
  3 14  1  0  0  0
  9 15  1  0  0  0
 20 23  1  0  0  0
 25 26  1  0  0  0
M  END
> <minimizedAffinity>
-8.93876

$$$$
4EB8_IM5_A_302


 26 28  0  0  0  0  0  0  0  0999 V2000
   15.3956  -24.5490  -14.4797 N   0  0  0  0  0  0  0  0  0  0  0  0
   16.5054  -24.5187  -15.3397 C   0  0  0  0  0  0  0  0  0  0  0  0
   17.0817  -23.3425  -15.5863 N   0  0  0  0  0  0  0  0  0  0  0  0
   16.9460  -25.6622  -15.9096 N   0  0  0  0  0  0  0  0  0  0  0  0
   16.3280  -26.8419  -15.6571 C   0  0  0  0  0  0  0  0  0  0  0  0
   15.2566  -26.8978  -14.8287 C   0  0  0  0  0  0  0  0  0  0  0  0
   14.7905  -25.7813  -14.2244 C   0  0  0  0  0  0  0  0  0  0  0  0
   13.8466  -25.8067  -13.4277 O   0  0  0  0  0  0  0  0  0  0  0  0
   14.8594  -28.1807  -14.7609 N   0  0  0  0  0  0  0  0  0  0  0  0
   15.6536  -28.9190  -15.5456 C   0  0  0  0  0  0  0  0  0  0  0  0
   16.5573  -28.0971  -16.0753 C   0  0  0  0  0  0  0  0  0  0  0  0
   15.0532  -23.7231  -14.0675 H   0  0  0  0  0  0  0  0  0  0  0  0
   16.7382  -22.5263  -15.1561 H   0  0  0  0  0  0  0  0  0  0  0  0
   17.8508  -23.2899  -16.1985 H   0  0  0  0  0  0  0  0  0  0  0  0
   14.1083  -28.5208  -14.2228 H   0  0  0  0  0  0  0  0  0  0  0  0
   17.6454  -28.5476  -17.0863 C   0  0  0  0  0  0  0  0  0  0  0  0
   19.0426  -28.1466  -16.8198 N   0  0  0  0  0  0  0  0  0  0  0  0
   19.8703  -29.2800  -16.3674 C   0  0  0  0  0  0  0  0  0  0  0  0
   21.2804  -28.7039  -16.4297 C   0  0  0  0  0  0  0  0  0  0  0  0
   21.5642  -27.9281  -15.2568 O   0  0  0  0  0  0  0  0  0  0  0  0
   21.2580  -27.7815  -17.6310 C   0  0  0  0  0  0  0  0  0  0  0  0
   19.7460  -27.6139  -18.0054 C   0  0  0  0  0  0  0  0  0  0  0  0
   20.9073  -27.2196  -15.1710 H   0  0  0  0  0  0  0  0  0  0  0  0
   22.0090  -28.4689  -18.7483 C   0  0  0  0  0  0  0  0  0  0  0  0
   22.7689  -29.5379  -18.1853 O   0  0  0  0  0  0  0  0  0  0  0  0
   23.3877  -29.1833  -17.5277 H   0  0  0  0  0  0  0  0  0  0  0  0
  2  1  1  0  0  0
  1  7  1  0  0  0
  3  2  1  0  0  0
  4  2  2  0  0  0
  4  5  1  0  0  0
 11  5  1  0  0  0
  5  6  2  0  0  0
  6  9  1  0  0  0
  6  7  1  0  0  0
  7  8  2  0  0  0
 10  9  1  0  0  0
 11 10  2  0  0  0
 16 11  1  0  0  0
 16 17  1  0  0  0
 17 18  1  0  0  0
 17 22  1  0  0  0
 18 19  1  0  0  0
 20 19  1  0  0  0
 19 21  1  0  0  0
 22 21  1  0  0  0
 21 24  1  0  0  0
 24 25  1  0  0  0
  1 12  1  0  0  0
  3 13  1  0  0  0
  3 14  1  0  0  0
  9 15  1  0  0  0
 20 23  1  0  0  0
 25 26  1  0  0  0
M  END
> <minimizedAffinity>
-8.82279

$$$$
4EB8_IM5_A_302


 26 28  0  0  0  0  0  0  0  0999 V2000
   15.1976  -26.8418  -14.7625 N   0  0  0  0  0  0  0  0  0  0  0  0
   16.3043  -26.0098  -14.5275 C   0  0  0  0  0  0  0  0  0  0  0  0
   16.0807  -24.7307  -14.2272 N   0  0  0  0  0  0  0  0  0  0  0  0
   17.5556  -26.5097  -14.6316 N   0  0  0  0  0  0  0  0  0  0  0  0
   17.7543  -27.8100  -14.9586 C   0  0  0  0  0  0  0  0  0  0  0  0
   16.7027  -28.6340  -15.1878 C   0  0  0  0  0  0  0  0  0  0  0  0
   15.4330  -28.1811  -15.0802 C   0  0  0  0  0  0  0  0  0  0  0  0
   14.4536  -28.9180  -15.2358 O   0  0  0  0  0  0  0  0  0  0  0  0
   17.1937  -29.8509  -15.4814 N   0  0  0  0  0  0  0  0  0  0  0  0
   18.5308  -29.7929  -15.4559 C   0  0  0  0  0  0  0  0  0  0  0  0
   18.8642  -28.5485  -15.1196 C   0  0  0  0  0  0  0  0  0  0  0  0
   14.2799  -26.4901  -14.7047 H   0  0  0  0  0  0  0  0  0  0  0  0
   15.1576  -24.3954  -14.1584 H   0  0  0  0  0  0  0  0  0  0  0  0
   16.8385  -24.1212  -14.0742 H   0  0  0  0  0  0  0  0  0  0  0  0
   16.6582  -30.6523  -15.6819 H   0  0  0  0  0  0  0  0  0  0  0  0
   20.3290  -28.0448  -15.0205 C   0  0  0  0  0  0  0  0  0  0  0  0
   21.0758  -27.8440  -16.2799 N   0  0  0  0  0  0  0  0  0  0  0  0
   21.4241  -29.1209  -16.9300 C   0  0  0  0  0  0  0  0  0  0  0  0
   21.9181  -28.6694  -18.2997 C   0  0  0  0  0  0  0  0  0  0  0  0
   23.2858  -28.2422  -18.2308 O   0  0  0  0  0  0  0  0  0  0  0  0
   21.0505  -27.4748  -18.6384 C   0  0  0  0  0  0  0  0  0  0  0  0
   20.3234  -27.0905  -17.3049 C   0  0  0  0  0  0  0  0  0  0  0  0
   23.3684  -27.5253  -17.5825 H   0  0  0  0  0  0  0  0  0  0  0  0
   20.0493  -27.9186  -19.6804 C   0  0  0  0  0  0  0  0  0  0  0  0
   19.7948  -26.8184  -20.5534 O   0  0  0  0  0  0  0  0  0  0  0  0
   19.4442  -26.0733  -20.0408 H   0  0  0  0  0  0  0  0  0  0  0  0
  2  1  1  0  0  0
  1  7  1  0  0  0
  3  2  1  0  0  0
  4  2  2  0  0  0
  4  5  1  0  0  0
 11  5  1  0  0  0
  5  6  2  0  0  0
  6  9  1  0  0  0
  6  7  1  0  0  0
  7  8  2  0  0  0
 10  9  1  0  0  0
 11 10  2  0  0  0
 16 11  1  0  0  0
 16 17  1  0  0  0
 17 18  1  0  0  0
 17 22  1  0  0  0
 18 19  1  0  0  0
 20 19  1  0  0  0
 19 21  1  0  0  0
 22 21  1  0  0  0
 21 24  1  0  0  0
 24 25  1  0  0  0
  1 12  1  0  0  0
  3 13  1  0  0  0
  3 14  1  0  0  0
  9 15  1  0  0  0
 20 23  1  0  0  0
 25 26  1  0  0  0
M  END
> <minimizedAffinity>
-8.53246

$$$$
4EB8_IM5_A_302


 26 28  0  0  0  0  0  0  0  0999 V2000
   15.1763  -29.7331  -14.5042 N   0  0  0  0  0  0  0  0  0  0  0  0
   16.3984  -30.3780  -14.2532 C   0  0  0  0  0  0  0  0  0  0  0  0
   16.3700  -31.6271  -13.7894 N   0  0  0  0  0  0  0  0  0  0  0  0
   17.5609  -29.7211  -14.4621 N   0  0  0  0  0  0  0  0  0  0  0  0
   17.5599  -28.4436  -14.9152 C   0  0  0  0  0  0  0  0  0  0  0  0
   16.3938  -27.8002  -15.1673 C   0  0  0  0  0  0  0  0  0  0  0  0
   15.2071  -28.4232  -14.9872 C   0  0  0  0  0  0  0  0  0  0  0  0
   14.1294  -27.8808  -15.2531 O   0  0  0  0  0  0  0  0  0  0  0  0
   16.6953  -26.5653  -15.6061 N   0  0  0  0  0  0  0  0  0  0  0  0
   18.0264  -26.4247  -15.6141 C   0  0  0  0  0  0  0  0  0  0  0  0
   18.5466  -27.5809  -15.2073 C   0  0  0  0  0  0  0  0  0  0  0  0
   14.3205  -30.1924  -14.3439 H   0  0  0  0  0  0  0  0  0  0  0  0
   15.5074  -32.0799  -13.6473 H   0  0  0  0  0  0  0  0  0  0  0  0
   17.2115  -32.0970  -13.5889 H   0  0  0  0  0  0  0  0  0  0  0  0
   16.0444  -25.8781  -15.8767 H   0  0  0  0  0  0  0  0  0  0  0  0
   20.0688  -27.8274  -15.0307 C   0  0  0  0  0  0  0  0  0  0  0  0
   20.9267  -27.7297  -16.2301 N   0  0  0  0  0  0  0  0  0  0  0  0
   21.2638  -29.0546  -16.7827 C   0  0  0  0  0  0  0  0  0  0  0  0
   21.8918  -28.7014  -18.1261 C   0  0  0  0  0  0  0  0  0  0  0  0
   23.2687  -28.3336  -17.9620 O   0  0  0  0  0  0  0  0  0  0  0  0
   21.1160  -27.4888  -18.5977 C   0  0  0  0  0  0  0  0  0  0  0  0
   20.3007  -26.9998  -17.3524 C   0  0  0  0  0  0  0  0  0  0  0  0
   23.3327  -27.5870  -17.3460 H   0  0  0  0  0  0  0  0  0  0  0  0
   20.1841  -27.9428  -19.6979 C   0  0  0  0  0  0  0  0  0  0  0  0
   19.9143  -26.8261  -20.5449 O   0  0  0  0  0  0  0  0  0  0  0  0
   19.5057  -26.1168  -20.0244 H   0  0  0  0  0  0  0  0  0  0  0  0
  2  1  1  0  0  0
  1  7  1  0  0  0
  3  2  1  0  0  0
  4  2  2  0  0  0
  4  5  1  0  0  0
 11  5  1  0  0  0
  5  6  2  0  0  0
  6  9  1  0  0  0
  6  7  1  0  0  0
  7  8  2  0  0  0
 10  9  1  0  0  0
 11 10  2  0  0  0
 16 11  1  0  0  0
 16 17  1  0  0  0
 17 18  1  0  0  0
 17 22  1  0  0  0
 18 19  1  0  0  0
 20 19  1  0  0  0
 19 21  1  0  0  0
 22 21  1  0  0  0
 21 24  1  0  0  0
 24 25  1  0  0  0
  1 12  1  0  0  0
  3 13  1  0  0  0
  3 14  1  0  0  0
  9 15  1  0  0  0
 20 23  1  0  0  0
 25 26  1  0  0  0
M  END
> <minimizedAffinity>
-8.00385

$$$$
4EB8_IM5_A_302


 26 28  0  0  0  0  0  0  0  0999 V2000
   21.1026  -27.5075  -18.6325 N   0  0  0  0  0  0  0  0  0  0  0  0
   19.8095  -27.3260  -19.1496 C   0  0  0  0  0  0  0  0  0  0  0  0
   19.6816  -26.7409  -20.3402 N   0  0  0  0  0  0  0  0  0  0  0  0
   18.7359  -27.7216  -18.4303 N   0  0  0  0  0  0  0  0  0  0  0  0
   18.8944  -28.2957  -17.2127 C   0  0  0  0  0  0  0  0  0  0  0  0
   20.1319  -28.4841  -16.6928 C   0  0  0  0  0  0  0  0  0  0  0  0
   21.2354  -28.1178  -17.3835 C   0  0  0  0  0  0  0  0  0  0  0  0
   22.3778  -28.3193  -16.9583 O   0  0  0  0  0  0  0  0  0  0  0  0
   19.9855  -29.0722  -15.4924 N   0  0  0  0  0  0  0  0  0  0  0  0
   18.6792  -29.2361  -15.2502 C   0  0  0  0  0  0  0  0  0  0  0  0
   18.0214  -28.7751  -16.3121 C   0  0  0  0  0  0  0  0  0  0  0  0
   21.8945  -27.2121  -19.1372 H   0  0  0  0  0  0  0  0  0  0  0  0
   20.4826  -26.4635  -20.8409 H   0  0  0  0  0  0  0  0  0  0  0  0
   18.7862  -26.5861  -20.7189 H   0  0  0  0  0  0  0  0  0  0  0  0
   20.7180  -29.3382  -14.8910 H   0  0  0  0  0  0  0  0  0  0  0  0
   16.4733  -28.7387  -16.4189 C   0  0  0  0  0  0  0  0  0  0  0  0
   15.7670  -27.5922  -15.8100 N   0  0  0  0  0  0  0  0  0  0  0  0
   16.3087  -27.2458  -14.4830 C   0  0  0  0  0  0  0  0  0  0  0  0
   15.6379  -25.9081  -14.1921 C   0  0  0  0  0  0  0  0  0  0  0  0
   14.3106  -26.1054  -13.6847 O   0  0  0  0  0  0  0  0  0  0  0  0
   15.5476  -25.2300  -15.5436 C   0  0  0  0  0  0  0  0  0  0  0  0
   15.8669  -26.3450  -16.5968 C   0  0  0  0  0  0  0  0  0  0  0  0
   13.7924  -26.6173  -14.3251 H   0  0  0  0  0  0  0  0  0  0  0  0
   16.6006  -24.1461  -15.5816 C   0  0  0  0  0  0  0  0  0  0  0  0
   17.7952  -24.7020  -16.1304 O   0  0  0  0  0  0  0  0  0  0  0  0
   18.0901  -25.4432  -15.5786 H   0  0  0  0  0  0  0  0  0  0  0  0
  2  1  1  0  0  0
  1  7  1  0  0  0
  3  2  1  0  0  0
  4  2  2  0  0  0
  4  5  1  0  0  0
 11  5  1  0  0  0
  5  6  2  0  0  0
  6  9  1  0  0  0
  6  7  1  0  0  0
  7  8  2  0  0  0
 10  9  1  0  0  0
 11 10  2  0  0  0
 16 11  1  0  0  0
 16 17  1  0  0  0
 17 18  1  0  0  0
 17 22  1  0  0  0
 18 19  1  0  0  0
 20 19  1  0  0  0
 19 21  1  0  0  0
 22 21  1  0  0  0
 21 24  1  0  0  0
 24 25  1  0  0  0
  1 12  1  0  0  0
  3 13  1  0  0  0
  3 14  1  0  0  0
  9 15  1  0  0  0
 20 23  1  0  0  0
 25 26  1  0  0  0
M  END
> <minimizedAffinity>
-7.66219

$$$$
4EB8_IM5_A_302


 26 28  0  0  0  0  0  0  0  0999 V2000
   15.2550  -25.7143  -15.2648 N   0  0  0  0  0  0  0  0  0  0  0  0
   16.5109  -25.1579  -15.5571 C   0  0  0  0  0  0  0  0  0  0  0  0
   16.5877  -23.8427  -15.7588 N   0  0  0  0  0  0  0  0  0  0  0  0
   17.5961  -25.9581  -15.6491 N   0  0  0  0  0  0  0  0  0  0  0  0
   17.4854  -27.2956  -15.4591 C   0  0  0  0  0  0  0  0  0  0  0  0
   16.2849  -27.8565  -15.1735 C   0  0  0  0  0  0  0  0  0  0  0  0
   15.1749  -27.0928  -15.0567 C   0  0  0  0  0  0  0  0  0  0  0  0
   14.0761  -27.5674  -14.7506 O   0  0  0  0  0  0  0  0  0  0  0  0
   16.4758  -29.1801  -15.0324 N   0  0  0  0  0  0  0  0  0  0  0  0
   17.7693  -29.4530  -15.2425 C   0  0  0  0  0  0  0  0  0  0  0  0
   18.3811  -28.2956  -15.4856 C   0  0  0  0  0  0  0  0  0  0  0  0
   14.4521  -25.1474  -15.2082 H   0  0  0  0  0  0  0  0  0  0  0  0
   15.7795  -23.2853  -15.6848 H   0  0  0  0  0  0  0  0  0  0  0  0
   17.4525  -23.4286  -15.9819 H   0  0  0  0  0  0  0  0  0  0  0  0
   15.7792  -29.8396  -14.8110 H   0  0  0  0  0  0  0  0  0  0  0  0
   19.8904  -28.1726  -15.8264 C   0  0  0  0  0  0  0  0  0  0  0  0
   20.3016  -28.4007  -17.2274 N   0  0  0  0  0  0  0  0  0  0  0  0
   20.5361  -27.1377  -17.9513 C   0  0  0  0  0  0  0  0  0  0  0  0
   21.2011  -27.6137  -19.2379 C   0  0  0  0  0  0  0  0  0  0  0  0
   20.2181  -28.0622  -20.1817 O   0  0  0  0  0  0  0  0  0  0  0  0
   22.0435  -28.7980  -18.8110 C   0  0  0  0  0  0  0  0  0  0  0  0
   21.5659  -29.1542  -17.3620 C   0  0  0  0  0  0  0  0  0  0  0  0
   19.6896  -28.7724  -19.7852 H   0  0  0  0  0  0  0  0  0  0  0  0
   23.4873  -28.3506  -18.7995 C   0  0  0  0  0  0  0  0  0  0  0  0
   24.3058  -29.4717  -19.1318 O   0  0  0  0  0  0  0  0  0  0  0  0
   24.1639  -30.1791  -18.4833 H   0  0  0  0  0  0  0  0  0  0  0  0
  2  1  1  0  0  0
  1  7  1  0  0  0
  3  2  1  0  0  0
  4  2  2  0  0  0
  4  5  1  0  0  0
 11  5  1  0  0  0
  5  6  2  0  0  0
  6  9  1  0  0  0
  6  7  1  0  0  0
  7  8  2  0  0  0
 10  9  1  0  0  0
 11 10  2  0  0  0
 16 11  1  0  0  0
 16 17  1  0  0  0
 17 18  1  0  0  0
 17 22  1  0  0  0
 18 19  1  0  0  0
 20 19  1  0  0  0
 19 21  1  0  0  0
 22 21  1  0  0  0
 21 24  1  0  0  0
 24 25  1  0  0  0
  1 12  1  0  0  0
  3 13  1  0  0  0
  3 14  1  0  0  0
  9 15  1  0  0  0
 20 23  1  0  0  0
 25 26  1  0  0  0
M  END
> <minimizedAffinity>
-7.52461

$$$$
4EB8_IM5_A_302


 26 28  0  0  0  0  0  0  0  0999 V2000
   15.2292  -29.7271  -14.5523 N   0  0  0  0  0  0  0  0  0  0  0  0
   16.5160  -30.2724  -14.6907 C   0  0  0  0  0  0  0  0  0  0  0  0
   16.6996  -31.5502  -14.3592 N   0  0  0  0  0  0  0  0  0  0  0  0
   17.5319  -29.4962  -15.1288 N   0  0  0  0  0  0  0  0  0  0  0  0
   17.3209  -28.1938  -15.4395 C   0  0  0  0  0  0  0  0  0  0  0  0
   16.0877  -27.6447  -15.3169 C   0  0  0  0  0  0  0  0  0  0  0  0
   15.0385  -28.3874  -14.8969 C   0  0  0  0  0  0  0  0  0  0  0  0
   13.8936  -27.9292  -14.8203 O   0  0  0  0  0  0  0  0  0  0  0  0
   16.1743  -26.3575  -15.6965 N   0  0  0  0  0  0  0  0  0  0  0  0
   17.4419  -26.0933  -16.0355 C   0  0  0  0  0  0  0  0  0  0  0  0
   18.1313  -27.2234  -15.8919 C   0  0  0  0  0  0  0  0  0  0  0  0
   14.4813  -30.2749  -14.2211 H   0  0  0  0  0  0  0  0  0  0  0  0
   15.9399  -32.0908  -14.0431 H   0  0  0  0  0  0  0  0  0  0  0  0
   17.5949  -31.9534  -14.4304 H   0  0  0  0  0  0  0  0  0  0  0  0
   15.4283  -25.7155  -15.7210 H   0  0  0  0  0  0  0  0  0  0  0  0
   19.6589  -27.3396  -16.1408 C   0  0  0  0  0  0  0  0  0  0  0  0
   20.1062  -27.9311  -17.4191 N   0  0  0  0  0  0  0  0  0  0  0  0
   20.4229  -26.9029  -18.4275 C   0  0  0  0  0  0  0  0  0  0  0  0
   21.1082  -27.7140  -19.5213 C   0  0  0  0  0  0  0  0  0  0  0  0
   20.1380  -28.3521  -20.3637 O   0  0  0  0  0  0  0  0  0  0  0  0
   21.8802  -28.7804  -18.7721 C   0  0  0  0  0  0  0  0  0  0  0  0
   21.3382  -28.7391  -17.3028 C   0  0  0  0  0  0  0  0  0  0  0  0
   19.5643  -28.9186  -19.8245 H   0  0  0  0  0  0  0  0  0  0  0  0
   23.3420  -28.3972  -18.8101 C   0  0  0  0  0  0  0  0  0  0  0  0
   24.0990  -29.5546  -19.1629 O   0  0  0  0  0  0  0  0  0  0  0  0
   23.9475  -30.2525  -18.5065 H   0  0  0  0  0  0  0  0  0  0  0  0
  2  1  1  0  0  0
  1  7  1  0  0  0
  3  2  1  0  0  0
  4  2  2  0  0  0
  4  5  1  0  0  0
 11  5  1  0  0  0
  5  6  2  0  0  0
  6  9  1  0  0  0
  6  7  1  0  0  0
  7  8  2  0  0  0
 10  9  1  0  0  0
 11 10  2  0  0  0
 16 11  1  0  0  0
 16 17  1  0  0  0
 17 18  1  0  0  0
 17 22  1  0  0  0
 18 19  1  0  0  0
 20 19  1  0  0  0
 19 21  1  0  0  0
 22 21  1  0  0  0
 21 24  1  0  0  0
 24 25  1  0  0  0
  1 12  1  0  0  0
  3 13  1  0  0  0
  3 14  1  0  0  0
  9 15  1  0  0  0
 20 23  1  0  0  0
 25 26  1  0  0  0
M  END
> <minimizedAffinity>
-7.30373

$$$$
4EB8_IM5_A_302


 26 28  0  0  0  0  0  0  0  0999 V2000
   14.5674  -30.8719  -13.2456 N   0  0  0  0  0  0  0  0  0  0  0  0
   14.1633  -29.7272  -13.9519 C   0  0  0  0  0  0  0  0  0  0  0  0
   12.9105  -29.2996  -13.7983 N   0  0  0  0  0  0  0  0  0  0  0  0
   15.0331  -29.1050  -14.7784 N   0  0  0  0  0  0  0  0  0  0  0  0
   16.2956  -29.5739  -14.9312 C   0  0  0  0  0  0  0  0  0  0  0  0
   16.7105  -30.6753  -14.2588 C   0  0  0  0  0  0  0  0  0  0  0  0
   15.8794  -31.3211  -13.4096 C   0  0  0  0  0  0  0  0  0  0  0  0
   16.2418  -32.2985  -12.7465 O   0  0  0  0  0  0  0  0  0  0  0  0
   17.9924  -30.9010  -14.5962 N   0  0  0  0  0  0  0  0  0  0  0  0
   18.3752  -29.9704  -15.4789 C   0  0  0  0  0  0  0  0  0  0  0  0
   17.3393  -29.1548  -15.6649 C   0  0  0  0  0  0  0  0  0  0  0  0
   13.9420  -31.3452  -12.6505 H   0  0  0  0  0  0  0  0  0  0  0  0
   12.2997  -29.7737  -13.1888 H   0  0  0  0  0  0  0  0  0  0  0  0
   12.5957  -28.5095  -14.2943 H   0  0  0  0  0  0  0  0  0  0  0  0
   18.5564  -31.6303  -14.2509 H   0  0  0  0  0  0  0  0  0  0  0  0
   17.3499  -27.9585  -16.6538 C   0  0  0  0  0  0  0  0  0  0  0  0
   17.1169  -26.6070  -16.1034 N   0  0  0  0  0  0  0  0  0  0  0  0
   15.8199  -26.0489  -16.5286 C   0  0  0  0  0  0  0  0  0  0  0  0
   15.6830  -24.8184  -15.6391 C   0  0  0  0  0  0  0  0  0  0  0  0
   16.4231  -23.7153  -16.1808 O   0  0  0  0  0  0  0  0  0  0  0  0
   16.3142  -25.2309  -14.3253 C   0  0  0  0  0  0  0  0  0  0  0  0
   17.0817  -26.5631  -14.6265 C   0  0  0  0  0  0  0  0  0  0  0  0
   17.3548  -23.9673  -16.2773 H   0  0  0  0  0  0  0  0  0  0  0  0
   15.1956  -25.4739  -13.3380 C   0  0  0  0  0  0  0  0  0  0  0  0
   14.1659  -24.5166  -13.5839 O   0  0  0  0  0  0  0  0  0  0  0  0
   14.5244  -23.6216  -13.4778 H   0  0  0  0  0  0  0  0  0  0  0  0
  2  1  1  0  0  0
  1  7  1  0  0  0
  3  2  1  0  0  0
  4  2  2  0  0  0
  4  5  1  0  0  0
 11  5  1  0  0  0
  5  6  2  0  0  0
  6  9  1  0  0  0
  6  7  1  0  0  0
  7  8  2  0  0  0
 10  9  1  0  0  0
 11 10  2  0  0  0
 16 11  1  0  0  0
 16 17  1  0  0  0
 17 18  1  0  0  0
 17 22  1  0  0  0
 18 19  1  0  0  0
 20 19  1  0  0  0
 19 21  1  0  0  0
 22 21  1  0  0  0
 21 24  1  0  0  0
 24 25  1  0  0  0
  1 12  1  0  0  0
  3 13  1  0  0  0
  3 14  1  0  0  0
  9 15  1  0  0  0
 20 23  1  0  0  0
 25 26  1  0  0  0
M  END
> <minimizedAffinity>
-7.16199

$$$$
