2JG0_TTZ_A_1548


 34 36  0  0  0  0  0  0  0  0999 V2000
   19.8977   49.6353   14.2631 C   0  0  0  0  0  0  0  0  0  0  0  0
   20.7613   49.4825   15.3659 O   0  0  0  0  0  0  0  0  0  0  0  0
   18.8155   48.5532   14.3571 C   0  0  0  0  0  0  0  0  0  0  0  0
   17.4813   49.0585   14.2825 O   0  0  0  0  0  0  0  0  0  0  0  0
   19.0606   47.5821   13.1904 C   0  0  0  0  0  0  0  0  0  0  0  0
   18.7608   46.2157   13.4868 O   0  0  0  0  0  0  0  0  0  0  0  0
   20.5077   47.8207   12.7226 C   0  0  0  0  0  0  0  0  0  0  0  0
   20.6854   47.6640   10.9551 S   0  0  0  0  0  0  0  0  0  0  0  0
   20.7048   49.3079   13.0001 C   0  0  0  0  0  0  0  0  0  0  0  0
   20.1842   49.9557   11.7691 N   0  0  0  0  0  0  0  0  0  0  0  0
   20.0321   49.2293   10.7530 C   0  0  0  0  0  0  0  0  0  0  0  0
   20.2799   49.6830   16.1838 H   0  0  0  0  0  0  0  0  0  0  0  0
   17.3500   49.4999   13.4287 H   0  0  0  0  0  0  0  0  0  0  0  0
   19.3310   45.9089   14.2091 H   0  0  0  0  0  0  0  0  0  0  0  0
   18.4882   51.4267   13.4436 O   0  0  0  0  0  0  0  0  0  0  0  0
   19.4270   51.0675   14.4129 C   0  0  0  0  0  0  0  0  0  0  0  0
   18.2185   52.3483   13.5807 H   0  0  0  0  0  0  0  0  0  0  0  0
   19.3350   49.6826    9.6844 N   0  0  0  0  0  0  0  0  0  0  0  0
   19.4592   49.2038    8.8332 H   0  0  0  0  0  0  0  0  0  0  0  0
   18.4240   50.8068    9.6797 C   0  0  0  0  0  0  0  0  0  0  0  0
   16.9549   50.3380    9.6068 C   0  0  0  0  0  0  0  0  0  0  0  0
   16.6853   49.3880   10.6365 O   0  0  0  0  0  0  0  0  0  0  0  0
   18.7124   51.6797    8.5575 O   0  0  0  0  0  0  0  0  0  0  0  0
   18.3807   51.1925    7.2505 C   0  0  0  0  0  0  0  0  0  0  0  0
   16.9111   50.7962    7.1965 C   0  0  0  0  0  0  0  0  0  0  0  0
   16.5432   50.3948    5.8805 O   0  0  0  0  0  0  0  0  0  0  0  0
   16.6059   49.7348    8.2515 C   0  0  0  0  0  0  0  0  0  0  0  0
   15.2448   49.3976    8.1957 O   0  0  0  0  0  0  0  0  0  0  0  0
   17.2415   48.6039   10.5068 H   0  0  0  0  0  0  0  0  0  0  0  0
   17.0660   49.6202    5.6207 H   0  0  0  0  0  0  0  0  0  0  0  0
   14.7085   50.1921    8.3443 H   0  0  0  0  0  0  0  0  0  0  0  0
   18.6430   52.3115    6.2486 C   0  0  0  0  0  0  0  0  0  0  0  0
   20.0311   52.3144    5.8787 O   0  0  0  0  0  0  0  0  0  0  0  0
   20.5759   52.4574    6.6685 H   0  0  0  0  0  0  0  0  0  0  0  0
 15 16  1  0  0  0
 16  1  1  0  0  0
  1  2  1  0  0  0
  1  3  1  0  0  0
  1  9  1  0  0  0
  3  4  1  0  0  0
  3  5  1  0  0  0
  5  6  1  0  0  0
  5  7  1  0  0  0
  7  8  1  0  0  0
  7  9  1  0  0  0
  8 11  1  0  0  0
  9 10  1  0  0  0
 10 11  2  0  0  0
 11 18  1  0  0  0
 18 20  1  0  0  0
 20 21  1  0  0  0
 20 23  1  0  0  0
 21 22  1  0  0  0
 21 27  1  0  0  0
 23 24  1  0  0  0
 24 32  1  0  0  0
 24 25  1  0  0  0
 32 33  1  0  0  0
 25 26  1  0  0  0
 25 27  1  0  0  0
 27 28  1  0  0  0
 15 17  1  0  0  0
  2 12  1  0  0  0
  4 13  1  0  0  0
  6 14  1  0  0  0
 18 19  1  0  0  0
 22 29  1  0  0  0
 33 34  1  0  0  0
 26 30  1  0  0  0
 28 31  1  0  0  0
M  END
> <minimizedAffinity>
-12.48934

$$$$
2JG0_TTZ_A_1548


 34 36  0  0  0  0  0  0  0  0999 V2000
   17.9898   51.9502    7.2961 C   0  0  0  0  0  0  0  0  0  0  0  0
   17.2908   53.1463    7.0395 O   0  0  0  0  0  0  0  0  0  0  0  0
   17.1504   50.7870    6.7546 C   0  0  0  0  0  0  0  0  0  0  0  0
   17.8633   49.9178    5.8729 O   0  0  0  0  0  0  0  0  0  0  0  0
   16.6630   49.9893    7.9755 C   0  0  0  0  0  0  0  0  0  0  0  0
   15.3568   49.4260    7.8293 O   0  0  0  0  0  0  0  0  0  0  0  0
   16.8129   50.9210    9.1918 C   0  0  0  0  0  0  0  0  0  0  0  0
   17.3048   50.0430   10.6641 S   0  0  0  0  0  0  0  0  0  0  0  0
   18.0306   51.7607    8.8180 C   0  0  0  0  0  0  0  0  0  0  0  0
   19.1713   50.9353    9.2908 N   0  0  0  0  0  0  0  0  0  0  0  0
   18.9170   50.0066   10.1008 C   0  0  0  0  0  0  0  0  0  0  0  0
   17.2469   53.2961    6.0821 H   0  0  0  0  0  0  0  0  0  0  0  0
   18.6086   49.5168    6.3469 H   0  0  0  0  0  0  0  0  0  0  0  0
   14.7098   50.1378    7.7043 H   0  0  0  0  0  0  0  0  0  0  0  0
   19.1765   52.8705    5.3955 O   0  0  0  0  0  0  0  0  0  0  0  0
   19.3178   52.1941    6.6088 C   0  0  0  0  0  0  0  0  0  0  0  0
   20.0502   53.0026    4.9953 H   0  0  0  0  0  0  0  0  0  0  0  0
   19.8491   49.0644   10.3781 N   0  0  0  0  0  0  0  0  0  0  0  0
   20.0375   48.4010    9.6755 H   0  0  0  0  0  0  0  0  0  0  0  0
   20.5934   48.9439   11.6130 C   0  0  0  0  0  0  0  0  0  0  0  0
   20.3271   47.5865   12.2983 C   0  0  0  0  0  0  0  0  0  0  0  0
   20.5582   46.5153   11.3847 O   0  0  0  0  0  0  0  0  0  0  0  0
   20.2411   50.0227   12.5167 O   0  0  0  0  0  0  0  0  0  0  0  0
   18.9348   49.9791   13.1060 C   0  0  0  0  0  0  0  0  0  0  0  0
   18.7282   48.6521   13.8246 C   0  0  0  0  0  0  0  0  0  0  0  0
   17.4701   48.6282   14.4916 O   0  0  0  0  0  0  0  0  0  0  0  0
   18.9120   47.4864   12.8551 C   0  0  0  0  0  0  0  0  0  0  0  0
   18.7348   46.2750   13.5411 O   0  0  0  0  0  0  0  0  0  0  0  0
   19.9394   46.5854   10.6411 H   0  0  0  0  0  0  0  0  0  0  0  0
   16.7573   48.7239   13.8408 H   0  0  0  0  0  0  0  0  0  0  0  0
   19.3737   46.2190   14.2688 H   0  0  0  0  0  0  0  0  0  0  0  0
   18.8307   51.1224   14.1092 C   0  0  0  0  0  0  0  0  0  0  0  0
   19.9182   51.0459   15.0448 O   0  0  0  0  0  0  0  0  0  0  0  0
   19.8787   50.2001   15.5179 H   0  0  0  0  0  0  0  0  0  0  0  0
 15 16  1  0  0  0
 16  1  1  0  0  0
  1  2  1  0  0  0
  1  3  1  0  0  0
  1  9  1  0  0  0
  3  4  1  0  0  0
  3  5  1  0  0  0
  5  6  1  0  0  0
  5  7  1  0  0  0
  7  8  1  0  0  0
  7  9  1  0  0  0
  8 11  1  0  0  0
  9 10  1  0  0  0
 10 11  2  0  0  0
 11 18  1  0  0  0
 18 20  1  0  0  0
 20 21  1  0  0  0
 20 23  1  0  0  0
 21 22  1  0  0  0
 21 27  1  0  0  0
 23 24  1  0  0  0
 24 32  1  0  0  0
 24 25  1  0  0  0
 32 33  1  0  0  0
 25 26  1  0  0  0
 25 27  1  0  0  0
 27 28  1  0  0  0
 15 17  1  0  0  0
  2 12  1  0  0  0
  4 13  1  0  0  0
  6 14  1  0  0  0
 18 19  1  0  0  0
 22 29  1  0  0  0
 33 34  1  0  0  0
 26 30  1  0  0  0
 28 31  1  0  0  0
M  END
> <minimizedAffinity>
-10.09351

$$$$
