4AYU_N8P_A_499


 12 12  0  0  0  0  0  0  0  0999 V2000
  -94.0173    9.8511  -19.1399 C   0  0  0  0  0  0  0  0  0  0  0  0
  -92.8372   10.2096  -19.2636 O   0  0  0  0  0  0  0  0  0  0  0  0
  -95.0934   10.8220  -18.8347 C   0  0  0  0  0  0  0  0  0  0  0  0
  -94.3542    8.4780  -19.2841 N   0  0  0  0  0  0  0  0  0  0  0  0
  -95.6769    7.9402  -19.1330 C   0  0  0  0  0  0  0  0  0  0  0  0
  -95.5022    6.4492  -19.1050 C   0  0  0  0  0  0  0  0  0  0  0  0
  -94.2532    6.1944  -19.8442 C   0  0  0  0  0  0  0  0  0  0  0  0
  -93.4045    7.4126  -19.5613 C   0  0  0  0  0  0  0  0  0  0  0  0
  -96.6432    8.3378  -20.2243 C   0  0  0  0  0  0  0  0  0  0  0  0
  -96.2010    8.7241  -21.3394 O   0  0  0  0  0  0  0  0  0  0  0  0
  -97.8788    8.2596  -20.0059 O   0  0  0  0  0  0  0  0  0  0  0  0
  -98.1896    7.9703  -19.1706 H   0  0  0  0  0  0  0  0  0  0  0  0
 11  9  1  0  0  0
  9 10  2  0  0  0
  9  5  1  0  0  0
  4  1  1  0  0  0
  4  8  1  0  0  0
  4  5  1  0  0  0
  1  2  2  0  0  0
  1  3  1  0  0  0
  8  7  1  0  0  0
  7  6  1  0  0  0
  6  5  1  0  0  0
 11 12  1  0  0  0
M  END
> <minimizedAffinity>
-5.22902

$$$$
4AYU_N8P_A_499


 12 12  0  0  0  0  0  0  0  0999 V2000
  -93.9655    7.4278  -19.4967 C   0  0  0  0  0  0  0  0  0  0  0  0
  -92.8431    7.2890  -18.9893 O   0  0  0  0  0  0  0  0  0  0  0  0
  -94.8694    6.2729  -19.7046 C   0  0  0  0  0  0  0  0  0  0  0  0
  -94.4007    8.7194  -19.8992 N   0  0  0  0  0  0  0  0  0  0  0  0
  -95.6625    8.9993  -20.5245 C   0  0  0  0  0  0  0  0  0  0  0  0
  -95.5658   10.4188  -21.0041 C   0  0  0  0  0  0  0  0  0  0  0  0
  -94.5727   11.0560  -20.1216 C   0  0  0  0  0  0  0  0  0  0  0  0
  -93.6161    9.9374  -19.7778 C   0  0  0  0  0  0  0  0  0  0  0  0
  -96.8611    8.8283  -19.6206 C   0  0  0  0  0  0  0  0  0  0  0  0
  -96.8128    9.2485  -18.4335 O   0  0  0  0  0  0  0  0  0  0  0  0
  -97.8980    8.2822  -20.0759 O   0  0  0  0  0  0  0  0  0  0  0  0
  -97.9159    7.9757  -20.9612 H   0  0  0  0  0  0  0  0  0  0  0  0
 11  9  1  0  0  0
  9 10  2  0  0  0
  9  5  1  0  0  0
  4  1  1  0  0  0
  4  8  1  0  0  0
  4  5  1  0  0  0
  1  2  2  0  0  0
  1  3  1  0  0  0
  8  7  1  0  0  0
  7  6  1  0  0  0
  6  5  1  0  0  0
 11 12  1  0  0  0
M  END
> <minimizedAffinity>
-4.50714

$$$$
4AYU_N8P_A_499


 12 12  0  0  0  0  0  0  0  0999 V2000
  -94.8187    8.7170  -17.7644 C   0  0  0  0  0  0  0  0  0  0  0  0
  -94.5648    8.4129  -16.5898 O   0  0  0  0  0  0  0  0  0  0  0  0
  -94.0442    8.1544  -18.8946 C   0  0  0  0  0  0  0  0  0  0  0  0
  -95.8697    9.6323  -18.0425 N   0  0  0  0  0  0  0  0  0  0  0  0
  -96.2356   10.0830  -19.3557 C   0  0  0  0  0  0  0  0  0  0  0  0
  -97.1911   11.2204  -19.1371 C   0  0  0  0  0  0  0  0  0  0  0  0
  -97.7950   10.9670  -17.8172 C   0  0  0  0  0  0  0  0  0  0  0  0
  -96.6978   10.2792  -17.0377 C   0  0  0  0  0  0  0  0  0  0  0  0
  -96.8674    9.0235  -20.2281 C   0  0  0  0  0  0  0  0  0  0  0  0
  -96.3547    8.7478  -21.3459 O   0  0  0  0  0  0  0  0  0  0  0  0
  -97.8894    8.4194  -19.8142 O   0  0  0  0  0  0  0  0  0  0  0  0
  -98.2570    8.6376  -18.9804 H   0  0  0  0  0  0  0  0  0  0  0  0
 11  9  1  0  0  0
  9 10  2  0  0  0
  9  5  1  0  0  0
  4  1  1  0  0  0
  4  8  1  0  0  0
  4  5  1  0  0  0
  1  2  2  0  0  0
  1  3  1  0  0  0
  8  7  1  0  0  0
  7  6  1  0  0  0
  6  5  1  0  0  0
 11 12  1  0  0  0
M  END
> <minimizedAffinity>
-4.31091

$$$$
4AYU_N8P_A_499


 12 12  0  0  0  0  0  0  0  0999 V2000
  -94.6225   11.0416  -21.0479 C   0  0  0  0  0  0  0  0  0  0  0  0
  -93.6165   11.4560  -21.6420 O   0  0  0  0  0  0  0  0  0  0  0  0
  -95.9419   11.6945  -21.2113 C   0  0  0  0  0  0  0  0  0  0  0  0
  -94.5156    9.9202  -20.1816 N   0  0  0  0  0  0  0  0  0  0  0  0
  -95.6002    9.3702  -19.4182 C   0  0  0  0  0  0  0  0  0  0  0  0
  -94.9673    8.3950  -18.4681 C   0  0  0  0  0  0  0  0  0  0  0  0
  -93.7166    7.9753  -19.1244 C   0  0  0  0  0  0  0  0  0  0  0  0
  -93.2860    9.1943  -19.9074 C   0  0  0  0  0  0  0  0  0  0  0  0
  -96.6644    8.6866  -20.2446 C   0  0  0  0  0  0  0  0  0  0  0  0
  -97.8266    8.5505  -19.7768 O   0  0  0  0  0  0  0  0  0  0  0  0
  -96.3753    8.2786  -21.3982 O   0  0  0  0  0  0  0  0  0  0  0  0
  -95.5058    8.3883  -21.7297 H   0  0  0  0  0  0  0  0  0  0  0  0
 11  9  1  0  0  0
  9 10  2  0  0  0
  9  5  1  0  0  0
  4  1  1  0  0  0
  4  8  1  0  0  0
  4  5  1  0  0  0
  1  2  2  0  0  0
  1  3  1  0  0  0
  8  7  1  0  0  0
  7  6  1  0  0  0
  6  5  1  0  0  0
 11 12  1  0  0  0
M  END
> <minimizedAffinity>
-3.99633

$$$$
4AYU_N8P_A_499


 12 12  0  0  0  0  0  0  0  0999 V2000
  -93.8905    8.6487  -18.2214 C   0  0  0  0  0  0  0  0  0  0  0  0
  -93.3878    8.4666  -17.1031 O   0  0  0  0  0  0  0  0  0  0  0  0
  -93.2602    8.1130  -19.4501 C   0  0  0  0  0  0  0  0  0  0  0  0
  -95.0947    9.3943  -18.3383 N   0  0  0  0  0  0  0  0  0  0  0  0
  -95.7524    9.6964  -19.5784 C   0  0  0  0  0  0  0  0  0  0  0  0
  -96.8058   10.7103  -19.2365 C   0  0  0  0  0  0  0  0  0  0  0  0
  -97.1188   10.4755  -17.8159 C   0  0  0  0  0  0  0  0  0  0  0  0
  -95.8118    9.9971  -17.2264 C   0  0  0  0  0  0  0  0  0  0  0  0
  -96.3727    8.5022  -20.2655 C   0  0  0  0  0  0  0  0  0  0  0  0
  -96.7418    7.5104  -19.5813 O   0  0  0  0  0  0  0  0  0  0  0  0
  -96.5267    8.5258  -21.5130 O   0  0  0  0  0  0  0  0  0  0  0  0
  -96.2462    9.2718  -22.0057 H   0  0  0  0  0  0  0  0  0  0  0  0
 11  9  1  0  0  0
  9 10  2  0  0  0
  9  5  1  0  0  0
  4  1  1  0  0  0
  4  8  1  0  0  0
  4  5  1  0  0  0
  1  2  2  0  0  0
  1  3  1  0  0  0
  8  7  1  0  0  0
  7  6  1  0  0  0
  6  5  1  0  0  0
 11 12  1  0  0  0
M  END
> <minimizedAffinity>
-3.94835

$$$$
4AYU_N8P_A_499


 12 12  0  0  0  0  0  0  0  0999 V2000
  -95.8304   10.2977  -17.6993 C   0  0  0  0  0  0  0  0  0  0  0  0
  -96.0505   10.7740  -16.5763 O   0  0  0  0  0  0  0  0  0  0  0  0
  -94.8340    9.2207  -17.9018 C   0  0  0  0  0  0  0  0  0  0  0  0
  -96.5393   10.7958  -18.8259 N   0  0  0  0  0  0  0  0  0  0  0  0
  -96.3487   10.3464  -20.1762 C   0  0  0  0  0  0  0  0  0  0  0  0
  -97.0978   11.3253  -21.0336 C   0  0  0  0  0  0  0  0  0  0  0  0
  -98.1496   11.8751  -20.1603 C   0  0  0  0  0  0  0  0  0  0  0  0
  -97.5272   11.8617  -18.7831 C   0  0  0  0  0  0  0  0  0  0  0  0
  -96.8279    8.9383  -20.4412 C   0  0  0  0  0  0  0  0  0  0  0  0
  -97.7673    8.4583  -19.7517 O   0  0  0  0  0  0  0  0  0  0  0  0
  -96.2900    8.2719  -21.3616 O   0  0  0  0  0  0  0  0  0  0  0  0
  -95.5926    8.6449  -21.8641 H   0  0  0  0  0  0  0  0  0  0  0  0
 11  9  1  0  0  0
  9 10  2  0  0  0
  9  5  1  0  0  0
  4  1  1  0  0  0
  4  8  1  0  0  0
  4  5  1  0  0  0
  1  2  2  0  0  0
  1  3  1  0  0  0
  8  7  1  0  0  0
  7  6  1  0  0  0
  6  5  1  0  0  0
 11 12  1  0  0  0
M  END
> <minimizedAffinity>
-3.85215

$$$$
4AYU_N8P_A_499


 12 12  0  0  0  0  0  0  0  0999 V2000
  -95.7323   10.3438  -19.9232 C   0  0  0  0  0  0  0  0  0  0  0  0
  -96.6762   10.7601  -20.6106 O   0  0  0  0  0  0  0  0  0  0  0  0
  -94.7859   11.2731  -19.2640 C   0  0  0  0  0  0  0  0  0  0  0  0
  -95.5408    8.9446  -19.7651 N   0  0  0  0  0  0  0  0  0  0  0  0
  -94.4692    8.3447  -19.0212 C   0  0  0  0  0  0  0  0  0  0  0  0
  -94.5189    6.8819  -19.3559 C   0  0  0  0  0  0  0  0  0  0  0  0
  -95.9186    6.6218  -19.7360 C   0  0  0  0  0  0  0  0  0  0  0  0
  -96.3738    7.9169  -20.3684 C   0  0  0  0  0  0  0  0  0  0  0  0
  -94.5544    8.5471  -17.5264 C   0  0  0  0  0  0  0  0  0  0  0  0
  -93.4966    8.6320  -16.8465 O   0  0  0  0  0  0  0  0  0  0  0  0
  -95.6851    8.6453  -16.9856 O   0  0  0  0  0  0  0  0  0  0  0  0
  -96.4610    8.5797  -17.5068 H   0  0  0  0  0  0  0  0  0  0  0  0
 11  9  1  0  0  0
  9 10  2  0  0  0
  9  5  1  0  0  0
  4  1  1  0  0  0
  4  8  1  0  0  0
  4  5  1  0  0  0
  1  2  2  0  0  0
  1  3  1  0  0  0
  8  7  1  0  0  0
  7  6  1  0  0  0
  6  5  1  0  0  0
 11 12  1  0  0  0
M  END
> <minimizedAffinity>
-3.54705

$$$$
4AYU_N8P_A_499


 12 12  0  0  0  0  0  0  0  0999 V2000
  -95.3320   10.7116  -21.3951 C   0  0  0  0  0  0  0  0  0  0  0  0
  -94.4850   10.4259  -22.2539 O   0  0  0  0  0  0  0  0  0  0  0  0
  -96.3995   11.7035  -21.6606 C   0  0  0  0  0  0  0  0  0  0  0  0
  -95.2810   10.0846  -20.1208 N   0  0  0  0  0  0  0  0  0  0  0  0
  -96.1852   10.3560  -19.0390 C   0  0  0  0  0  0  0  0  0  0  0  0
  -95.5891    9.6783  -17.8391 C   0  0  0  0  0  0  0  0  0  0  0  0
  -94.7720    8.5800  -18.3842 C   0  0  0  0  0  0  0  0  0  0  0  0
  -94.2814    9.1114  -19.7114 C   0  0  0  0  0  0  0  0  0  0  0  0
  -97.5989    9.8750  -19.2686 C   0  0  0  0  0  0  0  0  0  0  0  0
  -97.8001    8.6987  -19.6738 O   0  0  0  0  0  0  0  0  0  0  0  0
  -98.5565   10.6550  -19.0336 O   0  0  0  0  0  0  0  0  0  0  0  0
  -98.3881   11.5263  -18.7329 H   0  0  0  0  0  0  0  0  0  0  0  0
 11  9  1  0  0  0
  9 10  2  0  0  0
  9  5  1  0  0  0
  4  1  1  0  0  0
  4  8  1  0  0  0
  4  5  1  0  0  0
  1  2  2  0  0  0
  1  3  1  0  0  0
  8  7  1  0  0  0
  7  6  1  0  0  0
  6  5  1  0  0  0
 11 12  1  0  0  0
M  END
> <minimizedAffinity>
-3.42375

$$$$
4AYU_N8P_A_499


 12 12  0  0  0  0  0  0  0  0999 V2000
  -96.0216    9.6727  -20.5225 C   0  0  0  0  0  0  0  0  0  0  0  0
  -95.9906    9.7147  -21.7610 O   0  0  0  0  0  0  0  0  0  0  0  0
  -97.2880    9.4519  -19.7868 C   0  0  0  0  0  0  0  0  0  0  0  0
  -94.8210    9.8476  -19.7825 N   0  0  0  0  0  0  0  0  0  0  0  0
  -94.7368    9.8501  -18.3491 C   0  0  0  0  0  0  0  0  0  0  0  0
  -93.3505   10.3307  -18.0301 C   0  0  0  0  0  0  0  0  0  0  0  0
  -92.5418    9.9834  -19.2119 C   0  0  0  0  0  0  0  0  0  0  0  0
  -93.5120   10.0933  -20.3656 C   0  0  0  0  0  0  0  0  0  0  0  0
  -94.9912    8.5076  -17.7044 C   0  0  0  0  0  0  0  0  0  0  0  0
  -95.5901    8.4503  -16.5970 O   0  0  0  0  0  0  0  0  0  0  0  0
  -94.6144    7.4637  -18.2952 O   0  0  0  0  0  0  0  0  0  0  0  0
  -94.1704    7.5254  -19.1180 H   0  0  0  0  0  0  0  0  0  0  0  0
 11  9  1  0  0  0
  9 10  2  0  0  0
  9  5  1  0  0  0
  4  1  1  0  0  0
  4  8  1  0  0  0
  4  5  1  0  0  0
  1  2  2  0  0  0
  1  3  1  0  0  0
  8  7  1  0  0  0
  7  6  1  0  0  0
  6  5  1  0  0  0
 11 12  1  0  0  0
M  END
> <minimizedAffinity>
-3.41307

$$$$
4AYU_N8P_A_499


 12 12  0  0  0  0  0  0  0  0999 V2000
  -92.4802    8.2026  -18.5317 C   0  0  0  0  0  0  0  0  0  0  0  0
  -91.5602    8.0923  -17.7083 O   0  0  0  0  0  0  0  0  0  0  0  0
  -92.3025    7.8083  -19.9483 C   0  0  0  0  0  0  0  0  0  0  0  0
  -93.7351    8.7260  -18.1185 N   0  0  0  0  0  0  0  0  0  0  0  0
  -94.8619    8.9291  -18.9850 C   0  0  0  0  0  0  0  0  0  0  0  0
  -95.8432    9.7350  -18.1838 C   0  0  0  0  0  0  0  0  0  0  0  0
  -95.5380    9.4236  -16.7762 C   0  0  0  0  0  0  0  0  0  0  0  0
  -94.0475    9.1730  -16.7707 C   0  0  0  0  0  0  0  0  0  0  0  0
  -95.5063    7.6566  -19.4831 C   0  0  0  0  0  0  0  0  0  0  0  0
  -95.8322    7.5552  -20.6962 O   0  0  0  0  0  0  0  0  0  0  0  0
  -95.6917    6.7088  -18.6781 O   0  0  0  0  0  0  0  0  0  0  0  0
  -95.4431    6.8019  -17.7795 H   0  0  0  0  0  0  0  0  0  0  0  0
 11  9  1  0  0  0
  9 10  2  0  0  0
  9  5  1  0  0  0
  4  1  1  0  0  0
  4  8  1  0  0  0
  4  5  1  0  0  0
  1  2  2  0  0  0
  1  3  1  0  0  0
  8  7  1  0  0  0
  7  6  1  0  0  0
  6  5  1  0  0  0
 11 12  1  0  0  0
M  END
> <minimizedAffinity>
-3.40437

$$$$
