3PCJ_INO_M_550


 13 13  0  0  0  0  0  0  0  0999 V2000
   13.6699   10.4209   40.8210 N   0  0  0  0  0  0  0  0  0  0  0  0
   14.7814   10.5296   40.1273 C   0  0  0  0  0  0  0  0  0  0  0  0
   15.5016   11.7129   40.0997 C   0  0  0  0  0  0  0  0  0  0  0  0
   15.0297   12.8308   40.8146 C   0  0  0  0  0  0  0  0  0  0  0  0
   13.8037   12.7129   41.4914 C   0  0  0  0  0  0  0  0  0  0  0  0
   13.1524   11.4653   41.4949 C   0  0  0  0  0  0  0  0  0  0  0  0
   15.2131    9.5700   39.4791 O   0  0  0  0  0  0  0  0  0  0  0  0
   12.9883    9.2865   40.8140 O   0  0  0  0  0  0  0  0  0  0  0  0
   14.7471    8.7571   39.4791 H   0  0  0  0  0  0  0  0  0  0  0  0
   15.8484   14.1381   40.8538 C   0  0  0  0  0  0  0  0  0  0  0  0
   16.6908   14.3455   39.9939 O   0  0  0  0  0  0  0  0  0  0  0  0
   15.6662   14.9906   41.7245 O   0  0  0  0  0  0  0  0  0  0  0  0
   15.0242   14.8487   42.3922 H   0  0  0  0  0  0  0  0  0  0  0  0
  1  2  1  0  0  0
  1  6  2  0  0  0
  1  8  1  0  0  0
  2  3  2  0  0  0
  2  7  1  0  0  0
  3  4  1  0  0  0
  4  5  2  0  0  0
  4 10  1  0  0  0
  5  6  1  0  0  0
 10 11  2  0  0  0
 10 12  1  0  0  0
 12 13  1  0  0  0
  7  9  1  0  0  0
M  CHG 1   1   1
M  CHG 1   8  -1
M  END
> <minimizedAffinity>
-6.47614

$$$$
3PCJ_INO_M_550


 13 13  0  0  0  0  0  0  0  0999 V2000
   15.2997   13.2014   40.5887 N   0  0  0  0  0  0  0  0  0  0  0  0
   15.5428   14.3532   41.1743 C   0  0  0  0  0  0  0  0  0  0  0  0
   14.7677   14.8030   42.2309 C   0  0  0  0  0  0  0  0  0  0  0  0
   13.6856   14.0220   42.6812 C   0  0  0  0  0  0  0  0  0  0  0  0
   13.4015   12.8288   41.9953 C   0  0  0  0  0  0  0  0  0  0  0  0
   14.2585   12.4294   40.9528 C   0  0  0  0  0  0  0  0  0  0  0  0
   16.4769   15.0666   40.7924 O   0  0  0  0  0  0  0  0  0  0  0  0
   16.0409   12.8038   39.5671 O   0  0  0  0  0  0  0  0  0  0  0  0
   17.0181   14.7882   40.0799 H   0  0  0  0  0  0  0  0  0  0  0  0
   12.8499   14.4692   43.8986 C   0  0  0  0  0  0  0  0  0  0  0  0
   12.8295   13.7728   44.9020 O   0  0  0  0  0  0  0  0  0  0  0  0
   12.2099   15.5221   43.8935 O   0  0  0  0  0  0  0  0  0  0  0  0
   12.2139   16.0691   43.1327 H   0  0  0  0  0  0  0  0  0  0  0  0
  1  2  1  0  0  0
  1  6  2  0  0  0
  1  8  1  0  0  0
  2  3  2  0  0  0
  2  7  1  0  0  0
  3  4  1  0  0  0
  4  5  2  0  0  0
  4 10  1  0  0  0
  5  6  1  0  0  0
 10 11  2  0  0  0
 10 12  1  0  0  0
 12 13  1  0  0  0
  7  9  1  0  0  0
M  CHG 1   1   1
M  CHG 1   8  -1
M  END
> <minimizedAffinity>
-6.35627

$$$$
3PCJ_INO_M_550


 13 13  0  0  0  0  0  0  0  0999 V2000
   15.2771   14.9389   41.6251 N   0  0  0  0  0  0  0  0  0  0  0  0
   15.8274   14.1697   40.7117 C   0  0  0  0  0  0  0  0  0  0  0  0
   15.3247   12.9094   40.4319 C   0  0  0  0  0  0  0  0  0  0  0  0
   14.2111   12.4302   41.1487 C   0  0  0  0  0  0  0  0  0  0  0  0
   13.6830   13.2405   42.1682 C   0  0  0  0  0  0  0  0  0  0  0  0
   14.2333   14.5207   42.3656 C   0  0  0  0  0  0  0  0  0  0  0  0
   16.8137   14.5575   40.0761 O   0  0  0  0  0  0  0  0  0  0  0  0
   15.7890   16.1302   41.8894 O   0  0  0  0  0  0  0  0  0  0  0  0
   17.1755   15.4054   40.2439 H   0  0  0  0  0  0  0  0  0  0  0  0
   13.5922   11.0582   40.8089 C   0  0  0  0  0  0  0  0  0  0  0  0
   12.6511   10.6437   41.4682 O   0  0  0  0  0  0  0  0  0  0  0  0
   14.0130   10.3706   39.8771 O   0  0  0  0  0  0  0  0  0  0  0  0
   14.7341   10.6726   39.3604 H   0  0  0  0  0  0  0  0  0  0  0  0
  1  2  1  0  0  0
  1  6  2  0  0  0
  1  8  1  0  0  0
  2  3  2  0  0  0
  2  7  1  0  0  0
  3  4  1  0  0  0
  4  5  2  0  0  0
  4 10  1  0  0  0
  5  6  1  0  0  0
 10 11  2  0  0  0
 10 12  1  0  0  0
 12 13  1  0  0  0
  7  9  1  0  0  0
M  CHG 1   1   1
M  CHG 1   8  -1
M  END
> <minimizedAffinity>
-6.32292

$$$$
3PCJ_INO_M_550


 13 13  0  0  0  0  0  0  0  0999 V2000
   15.2435   13.1929   40.5318 N   0  0  0  0  0  0  0  0  0  0  0  0
   14.2133   12.4794   40.9296 C   0  0  0  0  0  0  0  0  0  0  0  0
   13.4365   12.8726   42.0074 C   0  0  0  0  0  0  0  0  0  0  0  0
   13.7618   14.0519   42.7053 C   0  0  0  0  0  0  0  0  0  0  0  0
   14.9079   14.7607   42.3066 C   0  0  0  0  0  0  0  0  0  0  0  0
   15.6227   14.3096   41.1813 C   0  0  0  0  0  0  0  0  0  0  0  0
   13.9116   11.4330   40.3454 O   0  0  0  0  0  0  0  0  0  0  0  0
   15.9831   12.7849   39.5132 O   0  0  0  0  0  0  0  0  0  0  0  0
   14.4188   11.1422   39.6132 H   0  0  0  0  0  0  0  0  0  0  0  0
   12.8729   14.5458   43.8657 C   0  0  0  0  0  0  0  0  0  0  0  0
   12.7608   13.8602   44.8705 O   0  0  0  0  0  0  0  0  0  0  0  0
   12.2804   15.6249   43.8138 O   0  0  0  0  0  0  0  0  0  0  0  0
   12.3547   16.1640   43.0511 H   0  0  0  0  0  0  0  0  0  0  0  0
  1  2  1  0  0  0
  1  6  2  0  0  0
  1  8  1  0  0  0
  2  3  2  0  0  0
  2  7  1  0  0  0
  3  4  1  0  0  0
  4  5  2  0  0  0
  4 10  1  0  0  0
  5  6  1  0  0  0
 10 11  2  0  0  0
 10 12  1  0  0  0
 12 13  1  0  0  0
  7  9  1  0  0  0
M  CHG 1   1   1
M  CHG 1   8  -1
M  END
> <minimizedAffinity>
-6.19161

$$$$
3PCJ_INO_M_550


 13 13  0  0  0  0  0  0  0  0999 V2000
   13.8742   10.7646   40.7491 N   0  0  0  0  0  0  0  0  0  0  0  0
   13.3111   10.4973   41.9068 C   0  0  0  0  0  0  0  0  0  0  0  0
   13.0619   11.4951   42.8351 C   0  0  0  0  0  0  0  0  0  0  0  0
   13.4319   12.8227   42.5451 C   0  0  0  0  0  0  0  0  0  0  0  0
   14.0957   13.0736   41.3321 C   0  0  0  0  0  0  0  0  0  0  0  0
   14.2808   12.0081   40.4314 C   0  0  0  0  0  0  0  0  0  0  0  0
   12.9878    9.3399   42.1950 O   0  0  0  0  0  0  0  0  0  0  0  0
   14.1217    9.7908   39.8879 O   0  0  0  0  0  0  0  0  0  0  0  0
   13.1441    8.6445   41.5867 H   0  0  0  0  0  0  0  0  0  0  0  0
   13.1043   13.9610   43.5339 C   0  0  0  0  0  0  0  0  0  0  0  0
   13.0819   15.1154   43.1352 O   0  0  0  0  0  0  0  0  0  0  0  0
   12.8490   13.7367   44.7182 O   0  0  0  0  0  0  0  0  0  0  0  0
   12.8613   12.8575   45.0418 H   0  0  0  0  0  0  0  0  0  0  0  0
  1  2  1  0  0  0
  1  6  2  0  0  0
  1  8  1  0  0  0
  2  3  2  0  0  0
  2  7  1  0  0  0
  3  4  1  0  0  0
  4  5  2  0  0  0
  4 10  1  0  0  0
  5  6  1  0  0  0
 10 11  2  0  0  0
 10 12  1  0  0  0
 12 13  1  0  0  0
  7  9  1  0  0  0
M  CHG 1   1   1
M  CHG 1   8  -1
M  END
> <minimizedAffinity>
-6.11983

$$$$
3PCJ_INO_M_550


 13 13  0  0  0  0  0  0  0  0999 V2000
   15.3703   14.6792   41.4505 N   0  0  0  0  0  0  0  0  0  0  0  0
   14.3284   14.2931   42.1533 C   0  0  0  0  0  0  0  0  0  0  0  0
   13.7341   13.0592   41.9438 C   0  0  0  0  0  0  0  0  0  0  0  0
   14.2422   12.2030   40.9476 C   0  0  0  0  0  0  0  0  0  0  0  0
   15.3115   12.6653   40.1616 C   0  0  0  0  0  0  0  0  0  0  0  0
   15.8772   13.9185   40.4621 C   0  0  0  0  0  0  0  0  0  0  0  0
   13.8520   15.0283   43.0250 O   0  0  0  0  0  0  0  0  0  0  0  0
   15.9068   15.8716   41.6545 O   0  0  0  0  0  0  0  0  0  0  0  0
   14.2331   15.8685   43.1888 H   0  0  0  0  0  0  0  0  0  0  0  0
   13.6401   10.7975   40.7412 C   0  0  0  0  0  0  0  0  0  0  0  0
   14.0835   10.0774   39.8597 O   0  0  0  0  0  0  0  0  0  0  0  0
   12.7289   10.3721   41.4532 O   0  0  0  0  0  0  0  0  0  0  0  0
   12.3764   10.9104   42.1343 H   0  0  0  0  0  0  0  0  0  0  0  0
  1  2  1  0  0  0
  1  6  2  0  0  0
  1  8  1  0  0  0
  2  3  2  0  0  0
  2  7  1  0  0  0
  3  4  1  0  0  0
  4  5  2  0  0  0
  4 10  1  0  0  0
  5  6  1  0  0  0
 10 11  2  0  0  0
 10 12  1  0  0  0
 12 13  1  0  0  0
  7  9  1  0  0  0
M  CHG 1   1   1
M  CHG 1   8  -1
M  END
> <minimizedAffinity>
-6.10169

$$$$
3PCJ_INO_M_550


 13 13  0  0  0  0  0  0  0  0999 V2000
   14.2599   12.3048   40.7976 N   0  0  0  0  0  0  0  0  0  0  0  0
   15.2871   13.0615   40.4800 C   0  0  0  0  0  0  0  0  0  0  0  0
   15.5806   14.2145   41.1899 C   0  0  0  0  0  0  0  0  0  0  0  0
   14.7557   14.5978   42.2652 C   0  0  0  0  0  0  0  0  0  0  0  0
   13.6237   13.8124   42.5421 C   0  0  0  0  0  0  0  0  0  0  0  0
   13.4167   12.6393   41.7925 C   0  0  0  0  0  0  0  0  0  0  0  0
   16.0209   12.7581   39.5330 O   0  0  0  0  0  0  0  0  0  0  0  0
   13.9875   11.2199   40.0905 O   0  0  0  0  0  0  0  0  0  0  0  0
   15.8469   11.9839   39.0348 H   0  0  0  0  0  0  0  0  0  0  0  0
   15.1004   15.8402   43.1126 C   0  0  0  0  0  0  0  0  0  0  0  0
   14.9661   15.7960   44.3260 O   0  0  0  0  0  0  0  0  0  0  0  0
   15.5233   16.8775   42.5993 O   0  0  0  0  0  0  0  0  0  0  0  0
   15.6327   16.9296   41.6702 H   0  0  0  0  0  0  0  0  0  0  0  0
  1  2  1  0  0  0
  1  6  2  0  0  0
  1  8  1  0  0  0
  2  3  2  0  0  0
  2  7  1  0  0  0
  3  4  1  0  0  0
  4  5  2  0  0  0
  4 10  1  0  0  0
  5  6  1  0  0  0
 10 11  2  0  0  0
 10 12  1  0  0  0
 12 13  1  0  0  0
  7  9  1  0  0  0
M  CHG 1   1   1
M  CHG 1   8  -1
M  END
> <minimizedAffinity>
-5.97680

$$$$
3PCJ_INO_M_550


 13 13  0  0  0  0  0  0  0  0999 V2000
   14.4680   12.1228   40.4557 N   0  0  0  0  0  0  0  0  0  0  0  0
   13.7746   12.5731   41.4779 C   0  0  0  0  0  0  0  0  0  0  0  0
   14.0901   13.7753   42.0900 C   0  0  0  0  0  0  0  0  0  0  0  0
   15.1852   14.5273   41.6222 C   0  0  0  0  0  0  0  0  0  0  0  0
   15.9544   13.9928   40.5745 C   0  0  0  0  0  0  0  0  0  0  0  0
   15.5455   12.7806   39.9879 C   0  0  0  0  0  0  0  0  0  0  0  0
   12.8167   11.9288   41.9192 O   0  0  0  0  0  0  0  0  0  0  0  0
   14.1603   10.9609   39.9018 O   0  0  0  0  0  0  0  0  0  0  0  0
   12.5801   11.1123   41.5252 H   0  0  0  0  0  0  0  0  0  0  0  0
   15.5151   15.9005   42.2436 C   0  0  0  0  0  0  0  0  0  0  0  0
   15.8741   16.8168   41.5200 O   0  0  0  0  0  0  0  0  0  0  0  0
   15.4126   16.1051   43.4543 O   0  0  0  0  0  0  0  0  0  0  0  0
   15.1385   15.4141   44.0247 H   0  0  0  0  0  0  0  0  0  0  0  0
  1  2  1  0  0  0
  1  6  2  0  0  0
  1  8  1  0  0  0
  2  3  2  0  0  0
  2  7  1  0  0  0
  3  4  1  0  0  0
  4  5  2  0  0  0
  4 10  1  0  0  0
  5  6  1  0  0  0
 10 11  2  0  0  0
 10 12  1  0  0  0
 12 13  1  0  0  0
  7  9  1  0  0  0
M  CHG 1   1   1
M  CHG 1   8  -1
M  END
> <minimizedAffinity>
-5.93395

$$$$
3PCJ_INO_M_550


 13 13  0  0  0  0  0  0  0  0999 V2000
   15.6685   16.4866   41.2876 N   0  0  0  0  0  0  0  0  0  0  0  0
   15.8757   15.2249   40.9815 C   0  0  0  0  0  0  0  0  0  0  0  0
   15.1501   14.2085   41.5815 C   0  0  0  0  0  0  0  0  0  0  0  0
   14.1801   14.5262   42.5519 C   0  0  0  0  0  0  0  0  0  0  0  0
   14.0249   15.8751   42.9141 C   0  0  0  0  0  0  0  0  0  0  0  0
   14.7798   16.8478   42.2323 C   0  0  0  0  0  0  0  0  0  0  0  0
   16.7296   14.9145   40.1437 O   0  0  0  0  0  0  0  0  0  0  0  0
   16.3896   17.4380   40.7166 O   0  0  0  0  0  0  0  0  0  0  0  0
   17.2356   15.5806   39.7215 H   0  0  0  0  0  0  0  0  0  0  0  0
   13.3131   13.4178   43.1847 C   0  0  0  0  0  0  0  0  0  0  0  0
   12.9600   12.4680   42.5025 O   0  0  0  0  0  0  0  0  0  0  0  0
   12.9761   13.4560   44.3693 O   0  0  0  0  0  0  0  0  0  0  0  0
   13.2377   14.1768   44.9078 H   0  0  0  0  0  0  0  0  0  0  0  0
  1  2  1  0  0  0
  1  6  2  0  0  0
  1  8  1  0  0  0
  2  3  2  0  0  0
  2  7  1  0  0  0
  3  4  1  0  0  0
  4  5  2  0  0  0
  4 10  1  0  0  0
  5  6  1  0  0  0
 10 11  2  0  0  0
 10 12  1  0  0  0
 12 13  1  0  0  0
  7  9  1  0  0  0
M  CHG 1   1   1
M  CHG 1   8  -1
M  END
> <minimizedAffinity>
-5.81194

$$$$
3PCJ_INO_M_550


 13 13  0  0  0  0  0  0  0  0999 V2000
   14.3794   11.1010   40.4281 N   0  0  0  0  0  0  0  0  0  0  0  0
   14.8572   12.3254   40.3930 C   0  0  0  0  0  0  0  0  0  0  0  0
   14.4730   13.2766   41.3242 C   0  0  0  0  0  0  0  0  0  0  0  0
   13.5395   12.9353   42.3220 C   0  0  0  0  0  0  0  0  0  0  0  0
   12.9894   11.6423   42.2977 C   0  0  0  0  0  0  0  0  0  0  0  0
   13.4587   10.7275   41.3366 C   0  0  0  0  0  0  0  0  0  0  0  0
   15.6674   12.6581   39.5211 O   0  0  0  0  0  0  0  0  0  0  0  0
   14.7452   10.2166   39.5142 O   0  0  0  0  0  0  0  0  0  0  0  0
   15.9455   12.0360   38.8780 H   0  0  0  0  0  0  0  0  0  0  0  0
   13.1472   13.9567   43.4100 C   0  0  0  0  0  0  0  0  0  0  0  0
   13.0208   15.1343   43.1110 O   0  0  0  0  0  0  0  0  0  0  0  0
   12.9427   13.6147   44.5759 O   0  0  0  0  0  0  0  0  0  0  0  0
   13.0349   12.7158   44.8236 H   0  0  0  0  0  0  0  0  0  0  0  0
  1  2  1  0  0  0
  1  6  2  0  0  0
  1  8  1  0  0  0
  2  3  2  0  0  0
  2  7  1  0  0  0
  3  4  1  0  0  0
  4  5  2  0  0  0
  4 10  1  0  0  0
  5  6  1  0  0  0
 10 11  2  0  0  0
 10 12  1  0  0  0
 12 13  1  0  0  0
  7  9  1  0  0  0
M  CHG 1   1   1
M  CHG 1   8  -1
M  END
> <minimizedAffinity>
-5.81150

$$$$
