4OC0_2R7_A_818


 33 34  0  0  0  0  0  0  0  0999 V2000
   20.0519   44.3593   44.5006 C   0  0  0  0  0  0  0  0  0  0  0  0
   17.4786   45.6210   42.2147 N   0  0  0  0  0  0  0  0  0  0  0  0
   18.2324   44.6663   42.8269 C   0  0  0  0  0  0  0  0  0  0  0  0
   18.0766   43.4501   42.6277 O   0  0  0  0  0  0  0  0  0  0  0  0
   19.0850   45.1316   43.7550 N   0  0  0  0  0  0  0  0  0  0  0  0
   17.5371   46.5487   42.5390 H   0  0  0  0  0  0  0  0  0  0  0  0
   19.0470   46.0966   43.9465 H   0  0  0  0  0  0  0  0  0  0  0  0
   16.5230   46.4292   40.0519 C   0  0  0  0  0  0  0  0  0  0  0  0
   17.1282   45.0656   39.7810 C   0  0  0  0  0  0  0  0  0  0  0  0
   16.5663   45.3179   41.0705 C   0  0  0  0  0  0  0  0  0  0  0  0
   15.2758   44.9789   41.6195 C   0  0  0  0  0  0  0  0  0  0  0  0
   14.4926   45.9424   41.8468 O   0  0  0  0  0  0  0  0  0  0  0  0
   15.0141   43.7826   41.8156 O   0  0  0  0  0  0  0  0  0  0  0  0
   15.6526   43.1253   41.6202 H   0  0  0  0  0  0  0  0  0  0  0  0
   20.0995   44.9725   45.9278 C   0  0  0  0  0  0  0  0  0  0  0  0
   20.2388   44.1091   46.8496 O   0  0  0  0  0  0  0  0  0  0  0  0
   19.9909   46.2635   46.0379 O   0  0  0  0  0  0  0  0  0  0  0  0
   20.3061   43.1998   46.6335 H   0  0  0  0  0  0  0  0  0  0  0  0
   21.3803   44.7222   43.7238 C   0  0  0  0  0  0  0  0  0  0  0  0
   21.4756   46.0622   42.9882 C   0  0  0  0  0  0  0  0  0  0  0  0
   22.8855   46.1833   42.3194 C   0  0  0  0  0  0  0  0  0  0  0  0
   23.5141   47.6033   42.4457 C   0  0  0  0  0  0  0  0  0  0  0  0
   23.6334   48.0484   43.8646 N   0  0  0  0  0  0  0  0  0  0  0  0
   22.9601   49.0898   44.3901 C   0  0  0  0  0  0  0  0  0  0  0  0
   22.1450   49.7422   43.7227 O   0  0  0  0  0  0  0  0  0  0  0  0
   24.2432   47.5490   44.4545 H   0  0  0  0  0  0  0  0  0  0  0  0
   23.0883   49.3490   45.9353 C   0  0  0  0  0  0  0  0  0  0  0  0
   23.1511   48.2677   46.8455 C   0  0  0  0  0  0  0  0  0  0  0  0
   23.2941   48.4806   48.2407 C   0  0  0  0  0  0  0  0  0  0  0  0
   23.4074   49.7600   48.8095 C   0  0  0  0  0  0  0  0  0  0  0  0
   23.6524   50.0538   50.9815 I   0  0  0  0  0  0  0  0  0  0  0  0
   23.3567   50.8319   47.8968 C   0  0  0  0  0  0  0  0  0  0  0  0
   23.2062   50.6389   46.4913 C   0  0  0  0  0  0  0  0  0  0  0  0
 12 11  2  0  0  0
 13 11  1  0  0  0
 11 10  1  0  0  0
  9 10  1  0  0  0
  9  8  1  0  0  0
 10  8  1  0  0  0
 10  2  1  0  0  0
  4  3  2  0  0  0
  2  3  1  0  0  0
 21 22  1  0  0  0
 21 20  1  0  0  0
 22 23  1  0  0  0
  3  5  1  0  0  0
 19 20  1  0  0  0
 19  1  1  0  0  0
  5  1  1  0  0  0
 25 24  2  0  0  0
 23 24  1  0  0  0
  1 15  1  0  0  0
 24 27  1  0  0  0
 15 17  2  0  0  0
 15 16  1  0  0  0
 27 28  2  0  0  0
 27 33  1  0  0  0
 28 29  1  0  0  0
 33 32  2  0  0  0
 29 30  2  0  0  0
 32 30  1  0  0  0
 30 31  1  0  0  0
 13 14  1  0  0  0
  2  6  1  0  0  0
  5  7  1  0  0  0
 16 18  1  0  0  0
 23 26  1  0  0  0
M  END
> <minimizedAffinity>
-10.31266

$$$$
4OC0_2R7_A_818


 33 34  0  0  0  0  0  0  0  0999 V2000
   19.9357   45.2438   43.8094 C   0  0  0  0  0  0  0  0  0  0  0  0
   17.0015   45.7602   41.6733 N   0  0  0  0  0  0  0  0  0  0  0  0
   17.9355   45.0272   42.3404 C   0  0  0  0  0  0  0  0  0  0  0  0
   17.9288   43.7852   42.3669 O   0  0  0  0  0  0  0  0  0  0  0  0
   18.8035   45.7495   43.0680 N   0  0  0  0  0  0  0  0  0  0  0  0
   16.9641   46.7316   41.8291 H   0  0  0  0  0  0  0  0  0  0  0  0
   18.6529   46.7219   43.0992 H   0  0  0  0  0  0  0  0  0  0  0  0
   14.9850   44.3097   41.4024 C   0  0  0  0  0  0  0  0  0  0  0  0
   14.6810   45.6181   40.6991 C   0  0  0  0  0  0  0  0  0  0  0  0
   16.0312   45.1502   40.7143 C   0  0  0  0  0  0  0  0  0  0  0  0
   16.7925   44.4350   39.7190 C   0  0  0  0  0  0  0  0  0  0  0  0
   16.1942   43.4971   39.1225 O   0  0  0  0  0  0  0  0  0  0  0  0
   17.9612   44.7894   39.5034 O   0  0  0  0  0  0  0  0  0  0  0  0
   18.3336   45.4976   39.9911 H   0  0  0  0  0  0  0  0  0  0  0  0
   19.9210   45.9678   45.1845 C   0  0  0  0  0  0  0  0  0  0  0  0
   19.4532   47.1482   45.1345 O   0  0  0  0  0  0  0  0  0  0  0  0
   20.3772   45.3210   46.2161 O   0  0  0  0  0  0  0  0  0  0  0  0
   19.1545   47.4996   44.3189 H   0  0  0  0  0  0  0  0  0  0  0  0
   21.1310   45.7950   42.9335 C   0  0  0  0  0  0  0  0  0  0  0  0
   22.5478   45.2705   43.1848 C   0  0  0  0  0  0  0  0  0  0  0  0
   23.5586   46.0735   42.2999 C   0  0  0  0  0  0  0  0  0  0  0  0
   23.4810   47.6154   42.5098 C   0  0  0  0  0  0  0  0  0  0  0  0
   23.5976   48.0004   43.9465 N   0  0  0  0  0  0  0  0  0  0  0  0
   23.2106   49.1904   44.4447 C   0  0  0  0  0  0  0  0  0  0  0  0
   22.6817   50.0545   43.7314 O   0  0  0  0  0  0  0  0  0  0  0  0
   23.9820   47.3427   44.5701 H   0  0  0  0  0  0  0  0  0  0  0  0
   23.2706   49.3944   46.0023 C   0  0  0  0  0  0  0  0  0  0  0  0
   23.5031   48.2976   46.8652 C   0  0  0  0  0  0  0  0  0  0  0  0
   23.5879   48.4657   48.2713 C   0  0  0  0  0  0  0  0  0  0  0  0
   23.4739   49.7176   48.8981 C   0  0  0  0  0  0  0  0  0  0  0  0
   23.6342   49.9459   51.0858 I   0  0  0  0  0  0  0  0  0  0  0  0
   23.2550   50.8073   48.0326 C   0  0  0  0  0  0  0  0  0  0  0  0
   23.1598   50.6581   46.6170 C   0  0  0  0  0  0  0  0  0  0  0  0
 12 11  2  0  0  0
 13 11  1  0  0  0
 11 10  1  0  0  0
  9 10  1  0  0  0
  9  8  1  0  0  0
 10  8  1  0  0  0
 10  2  1  0  0  0
  4  3  2  0  0  0
  2  3  1  0  0  0
 21 22  1  0  0  0
 21 20  1  0  0  0
 22 23  1  0  0  0
  3  5  1  0  0  0
 19 20  1  0  0  0
 19  1  1  0  0  0
  5  1  1  0  0  0
 25 24  2  0  0  0
 23 24  1  0  0  0
  1 15  1  0  0  0
 24 27  1  0  0  0
 15 17  2  0  0  0
 15 16  1  0  0  0
 27 28  2  0  0  0
 27 33  1  0  0  0
 28 29  1  0  0  0
 33 32  2  0  0  0
 29 30  2  0  0  0
 32 30  1  0  0  0
 30 31  1  0  0  0
 13 14  1  0  0  0
  2  6  1  0  0  0
  5  7  1  0  0  0
 16 18  1  0  0  0
 23 26  1  0  0  0
M  END
> <minimizedAffinity>
-9.74916

$$$$
4OC0_2R7_A_818


 33 34  0  0  0  0  0  0  0  0999 V2000
   19.4856   44.4597   43.7209 C   0  0  0  0  0  0  0  0  0  0  0  0
   16.2993   45.4571   42.2071 N   0  0  0  0  0  0  0  0  0  0  0  0
   17.5393   44.8947   42.2280 C   0  0  0  0  0  0  0  0  0  0  0  0
   18.0350   44.3124   41.2490 O   0  0  0  0  0  0  0  0  0  0  0  0
   18.1461   44.9138   43.4264 N   0  0  0  0  0  0  0  0  0  0  0  0
   15.9003   45.7522   43.0574 H   0  0  0  0  0  0  0  0  0  0  0  0
   17.6252   45.2738   44.1803 H   0  0  0  0  0  0  0  0  0  0  0  0
   14.4683   46.7192   41.0676 C   0  0  0  0  0  0  0  0  0  0  0  0
   15.6982   46.8438   40.1896 C   0  0  0  0  0  0  0  0  0  0  0  0
   15.5194   45.6446   40.9461 C   0  0  0  0  0  0  0  0  0  0  0  0
   14.9954   44.3565   40.5616 C   0  0  0  0  0  0  0  0  0  0  0  0
   15.2552   43.9734   39.3873 O   0  0  0  0  0  0  0  0  0  0  0  0
   14.3476   43.7097   41.3983 O   0  0  0  0  0  0  0  0  0  0  0  0
   14.1978   44.0658   42.2520 H   0  0  0  0  0  0  0  0  0  0  0  0
   19.4859   44.0266   45.2135 C   0  0  0  0  0  0  0  0  0  0  0  0
   19.0614   42.8439   45.4016 O   0  0  0  0  0  0  0  0  0  0  0  0
   19.9008   44.8875   46.0952 O   0  0  0  0  0  0  0  0  0  0  0  0
   18.7896   42.3221   44.6723 H   0  0  0  0  0  0  0  0  0  0  0  0
   20.2954   45.8081   43.5606 C   0  0  0  0  0  0  0  0  0  0  0  0
   21.6069   45.8047   42.7698 C   0  0  0  0  0  0  0  0  0  0  0  0
   22.6149   44.8183   43.4484 C   0  0  0  0  0  0  0  0  0  0  0  0
   23.2706   45.3903   44.7408 C   0  0  0  0  0  0  0  0  0  0  0  0
   23.2645   46.8819   44.7695 N   0  0  0  0  0  0  0  0  0  0  0  0
   22.5671   47.6188   45.6553 C   0  0  0  0  0  0  0  0  0  0  0  0
   21.8960   47.0934   46.5548 O   0  0  0  0  0  0  0  0  0  0  0  0
   23.8047   47.3580   44.0981 H   0  0  0  0  0  0  0  0  0  0  0  0
   22.7720   49.1774   45.6439 C   0  0  0  0  0  0  0  0  0  0  0  0
   22.3897   49.9473   44.5202 C   0  0  0  0  0  0  0  0  0  0  0  0
   22.5414   51.3576   44.5016 C   0  0  0  0  0  0  0  0  0  0  0  0
   23.0510   52.0845   45.5903 C   0  0  0  0  0  0  0  0  0  0  0  0
   23.2513   54.2801   45.5360 I   0  0  0  0  0  0  0  0  0  0  0  0
   23.4181   51.3136   46.7107 C   0  0  0  0  0  0  0  0  0  0  0  0
   23.2800   49.8941   46.7464 C   0  0  0  0  0  0  0  0  0  0  0  0
 12 11  2  0  0  0
 13 11  1  0  0  0
 11 10  1  0  0  0
  9 10  1  0  0  0
  9  8  1  0  0  0
 10  8  1  0  0  0
 10  2  1  0  0  0
  4  3  2  0  0  0
  2  3  1  0  0  0
 21 22  1  0  0  0
 21 20  1  0  0  0
 22 23  1  0  0  0
  3  5  1  0  0  0
 19 20  1  0  0  0
 19  1  1  0  0  0
  5  1  1  0  0  0
 25 24  2  0  0  0
 23 24  1  0  0  0
  1 15  1  0  0  0
 24 27  1  0  0  0
 15 17  2  0  0  0
 15 16  1  0  0  0
 27 28  2  0  0  0
 27 33  1  0  0  0
 28 29  1  0  0  0
 33 32  2  0  0  0
 29 30  2  0  0  0
 32 30  1  0  0  0
 30 31  1  0  0  0
 13 14  1  0  0  0
  2  6  1  0  0  0
  5  7  1  0  0  0
 16 18  1  0  0  0
 23 26  1  0  0  0
M  END
> <minimizedAffinity>
-9.31497

$$$$
4OC0_2R7_A_818


 33 34  0  0  0  0  0  0  0  0999 V2000
   20.1716   44.8347   44.2935 C   0  0  0  0  0  0  0  0  0  0  0  0
   17.3922   45.6886   42.0609 N   0  0  0  0  0  0  0  0  0  0  0  0
   18.2684   44.8545   42.6863 C   0  0  0  0  0  0  0  0  0  0  0  0
   18.2397   43.6197   42.5536 O   0  0  0  0  0  0  0  0  0  0  0  0
   19.0987   45.4576   43.5532 N   0  0  0  0  0  0  0  0  0  0  0  0
   17.3605   46.6331   42.3368 H   0  0  0  0  0  0  0  0  0  0  0  0
   18.9623   46.4217   43.6987 H   0  0  0  0  0  0  0  0  0  0  0  0
   16.4110   46.1986   39.8201 C   0  0  0  0  0  0  0  0  0  0  0  0
   17.0335   44.8194   39.7221 C   0  0  0  0  0  0  0  0  0  0  0  0
   16.4766   45.2285   40.9730 C   0  0  0  0  0  0  0  0  0  0  0  0
   15.1947   44.9463   41.5718 C   0  0  0  0  0  0  0  0  0  0  0  0
   14.5334   45.9424   41.9765 O   0  0  0  0  0  0  0  0  0  0  0  0
   14.8212   43.7655   41.6365 O   0  0  0  0  0  0  0  0  0  0  0  0
   15.3731   43.0811   41.3126 H   0  0  0  0  0  0  0  0  0  0  0  0
   20.1175   45.4263   45.7297 C   0  0  0  0  0  0  0  0  0  0  0  0
   19.9789   46.6891   45.7563 O   0  0  0  0  0  0  0  0  0  0  0  0
   20.2206   44.6021   46.7300 O   0  0  0  0  0  0  0  0  0  0  0  0
   19.9160   47.1705   44.9549 H   0  0  0  0  0  0  0  0  0  0  0  0
   21.4300   45.4123   43.5301 C   0  0  0  0  0  0  0  0  0  0  0  0
   22.6139   44.4879   43.2309 C   0  0  0  0  0  0  0  0  0  0  0  0
   23.6691   44.6143   44.3798 C   0  0  0  0  0  0  0  0  0  0  0  0
   24.6821   45.7791   44.1689 C   0  0  0  0  0  0  0  0  0  0  0  0
   24.1096   47.1053   44.5418 N   0  0  0  0  0  0  0  0  0  0  0  0
   23.7192   48.0381   43.6521 C   0  0  0  0  0  0  0  0  0  0  0  0
   23.7747   47.8371   42.4307 O   0  0  0  0  0  0  0  0  0  0  0  0
   24.0109   47.3119   45.4993 H   0  0  0  0  0  0  0  0  0  0  0  0
   23.0082   49.3292   44.1987 C   0  0  0  0  0  0  0  0  0  0  0  0
   21.6149   49.5105   44.0331 C   0  0  0  0  0  0  0  0  0  0  0  0
   20.9506   50.6556   44.5431 C   0  0  0  0  0  0  0  0  0  0  0  0
   21.6131   51.6654   45.2606 C   0  0  0  0  0  0  0  0  0  0  0  0
   20.5447   53.4213   46.0599 I   0  0  0  0  0  0  0  0  0  0  0  0
   22.9979   51.4729   45.4329 C   0  0  0  0  0  0  0  0  0  0  0  0
   23.6853   50.3321   44.9218 C   0  0  0  0  0  0  0  0  0  0  0  0
 12 11  2  0  0  0
 13 11  1  0  0  0
 11 10  1  0  0  0
  9 10  1  0  0  0
  9  8  1  0  0  0
 10  8  1  0  0  0
 10  2  1  0  0  0
  4  3  2  0  0  0
  2  3  1  0  0  0
 21 22  1  0  0  0
 21 20  1  0  0  0
 22 23  1  0  0  0
  3  5  1  0  0  0
 19 20  1  0  0  0
 19  1  1  0  0  0
  5  1  1  0  0  0
 25 24  2  0  0  0
 23 24  1  0  0  0
  1 15  1  0  0  0
 24 27  1  0  0  0
 15 17  2  0  0  0
 15 16  1  0  0  0
 27 28  2  0  0  0
 27 33  1  0  0  0
 28 29  1  0  0  0
 33 32  2  0  0  0
 29 30  2  0  0  0
 32 30  1  0  0  0
 30 31  1  0  0  0
 13 14  1  0  0  0
  2  6  1  0  0  0
  5  7  1  0  0  0
 16 18  1  0  0  0
 23 26  1  0  0  0
M  END
> <minimizedAffinity>
-8.84450

$$$$
4OC0_2R7_A_818


 33 34  0  0  0  0  0  0  0  0999 V2000
   25.5395   45.6494   44.7579 C   0  0  0  0  0  0  0  0  0  0  0  0
   24.0167   48.9818   44.8834 N   0  0  0  0  0  0  0  0  0  0  0  0
   24.1370   47.6614   45.1945 C   0  0  0  0  0  0  0  0  0  0  0  0
   23.3830   47.0832   45.9947 O   0  0  0  0  0  0  0  0  0  0  0  0
   25.2076   47.0520   44.6587 N   0  0  0  0  0  0  0  0  0  0  0  0
   24.7415   49.4156   44.3776 H   0  0  0  0  0  0  0  0  0  0  0  0
   25.8289   47.6185   44.1465 H   0  0  0  0  0  0  0  0  0  0  0  0
   22.3480   50.6986   44.1679 C   0  0  0  0  0  0  0  0  0  0  0  0
   21.5602   49.5121   44.6881 C   0  0  0  0  0  0  0  0  0  0  0  0
   22.8295   49.7990   45.2785 C   0  0  0  0  0  0  0  0  0  0  0  0
   23.1677   50.5008   46.4929 C   0  0  0  0  0  0  0  0  0  0  0  0
   22.9754   49.8768   47.5731 O   0  0  0  0  0  0  0  0  0  0  0  0
   23.6329   51.6468   46.4018 O   0  0  0  0  0  0  0  0  0  0  0  0
   23.7449   52.0413   45.5593 H   0  0  0  0  0  0  0  0  0  0  0  0
   26.9949   45.5028   44.2326 C   0  0  0  0  0  0  0  0  0  0  0  0
   27.2987   46.3442   43.3303 O   0  0  0  0  0  0  0  0  0  0  0  0
   27.7335   44.5635   44.7452 O   0  0  0  0  0  0  0  0  0  0  0  0
   26.6674   46.9761   43.0472 H   0  0  0  0  0  0  0  0  0  0  0  0
   24.5325   45.0336   43.7060 C   0  0  0  0  0  0  0  0  0  0  0  0
   23.8415   43.7035   44.0205 C   0  0  0  0  0  0  0  0  0  0  0  0
   23.6580   43.5720   45.5693 C   0  0  0  0  0  0  0  0  0  0  0  0
   22.3429   42.8448   45.9806 C   0  0  0  0  0  0  0  0  0  0  0  0
   21.2104   43.1532   45.0597 N   0  0  0  0  0  0  0  0  0  0  0  0
   20.2626   44.0771   45.3089 C   0  0  0  0  0  0  0  0  0  0  0  0
   20.2895   44.7793   46.3295 O   0  0  0  0  0  0  0  0  0  0  0  0
   21.1522   42.6493   44.2159 H   0  0  0  0  0  0  0  0  0  0  0  0
   19.2133   44.3830   44.1789 C   0  0  0  0  0  0  0  0  0  0  0  0
   19.4333   45.4312   43.2546 C   0  0  0  0  0  0  0  0  0  0  0  0
   18.5117   45.7053   42.2115 C   0  0  0  0  0  0  0  0  0  0  0  0
   17.3438   44.9517   42.0080 C   0  0  0  0  0  0  0  0  0  0  0  0
   15.9442   45.3909   40.3611 I   0  0  0  0  0  0  0  0  0  0  0  0
   17.1368   43.9017   42.9240 C   0  0  0  0  0  0  0  0  0  0  0  0
   18.0478   43.6145   43.9836 C   0  0  0  0  0  0  0  0  0  0  0  0
 12 11  2  0  0  0
 13 11  1  0  0  0
 11 10  1  0  0  0
  9 10  1  0  0  0
  9  8  1  0  0  0
 10  8  1  0  0  0
 10  2  1  0  0  0
  4  3  2  0  0  0
  2  3  1  0  0  0
 21 22  1  0  0  0
 21 20  1  0  0  0
 22 23  1  0  0  0
  3  5  1  0  0  0
 19 20  1  0  0  0
 19  1  1  0  0  0
  5  1  1  0  0  0
 25 24  2  0  0  0
 23 24  1  0  0  0
  1 15  1  0  0  0
 24 27  1  0  0  0
 15 17  2  0  0  0
 15 16  1  0  0  0
 27 28  2  0  0  0
 27 33  1  0  0  0
 28 29  1  0  0  0
 33 32  2  0  0  0
 29 30  2  0  0  0
 32 30  1  0  0  0
 30 31  1  0  0  0
 13 14  1  0  0  0
  2  6  1  0  0  0
  5  7  1  0  0  0
 16 18  1  0  0  0
 23 26  1  0  0  0
M  END
> <minimizedAffinity>
-8.67477

$$$$
4OC0_2R7_A_818


 33 34  0  0  0  0  0  0  0  0999 V2000
   23.8846   45.4983   42.8230 C   0  0  0  0  0  0  0  0  0  0  0  0
   22.3151   48.2984   44.5937 N   0  0  0  0  0  0  0  0  0  0  0  0
   23.0329   47.7071   43.5989 C   0  0  0  0  0  0  0  0  0  0  0  0
   23.4789   48.3323   42.6225 O   0  0  0  0  0  0  0  0  0  0  0  0
   23.1264   46.3701   43.6904 N   0  0  0  0  0  0  0  0  0  0  0  0
   21.8505   47.7252   45.2456 H   0  0  0  0  0  0  0  0  0  0  0  0
   22.6278   45.9408   44.4228 H   0  0  0  0  0  0  0  0  0  0  0  0
   22.8109   50.2891   46.0203 C   0  0  0  0  0  0  0  0  0  0  0  0
   23.3863   50.5796   44.6479 C   0  0  0  0  0  0  0  0  0  0  0  0
   22.2040   49.7819   44.7363 C   0  0  0  0  0  0  0  0  0  0  0  0
   20.8147   50.1333   44.5687 C   0  0  0  0  0  0  0  0  0  0  0  0
   19.9961   49.1740   44.5163 O   0  0  0  0  0  0  0  0  0  0  0  0
   20.5140   51.3347   44.5036 O   0  0  0  0  0  0  0  0  0  0  0  0
   21.1836   51.9885   44.5503 H   0  0  0  0  0  0  0  0  0  0  0  0
   23.1278   45.4600   41.4661 C   0  0  0  0  0  0  0  0  0  0  0  0
   23.8957   45.4509   40.4538 O   0  0  0  0  0  0  0  0  0  0  0  0
   21.8280   45.4465   41.4962 O   0  0  0  0  0  0  0  0  0  0  0  0
   24.8253   45.4629   40.5708 H   0  0  0  0  0  0  0  0  0  0  0  0
   23.7069   44.1150   43.5677 C   0  0  0  0  0  0  0  0  0  0  0  0
   23.3617   44.1065   45.0598 C   0  0  0  0  0  0  0  0  0  0  0  0
   22.9551   42.6565   45.4860 C   0  0  0  0  0  0  0  0  0  0  0  0
   21.5173   42.5622   46.0786 C   0  0  0  0  0  0  0  0  0  0  0  0
   20.4679   42.9420   45.0886 N   0  0  0  0  0  0  0  0  0  0  0  0
   19.7643   44.0895   45.1345 C   0  0  0  0  0  0  0  0  0  0  0  0
   19.9735   44.9479   46.0033 O   0  0  0  0  0  0  0  0  0  0  0  0
   20.2776   42.3138   44.3548 H   0  0  0  0  0  0  0  0  0  0  0  0
   18.7910   44.4080   43.9418 C   0  0  0  0  0  0  0  0  0  0  0  0
   19.0430   45.4983   43.0761 C   0  0  0  0  0  0  0  0  0  0  0  0
   18.1917   45.7854   41.9783 C   0  0  0  0  0  0  0  0  0  0  0  0
   17.0676   45.0052   41.6603 C   0  0  0  0  0  0  0  0  0  0  0  0
   15.7785   45.4666   39.9314 I   0  0  0  0  0  0  0  0  0  0  0  0
   16.8291   43.9138   42.5185 C   0  0  0  0  0  0  0  0  0  0  0  0
   17.6692   43.6127   43.6316 C   0  0  0  0  0  0  0  0  0  0  0  0
 12 11  2  0  0  0
 13 11  1  0  0  0
 11 10  1  0  0  0
  9 10  1  0  0  0
  9  8  1  0  0  0
 10  8  1  0  0  0
 10  2  1  0  0  0
  4  3  2  0  0  0
  2  3  1  0  0  0
 21 22  1  0  0  0
 21 20  1  0  0  0
 22 23  1  0  0  0
  3  5  1  0  0  0
 19 20  1  0  0  0
 19  1  1  0  0  0
  5  1  1  0  0  0
 25 24  2  0  0  0
 23 24  1  0  0  0
  1 15  1  0  0  0
 24 27  1  0  0  0
 15 17  2  0  0  0
 15 16  1  0  0  0
 27 28  2  0  0  0
 27 33  1  0  0  0
 28 29  1  0  0  0
 33 32  2  0  0  0
 29 30  2  0  0  0
 32 30  1  0  0  0
 30 31  1  0  0  0
 13 14  1  0  0  0
  2  6  1  0  0  0
  5  7  1  0  0  0
 16 18  1  0  0  0
 23 26  1  0  0  0
M  END
> <minimizedAffinity>
-8.56558

$$$$
4OC0_2R7_A_818


 33 34  0  0  0  0  0  0  0  0999 V2000
   22.4195   45.2880   44.7128 C   0  0  0  0  0  0  0  0  0  0  0  0
   23.3533   48.7557   45.4492 N   0  0  0  0  0  0  0  0  0  0  0  0
   22.5446   47.6601   45.4635 C   0  0  0  0  0  0  0  0  0  0  0  0
   21.4447   47.6381   46.0405 O   0  0  0  0  0  0  0  0  0  0  0  0
   23.0761   46.5608   44.9033 N   0  0  0  0  0  0  0  0  0  0  0  0
   24.2767   48.6568   45.1225 H   0  0  0  0  0  0  0  0  0  0  0  0
   24.0072   46.6294   44.5910 H   0  0  0  0  0  0  0  0  0  0  0  0
   23.4213   51.2206   45.0446 C   0  0  0  0  0  0  0  0  0  0  0  0
   21.9583   50.8280   45.1120 C   0  0  0  0  0  0  0  0  0  0  0  0
   22.8961   50.1021   45.9093 C   0  0  0  0  0  0  0  0  0  0  0  0
   23.2458   50.2287   47.3033 C   0  0  0  0  0  0  0  0  0  0  0  0
   24.0900   49.4017   47.7469 O   0  0  0  0  0  0  0  0  0  0  0  0
   22.7173   51.1355   47.9639 O   0  0  0  0  0  0  0  0  0  0  0  0
   22.0974   51.7098   47.5592 H   0  0  0  0  0  0  0  0  0  0  0  0
   23.5467   44.2335   44.5316 C   0  0  0  0  0  0  0  0  0  0  0  0
   24.1579   43.9499   45.6089 O   0  0  0  0  0  0  0  0  0  0  0  0
   23.7520   43.7635   43.3368 O   0  0  0  0  0  0  0  0  0  0  0  0
   23.9091   44.3642   46.4117 H   0  0  0  0  0  0  0  0  0  0  0  0
   21.6970   45.5340   43.3281 C   0  0  0  0  0  0  0  0  0  0  0  0
   20.1696   45.6386   43.2884 C   0  0  0  0  0  0  0  0  0  0  0  0
   19.5723   44.9366   44.5533 C   0  0  0  0  0  0  0  0  0  0  0  0
   18.2593   44.1485   44.2658 C   0  0  0  0  0  0  0  0  0  0  0  0
   17.3219   44.9065   43.3870 N   0  0  0  0  0  0  0  0  0  0  0  0
   17.0997   44.6177   42.0904 C   0  0  0  0  0  0  0  0  0  0  0  0
   17.6443   43.6531   41.5352 O   0  0  0  0  0  0  0  0  0  0  0  0
   16.8345   45.6664   43.7800 H   0  0  0  0  0  0  0  0  0  0  0  0
   15.9800   45.4223   41.3352 C   0  0  0  0  0  0  0  0  0  0  0  0
   16.3121   46.5331   40.5244 C   0  0  0  0  0  0  0  0  0  0  0  0
   15.3192   47.2551   39.8134 C   0  0  0  0  0  0  0  0  0  0  0  0
   13.9578   46.9100   39.8421 C   0  0  0  0  0  0  0  0  0  0  0  0
   12.4434   48.0406   38.7055 I   0  0  0  0  0  0  0  0  0  0  0  0
   13.6353   45.7956   40.6413 C   0  0  0  0  0  0  0  0  0  0  0  0
   14.6179   45.0609   41.3692 C   0  0  0  0  0  0  0  0  0  0  0  0
 12 11  2  0  0  0
 13 11  1  0  0  0
 11 10  1  0  0  0
  9 10  1  0  0  0
  9  8  1  0  0  0
 10  8  1  0  0  0
 10  2  1  0  0  0
  4  3  2  0  0  0
  2  3  1  0  0  0
 21 22  1  0  0  0
 21 20  1  0  0  0
 22 23  1  0  0  0
  3  5  1  0  0  0
 19 20  1  0  0  0
 19  1  1  0  0  0
  5  1  1  0  0  0
 25 24  2  0  0  0
 23 24  1  0  0  0
  1 15  1  0  0  0
 24 27  1  0  0  0
 15 17  2  0  0  0
 15 16  1  0  0  0
 27 28  2  0  0  0
 27 33  1  0  0  0
 28 29  1  0  0  0
 33 32  2  0  0  0
 29 30  2  0  0  0
 32 30  1  0  0  0
 30 31  1  0  0  0
 13 14  1  0  0  0
  2  6  1  0  0  0
  5  7  1  0  0  0
 16 18  1  0  0  0
 23 26  1  0  0  0
M  END
> <minimizedAffinity>
-8.32204

$$$$
4OC0_2R7_A_818


 33 34  0  0  0  0  0  0  0  0999 V2000
   18.9071   44.5461   44.2786 C   0  0  0  0  0  0  0  0  0  0  0  0
   16.8759   43.8190   41.3147 N   0  0  0  0  0  0  0  0  0  0  0  0
   17.5300   44.6166   42.2038 C   0  0  0  0  0  0  0  0  0  0  0  0
   17.6013   45.8507   42.0811 O   0  0  0  0  0  0  0  0  0  0  0  0
   18.1951   43.9580   43.1675 N   0  0  0  0  0  0  0  0  0  0  0  0
   16.9982   42.8441   41.3760 H   0  0  0  0  0  0  0  0  0  0  0  0
   18.1975   42.9751   43.1109 H   0  0  0  0  0  0  0  0  0  0  0  0
   16.5943   45.5272   39.5128 C   0  0  0  0  0  0  0  0  0  0  0  0
   16.3354   44.1746   38.8783 C   0  0  0  0  0  0  0  0  0  0  0  0
   15.9801   44.3634   40.2495 C   0  0  0  0  0  0  0  0  0  0  0  0
   14.7087   44.6653   40.8612 C   0  0  0  0  0  0  0  0  0  0  0  0
   14.0560   45.6202   40.3556 O   0  0  0  0  0  0  0  0  0  0  0  0
   14.3348   43.9707   41.8180 O   0  0  0  0  0  0  0  0  0  0  0  0
   14.8799   43.2777   42.1352 H   0  0  0  0  0  0  0  0  0  0  0  0
   19.9032   45.5721   43.6701 C   0  0  0  0  0  0  0  0  0  0  0  0
   19.6908   46.7695   44.0386 O   0  0  0  0  0  0  0  0  0  0  0  0
   20.8222   45.1233   42.8672 O   0  0  0  0  0  0  0  0  0  0  0  0
   18.9876   46.9607   44.6275 H   0  0  0  0  0  0  0  0  0  0  0  0
   19.7030   43.2901   44.8159 C   0  0  0  0  0  0  0  0  0  0  0  0
   20.7695   43.4857   45.8976 C   0  0  0  0  0  0  0  0  0  0  0  0
   22.0084   42.5882   45.5675 C   0  0  0  0  0  0  0  0  0  0  0  0
   23.1625   43.3574   44.8576 C   0  0  0  0  0  0  0  0  0  0  0  0
   23.0804   44.8314   45.0728 N   0  0  0  0  0  0  0  0  0  0  0  0
   23.7116   45.7438   44.3093 C   0  0  0  0  0  0  0  0  0  0  0  0
   24.3903   45.4138   43.3266 O   0  0  0  0  0  0  0  0  0  0  0  0
   22.5297   45.1579   45.8207 H   0  0  0  0  0  0  0  0  0  0  0  0
   23.4159   47.2643   44.5780 C   0  0  0  0  0  0  0  0  0  0  0  0
   23.5696   47.8113   45.8737 C   0  0  0  0  0  0  0  0  0  0  0  0
   23.3340   49.1864   46.1305 C   0  0  0  0  0  0  0  0  0  0  0  0
   22.9608   50.0967   45.1278 C   0  0  0  0  0  0  0  0  0  0  0  0
   22.6253   52.2335   45.5581 I   0  0  0  0  0  0  0  0  0  0  0  0
   22.8216   49.5484   43.8376 C   0  0  0  0  0  0  0  0  0  0  0  0
   23.0471   48.1673   43.5603 C   0  0  0  0  0  0  0  0  0  0  0  0
 12 11  2  0  0  0
 13 11  1  0  0  0
 11 10  1  0  0  0
  9 10  1  0  0  0
  9  8  1  0  0  0
 10  8  1  0  0  0
 10  2  1  0  0  0
  4  3  2  0  0  0
  2  3  1  0  0  0
 21 22  1  0  0  0
 21 20  1  0  0  0
 22 23  1  0  0  0
  3  5  1  0  0  0
 19 20  1  0  0  0
 19  1  1  0  0  0
  5  1  1  0  0  0
 25 24  2  0  0  0
 23 24  1  0  0  0
  1 15  1  0  0  0
 24 27  1  0  0  0
 15 17  2  0  0  0
 15 16  1  0  0  0
 27 28  2  0  0  0
 27 33  1  0  0  0
 28 29  1  0  0  0
 33 32  2  0  0  0
 29 30  2  0  0  0
 32 30  1  0  0  0
 30 31  1  0  0  0
 13 14  1  0  0  0
  2  6  1  0  0  0
  5  7  1  0  0  0
 16 18  1  0  0  0
 23 26  1  0  0  0
M  END
> <minimizedAffinity>
-8.14431

$$$$
4OC0_2R7_A_818


 33 34  0  0  0  0  0  0  0  0999 V2000
   22.7814   46.1882   43.7040 C   0  0  0  0  0  0  0  0  0  0  0  0
   22.6817   48.5686   46.4902 N   0  0  0  0  0  0  0  0  0  0  0  0
   23.2775   47.7390   45.5895 C   0  0  0  0  0  0  0  0  0  0  0  0
   24.5094   47.6014   45.5076 O   0  0  0  0  0  0  0  0  0  0  0  0
   22.4377   47.1636   44.7129 N   0  0  0  0  0  0  0  0  0  0  0  0
   21.7208   48.7594   46.3928 H   0  0  0  0  0  0  0  0  0  0  0  0
   21.4924   47.4338   44.7631 H   0  0  0  0  0  0  0  0  0  0  0  0
   22.9125   48.7678   48.9704 C   0  0  0  0  0  0  0  0  0  0  0  0
   24.2788   48.3899   48.4323 C   0  0  0  0  0  0  0  0  0  0  0  0
   23.4271   49.2011   47.6206 C   0  0  0  0  0  0  0  0  0  0  0  0
   23.3996   50.6291   47.4164 C   0  0  0  0  0  0  0  0  0  0  0  0
   22.5958   51.0549   46.5413 O   0  0  0  0  0  0  0  0  0  0  0  0
   24.1421   51.3386   48.1117 O   0  0  0  0  0  0  0  0  0  0  0  0
   24.7121   50.9437   48.7418 H   0  0  0  0  0  0  0  0  0  0  0  0
   23.4100   46.9788   42.5228 C   0  0  0  0  0  0  0  0  0  0  0  0
   24.0456   46.2477   41.7006 O   0  0  0  0  0  0  0  0  0  0  0  0
   23.2356   48.2670   42.4935 O   0  0  0  0  0  0  0  0  0  0  0  0
   24.0962   45.3223   41.8385 H   0  0  0  0  0  0  0  0  0  0  0  0
   21.3447   45.6730   43.2913 C   0  0  0  0  0  0  0  0  0  0  0  0
   20.6985   44.5369   44.0895 C   0  0  0  0  0  0  0  0  0  0  0  0
   19.2403   44.9480   44.4822 C   0  0  0  0  0  0  0  0  0  0  0  0
   18.1464   44.0258   43.8655 C   0  0  0  0  0  0  0  0  0  0  0  0
   17.1332   44.7908   43.0818 N   0  0  0  0  0  0  0  0  0  0  0  0
   17.3038   45.1844   41.8051 C   0  0  0  0  0  0  0  0  0  0  0  0
   18.3252   44.8965   41.1654 O   0  0  0  0  0  0  0  0  0  0  0  0
   16.2859   45.0227   43.5262 H   0  0  0  0  0  0  0  0  0  0  0  0
   16.0895   45.8622   41.0721 C   0  0  0  0  0  0  0  0  0  0  0  0
   14.7887   45.3152   41.1736 C   0  0  0  0  0  0  0  0  0  0  0  0
   13.6757   45.9274   40.5421 C   0  0  0  0  0  0  0  0  0  0  0  0
   13.7778   47.1170   39.8019 C   0  0  0  0  0  0  0  0  0  0  0  0
   12.0219   48.0547   38.8524 I   0  0  0  0  0  0  0  0  0  0  0  0
   15.0733   47.6634   39.7150 C   0  0  0  0  0  0  0  0  0  0  0  0
   16.2062   47.0593   40.3368 C   0  0  0  0  0  0  0  0  0  0  0  0
 12 11  2  0  0  0
 13 11  1  0  0  0
 11 10  1  0  0  0
  9 10  1  0  0  0
  9  8  1  0  0  0
 10  8  1  0  0  0
 10  2  1  0  0  0
  4  3  2  0  0  0
  2  3  1  0  0  0
 21 22  1  0  0  0
 21 20  1  0  0  0
 22 23  1  0  0  0
  3  5  1  0  0  0
 19 20  1  0  0  0
 19  1  1  0  0  0
  5  1  1  0  0  0
 25 24  2  0  0  0
 23 24  1  0  0  0
  1 15  1  0  0  0
 24 27  1  0  0  0
 15 17  2  0  0  0
 15 16  1  0  0  0
 27 28  2  0  0  0
 27 33  1  0  0  0
 28 29  1  0  0  0
 33 32  2  0  0  0
 29 30  2  0  0  0
 32 30  1  0  0  0
 30 31  1  0  0  0
 13 14  1  0  0  0
  2  6  1  0  0  0
  5  7  1  0  0  0
 16 18  1  0  0  0
 23 26  1  0  0  0
M  END
> <minimizedAffinity>
-8.13061

$$$$
4OC0_2R7_A_818


 33 34  0  0  0  0  0  0  0  0999 V2000
   23.3200   46.5101   44.4369 C   0  0  0  0  0  0  0  0  0  0  0  0
   23.5795   49.9838   45.5793 N   0  0  0  0  0  0  0  0  0  0  0  0
   23.0418   48.7338   45.5248 C   0  0  0  0  0  0  0  0  0  0  0  0
   22.0784   48.3803   46.2249 O   0  0  0  0  0  0  0  0  0  0  0  0
   23.7049   47.8695   44.7387 N   0  0  0  0  0  0  0  0  0  0  0  0
   24.4388   50.1483   45.1279 H   0  0  0  0  0  0  0  0  0  0  0  0
   24.5373   48.1955   44.3265 H   0  0  0  0  0  0  0  0  0  0  0  0
   23.1447   52.4442   45.6187 C   0  0  0  0  0  0  0  0  0  0  0  0
   21.7939   51.7595   45.6930 C   0  0  0  0  0  0  0  0  0  0  0  0
   22.9182   51.1161   46.2964 C   0  0  0  0  0  0  0  0  0  0  0  0
   23.3585   51.0791   47.6699 C   0  0  0  0  0  0  0  0  0  0  0  0
   22.6331   50.4304   48.4738 O   0  0  0  0  0  0  0  0  0  0  0  0
   24.4115   51.6626   47.9676 O   0  0  0  0  0  0  0  0  0  0  0  0
   24.8936   52.1240   47.3097 H   0  0  0  0  0  0  0  0  0  0  0  0
   24.6041   45.7881   43.9418 C   0  0  0  0  0  0  0  0  0  0  0  0
   25.6777   46.2732   44.4179 O   0  0  0  0  0  0  0  0  0  0  0  0
   24.4617   44.7959   43.1136 O   0  0  0  0  0  0  0  0  0  0  0  0
   25.6418   46.9968   45.0120 H   0  0  0  0  0  0  0  0  0  0  0  0
   22.3412   46.7451   43.2177 C   0  0  0  0  0  0  0  0  0  0  0  0
   20.9247   46.1654   43.2717 C   0  0  0  0  0  0  0  0  0  0  0  0
   20.9504   44.8163   44.0647 C   0  0  0  0  0  0  0  0  0  0  0  0
   19.6678   43.9540   43.8674 C   0  0  0  0  0  0  0  0  0  0  0  0
   18.7092   44.5721   42.9057 N   0  0  0  0  0  0  0  0  0  0  0  0
   17.4511   44.1353   42.7052 C   0  0  0  0  0  0  0  0  0  0  0  0
   16.9791   43.1892   43.3513 O   0  0  0  0  0  0  0  0  0  0  0  0
   19.0159   45.3489   42.3843 H   0  0  0  0  0  0  0  0  0  0  0  0
   16.5185   44.9764   41.7596 C   0  0  0  0  0  0  0  0  0  0  0  0
   15.1505   44.6458   41.6150 C   0  0  0  0  0  0  0  0  0  0  0  0
   14.2869   45.4089   40.7878 C   0  0  0  0  0  0  0  0  0  0  0  0
   14.7143   46.5460   40.0823 C   0  0  0  0  0  0  0  0  0  0  0  0
   13.3386   47.7233   38.8233 I   0  0  0  0  0  0  0  0  0  0  0  0
   16.0744   46.8772   40.2402 C   0  0  0  0  0  0  0  0  0  0  0  0
   16.9605   46.1187   41.0616 C   0  0  0  0  0  0  0  0  0  0  0  0
 12 11  2  0  0  0
 13 11  1  0  0  0
 11 10  1  0  0  0
  9 10  1  0  0  0
  9  8  1  0  0  0
 10  8  1  0  0  0
 10  2  1  0  0  0
  4  3  2  0  0  0
  2  3  1  0  0  0
 21 22  1  0  0  0
 21 20  1  0  0  0
 22 23  1  0  0  0
  3  5  1  0  0  0
 19 20  1  0  0  0
 19  1  1  0  0  0
  5  1  1  0  0  0
 25 24  2  0  0  0
 23 24  1  0  0  0
  1 15  1  0  0  0
 24 27  1  0  0  0
 15 17  2  0  0  0
 15 16  1  0  0  0
 27 28  2  0  0  0
 27 33  1  0  0  0
 28 29  1  0  0  0
 33 32  2  0  0  0
 29 30  2  0  0  0
 32 30  1  0  0  0
 30 31  1  0  0  0
 13 14  1  0  0  0
  2  6  1  0  0  0
  5  7  1  0  0  0
 16 18  1  0  0  0
 23 26  1  0  0  0
M  END
> <minimizedAffinity>
-7.75837

$$$$
