4AGM_P86_A_400


 22 23  0  0  0  0  0  0  0  0999 V2000
   90.3263   97.9133  -44.1625 N   0  0  0  0  0  0  0  0  0  0  0  0
   89.1107   98.6541  -43.6712 C   0  0  0  0  0  0  0  0  0  0  0  0
   89.5132   99.5892  -42.5414 C   0  0  0  0  0  0  0  0  0  0  0  0
   90.5056  100.5795  -43.1474 C   0  0  0  0  0  0  0  0  0  0  0  0
   91.7901   99.8461  -43.5572 C   0  0  0  0  0  0  0  0  0  0  0  0
   91.4140   98.8370  -44.6298 C   0  0  0  0  0  0  0  0  0  0  0  0
   89.9784   96.9375  -45.2439 C   0  0  0  0  0  0  0  0  0  0  0  0
   91.6144   94.0416  -43.4040 C   0  0  0  0  0  0  0  0  0  0  0  0
   90.4901   95.5588  -44.9364 C   0  0  0  0  0  0  0  0  0  0  0  0
   89.8414   94.8094  -47.1307 O   0  0  0  0  0  0  0  0  0  0  0  0
   91.5891   93.0208  -44.3630 C   0  0  0  0  0  0  0  0  0  0  0  0
   91.0697   95.3035  -43.6871 C   0  0  0  0  0  0  0  0  0  0  0  0
   91.0006   93.2956  -45.6082 C   0  0  0  0  0  0  0  0  0  0  0  0
   90.4462   94.5480  -45.9326 C   0  0  0  0  0  0  0  0  0  0  0  0
   92.4574   93.7166  -41.4895 I   0  0  0  0  0  0  0  0  0  0  0  0
   90.9876   91.7692  -47.0781 I   0  0  0  0  0  0  0  0  0  0  0  0
   89.4866   95.6599  -47.3007 H   0  0  0  0  0  0  0  0  0  0  0  0
   90.7795  101.8063  -42.2918 N   0  0  0  0  0  0  0  0  0  0  0  0
   92.1358  101.6954  -41.6164 C   0  0  0  0  0  0  0  0  0  0  0  0
   92.0415  101.3694  -40.1356 C   0  0  0  0  0  0  0  0  0  0  0  0
   89.6874  102.0653  -41.2774 C   0  0  0  0  0  0  0  0  0  0  0  0
   89.2147  103.5133  -41.2597 C   0  0  0  0  0  0  0  0  0  0  0  0
  8 11  1  0  0  0
  8 12  2  0  0  0
  8 15  1  0  0  0
  9  7  1  0  0  0
  9 12  1  0  0  0
  9 14  2  0  0  0
  1  7  1  0  0  0
  1  2  1  0  0  0
  1  6  1  0  0  0
 10 14  1  0  0  0
 11 13  2  0  0  0
 18  4  1  0  0  0
 18 19  1  0  0  0
 18 21  1  0  0  0
  2  3  1  0  0  0
 13 14  1  0  0  0
 13 16  1  0  0  0
  3  4  1  0  0  0
  4  5  1  0  0  0
 19 20  1  0  0  0
 21 22  1  0  0  0
  5  6  1  0  0  0
 10 17  1  0  0  0
M  END
> <minimizedAffinity>
-5.53310

$$$$
4AGM_P86_A_400


 22 23  0  0  0  0  0  0  0  0999 V2000
   90.4894   97.8108  -44.3442 N   0  0  0  0  0  0  0  0  0  0  0  0
   89.3864   98.6976  -43.8298 C   0  0  0  0  0  0  0  0  0  0  0  0
   89.9718   99.7284  -42.8771 C   0  0  0  0  0  0  0  0  0  0  0  0
   90.9516  100.5582  -43.7043 C   0  0  0  0  0  0  0  0  0  0  0  0
   92.1326   99.6831  -44.1463 C   0  0  0  0  0  0  0  0  0  0  0  0
   91.5750   98.5840  -45.0359 C   0  0  0  0  0  0  0  0  0  0  0  0
   89.9610   96.7414  -45.2496 C   0  0  0  0  0  0  0  0  0  0  0  0
   91.0997   93.1399  -45.6741 C   0  0  0  0  0  0  0  0  0  0  0  0
   90.5833   95.4056  -44.9571 C   0  0  0  0  0  0  0  0  0  0  0  0
   91.1239   96.1264  -42.7243 O   0  0  0  0  0  0  0  0  0  0  0  0
   91.6182   92.8352  -44.4089 C   0  0  0  0  0  0  0  0  0  0  0  0
   90.5843   94.4159  -45.9483 C   0  0  0  0  0  0  0  0  0  0  0  0
   91.6112   93.8420  -43.4297 C   0  0  0  0  0  0  0  0  0  0  0  0
   91.1011   95.1329  -43.6634 C   0  0  0  0  0  0  0  0  0  0  0  0
   91.0890   91.6967  -47.2230 I   0  0  0  0  0  0  0  0  0  0  0  0
   92.3617   93.3816  -41.5023 I   0  0  0  0  0  0  0  0  0  0  0  0
   90.7718   96.9708  -42.9269 H   0  0  0  0  0  0  0  0  0  0  0  0
   91.3976  101.8544  -43.0463 N   0  0  0  0  0  0  0  0  0  0  0  0
   92.8861  102.0755  -43.2544 C   0  0  0  0  0  0  0  0  0  0  0  0
   93.2045  103.3906  -43.9452 C   0  0  0  0  0  0  0  0  0  0  0  0
   91.0397  101.9159  -41.5776 C   0  0  0  0  0  0  0  0  0  0  0  0
   92.1776  101.4811  -40.6630 C   0  0  0  0  0  0  0  0  0  0  0  0
  8 11  1  0  0  0
  8 12  2  0  0  0
  8 15  1  0  0  0
  9  7  1  0  0  0
  9 12  1  0  0  0
  9 14  2  0  0  0
  1  7  1  0  0  0
  1  2  1  0  0  0
  1  6  1  0  0  0
 10 14  1  0  0  0
 11 13  2  0  0  0
 18  4  1  0  0  0
 18 19  1  0  0  0
 18 21  1  0  0  0
  2  3  1  0  0  0
 13 14  1  0  0  0
 13 16  1  0  0  0
  3  4  1  0  0  0
  4  5  1  0  0  0
 19 20  1  0  0  0
 21 22  1  0  0  0
  5  6  1  0  0  0
 10 17  1  0  0  0
M  END
> <minimizedAffinity>
-5.44915

$$$$
4AGM_P86_A_400


 22 23  0  0  0  0  0  0  0  0999 V2000
   91.0344   98.6967  -43.2081 N   0  0  0  0  0  0  0  0  0  0  0  0
   91.6518   98.0251  -42.0100 C   0  0  0  0  0  0  0  0  0  0  0  0
   91.0531   96.6367  -41.8467 C   0  0  0  0  0  0  0  0  0  0  0  0
   91.4237   95.8665  -43.1125 C   0  0  0  0  0  0  0  0  0  0  0  0
   90.7149   96.4845  -44.3255 C   0  0  0  0  0  0  0  0  0  0  0  0
   91.2249   97.9088  -44.4721 C   0  0  0  0  0  0  0  0  0  0  0  0
   91.5512  100.0909  -43.3867 C   0  0  0  0  0  0  0  0  0  0  0  0
   88.7928  102.4742  -42.3102 C   0  0  0  0  0  0  0  0  0  0  0  0
   90.7704  101.0834  -42.5728 C   0  0  0  0  0  0  0  0  0  0  0  0
   92.5570  101.1952  -40.9626 O   0  0  0  0  0  0  0  0  0  0  0  0
   89.3255  103.0490  -41.1490 C   0  0  0  0  0  0  0  0  0  0  0  0
   89.5094  101.4982  -43.0195 C   0  0  0  0  0  0  0  0  0  0  0  0
   90.5897  102.6173  -40.7157 C   0  0  0  0  0  0  0  0  0  0  0  0
   91.3416  101.6436  -41.3997 C   0  0  0  0  0  0  0  0  0  0  0  0
   86.8841  103.0414  -43.0291 I   0  0  0  0  0  0  0  0  0  0  0  0
   91.4197  103.5046  -38.9796 I   0  0  0  0  0  0  0  0  0  0  0  0
   93.0205  100.5449  -41.4528 H   0  0  0  0  0  0  0  0  0  0  0  0
   91.2227   94.3620  -43.0208 N   0  0  0  0  0  0  0  0  0  0  0  0
   91.4742   93.8741  -41.6043 C   0  0  0  0  0  0  0  0  0  0  0  0
   92.9025   93.4096  -41.3765 C   0  0  0  0  0  0  0  0  0  0  0  0
   92.0690   93.5991  -44.0161 C   0  0  0  0  0  0  0  0  0  0  0  0
   91.2544   92.9647  -45.1361 C   0  0  0  0  0  0  0  0  0  0  0  0
  8 11  1  0  0  0
  8 12  2  0  0  0
  8 15  1  0  0  0
  9  7  1  0  0  0
  9 12  1  0  0  0
  9 14  2  0  0  0
  1  7  1  0  0  0
  1  2  1  0  0  0
  1  6  1  0  0  0
 10 14  1  0  0  0
 11 13  2  0  0  0
 18  4  1  0  0  0
 18 19  1  0  0  0
 18 21  1  0  0  0
  2  3  1  0  0  0
 13 14  1  0  0  0
 13 16  1  0  0  0
  3  4  1  0  0  0
  4  5  1  0  0  0
 19 20  1  0  0  0
 21 22  1  0  0  0
  5  6  1  0  0  0
 10 17  1  0  0  0
M  END
> <minimizedAffinity>
-5.11819

$$$$
4AGM_P86_A_400


 22 23  0  0  0  0  0  0  0  0999 V2000
   90.9076   98.1284  -42.9609 N   0  0  0  0  0  0  0  0  0  0  0  0
   90.3236   97.3951  -44.1394 C   0  0  0  0  0  0  0  0  0  0  0  0
   91.1526   96.1513  -44.4199 C   0  0  0  0  0  0  0  0  0  0  0  0
   91.0424   95.2807  -43.1698 C   0  0  0  0  0  0  0  0  0  0  0  0
   91.7271   95.9781  -41.9864 C   0  0  0  0  0  0  0  0  0  0  0  0
   90.9768   97.2745  -41.7277 C   0  0  0  0  0  0  0  0  0  0  0  0
   90.1591   99.3927  -42.6713 C   0  0  0  0  0  0  0  0  0  0  0  0
   92.0966  102.3024  -44.1640 C   0  0  0  0  0  0  0  0  0  0  0  0
   91.0442  100.6019  -42.7802 C   0  0  0  0  0  0  0  0  0  0  0  0
   91.5261  100.4832  -40.4242 O   0  0  0  0  0  0  0  0  0  0  0  0
   92.8049  102.7928  -43.0594 C   0  0  0  0  0  0  0  0  0  0  0  0
   91.2220  101.2135  -44.0277 C   0  0  0  0  0  0  0  0  0  0  0  0
   92.6104  102.1681  -41.8167 C   0  0  0  0  0  0  0  0  0  0  0  0
   91.7451  101.0723  -41.6385 C   0  0  0  0  0  0  0  0  0  0  0  0
   92.3040  103.1928  -46.0734 I   0  0  0  0  0  0  0  0  0  0  0  0
   93.7027  102.8801  -40.1463 I   0  0  0  0  0  0  0  0  0  0  0  0
   90.9403   99.7552  -40.3555 H   0  0  0  0  0  0  0  0  0  0  0  0
   91.5097   93.8455  -43.3536 N   0  0  0  0  0  0  0  0  0  0  0  0
   92.5772   93.4954  -42.3310 C   0  0  0  0  0  0  0  0  0  0  0  0
   92.1195   92.4582  -41.3198 C   0  0  0  0  0  0  0  0  0  0  0  0
   91.9921   93.5649  -44.7598 C   0  0  0  0  0  0  0  0  0  0  0  0
   91.1803   92.4894  -45.4704 C   0  0  0  0  0  0  0  0  0  0  0  0
  8 11  1  0  0  0
  8 12  2  0  0  0
  8 15  1  0  0  0
  9  7  1  0  0  0
  9 12  1  0  0  0
  9 14  2  0  0  0
  1  7  1  0  0  0
  1  2  1  0  0  0
  1  6  1  0  0  0
 10 14  1  0  0  0
 11 13  2  0  0  0
 18  4  1  0  0  0
 18 19  1  0  0  0
 18 21  1  0  0  0
  2  3  1  0  0  0
 13 14  1  0  0  0
 13 16  1  0  0  0
  3  4  1  0  0  0
  4  5  1  0  0  0
 19 20  1  0  0  0
 21 22  1  0  0  0
  5  6  1  0  0  0
 10 17  1  0  0  0
M  END
> <minimizedAffinity>
-5.05557

$$$$
4AGM_P86_A_400


 22 23  0  0  0  0  0  0  0  0999 V2000
   90.9688   98.4241  -42.4782 N   0  0  0  0  0  0  0  0  0  0  0  0
   91.7331   97.6452  -41.4407 C   0  0  0  0  0  0  0  0  0  0  0  0
   91.2176   96.2149  -41.4037 C   0  0  0  0  0  0  0  0  0  0  0  0
   91.4941   95.6314  -42.7879 C   0  0  0  0  0  0  0  0  0  0  0  0
   90.6398   96.3539  -43.8386 C   0  0  0  0  0  0  0  0  0  0  0  0
   91.0672   97.8125  -43.8461 C   0  0  0  0  0  0  0  0  0  0  0  0
   91.4010   99.8573  -42.5219 C   0  0  0  0  0  0  0  0  0  0  0  0
   90.0388  102.3429  -45.0545 C   0  0  0  0  0  0  0  0  0  0  0  0
   90.4364  100.7071  -43.2994 C   0  0  0  0  0  0  0  0  0  0  0  0
   88.6240   99.9602  -41.9014 O   0  0  0  0  0  0  0  0  0  0  0  0
   88.6857  102.4241  -44.7012 C   0  0  0  0  0  0  0  0  0  0  0  0
   90.9105  101.4912  -44.3588 C   0  0  0  0  0  0  0  0  0  0  0  0
   88.2291  101.6276  -43.6384 C   0  0  0  0  0  0  0  0  0  0  0  0
   89.0710  100.7631  -42.9138 C   0  0  0  0  0  0  0  0  0  0  0  0
   90.8161  103.4857  -46.6581 I   0  0  0  0  0  0  0  0  0  0  0  0
   86.1915  101.7681  -43.0737 I   0  0  0  0  0  0  0  0  0  0  0  0
   89.2233   99.4009  -41.4476 H   0  0  0  0  0  0  0  0  0  0  0  0
   91.3720   94.1182  -42.8739 N   0  0  0  0  0  0  0  0  0  0  0  0
   91.7590   93.4744  -41.5535 C   0  0  0  0  0  0  0  0  0  0  0  0
   93.2247   93.0804  -41.4871 C   0  0  0  0  0  0  0  0  0  0  0  0
   92.1706   93.5330  -44.0179 C   0  0  0  0  0  0  0  0  0  0  0  0
   91.2996   92.9255  -45.1100 C   0  0  0  0  0  0  0  0  0  0  0  0
  8 11  1  0  0  0
  8 12  2  0  0  0
  8 15  1  0  0  0
  9  7  1  0  0  0
  9 12  1  0  0  0
  9 14  2  0  0  0
  1  7  1  0  0  0
  1  2  1  0  0  0
  1  6  1  0  0  0
 10 14  1  0  0  0
 11 13  2  0  0  0
 18  4  1  0  0  0
 18 19  1  0  0  0
 18 21  1  0  0  0
  2  3  1  0  0  0
 13 14  1  0  0  0
 13 16  1  0  0  0
  3  4  1  0  0  0
  4  5  1  0  0  0
 19 20  1  0  0  0
 21 22  1  0  0  0
  5  6  1  0  0  0
 10 17  1  0  0  0
M  END
> <minimizedAffinity>
-5.00515

$$$$
4AGM_P86_A_400


 22 23  0  0  0  0  0  0  0  0999 V2000
   90.9813   98.9071  -44.3911 N   0  0  0  0  0  0  0  0  0  0  0  0
   90.8777   97.8264  -45.4345 C   0  0  0  0  0  0  0  0  0  0  0  0
   91.5585   96.5660  -44.9237 C   0  0  0  0  0  0  0  0  0  0  0  0
   90.7862   96.1468  -43.6744 C   0  0  0  0  0  0  0  0  0  0  0  0
   90.9718   97.1961  -42.5698 C   0  0  0  0  0  0  0  0  0  0  0  0
   90.3778   98.4997  -43.0778 C   0  0  0  0  0  0  0  0  0  0  0  0
   90.3707  100.1905  -44.8631 C   0  0  0  0  0  0  0  0  0  0  0  0
   89.8791  103.2298  -42.6339 C   0  0  0  0  0  0  0  0  0  0  0  0
   90.6683  101.3270  -43.9266 C   0  0  0  0  0  0  0  0  0  0  0  0
   93.0189  100.8149  -44.0235 O   0  0  0  0  0  0  0  0  0  0  0  0
   91.1928  103.5573  -42.2745 C   0  0  0  0  0  0  0  0  0  0  0  0
   89.6163  102.1227  -43.4553 C   0  0  0  0  0  0  0  0  0  0  0  0
   92.2333  102.7452  -42.7545 C   0  0  0  0  0  0  0  0  0  0  0  0
   92.0125  101.6285  -43.5824 C   0  0  0  0  0  0  0  0  0  0  0  0
   88.2418  104.3786  -41.9402 I   0  0  0  0  0  0  0  0  0  0  0  0
   94.2269  103.2515  -42.2450 I   0  0  0  0  0  0  0  0  0  0  0  0
   92.8221  100.0824  -44.5737 H   0  0  0  0  0  0  0  0  0  0  0  0
   91.0765   94.7336  -43.1942 N   0  0  0  0  0  0  0  0  0  0  0  0
   91.6033   94.7504  -41.7694 C   0  0  0  0  0  0  0  0  0  0  0  0
   92.6394   93.6721  -41.5020 C   0  0  0  0  0  0  0  0  0  0  0  0
   92.0193   93.9877  -44.1128 C   0  0  0  0  0  0  0  0  0  0  0  0
   91.3124   92.9801  -45.0101 C   0  0  0  0  0  0  0  0  0  0  0  0
  8 11  1  0  0  0
  8 12  2  0  0  0
  8 15  1  0  0  0
  9  7  1  0  0  0
  9 12  1  0  0  0
  9 14  2  0  0  0
  1  7  1  0  0  0
  1  2  1  0  0  0
  1  6  1  0  0  0
 10 14  1  0  0  0
 11 13  2  0  0  0
 18  4  1  0  0  0
 18 19  1  0  0  0
 18 21  1  0  0  0
  2  3  1  0  0  0
 13 14  1  0  0  0
 13 16  1  0  0  0
  3  4  1  0  0  0
  4  5  1  0  0  0
 19 20  1  0  0  0
 21 22  1  0  0  0
  5  6  1  0  0  0
 10 17  1  0  0  0
M  END
> <minimizedAffinity>
-4.87606

$$$$
4AGM_P86_A_400


 22 23  0  0  0  0  0  0  0  0999 V2000
   90.9272   98.7353  -43.5528 N   0  0  0  0  0  0  0  0  0  0  0  0
   91.5580   98.1592  -42.3127 C   0  0  0  0  0  0  0  0  0  0  0  0
   90.9844   96.7749  -42.0524 C   0  0  0  0  0  0  0  0  0  0  0  0
   91.3673   95.9258  -43.2629 C   0  0  0  0  0  0  0  0  0  0  0  0
   90.6460   96.4458  -44.5140 C   0  0  0  0  0  0  0  0  0  0  0  0
   91.1303   97.8654  -44.7598 C   0  0  0  0  0  0  0  0  0  0  0  0
   91.4188  100.1227  -43.8285 C   0  0  0  0  0  0  0  0  0  0  0  0
   90.5619  102.5902  -41.0671 C   0  0  0  0  0  0  0  0  0  0  0  0
   90.6736  101.1486  -43.0225 C   0  0  0  0  0  0  0  0  0  0  0  0
   88.8096  101.0133  -44.5404 O   0  0  0  0  0  0  0  0  0  0  0  0
   89.2573  102.9766  -41.4005 C   0  0  0  0  0  0  0  0  0  0  0  0
   91.2670  101.6815  -41.8711 C   0  0  0  0  0  0  0  0  0  0  0  0
   88.6812  102.4336  -42.5605 C   0  0  0  0  0  0  0  0  0  0  0  0
   89.3532  101.5177  -43.3917 C   0  0  0  0  0  0  0  0  0  0  0  0
   91.5246  103.3728  -39.3518 I   0  0  0  0  0  0  0  0  0  0  0  0
   86.6959  102.9848  -43.0555 I   0  0  0  0  0  0  0  0  0  0  0  0
   89.2963  100.4053  -45.0614 H   0  0  0  0  0  0  0  0  0  0  0  0
   91.1934   94.4279  -43.0670 N   0  0  0  0  0  0  0  0  0  0  0  0
   91.3971   94.0519  -41.6093 C   0  0  0  0  0  0  0  0  0  0  0  0
   92.4367   92.9616  -41.4126 C   0  0  0  0  0  0  0  0  0  0  0  0
   92.0947   93.6135  -43.9689 C   0  0  0  0  0  0  0  0  0  0  0  0
   91.3454   92.9185  -45.0984 C   0  0  0  0  0  0  0  0  0  0  0  0
  8 11  1  0  0  0
  8 12  2  0  0  0
  8 15  1  0  0  0
  9  7  1  0  0  0
  9 12  1  0  0  0
  9 14  2  0  0  0
  1  7  1  0  0  0
  1  2  1  0  0  0
  1  6  1  0  0  0
 10 14  1  0  0  0
 11 13  2  0  0  0
 18  4  1  0  0  0
 18 19  1  0  0  0
 18 21  1  0  0  0
  2  3  1  0  0  0
 13 14  1  0  0  0
 13 16  1  0  0  0
  3  4  1  0  0  0
  4  5  1  0  0  0
 19 20  1  0  0  0
 21 22  1  0  0  0
  5  6  1  0  0  0
 10 17  1  0  0  0
M  END
> <minimizedAffinity>
-4.86937

$$$$
4AGM_P86_A_400


 22 23  0  0  0  0  0  0  0  0999 V2000
   90.9528   99.2119  -43.5266 N   0  0  0  0  0  0  0  0  0  0  0  0
   90.9260   98.7739  -44.9671 C   0  0  0  0  0  0  0  0  0  0  0  0
   91.6822   97.4620  -45.1087 C   0  0  0  0  0  0  0  0  0  0  0  0
   90.9291   96.4469  -44.2513 C   0  0  0  0  0  0  0  0  0  0  0  0
   91.0392   96.8320  -42.7696 C   0  0  0  0  0  0  0  0  0  0  0  0
   90.3670   98.1848  -42.6011 C   0  0  0  0  0  0  0  0  0  0  0  0
   90.2650  100.5286  -43.3372 C   0  0  0  0  0  0  0  0  0  0  0  0
   92.6939  103.4413  -43.5909 C   0  0  0  0  0  0  0  0  0  0  0  0
   91.2304  101.6103  -42.9431 C   0  0  0  0  0  0  0  0  0  0  0  0
   91.1304  100.8883  -40.6484 O   0  0  0  0  0  0  0  0  0  0  0  0
   93.1515  103.5696  -42.2731 C   0  0  0  0  0  0  0  0  0  0  0  0
   91.7402  102.4680  -43.9261 C   0  0  0  0  0  0  0  0  0  0  0  0
   92.6257  102.7023  -41.3016 C   0  0  0  0  0  0  0  0  0  0  0  0
   91.6707  101.7115  -41.5970 C   0  0  0  0  0  0  0  0  0  0  0  0
   93.4084  104.7183  -45.1209 I   0  0  0  0  0  0  0  0  0  0  0  0
   93.3361  102.8651  -39.3118 I   0  0  0  0  0  0  0  0  0  0  0  0
   90.4970  100.2429  -40.8940 H   0  0  0  0  0  0  0  0  0  0  0  0
   91.3056   94.9964  -44.5087 N   0  0  0  0  0  0  0  0  0  0  0  0
   90.5202   94.4405  -45.6843 C   0  0  0  0  0  0  0  0  0  0  0  0
   90.9040   93.0139  -46.0389 C   0  0  0  0  0  0  0  0  0  0  0  0
   91.1389   94.1245  -43.2835 C   0  0  0  0  0  0  0  0  0  0  0  0
   92.4508   93.5340  -42.7830 C   0  0  0  0  0  0  0  0  0  0  0  0
  8 11  1  0  0  0
  8 12  2  0  0  0
  8 15  1  0  0  0
  9  7  1  0  0  0
  9 12  1  0  0  0
  9 14  2  0  0  0
  1  7  1  0  0  0
  1  2  1  0  0  0
  1  6  1  0  0  0
 10 14  1  0  0  0
 11 13  2  0  0  0
 18  4  1  0  0  0
 18 19  1  0  0  0
 18 21  1  0  0  0
  2  3  1  0  0  0
 13 14  1  0  0  0
 13 16  1  0  0  0
  3  4  1  0  0  0
  4  5  1  0  0  0
 19 20  1  0  0  0
 21 22  1  0  0  0
  5  6  1  0  0  0
 10 17  1  0  0  0
M  END
> <minimizedAffinity>
-4.85425

$$$$
4AGM_P86_A_400


 22 23  0  0  0  0  0  0  0  0999 V2000
   90.8083   98.0836  -43.1296 N   0  0  0  0  0  0  0  0  0  0  0  0
   90.2419   97.3057  -44.2879 C   0  0  0  0  0  0  0  0  0  0  0  0
   91.0939   96.0691  -44.5288 C   0  0  0  0  0  0  0  0  0  0  0  0
   90.9941   95.2339  -43.2540 C   0  0  0  0  0  0  0  0  0  0  0  0
   91.6618   95.9779  -42.0893 C   0  0  0  0  0  0  0  0  0  0  0  0
   90.8877   97.2678  -41.8715 C   0  0  0  0  0  0  0  0  0  0  0  0
   90.0364   99.3424  -42.8800 C   0  0  0  0  0  0  0  0  0  0  0  0
   92.2103  102.1229  -41.4691 C   0  0  0  0  0  0  0  0  0  0  0  0
   90.9363  100.5435  -42.8093 C   0  0  0  0  0  0  0  0  0  0  0  0
   90.7735  100.8279  -45.1947 O   0  0  0  0  0  0  0  0  0  0  0  0
   92.5186  102.8748  -42.6102 C   0  0  0  0  0  0  0  0  0  0  0  0
   91.4237  100.9649  -41.5657 C   0  0  0  0  0  0  0  0  0  0  0  0
   92.0232  102.4339  -43.8482 C   0  0  0  0  0  0  0  0  0  0  0  0
   91.2289  101.2802  -43.9873 C   0  0  0  0  0  0  0  0  0  0  0  0
   92.9313  102.6929  -39.5620 I   0  0  0  0  0  0  0  0  0  0  0  0
   92.4549  103.5824  -45.5759 I   0  0  0  0  0  0  0  0  0  0  0  0
   90.2470  100.0540  -45.2367 H   0  0  0  0  0  0  0  0  0  0  0  0
   91.4875   93.8024  -43.3937 N   0  0  0  0  0  0  0  0  0  0  0  0
   92.5492   93.4983  -42.3506 C   0  0  0  0  0  0  0  0  0  0  0  0
   92.1072   92.4614  -41.3321 C   0  0  0  0  0  0  0  0  0  0  0  0
   91.9902   93.4924  -44.7865 C   0  0  0  0  0  0  0  0  0  0  0  0
   91.1223   92.4839  -45.5282 C   0  0  0  0  0  0  0  0  0  0  0  0
  8 11  1  0  0  0
  8 12  2  0  0  0
  8 15  1  0  0  0
  9  7  1  0  0  0
  9 12  1  0  0  0
  9 14  2  0  0  0
  1  7  1  0  0  0
  1  2  1  0  0  0
  1  6  1  0  0  0
 10 14  1  0  0  0
 11 13  2  0  0  0
 18  4  1  0  0  0
 18 19  1  0  0  0
 18 21  1  0  0  0
  2  3  1  0  0  0
 13 14  1  0  0  0
 13 16  1  0  0  0
  3  4  1  0  0  0
  4  5  1  0  0  0
 19 20  1  0  0  0
 21 22  1  0  0  0
  5  6  1  0  0  0
 10 17  1  0  0  0
M  END
> <minimizedAffinity>
-4.80251

$$$$
4AGM_P86_A_400


 22 23  0  0  0  0  0  0  0  0999 V2000
   91.0876   99.8389  -43.5414 N   0  0  0  0  0  0  0  0  0  0  0  0
   90.6904   99.2296  -44.8599 C   0  0  0  0  0  0  0  0  0  0  0  0
   91.3959   97.8931  -45.0300 C   0  0  0  0  0  0  0  0  0  0  0  0
   90.9020   97.0076  -43.8878 C   0  0  0  0  0  0  0  0  0  0  0  0
   91.3908   97.5674  -42.5448 C   0  0  0  0  0  0  0  0  0  0  0  0
   90.7730   98.9459  -42.3759 C   0  0  0  0  0  0  0  0  0  0  0  0
   90.4605  101.1845  -43.3439 C   0  0  0  0  0  0  0  0  0  0  0  0
   91.5570  103.3411  -40.4122 C   0  0  0  0  0  0  0  0  0  0  0  0
   91.3030  102.0692  -42.4694 C   0  0  0  0  0  0  0  0  0  0  0  0
   93.0212  102.1292  -44.1550 O   0  0  0  0  0  0  0  0  0  0  0  0
   92.7903  103.8415  -40.8491 C   0  0  0  0  0  0  0  0  0  0  0  0
   90.8161  102.4612  -41.2159 C   0  0  0  0  0  0  0  0  0  0  0  0
   93.2627  103.4340  -42.1073 C   0  0  0  0  0  0  0  0  0  0  0  0
   92.5493  102.5560  -42.9447 C   0  0  0  0  0  0  0  0  0  0  0  0
   90.7726  103.8774  -38.5204 I   0  0  0  0  0  0  0  0  0  0  0  0
   95.1109  104.2117  -42.7926 I   0  0  0  0  0  0  0  0  0  0  0  0
   92.5092  101.5438  -44.6775 H   0  0  0  0  0  0  0  0  0  0  0  0
   91.2120   95.5282  -44.0529 N   0  0  0  0  0  0  0  0  0  0  0  0
   90.5319   94.9744  -45.2933 C   0  0  0  0  0  0  0  0  0  0  0  0
   91.0259   93.5904  -45.6787 C   0  0  0  0  0  0  0  0  0  0  0  0
   90.8515   94.7166  -42.8280 C   0  0  0  0  0  0  0  0  0  0  0  0
   92.0406   93.9821  -42.2223 C   0  0  0  0  0  0  0  0  0  0  0  0
  8 11  1  0  0  0
  8 12  2  0  0  0
  8 15  1  0  0  0
  9  7  1  0  0  0
  9 12  1  0  0  0
  9 14  2  0  0  0
  1  7  1  0  0  0
  1  2  1  0  0  0
  1  6  1  0  0  0
 10 14  1  0  0  0
 11 13  2  0  0  0
 18  4  1  0  0  0
 18 19  1  0  0  0
 18 21  1  0  0  0
  2  3  1  0  0  0
 13 14  1  0  0  0
 13 16  1  0  0  0
  3  4  1  0  0  0
  4  5  1  0  0  0
 19 20  1  0  0  0
 21 22  1  0  0  0
  5  6  1  0  0  0
 10 17  1  0  0  0
M  END
> <minimizedAffinity>
-4.64208

$$$$
