5K1F_IMP_A_401


 28 30  0  0  0  0  0  0  0  0999 V2000
   -2.3301    1.8968   19.6229 C   0  0  0  0  0  0  0  0  0  0  0  0
   -2.1615    0.5270   20.0924 O   0  0  0  0  0  0  0  0  0  0  0  0
   -1.1156    2.1945   18.7363 C   0  0  0  0  0  0  0  0  0  0  0  0
   -0.1084    2.8222   19.5278 O   0  0  0  0  0  0  0  0  0  0  0  0
   -0.6471    0.7980   18.3316 C   0  0  0  0  0  0  0  0  0  0  0  0
    0.7095    0.7057   17.9291 O   0  0  0  0  0  0  0  0  0  0  0  0
   -0.9315    0.0149   19.6117 C   0  0  0  0  0  0  0  0  0  0  0  0
    0.1011    2.2599   20.2899 H   0  0  0  0  0  0  0  0  0  0  0  0
    1.2822    1.0095   18.6506 H   0  0  0  0  0  0  0  0  0  0  0  0
   -1.0672   -1.4302   19.4143 N   0  0  0  0  0  0  0  0  0  0  0  0
   -1.5097   -2.0780   18.2867 C   0  0  0  0  0  0  0  0  0  0  0  0
   -1.4907   -3.4085   18.5223 N   0  0  0  0  0  0  0  0  0  0  0  0
   -1.0483   -3.6185   19.7877 C   0  0  0  0  0  0  0  0  0  0  0  0
   -0.8422   -4.7777   20.5384 C   0  0  0  0  0  0  0  0  0  0  0  0
   -0.9657   -5.8881   20.0086 O   0  0  0  0  0  0  0  0  0  0  0  0
   -0.3770   -4.6673   21.8409 N   0  0  0  0  0  0  0  0  0  0  0  0
   -0.1220   -3.4243   22.3917 C   0  0  0  0  0  0  0  0  0  0  0  0
   -0.3259   -2.2787   21.6441 N   0  0  0  0  0  0  0  0  0  0  0  0
   -0.7829   -2.3780   20.3646 C   0  0  0  0  0  0  0  0  0  0  0  0
   -0.2272   -5.4794   22.3769 H   0  0  0  0  0  0  0  0  0  0  0  0
   -3.6778    2.0458   18.9505 C   0  0  0  0  0  0  0  0  0  0  0  0
   -3.7612    3.2522   18.1953 O   0  0  0  0  0  0  0  0  0  0  0  0
   -5.0982    4.1208   18.1827 P   0  0  0  0  0  0  0  0  0  0  0  0
   -6.2699    3.2017   17.8849 O   0  0  0  0  0  0  0  0  0  0  0  0
   -5.1278    4.7729   19.5456 O   0  0  0  0  0  0  0  0  0  0  0  0
   -4.9163    5.1663   17.0804 O   0  0  0  0  0  0  0  0  0  0  0  0
   -5.9204    5.3267   19.6219 H   0  0  0  0  0  0  0  0  0  0  0  0
   -5.7077    5.7249   17.0307 H   0  0  0  0  0  0  0  0  0  0  0  0
 23 24  2  0  0  0
 23 25  1  0  0  0
 23 26  1  0  0  0
 23 22  1  0  0  0
 22 21  1  0  0  0
 21  1  1  0  0  0
  1  2  1  0  0  0
  1  3  1  0  0  0
  2  7  1  0  0  0
  3  4  1  0  0  0
  3  5  1  0  0  0
  5  6  1  0  0  0
  5  7  1  0  0  0
  7 10  1  0  0  0
 10 11  1  0  0  0
 10 19  1  0  0  0
 11 12  2  0  0  0
 12 13  1  0  0  0
 13 14  1  0  0  0
 13 19  2  0  0  0
 14 15  2  0  0  0
 14 16  1  0  0  0
 16 17  1  0  0  0
 17 18  2  0  0  0
 18 19  1  0  0  0
 25 27  1  0  0  0
 26 28  1  0  0  0
  4  8  1  0  0  0
  6  9  1  0  0  0
 16 20  1  0  0  0
M  END
> <minimizedAffinity>
-8.72324

$$$$
5K1F_IMP_A_401


 28 30  0  0  0  0  0  0  0  0999 V2000
   -1.9295   -0.5316   21.2217 C   0  0  0  0  0  0  0  0  0  0  0  0
   -1.6679   -1.5362   20.1981 O   0  0  0  0  0  0  0  0  0  0  0  0
   -0.6728   -0.4808   22.0980 C   0  0  0  0  0  0  0  0  0  0  0  0
   -0.8531   -1.3492   23.2152 O   0  0  0  0  0  0  0  0  0  0  0  0
    0.4010   -1.0553   21.1757 C   0  0  0  0  0  0  0  0  0  0  0  0
    1.5399   -1.5905   21.8296 O   0  0  0  0  0  0  0  0  0  0  0  0
   -0.3987   -2.1210   20.4290 C   0  0  0  0  0  0  0  0  0  0  0  0
   -1.0658   -2.2416   22.9001 H   0  0  0  0  0  0  0  0  0  0  0  0
    1.2635   -2.2971   22.4339 H   0  0  0  0  0  0  0  0  0  0  0  0
    0.1803   -2.5147   19.1422 N   0  0  0  0  0  0  0  0  0  0  0  0
   -0.3854   -2.3761   17.8982 C   0  0  0  0  0  0  0  0  0  0  0  0
    0.4732   -2.8723   16.9801 N   0  0  0  0  0  0  0  0  0  0  0  0
    1.5767   -3.3318   17.6222 C   0  0  0  0  0  0  0  0  0  0  0  0
    2.7510   -3.9377   17.1709 C   0  0  0  0  0  0  0  0  0  0  0  0
    2.9709   -4.0343   15.9580 O   0  0  0  0  0  0  0  0  0  0  0  0
    3.7178   -4.3116   18.0933 N   0  0  0  0  0  0  0  0  0  0  0  0
    3.5213   -4.0897   19.4444 C   0  0  0  0  0  0  0  0  0  0  0  0
    2.3574   -3.4879   19.8869 N   0  0  0  0  0  0  0  0  0  0  0  0
    1.4028   -3.1180   18.9882 C   0  0  0  0  0  0  0  0  0  0  0  0
    4.5496   -4.7378   17.7839 H   0  0  0  0  0  0  0  0  0  0  0  0
   -2.3192    0.7765   20.5680 C   0  0  0  0  0  0  0  0  0  0  0  0
   -1.9380    0.8154   19.1946 O   0  0  0  0  0  0  0  0  0  0  0  0
   -0.8495    1.8582   18.6751 P   0  0  0  0  0  0  0  0  0  0  0  0
    0.3275    1.0860   18.1052 O   0  0  0  0  0  0  0  0  0  0  0  0
   -1.5999    2.7084   17.6763 O   0  0  0  0  0  0  0  0  0  0  0  0
   -0.4356    2.6846   19.8945 O   0  0  0  0  0  0  0  0  0  0  0  0
   -1.0022    3.3775   17.3076 H   0  0  0  0  0  0  0  0  0  0  0  0
    0.2302    3.3388   19.6309 H   0  0  0  0  0  0  0  0  0  0  0  0
 23 24  2  0  0  0
 23 25  1  0  0  0
 23 26  1  0  0  0
 23 22  1  0  0  0
 22 21  1  0  0  0
 21  1  1  0  0  0
  1  2  1  0  0  0
  1  3  1  0  0  0
  2  7  1  0  0  0
  3  4  1  0  0  0
  3  5  1  0  0  0
  5  6  1  0  0  0
  5  7  1  0  0  0
  7 10  1  0  0  0
 10 11  1  0  0  0
 10 19  1  0  0  0
 11 12  2  0  0  0
 12 13  1  0  0  0
 13 14  1  0  0  0
 13 19  2  0  0  0
 14 15  2  0  0  0
 14 16  1  0  0  0
 16 17  1  0  0  0
 17 18  2  0  0  0
 18 19  1  0  0  0
 25 27  1  0  0  0
 26 28  1  0  0  0
  4  8  1  0  0  0
  6  9  1  0  0  0
 16 20  1  0  0  0
M  END
> <minimizedAffinity>
-8.24838

$$$$
5K1F_IMP_A_401


 28 30  0  0  0  0  0  0  0  0999 V2000
   -2.1321   -0.0701   21.5878 C   0  0  0  0  0  0  0  0  0  0  0  0
   -1.6095   -1.2468   20.9040 O   0  0  0  0  0  0  0  0  0  0  0  0
   -1.0925    0.2996   22.6519 C   0  0  0  0  0  0  0  0  0  0  0  0
   -1.4591   -0.3110   23.8879 O   0  0  0  0  0  0  0  0  0  0  0  0
    0.1796   -0.3569   22.1183 C   0  0  0  0  0  0  0  0  0  0  0  0
    1.1812   -0.6167   23.0879 O   0  0  0  0  0  0  0  0  0  0  0  0
   -0.3890   -1.6363   21.5080 C   0  0  0  0  0  0  0  0  0  0  0  0
   -1.5544   -1.2678   23.7602 H   0  0  0  0  0  0  0  0  0  0  0  0
    0.8206   -1.1945   23.7785 H   0  0  0  0  0  0  0  0  0  0  0  0
    0.4674   -2.2479   20.4890 N   0  0  0  0  0  0  0  0  0  0  0  0
    0.2542   -2.2788   19.1324 C   0  0  0  0  0  0  0  0  0  0  0  0
    1.2767   -2.9465   18.5536 N   0  0  0  0  0  0  0  0  0  0  0  0
    2.1364   -3.3481   19.5235 C   0  0  0  0  0  0  0  0  0  0  0  0
    3.3338   -4.0656   19.4893 C   0  0  0  0  0  0  0  0  0  0  0  0
    3.8497   -4.3573   18.4041 O   0  0  0  0  0  0  0  0  0  0  0  0
    3.9969   -4.3336   20.6783 N   0  0  0  0  0  0  0  0  0  0  0  0
    3.4781   -3.8980   21.8844 C   0  0  0  0  0  0  0  0  0  0  0  0
    2.2926   -3.1863   21.9135 N   0  0  0  0  0  0  0  0  0  0  0  0
    1.6349   -2.9191   20.7509 C   0  0  0  0  0  0  0  0  0  0  0  0
    4.8426   -4.8374   20.6635 H   0  0  0  0  0  0  0  0  0  0  0  0
   -2.4422    1.0138   20.5781 C   0  0  0  0  0  0  0  0  0  0  0  0
   -1.7681    0.7926   19.3414 O   0  0  0  0  0  0  0  0  0  0  0  0
   -0.7680    1.8826   18.7464 P   0  0  0  0  0  0  0  0  0  0  0  0
   -0.3176    2.7937   19.8748 O   0  0  0  0  0  0  0  0  0  0  0  0
    0.3309    1.0655   18.1073 O   0  0  0  0  0  0  0  0  0  0  0  0
   -1.5600    2.6550   17.6893 O   0  0  0  0  0  0  0  0  0  0  0  0
    0.9900    1.6600   17.7161 H   0  0  0  0  0  0  0  0  0  0  0  0
   -0.9930    3.3354   17.2936 H   0  0  0  0  0  0  0  0  0  0  0  0
 23 24  2  0  0  0
 23 25  1  0  0  0
 23 26  1  0  0  0
 23 22  1  0  0  0
 22 21  1  0  0  0
 21  1  1  0  0  0
  1  2  1  0  0  0
  1  3  1  0  0  0
  2  7  1  0  0  0
  3  4  1  0  0  0
  3  5  1  0  0  0
  5  6  1  0  0  0
  5  7  1  0  0  0
  7 10  1  0  0  0
 10 11  1  0  0  0
 10 19  1  0  0  0
 11 12  2  0  0  0
 12 13  1  0  0  0
 13 14  1  0  0  0
 13 19  2  0  0  0
 14 15  2  0  0  0
 14 16  1  0  0  0
 16 17  1  0  0  0
 17 18  2  0  0  0
 18 19  1  0  0  0
 25 27  1  0  0  0
 26 28  1  0  0  0
  4  8  1  0  0  0
  6  9  1  0  0  0
 16 20  1  0  0  0
M  END
> <minimizedAffinity>
-8.03091

$$$$
5K1F_IMP_A_401


 28 30  0  0  0  0  0  0  0  0999 V2000
   -1.7527   -1.2775   20.4457 C   0  0  0  0  0  0  0  0  0  0  0  0
   -1.1294   -2.4934   19.9377 O   0  0  0  0  0  0  0  0  0  0  0  0
   -0.8249   -0.7527   21.5473 C   0  0  0  0  0  0  0  0  0  0  0  0
   -1.2760   -1.2483   22.8065 O   0  0  0  0  0  0  0  0  0  0  0  0
    0.5123   -1.4020   21.1951 C   0  0  0  0  0  0  0  0  0  0  0  0
    1.4337   -1.5142   22.2671 O   0  0  0  0  0  0  0  0  0  0  0  0
    0.0468   -2.7623   20.6797 C   0  0  0  0  0  0  0  0  0  0  0  0
   -1.3247   -2.2166   22.7743 H   0  0  0  0  0  0  0  0  0  0  0  0
    1.0352   -2.0334   22.9830 H   0  0  0  0  0  0  0  0  0  0  0  0
    1.0112   -3.4361   19.8069 N   0  0  0  0  0  0  0  0  0  0  0  0
    1.8730   -4.4506   20.1461 C   0  0  0  0  0  0  0  0  0  0  0  0
    2.5960   -4.7812   19.0532 N   0  0  0  0  0  0  0  0  0  0  0  0
    2.2119   -3.9866   18.0226 C   0  0  0  0  0  0  0  0  0  0  0  0
    2.6251   -3.8963   16.6919 C   0  0  0  0  0  0  0  0  0  0  0  0
    3.4255   -4.7207   16.2352 O   0  0  0  0  0  0  0  0  0  0  0  0
    2.0338   -2.9549   15.8615 N   0  0  0  0  0  0  0  0  0  0  0  0
    1.0482   -2.1135   16.3452 C   0  0  0  0  0  0  0  0  0  0  0  0
    0.6408   -2.2073   17.6635 N   0  0  0  0  0  0  0  0  0  0  0  0
    1.2163   -3.1285   18.4858 C   0  0  0  0  0  0  0  0  0  0  0  0
    2.3178   -2.8854   14.9214 H   0  0  0  0  0  0  0  0  0  0  0  0
   -2.0125   -0.3191   19.3036 C   0  0  0  0  0  0  0  0  0  0  0  0
   -1.7160    1.0277   19.6659 O   0  0  0  0  0  0  0  0  0  0  0  0
   -0.7514    1.9250   18.7677 P   0  0  0  0  0  0  0  0  0  0  0  0
   -0.0735    2.9498   19.6601 O   0  0  0  0  0  0  0  0  0  0  0  0
    0.1798    0.9285   18.1170 O   0  0  0  0  0  0  0  0  0  0  0  0
   -1.6457    2.5991   17.7250 O   0  0  0  0  0  0  0  0  0  0  0  0
    0.8077    1.3980   17.5457 H   0  0  0  0  0  0  0  0  0  0  0  0
   -1.1038    3.1606   17.1488 H   0  0  0  0  0  0  0  0  0  0  0  0
 23 24  2  0  0  0
 23 25  1  0  0  0
 23 26  1  0  0  0
 23 22  1  0  0  0
 22 21  1  0  0  0
 21  1  1  0  0  0
  1  2  1  0  0  0
  1  3  1  0  0  0
  2  7  1  0  0  0
  3  4  1  0  0  0
  3  5  1  0  0  0
  5  6  1  0  0  0
  5  7  1  0  0  0
  7 10  1  0  0  0
 10 11  1  0  0  0
 10 19  1  0  0  0
 11 12  2  0  0  0
 12 13  1  0  0  0
 13 14  1  0  0  0
 13 19  2  0  0  0
 14 15  2  0  0  0
 14 16  1  0  0  0
 16 17  1  0  0  0
 17 18  2  0  0  0
 18 19  1  0  0  0
 25 27  1  0  0  0
 26 28  1  0  0  0
  4  8  1  0  0  0
  6  9  1  0  0  0
 16 20  1  0  0  0
M  END
> <minimizedAffinity>
-7.84201

$$$$
5K1F_IMP_A_401


 28 30  0  0  0  0  0  0  0  0999 V2000
   -0.9223   -1.4548   19.9691 C   0  0  0  0  0  0  0  0  0  0  0  0
   -0.6373   -0.7287   21.2007 O   0  0  0  0  0  0  0  0  0  0  0  0
   -1.7177   -2.6979   20.3831 C   0  0  0  0  0  0  0  0  0  0  0  0
   -0.8141   -3.7878   20.5579 O   0  0  0  0  0  0  0  0  0  0  0  0
   -2.2917   -2.2910   21.7390 C   0  0  0  0  0  0  0  0  0  0  0  0
   -2.6558   -3.3645   22.5911 O   0  0  0  0  0  0  0  0  0  0  0  0
   -1.1402   -1.4615   22.3036 C   0  0  0  0  0  0  0  0  0  0  0  0
   -0.1285   -3.5398   21.1977 H   0  0  0  0  0  0  0  0  0  0  0  0
   -1.8803   -3.9233   22.7566 H   0  0  0  0  0  0  0  0  0  0  0  0
   -1.5364   -0.5203   23.3539 N   0  0  0  0  0  0  0  0  0  0  0  0
   -2.7730    0.0485   23.5381 C   0  0  0  0  0  0  0  0  0  0  0  0
   -2.7131    0.8634   24.6145 N   0  0  0  0  0  0  0  0  0  0  0  0
   -1.4528    0.8275   25.1160 C   0  0  0  0  0  0  0  0  0  0  0  0
   -0.8457    1.4689   26.1975 C   0  0  0  0  0  0  0  0  0  0  0  0
   -1.5251    2.1512   26.9732 O   0  0  0  0  0  0  0  0  0  0  0  0
    0.4952    1.2290   26.4613 N   0  0  0  0  0  0  0  0  0  0  0  0
    1.2241    0.3669   25.6620 C   0  0  0  0  0  0  0  0  0  0  0  0
    0.6184   -0.2674   24.5926 N   0  0  0  0  0  0  0  0  0  0  0  0
   -0.6976   -0.0374   24.3263 C   0  0  0  0  0  0  0  0  0  0  0  0
    0.9310    1.6756   27.2228 H   0  0  0  0  0  0  0  0  0  0  0  0
   -1.6145   -0.5389   18.9829 C   0  0  0  0  0  0  0  0  0  0  0  0
   -1.6512    0.8082   19.4485 O   0  0  0  0  0  0  0  0  0  0  0  0
   -0.7667    1.9395   18.7556 P   0  0  0  0  0  0  0  0  0  0  0  0
   -0.2663    2.8888   19.8302 O   0  0  0  0  0  0  0  0  0  0  0  0
    0.3124    1.1710   18.0287 O   0  0  0  0  0  0  0  0  0  0  0  0
   -1.6892    2.6547   17.7662 O   0  0  0  0  0  0  0  0  0  0  0  0
    0.9019    1.7929   17.5742 H   0  0  0  0  0  0  0  0  0  0  0  0
   -1.1963    3.3576   17.3146 H   0  0  0  0  0  0  0  0  0  0  0  0
 23 24  2  0  0  0
 23 25  1  0  0  0
 23 26  1  0  0  0
 23 22  1  0  0  0
 22 21  1  0  0  0
 21  1  1  0  0  0
  1  2  1  0  0  0
  1  3  1  0  0  0
  2  7  1  0  0  0
  3  4  1  0  0  0
  3  5  1  0  0  0
  5  6  1  0  0  0
  5  7  1  0  0  0
  7 10  1  0  0  0
 10 11  1  0  0  0
 10 19  1  0  0  0
 11 12  2  0  0  0
 12 13  1  0  0  0
 13 14  1  0  0  0
 13 19  2  0  0  0
 14 15  2  0  0  0
 14 16  1  0  0  0
 16 17  1  0  0  0
 17 18  2  0  0  0
 18 19  1  0  0  0
 25 27  1  0  0  0
 26 28  1  0  0  0
  4  8  1  0  0  0
  6  9  1  0  0  0
 16 20  1  0  0  0
M  END
> <minimizedAffinity>
-7.32134

$$$$
5K1F_IMP_A_401


 28 30  0  0  0  0  0  0  0  0999 V2000
   -0.2127   -1.5443   18.6937 C   0  0  0  0  0  0  0  0  0  0  0  0
    0.3512   -0.8388   19.8380 O   0  0  0  0  0  0  0  0  0  0  0  0
   -0.4581   -2.9835   19.1608 C   0  0  0  0  0  0  0  0  0  0  0  0
    0.6737   -3.7805   18.8161 O   0  0  0  0  0  0  0  0  0  0  0  0
   -0.5310   -2.8340   20.6793 C   0  0  0  0  0  0  0  0  0  0  0  0
   -0.2616   -4.0135   21.4191 O   0  0  0  0  0  0  0  0  0  0  0  0
    0.5146   -1.7457   20.9136 C   0  0  0  0  0  0  0  0  0  0  0  0
    1.4748   -3.3852   19.1943 H   0  0  0  0  0  0  0  0  0  0  0  0
    0.6255   -4.3380   21.1986 H   0  0  0  0  0  0  0  0  0  0  0  0
    0.3512   -1.0169   22.1738 N   0  0  0  0  0  0  0  0  0  0  0  0
   -0.2118    0.2234   22.3506 C   0  0  0  0  0  0  0  0  0  0  0  0
   -0.1592    0.5339   23.6649 N   0  0  0  0  0  0  0  0  0  0  0  0
    0.4359   -0.4891   24.3285 C   0  0  0  0  0  0  0  0  0  0  0  0
    0.7463   -0.6907   25.6749 C   0  0  0  0  0  0  0  0  0  0  0  0
    0.3604    0.1182   26.5267 O   0  0  0  0  0  0  0  0  0  0  0  0
    1.3778   -1.8661   26.0556 N   0  0  0  0  0  0  0  0  0  0  0  0
    1.6992   -2.8267   25.1136 C   0  0  0  0  0  0  0  0  0  0  0  0
    1.3886   -2.6236   23.7813 N   0  0  0  0  0  0  0  0  0  0  0  0
    0.7688   -1.4724   23.3987 C   0  0  0  0  0  0  0  0  0  0  0  0
    1.5989   -2.0174   27.0030 H   0  0  0  0  0  0  0  0  0  0  0  0
   -1.4347   -0.8077   18.1889 C   0  0  0  0  0  0  0  0  0  0  0  0
   -1.1124    0.5080   17.7440 O   0  0  0  0  0  0  0  0  0  0  0  0
   -1.4263    1.7805   18.6521 P   0  0  0  0  0  0  0  0  0  0  0  0
   -2.4993    1.4041   19.6588 O   0  0  0  0  0  0  0  0  0  0  0  0
   -0.0879    2.1459   19.2510 O   0  0  0  0  0  0  0  0  0  0  0  0
   -1.9153    2.8733   17.6992 O   0  0  0  0  0  0  0  0  0  0  0  0
   -0.1913    2.9210   19.8250 H   0  0  0  0  0  0  0  0  0  0  0  0
   -2.1215    3.6748   18.2051 H   0  0  0  0  0  0  0  0  0  0  0  0
 23 24  2  0  0  0
 23 25  1  0  0  0
 23 26  1  0  0  0
 23 22  1  0  0  0
 22 21  1  0  0  0
 21  1  1  0  0  0
  1  2  1  0  0  0
  1  3  1  0  0  0
  2  7  1  0  0  0
  3  4  1  0  0  0
  3  5  1  0  0  0
  5  6  1  0  0  0
  5  7  1  0  0  0
  7 10  1  0  0  0
 10 11  1  0  0  0
 10 19  1  0  0  0
 11 12  2  0  0  0
 12 13  1  0  0  0
 13 14  1  0  0  0
 13 19  2  0  0  0
 14 15  2  0  0  0
 14 16  1  0  0  0
 16 17  1  0  0  0
 17 18  2  0  0  0
 18 19  1  0  0  0
 25 27  1  0  0  0
 26 28  1  0  0  0
  4  8  1  0  0  0
  6  9  1  0  0  0
 16 20  1  0  0  0
M  END
> <minimizedAffinity>
-7.20723

$$$$
5K1F_IMP_A_401


 28 30  0  0  0  0  0  0  0  0999 V2000
   -0.0788   -0.2708   21.1439 C   0  0  0  0  0  0  0  0  0  0  0  0
   -0.0614    0.7076   22.2245 O   0  0  0  0  0  0  0  0  0  0  0  0
    0.3405   -1.6048   21.7719 C   0  0  0  0  0  0  0  0  0  0  0  0
    1.7474   -1.7718   21.6059 O   0  0  0  0  0  0  0  0  0  0  0  0
    0.0251   -1.3913   23.2513 C   0  0  0  0  0  0  0  0  0  0  0  0
    0.7357   -2.2267   24.1503 O   0  0  0  0  0  0  0  0  0  0  0  0
    0.3866    0.0837   23.4145 C   0  0  0  0  0  0  0  0  0  0  0  0
    2.2105   -1.0073   21.9829 H   0  0  0  0  0  0  0  0  0  0  0  0
    1.6890   -2.0927   24.0313 H   0  0  0  0  0  0  0  0  0  0  0  0
   -0.2539    0.7361   24.5590 N   0  0  0  0  0  0  0  0  0  0  0  0
    0.3544    1.4818   25.5392 C   0  0  0  0  0  0  0  0  0  0  0  0
   -0.5914    1.8947   26.4117 N   0  0  0  0  0  0  0  0  0  0  0  0
   -1.7945    1.4169   26.0052 C   0  0  0  0  0  0  0  0  0  0  0  0
   -3.0844    1.5320   26.5275 C   0  0  0  0  0  0  0  0  0  0  0  0
   -3.2964    2.2724   27.4948 O   0  0  0  0  0  0  0  0  0  0  0  0
   -4.1379    0.9095   25.8734 N   0  0  0  0  0  0  0  0  0  0  0  0
   -3.9146    0.1811   24.7189 C   0  0  0  0  0  0  0  0  0  0  0  0
   -2.6357    0.0709   24.2041 N   0  0  0  0  0  0  0  0  0  0  0  0
   -1.5955    0.6786   24.8400 C   0  0  0  0  0  0  0  0  0  0  0  0
   -5.0509    0.9868   26.2337 H   0  0  0  0  0  0  0  0  0  0  0  0
   -1.4344   -0.2670   20.4709 C   0  0  0  0  0  0  0  0  0  0  0  0
   -1.8045    1.0391   20.0352 O   0  0  0  0  0  0  0  0  0  0  0  0
   -0.9925    1.7786   18.8794 P   0  0  0  0  0  0  0  0  0  0  0  0
   -0.1696    0.7461   18.1290 O   0  0  0  0  0  0  0  0  0  0  0  0
   -2.0602    2.4643   18.0587 O   0  0  0  0  0  0  0  0  0  0  0  0
   -0.0970    2.8043   19.5775 O   0  0  0  0  0  0  0  0  0  0  0  0
   -1.6455    2.9438   17.3245 H   0  0  0  0  0  0  0  0  0  0  0  0
    0.4222    3.2850   18.9140 H   0  0  0  0  0  0  0  0  0  0  0  0
 23 24  2  0  0  0
 23 25  1  0  0  0
 23 26  1  0  0  0
 23 22  1  0  0  0
 22 21  1  0  0  0
 21  1  1  0  0  0
  1  2  1  0  0  0
  1  3  1  0  0  0
  2  7  1  0  0  0
  3  4  1  0  0  0
  3  5  1  0  0  0
  5  6  1  0  0  0
  5  7  1  0  0  0
  7 10  1  0  0  0
 10 11  1  0  0  0
 10 19  1  0  0  0
 11 12  2  0  0  0
 12 13  1  0  0  0
 13 14  1  0  0  0
 13 19  2  0  0  0
 14 15  2  0  0  0
 14 16  1  0  0  0
 16 17  1  0  0  0
 17 18  2  0  0  0
 18 19  1  0  0  0
 25 27  1  0  0  0
 26 28  1  0  0  0
  4  8  1  0  0  0
  6  9  1  0  0  0
 16 20  1  0  0  0
M  END
> <minimizedAffinity>
-7.16985

$$$$
5K1F_IMP_A_401


 28 30  0  0  0  0  0  0  0  0999 V2000
    1.6157   -4.2000   19.7149 C   0  0  0  0  0  0  0  0  0  0  0  0
    1.6160   -5.4153   18.9097 O   0  0  0  0  0  0  0  0  0  0  0  0
    3.0860   -3.7997   19.8805 C   0  0  0  0  0  0  0  0  0  0  0  0
    3.5792   -4.3470   21.1021 O   0  0  0  0  0  0  0  0  0  0  0  0
    3.7580   -4.5012   18.7015 C   0  0  0  0  0  0  0  0  0  0  0  0
    5.1494   -4.7334   18.8461 O   0  0  0  0  0  0  0  0  0  0  0  0
    2.9526   -5.7974   18.6385 C   0  0  0  0  0  0  0  0  0  0  0  0
    3.4396   -5.3069   21.1060 H   0  0  0  0  0  0  0  0  0  0  0  0
    5.3068   -5.2729   19.6367 H   0  0  0  0  0  0  0  0  0  0  0  0
    2.9963   -6.4691   17.3375 N   0  0  0  0  0  0  0  0  0  0  0  0
    2.9769   -5.8809   16.0964 C   0  0  0  0  0  0  0  0  0  0  0  0
    3.0240   -6.8547   15.1605 N   0  0  0  0  0  0  0  0  0  0  0  0
    3.0665   -8.0572   15.7877 C   0  0  0  0  0  0  0  0  0  0  0  0
    3.1178   -9.3701   15.3152 C   0  0  0  0  0  0  0  0  0  0  0  0
    3.2506   -9.5875   14.1052 O   0  0  0  0  0  0  0  0  0  0  0  0
    3.1459  -10.4169   16.2255 N   0  0  0  0  0  0  0  0  0  0  0  0
    3.1210  -10.1647   17.5854 C   0  0  0  0  0  0  0  0  0  0  0  0
    3.0718   -8.8627   18.0492 N   0  0  0  0  0  0  0  0  0  0  0  0
    3.0436   -7.8290   17.1624 C   0  0  0  0  0  0  0  0  0  0  0  0
    3.1838  -11.3457   15.9013 H   0  0  0  0  0  0  0  0  0  0  0  0
    0.7272   -3.1582   19.0700 C   0  0  0  0  0  0  0  0  0  0  0  0
    0.5229   -3.4227   17.6839 O   0  0  0  0  0  0  0  0  0  0  0  0
   -0.3488   -2.4390   16.7813 P   0  0  0  0  0  0  0  0  0  0  0  0
   -0.6454   -1.1828   17.5815 O   0  0  0  0  0  0  0  0  0  0  0  0
    0.4955   -2.2256   15.5463 O   0  0  0  0  0  0  0  0  0  0  0  0
   -1.6327   -3.1988   16.4410 O   0  0  0  0  0  0  0  0  0  0  0  0
    0.0318   -1.6306   14.9365 H   0  0  0  0  0  0  0  0  0  0  0  0
   -2.2022   -2.6403   15.8891 H   0  0  0  0  0  0  0  0  0  0  0  0
 23 24  2  0  0  0
 23 25  1  0  0  0
 23 26  1  0  0  0
 23 22  1  0  0  0
 22 21  1  0  0  0
 21  1  1  0  0  0
  1  2  1  0  0  0
  1  3  1  0  0  0
  2  7  1  0  0  0
  3  4  1  0  0  0
  3  5  1  0  0  0
  5  6  1  0  0  0
  5  7  1  0  0  0
  7 10  1  0  0  0
 10 11  1  0  0  0
 10 19  1  0  0  0
 11 12  2  0  0  0
 12 13  1  0  0  0
 13 14  1  0  0  0
 13 19  2  0  0  0
 14 15  2  0  0  0
 14 16  1  0  0  0
 16 17  1  0  0  0
 17 18  2  0  0  0
 18 19  1  0  0  0
 25 27  1  0  0  0
 26 28  1  0  0  0
  4  8  1  0  0  0
  6  9  1  0  0  0
 16 20  1  0  0  0
M  END
> <minimizedAffinity>
-7.16124

$$$$
5K1F_IMP_A_401


 28 30  0  0  0  0  0  0  0  0999 V2000
    0.0143   -1.4626   18.2404 C   0  0  0  0  0  0  0  0  0  0  0  0
    0.6867   -1.2223   19.5114 O   0  0  0  0  0  0  0  0  0  0  0  0
   -0.0607   -2.9852   18.0806 C   0  0  0  0  0  0  0  0  0  0  0  0
    1.0624   -3.4259   17.3194 O   0  0  0  0  0  0  0  0  0  0  0  0
    0.0754   -3.4792   19.5197 C   0  0  0  0  0  0  0  0  0  0  0  0
    0.5297   -4.8149   19.6627 O   0  0  0  0  0  0  0  0  0  0  0  0
    1.0657   -2.4617   20.0827 C   0  0  0  0  0  0  0  0  0  0  0  0
    1.8800   -3.1242   17.7451 H   0  0  0  0  0  0  0  0  0  0  0  0
    1.3963   -4.9090   19.2372 H   0  0  0  0  0  0  0  0  0  0  0  0
    1.0350   -2.3374   21.5419 N   0  0  0  0  0  0  0  0  0  0  0  0
    1.8030   -3.0226   22.4516 C   0  0  0  0  0  0  0  0  0  0  0  0
    1.4568   -2.6189   23.6940 N   0  0  0  0  0  0  0  0  0  0  0  0
    0.4734   -1.6899   23.5898 C   0  0  0  0  0  0  0  0  0  0  0  0
   -0.2430   -0.9590   24.5397 C   0  0  0  0  0  0  0  0  0  0  0  0
    0.0674   -1.0258   25.7347 O   0  0  0  0  0  0  0  0  0  0  0  0
   -1.2166   -0.0666   24.1143 N   0  0  0  0  0  0  0  0  0  0  0  0
   -1.4775    0.0965   22.7657 C   0  0  0  0  0  0  0  0  0  0  0  0
   -0.7645   -0.6282   21.8281 N   0  0  0  0  0  0  0  0  0  0  0  0
    0.1929   -1.5068   22.2370 C   0  0  0  0  0  0  0  0  0  0  0  0
   -1.7254    0.4541   24.7771 H   0  0  0  0  0  0  0  0  0  0  0  0
   -1.3157   -0.7407   18.2198 C   0  0  0  0  0  0  0  0  0  0  0  0
   -1.1890    0.5865   17.7145 O   0  0  0  0  0  0  0  0  0  0  0  0
   -1.3912    1.8492   18.6669 P   0  0  0  0  0  0  0  0  0  0  0  0
   -0.0518    2.2082   19.2860 O   0  0  0  0  0  0  0  0  0  0  0  0
   -1.9797    2.9051   17.7601 O   0  0  0  0  0  0  0  0  0  0  0  0
   -2.4009    1.4204   19.7336 O   0  0  0  0  0  0  0  0  0  0  0  0
   -2.1355    3.7169   18.2677 H   0  0  0  0  0  0  0  0  0  0  0  0
   -2.5603    2.1580   20.3431 H   0  0  0  0  0  0  0  0  0  0  0  0
 23 24  2  0  0  0
 23 25  1  0  0  0
 23 26  1  0  0  0
 23 22  1  0  0  0
 22 21  1  0  0  0
 21  1  1  0  0  0
  1  2  1  0  0  0
  1  3  1  0  0  0
  2  7  1  0  0  0
  3  4  1  0  0  0
  3  5  1  0  0  0
  5  6  1  0  0  0
  5  7  1  0  0  0
  7 10  1  0  0  0
 10 11  1  0  0  0
 10 19  1  0  0  0
 11 12  2  0  0  0
 12 13  1  0  0  0
 13 14  1  0  0  0
 13 19  2  0  0  0
 14 15  2  0  0  0
 14 16  1  0  0  0
 16 17  1  0  0  0
 17 18  2  0  0  0
 18 19  1  0  0  0
 25 27  1  0  0  0
 26 28  1  0  0  0
  4  8  1  0  0  0
  6  9  1  0  0  0
 16 20  1  0  0  0
M  END
> <minimizedAffinity>
-7.14059

$$$$
5K1F_IMP_A_401


 28 30  0  0  0  0  0  0  0  0999 V2000
   -0.5138   -0.3756   19.6328 C   0  0  0  0  0  0  0  0  0  0  0  0
    0.7979   -0.9962   19.4926 O   0  0  0  0  0  0  0  0  0  0  0  0
   -1.4409   -1.1183   18.6640 C   0  0  0  0  0  0  0  0  0  0  0  0
   -1.4803   -0.4092   17.4269 O   0  0  0  0  0  0  0  0  0  0  0  0
   -0.7181   -2.4492   18.4641 C   0  0  0  0  0  0  0  0  0  0  0  0
   -1.0486   -3.1469   17.2746 O   0  0  0  0  0  0  0  0  0  0  0  0
    0.7395   -1.9937   18.4887 C   0  0  0  0  0  0  0  0  0  0  0  0
   -0.5781   -0.3003   17.0877 H   0  0  0  0  0  0  0  0  0  0  0  0
   -0.8516   -2.5880   16.5066 H   0  0  0  0  0  0  0  0  0  0  0  0
    1.6946   -3.0535   18.8208 N   0  0  0  0  0  0  0  0  0  0  0  0
    2.2494   -3.3185   20.0491 C   0  0  0  0  0  0  0  0  0  0  0  0
    3.0852   -4.3730   19.9226 N   0  0  0  0  0  0  0  0  0  0  0  0
    3.0764   -4.7804   18.6284 C   0  0  0  0  0  0  0  0  0  0  0  0
    3.7463   -5.8026   17.9532 C   0  0  0  0  0  0  0  0  0  0  0  0
    4.4336   -6.6142   18.5840 O   0  0  0  0  0  0  0  0  0  0  0  0
    3.5302   -5.9708   16.5929 N   0  0  0  0  0  0  0  0  0  0  0  0
    2.6636   -5.1351   15.9118 C   0  0  0  0  0  0  0  0  0  0  0  0
    2.0008   -4.1249   16.5848 N   0  0  0  0  0  0  0  0  0  0  0  0
    2.2074   -3.9525   17.9202 C   0  0  0  0  0  0  0  0  0  0  0  0
    3.9971   -6.6900   16.1091 H   0  0  0  0  0  0  0  0  0  0  0  0
   -0.9388   -0.3983   21.0852 C   0  0  0  0  0  0  0  0  0  0  0  0
   -0.2672    0.6015   21.8481 O   0  0  0  0  0  0  0  0  0  0  0  0
    0.2916    0.2822   23.3069 P   0  0  0  0  0  0  0  0  0  0  0  0
    1.0817   -1.0135   23.2498 O   0  0  0  0  0  0  0  0  0  0  0  0
    1.0985    1.5073   23.6695 O   0  0  0  0  0  0  0  0  0  0  0  0
   -0.9344    0.1475   24.2124 O   0  0  0  0  0  0  0  0  0  0  0  0
    1.4787    1.3937   24.5547 H   0  0  0  0  0  0  0  0  0  0  0  0
   -0.6475   -0.0483   25.1181 H   0  0  0  0  0  0  0  0  0  0  0  0
 23 24  2  0  0  0
 23 25  1  0  0  0
 23 26  1  0  0  0
 23 22  1  0  0  0
 22 21  1  0  0  0
 21  1  1  0  0  0
  1  2  1  0  0  0
  1  3  1  0  0  0
  2  7  1  0  0  0
  3  4  1  0  0  0
  3  5  1  0  0  0
  5  6  1  0  0  0
  5  7  1  0  0  0
  7 10  1  0  0  0
 10 11  1  0  0  0
 10 19  1  0  0  0
 11 12  2  0  0  0
 12 13  1  0  0  0
 13 14  1  0  0  0
 13 19  2  0  0  0
 14 15  2  0  0  0
 14 16  1  0  0  0
 16 17  1  0  0  0
 17 18  2  0  0  0
 18 19  1  0  0  0
 25 27  1  0  0  0
 26 28  1  0  0  0
  4  8  1  0  0  0
  6  9  1  0  0  0
 16 20  1  0  0  0
M  END
> <minimizedAffinity>
-7.10704

$$$$
