1UTO_PEA_A_1246


 12 12  0  0  0  0  0  0  0  0999 V2000
   45.8209   20.1304   50.8059 C   0  0  0  0  0  0  0  0  0  0  0  0
   46.6352   20.9569   51.5599 C   0  0  0  0  0  0  0  0  0  0  0  0
   46.9189   22.2658   51.2051 C   0  0  0  0  0  0  0  0  0  0  0  0
   46.3931   22.8045   50.0402 C   0  0  0  0  0  0  0  0  0  0  0  0
   45.5909   21.9848   49.2679 C   0  0  0  0  0  0  0  0  0  0  0  0
   45.3169   20.6908   49.6422 C   0  0  0  0  0  0  0  0  0  0  0  0
   45.5370   18.8109   51.2183 C   0  0  0  0  0  0  0  0  0  0  0  0
   45.5662   18.6771   52.7713 C   0  0  0  0  0  0  0  0  0  0  0  0
   45.9242   17.2897   53.1968 N   0  0  0  0  0  0  0  0  0  0  0  0
   45.2262   16.6350   52.8439 H   0  0  0  0  0  0  0  0  0  0  0  0
   45.9503   17.2425   54.2154 H   0  0  0  0  0  0  0  0  0  0  0  0
   46.8405   17.0448   52.8216 H   0  0  0  0  0  0  0  0  0  0  0  0
  1  2  2  0  0  0
  1  6  1  0  0  0
  1  7  1  0  0  0
  2  3  1  0  0  0
  3  4  2  0  0  0
  4  5  1  0  0  0
  5  6  2  0  0  0
  7  8  1  0  0  0
  8  9  1  0  0  0
  9 10  1  0  0  0
  9 11  1  0  0  0
  9 12  1  0  0  0
M  CHG 1   9   1
M  END
> <minimizedAffinity>
-4.68102

$$$$
1UTO_PEA_A_1246


 12 12  0  0  0  0  0  0  0  0999 V2000
   45.8660   20.1882   50.8525 C   0  0  0  0  0  0  0  0  0  0  0  0
   45.3300   20.7285   49.6969 C   0  0  0  0  0  0  0  0  0  0  0  0
   45.5854   22.0247   49.2798 C   0  0  0  0  0  0  0  0  0  0  0  0
   46.3993   22.8552   50.0358 C   0  0  0  0  0  0  0  0  0  0  0  0
   46.9286   22.3343   51.2021 C   0  0  0  0  0  0  0  0  0  0  0  0
   46.6675   21.0428   51.5938 C   0  0  0  0  0  0  0  0  0  0  0  0
   45.6004   18.8535   51.2265 C   0  0  0  0  0  0  0  0  0  0  0  0
   45.5573   18.6903   52.7763 C   0  0  0  0  0  0  0  0  0  0  0  0
   45.9299   17.3042   53.1936 N   0  0  0  0  0  0  0  0  0  0  0  0
   45.2670   16.6394   52.7950 H   0  0  0  0  0  0  0  0  0  0  0  0
   45.9075   17.2380   54.2112 H   0  0  0  0  0  0  0  0  0  0  0  0
   46.8694   17.0895   52.8595 H   0  0  0  0  0  0  0  0  0  0  0  0
  1  2  2  0  0  0
  1  6  1  0  0  0
  1  7  1  0  0  0
  2  3  1  0  0  0
  3  4  2  0  0  0
  4  5  1  0  0  0
  5  6  2  0  0  0
  7  8  1  0  0  0
  8  9  1  0  0  0
  9 10  1  0  0  0
  9 11  1  0  0  0
  9 12  1  0  0  0
M  CHG 1   9   1
M  END
> <minimizedAffinity>
-4.65903

$$$$
1UTO_PEA_A_1246


 12 12  0  0  0  0  0  0  0  0999 V2000
   44.9669   20.2917   51.2223 C   0  0  0  0  0  0  0  0  0  0  0  0
   44.2599   20.6332   50.0829 C   0  0  0  0  0  0  0  0  0  0  0  0
   43.8184   21.9209   49.8253 C   0  0  0  0  0  0  0  0  0  0  0  0
   44.0640   22.9395   50.7341 C   0  0  0  0  0  0  0  0  0  0  0  0
   44.7550   22.6096   51.8854 C   0  0  0  0  0  0  0  0  0  0  0  0
   45.1898   21.3265   52.1178 C   0  0  0  0  0  0  0  0  0  0  0  0
   45.4209   18.9720   51.4323 C   0  0  0  0  0  0  0  0  0  0  0  0
   45.7090   18.6982   52.9398 C   0  0  0  0  0  0  0  0  0  0  0  0
   45.8792   17.2380   53.2104 N   0  0  0  0  0  0  0  0  0  0  0  0
   45.0206   16.7446   52.9659 H   0  0  0  0  0  0  0  0  0  0  0  0
   46.0823   17.0971   54.2000 H   0  0  0  0  0  0  0  0  0  0  0  0
   46.6507   16.8760   52.6501 H   0  0  0  0  0  0  0  0  0  0  0  0
  1  2  2  0  0  0
  1  6  1  0  0  0
  1  7  1  0  0  0
  2  3  1  0  0  0
  3  4  2  0  0  0
  4  5  1  0  0  0
  5  6  2  0  0  0
  7  8  1  0  0  0
  8  9  1  0  0  0
  9 10  1  0  0  0
  9 11  1  0  0  0
  9 12  1  0  0  0
M  CHG 1   9   1
M  END
> <minimizedAffinity>
-4.59350

$$$$
1UTO_PEA_A_1246


 12 12  0  0  0  0  0  0  0  0999 V2000
   45.2236   20.3408   51.3322 C   0  0  0  0  0  0  0  0  0  0  0  0
   45.3634   21.3334   52.2860 C   0  0  0  0  0  0  0  0  0  0  0  0
   44.7641   22.5776   52.1751 C   0  0  0  0  0  0  0  0  0  0  0  0
   43.9924   22.8858   51.0647 C   0  0  0  0  0  0  0  0  0  0  0  0
   43.8573   21.9093   50.0951 C   0  0  0  0  0  0  0  0  0  0  0  0
   44.4554   20.6789   50.2285 C   0  0  0  0  0  0  0  0  0  0  0  0
   45.8306   19.0776   51.4980 C   0  0  0  0  0  0  0  0  0  0  0  0
   45.4869   18.4542   52.8850 C   0  0  0  0  0  0  0  0  0  0  0  0
   46.7135   18.2470   53.7137 N   0  0  0  0  0  0  0  0  0  0  0  0
   47.3432   17.6038   53.2340 H   0  0  0  0  0  0  0  0  0  0  0  0
   46.4507   17.8546   54.6178 H   0  0  0  0  0  0  0  0  0  0  0  0
   47.1835   19.1412   53.8547 H   0  0  0  0  0  0  0  0  0  0  0  0
  1  2  2  0  0  0
  1  6  1  0  0  0
  1  7  1  0  0  0
  2  3  1  0  0  0
  3  4  2  0  0  0
  4  5  1  0  0  0
  5  6  2  0  0  0
  7  8  1  0  0  0
  8  9  1  0  0  0
  9 10  1  0  0  0
  9 11  1  0  0  0
  9 12  1  0  0  0
M  CHG 1   9   1
M  END
> <minimizedAffinity>
-4.56249

$$$$
1UTO_PEA_A_1246


 12 12  0  0  0  0  0  0  0  0999 V2000
   45.5857   20.6867   50.2463 C   0  0  0  0  0  0  0  0  0  0  0  0
   44.7345   19.5973   50.1855 C   0  0  0  0  0  0  0  0  0  0  0  0
   44.6677   18.6345   51.1794 C   0  0  0  0  0  0  0  0  0  0  0  0
   45.4859   18.7235   52.2958 C   0  0  0  0  0  0  0  0  0  0  0  0
   46.3537   19.7979   52.3623 C   0  0  0  0  0  0  0  0  0  0  0  0
   46.3989   20.7457   51.3677 C   0  0  0  0  0  0  0  0  0  0  0  0
   45.6025   21.6585   49.2231 C   0  0  0  0  0  0  0  0  0  0  0  0
   44.6837   22.8698   49.5681 C   0  0  0  0  0  0  0  0  0  0  0  0
   43.2505   22.5780   49.2598 N   0  0  0  0  0  0  0  0  0  0  0  0
   43.1491   22.3880   48.2628 H   0  0  0  0  0  0  0  0  0  0  0  0
   42.6776   23.3831   49.5125 H   0  0  0  0  0  0  0  0  0  0  0  0
   42.9469   21.7636   49.7937 H   0  0  0  0  0  0  0  0  0  0  0  0
  1  2  2  0  0  0
  1  6  1  0  0  0
  1  7  1  0  0  0
  2  3  1  0  0  0
  3  4  2  0  0  0
  4  5  1  0  0  0
  5  6  2  0  0  0
  7  8  1  0  0  0
  8  9  1  0  0  0
  9 10  1  0  0  0
  9 11  1  0  0  0
  9 12  1  0  0  0
M  CHG 1   9   1
M  END
> <minimizedAffinity>
-4.21665

$$$$
1UTO_PEA_A_1246


 12 12  0  0  0  0  0  0  0  0999 V2000
   45.4155   18.8404   52.2200 C   0  0  0  0  0  0  0  0  0  0  0  0
   46.3058   19.8995   52.2392 C   0  0  0  0  0  0  0  0  0  0  0  0
   46.3862   20.8375   51.2227 C   0  0  0  0  0  0  0  0  0  0  0  0
   45.5631   20.7364   50.1110 C   0  0  0  0  0  0  0  0  0  0  0  0
   44.6796   19.6735   50.0701 C   0  0  0  0  0  0  0  0  0  0  0  0
   44.6119   18.7578   51.0931 C   0  0  0  0  0  0  0  0  0  0  0  0
   45.3490   17.9224   53.2898 C   0  0  0  0  0  0  0  0  0  0  0  0
   46.3348   18.3051   54.4354 C   0  0  0  0  0  0  0  0  0  0  0  0
   45.8493   17.8200   55.7633 N   0  0  0  0  0  0  0  0  0  0  0  0
   44.9491   18.2507   55.9742 H   0  0  0  0  0  0  0  0  0  0  0  0
   46.5245   18.0723   56.4850 H   0  0  0  0  0  0  0  0  0  0  0  0
   45.7431   16.8059   55.7367 H   0  0  0  0  0  0  0  0  0  0  0  0
  1  2  2  0  0  0
  1  6  1  0  0  0
  1  7  1  0  0  0
  2  3  1  0  0  0
  3  4  2  0  0  0
  4  5  1  0  0  0
  5  6  2  0  0  0
  7  8  1  0  0  0
  8  9  1  0  0  0
  9 10  1  0  0  0
  9 11  1  0  0  0
  9 12  1  0  0  0
M  CHG 1   9   1
M  END
> <minimizedAffinity>
-4.16910

$$$$
1UTO_PEA_A_1246


 12 12  0  0  0  0  0  0  0  0999 V2000
   44.7584   21.4204   51.1508 C   0  0  0  0  0  0  0  0  0  0  0  0
   45.5326   21.1051   52.2535 C   0  0  0  0  0  0  0  0  0  0  0  0
   45.8561   19.8039   52.6023 C   0  0  0  0  0  0  0  0  0  0  0  0
   45.3895   18.7400   51.8448 C   0  0  0  0  0  0  0  0  0  0  0  0
   44.6006   19.0389   50.7493 C   0  0  0  0  0  0  0  0  0  0  0  0
   44.2973   20.3379   50.4173 C   0  0  0  0  0  0  0  0  0  0  0  0
   44.4748   22.7619   50.8167 C   0  0  0  0  0  0  0  0  0  0  0  0
   43.5298   22.8572   49.5804 C   0  0  0  0  0  0  0  0  0  0  0  0
   42.1655   23.3300   49.9666 N   0  0  0  0  0  0  0  0  0  0  0  0
   41.7495   22.6689   50.6225 H   0  0  0  0  0  0  0  0  0  0  0  0
   41.5803   23.3965   49.1337 H   0  0  0  0  0  0  0  0  0  0  0  0
   42.2356   24.2474   50.4069 H   0  0  0  0  0  0  0  0  0  0  0  0
  1  2  2  0  0  0
  1  6  1  0  0  0
  1  7  1  0  0  0
  2  3  1  0  0  0
  3  4  2  0  0  0
  4  5  1  0  0  0
  5  6  2  0  0  0
  7  8  1  0  0  0
  8  9  1  0  0  0
  9 10  1  0  0  0
  9 11  1  0  0  0
  9 12  1  0  0  0
M  CHG 1   9   1
M  END
> <minimizedAffinity>
-4.15663

$$$$
1UTO_PEA_A_1246


 12 12  0  0  0  0  0  0  0  0999 V2000
   45.5969   20.8766   50.7322 C   0  0  0  0  0  0  0  0  0  0  0  0
   44.3087   21.0929   50.2757 C   0  0  0  0  0  0  0  0  0  0  0  0
   43.9017   22.2851   49.6991 C   0  0  0  0  0  0  0  0  0  0  0  0
   44.7934   23.3395   49.5690 C   0  0  0  0  0  0  0  0  0  0  0  0
   46.0800   23.1436   50.0361 C   0  0  0  0  0  0  0  0  0  0  0  0
   46.4644   21.9499   50.5989 C   0  0  0  0  0  0  0  0  0  0  0  0
   45.9759   19.6366   51.2894 C   0  0  0  0  0  0  0  0  0  0  0  0
   44.7770   18.6414   51.3416 C   0  0  0  0  0  0  0  0  0  0  0  0
   44.8951   17.6986   52.4954 N   0  0  0  0  0  0  0  0  0  0  0  0
   45.7486   17.1485   52.3991 H   0  0  0  0  0  0  0  0  0  0  0  0
   44.0882   17.0747   52.5087 H   0  0  0  0  0  0  0  0  0  0  0  0
   44.9290   18.2291   53.3659 H   0  0  0  0  0  0  0  0  0  0  0  0
  1  2  2  0  0  0
  1  6  1  0  0  0
  1  7  1  0  0  0
  2  3  1  0  0  0
  3  4  2  0  0  0
  4  5  1  0  0  0
  5  6  2  0  0  0
  7  8  1  0  0  0
  8  9  1  0  0  0
  9 10  1  0  0  0
  9 11  1  0  0  0
  9 12  1  0  0  0
M  CHG 1   9   1
M  END
> <minimizedAffinity>
-4.12309

$$$$
1UTO_PEA_A_1246


 12 12  0  0  0  0  0  0  0  0999 V2000
   45.8999   21.3136   50.5900 C   0  0  0  0  0  0  0  0  0  0  0  0
   44.8402   20.5881   50.0747 C   0  0  0  0  0  0  0  0  0  0  0  0
   44.4515   19.3573   50.5780 C   0  0  0  0  0  0  0  0  0  0  0  0
   45.1403   18.7857   51.6376 C   0  0  0  0  0  0  0  0  0  0  0  0
   46.2122   19.4916   52.1521 C   0  0  0  0  0  0  0  0  0  0  0  0
   46.5766   20.7147   51.6416 C   0  0  0  0  0  0  0  0  0  0  0  0
   46.2454   22.5765   50.0633 C   0  0  0  0  0  0  0  0  0  0  0  0
   45.1526   23.1087   49.0871 C   0  0  0  0  0  0  0  0  0  0  0  0
   45.6944   23.3008   47.7074 N   0  0  0  0  0  0  0  0  0  0  0  0
   46.4481   23.9876   47.7307 H   0  0  0  0  0  0  0  0  0  0  0  0
   44.9508   23.6327   47.0932 H   0  0  0  0  0  0  0  0  0  0  0  0
   46.0541   22.4130   47.3567 H   0  0  0  0  0  0  0  0  0  0  0  0
  1  2  2  0  0  0
  1  6  1  0  0  0
  1  7  1  0  0  0
  2  3  1  0  0  0
  3  4  2  0  0  0
  4  5  1  0  0  0
  5  6  2  0  0  0
  7  8  1  0  0  0
  8  9  1  0  0  0
  9 10  1  0  0  0
  9 11  1  0  0  0
  9 12  1  0  0  0
M  CHG 1   9   1
M  END
> <minimizedAffinity>
-4.04767

$$$$
1UTO_PEA_A_1246


 12 12  0  0  0  0  0  0  0  0999 V2000
   44.8545   21.2064   50.5310 C   0  0  0  0  0  0  0  0  0  0  0  0
   46.2052   21.5051   50.5645 C   0  0  0  0  0  0  0  0  0  0  0  0
   46.6908   22.8001   50.6447 C   0  0  0  0  0  0  0  0  0  0  0  0
   45.8147   23.8747   50.6804 C   0  0  0  0  0  0  0  0  0  0  0  0
   44.4620   23.5925   50.6307 C   0  0  0  0  0  0  0  0  0  0  0  0
   44.0017   22.2993   50.5580 C   0  0  0  0  0  0  0  0  0  0  0  0
   44.4029   19.8705   50.4757 C   0  0  0  0  0  0  0  0  0  0  0  0
   45.4600   18.8836   51.0580 C   0  0  0  0  0  0  0  0  0  0  0  0
   44.8705   18.0088   52.1170 N   0  0  0  0  0  0  0  0  0  0  0  0
   44.5318   18.5870   52.8860 H   0  0  0  0  0  0  0  0  0  0  0  0
   45.5833   17.3664   52.4630 H   0  0  0  0  0  0  0  0  0  0  0  0
   44.0942   17.4760   51.7247 H   0  0  0  0  0  0  0  0  0  0  0  0
  1  2  2  0  0  0
  1  6  1  0  0  0
  1  7  1  0  0  0
  2  3  1  0  0  0
  3  4  2  0  0  0
  4  5  1  0  0  0
  5  6  2  0  0  0
  7  8  1  0  0  0
  8  9  1  0  0  0
  9 10  1  0  0  0
  9 11  1  0  0  0
  9 12  1  0  0  0
M  CHG 1   9   1
M  END
> <minimizedAffinity>
-3.96285

$$$$
