6EBE_J3V_A_302


 33 34  0  0  0  0  0  0  0  0999 V2000
   -4.3771    0.6548   13.4086 C   0  0  0  0  0  0  0  0  0  0  0  0
   -4.5862    1.3734   14.5693 C   0  0  0  0  0  0  0  0  0  0  0  0
   -4.5822    2.7530   14.5211 C   0  0  0  0  0  0  0  0  0  0  0  0
   -4.3612    3.3869   13.3097 C   0  0  0  0  0  0  0  0  0  0  0  0
   -4.1429    2.6797   12.1317 C   0  0  0  0  0  0  0  0  0  0  0  0
   -4.1486    1.2954   12.2017 C   0  0  0  0  0  0  0  0  0  0  0  0
   -4.7970    3.5207   15.6777 O   0  0  0  0  0  0  0  0  0  0  0  0
   -4.9470    3.0972   16.4999 H   0  0  0  0  0  0  0  0  0  0  0  0
   -4.3925    4.8274   13.3630 N   0  0  0  0  0  0  0  0  0  0  0  0
   -3.2456    5.5637   13.8322 C   0  0  0  0  0  0  0  0  0  0  0  0
   -3.3856    7.0034   13.7980 N   0  0  0  0  0  0  0  0  0  0  0  0
   -2.2731    5.0014   14.2171 O   0  0  0  0  0  0  0  0  0  0  0  0
   -5.2014    5.3105   13.0775 H   0  0  0  0  0  0  0  0  0  0  0  0
   -4.2315    7.3617   13.4439 H   0  0  0  0  0  0  0  0  0  0  0  0
   -1.5201    8.4713   13.2843 C   0  0  0  0  0  0  0  0  0  0  0  0
   -0.5074    9.8512   14.9597 C   0  0  0  0  0  0  0  0  0  0  0  0
   -2.3411    8.4064   15.5526 C   0  0  0  0  0  0  0  0  0  0  0  0
   -2.3962    7.9666   14.2367 C   0  0  0  0  0  0  0  0  0  0  0  0
   -0.5726    9.4090   13.6464 C   0  0  0  0  0  0  0  0  0  0  0  0
   -1.3870    9.3495   15.9144 C   0  0  0  0  0  0  0  0  0  0  0  0
    0.5620   10.8781   15.3300 C   0  0  0  0  0  0  0  0  0  0  0  0
    1.7908   10.2807   15.2985 F   0  0  0  0  0  0  0  0  0  0  0  0
    0.5202   11.8874   14.4107 F   0  0  0  0  0  0  0  0  0  0  0  0
    0.3309   11.3974   16.5685 F   0  0  0  0  0  0  0  0  0  0  0  0
   -3.8686    0.2249   10.7617 S   0  0  0  0  0  0  0  0  0  0  0  0
   -2.7464    0.6860    9.9455 O   0  0  0  0  0  0  0  0  0  0  0  0
   -5.0124    0.1660    9.8530 O   0  0  0  0  0  0  0  0  0  0  0  0
   -3.4914   -1.3161   11.3640 N   0  0  0  0  0  0  0  0  0  0  0  0
   -2.6920   -1.2485   11.9940 H   0  0  0  0  0  0  0  0  0  0  0  0
   -3.2615   -1.9373   10.5885 H   0  0  0  0  0  0  0  0  0  0  0  0
   -4.8044    0.6718   15.8130 N   0  0  0  0  0  0  0  0  0  0  0  0
   -3.9114    0.0897   16.3210 O   0  0  0  0  0  0  0  0  0  0  0  0
   -6.0716    0.7125   16.4080 O   0  0  0  0  0  0  0  0  0  0  0  0
 33 31  2  0  0  0
  7  3  1  0  0  0
 31 32  2  0  0  0
 31  2  1  0  0  0
  3  2  2  0  0  0
  3  4  1  0  0  0
  2  1  1  0  0  0
 15 19  2  0  0  0
 15 18  1  0  0  0
  9  4  1  0  0  0
  9 10  1  0  0  0
 11 18  1  0  0  0
 11 10  1  0  0  0
 19 16  1  0  0  0
  4  5  2  0  0  0
 18 17  2  0  0  0
 10 12  2  0  0  0
 23 21  1  0  0  0
  1  6  2  0  0  0
 16 21  1  0  0  0
 16 20  2  0  0  0
  5  6  1  0  0  0
 21 22  1  0  0  0
 21 24  1  0  0  0
 17 20  1  0  0  0
  6 25  1  0  0  0
 28 25  1  0  0  0
 25 26  2  0  0  0
 25 27  2  0  0  0
  7  8  1  0  0  0
  9 13  1  0  0  0
 11 14  1  0  0  0
 28 29  1  0  0  0
 28 30  1  0  0  0
M  END
> <minimizedAffinity>
-8.90352

$$$$
6EBE_J3V_A_302


 33 34  0  0  0  0  0  0  0  0999 V2000
   -0.1000    5.1009    8.9796 C   0  0  0  0  0  0  0  0  0  0  0  0
   -1.4438    4.9568    8.6956 C   0  0  0  0  0  0  0  0  0  0  0  0
   -2.1804    4.0058    9.3730 C   0  0  0  0  0  0  0  0  0  0  0  0
   -1.5533    3.2116   10.3185 C   0  0  0  0  0  0  0  0  0  0  0  0
   -0.1996    3.3384   10.6133 C   0  0  0  0  0  0  0  0  0  0  0  0
    0.5228    4.2975    9.9207 C   0  0  0  0  0  0  0  0  0  0  0  0
   -3.5508    3.8317    9.1183 O   0  0  0  0  0  0  0  0  0  0  0  0
   -3.9803    4.3662    8.4798 H   0  0  0  0  0  0  0  0  0  0  0  0
   -2.4124    2.2615   10.9803 N   0  0  0  0  0  0  0  0  0  0  0  0
   -2.9962    2.5760   12.2602 C   0  0  0  0  0  0  0  0  0  0  0  0
   -3.8726    1.5594   12.8006 N   0  0  0  0  0  0  0  0  0  0  0  0
   -2.7526    3.6007   12.8085 O   0  0  0  0  0  0  0  0  0  0  0  0
   -2.6013    1.3935   10.5559 H   0  0  0  0  0  0  0  0  0  0  0  0
   -4.0151    0.7547   12.2516 H   0  0  0  0  0  0  0  0  0  0  0  0
   -5.3677    2.7181   14.3239 C   0  0  0  0  0  0  0  0  0  0  0  0
   -5.9583    1.7929   16.4528 C   0  0  0  0  0  0  0  0  0  0  0  0
   -4.4528    0.5919   15.0062 C   0  0  0  0  0  0  0  0  0  0  0  0
   -4.5598    1.6161   14.0748 C   0  0  0  0  0  0  0  0  0  0  0  0
   -6.0623    2.8095   15.5144 C   0  0  0  0  0  0  0  0  0  0  0  0
   -5.1523    0.6862   16.2031 C   0  0  0  0  0  0  0  0  0  0  0  0
   -6.7283    1.9321   17.7654 C   0  0  0  0  0  0  0  0  0  0  0  0
   -7.2300    3.1998   17.8616 F   0  0  0  0  0  0  0  0  0  0  0  0
   -7.7562    1.0329   17.7539 F   0  0  0  0  0  0  0  0  0  0  0  0
   -5.9229    1.6702   18.8329 F   0  0  0  0  0  0  0  0  0  0  0  0
    2.2978    4.5835   10.1763 S   0  0  0  0  0  0  0  0  0  0  0  0
    2.6949    4.3598   11.5658 O   0  0  0  0  0  0  0  0  0  0  0  0
    2.7141    5.9507    9.8681 O   0  0  0  0  0  0  0  0  0  0  0  0
    3.1190    3.4639    9.2008 N   0  0  0  0  0  0  0  0  0  0  0  0
    2.8118    2.5197    9.4344 H   0  0  0  0  0  0  0  0  0  0  0  0
    4.1229    3.5445    9.3619 H   0  0  0  0  0  0  0  0  0  0  0  0
   -2.0561    5.8007    7.6958 N   0  0  0  0  0  0  0  0  0  0  0  0
   -2.0403    6.9736    7.8307 O   0  0  0  0  0  0  0  0  0  0  0  0
   -2.6416    5.2110    6.5685 O   0  0  0  0  0  0  0  0  0  0  0  0
 33 31  2  0  0  0
  7  3  1  0  0  0
 31 32  2  0  0  0
 31  2  1  0  0  0
  3  2  2  0  0  0
  3  4  1  0  0  0
  2  1  1  0  0  0
 15 19  2  0  0  0
 15 18  1  0  0  0
  9  4  1  0  0  0
  9 10  1  0  0  0
 11 18  1  0  0  0
 11 10  1  0  0  0
 19 16  1  0  0  0
  4  5  2  0  0  0
 18 17  2  0  0  0
 10 12  2  0  0  0
 23 21  1  0  0  0
  1  6  2  0  0  0
 16 21  1  0  0  0
 16 20  2  0  0  0
  5  6  1  0  0  0
 21 22  1  0  0  0
 21 24  1  0  0  0
 17 20  1  0  0  0
  6 25  1  0  0  0
 28 25  1  0  0  0
 25 26  2  0  0  0
 25 27  2  0  0  0
  7  8  1  0  0  0
  9 13  1  0  0  0
 11 14  1  0  0  0
 28 29  1  0  0  0
 28 30  1  0  0  0
M  END
> <minimizedAffinity>
-8.54403

$$$$
6EBE_J3V_A_302


 33 34  0  0  0  0  0  0  0  0999 V2000
    1.2876    7.0738   12.1599 C   0  0  0  0  0  0  0  0  0  0  0  0
    0.1117    7.6563   12.5903 C   0  0  0  0  0  0  0  0  0  0  0  0
   -1.0568    6.9216   12.5635 C   0  0  0  0  0  0  0  0  0  0  0  0
   -1.0254    5.6175   12.0985 C   0  0  0  0  0  0  0  0  0  0  0  0
    0.1484    5.0162   11.6555 C   0  0  0  0  0  0  0  0  0  0  0  0
    1.3103    5.7714   11.6884 C   0  0  0  0  0  0  0  0  0  0  0  0
   -2.2726    7.4749   12.9982 O   0  0  0  0  0  0  0  0  0  0  0  0
   -2.2998    8.3568   13.3137 H   0  0  0  0  0  0  0  0  0  0  0  0
   -2.2934    4.9318   12.1261 N   0  0  0  0  0  0  0  0  0  0  0  0
   -2.8046    4.3956   13.3626 C   0  0  0  0  0  0  0  0  0  0  0  0
   -4.1049    3.7684   13.2676 N   0  0  0  0  0  0  0  0  0  0  0  0
   -2.1785    4.4741   14.3686 O   0  0  0  0  0  0  0  0  0  0  0  0
   -2.8128    4.8293   11.2961 H   0  0  0  0  0  0  0  0  0  0  0  0
   -4.5405    3.7747   12.3847 H   0  0  0  0  0  0  0  0  0  0  0  0
   -4.3957    1.8765   14.7626 C   0  0  0  0  0  0  0  0  0  0  0  0
   -6.0971    1.8558   16.4483 C   0  0  0  0  0  0  0  0  0  0  0  0
   -5.8853    3.7614   14.9904 C   0  0  0  0  0  0  0  0  0  0  0  0
   -4.8254    3.1318   14.3515 C   0  0  0  0  0  0  0  0  0  0  0  0
   -5.0345    1.2362   15.8067 C   0  0  0  0  0  0  0  0  0  0  0  0
   -6.5264    3.1152   16.0402 C   0  0  0  0  0  0  0  0  0  0  0  0
   -6.7910    1.1139   17.5899 C   0  0  0  0  0  0  0  0  0  0  0  0
   -6.8059    1.9093   18.7013 F   0  0  0  0  0  0  0  0  0  0  0  0
   -8.0728    0.8421   17.2046 F   0  0  0  0  0  0  0  0  0  0  0  0
   -6.1541   -0.0583   17.8676 F   0  0  0  0  0  0  0  0  0  0  0  0
    2.9219    5.1425   11.1360 S   0  0  0  0  0  0  0  0  0  0  0  0
    3.7250    6.1816   10.4929 O   0  0  0  0  0  0  0  0  0  0  0  0
    2.8170    4.0667   10.1515 O   0  0  0  0  0  0  0  0  0  0  0  0
    3.7438    4.6171   12.5246 N   0  0  0  0  0  0  0  0  0  0  0  0
    3.8038    5.3838   13.1947 H   0  0  0  0  0  0  0  0  0  0  0  0
    4.6837    4.3144   12.2692 H   0  0  0  0  0  0  0  0  0  0  0  0
    0.1225    9.0224   13.0596 N   0  0  0  0  0  0  0  0  0  0  0  0
    0.4926    9.8846   12.3428 O   0  0  0  0  0  0  0  0  0  0  0  0
   -0.3285    9.3040   14.3554 O   0  0  0  0  0  0  0  0  0  0  0  0
 33 31  2  0  0  0
  7  3  1  0  0  0
 31 32  2  0  0  0
 31  2  1  0  0  0
  3  2  2  0  0  0
  3  4  1  0  0  0
  2  1  1  0  0  0
 15 19  2  0  0  0
 15 18  1  0  0  0
  9  4  1  0  0  0
  9 10  1  0  0  0
 11 18  1  0  0  0
 11 10  1  0  0  0
 19 16  1  0  0  0
  4  5  2  0  0  0
 18 17  2  0  0  0
 10 12  2  0  0  0
 23 21  1  0  0  0
  1  6  2  0  0  0
 16 21  1  0  0  0
 16 20  2  0  0  0
  5  6  1  0  0  0
 21 22  1  0  0  0
 21 24  1  0  0  0
 17 20  1  0  0  0
  6 25  1  0  0  0
 28 25  1  0  0  0
 25 26  2  0  0  0
 25 27  2  0  0  0
  7  8  1  0  0  0
  9 13  1  0  0  0
 11 14  1  0  0  0
 28 29  1  0  0  0
 28 30  1  0  0  0
M  END
> <minimizedAffinity>
-8.06363

$$$$
6EBE_J3V_A_302


 33 34  0  0  0  0  0  0  0  0999 V2000
    1.5900    6.6745   12.0275 C   0  0  0  0  0  0  0  0  0  0  0  0
    1.4273    5.3609   11.6338 C   0  0  0  0  0  0  0  0  0  0  0  0
    0.1724    4.7884   11.6888 C   0  0  0  0  0  0  0  0  0  0  0  0
   -0.8959    5.5427   12.1447 C   0  0  0  0  0  0  0  0  0  0  0  0
   -0.7499    6.8652   12.5510 C   0  0  0  0  0  0  0  0  0  0  0  0
    0.5185    7.4208   12.4903 C   0  0  0  0  0  0  0  0  0  0  0  0
   -0.0366    3.4572   11.2916 O   0  0  0  0  0  0  0  0  0  0  0  0
    0.6824    2.9422   10.9823 H   0  0  0  0  0  0  0  0  0  0  0  0
   -2.1651    4.8587   12.1485 N   0  0  0  0  0  0  0  0  0  0  0  0
   -2.7135    4.3482   13.3799 C   0  0  0  0  0  0  0  0  0  0  0  0
   -4.0114    3.7201   13.2590 N   0  0  0  0  0  0  0  0  0  0  0  0
   -2.1176    4.4467   14.4023 O   0  0  0  0  0  0  0  0  0  0  0  0
   -2.6597    4.7397   11.3056 H   0  0  0  0  0  0  0  0  0  0  0  0
   -4.4204    3.7088   12.3636 H   0  0  0  0  0  0  0  0  0  0  0  0
   -4.3852    1.8345   14.7433 C   0  0  0  0  0  0  0  0  0  0  0  0
   -6.1014    1.8700   16.4137 C   0  0  0  0  0  0  0  0  0  0  0  0
   -5.8064    3.7721   14.9657 C   0  0  0  0  0  0  0  0  0  0  0  0
   -4.7646    3.1063   14.3337 C   0  0  0  0  0  0  0  0  0  0  0  0
   -5.0566    1.2141   15.7790 C   0  0  0  0  0  0  0  0  0  0  0  0
   -6.4803    3.1459   16.0071 C   0  0  0  0  0  0  0  0  0  0  0  0
   -6.8326    1.1497   17.5459 C   0  0  0  0  0  0  0  0  0  0  0  0
   -8.1115    0.8722   17.1520 F   0  0  0  0  0  0  0  0  0  0  0  0
   -6.1709   -0.0164   17.8065 F   0  0  0  0  0  0  0  0  0  0  0  0
   -6.8506    1.9107   18.6761 F   0  0  0  0  0  0  0  0  0  0  0  0
    0.8827    9.1273   12.9935 S   0  0  0  0  0  0  0  0  0  0  0  0
    0.6256   10.0832   11.9173 O   0  0  0  0  0  0  0  0  0  0  0  0
    2.2799    9.3337   13.3716 O   0  0  0  0  0  0  0  0  0  0  0  0
   -0.1560    9.4881   14.2860 N   0  0  0  0  0  0  0  0  0  0  0  0
   -1.1226    9.3366   13.9979 H   0  0  0  0  0  0  0  0  0  0  0  0
   -0.0317   10.4627   14.5602 H   0  0  0  0  0  0  0  0  0  0  0  0
    2.5705    4.6077   11.1726 N   0  0  0  0  0  0  0  0  0  0  0  0
    3.5535    4.5773   11.8259 O   0  0  0  0  0  0  0  0  0  0  0  0
    2.4847    3.9062    9.9634 O   0  0  0  0  0  0  0  0  0  0  0  0
 33 31  2  0  0  0
  7  3  1  0  0  0
 31 32  2  0  0  0
 31  2  1  0  0  0
  3  2  2  0  0  0
  3  4  1  0  0  0
  2  1  1  0  0  0
 15 19  2  0  0  0
 15 18  1  0  0  0
  9  4  1  0  0  0
  9 10  1  0  0  0
 11 18  1  0  0  0
 11 10  1  0  0  0
 19 16  1  0  0  0
  4  5  2  0  0  0
 18 17  2  0  0  0
 10 12  2  0  0  0
 23 21  1  0  0  0
  1  6  2  0  0  0
 16 21  1  0  0  0
 16 20  2  0  0  0
  5  6  1  0  0  0
 21 22  1  0  0  0
 21 24  1  0  0  0
 17 20  1  0  0  0
  6 25  1  0  0  0
 28 25  1  0  0  0
 25 26  2  0  0  0
 25 27  2  0  0  0
  7  8  1  0  0  0
  9 13  1  0  0  0
 11 14  1  0  0  0
 28 29  1  0  0  0
 28 30  1  0  0  0
M  END
> <minimizedAffinity>
-8.02379

$$$$
6EBE_J3V_A_302


 33 34  0  0  0  0  0  0  0  0999 V2000
   -4.3076    0.9765   13.3894 C   0  0  0  0  0  0  0  0  0  0  0  0
   -4.2218    1.8959   14.4163 C   0  0  0  0  0  0  0  0  0  0  0  0
   -3.8541    3.1957   14.1319 C   0  0  0  0  0  0  0  0  0  0  0  0
   -3.5722    3.5479   12.8225 C   0  0  0  0  0  0  0  0  0  0  0  0
   -3.6475    2.6341   11.7762 C   0  0  0  0  0  0  0  0  0  0  0  0
   -4.0164    1.3336   12.0829 C   0  0  0  0  0  0  0  0  0  0  0  0
   -3.7610    4.1627   15.1466 O   0  0  0  0  0  0  0  0  0  0  0  0
   -3.9505    3.9301   16.0342 H   0  0  0  0  0  0  0  0  0  0  0  0
   -3.2139    4.9310   12.6288 N   0  0  0  0  0  0  0  0  0  0  0  0
   -4.1771    5.8662   12.1041 C   0  0  0  0  0  0  0  0  0  0  0  0
   -3.7102    7.2314   11.9963 N   0  0  0  0  0  0  0  0  0  0  0  0
   -5.2651    5.5109   11.7875 O   0  0  0  0  0  0  0  0  0  0  0  0
   -2.3066    5.2382   12.8562 H   0  0  0  0  0  0  0  0  0  0  0  0
   -2.7932    7.4154   12.3037 H   0  0  0  0  0  0  0  0  0  0  0  0
   -3.7630    9.4916   11.1091 C   0  0  0  0  0  0  0  0  0  0  0  0
   -5.8119   10.5266   10.4254 C   0  0  0  0  0  0  0  0  0  0  0  0
   -5.8446    8.2884   11.3147 C   0  0  0  0  0  0  0  0  0  0  0  0
   -4.4673    8.3527   11.4779 C   0  0  0  0  0  0  0  0  0  0  0  0
   -4.4352   10.5802   10.5883 C   0  0  0  0  0  0  0  0  0  0  0  0
   -6.5186    9.3848   10.7909 C   0  0  0  0  0  0  0  0  0  0  0  0
   -6.5265   11.7535    9.8602 C   0  0  0  0  0  0  0  0  0  0  0  0
   -5.6185   12.5483    9.2186 F   0  0  0  0  0  0  0  0  0  0  0  0
   -7.4692   11.3249    8.9696 F   0  0  0  0  0  0  0  0  0  0  0  0
   -7.1414   12.4587   10.8508 F   0  0  0  0  0  0  0  0  0  0  0  0
   -4.1508    0.0175   10.8389 S   0  0  0  0  0  0  0  0  0  0  0  0
   -3.0353    0.0402    9.8937 O   0  0  0  0  0  0  0  0  0  0  0  0
   -5.3573    0.1168   10.0191 O   0  0  0  0  0  0  0  0  0  0  0  0
   -4.1070   -1.4561   11.6793 N   0  0  0  0  0  0  0  0  0  0  0  0
   -3.2578   -1.5011   12.2426 H   0  0  0  0  0  0  0  0  0  0  0  0
   -4.1141   -2.2280   11.0127 H   0  0  0  0  0  0  0  0  0  0  0  0
   -4.5164    1.4838   15.7691 N   0  0  0  0  0  0  0  0  0  0  0  0
   -3.7811    0.7501   16.3306 O   0  0  0  0  0  0  0  0  0  0  0  0
   -5.6630    1.9810   16.4012 O   0  0  0  0  0  0  0  0  0  0  0  0
 33 31  2  0  0  0
  7  3  1  0  0  0
 31 32  2  0  0  0
 31  2  1  0  0  0
  3  2  2  0  0  0
  3  4  1  0  0  0
  2  1  1  0  0  0
 15 19  2  0  0  0
 15 18  1  0  0  0
  9  4  1  0  0  0
  9 10  1  0  0  0
 11 18  1  0  0  0
 11 10  1  0  0  0
 19 16  1  0  0  0
  4  5  2  0  0  0
 18 17  2  0  0  0
 10 12  2  0  0  0
 23 21  1  0  0  0
  1  6  2  0  0  0
 16 21  1  0  0  0
 16 20  2  0  0  0
  5  6  1  0  0  0
 21 22  1  0  0  0
 21 24  1  0  0  0
 17 20  1  0  0  0
  6 25  1  0  0  0
 28 25  1  0  0  0
 25 26  2  0  0  0
 25 27  2  0  0  0
  7  8  1  0  0  0
  9 13  1  0  0  0
 11 14  1  0  0  0
 28 29  1  0  0  0
 28 30  1  0  0  0
M  END
> <minimizedAffinity>
-7.86572

$$$$
6EBE_J3V_A_302


 33 34  0  0  0  0  0  0  0  0999 V2000
   -3.4661    5.8300    7.4535 C   0  0  0  0  0  0  0  0  0  0  0  0
   -4.7143    6.1308    7.9620 C   0  0  0  0  0  0  0  0  0  0  0  0
   -4.8951    6.1754    9.3298 C   0  0  0  0  0  0  0  0  0  0  0  0
   -3.8211    5.9103   10.1631 C   0  0  0  0  0  0  0  0  0  0  0  0
   -2.5582    5.5997    9.6690 C   0  0  0  0  0  0  0  0  0  0  0  0
   -2.3980    5.5579    8.2928 C   0  0  0  0  0  0  0  0  0  0  0  0
   -6.1471    6.4835    9.8873 O   0  0  0  0  0  0  0  0  0  0  0  0
   -6.8773    6.6638    9.3284 H   0  0  0  0  0  0  0  0  0  0  0  0
   -4.1096    5.9981   11.5730 N   0  0  0  0  0  0  0  0  0  0  0  0
   -4.5254    4.8282   12.3054 C   0  0  0  0  0  0  0  0  0  0  0  0
   -4.7436    5.0365   13.7205 N   0  0  0  0  0  0  0  0  0  0  0  0
   -4.6741    3.7848   11.7584 O   0  0  0  0  0  0  0  0  0  0  0  0
   -4.0222    6.8615   12.0379 H   0  0  0  0  0  0  0  0  0  0  0  0
   -4.5743    5.9411   14.0702 H   0  0  0  0  0  0  0  0  0  0  0  0
   -4.2850    3.0473   15.0363 C   0  0  0  0  0  0  0  0  0  0  0  0
   -5.9196    2.1156   16.5185 C   0  0  0  0  0  0  0  0  0  0  0  0
   -6.4577    4.0793   15.2316 C   0  0  0  0  0  0  0  0  0  0  0  0
   -5.1883    4.0370   14.6705 C   0  0  0  0  0  0  0  0  0  0  0  0
   -4.6519    2.0838   15.9556 C   0  0  0  0  0  0  0  0  0  0  0  0
   -6.8245    3.1088   16.1559 C   0  0  0  0  0  0  0  0  0  0  0  0
   -6.2986    1.0265   17.5212 C   0  0  0  0  0  0  0  0  0  0  0  0
   -5.7463   -0.1603   17.1280 F   0  0  0  0  0  0  0  0  0  0  0  0
   -5.8009    1.3801   18.7429 F   0  0  0  0  0  0  0  0  0  0  0  0
   -7.6521    0.8994   17.6143 F   0  0  0  0  0  0  0  0  0  0  0  0
   -0.8211    5.1575    7.4861 S   0  0  0  0  0  0  0  0  0  0  0  0
   -0.6897    5.8103    6.1842 O   0  0  0  0  0  0  0  0  0  0  0  0
   -0.6512    3.7292    7.2239 O   0  0  0  0  0  0  0  0  0  0  0  0
    0.4086    5.7394    8.5003 N   0  0  0  0  0  0  0  0  0  0  0  0
    0.2681    6.7357    8.6679 H   0  0  0  0  0  0  0  0  0  0  0  0
    1.3144    5.5940    8.0544 H   0  0  0  0  0  0  0  0  0  0  0  0
   -5.8092    6.3925    7.0567 N   0  0  0  0  0  0  0  0  0  0  0  0
   -6.8189    5.7908    7.1702 O   0  0  0  0  0  0  0  0  0  0  0  0
   -5.6606    7.3747    6.0694 O   0  0  0  0  0  0  0  0  0  0  0  0
 33 31  2  0  0  0
  7  3  1  0  0  0
 31 32  2  0  0  0
 31  2  1  0  0  0
  3  2  2  0  0  0
  3  4  1  0  0  0
  2  1  1  0  0  0
 15 19  2  0  0  0
 15 18  1  0  0  0
  9  4  1  0  0  0
  9 10  1  0  0  0
 11 18  1  0  0  0
 11 10  1  0  0  0
 19 16  1  0  0  0
  4  5  2  0  0  0
 18 17  2  0  0  0
 10 12  2  0  0  0
 23 21  1  0  0  0
  1  6  2  0  0  0
 16 21  1  0  0  0
 16 20  2  0  0  0
  5  6  1  0  0  0
 21 22  1  0  0  0
 21 24  1  0  0  0
 17 20  1  0  0  0
  6 25  1  0  0  0
 28 25  1  0  0  0
 25 26  2  0  0  0
 25 27  2  0  0  0
  7  8  1  0  0  0
  9 13  1  0  0  0
 11 14  1  0  0  0
 28 29  1  0  0  0
 28 30  1  0  0  0
M  END
> <minimizedAffinity>
-7.78724

$$$$
6EBE_J3V_A_302


 33 34  0  0  0  0  0  0  0  0999 V2000
   -3.0801    2.8157   12.9926 C   0  0  0  0  0  0  0  0  0  0  0  0
   -3.8377    2.0197   12.1561 C   0  0  0  0  0  0  0  0  0  0  0  0
   -4.4052    2.5733   11.0260 C   0  0  0  0  0  0  0  0  0  0  0  0
   -4.2078    3.9179   10.7592 C   0  0  0  0  0  0  0  0  0  0  0  0
   -3.4529    4.7364   11.5934 C   0  0  0  0  0  0  0  0  0  0  0  0
   -2.8935    4.1619   12.7241 C   0  0  0  0  0  0  0  0  0  0  0  0
   -5.1774    1.7968   10.1462 O   0  0  0  0  0  0  0  0  0  0  0  0
   -5.3142    0.8866   10.3217 H   0  0  0  0  0  0  0  0  0  0  0  0
   -4.8281    4.3946    9.5482 N   0  0  0  0  0  0  0  0  0  0  0  0
   -5.6229    5.5972    9.5616 C   0  0  0  0  0  0  0  0  0  0  0  0
   -6.1559    5.9940    8.2764 N   0  0  0  0  0  0  0  0  0  0  0  0
   -5.8124    6.1939   10.5706 O   0  0  0  0  0  0  0  0  0  0  0  0
   -4.7083    3.8962    8.7076 H   0  0  0  0  0  0  0  0  0  0  0  0
   -5.9212    5.4322    7.5027 H   0  0  0  0  0  0  0  0  0  0  0  0
   -8.3041    7.1032    8.5075 C   0  0  0  0  0  0  0  0  0  0  0  0
   -8.6830    9.3035    7.6403 C   0  0  0  0  0  0  0  0  0  0  0  0
   -6.5301    8.2623    7.3531 C   0  0  0  0  0  0  0  0  0  0  0  0
   -7.0031    7.1416    8.0226 C   0  0  0  0  0  0  0  0  0  0  0  0
   -9.1455    8.1811    8.3118 C   0  0  0  0  0  0  0  0  0  0  0  0
   -7.3785    9.3452    7.1573 C   0  0  0  0  0  0  0  0  0  0  0  0
   -9.6440   10.4726    7.4280 C   0  0  0  0  0  0  0  0  0  0  0  0
  -10.9265   10.0433    7.6248 F   0  0  0  0  0  0  0  0  0  0  0  0
   -9.3416   11.4437    8.3396 F   0  0  0  0  0  0  0  0  0  0  0  0
   -9.5150   10.9876    6.1731 F   0  0  0  0  0  0  0  0  0  0  0  0
   -1.8924    5.0910   13.9208 S   0  0  0  0  0  0  0  0  0  0  0  0
   -1.5748    4.2948   15.1055 O   0  0  0  0  0  0  0  0  0  0  0  0
   -2.5587    6.2906   14.4255 O   0  0  0  0  0  0  0  0  0  0  0  0
   -0.4388    5.4867   13.1396 N   0  0  0  0  0  0  0  0  0  0  0  0
    0.0060    4.6350   12.7973 H   0  0  0  0  0  0  0  0  0  0  0  0
    0.1843    5.9549   13.7976 H   0  0  0  0  0  0  0  0  0  0  0  0
   -4.0251    0.6237   12.4766 N   0  0  0  0  0  0  0  0  0  0  0  0
   -4.4010    0.3157   13.5527 O   0  0  0  0  0  0  0  0  0  0  0  0
   -3.7768   -0.3429   11.4940 O   0  0  0  0  0  0  0  0  0  0  0  0
 33 31  2  0  0  0
  7  3  1  0  0  0
 31 32  2  0  0  0
 31  2  1  0  0  0
  3  2  2  0  0  0
  3  4  1  0  0  0
  2  1  1  0  0  0
 15 19  2  0  0  0
 15 18  1  0  0  0
  9  4  1  0  0  0
  9 10  1  0  0  0
 11 18  1  0  0  0
 11 10  1  0  0  0
 19 16  1  0  0  0
  4  5  2  0  0  0
 18 17  2  0  0  0
 10 12  2  0  0  0
 23 21  1  0  0  0
  1  6  2  0  0  0
 16 21  1  0  0  0
 16 20  2  0  0  0
  5  6  1  0  0  0
 21 22  1  0  0  0
 21 24  1  0  0  0
 17 20  1  0  0  0
  6 25  1  0  0  0
 28 25  1  0  0  0
 25 26  2  0  0  0
 25 27  2  0  0  0
  7  8  1  0  0  0
  9 13  1  0  0  0
 11 14  1  0  0  0
 28 29  1  0  0  0
 28 30  1  0  0  0
M  END
> <minimizedAffinity>
-7.77285

$$$$
6EBE_J3V_A_302


 33 34  0  0  0  0  0  0  0  0999 V2000
   -5.3918    8.6680    9.2413 C   0  0  0  0  0  0  0  0  0  0  0  0
   -5.8086    7.3805    8.9660 C   0  0  0  0  0  0  0  0  0  0  0  0
   -5.3249    6.3353    9.7272 C   0  0  0  0  0  0  0  0  0  0  0  0
   -4.4261    6.6004   10.7469 C   0  0  0  0  0  0  0  0  0  0  0  0
   -3.9905    7.8899   11.0348 C   0  0  0  0  0  0  0  0  0  0  0  0
   -4.4862    8.9251   10.2576 C   0  0  0  0  0  0  0  0  0  0  0  0
   -5.7285    5.0120    9.4837 O   0  0  0  0  0  0  0  0  0  0  0  0
   -6.3364    4.8267    8.7951 H   0  0  0  0  0  0  0  0  0  0  0  0
   -3.9940    5.4442   11.4920 N   0  0  0  0  0  0  0  0  0  0  0  0
   -4.7215    5.0176   12.6610 C   0  0  0  0  0  0  0  0  0  0  0  0
   -4.2139    3.8207   13.2960 N   0  0  0  0  0  0  0  0  0  0  0  0
   -5.6620    5.6276   13.0526 O   0  0  0  0  0  0  0  0  0  0  0  0
   -3.1979    4.9434   11.2009 H   0  0  0  0  0  0  0  0  0  0  0  0
   -3.4365    3.3872   12.8752 H   0  0  0  0  0  0  0  0  0  0  0  0
   -6.0324    3.5441   14.8818 C   0  0  0  0  0  0  0  0  0  0  0  0
   -5.8678    2.0331   16.7329 C   0  0  0  0  0  0  0  0  0  0  0  0
   -4.0124    2.2666   15.2148 C   0  0  0  0  0  0  0  0  0  0  0  0
   -4.7436    3.2011   14.4938 C   0  0  0  0  0  0  0  0  0  0  0  0
   -6.5925    2.9648   16.0038 C   0  0  0  0  0  0  0  0  0  0  0  0
   -4.5778    1.6855   16.3432 C   0  0  0  0  0  0  0  0  0  0  0  0
   -6.5111    1.4222   17.9771 C   0  0  0  0  0  0  0  0  0  0  0  0
   -5.7085    0.4251   18.4563 F   0  0  0  0  0  0  0  0  0  0  0  0
   -6.6335    2.4035   18.9192 F   0  0  0  0  0  0  0  0  0  0  0  0
   -7.7475    0.9252   17.6923 F   0  0  0  0  0  0  0  0  0  0  0  0
   -4.0115   10.6620   10.4933 S   0  0  0  0  0  0  0  0  0  0  0  0
   -3.0997   10.8329   11.6237 O   0  0  0  0  0  0  0  0  0  0  0  0
   -5.1469   11.5397   10.7732 O   0  0  0  0  0  0  0  0  0  0  0  0
   -3.2047   11.1445    9.0805 N   0  0  0  0  0  0  0  0  0  0  0  0
   -2.4185   10.5181    8.9072 H   0  0  0  0  0  0  0  0  0  0  0  0
   -2.8610   12.0981    9.1940 H   0  0  0  0  0  0  0  0  0  0  0  0
   -6.7411    7.1478    7.8875 N   0  0  0  0  0  0  0  0  0  0  0  0
   -6.6223    6.1897    7.2077 O   0  0  0  0  0  0  0  0  0  0  0  0
   -7.7870    8.0558    7.6798 O   0  0  0  0  0  0  0  0  0  0  0  0
 33 31  2  0  0  0
  7  3  1  0  0  0
 31 32  2  0  0  0
 31  2  1  0  0  0
  3  2  2  0  0  0
  3  4  1  0  0  0
  2  1  1  0  0  0
 15 19  2  0  0  0
 15 18  1  0  0  0
  9  4  1  0  0  0
  9 10  1  0  0  0
 11 18  1  0  0  0
 11 10  1  0  0  0
 19 16  1  0  0  0
  4  5  2  0  0  0
 18 17  2  0  0  0
 10 12  2  0  0  0
 23 21  1  0  0  0
  1  6  2  0  0  0
 16 21  1  0  0  0
 16 20  2  0  0  0
  5  6  1  0  0  0
 21 22  1  0  0  0
 21 24  1  0  0  0
 17 20  1  0  0  0
  6 25  1  0  0  0
 28 25  1  0  0  0
 25 26  2  0  0  0
 25 27  2  0  0  0
  7  8  1  0  0  0
  9 13  1  0  0  0
 11 14  1  0  0  0
 28 29  1  0  0  0
 28 30  1  0  0  0
M  END
> <minimizedAffinity>
-7.43581

$$$$
6EBE_J3V_A_302


 33 34  0  0  0  0  0  0  0  0999 V2000
   -0.5032    5.3318    8.6744 C   0  0  0  0  0  0  0  0  0  0  0  0
   -1.8669    5.5461    8.6334 C   0  0  0  0  0  0  0  0  0  0  0  0
   -2.5645    5.6944    9.8154 C   0  0  0  0  0  0  0  0  0  0  0  0
   -1.8818    5.6179   11.0179 C   0  0  0  0  0  0  0  0  0  0  0  0
   -0.5096    5.3968   11.0789 C   0  0  0  0  0  0  0  0  0  0  0  0
    0.1721    5.2483    9.8811 C   0  0  0  0  0  0  0  0  0  0  0  0
   -3.9510    5.9199    9.8170 O   0  0  0  0  0  0  0  0  0  0  0  0
   -4.4180    5.9725    9.0064 H   0  0  0  0  0  0  0  0  0  0  0  0
   -2.6975    5.8016   12.1925 N   0  0  0  0  0  0  0  0  0  0  0  0
   -3.3119    4.6680   12.8369 C   0  0  0  0  0  0  0  0  0  0  0  0
   -4.0702    4.9776   14.0296 N   0  0  0  0  0  0  0  0  0  0  0  0
   -3.1905    3.5728   12.3945 O   0  0  0  0  0  0  0  0  0  0  0  0
   -2.8355    6.7059   12.5563 H   0  0  0  0  0  0  0  0  0  0  0  0
   -4.0900    5.9199   14.3143 H   0  0  0  0  0  0  0  0  0  0  0  0
   -4.1010    2.9527   15.3702 C   0  0  0  0  0  0  0  0  0  0  0  0
   -6.0963    2.1938   16.4563 C   0  0  0  0  0  0  0  0  0  0  0  0
   -6.1515    4.2015   15.1268 C   0  0  0  0  0  0  0  0  0  0  0  0
   -4.8031    4.0294   14.8438 C   0  0  0  0  0  0  0  0  0  0  0  0
   -4.7482    2.0322   16.1715 C   0  0  0  0  0  0  0  0  0  0  0  0
   -6.8003    3.2742   15.9328 C   0  0  0  0  0  0  0  0  0  0  0  0
   -6.7854    1.1497   17.3338 C   0  0  0  0  0  0  0  0  0  0  0  0
   -6.0229    0.0160   17.3688 F   0  0  0  0  0  0  0  0  0  0  0  0
   -6.9014    1.6621   18.5946 F   0  0  0  0  0  0  0  0  0  0  0  0
   -8.0286    0.8574   16.8585 F   0  0  0  0  0  0  0  0  0  0  0  0
    1.9596    4.9427    9.7846 S   0  0  0  0  0  0  0  0  0  0  0  0
    2.4733    4.3055   10.9963 O   0  0  0  0  0  0  0  0  0  0  0  0
    2.7478    6.1635    9.6230 O   0  0  0  0  0  0  0  0  0  0  0  0
    2.2049    3.8842    8.4811 N   0  0  0  0  0  0  0  0  0  0  0  0
    1.6456    3.0422    8.6170 H   0  0  0  0  0  0  0  0  0  0  0  0
    3.1919    3.6321    8.4290 H   0  0  0  0  0  0  0  0  0  0  0  0
   -2.5408    5.6105    7.3572 N   0  0  0  0  0  0  0  0  0  0  0  0
   -2.1447    6.3460    6.5228 O   0  0  0  0  0  0  0  0  0  0  0  0
   -3.6441    4.7800    7.1238 O   0  0  0  0  0  0  0  0  0  0  0  0
 33 31  2  0  0  0
  7  3  1  0  0  0
 31 32  2  0  0  0
 31  2  1  0  0  0
  3  2  2  0  0  0
  3  4  1  0  0  0
  2  1  1  0  0  0
 15 19  2  0  0  0
 15 18  1  0  0  0
  9  4  1  0  0  0
  9 10  1  0  0  0
 11 18  1  0  0  0
 11 10  1  0  0  0
 19 16  1  0  0  0
  4  5  2  0  0  0
 18 17  2  0  0  0
 10 12  2  0  0  0
 23 21  1  0  0  0
  1  6  2  0  0  0
 16 21  1  0  0  0
 16 20  2  0  0  0
  5  6  1  0  0  0
 21 22  1  0  0  0
 21 24  1  0  0  0
 17 20  1  0  0  0
  6 25  1  0  0  0
 28 25  1  0  0  0
 25 26  2  0  0  0
 25 27  2  0  0  0
  7  8  1  0  0  0
  9 13  1  0  0  0
 11 14  1  0  0  0
 28 29  1  0  0  0
 28 30  1  0  0  0
M  END
> <minimizedAffinity>
-7.43413

$$$$
6EBE_J3V_A_302


 33 34  0  0  0  0  0  0  0  0999 V2000
   -4.9898    8.9854    9.3835 C   0  0  0  0  0  0  0  0  0  0  0  0
   -4.2307    9.2383   10.5091 C   0  0  0  0  0  0  0  0  0  0  0  0
   -3.8087    8.1825   11.2919 C   0  0  0  0  0  0  0  0  0  0  0  0
   -4.1621    6.8919   10.9347 C   0  0  0  0  0  0  0  0  0  0  0  0
   -4.9310    6.6186    9.8080 C   0  0  0  0  0  0  0  0  0  0  0  0
   -5.3466    7.6926    9.0365 C   0  0  0  0  0  0  0  0  0  0  0  0
   -3.0299    8.3964   12.4413 O   0  0  0  0  0  0  0  0  0  0  0  0
   -2.7878    9.2674   12.6877 H   0  0  0  0  0  0  0  0  0  0  0  0
   -3.6589    5.8605   11.8075 N   0  0  0  0  0  0  0  0  0  0  0  0
   -4.5203    5.2558   12.7925 C   0  0  0  0  0  0  0  0  0  0  0  0
   -3.9104    4.2045   13.5775 N   0  0  0  0  0  0  0  0  0  0  0  0
   -5.6425    5.6190   12.9293 O   0  0  0  0  0  0  0  0  0  0  0  0
   -2.7222    5.5676   11.7303 H   0  0  0  0  0  0  0  0  0  0  0  0
   -2.9766    3.9744   13.3671 H   0  0  0  0  0  0  0  0  0  0  0  0
   -5.8645    3.7715   14.9533 C   0  0  0  0  0  0  0  0  0  0  0  0
   -5.8698    2.0574   16.6261 C   0  0  0  0  0  0  0  0  0  0  0  0
   -3.8853    2.4393   15.3156 C   0  0  0  0  0  0  0  0  0  0  0  0
   -4.5468    3.4590   14.6445 C   0  0  0  0  0  0  0  0  0  0  0  0
   -6.5241    3.0751   15.9472 C   0  0  0  0  0  0  0  0  0  0  0  0
   -4.5508    1.7403   16.3152 C   0  0  0  0  0  0  0  0  0  0  0  0
   -6.6234    1.3165   17.7299 C   0  0  0  0  0  0  0  0  0  0  0  0
   -5.9234    0.1961   18.0801 F   0  0  0  0  0  0  0  0  0  0  0  0
   -6.7252    2.1481   18.8086 F   0  0  0  0  0  0  0  0  0  0  0  0
   -7.8754    0.9707   17.3177 F   0  0  0  0  0  0  0  0  0  0  0  0
   -6.3641    7.5107    7.5433 S   0  0  0  0  0  0  0  0  0  0  0  0
   -5.6383    7.8985    6.3345 O   0  0  0  0  0  0  0  0  0  0  0  0
   -7.5673    8.3412    7.5580 O   0  0  0  0  0  0  0  0  0  0  0  0
   -6.7627    5.8658    7.4207 N   0  0  0  0  0  0  0  0  0  0  0  0
   -5.9084    5.3086    7.4124 H   0  0  0  0  0  0  0  0  0  0  0  0
   -7.2817    5.7053    6.5574 H   0  0  0  0  0  0  0  0  0  0  0  0
   -3.8918   10.6006   10.8496 N   0  0  0  0  0  0  0  0  0  0  0  0
   -2.7773   10.8745   11.1272 O   0  0  0  0  0  0  0  0  0  0  0  0
   -4.8916   11.5810   10.8237 O   0  0  0  0  0  0  0  0  0  0  0  0
 33 31  2  0  0  0
  7  3  1  0  0  0
 31 32  2  0  0  0
 31  2  1  0  0  0
  3  2  2  0  0  0
  3  4  1  0  0  0
  2  1  1  0  0  0
 15 19  2  0  0  0
 15 18  1  0  0  0
  9  4  1  0  0  0
  9 10  1  0  0  0
 11 18  1  0  0  0
 11 10  1  0  0  0
 19 16  1  0  0  0
  4  5  2  0  0  0
 18 17  2  0  0  0
 10 12  2  0  0  0
 23 21  1  0  0  0
  1  6  2  0  0  0
 16 21  1  0  0  0
 16 20  2  0  0  0
  5  6  1  0  0  0
 21 22  1  0  0  0
 21 24  1  0  0  0
 17 20  1  0  0  0
  6 25  1  0  0  0
 28 25  1  0  0  0
 25 26  2  0  0  0
 25 27  2  0  0  0
  7  8  1  0  0  0
  9 13  1  0  0  0
 11 14  1  0  0  0
 28 29  1  0  0  0
 28 30  1  0  0  0
M  END
> <minimizedAffinity>
-7.28434

$$$$
