5EV8_3R9_A_303


 15 16  0  0  0  0  0  0  0  0999 V2000
   -4.4313   -5.6070   40.8656 N   0  0  0  0  0  0  0  0  0  0  0  0
   -3.9280   -4.3100   41.3691 C   0  0  0  0  0  0  0  0  0  0  0  0
   -4.6574   -3.9250   42.6734 C   0  0  0  0  0  0  0  0  0  0  0  0
   -5.7027   -5.3293   43.1654 S   0  0  0  0  0  0  0  0  0  0  0  0
   -4.9706   -6.4644   41.8789 C   0  0  0  0  0  0  0  0  0  0  0  0
   -3.7895   -7.2192   42.4433 C   0  0  0  0  0  0  0  0  0  0  0  0
   -2.6169   -7.4256   41.0580 S   0  0  0  0  0  0  0  0  0  0  0  0
   -3.6223   -6.3261   39.9268 C   0  0  0  0  0  0  0  0  0  0  0  0
   -3.4027   -2.3470   40.2316 O   0  0  0  0  0  0  0  0  0  0  0  0
   -4.2470   -3.2558   40.3100 C   0  0  0  0  0  0  0  0  0  0  0  0
   -5.2905   -3.4379   39.6527 O   0  0  0  0  0  0  0  0  0  0  0  0
   -2.6602   -2.3468   40.8030 H   0  0  0  0  0  0  0  0  0  0  0  0
   -4.4227   -7.2567   38.9739 C   0  0  0  0  0  0  0  0  0  0  0  0
   -3.2597   -8.1568   37.9668 S   0  0  0  0  0  0  0  0  0  0  0  0
   -2.4369   -8.8865   38.7668 H   0  0  0  0  0  0  0  0  0  0  0  0
  5  6  1  0  0  0
  5  4  1  0  0  0
  5  1  1  0  0  0
  6  7  1  0  0  0
 14 13  1  0  0  0
  4  3  1  0  0  0
 13  8  1  0  0  0
  1  8  1  0  0  0
  1  2  1  0  0  0
  8  7  1  0  0  0
 11 10  2  0  0  0
  3  2  1  0  0  0
  2 10  1  0  0  0
 10  9  1  0  0  0
  9 12  1  0  0  0
 14 15  1  0  0  0
M  END
> <minimizedAffinity>
-5.30804

$$$$
5EV8_3R9_A_303


 15 16  0  0  0  0  0  0  0  0999 V2000
   -3.9299   -6.0401   40.7045 N   0  0  0  0  0  0  0  0  0  0  0  0
   -4.5295   -7.0083   39.7601 C   0  0  0  0  0  0  0  0  0  0  0  0
   -3.6912   -8.3034   39.7202 C   0  0  0  0  0  0  0  0  0  0  0  0
   -2.4130   -8.1823   41.0080 S   0  0  0  0  0  0  0  0  0  0  0  0
   -3.1521   -6.6381   41.7486 C   0  0  0  0  0  0  0  0  0  0  0  0
   -4.1374   -6.9883   42.8394 C   0  0  0  0  0  0  0  0  0  0  0  0
   -5.4455   -5.7157   42.7622 S   0  0  0  0  0  0  0  0  0  0  0  0
   -4.7537   -4.9733   41.1907 C   0  0  0  0  0  0  0  0  0  0  0  0
   -3.3971   -5.8752   38.0699 O   0  0  0  0  0  0  0  0  0  0  0  0
   -4.4963   -6.3706   38.3720 C   0  0  0  0  0  0  0  0  0  0  0  0
   -5.5533   -6.4349   37.7141 O   0  0  0  0  0  0  0  0  0  0  0  0
   -2.6864   -5.9048   38.6798 H   0  0  0  0  0  0  0  0  0  0  0  0
   -3.9704   -3.6931   41.5934 C   0  0  0  0  0  0  0  0  0  0  0  0
   -4.8839   -2.8617   42.8785 S   0  0  0  0  0  0  0  0  0  0  0  0
   -5.0223   -3.6924   43.9463 H   0  0  0  0  0  0  0  0  0  0  0  0
  5  6  1  0  0  0
  5  4  1  0  0  0
  5  1  1  0  0  0
  6  7  1  0  0  0
 14 13  1  0  0  0
  4  3  1  0  0  0
 13  8  1  0  0  0
  1  8  1  0  0  0
  1  2  1  0  0  0
  8  7  1  0  0  0
 11 10  2  0  0  0
  3  2  1  0  0  0
  2 10  1  0  0  0
 10  9  1  0  0  0
  9 12  1  0  0  0
 14 15  1  0  0  0
M  END
> <minimizedAffinity>
-5.28628

$$$$
5EV8_3R9_A_303


 15 16  0  0  0  0  0  0  0  0999 V2000
   -3.9821   -6.4012   40.9655 N   0  0  0  0  0  0  0  0  0  0  0  0
   -2.7028   -6.8106   40.3453 C   0  0  0  0  0  0  0  0  0  0  0  0
   -2.8577   -6.8992   38.8124 C   0  0  0  0  0  0  0  0  0  0  0  0
   -4.5068   -6.2671   38.3792 S   0  0  0  0  0  0  0  0  0  0  0  0
   -4.8390   -5.6412   40.1047 C   0  0  0  0  0  0  0  0  0  0  0  0
   -4.3888   -4.2059   40.2475 C   0  0  0  0  0  0  0  0  0  0  0  0
   -3.7939   -4.0347   41.9661 S   0  0  0  0  0  0  0  0  0  0  0  0
   -3.9474   -5.8697   42.2957 C   0  0  0  0  0  0  0  0  0  0  0  0
   -1.2082   -8.3070   41.3200 O   0  0  0  0  0  0  0  0  0  0  0  0
   -2.3645   -8.2028   40.8762 C   0  0  0  0  0  0  0  0  0  0  0  0
   -3.2777   -9.0492   40.8151 O   0  0  0  0  0  0  0  0  0  0  0  0
   -0.6293   -7.5705   41.2965 H   0  0  0  0  0  0  0  0  0  0  0  0
   -5.2572   -6.0833   43.1041 C   0  0  0  0  0  0  0  0  0  0  0  0
   -5.7259   -4.5236   43.8284 S   0  0  0  0  0  0  0  0  0  0  0  0
   -5.9172   -3.6056   42.8434 H   0  0  0  0  0  0  0  0  0  0  0  0
  5  6  1  0  0  0
  5  4  1  0  0  0
  5  1  1  0  0  0
  6  7  1  0  0  0
 14 13  1  0  0  0
  4  3  1  0  0  0
 13  8  1  0  0  0
  1  8  1  0  0  0
  1  2  1  0  0  0
  8  7  1  0  0  0
 11 10  2  0  0  0
  3  2  1  0  0  0
  2 10  1  0  0  0
 10  9  1  0  0  0
  9 12  1  0  0  0
 14 15  1  0  0  0
M  END
> <minimizedAffinity>
-4.65368

$$$$
5EV8_3R9_A_303


 15 16  0  0  0  0  0  0  0  0999 V2000
   -3.3170   -7.7874   39.7768 N   0  0  0  0  0  0  0  0  0  0  0  0
   -4.4228   -8.7012   40.1389 C   0  0  0  0  0  0  0  0  0  0  0  0
   -4.7070   -8.6202   41.6536 C   0  0  0  0  0  0  0  0  0  0  0  0
   -3.6912   -7.2785   42.3425 S   0  0  0  0  0  0  0  0  0  0  0  0
   -3.1603   -6.6708   40.6608 C   0  0  0  0  0  0  0  0  0  0  0  0
   -4.1111   -5.6126   40.1512 C   0  0  0  0  0  0  0  0  0  0  0  0
   -4.1834   -5.8329   38.3393 S   0  0  0  0  0  0  0  0  0  0  0  0
   -3.1775   -7.4089   38.4018 C   0  0  0  0  0  0  0  0  0  0  0  0
   -4.8979  -10.9164   39.6004 O   0  0  0  0  0  0  0  0  0  0  0  0
   -3.9656  -10.1216   39.8103 C   0  0  0  0  0  0  0  0  0  0  0  0
   -2.7332  -10.3069   39.7784 O   0  0  0  0  0  0  0  0  0  0  0  0
   -5.7859  -10.6241   39.6631 H   0  0  0  0  0  0  0  0  0  0  0  0
   -1.7261   -7.0445   37.9831 C   0  0  0  0  0  0  0  0  0  0  0  0
   -1.0396   -8.4265   37.0910 S   0  0  0  0  0  0  0  0  0  0  0  0
   -1.8027   -8.6827   35.9948 H   0  0  0  0  0  0  0  0  0  0  0  0
  5  6  1  0  0  0
  5  4  1  0  0  0
  5  1  1  0  0  0
  6  7  1  0  0  0
 14 13  1  0  0  0
  4  3  1  0  0  0
 13  8  1  0  0  0
  1  8  1  0  0  0
  1  2  1  0  0  0
  8  7  1  0  0  0
 11 10  2  0  0  0
  3  2  1  0  0  0
  2 10  1  0  0  0
 10  9  1  0  0  0
  9 12  1  0  0  0
 14 15  1  0  0  0
M  END
> <minimizedAffinity>
-4.49120

$$$$
5EV8_3R9_A_303


 15 16  0  0  0  0  0  0  0  0999 V2000
   -3.1448   -8.3962   38.6317 N   0  0  0  0  0  0  0  0  0  0  0  0
   -3.3131   -6.9552   38.9220 C   0  0  0  0  0  0  0  0  0  0  0  0
   -2.9486   -6.6613   40.3925 C   0  0  0  0  0  0  0  0  0  0  0  0
   -2.2669   -8.1844   41.1150 S   0  0  0  0  0  0  0  0  0  0  0  0
   -2.1904   -9.0595   39.4696 C   0  0  0  0  0  0  0  0  0  0  0  0
   -0.8487   -8.8395   38.8101 C   0  0  0  0  0  0  0  0  0  0  0  0
   -1.1762   -8.7763   37.0141 S   0  0  0  0  0  0  0  0  0  0  0  0
   -3.0302   -8.7995   37.2616 C   0  0  0  0  0  0  0  0  0  0  0  0
   -5.5068   -6.8697   39.6988 O   0  0  0  0  0  0  0  0  0  0  0  0
   -4.7892   -6.6187   38.7155 C   0  0  0  0  0  0  0  0  0  0  0  0
   -5.0897   -6.1277   37.6097 O   0  0  0  0  0  0  0  0  0  0  0  0
   -5.1297   -7.2439   40.4707 H   0  0  0  0  0  0  0  0  0  0  0  0
   -3.5133  -10.2492   36.9793 C   0  0  0  0  0  0  0  0  0  0  0  0
   -2.6293  -10.8648   35.5592 S   0  0  0  0  0  0  0  0  0  0  0  0
   -1.2935  -10.8479   35.8144 H   0  0  0  0  0  0  0  0  0  0  0  0
  5  6  1  0  0  0
  5  4  1  0  0  0
  5  1  1  0  0  0
  6  7  1  0  0  0
 14 13  1  0  0  0
  4  3  1  0  0  0
 13  8  1  0  0  0
  1  8  1  0  0  0
  1  2  1  0  0  0
  8  7  1  0  0  0
 11 10  2  0  0  0
  3  2  1  0  0  0
  2 10  1  0  0  0
 10  9  1  0  0  0
  9 12  1  0  0  0
 14 15  1  0  0  0
M  END
> <minimizedAffinity>
-4.45535

$$$$
5EV8_3R9_A_303


 15 16  0  0  0  0  0  0  0  0999 V2000
   -3.1108   -8.2584   39.5598 N   0  0  0  0  0  0  0  0  0  0  0  0
   -3.3352   -7.8214   38.1642 C   0  0  0  0  0  0  0  0  0  0  0  0
   -2.0295   -7.9434   37.3507 C   0  0  0  0  0  0  0  0  0  0  0  0
   -0.7926   -8.7676   38.3983 S   0  0  0  0  0  0  0  0  0  0  0  0
   -2.0378   -9.1943   39.7199 C   0  0  0  0  0  0  0  0  0  0  0  0
   -2.6435  -10.5546   39.4631 C   0  0  0  0  0  0  0  0  0  0  0  0
   -4.3729  -10.4518   40.0422 S   0  0  0  0  0  0  0  0  0  0  0  0
   -4.2540   -8.6102   40.3487 C   0  0  0  0  0  0  0  0  0  0  0  0
   -2.8180   -5.5816   38.5368 O   0  0  0  0  0  0  0  0  0  0  0  0
   -3.7392   -6.3484   38.2079 C   0  0  0  0  0  0  0  0  0  0  0  0
   -4.9202   -6.0949   37.8997 O   0  0  0  0  0  0  0  0  0  0  0  0
   -1.9717   -5.9271   38.7426 H   0  0  0  0  0  0  0  0  0  0  0  0
   -4.0618   -8.4104   41.8777 C   0  0  0  0  0  0  0  0  0  0  0  0
   -3.8397   -6.6694   42.1888 S   0  0  0  0  0  0  0  0  0  0  0  0
   -4.9324   -5.9878   41.7518 H   0  0  0  0  0  0  0  0  0  0  0  0
  5  6  1  0  0  0
  5  4  1  0  0  0
  5  1  1  0  0  0
  6  7  1  0  0  0
 14 13  1  0  0  0
  4  3  1  0  0  0
 13  8  1  0  0  0
  1  8  1  0  0  0
  1  2  1  0  0  0
  8  7  1  0  0  0
 11 10  2  0  0  0
  3  2  1  0  0  0
  2 10  1  0  0  0
 10  9  1  0  0  0
  9 12  1  0  0  0
 14 15  1  0  0  0
M  END
> <minimizedAffinity>
-4.31020

$$$$
5EV8_3R9_A_303


 15 16  0  0  0  0  0  0  0  0999 V2000
   -2.5309   -8.4249   39.5876 N   0  0  0  0  0  0  0  0  0  0  0  0
   -3.9897   -8.2313   39.7399 C   0  0  0  0  0  0  0  0  0  0  0  0
   -4.3945   -6.8238   39.2534 C   0  0  0  0  0  0  0  0  0  0  0  0
   -2.9307   -6.0489   38.5028 S   0  0  0  0  0  0  0  0  0  0  0  0
   -1.9331   -7.6239   38.5610 C   0  0  0  0  0  0  0  0  0  0  0  0
   -2.1024   -8.4103   37.2818 C   0  0  0  0  0  0  0  0  0  0  0  0
   -2.0291  -10.1714   37.7615 S   0  0  0  0  0  0  0  0  0  0  0  0
   -2.0246   -9.7654   39.5875 C   0  0  0  0  0  0  0  0  0  0  0  0
   -5.4233   -8.8305   41.4745 O   0  0  0  0  0  0  0  0  0  0  0  0
   -4.3096   -8.3357   41.2304 C   0  0  0  0  0  0  0  0  0  0  0  0
   -3.4245   -7.9325   42.0102 O   0  0  0  0  0  0  0  0  0  0  0  0
   -5.9856   -9.0888   40.7709 H   0  0  0  0  0  0  0  0  0  0  0  0
   -0.5577   -9.8948   40.0835 C   0  0  0  0  0  0  0  0  0  0  0  0
    0.3105  -10.9893   38.9764 S   0  0  0  0  0  0  0  0  0  0  0  0
    0.2759  -10.4800   37.7158 H   0  0  0  0  0  0  0  0  0  0  0  0
  5  6  1  0  0  0
  5  4  1  0  0  0
  5  1  1  0  0  0
  6  7  1  0  0  0
 14 13  1  0  0  0
  4  3  1  0  0  0
 13  8  1  0  0  0
  1  8  1  0  0  0
  1  2  1  0  0  0
  8  7  1  0  0  0
 11 10  2  0  0  0
  3  2  1  0  0  0
  2 10  1  0  0  0
 10  9  1  0  0  0
  9 12  1  0  0  0
 14 15  1  0  0  0
M  END
> <minimizedAffinity>
-4.30480

$$$$
5EV8_3R9_A_303


 15 16  0  0  0  0  0  0  0  0999 V2000
   -2.7004   -8.6824   38.5932 N   0  0  0  0  0  0  0  0  0  0  0  0
   -3.0018  -10.0928   38.2633 C   0  0  0  0  0  0  0  0  0  0  0  0
   -1.8738  -11.0130   38.7756 C   0  0  0  0  0  0  0  0  0  0  0  0
   -0.7261   -9.9987   39.7557 S   0  0  0  0  0  0  0  0  0  0  0  0
   -1.8517   -8.5115   39.7349 C   0  0  0  0  0  0  0  0  0  0  0  0
   -2.7738   -8.5234   40.9320 C   0  0  0  0  0  0  0  0  0  0  0  0
   -4.3460   -7.7883   40.3623 S   0  0  0  0  0  0  0  0  0  0  0  0
   -3.7803   -7.7407   38.5798 C   0  0  0  0  0  0  0  0  0  0  0  0
   -4.1071  -10.7096   36.3086 O   0  0  0  0  0  0  0  0  0  0  0  0
   -3.0578  -10.2020   36.7403 C   0  0  0  0  0  0  0  0  0  0  0  0
   -2.0677   -9.7635   36.1228 O   0  0  0  0  0  0  0  0  0  0  0  0
   -4.7695  -10.9958   36.9063 H   0  0  0  0  0  0  0  0  0  0  0  0
   -3.3506   -6.2793   38.2730 C   0  0  0  0  0  0  0  0  0  0  0  0
   -4.0181   -5.2233   39.5444 S   0  0  0  0  0  0  0  0  0  0  0  0
   -3.5423   -5.6164   40.7563 H   0  0  0  0  0  0  0  0  0  0  0  0
  5  6  1  0  0  0
  5  4  1  0  0  0
  5  1  1  0  0  0
  6  7  1  0  0  0
 14 13  1  0  0  0
  4  3  1  0  0  0
 13  8  1  0  0  0
  1  8  1  0  0  0
  1  2  1  0  0  0
  8  7  1  0  0  0
 11 10  2  0  0  0
  3  2  1  0  0  0
  2 10  1  0  0  0
 10  9  1  0  0  0
  9 12  1  0  0  0
 14 15  1  0  0  0
M  END
> <minimizedAffinity>
-4.25606

$$$$
5EV8_3R9_A_303


 15 16  0  0  0  0  0  0  0  0999 V2000
   -2.1754   -9.1270   36.9801 N   0  0  0  0  0  0  0  0  0  0  0  0
   -1.9393  -10.5131   36.5198 C   0  0  0  0  0  0  0  0  0  0  0  0
   -0.6164  -10.5944   35.7292 C   0  0  0  0  0  0  0  0  0  0  0  0
    0.2131   -8.9814   35.8592 S   0  0  0  0  0  0  0  0  0  0  0  0
   -0.9840   -8.3476   37.1417 C   0  0  0  0  0  0  0  0  0  0  0  0
   -0.4846   -8.6530   38.5348 C   0  0  0  0  0  0  0  0  0  0  0  0
   -1.9738   -8.9712   39.5437 S   0  0  0  0  0  0  0  0  0  0  0  0
   -3.1027   -8.9211   38.0529 C   0  0  0  0  0  0  0  0  0  0  0  0
   -4.1913  -10.9685   36.1402 O   0  0  0  0  0  0  0  0  0  0  0  0
   -3.0856  -10.8818   35.5792 C   0  0  0  0  0  0  0  0  0  0  0  0
   -2.7824  -11.0348   34.3797 O   0  0  0  0  0  0  0  0  0  0  0  0
   -4.2609  -10.8239   37.0633 H   0  0  0  0  0  0  0  0  0  0  0  0
   -3.7912   -7.5281   38.0445 C   0  0  0  0  0  0  0  0  0  0  0  0
   -4.1645   -7.0805   39.7290 S   0  0  0  0  0  0  0  0  0  0  0  0
   -3.0139   -7.0400   40.4529 H   0  0  0  0  0  0  0  0  0  0  0  0
  5  6  1  0  0  0
  5  4  1  0  0  0
  5  1  1  0  0  0
  6  7  1  0  0  0
 14 13  1  0  0  0
  4  3  1  0  0  0
 13  8  1  0  0  0
  1  8  1  0  0  0
  1  2  1  0  0  0
  8  7  1  0  0  0
 11 10  2  0  0  0
  3  2  1  0  0  0
  2 10  1  0  0  0
 10  9  1  0  0  0
  9 12  1  0  0  0
 14 15  1  0  0  0
M  END
> <minimizedAffinity>
-4.15283

$$$$
5EV8_3R9_A_303


 15 16  0  0  0  0  0  0  0  0999 V2000
   -3.4593   -7.8272   39.3785 N   0  0  0  0  0  0  0  0  0  0  0  0
   -2.2737   -7.0331   38.9876 C   0  0  0  0  0  0  0  0  0  0  0  0
   -2.7121   -5.6815   38.3853 C   0  0  0  0  0  0  0  0  0  0  0  0
   -4.5135   -5.5369   38.5876 S   0  0  0  0  0  0  0  0  0  0  0  0
   -4.6206   -7.0444   39.6809 C   0  0  0  0  0  0  0  0  0  0  0  0
   -4.4834   -6.6593   41.1357 C   0  0  0  0  0  0  0  0  0  0  0  0
   -3.6063   -8.0444   41.9413 S   0  0  0  0  0  0  0  0  0  0  0  0
   -3.2754   -8.8996   40.3108 C   0  0  0  0  0  0  0  0  0  0  0  0
   -2.2783   -8.4644   37.1506 O   0  0  0  0  0  0  0  0  0  0  0  0
   -1.5323   -7.8225   37.9098 C   0  0  0  0  0  0  0  0  0  0  0  0
   -0.2900   -7.7187   37.9117 O   0  0  0  0  0  0  0  0  0  0  0  0
   -3.2064   -8.4434   37.2779 H   0  0  0  0  0  0  0  0  0  0  0  0
   -4.3126  -10.0489   40.1760 C   0  0  0  0  0  0  0  0  0  0  0  0
   -3.6119  -11.3127   39.1325 S   0  0  0  0  0  0  0  0  0  0  0  0
   -2.4594  -11.7726   39.6891 H   0  0  0  0  0  0  0  0  0  0  0  0
  5  6  1  0  0  0
  5  4  1  0  0  0
  5  1  1  0  0  0
  6  7  1  0  0  0
 14 13  1  0  0  0
  4  3  1  0  0  0
 13  8  1  0  0  0
  1  8  1  0  0  0
  1  2  1  0  0  0
  8  7  1  0  0  0
 11 10  2  0  0  0
  3  2  1  0  0  0
  2 10  1  0  0  0
 10  9  1  0  0  0
  9 12  1  0  0  0
 14 15  1  0  0  0
M  END
> <minimizedAffinity>
-4.11703

$$$$
