5DNU_KKN_A_301


 11 12  0  0  0  0  0  0  0  0999 V2000
   16.0329  -14.1229    2.1751 O   0  0  0  0  0  0  0  0  0  0  0  0
   15.7282  -15.5057    2.2085 C   0  0  0  0  0  0  0  0  0  0  0  0
   15.4087  -16.0543    3.4326 C   0  0  0  0  0  0  0  0  0  0  0  0
   15.2939  -15.3584    4.5765 C   0  0  0  0  0  0  0  0  0  0  0  0
   15.5798  -14.0331    4.5463 C   0  0  0  0  0  0  0  0  0  0  0  0
   15.9299  -13.4243    3.3344 C   0  0  0  0  0  0  0  0  0  0  0  0
   14.9687  -16.2644    5.5364 C   0  0  0  0  0  0  0  0  0  0  0  0
   14.8596  -17.4514    4.9182 C   0  0  0  0  0  0  0  0  0  0  0  0
   14.5718  -18.5443    5.4108 O   0  0  0  0  0  0  0  0  0  0  0  0
   15.1175  -17.3070    3.6049 O   0  0  0  0  0  0  0  0  0  0  0  0
   14.7122  -16.0535    7.0335 C   0  0  0  0  0  0  0  0  0  0  0  0
  6  1  1  0  0  0
  6  5  2  0  0  0
  1  2  1  0  0  0
  5  4  1  0  0  0
  2  3  2  0  0  0
  4  3  1  0  0  0
  4  7  2  0  0  0
  3 10  1  0  0  0
  7 11  1  0  0  0
  7  8  1  0  0  0
 10  8  1  0  0  0
  8  9  2  0  0  0
M  END
> <minimizedAffinity>
-7.03307

$$$$
5DNU_KKN_A_301


 11 12  0  0  0  0  0  0  0  0999 V2000
   15.9302  -13.9088    2.3730 O   0  0  0  0  0  0  0  0  0  0  0  0
   15.6797  -13.6447    3.7417 C   0  0  0  0  0  0  0  0  0  0  0  0
   15.3302  -14.7138    4.5393 C   0  0  0  0  0  0  0  0  0  0  0  0
   15.2836  -15.9924    4.1279 C   0  0  0  0  0  0  0  0  0  0  0  0
   15.5284  -16.2487    2.8190 C   0  0  0  0  0  0  0  0  0  0  0  0
   15.8692  -15.1992    1.9563 C   0  0  0  0  0  0  0  0  0  0  0  0
   14.9013  -16.7214    5.2097 C   0  0  0  0  0  0  0  0  0  0  0  0
   14.7798  -15.8554    6.2288 C   0  0  0  0  0  0  0  0  0  0  0  0
   14.4600  -16.0910    7.3959 O   0  0  0  0  0  0  0  0  0  0  0  0
   15.0668  -14.6102    5.8056 O   0  0  0  0  0  0  0  0  0  0  0  0
   14.6781  -18.2328    5.3411 C   0  0  0  0  0  0  0  0  0  0  0  0
  6  1  1  0  0  0
  6  5  2  0  0  0
  1  2  1  0  0  0
  5  4  1  0  0  0
  2  3  2  0  0  0
  4  3  1  0  0  0
  4  7  2  0  0  0
  3 10  1  0  0  0
  7 11  1  0  0  0
  7  8  1  0  0  0
 10  8  1  0  0  0
  8  9  2  0  0  0
M  END
> <minimizedAffinity>
-6.33682

$$$$
5DNU_KKN_A_301


 11 12  0  0  0  0  0  0  0  0999 V2000
   15.8983  -13.5389    3.1223 O   0  0  0  0  0  0  0  0  0  0  0  0
   14.9234  -14.2697    2.4000 C   0  0  0  0  0  0  0  0  0  0  0  0
   14.6058  -15.5296    2.8617 C   0  0  0  0  0  0  0  0  0  0  0  0
   15.0985  -16.0798    3.9845 C   0  0  0  0  0  0  0  0  0  0  0  0
   16.0281  -15.3800    4.6809 C   0  0  0  0  0  0  0  0  0  0  0  0
   16.4050  -14.1021    4.2486 C   0  0  0  0  0  0  0  0  0  0  0  0
   14.5368  -17.3143    4.0756 C   0  0  0  0  0  0  0  0  0  0  0  0
   13.7013  -17.4305    3.0308 C   0  0  0  0  0  0  0  0  0  0  0  0
   12.9819  -18.3861    2.7321 O   0  0  0  0  0  0  0  0  0  0  0  0
   13.7376  -16.3067    2.2908 O   0  0  0  0  0  0  0  0  0  0  0  0
   14.7245  -18.3977    5.1446 C   0  0  0  0  0  0  0  0  0  0  0  0
  6  1  1  0  0  0
  6  5  2  0  0  0
  1  2  1  0  0  0
  5  4  1  0  0  0
  2  3  2  0  0  0
  4  3  1  0  0  0
  4  7  2  0  0  0
  3 10  1  0  0  0
  7 11  1  0  0  0
  7  8  1  0  0  0
 10  8  1  0  0  0
  8  9  2  0  0  0
M  END
> <minimizedAffinity>
-6.31468

$$$$
5DNU_KKN_A_301


 11 12  0  0  0  0  0  0  0  0999 V2000
   14.4486  -16.7981    6.5628 O   0  0  0  0  0  0  0  0  0  0  0  0
   14.7237  -17.2411    5.2460 C   0  0  0  0  0  0  0  0  0  0  0  0
   15.0903  -16.2869    4.3205 C   0  0  0  0  0  0  0  0  0  0  0  0
   15.2763  -14.9848    4.5966 C   0  0  0  0  0  0  0  0  0  0  0  0
   15.0188  -14.5590    5.8581 C   0  0  0  0  0  0  0  0  0  0  0  0
   14.6237  -15.4802    6.8364 C   0  0  0  0  0  0  0  0  0  0  0  0
   15.6277  -14.3982    3.4218 C   0  0  0  0  0  0  0  0  0  0  0  0
   15.6800  -15.3797    2.5068 C   0  0  0  0  0  0  0  0  0  0  0  0
   15.9670  -15.2931    1.3110 O   0  0  0  0  0  0  0  0  0  0  0  0
   15.3615  -16.5551    3.0803 O   0  0  0  0  0  0  0  0  0  0  0  0
   15.9616  -12.9318    3.1224 C   0  0  0  0  0  0  0  0  0  0  0  0
  6  1  1  0  0  0
  6  5  2  0  0  0
  1  2  1  0  0  0
  5  4  1  0  0  0
  2  3  2  0  0  0
  4  3  1  0  0  0
  4  7  2  0  0  0
  3 10  1  0  0  0
  7 11  1  0  0  0
  7  8  1  0  0  0
 10  8  1  0  0  0
  8  9  2  0  0  0
M  END
> <minimizedAffinity>
-5.91249

$$$$
5DNU_KKN_A_301


 11 12  0  0  0  0  0  0  0  0999 V2000
   14.8151  -18.1368    3.0860 O   0  0  0  0  0  0  0  0  0  0  0  0
   15.0161  -16.7353    3.0509 C   0  0  0  0  0  0  0  0  0  0  0  0
   14.9315  -16.0533    4.2463 C   0  0  0  0  0  0  0  0  0  0  0  0
   14.7471  -16.6312    5.4456 C   0  0  0  0  0  0  0  0  0  0  0  0
   14.5598  -17.9738    5.4826 C   0  0  0  0  0  0  0  0  0  0  0  0
   14.6151  -18.7171    4.2967 C   0  0  0  0  0  0  0  0  0  0  0  0
   14.7245  -15.6179    6.3514 C   0  0  0  0  0  0  0  0  0  0  0  0
   14.9406  -14.4860    5.6619 C   0  0  0  0  0  0  0  0  0  0  0  0
   15.0080  -13.3324    6.0914 O   0  0  0  0  0  0  0  0  0  0  0  0
   15.0865  -14.7696    4.3541 O   0  0  0  0  0  0  0  0  0  0  0  0
   14.5440  -15.6704    7.8733 C   0  0  0  0  0  0  0  0  0  0  0  0
  6  1  1  0  0  0
  6  5  2  0  0  0
  1  2  1  0  0  0
  5  4  1  0  0  0
  2  3  2  0  0  0
  4  3  1  0  0  0
  4  7  2  0  0  0
  3 10  1  0  0  0
  7 11  1  0  0  0
  7  8  1  0  0  0
 10  8  1  0  0  0
  8  9  2  0  0  0
M  END
> <minimizedAffinity>
-5.90236

$$$$
5DNU_KKN_A_301


 11 12  0  0  0  0  0  0  0  0999 V2000
   15.4898  -16.1374    6.3977 O   0  0  0  0  0  0  0  0  0  0  0  0
   15.1300  -17.3203    5.7068 C   0  0  0  0  0  0  0  0  0  0  0  0
   14.3698  -17.1804    4.5650 C   0  0  0  0  0  0  0  0  0  0  0  0
   14.0116  -16.0036    4.0236 C   0  0  0  0  0  0  0  0  0  0  0  0
   14.3595  -14.8692    4.6802 C   0  0  0  0  0  0  0  0  0  0  0  0
   15.1153  -14.9501    5.8567 C   0  0  0  0  0  0  0  0  0  0  0  0
   13.2783  -16.3057    2.9196 C   0  0  0  0  0  0  0  0  0  0  0  0
   13.2680  -17.6451    2.8242 C   0  0  0  0  0  0  0  0  0  0  0  0
   12.7258  -18.3444    1.9657 O   0  0  0  0  0  0  0  0  0  0  0  0
   13.9658  -18.1802    3.8433 O   0  0  0  0  0  0  0  0  0  0  0  0
   12.6055  -15.3714    1.9067 C   0  0  0  0  0  0  0  0  0  0  0  0
  6  1  1  0  0  0
  6  5  2  0  0  0
  1  2  1  0  0  0
  5  4  1  0  0  0
  2  3  2  0  0  0
  4  3  1  0  0  0
  4  7  2  0  0  0
  3 10  1  0  0  0
  7 11  1  0  0  0
  7  8  1  0  0  0
 10  8  1  0  0  0
  8  9  2  0  0  0
M  END
> <minimizedAffinity>
-5.57944

$$$$
5DNU_KKN_A_301


 11 12  0  0  0  0  0  0  0  0999 V2000
   14.7325  -17.4113    5.9597 O   0  0  0  0  0  0  0  0  0  0  0  0
   14.9999  -16.0248    6.0700 C   0  0  0  0  0  0  0  0  0  0  0  0
   15.2923  -15.3419    4.9084 C   0  0  0  0  0  0  0  0  0  0  0  0
   15.2683  -15.8805    3.6773 C   0  0  0  0  0  0  0  0  0  0  0  0
   15.0072  -17.2068    3.5684 C   0  0  0  0  0  0  0  0  0  0  0  0
   14.7223  -17.9565    4.7167 C   0  0  0  0  0  0  0  0  0  0  0  0
   15.6127  -14.8808    2.8231 C   0  0  0  0  0  0  0  0  0  0  0  0
   15.7832  -13.7805    3.5737 C   0  0  0  0  0  0  0  0  0  0  0  0
   16.0922  -12.6456    3.2043 O   0  0  0  0  0  0  0  0  0  0  0  0
   15.5636  -14.0736    4.8690 O   0  0  0  0  0  0  0  0  0  0  0  0
   15.7536  -14.9043    1.2963 C   0  0  0  0  0  0  0  0  0  0  0  0
  6  1  1  0  0  0
  6  5  2  0  0  0
  1  2  1  0  0  0
  5  4  1  0  0  0
  2  3  2  0  0  0
  4  3  1  0  0  0
  4  7  2  0  0  0
  3 10  1  0  0  0
  7 11  1  0  0  0
  7  8  1  0  0  0
 10  8  1  0  0  0
  8  9  2  0  0  0
M  END
> <minimizedAffinity>
-5.53718

$$$$
5DNU_KKN_A_301


 11 12  0  0  0  0  0  0  0  0999 V2000
   16.0737  -14.1438    4.2829 O   0  0  0  0  0  0  0  0  0  0  0  0
   16.0704  -15.4304    4.8750 C   0  0  0  0  0  0  0  0  0  0  0  0
   15.2044  -16.3666    4.3505 C   0  0  0  0  0  0  0  0  0  0  0  0
   14.4222  -16.1680    3.2758 C   0  0  0  0  0  0  0  0  0  0  0  0
   14.4275  -14.9386    2.7037 C   0  0  0  0  0  0  0  0  0  0  0  0
   15.2726  -13.9409    3.2061 C   0  0  0  0  0  0  0  0  0  0  0  0
   13.7338  -17.3259    3.0931 C   0  0  0  0  0  0  0  0  0  0  0  0
   14.1661  -18.1786    4.0361 C   0  0  0  0  0  0  0  0  0  0  0  0
   13.8135  -19.3439    4.2300 O   0  0  0  0  0  0  0  0  0  0  0  0
   15.0952  -17.5778    4.8028 O   0  0  0  0  0  0  0  0  0  0  0  0
   12.6944  -17.6875    2.0253 C   0  0  0  0  0  0  0  0  0  0  0  0
  6  1  1  0  0  0
  6  5  2  0  0  0
  1  2  1  0  0  0
  5  4  1  0  0  0
  2  3  2  0  0  0
  4  3  1  0  0  0
  4  7  2  0  0  0
  3 10  1  0  0  0
  7 11  1  0  0  0
  7  8  1  0  0  0
 10  8  1  0  0  0
  8  9  2  0  0  0
M  END
> <minimizedAffinity>
-5.37869

$$$$
5DNU_KKN_A_301


 11 12  0  0  0  0  0  0  0  0999 V2000
   14.7869  -18.6089    4.0547 O   0  0  0  0  0  0  0  0  0  0  0  0
   15.1523  -17.6504    3.0781 C   0  0  0  0  0  0  0  0  0  0  0  0
   15.2592  -16.3381    3.4877 C   0  0  0  0  0  0  0  0  0  0  0  0
   15.1150  -15.9182    4.7562 C   0  0  0  0  0  0  0  0  0  0  0  0
   14.7705  -16.8349    5.6943 C   0  0  0  0  0  0  0  0  0  0  0  0
   14.6281  -18.1806    5.3329 C   0  0  0  0  0  0  0  0  0  0  0  0
   15.2972  -14.5714    4.7291 C   0  0  0  0  0  0  0  0  0  0  0  0
   15.5858  -14.2517    3.4572 C   0  0  0  0  0  0  0  0  0  0  0  0
   15.8310  -13.1386    2.9874 O   0  0  0  0  0  0  0  0  0  0  0  0
   15.5778  -15.3613    2.6952 O   0  0  0  0  0  0  0  0  0  0  0  0
   15.2497  -13.5549    5.8763 C   0  0  0  0  0  0  0  0  0  0  0  0
  6  1  1  0  0  0
  6  5  2  0  0  0
  1  2  1  0  0  0
  5  4  1  0  0  0
  2  3  2  0  0  0
  4  3  1  0  0  0
  4  7  2  0  0  0
  3 10  1  0  0  0
  7 11  1  0  0  0
  7  8  1  0  0  0
 10  8  1  0  0  0
  8  9  2  0  0  0
M  END
> <minimizedAffinity>
-5.31605

$$$$
5DNU_KKN_A_301


 11 12  0  0  0  0  0  0  0  0999 V2000
   16.9206  -13.4050    2.7028 O   0  0  0  0  0  0  0  0  0  0  0  0
   16.8902  -14.0547    3.9610 C   0  0  0  0  0  0  0  0  0  0  0  0
   16.0093  -15.1050    4.1103 C   0  0  0  0  0  0  0  0  0  0  0  0
   15.2360  -15.6004    3.1291 C   0  0  0  0  0  0  0  0  0  0  0  0
   15.2672  -14.9836    1.9218 C   0  0  0  0  0  0  0  0  0  0  0  0
   16.1286  -13.8982    1.7170 C   0  0  0  0  0  0  0  0  0  0  0  0
   14.5270  -16.6172    3.6869 C   0  0  0  0  0  0  0  0  0  0  0  0
   14.9387  -16.7142    4.9614 C   0  0  0  0  0  0  0  0  0  0  0  0
   14.5633  -17.5090    5.8257 O   0  0  0  0  0  0  0  0  0  0  0  0
   15.8752  -15.7799    5.2103 O   0  0  0  0  0  0  0  0  0  0  0  0
   13.4859  -17.5470    3.0518 C   0  0  0  0  0  0  0  0  0  0  0  0
  6  1  1  0  0  0
  6  5  2  0  0  0
  1  2  1  0  0  0
  5  4  1  0  0  0
  2  3  2  0  0  0
  4  3  1  0  0  0
  4  7  2  0  0  0
  3 10  1  0  0  0
  7 11  1  0  0  0
  7  8  1  0  0  0
 10  8  1  0  0  0
  8  9  2  0  0  0
M  END
> <minimizedAffinity>
-5.31566

$$$$
