3MYG_EML_A_1


 33 36  0  0  0  0  0  0  0  0999 V2000
   -2.7064   32.5870   79.2113 N   0  0  0  0  0  0  0  0  0  0  0  0
   -2.3577   32.9173   78.3519 H   0  0  0  0  0  0  0  0  0  0  0  0
   -5.5420   29.4783   79.1273 C   0  0  0  0  0  0  0  0  0  0  0  0
   -3.8697   31.5061   76.6476 N   0  0  0  0  0  0  0  0  0  0  0  0
   -5.0859   29.9675   80.3283 C   0  0  0  0  0  0  0  0  0  0  0  0
   -5.0444   30.0618   77.9822 N   0  0  0  0  0  0  0  0  0  0  0  0
   -3.6413   31.5627   79.1673 C   0  0  0  0  0  0  0  0  0  0  0  0
   -4.1281   31.0724   77.9536 C   0  0  0  0  0  0  0  0  0  0  0  0
   -5.4156   29.7661   76.6878 C   0  0  0  0  0  0  0  0  0  0  0  0
   -4.1720   31.0120   80.3172 N   0  0  0  0  0  0  0  0  0  0  0  0
   -4.6627   30.6928   75.9199 C   0  0  0  0  0  0  0  0  0  0  0  0
   -5.5324   29.3977   81.6298 C   0  0  0  0  0  0  0  0  0  0  0  0
   -6.4587   28.7678   76.2216 C   0  0  0  0  0  0  0  0  0  0  0  0
   -8.3227   27.5926   76.0434 N   0  0  0  0  0  0  0  0  0  0  0  0
   -7.4284   27.1630   75.1343 N   0  0  0  0  0  0  0  0  0  0  0  0
   -6.2635   27.8393   75.2025 C   0  0  0  0  0  0  0  0  0  0  0  0
   -7.7770   28.5908   76.7404 C   0  0  0  0  0  0  0  0  0  0  0  0
   -9.2290   27.2305   76.1727 H   0  0  0  0  0  0  0  0  0  0  0  0
   -0.7759   34.1294   80.5476 S   0  0  0  0  0  0  0  0  0  0  0  0
   -0.8789   34.4114   82.0801 N   0  0  0  0  0  0  0  0  0  0  0  0
   -2.2193   33.1882   80.3738 C   0  0  0  0  0  0  0  0  0  0  0  0
   -2.7820   33.1521   81.6547 C   0  0  0  0  0  0  0  0  0  0  0  0
   -2.0018   33.8462   82.5799 C   0  0  0  0  0  0  0  0  0  0  0  0
   -2.3218   34.0199   84.0469 C   0  0  0  0  0  0  0  0  0  0  0  0
   -1.8488   35.2945   84.7157 N   0  0  0  0  0  0  0  0  0  0  0  0
   -1.1246   35.2557   86.0066 C   0  0  0  0  0  0  0  0  0  0  0  0
   -1.5959   34.2023   86.9490 C   0  0  0  0  0  0  0  0  0  0  0  0
   -1.2824   36.5783   86.8090 C   0  0  0  0  0  0  0  0  0  0  0  0
    0.8608   35.1491   84.5317 O   0  0  0  0  0  0  0  0  0  0  0  0
    0.3495   34.8213   85.8374 C   0  0  0  0  0  0  0  0  0  0  0  0
    1.7848   34.8618   84.4649 H   0  0  0  0  0  0  0  0  0  0  0  0
   -2.6615   36.4869   84.4640 C   0  0  0  0  0  0  0  0  0  0  0  0
   -2.2918   37.4804   83.4011 C   0  0  0  0  0  0  0  0  0  0  0  0
 13  9  1  0  0  0
 13 16  1  0  0  0
  1  7  1  0  0  0
  1 21  1  0  0  0
 19 20  1  0  0  0
  3  5  2  0  0  0
  4  8  2  0  0  0
  5 12  1  0  0  0
  6  3  1  0  0  0
 14 15  1  0  0  0
  7 10  2  0  0  0
 15 16  2  0  0  0
  8  6  1  0  0  0
  8  7  1  0  0  0
  9  6  1  0  0  0
 10  5  1  0  0  0
 25 32  1  0  0  0
 25 26  1  0  0  0
 11  4  1  0  0  0
 11  9  2  0  0  0
 17 13  2  0  0  0
 17 14  1  0  0  0
 21 19  1  0  0  0
 21 22  2  0  0  0
 22 23  1  0  0  0
 24 25  1  0  0  0
 23 20  2  0  0  0
 23 24  1  0  0  0
 26 28  1  0  0  0
 26 30  1  0  0  0
 33 32  1  0  0  0
 30 29  1  0  0  0
 27 26  1  0  0  0
  1  2  1  0  0  0
 29 31  1  0  0  0
 14 18  1  0  0  0
M  END
> <minimizedAffinity>
-8.19040

$$$$
3MYG_EML_A_1


 33 36  0  0  0  0  0  0  0  0999 V2000
   -2.6775   32.6973   79.1440 N   0  0  0  0  0  0  0  0  0  0  0  0
   -2.3746   33.0371   78.2710 H   0  0  0  0  0  0  0  0  0  0  0  0
   -5.5261   29.5996   79.1763 C   0  0  0  0  0  0  0  0  0  0  0  0
   -3.8349   31.5162   76.6222 N   0  0  0  0  0  0  0  0  0  0  0  0
   -5.0728   30.1361   80.3580 C   0  0  0  0  0  0  0  0  0  0  0  0
   -5.0213   30.1332   78.0103 N   0  0  0  0  0  0  0  0  0  0  0  0
   -3.6166   31.6759   79.1383 C   0  0  0  0  0  0  0  0  0  0  0  0
   -4.1006   31.1379   77.9439 C   0  0  0  0  0  0  0  0  0  0  0  0
   -5.3885   29.7858   76.7276 C   0  0  0  0  0  0  0  0  0  0  0  0
   -4.1543   31.1754   80.3077 N   0  0  0  0  0  0  0  0  0  0  0  0
   -4.6285   30.6769   75.9253 C   0  0  0  0  0  0  0  0  0  0  0  0
   -5.5271   29.6223   81.6800 C   0  0  0  0  0  0  0  0  0  0  0  0
   -6.4339   28.7735   76.2985 C   0  0  0  0  0  0  0  0  0  0  0  0
   -8.2916   27.5810   76.1793 N   0  0  0  0  0  0  0  0  0  0  0  0
   -7.4159   27.1479   75.2540 N   0  0  0  0  0  0  0  0  0  0  0  0
   -6.2554   27.8344   75.2861 C   0  0  0  0  0  0  0  0  0  0  0  0
   -7.7379   28.5919   76.8511 C   0  0  0  0  0  0  0  0  0  0  0  0
   -9.1915   27.2130   76.3347 H   0  0  0  0  0  0  0  0  0  0  0  0
   -2.3553   32.7997   81.9328 S   0  0  0  0  0  0  0  0  0  0  0  0
   -1.4909   33.9093   82.6111 N   0  0  0  0  0  0  0  0  0  0  0  0
   -2.1263   33.2831   80.2856 C   0  0  0  0  0  0  0  0  0  0  0  0
   -1.2796   34.3956   80.3512 C   0  0  0  0  0  0  0  0  0  0  0  0
   -0.9487   34.7141   81.6685 C   0  0  0  0  0  0  0  0  0  0  0  0
   -0.0438   35.8454   82.1000 C   0  0  0  0  0  0  0  0  0  0  0  0
   -0.2513   36.4102   83.4904 N   0  0  0  0  0  0  0  0  0  0  0  0
   -0.9532   37.6980   83.6942 C   0  0  0  0  0  0  0  0  0  0  0  0
   -1.2106   38.4669   82.4443 C   0  0  0  0  0  0  0  0  0  0  0  0
   -0.1348   38.6797   84.5799 C   0  0  0  0  0  0  0  0  0  0  0  0
   -2.7245   36.1098   84.3789 O   0  0  0  0  0  0  0  0  0  0  0  0
   -2.4046   37.5009   84.1892 C   0  0  0  0  0  0  0  0  0  0  0  0
   -3.6400   36.0279   84.6887 H   0  0  0  0  0  0  0  0  0  0  0  0
    0.7749   36.0680   84.4781 C   0  0  0  0  0  0  0  0  0  0  0  0
    0.4777   35.1654   85.6402 C   0  0  0  0  0  0  0  0  0  0  0  0
 13  9  1  0  0  0
 13 16  1  0  0  0
  1  7  1  0  0  0
  1 21  1  0  0  0
 19 20  1  0  0  0
  3  5  2  0  0  0
  4  8  2  0  0  0
  5 12  1  0  0  0
  6  3  1  0  0  0
 14 15  1  0  0  0
  7 10  2  0  0  0
 15 16  2  0  0  0
  8  6  1  0  0  0
  8  7  1  0  0  0
  9  6  1  0  0  0
 10  5  1  0  0  0
 25 32  1  0  0  0
 25 26  1  0  0  0
 11  4  1  0  0  0
 11  9  2  0  0  0
 17 13  2  0  0  0
 17 14  1  0  0  0
 21 19  1  0  0  0
 21 22  2  0  0  0
 22 23  1  0  0  0
 24 25  1  0  0  0
 23 20  2  0  0  0
 23 24  1  0  0  0
 26 28  1  0  0  0
 26 30  1  0  0  0
 33 32  1  0  0  0
 30 29  1  0  0  0
 27 26  1  0  0  0
  1  2  1  0  0  0
 29 31  1  0  0  0
 14 18  1  0  0  0
M  END
> <minimizedAffinity>
-8.07074

$$$$
3MYG_EML_A_1


 33 36  0  0  0  0  0  0  0  0999 V2000
   -9.1172   27.1085   80.4497 N   0  0  0  0  0  0  0  0  0  0  0  0
  -10.0287   26.8826   80.1540 H   0  0  0  0  0  0  0  0  0  0  0  0
   -6.4855   28.5849   77.5162 C   0  0  0  0  0  0  0  0  0  0  0  0
   -7.0660   29.2438   81.0214 N   0  0  0  0  0  0  0  0  0  0  0  0
   -7.4365   27.6491   77.1856 C   0  0  0  0  0  0  0  0  0  0  0  0
   -6.4562   29.0147   78.8253 N   0  0  0  0  0  0  0  0  0  0  0  0
   -8.2427   27.6050   79.4937 C   0  0  0  0  0  0  0  0  0  0  0  0
   -7.2868   28.5718   79.8130 C   0  0  0  0  0  0  0  0  0  0  0  0
   -5.6299   29.9873   79.3469 C   0  0  0  0  0  0  0  0  0  0  0  0
   -8.3053   27.2060   78.1731 N   0  0  0  0  0  0  0  0  0  0  0  0
   -6.0612   30.0832   80.6960 C   0  0  0  0  0  0  0  0  0  0  0  0
   -7.5455   27.0915   75.8089 C   0  0  0  0  0  0  0  0  0  0  0  0
   -4.5940   30.8211   78.6165 C   0  0  0  0  0  0  0  0  0  0  0  0
   -2.9443   32.2260   78.1782 N   0  0  0  0  0  0  0  0  0  0  0  0
   -3.4370   31.7335   77.0269 N   0  0  0  0  0  0  0  0  0  0  0  0
   -4.4565   30.8747   77.2319 C   0  0  0  0  0  0  0  0  0  0  0  0
   -3.6199   31.6896   79.1958 C   0  0  0  0  0  0  0  0  0  0  0  0
   -2.2077   32.8746   78.2565 H   0  0  0  0  0  0  0  0  0  0  0  0
   -7.6190   25.8329   82.4546 S   0  0  0  0  0  0  0  0  0  0  0  0
   -7.8825   26.1120   83.9683 N   0  0  0  0  0  0  0  0  0  0  0  0
   -8.8114   26.9028   81.7966 C   0  0  0  0  0  0  0  0  0  0  0  0
   -9.4084   27.5049   82.9101 C   0  0  0  0  0  0  0  0  0  0  0  0
   -8.8622   27.0350   84.1047 C   0  0  0  0  0  0  0  0  0  0  0  0
   -9.2623   27.4827   85.4919 C   0  0  0  0  0  0  0  0  0  0  0  0
   -8.6273   28.7516   86.0232 N   0  0  0  0  0  0  0  0  0  0  0  0
   -7.5258   28.6980   87.0113 C   0  0  0  0  0  0  0  0  0  0  0  0
   -7.8208   29.3771   88.3042 C   0  0  0  0  0  0  0  0  0  0  0  0
   -6.2404   29.4061   86.4973 C   0  0  0  0  0  0  0  0  0  0  0  0
   -6.2496   26.5934   86.7461 O   0  0  0  0  0  0  0  0  0  0  0  0
   -7.2649   27.2611   87.5188 C   0  0  0  0  0  0  0  0  0  0  0  0
   -6.1151   25.6980   87.0941 H   0  0  0  0  0  0  0  0  0  0  0  0
   -9.5037   29.9233   86.0924 C   0  0  0  0  0  0  0  0  0  0  0  0
   -9.4007   31.0420   85.0967 C   0  0  0  0  0  0  0  0  0  0  0  0
 13  9  1  0  0  0
 13 16  1  0  0  0
  1  7  1  0  0  0
  1 21  1  0  0  0
 19 20  1  0  0  0
  3  5  2  0  0  0
  4  8  2  0  0  0
  5 12  1  0  0  0
  6  3  1  0  0  0
 14 15  1  0  0  0
  7 10  2  0  0  0
 15 16  2  0  0  0
  8  6  1  0  0  0
  8  7  1  0  0  0
  9  6  1  0  0  0
 10  5  1  0  0  0
 25 32  1  0  0  0
 25 26  1  0  0  0
 11  4  1  0  0  0
 11  9  2  0  0  0
 17 13  2  0  0  0
 17 14  1  0  0  0
 21 19  1  0  0  0
 21 22  2  0  0  0
 22 23  1  0  0  0
 24 25  1  0  0  0
 23 20  2  0  0  0
 23 24  1  0  0  0
 26 28  1  0  0  0
 26 30  1  0  0  0
 33 32  1  0  0  0
 30 29  1  0  0  0
 27 26  1  0  0  0
  1  2  1  0  0  0
 29 31  1  0  0  0
 14 18  1  0  0  0
M  END
> <minimizedAffinity>
-7.99714

$$$$
3MYG_EML_A_1


 33 36  0  0  0  0  0  0  0  0999 V2000
   -5.6410   30.2147   82.7289 N   0  0  0  0  0  0  0  0  0  0  0  0
   -6.0120   29.3921   83.1224 H   0  0  0  0  0  0  0  0  0  0  0  0
   -4.9656   30.2796   78.5755 C   0  0  0  0  0  0  0  0  0  0  0  0
   -7.2081   28.5151   80.7925 N   0  0  0  0  0  0  0  0  0  0  0  0
   -4.1844   31.0364   79.4161 C   0  0  0  0  0  0  0  0  0  0  0  0
   -5.9450   29.5042   79.1573 N   0  0  0  0  0  0  0  0  0  0  0  0
   -5.4304   30.2254   81.3575 C   0  0  0  0  0  0  0  0  0  0  0  0
   -6.2034   29.4442   80.4957 C   0  0  0  0  0  0  0  0  0  0  0  0
   -6.7886   28.6299   78.5055 C   0  0  0  0  0  0  0  0  0  0  0  0
   -4.4181   30.9682   80.7824 N   0  0  0  0  0  0  0  0  0  0  0  0
   -7.5320   28.0515   79.5677 C   0  0  0  0  0  0  0  0  0  0  0  0
   -3.1133   31.9328   78.8992 C   0  0  0  0  0  0  0  0  0  0  0  0
   -6.8242   28.2965   77.0259 C   0  0  0  0  0  0  0  0  0  0  0  0
   -7.4901   27.6024   75.0353 N   0  0  0  0  0  0  0  0  0  0  0  0
   -6.2195   28.0393   74.9604 N   0  0  0  0  0  0  0  0  0  0  0  0
   -5.7541   28.4677   76.1516 C   0  0  0  0  0  0  0  0  0  0  0  0
   -7.9172   27.7448   76.2912 C   0  0  0  0  0  0  0  0  0  0  0  0
   -8.0169   27.2383   74.2876 H   0  0  0  0  0  0  0  0  0  0  0  0
   -6.0163   31.5276   85.1839 S   0  0  0  0  0  0  0  0  0  0  0  0
   -5.3097   32.8847   85.4965 N   0  0  0  0  0  0  0  0  0  0  0  0
   -5.3703   31.2745   83.5971 C   0  0  0  0  0  0  0  0  0  0  0  0
   -4.5290   32.3701   83.3719 C   0  0  0  0  0  0  0  0  0  0  0  0
   -4.5240   33.2474   84.4566 C   0  0  0  0  0  0  0  0  0  0  0  0
   -3.7163   34.5212   84.5549 C   0  0  0  0  0  0  0  0  0  0  0  0
   -2.2235   34.4182   84.3175 N   0  0  0  0  0  0  0  0  0  0  0  0
   -1.2797   34.2646   85.4480 C   0  0  0  0  0  0  0  0  0  0  0  0
   -1.7579   34.8412   86.7359 C   0  0  0  0  0  0  0  0  0  0  0  0
    0.0714   34.9892   85.1883 C   0  0  0  0  0  0  0  0  0  0  0  0
   -1.3008   31.8866   84.7600 O   0  0  0  0  0  0  0  0  0  0  0  0
   -1.1044   32.7867   85.8668 C   0  0  0  0  0  0  0  0  0  0  0  0
   -1.1828   30.9724   85.0619 H   0  0  0  0  0  0  0  0  0  0  0  0
   -1.7143   35.1242   83.1394 C   0  0  0  0  0  0  0  0  0  0  0  0
   -1.4751   34.4133   81.8391 C   0  0  0  0  0  0  0  0  0  0  0  0
 13  9  1  0  0  0
 13 16  1  0  0  0
  1  7  1  0  0  0
  1 21  1  0  0  0
 19 20  1  0  0  0
  3  5  2  0  0  0
  4  8  2  0  0  0
  5 12  1  0  0  0
  6  3  1  0  0  0
 14 15  1  0  0  0
  7 10  2  0  0  0
 15 16  2  0  0  0
  8  6  1  0  0  0
  8  7  1  0  0  0
  9  6  1  0  0  0
 10  5  1  0  0  0
 25 32  1  0  0  0
 25 26  1  0  0  0
 11  4  1  0  0  0
 11  9  2  0  0  0
 17 13  2  0  0  0
 17 14  1  0  0  0
 21 19  1  0  0  0
 21 22  2  0  0  0
 22 23  1  0  0  0
 24 25  1  0  0  0
 23 20  2  0  0  0
 23 24  1  0  0  0
 26 28  1  0  0  0
 26 30  1  0  0  0
 33 32  1  0  0  0
 30 29  1  0  0  0
 27 26  1  0  0  0
  1  2  1  0  0  0
 29 31  1  0  0  0
 14 18  1  0  0  0
M  END
> <minimizedAffinity>
-7.84311

$$$$
3MYG_EML_A_1


 33 36  0  0  0  0  0  0  0  0999 V2000
   -6.0025   29.5069   83.8077 N   0  0  0  0  0  0  0  0  0  0  0  0
   -5.5846   28.8142   84.3687 H   0  0  0  0  0  0  0  0  0  0  0  0
   -8.3413   28.2011   80.5617 C   0  0  0  0  0  0  0  0  0  0  0  0
   -4.9809   29.4654   80.9707 N   0  0  0  0  0  0  0  0  0  0  0  0
   -8.8772   28.2488   81.8267 C   0  0  0  0  0  0  0  0  0  0  0  0
   -7.0338   28.6125   80.4181 N   0  0  0  0  0  0  0  0  0  0  0  0
   -6.7610   29.0790   82.7275 C   0  0  0  0  0  0  0  0  0  0  0  0
   -6.2341   29.0470   81.4346 C   0  0  0  0  0  0  0  0  0  0  0  0
   -6.3319   28.7033   79.2349 C   0  0  0  0  0  0  0  0  0  0  0  0
   -8.0847   28.7113   82.8679 N   0  0  0  0  0  0  0  0  0  0  0  0
   -5.0830   29.2396   79.6446 C   0  0  0  0  0  0  0  0  0  0  0  0
  -10.2706   27.8042   82.1073 C   0  0  0  0  0  0  0  0  0  0  0  0
   -6.8262   28.4048   77.8319 C   0  0  0  0  0  0  0  0  0  0  0  0
   -8.0276   27.6583   76.1328 N   0  0  0  0  0  0  0  0  0  0  0  0
   -6.9406   28.3024   75.6699 N   0  0  0  0  0  0  0  0  0  0  0  0
   -6.1616   28.7732   76.6652 C   0  0  0  0  0  0  0  0  0  0  0  0
   -8.0110   27.6969   77.4662 C   0  0  0  0  0  0  0  0  0  0  0  0
   -8.7199   27.2298   75.5794 H   0  0  0  0  0  0  0  0  0  0  0  0
   -6.6086   31.7530   85.3824 S   0  0  0  0  0  0  0  0  0  0  0  0
   -5.8701   33.1134   85.1766 N   0  0  0  0  0  0  0  0  0  0  0  0
   -5.7830   30.8390   84.1649 C   0  0  0  0  0  0  0  0  0  0  0  0
   -4.8580   31.7310   83.6103 C   0  0  0  0  0  0  0  0  0  0  0  0
   -4.9396   32.9918   84.2021 C   0  0  0  0  0  0  0  0  0  0  0  0
   -4.0786   34.1846   83.8549 C   0  0  0  0  0  0  0  0  0  0  0  0
   -2.5878   33.9504   83.7196 N   0  0  0  0  0  0  0  0  0  0  0  0
   -1.6631   34.2542   84.8355 C   0  0  0  0  0  0  0  0  0  0  0  0
   -2.2663   35.0532   85.9389 C   0  0  0  0  0  0  0  0  0  0  0  0
   -0.4457   35.1048   84.3749 C   0  0  0  0  0  0  0  0  0  0  0  0
   -1.3602   31.7973   84.8112 O   0  0  0  0  0  0  0  0  0  0  0  0
   -1.2546   32.9851   85.6184 C   0  0  0  0  0  0  0  0  0  0  0  0
   -1.0964   31.0253   85.3359 H   0  0  0  0  0  0  0  0  0  0  0  0
   -2.0401   34.0884   82.3681 C   0  0  0  0  0  0  0  0  0  0  0  0
   -2.0106   32.9331   81.4100 C   0  0  0  0  0  0  0  0  0  0  0  0
 13  9  1  0  0  0
 13 16  1  0  0  0
  1  7  1  0  0  0
  1 21  1  0  0  0
 19 20  1  0  0  0
  3  5  2  0  0  0
  4  8  2  0  0  0
  5 12  1  0  0  0
  6  3  1  0  0  0
 14 15  1  0  0  0
  7 10  2  0  0  0
 15 16  2  0  0  0
  8  6  1  0  0  0
  8  7  1  0  0  0
  9  6  1  0  0  0
 10  5  1  0  0  0
 25 32  1  0  0  0
 25 26  1  0  0  0
 11  4  1  0  0  0
 11  9  2  0  0  0
 17 13  2  0  0  0
 17 14  1  0  0  0
 21 19  1  0  0  0
 21 22  2  0  0  0
 22 23  1  0  0  0
 24 25  1  0  0  0
 23 20  2  0  0  0
 23 24  1  0  0  0
 26 28  1  0  0  0
 26 30  1  0  0  0
 33 32  1  0  0  0
 30 29  1  0  0  0
 27 26  1  0  0  0
  1  2  1  0  0  0
 29 31  1  0  0  0
 14 18  1  0  0  0
M  END
> <minimizedAffinity>
-7.67872

$$$$
3MYG_EML_A_1


 33 36  0  0  0  0  0  0  0  0999 V2000
   -6.6303   29.2021   84.4891 N   0  0  0  0  0  0  0  0  0  0  0  0
   -6.2287   29.0741   85.3788 H   0  0  0  0  0  0  0  0  0  0  0  0
   -4.7931   32.0237   81.9642 C   0  0  0  0  0  0  0  0  0  0  0  0
   -6.0063   28.6403   81.5927 N   0  0  0  0  0  0  0  0  0  0  0  0
   -5.0052   32.3157   83.2907 C   0  0  0  0  0  0  0  0  0  0  0  0
   -5.1894   30.7792   81.5243 N   0  0  0  0  0  0  0  0  0  0  0  0
   -6.0256   30.1218   83.6443 C   0  0  0  0  0  0  0  0  0  0  0  0
   -5.7853   29.8282   82.3003 C   0  0  0  0  0  0  0  0  0  0  0  0
   -5.0112   30.2665   80.2570 C   0  0  0  0  0  0  0  0  0  0  0  0
   -5.5882   31.3501   84.0994 N   0  0  0  0  0  0  0  0  0  0  0  0
   -5.5280   28.9491   80.3697 C   0  0  0  0  0  0  0  0  0  0  0  0
   -4.6427   33.6379   83.8722 C   0  0  0  0  0  0  0  0  0  0  0  0
   -4.3264   30.9230   79.0730 C   0  0  0  0  0  0  0  0  0  0  0  0
   -3.0439   32.2342   77.8387 N   0  0  0  0  0  0  0  0  0  0  0  0
   -3.7738   31.4337   77.0403 N   0  0  0  0  0  0  0  0  0  0  0  0
   -4.5858   30.6151   77.7401 C   0  0  0  0  0  0  0  0  0  0  0  0
   -3.3413   31.9560   79.1091 C   0  0  0  0  0  0  0  0  0  0  0  0
   -2.3978   32.9124   77.5356 H   0  0  0  0  0  0  0  0  0  0  0  0
   -9.3462   29.0238   83.7938 S   0  0  0  0  0  0  0  0  0  0  0  0
  -10.0517   27.6416   83.6192 N   0  0  0  0  0  0  0  0  0  0  0  0
   -7.7614   28.4430   84.1817 C   0  0  0  0  0  0  0  0  0  0  0  0
   -7.8668   27.0483   84.1317 C   0  0  0  0  0  0  0  0  0  0  0  0
   -9.1630   26.6407   83.8156 C   0  0  0  0  0  0  0  0  0  0  0  0
   -9.6235   25.2089   83.6648 C   0  0  0  0  0  0  0  0  0  0  0  0
   -9.8873   24.7075   82.2596 N   0  0  0  0  0  0  0  0  0  0  0  0
   -8.7948   24.6152   81.2645 C   0  0  0  0  0  0  0  0  0  0  0  0
   -9.0469   23.6515   80.1565 C   0  0  0  0  0  0  0  0  0  0  0  0
   -7.4629   24.1226   81.8980 C   0  0  0  0  0  0  0  0  0  0  0  0
   -8.9889   25.7390   79.0672 O   0  0  0  0  0  0  0  0  0  0  0  0
   -8.6332   25.9199   80.4508 C   0  0  0  0  0  0  0  0  0  0  0  0
   -8.8746   26.5768   78.5918 H   0  0  0  0  0  0  0  0  0  0  0  0
  -11.2269   24.9711   81.7289 C   0  0  0  0  0  0  0  0  0  0  0  0
  -12.3395   23.9734   81.8714 C   0  0  0  0  0  0  0  0  0  0  0  0
 13  9  1  0  0  0
 13 16  1  0  0  0
  1  7  1  0  0  0
  1 21  1  0  0  0
 19 20  1  0  0  0
  3  5  2  0  0  0
  4  8  2  0  0  0
  5 12  1  0  0  0
  6  3  1  0  0  0
 14 15  1  0  0  0
  7 10  2  0  0  0
 15 16  2  0  0  0
  8  6  1  0  0  0
  8  7  1  0  0  0
  9  6  1  0  0  0
 10  5  1  0  0  0
 25 32  1  0  0  0
 25 26  1  0  0  0
 11  4  1  0  0  0
 11  9  2  0  0  0
 17 13  2  0  0  0
 17 14  1  0  0  0
 21 19  1  0  0  0
 21 22  2  0  0  0
 22 23  1  0  0  0
 24 25  1  0  0  0
 23 20  2  0  0  0
 23 24  1  0  0  0
 26 28  1  0  0  0
 26 30  1  0  0  0
 33 32  1  0  0  0
 30 29  1  0  0  0
 27 26  1  0  0  0
  1  2  1  0  0  0
 29 31  1  0  0  0
 14 18  1  0  0  0
M  END
> <minimizedAffinity>
-7.61643

$$$$
3MYG_EML_A_1


 33 36  0  0  0  0  0  0  0  0999 V2000
   -2.8670   32.5687   79.6205 N   0  0  0  0  0  0  0  0  0  0  0  0
   -2.4203   32.8915   78.8047 H   0  0  0  0  0  0  0  0  0  0  0  0
   -5.6257   29.4131   79.2427 C   0  0  0  0  0  0  0  0  0  0  0  0
   -3.8701   31.5869   76.9515 N   0  0  0  0  0  0  0  0  0  0  0  0
   -5.2441   29.8541   80.4875 C   0  0  0  0  0  0  0  0  0  0  0  0
   -5.0815   30.0591   78.1538 N   0  0  0  0  0  0  0  0  0  0  0  0
   -3.7757   31.5296   79.4797 C   0  0  0  0  0  0  0  0  0  0  0  0
   -4.1873   31.0875   78.2205 C   0  0  0  0  0  0  0  0  0  0  0  0
   -5.3777   29.8173   76.8292 C   0  0  0  0  0  0  0  0  0  0  0  0
   -4.3539   30.9154   80.5731 N   0  0  0  0  0  0  0  0  0  0  0  0
   -4.6059   30.7934   76.1459 C   0  0  0  0  0  0  0  0  0  0  0  0
   -5.7458   29.2153   81.7358 C   0  0  0  0  0  0  0  0  0  0  0  0
   -6.3728   28.8220   76.2626 C   0  0  0  0  0  0  0  0  0  0  0  0
   -8.2182   27.6626   75.8916 N   0  0  0  0  0  0  0  0  0  0  0  0
   -7.2317   27.2094   75.0966 N   0  0  0  0  0  0  0  0  0  0  0  0
   -6.0742   27.8750   75.2865 C   0  0  0  0  0  0  0  0  0  0  0  0
   -7.7435   28.6666   76.6309 C   0  0  0  0  0  0  0  0  0  0  0  0
   -9.1376   27.3117   75.9226 H   0  0  0  0  0  0  0  0  0  0  0  0
   -3.3704   33.0832   82.3359 S   0  0  0  0  0  0  0  0  0  0  0  0
   -2.4628   34.0485   83.1624 N   0  0  0  0  0  0  0  0  0  0  0  0
   -2.5337   33.1944   80.8236 C   0  0  0  0  0  0  0  0  0  0  0  0
   -1.4597   34.0576   81.0690 C   0  0  0  0  0  0  0  0  0  0  0  0
   -1.4564   34.5141   82.3873 C   0  0  0  0  0  0  0  0  0  0  0  0
   -0.4325   35.4460   82.9937 C   0  0  0  0  0  0  0  0  0  0  0  0
   -0.3069   36.8295   82.3890 N   0  0  0  0  0  0  0  0  0  0  0  0
    1.0099   37.4975   82.2785 C   0  0  0  0  0  0  0  0  0  0  0  0
    1.7846   37.5522   83.5499 C   0  0  0  0  0  0  0  0  0  0  0  0
    0.8792   38.9870   81.8514 C   0  0  0  0  0  0  0  0  0  0  0  0
    1.3902   36.2566   80.1704 O   0  0  0  0  0  0  0  0  0  0  0  0
    1.9987   36.6989   81.3983 C   0  0  0  0  0  0  0  0  0  0  0  0
    2.0400   35.7612   79.6476 H   0  0  0  0  0  0  0  0  0  0  0  0
   -1.4670   37.7076   82.5579 C   0  0  0  0  0  0  0  0  0  0  0  0
   -2.1345   37.8809   83.8914 C   0  0  0  0  0  0  0  0  0  0  0  0
 13  9  1  0  0  0
 13 16  1  0  0  0
  1  7  1  0  0  0
  1 21  1  0  0  0
 19 20  1  0  0  0
  3  5  2  0  0  0
  4  8  2  0  0  0
  5 12  1  0  0  0
  6  3  1  0  0  0
 14 15  1  0  0  0
  7 10  2  0  0  0
 15 16  2  0  0  0
  8  6  1  0  0  0
  8  7  1  0  0  0
  9  6  1  0  0  0
 10  5  1  0  0  0
 25 32  1  0  0  0
 25 26  1  0  0  0
 11  4  1  0  0  0
 11  9  2  0  0  0
 17 13  2  0  0  0
 17 14  1  0  0  0
 21 19  1  0  0  0
 21 22  2  0  0  0
 22 23  1  0  0  0
 24 25  1  0  0  0
 23 20  2  0  0  0
 23 24  1  0  0  0
 26 28  1  0  0  0
 26 30  1  0  0  0
 33 32  1  0  0  0
 30 29  1  0  0  0
 27 26  1  0  0  0
  1  2  1  0  0  0
 29 31  1  0  0  0
 14 18  1  0  0  0
M  END
> <minimizedAffinity>
-7.57387

$$$$
3MYG_EML_A_1


 33 36  0  0  0  0  0  0  0  0999 V2000
   -5.2872   30.2817   82.6072 N   0  0  0  0  0  0  0  0  0  0  0  0
   -4.3420   30.4734   82.4098 H   0  0  0  0  0  0  0  0  0  0  0  0
   -7.4038   27.8454   79.9062 C   0  0  0  0  0  0  0  0  0  0  0  0
   -4.9526   30.4846   79.6171 N   0  0  0  0  0  0  0  0  0  0  0  0
   -7.6362   27.7456   81.2574 C   0  0  0  0  0  0  0  0  0  0  0  0
   -6.4756   28.7779   79.4960 N   0  0  0  0  0  0  0  0  0  0  0  0
   -5.9773   29.4856   81.7043 C   0  0  0  0  0  0  0  0  0  0  0  0
   -5.7654   29.5933   80.3281 C   0  0  0  0  0  0  0  0  0  0  0  0
   -6.1435   29.0805   78.1926 C   0  0  0  0  0  0  0  0  0  0  0  0
   -6.9398   28.5848   82.1158 N   0  0  0  0  0  0  0  0  0  0  0  0
   -5.2098   30.1398   78.3385 C   0  0  0  0  0  0  0  0  0  0  0  0
   -8.5968   26.7557   81.8188 C   0  0  0  0  0  0  0  0  0  0  0  0
   -6.7262   28.4926   76.9211 C   0  0  0  0  0  0  0  0  0  0  0  0
   -8.1346   27.6597   75.4345 N   0  0  0  0  0  0  0  0  0  0  0  0
   -6.8899   27.6680   74.9233 N   0  0  0  0  0  0  0  0  0  0  0  0
   -5.9825   28.1583   75.7924 C   0  0  0  0  0  0  0  0  0  0  0  0
   -8.0929   28.1660   76.6681 C   0  0  0  0  0  0  0  0  0  0  0  0
   -8.9419   27.3341   74.9746 H   0  0  0  0  0  0  0  0  0  0  0  0
   -5.4644   32.3788   84.4681 S   0  0  0  0  0  0  0  0  0  0  0  0
   -6.3810   32.2726   85.7279 N   0  0  0  0  0  0  0  0  0  0  0  0
   -5.8228   30.8335   83.7730 C   0  0  0  0  0  0  0  0  0  0  0  0
   -6.7555   30.2555   84.6417 C   0  0  0  0  0  0  0  0  0  0  0  0
   -7.0398   31.0910   85.7223 C   0  0  0  0  0  0  0  0  0  0  0  0
   -8.0120   30.7861   86.8388 C   0  0  0  0  0  0  0  0  0  0  0  0
   -8.1136   29.3461   87.2986 N   0  0  0  0  0  0  0  0  0  0  0  0
   -9.3699   28.5796   87.1356 C   0  0  0  0  0  0  0  0  0  0  0  0
   -9.7853   28.3662   85.7208 C   0  0  0  0  0  0  0  0  0  0  0  0
  -10.5865   29.3009   87.7818 C   0  0  0  0  0  0  0  0  0  0  0  0
   -8.7578   26.2585   86.5302 O   0  0  0  0  0  0  0  0  0  0  0  0
   -9.2223   27.1105   87.5942 C   0  0  0  0  0  0  0  0  0  0  0  0
   -8.6783   25.3484   86.8562 H   0  0  0  0  0  0  0  0  0  0  0  0
   -7.2754   28.9809   88.4431 C   0  0  0  0  0  0  0  0  0  0  0  0
   -5.8464   28.5559   88.2673 C   0  0  0  0  0  0  0  0  0  0  0  0
 13  9  1  0  0  0
 13 16  1  0  0  0
  1  7  1  0  0  0
  1 21  1  0  0  0
 19 20  1  0  0  0
  3  5  2  0  0  0
  4  8  2  0  0  0
  5 12  1  0  0  0
  6  3  1  0  0  0
 14 15  1  0  0  0
  7 10  2  0  0  0
 15 16  2  0  0  0
  8  6  1  0  0  0
  8  7  1  0  0  0
  9  6  1  0  0  0
 10  5  1  0  0  0
 25 32  1  0  0  0
 25 26  1  0  0  0
 11  4  1  0  0  0
 11  9  2  0  0  0
 17 13  2  0  0  0
 17 14  1  0  0  0
 21 19  1  0  0  0
 21 22  2  0  0  0
 22 23  1  0  0  0
 24 25  1  0  0  0
 23 20  2  0  0  0
 23 24  1  0  0  0
 26 28  1  0  0  0
 26 30  1  0  0  0
 33 32  1  0  0  0
 30 29  1  0  0  0
 27 26  1  0  0  0
  1  2  1  0  0  0
 29 31  1  0  0  0
 14 18  1  0  0  0
M  END
> <minimizedAffinity>
-7.54942

$$$$
3MYG_EML_A_1


 33 36  0  0  0  0  0  0  0  0999 V2000
   -5.6007   30.8972   84.4147 N   0  0  0  0  0  0  0  0  0  0  0  0
   -5.2503   30.7745   85.3266 H   0  0  0  0  0  0  0  0  0  0  0  0
   -3.2496   33.0686   81.6819 C   0  0  0  0  0  0  0  0  0  0  0  0
   -4.0427   33.3583   85.1954 N   0  0  0  0  0  0  0  0  0  0  0  0
   -3.9812   31.9848   81.2579 C   0  0  0  0  0  0  0  0  0  0  0  0
   -3.3423   33.4059   83.0149 N   0  0  0  0  0  0  0  0  0  0  0  0
   -4.8211   31.6232   83.5257 C   0  0  0  0  0  0  0  0  0  0  0  0
   -4.0907   32.7389   83.9405 C   0  0  0  0  0  0  0  0  0  0  0  0
   -2.7451   34.4874   83.6268 C   0  0  0  0  0  0  0  0  0  0  0  0
   -4.7669   31.3100   82.1818 N   0  0  0  0  0  0  0  0  0  0  0  0
   -3.2218   34.4029   84.9613 C   0  0  0  0  0  0  0  0  0  0  0  0
   -3.9387   31.5112   79.8466 C   0  0  0  0  0  0  0  0  0  0  0  0
   -1.8822   35.5603   82.9896 C   0  0  0  0  0  0  0  0  0  0  0  0
   -0.2791   36.5857   81.8643 N   0  0  0  0  0  0  0  0  0  0  0  0
   -1.1024   37.4984   82.4120 N   0  0  0  0  0  0  0  0  0  0  0  0
   -2.0982   36.9295   83.1217 C   0  0  0  0  0  0  0  0  0  0  0  0
   -0.7188   35.3675   82.1846 C   0  0  0  0  0  0  0  0  0  0  0  0
    0.5156   36.7840   81.3181 H   0  0  0  0  0  0  0  0  0  0  0  0
   -8.3082   30.4723   85.0318 S   0  0  0  0  0  0  0  0  0  0  0  0
   -9.2121   29.5627   84.1407 N   0  0  0  0  0  0  0  0  0  0  0  0
   -6.8412   30.3260   84.1230 C   0  0  0  0  0  0  0  0  0  0  0  0
   -7.1687   29.5008   83.0411 C   0  0  0  0  0  0  0  0  0  0  0  0
   -8.5025   29.0945   83.0883 C   0  0  0  0  0  0  0  0  0  0  0  0
   -9.1908   28.2129   82.0716 C   0  0  0  0  0  0  0  0  0  0  0  0
   -8.3111   27.4667   81.0892 N   0  0  0  0  0  0  0  0  0  0  0  0
   -8.0620   27.9996   79.7304 C   0  0  0  0  0  0  0  0  0  0  0  0
   -6.6603   28.4418   79.4865 C   0  0  0  0  0  0  0  0  0  0  0  0
   -8.9149   29.2646   79.4297 C   0  0  0  0  0  0  0  0  0  0  0  0
   -8.2231   27.4722   77.3170 O   0  0  0  0  0  0  0  0  0  0  0  0
   -8.1903   26.9091   78.6420 C   0  0  0  0  0  0  0  0  0  0  0  0
   -8.3039   26.7590   76.6646 H   0  0  0  0  0  0  0  0  0  0  0  0
   -8.2953   26.0085   81.2265 C   0  0  0  0  0  0  0  0  0  0  0  0
   -7.3121   25.3137   82.1232 C   0  0  0  0  0  0  0  0  0  0  0  0
 13  9  1  0  0  0
 13 16  1  0  0  0
  1  7  1  0  0  0
  1 21  1  0  0  0
 19 20  1  0  0  0
  3  5  2  0  0  0
  4  8  2  0  0  0
  5 12  1  0  0  0
  6  3  1  0  0  0
 14 15  1  0  0  0
  7 10  2  0  0  0
 15 16  2  0  0  0
  8  6  1  0  0  0
  8  7  1  0  0  0
  9  6  1  0  0  0
 10  5  1  0  0  0
 25 32  1  0  0  0
 25 26  1  0  0  0
 11  4  1  0  0  0
 11  9  2  0  0  0
 17 13  2  0  0  0
 17 14  1  0  0  0
 21 19  1  0  0  0
 21 22  2  0  0  0
 22 23  1  0  0  0
 24 25  1  0  0  0
 23 20  2  0  0  0
 23 24  1  0  0  0
 26 28  1  0  0  0
 26 30  1  0  0  0
 33 32  1  0  0  0
 30 29  1  0  0  0
 27 26  1  0  0  0
  1  2  1  0  0  0
 29 31  1  0  0  0
 14 18  1  0  0  0
M  END
> <minimizedAffinity>
-7.11978

$$$$
3MYG_EML_A_1


 33 36  0  0  0  0  0  0  0  0999 V2000
   -5.5834   29.7181   80.9235 N   0  0  0  0  0  0  0  0  0  0  0  0
   -4.8845   29.7711   80.2322 H   0  0  0  0  0  0  0  0  0  0  0  0
   -5.1448   32.1075   84.3601 C   0  0  0  0  0  0  0  0  0  0  0  0
   -3.5263   31.9129   81.1352 N   0  0  0  0  0  0  0  0  0  0  0  0
   -6.0642   31.0858   84.3396 C   0  0  0  0  0  0  0  0  0  0  0  0
   -4.3816   32.2879   83.2268 N   0  0  0  0  0  0  0  0  0  0  0  0
   -5.4270   30.5142   82.0491 C   0  0  0  0  0  0  0  0  0  0  0  0
   -4.4812   31.5410   82.0893 C   0  0  0  0  0  0  0  0  0  0  0  0
   -3.3665   33.2065   83.0640 C   0  0  0  0  0  0  0  0  0  0  0  0
   -6.1613   30.3010   83.1990 N   0  0  0  0  0  0  0  0  0  0  0  0
   -2.8800   32.9176   81.7619 C   0  0  0  0  0  0  0  0  0  0  0  0
   -6.9626   30.8134   85.4958 C   0  0  0  0  0  0  0  0  0  0  0  0
   -2.8369   34.2012   84.0798 C   0  0  0  0  0  0  0  0  0  0  0  0
   -1.8777   35.0852   85.8647 N   0  0  0  0  0  0  0  0  0  0  0  0
   -2.3901   36.0631   85.0954 N   0  0  0  0  0  0  0  0  0  0  0  0
   -2.9989   35.5813   83.9925 C   0  0  0  0  0  0  0  0  0  0  0  0
   -2.1199   33.9108   85.2799 C   0  0  0  0  0  0  0  0  0  0  0  0
   -1.4031   35.2148   86.7175 H   0  0  0  0  0  0  0  0  0  0  0  0
   -8.0623   29.1453   79.7324 S   0  0  0  0  0  0  0  0  0  0  0  0
   -8.7833   27.7809   79.9716 N   0  0  0  0  0  0  0  0  0  0  0  0
   -6.6504   28.8478   80.6902 C   0  0  0  0  0  0  0  0  0  0  0  0
   -6.8198   27.5509   81.1882 C   0  0  0  0  0  0  0  0  0  0  0  0
   -8.0249   26.9897   80.7648 C   0  0  0  0  0  0  0  0  0  0  0  0
   -8.5167   25.6013   81.1039 C   0  0  0  0  0  0  0  0  0  0  0  0
  -10.0051   25.4257   81.3257 N   0  0  0  0  0  0  0  0  0  0  0  0
  -10.6225   25.7293   82.6369 C   0  0  0  0  0  0  0  0  0  0  0  0
   -9.6721   25.7244   83.7843 C   0  0  0  0  0  0  0  0  0  0  0  0
  -11.7009   24.6822   83.0352 C   0  0  0  0  0  0  0  0  0  0  0  0
  -11.3910   27.7413   81.4163 O   0  0  0  0  0  0  0  0  0  0  0  0
  -11.1325   27.1864   82.7198 C   0  0  0  0  0  0  0  0  0  0  0  0
  -11.7081   28.6532   81.5102 H   0  0  0  0  0  0  0  0  0  0  0  0
  -10.6488   24.3747   80.5340 C   0  0  0  0  0  0  0  0  0  0  0  0
   -9.8746   23.5449   79.5514 C   0  0  0  0  0  0  0  0  0  0  0  0
 13  9  1  0  0  0
 13 16  1  0  0  0
  1  7  1  0  0  0
  1 21  1  0  0  0
 19 20  1  0  0  0
  3  5  2  0  0  0
  4  8  2  0  0  0
  5 12  1  0  0  0
  6  3  1  0  0  0
 14 15  1  0  0  0
  7 10  2  0  0  0
 15 16  2  0  0  0
  8  6  1  0  0  0
  8  7  1  0  0  0
  9  6  1  0  0  0
 10  5  1  0  0  0
 25 32  1  0  0  0
 25 26  1  0  0  0
 11  4  1  0  0  0
 11  9  2  0  0  0
 17 13  2  0  0  0
 17 14  1  0  0  0
 21 19  1  0  0  0
 21 22  2  0  0  0
 22 23  1  0  0  0
 24 25  1  0  0  0
 23 20  2  0  0  0
 23 24  1  0  0  0
 26 28  1  0  0  0
 26 30  1  0  0  0
 33 32  1  0  0  0
 30 29  1  0  0  0
 27 26  1  0  0  0
  1  2  1  0  0  0
 29 31  1  0  0  0
 14 18  1  0  0  0
M  END
> <minimizedAffinity>
-7.11047

$$$$
