2CEX_DAN_B_1307


 26 26  0  0  0  0  0  0  0  0999 V2000
   58.7142    5.4161   29.7568 C   0  0  0  0  0  0  0  0  0  0  0  0
   57.3823    5.2040   29.8021 C   0  0  0  0  0  0  0  0  0  0  0  0
   56.4906    5.8579   28.7790 C   0  0  0  0  0  0  0  0  0  0  0  0
   57.2693    5.9208   27.4229 C   0  0  0  0  0  0  0  0  0  0  0  0
   58.6266    6.6393   27.6044 C   0  0  0  0  0  0  0  0  0  0  0  0
   55.2979    5.0428   28.6824 O   0  0  0  0  0  0  0  0  0  0  0  0
   59.3674    6.2398   28.7692 O   0  0  0  0  0  0  0  0  0  0  0  0
   55.5446    4.1360   28.4421 H   0  0  0  0  0  0  0  0  0  0  0  0
   55.5431    6.0609   25.5883 C   0  0  0  0  0  0  0  0  0  0  0  0
   54.8651    7.0285   24.6655 C   0  0  0  0  0  0  0  0  0  0  0  0
   56.5371    6.5845   26.3380 N   0  0  0  0  0  0  0  0  0  0  0  0
   55.1796    4.8945   25.6521 O   0  0  0  0  0  0  0  0  0  0  0  0
   56.7987    7.5116   26.1347 H   0  0  0  0  0  0  0  0  0  0  0  0
   59.6446    4.7267   30.6143 C   0  0  0  0  0  0  0  0  0  0  0  0
   59.4665    4.4875   31.7873 O   0  0  0  0  0  0  0  0  0  0  0  0
   60.7401    4.4342   30.1220 O   0  0  0  0  0  0  0  0  0  0  0  0
   60.9080    4.6072   29.2165 H   0  0  0  0  0  0  0  0  0  0  0  0
   59.6066    6.5459   26.4149 C   0  0  0  0  0  0  0  0  0  0  0  0
   59.1149    5.7469   25.2914 O   0  0  0  0  0  0  0  0  0  0  0  0
   59.0096    4.8244   25.5723 H   0  0  0  0  0  0  0  0  0  0  0  0
   60.9949    6.0721   26.8895 C   0  0  0  0  0  0  0  0  0  0  0  0
   62.0504    6.8857   26.3459 O   0  0  0  0  0  0  0  0  0  0  0  0
   62.0523    6.8091   25.3789 H   0  0  0  0  0  0  0  0  0  0  0  0
   61.2502    4.6150   26.4834 C   0  0  0  0  0  0  0  0  0  0  0  0
   60.4860    3.6769   27.2577 O   0  0  0  0  0  0  0  0  0  0  0  0
   60.7366    3.7489   28.1920 H   0  0  0  0  0  0  0  0  0  0  0  0
 14  1  1  0  0  0
 14 15  2  0  0  0
 14 16  1  0  0  0
  1  2  2  0  0  0
  1  7  1  0  0  0
  2  3  1  0  0  0
  3  4  1  0  0  0
  3  6  1  0  0  0
  4  5  1  0  0  0
  4 11  1  0  0  0
  5 18  1  0  0  0
  5  7  1  0  0  0
 18 21  1  0  0  0
 18 19  1  0  0  0
 21 24  1  0  0  0
 21 22  1  0  0  0
 24 25  1  0  0  0
  9 10  1  0  0  0
  9 11  1  0  0  0
  9 12  2  0  0  0
 11 13  1  0  0  0
 16 17  1  0  0  0
  6  8  1  0  0  0
 19 20  1  0  0  0
 22 23  1  0  0  0
 25 26  1  0  0  0
M  END
> <minimizedAffinity>
-7.61565

$$$$
2CEX_DAN_B_1307


 26 26  0  0  0  0  0  0  0  0999 V2000
   58.9372    5.7230   29.5549 C   0  0  0  0  0  0  0  0  0  0  0  0
   57.7043    6.2634   29.4605 C   0  0  0  0  0  0  0  0  0  0  0  0
   57.5006    7.5107   28.6406 C   0  0  0  0  0  0  0  0  0  0  0  0
   58.4702    7.4511   27.4136 C   0  0  0  0  0  0  0  0  0  0  0  0
   59.9313    7.2539   27.8802 C   0  0  0  0  0  0  0  0  0  0  0  0
   56.1111    7.5210   28.2340 O   0  0  0  0  0  0  0  0  0  0  0  0
   60.1067    6.2615   28.9047 O   0  0  0  0  0  0  0  0  0  0  0  0
   55.9125    6.7097   27.7408 H   0  0  0  0  0  0  0  0  0  0  0  0
   57.4911    8.9116   25.6043 C   0  0  0  0  0  0  0  0  0  0  0  0
   57.5969   10.2751   24.9904 C   0  0  0  0  0  0  0  0  0  0  0  0
   58.4181    8.6339   26.5465 N   0  0  0  0  0  0  0  0  0  0  0  0
   56.6011    8.1409   25.2720 O   0  0  0  0  0  0  0  0  0  0  0  0
   59.1365    9.2967   26.6644 H   0  0  0  0  0  0  0  0  0  0  0  0
   59.1904    4.4642   30.2087 C   0  0  0  0  0  0  0  0  0  0  0  0
   59.6408    4.3360   31.3248 O   0  0  0  0  0  0  0  0  0  0  0  0
   59.0056    3.4434   29.5365 O   0  0  0  0  0  0  0  0  0  0  0  0
   58.6581    3.5103   28.6689 H   0  0  0  0  0  0  0  0  0  0  0  0
   60.9561    6.9206   26.7745 C   0  0  0  0  0  0  0  0  0  0  0  0
   60.3583    6.4843   25.5116 O   0  0  0  0  0  0  0  0  0  0  0  0
   59.8902    5.6458   25.6481 H   0  0  0  0  0  0  0  0  0  0  0  0
   62.0040    5.9134   27.2893 C   0  0  0  0  0  0  0  0  0  0  0  0
   63.3469    6.3666   27.0391 O   0  0  0  0  0  0  0  0  0  0  0  0
   63.4894    6.4430   26.0826 H   0  0  0  0  0  0  0  0  0  0  0  0
   61.8253    4.5420   26.6254 C   0  0  0  0  0  0  0  0  0  0  0  0
   60.6674    3.8375   27.1011 O   0  0  0  0  0  0  0  0  0  0  0  0
   60.7581    3.6715   28.0525 H   0  0  0  0  0  0  0  0  0  0  0  0
 14  1  1  0  0  0
 14 15  2  0  0  0
 14 16  1  0  0  0
  1  2  2  0  0  0
  1  7  1  0  0  0
  2  3  1  0  0  0
  3  4  1  0  0  0
  3  6  1  0  0  0
  4  5  1  0  0  0
  4 11  1  0  0  0
  5 18  1  0  0  0
  5  7  1  0  0  0
 18 21  1  0  0  0
 18 19  1  0  0  0
 21 24  1  0  0  0
 21 22  1  0  0  0
 24 25  1  0  0  0
  9 10  1  0  0  0
  9 11  1  0  0  0
  9 12  2  0  0  0
 11 13  1  0  0  0
 16 17  1  0  0  0
  6  8  1  0  0  0
 19 20  1  0  0  0
 22 23  1  0  0  0
 25 26  1  0  0  0
M  END
> <minimizedAffinity>
-7.58413

$$$$
2CEX_DAN_B_1307


 26 26  0  0  0  0  0  0  0  0999 V2000
   58.9812    8.5310   26.3369 C   0  0  0  0  0  0  0  0  0  0  0  0
   57.6440    8.5283   26.5179 C   0  0  0  0  0  0  0  0  0  0  0  0
   56.9210    7.2187   26.6966 C   0  0  0  0  0  0  0  0  0  0  0  0
   57.8611    6.2466   27.4843 C   0  0  0  0  0  0  0  0  0  0  0  0
   59.2241    6.1037   26.7679 C   0  0  0  0  0  0  0  0  0  0  0  0
   55.7055    7.5090   27.4276 O   0  0  0  0  0  0  0  0  0  0  0  0
   59.7945    7.3401   26.3082 O   0  0  0  0  0  0  0  0  0  0  0  0
   55.9288    7.9337   28.2706 H   0  0  0  0  0  0  0  0  0  0  0  0
   56.4749    4.5104   28.6797 C   0  0  0  0  0  0  0  0  0  0  0  0
   55.9324    3.1199   28.5395 C   0  0  0  0  0  0  0  0  0  0  0  0
   57.3044    4.9044   27.6892 N   0  0  0  0  0  0  0  0  0  0  0  0
   56.1483    5.2196   29.6214 O   0  0  0  0  0  0  0  0  0  0  0  0
   57.5635    4.2168   27.0339 H   0  0  0  0  0  0  0  0  0  0  0  0
   59.7607    9.7420   26.2896 C   0  0  0  0  0  0  0  0  0  0  0  0
   59.3664   10.8096   25.8776 O   0  0  0  0  0  0  0  0  0  0  0  0
   60.9475    9.6507   26.6227 O   0  0  0  0  0  0  0  0  0  0  0  0
   61.2823    8.8372   26.9455 H   0  0  0  0  0  0  0  0  0  0  0  0
   60.3348    5.3837   27.5629 C   0  0  0  0  0  0  0  0  0  0  0  0
   60.0671    3.9685   27.8239 O   0  0  0  0  0  0  0  0  0  0  0  0
   59.2883    3.8870   28.3963 H   0  0  0  0  0  0  0  0  0  0  0  0
   60.6621    6.1524   28.8588 C   0  0  0  0  0  0  0  0  0  0  0  0
   62.0812    6.2424   29.0812 O   0  0  0  0  0  0  0  0  0  0  0  0
   62.4481    5.3515   29.1929 H   0  0  0  0  0  0  0  0  0  0  0  0
   60.0239    5.4760   30.0788 C   0  0  0  0  0  0  0  0  0  0  0  0
   60.8665    4.4712   30.6653 O   0  0  0  0  0  0  0  0  0  0  0  0
   61.0308    3.7685   30.0171 H   0  0  0  0  0  0  0  0  0  0  0  0
 14  1  1  0  0  0
 14 15  2  0  0  0
 14 16  1  0  0  0
  1  2  2  0  0  0
  1  7  1  0  0  0
  2  3  1  0  0  0
  3  4  1  0  0  0
  3  6  1  0  0  0
  4  5  1  0  0  0
  4 11  1  0  0  0
  5 18  1  0  0  0
  5  7  1  0  0  0
 18 21  1  0  0  0
 18 19  1  0  0  0
 21 24  1  0  0  0
 21 22  1  0  0  0
 24 25  1  0  0  0
  9 10  1  0  0  0
  9 11  1  0  0  0
  9 12  2  0  0  0
 11 13  1  0  0  0
 16 17  1  0  0  0
  6  8  1  0  0  0
 19 20  1  0  0  0
 22 23  1  0  0  0
 25 26  1  0  0  0
M  END
> <minimizedAffinity>
-7.50857

$$$$
2CEX_DAN_B_1307


 26 26  0  0  0  0  0  0  0  0999 V2000
   57.9871    8.6926   25.9458 C   0  0  0  0  0  0  0  0  0  0  0  0
   56.8994    8.3411   26.6629 C   0  0  0  0  0  0  0  0  0  0  0  0
   56.6990    6.8991   27.0503 C   0  0  0  0  0  0  0  0  0  0  0  0
   58.1048    6.2678   27.3228 C   0  0  0  0  0  0  0  0  0  0  0  0
   59.0337    6.4526   26.1003 C   0  0  0  0  0  0  0  0  0  0  0  0
   55.8645    6.8965   28.2334 O   0  0  0  0  0  0  0  0  0  0  0  0
   59.0053    7.7655   25.5165 O   0  0  0  0  0  0  0  0  0  0  0  0
   56.2913    7.4179   28.9312 H   0  0  0  0  0  0  0  0  0  0  0  0
   57.8117    4.3000   28.8742 C   0  0  0  0  0  0  0  0  0  0  0  0
   57.6745    2.8072   28.8877 C   0  0  0  0  0  0  0  0  0  0  0  0
   58.0687    4.8409   27.6635 N   0  0  0  0  0  0  0  0  0  0  0  0
   57.6687    4.9527   29.8989 O   0  0  0  0  0  0  0  0  0  0  0  0
   58.2514    4.2097   26.9305 H   0  0  0  0  0  0  0  0  0  0  0  0
   58.3176   10.0633   25.6490 C   0  0  0  0  0  0  0  0  0  0  0  0
   57.6457   10.8130   24.9769 O   0  0  0  0  0  0  0  0  0  0  0  0
   59.4145   10.4684   26.0497 O   0  0  0  0  0  0  0  0  0  0  0  0
   59.9574    9.9112   26.5719 H   0  0  0  0  0  0  0  0  0  0  0  0
   60.5226    6.1100   26.3232 C   0  0  0  0  0  0  0  0  0  0  0  0
   60.7965    4.6789   26.4619 O   0  0  0  0  0  0  0  0  0  0  0  0
   60.3636    4.3429   27.2623 H   0  0  0  0  0  0  0  0  0  0  0  0
   61.0965    6.9192   27.5035 C   0  0  0  0  0  0  0  0  0  0  0  0
   61.2518    8.3107   27.1703 O   0  0  0  0  0  0  0  0  0  0  0  0
   61.8881    8.4002   26.4437 H   0  0  0  0  0  0  0  0  0  0  0  0
   62.4620    6.3711   27.9374 C   0  0  0  0  0  0  0  0  0  0  0  0
   63.3649    6.1845   26.8359 O   0  0  0  0  0  0  0  0  0  0  0  0
   62.9926    5.5351   26.2190 H   0  0  0  0  0  0  0  0  0  0  0  0
 14  1  1  0  0  0
 14 15  2  0  0  0
 14 16  1  0  0  0
  1  2  2  0  0  0
  1  7  1  0  0  0
  2  3  1  0  0  0
  3  4  1  0  0  0
  3  6  1  0  0  0
  4  5  1  0  0  0
  4 11  1  0  0  0
  5 18  1  0  0  0
  5  7  1  0  0  0
 18 21  1  0  0  0
 18 19  1  0  0  0
 21 24  1  0  0  0
 21 22  1  0  0  0
 24 25  1  0  0  0
  9 10  1  0  0  0
  9 11  1  0  0  0
  9 12  2  0  0  0
 11 13  1  0  0  0
 16 17  1  0  0  0
  6  8  1  0  0  0
 19 20  1  0  0  0
 22 23  1  0  0  0
 25 26  1  0  0  0
M  END
> <minimizedAffinity>
-7.46513

$$$$
2CEX_DAN_B_1307


 26 26  0  0  0  0  0  0  0  0999 V2000
   57.6589    5.7794   28.6825 C   0  0  0  0  0  0  0  0  0  0  0  0
   58.4566    5.1565   29.5750 C   0  0  0  0  0  0  0  0  0  0  0  0
   59.8423    4.7318   29.1637 C   0  0  0  0  0  0  0  0  0  0  0  0
   60.4009    5.7964   28.1618 C   0  0  0  0  0  0  0  0  0  0  0  0
   59.4355    5.9837   26.9682 C   0  0  0  0  0  0  0  0  0  0  0  0
   60.6332    4.6585   30.3741 O   0  0  0  0  0  0  0  0  0  0  0  0
   58.0477    6.0845   27.3274 O   0  0  0  0  0  0  0  0  0  0  0  0
   60.6205    5.5191   30.8214 H   0  0  0  0  0  0  0  0  0  0  0  0
   62.8409    6.2544   27.7127 C   0  0  0  0  0  0  0  0  0  0  0  0
   64.1032    5.6046   27.2314 C   0  0  0  0  0  0  0  0  0  0  0  0
   61.7338    5.4848   27.6329 N   0  0  0  0  0  0  0  0  0  0  0  0
   62.8527    7.3914   28.1639 O   0  0  0  0  0  0  0  0  0  0  0  0
   61.8317    4.6215   27.1699 H   0  0  0  0  0  0  0  0  0  0  0  0
   56.3752    6.3314   29.0339 C   0  0  0  0  0  0  0  0  0  0  0  0
   55.6332    5.8873   29.8808 O   0  0  0  0  0  0  0  0  0  0  0  0
   55.9765    7.2839   28.3544 O   0  0  0  0  0  0  0  0  0  0  0  0
   56.5281    7.6496   27.6911 H   0  0  0  0  0  0  0  0  0  0  0  0
   59.7307    7.1818   26.0401 C   0  0  0  0  0  0  0  0  0  0  0  0
   61.0731    7.1746   25.4566 O   0  0  0  0  0  0  0  0  0  0  0  0
   61.7327    7.2654   26.1620 H   0  0  0  0  0  0  0  0  0  0  0  0
   59.4253    8.5129   26.7559 C   0  0  0  0  0  0  0  0  0  0  0  0
   58.0227    8.8322   26.7117 O   0  0  0  0  0  0  0  0  0  0  0  0
   57.7466    8.9494   25.7892 H   0  0  0  0  0  0  0  0  0  0  0  0
   60.2050    9.6724   26.1227 C   0  0  0  0  0  0  0  0  0  0  0  0
   59.3884   10.8295   25.8823 O   0  0  0  0  0  0  0  0  0  0  0  0
   58.6811   10.6022   25.2587 H   0  0  0  0  0  0  0  0  0  0  0  0
 14  1  1  0  0  0
 14 15  2  0  0  0
 14 16  1  0  0  0
  1  2  2  0  0  0
  1  7  1  0  0  0
  2  3  1  0  0  0
  3  4  1  0  0  0
  3  6  1  0  0  0
  4  5  1  0  0  0
  4 11  1  0  0  0
  5 18  1  0  0  0
  5  7  1  0  0  0
 18 21  1  0  0  0
 18 19  1  0  0  0
 21 24  1  0  0  0
 21 22  1  0  0  0
 24 25  1  0  0  0
  9 10  1  0  0  0
  9 11  1  0  0  0
  9 12  2  0  0  0
 11 13  1  0  0  0
 16 17  1  0  0  0
  6  8  1  0  0  0
 19 20  1  0  0  0
 22 23  1  0  0  0
 25 26  1  0  0  0
M  END
> <minimizedAffinity>
-7.44595

$$$$
2CEX_DAN_B_1307


 26 26  0  0  0  0  0  0  0  0999 V2000
   56.9184    6.1990   27.2595 C   0  0  0  0  0  0  0  0  0  0  0  0
   56.1315    7.1666   26.7441 C   0  0  0  0  0  0  0  0  0  0  0  0
   56.7621    8.3960   26.1438 C   0  0  0  0  0  0  0  0  0  0  0  0
   58.1018    7.9702   25.4560 C   0  0  0  0  0  0  0  0  0  0  0  0
   59.0214    7.2346   26.4584 C   0  0  0  0  0  0  0  0  0  0  0  0
   55.8106    8.9317   25.1930 O   0  0  0  0  0  0  0  0  0  0  0  0
   58.3598    6.2521   27.2722 O   0  0  0  0  0  0  0  0  0  0  0  0
   55.5997    8.2552   24.5306 H   0  0  0  0  0  0  0  0  0  0  0  0
   59.5128   10.0604   25.5288 C   0  0  0  0  0  0  0  0  0  0  0  0
   60.3388   10.9674   24.6673 C   0  0  0  0  0  0  0  0  0  0  0  0
   58.8569    9.0823   24.8674 N   0  0  0  0  0  0  0  0  0  0  0  0
   59.4787   10.2071   26.7428 O   0  0  0  0  0  0  0  0  0  0  0  0
   58.8888    9.1196   23.8841 H   0  0  0  0  0  0  0  0  0  0  0  0
   56.4008    4.9398   27.7312 C   0  0  0  0  0  0  0  0  0  0  0  0
   57.0615    3.9460   27.9339 O   0  0  0  0  0  0  0  0  0  0  0  0
   55.1739    4.8568   27.8568 O   0  0  0  0  0  0  0  0  0  0  0  0
   54.6357    5.6090   27.7066 H   0  0  0  0  0  0  0  0  0  0  0  0
   60.2583    6.5348   25.8547 C   0  0  0  0  0  0  0  0  0  0  0  0
   59.9422    5.4260   24.9531 O   0  0  0  0  0  0  0  0  0  0  0  0
   59.5018    4.7197   25.4512 H   0  0  0  0  0  0  0  0  0  0  0  0
   61.2380    6.1069   26.9659 C   0  0  0  0  0  0  0  0  0  0  0  0
   62.5584    6.6349   26.7447 O   0  0  0  0  0  0  0  0  0  0  0  0
   62.9144    6.2787   25.9157 H   0  0  0  0  0  0  0  0  0  0  0  0
   61.3376    4.5788   27.0565 C   0  0  0  0  0  0  0  0  0  0  0  0
   60.1319    3.9680   27.5430 O   0  0  0  0  0  0  0  0  0  0  0  0
   59.9489    4.2844   28.4415 H   0  0  0  0  0  0  0  0  0  0  0  0
 14  1  1  0  0  0
 14 15  2  0  0  0
 14 16  1  0  0  0
  1  2  2  0  0  0
  1  7  1  0  0  0
  2  3  1  0  0  0
  3  4  1  0  0  0
  3  6  1  0  0  0
  4  5  1  0  0  0
  4 11  1  0  0  0
  5 18  1  0  0  0
  5  7  1  0  0  0
 18 21  1  0  0  0
 18 19  1  0  0  0
 21 24  1  0  0  0
 21 22  1  0  0  0
 24 25  1  0  0  0
  9 10  1  0  0  0
  9 11  1  0  0  0
  9 12  2  0  0  0
 11 13  1  0  0  0
 16 17  1  0  0  0
  6  8  1  0  0  0
 19 20  1  0  0  0
 22 23  1  0  0  0
 25 26  1  0  0  0
M  END
> <minimizedAffinity>
-7.33763

$$$$
2CEX_DAN_B_1307


 26 26  0  0  0  0  0  0  0  0999 V2000
   61.3014    7.0404   28.8755 C   0  0  0  0  0  0  0  0  0  0  0  0
   60.9842    6.2545   29.9256 C   0  0  0  0  0  0  0  0  0  0  0  0
   59.6592    5.5377   29.9438 C   0  0  0  0  0  0  0  0  0  0  0  0
   59.3043    5.1324   28.4744 C   0  0  0  0  0  0  0  0  0  0  0  0
   59.3215    6.3694   27.5465 C   0  0  0  0  0  0  0  0  0  0  0  0
   59.8210    4.3824   30.8012 O   0  0  0  0  0  0  0  0  0  0  0  0
   60.4453    7.2454   27.7329 O   0  0  0  0  0  0  0  0  0  0  0  0
   60.5437    3.8292   30.4655 H   0  0  0  0  0  0  0  0  0  0  0  0
   57.6879    3.2104   28.7162 C   0  0  0  0  0  0  0  0  0  0  0  0
   56.2361    2.8562   28.5968 C   0  0  0  0  0  0  0  0  0  0  0  0
   58.0050    4.4654   28.3306 N   0  0  0  0  0  0  0  0  0  0  0  0
   58.4958    2.4062   29.1599 O   0  0  0  0  0  0  0  0  0  0  0  0
   57.2870    4.9894   27.9073 H   0  0  0  0  0  0  0  0  0  0  0  0
   62.5964    7.6531   28.7214 C   0  0  0  0  0  0  0  0  0  0  0  0
   62.7900    8.7996   28.3851 O   0  0  0  0  0  0  0  0  0  0  0  0
   63.5788    6.9173   28.8679 O   0  0  0  0  0  0  0  0  0  0  0  0
   63.4611    6.0248   29.1277 H   0  0  0  0  0  0  0  0  0  0  0  0
   59.2440    6.0806   26.0317 C   0  0  0  0  0  0  0  0  0  0  0  0
   60.4656    6.4060   25.2939 O   0  0  0  0  0  0  0  0  0  0  0  0
   60.6234    7.3622   25.3354 H   0  0  0  0  0  0  0  0  0  0  0  0
   58.0043    6.7558   25.4116 C   0  0  0  0  0  0  0  0  0  0  0  0
   57.9750    6.6050   23.9806 O   0  0  0  0  0  0  0  0  0  0  0  0
   58.7475    7.0455   23.5932 H   0  0  0  0  0  0  0  0  0  0  0  0
   57.9683    8.2538   25.7404 C   0  0  0  0  0  0  0  0  0  0  0  0
   59.1431    8.9516   25.2974 O   0  0  0  0  0  0  0  0  0  0  0  0
   59.9226    8.5909   25.7482 H   0  0  0  0  0  0  0  0  0  0  0  0
 14  1  1  0  0  0
 14 15  2  0  0  0
 14 16  1  0  0  0
  1  2  2  0  0  0
  1  7  1  0  0  0
  2  3  1  0  0  0
  3  4  1  0  0  0
  3  6  1  0  0  0
  4  5  1  0  0  0
  4 11  1  0  0  0
  5 18  1  0  0  0
  5  7  1  0  0  0
 18 21  1  0  0  0
 18 19  1  0  0  0
 21 24  1  0  0  0
 21 22  1  0  0  0
 24 25  1  0  0  0
  9 10  1  0  0  0
  9 11  1  0  0  0
  9 12  2  0  0  0
 11 13  1  0  0  0
 16 17  1  0  0  0
  6  8  1  0  0  0
 19 20  1  0  0  0
 22 23  1  0  0  0
 25 26  1  0  0  0
M  END
> <minimizedAffinity>
-7.31421

$$$$
2CEX_DAN_B_1307


 26 26  0  0  0  0  0  0  0  0999 V2000
   57.5284    2.3433   28.8082 C   0  0  0  0  0  0  0  0  0  0  0  0
   56.3324    2.9603   28.7087 C   0  0  0  0  0  0  0  0  0  0  0  0
   56.1586    4.3413   29.2850 C   0  0  0  0  0  0  0  0  0  0  0  0
   57.5045    5.1186   29.1021 C   0  0  0  0  0  0  0  0  0  0  0  0
   58.6793    4.3336   29.7306 C   0  0  0  0  0  0  0  0  0  0  0  0
   55.0704    4.9626   28.5598 O   0  0  0  0  0  0  0  0  0  0  0  0
   58.6881    2.9269   29.4366 O   0  0  0  0  0  0  0  0  0  0  0  0
   55.2778    4.9735   27.6123 H   0  0  0  0  0  0  0  0  0  0  0  0
   56.8441    6.8910   30.7717 C   0  0  0  0  0  0  0  0  0  0  0  0
   57.1597    8.2904   31.2071 C   0  0  0  0  0  0  0  0  0  0  0  0
   57.4996    6.4730   29.6673 N   0  0  0  0  0  0  0  0  0  0  0  0
   56.0648    6.1961   31.4090 O   0  0  0  0  0  0  0  0  0  0  0  0
   58.0315    7.1499   29.1897 H   0  0  0  0  0  0  0  0  0  0  0  0
   57.8123    1.0823   28.1713 C   0  0  0  0  0  0  0  0  0  0  0  0
   58.9195    0.6491   27.9444 O   0  0  0  0  0  0  0  0  0  0  0  0
   56.8413    0.4401   27.7558 O   0  0  0  0  0  0  0  0  0  0  0  0
   55.9716    0.7499   27.9157 H   0  0  0  0  0  0  0  0  0  0  0  0
   60.0950    4.8538   29.4003 C   0  0  0  0  0  0  0  0  0  0  0  0
   60.4641    6.0827   30.1047 O   0  0  0  0  0  0  0  0  0  0  0  0
   59.8838    6.8057   29.8194 H   0  0  0  0  0  0  0  0  0  0  0  0
   60.2830    4.9899   27.8760 C   0  0  0  0  0  0  0  0  0  0  0  0
   60.5758    3.7226   27.2599 O   0  0  0  0  0  0  0  0  0  0  0  0
   61.4136    3.3796   27.6081 H   0  0  0  0  0  0  0  0  0  0  0  0
   61.4216    5.9629   27.5442 C   0  0  0  0  0  0  0  0  0  0  0  0
   62.6674    5.5953   28.1575 O   0  0  0  0  0  0  0  0  0  0  0  0
   62.5689    5.6078   29.1224 H   0  0  0  0  0  0  0  0  0  0  0  0
 14  1  1  0  0  0
 14 15  2  0  0  0
 14 16  1  0  0  0
  1  2  2  0  0  0
  1  7  1  0  0  0
  2  3  1  0  0  0
  3  4  1  0  0  0
  3  6  1  0  0  0
  4  5  1  0  0  0
  4 11  1  0  0  0
  5 18  1  0  0  0
  5  7  1  0  0  0
 18 21  1  0  0  0
 18 19  1  0  0  0
 21 24  1  0  0  0
 21 22  1  0  0  0
 24 25  1  0  0  0
  9 10  1  0  0  0
  9 11  1  0  0  0
  9 12  2  0  0  0
 11 13  1  0  0  0
 16 17  1  0  0  0
  6  8  1  0  0  0
 19 20  1  0  0  0
 22 23  1  0  0  0
 25 26  1  0  0  0
M  END
> <minimizedAffinity>
-7.31148

$$$$
2CEX_DAN_B_1307


 26 26  0  0  0  0  0  0  0  0999 V2000
   58.8283    5.6816   30.9279 C   0  0  0  0  0  0  0  0  0  0  0  0
   58.4673    6.0669   32.1698 C   0  0  0  0  0  0  0  0  0  0  0  0
   57.1749    6.8149   32.3694 C   0  0  0  0  0  0  0  0  0  0  0  0
   56.1307    6.2668   31.3407 C   0  0  0  0  0  0  0  0  0  0  0  0
   56.6808    6.3639   29.8986 C   0  0  0  0  0  0  0  0  0  0  0  0
   56.7634    6.5801   33.7375 O   0  0  0  0  0  0  0  0  0  0  0  0
   58.0431    5.9331   29.7444 O   0  0  0  0  0  0  0  0  0  0  0  0
   56.6735    5.6262   33.8889 H   0  0  0  0  0  0  0  0  0  0  0  0
   53.8351    6.7374   32.2756 C   0  0  0  0  0  0  0  0  0  0  0  0
   52.6853    7.6943   32.1781 C   0  0  0  0  0  0  0  0  0  0  0  0
   54.8292    6.9435   31.3847 N   0  0  0  0  0  0  0  0  0  0  0  0
   53.8521    5.8614   33.1293 O   0  0  0  0  0  0  0  0  0  0  0  0
   54.6628    7.6208   30.6899 H   0  0  0  0  0  0  0  0  0  0  0  0
   59.9782    4.8524   30.6707 C   0  0  0  0  0  0  0  0  0  0  0  0
   60.2390    4.3310   29.6099 O   0  0  0  0  0  0  0  0  0  0  0  0
   60.7034    4.5947   31.6379 O   0  0  0  0  0  0  0  0  0  0  0  0
   60.5270    4.9829   32.4723 H   0  0  0  0  0  0  0  0  0  0  0  0
   55.8679    5.6262   28.8127 C   0  0  0  0  0  0  0  0  0  0  0  0
   54.7259    4.8685   29.3267 O   0  0  0  0  0  0  0  0  0  0  0  0
   55.0440    4.1523   29.8984 H   0  0  0  0  0  0  0  0  0  0  0  0
   56.7913    4.7496   27.9431 C   0  0  0  0  0  0  0  0  0  0  0  0
   56.4105    4.7874   26.5556 O   0  0  0  0  0  0  0  0  0  0  0  0
   55.5167    4.4242   26.4556 H   0  0  0  0  0  0  0  0  0  0  0  0
   56.7679    3.2888   28.4108 C   0  0  0  0  0  0  0  0  0  0  0  0
   58.0812    2.7550   28.6421 O   0  0  0  0  0  0  0  0  0  0  0  0
   58.5866    2.7695   27.8142 H   0  0  0  0  0  0  0  0  0  0  0  0
 14  1  1  0  0  0
 14 15  2  0  0  0
 14 16  1  0  0  0
  1  2  2  0  0  0
  1  7  1  0  0  0
  2  3  1  0  0  0
  3  4  1  0  0  0
  3  6  1  0  0  0
  4  5  1  0  0  0
  4 11  1  0  0  0
  5 18  1  0  0  0
  5  7  1  0  0  0
 18 21  1  0  0  0
 18 19  1  0  0  0
 21 24  1  0  0  0
 21 22  1  0  0  0
 24 25  1  0  0  0
  9 10  1  0  0  0
  9 11  1  0  0  0
  9 12  2  0  0  0
 11 13  1  0  0  0
 16 17  1  0  0  0
  6  8  1  0  0  0
 19 20  1  0  0  0
 22 23  1  0  0  0
 25 26  1  0  0  0
M  END
> <minimizedAffinity>
-7.30735

$$$$
2CEX_DAN_B_1307


 26 26  0  0  0  0  0  0  0  0999 V2000
   60.8992    6.2815   28.5317 C   0  0  0  0  0  0  0  0  0  0  0  0
   60.5986    5.1883   29.2635 C   0  0  0  0  0  0  0  0  0  0  0  0
   59.1603    4.8911   29.5988 C   0  0  0  0  0  0  0  0  0  0  0  0
   58.2748    5.3423   28.3898 C   0  0  0  0  0  0  0  0  0  0  0  0
   58.5320    6.8284   28.0481 C   0  0  0  0  0  0  0  0  0  0  0  0
   59.0721    3.4652   29.8335 O   0  0  0  0  0  0  0  0  0  0  0  0
   59.9175    7.2092   28.0256 O   0  0  0  0  0  0  0  0  0  0  0  0
   59.3817    2.9884   29.0475 H   0  0  0  0  0  0  0  0  0  0  0  0
   56.1367    4.0068   28.4915 C   0  0  0  0  0  0  0  0  0  0  0  0
   54.7043    4.0879   28.9262 C   0  0  0  0  0  0  0  0  0  0  0  0
   56.8336    5.1590   28.5971 N   0  0  0  0  0  0  0  0  0  0  0  0
   56.6151    2.9513   28.0999 O   0  0  0  0  0  0  0  0  0  0  0  0
   56.3192    5.9627   28.8394 H   0  0  0  0  0  0  0  0  0  0  0  0
   62.2311    6.5637   28.0599 C   0  0  0  0  0  0  0  0  0  0  0  0
   62.5611    6.6233   26.8969 O   0  0  0  0  0  0  0  0  0  0  0  0
   63.1127    6.6707   28.9197 O   0  0  0  0  0  0  0  0  0  0  0  0
   62.8884    6.6286   29.8284 H   0  0  0  0  0  0  0  0  0  0  0  0
   57.9225    7.3336   26.7225 C   0  0  0  0  0  0  0  0  0  0  0  0
   56.4705    7.5152   26.7583 O   0  0  0  0  0  0  0  0  0  0  0  0
   56.0405    6.6562   26.8935 H   0  0  0  0  0  0  0  0  0  0  0  0
   58.3579    6.4366   25.5465 C   0  0  0  0  0  0  0  0  0  0  0  0
   59.7531    6.6048   25.2358 O   0  0  0  0  0  0  0  0  0  0  0  0
   59.9138    7.5192   24.9550 H   0  0  0  0  0  0  0  0  0  0  0  0
   57.5415    6.7445   24.2847 C   0  0  0  0  0  0  0  0  0  0  0  0
   57.5618    8.1368   23.9319 O   0  0  0  0  0  0  0  0  0  0  0  0
   57.1660    8.6576   24.6481 H   0  0  0  0  0  0  0  0  0  0  0  0
 14  1  1  0  0  0
 14 15  2  0  0  0
 14 16  1  0  0  0
  1  2  2  0  0  0
  1  7  1  0  0  0
  2  3  1  0  0  0
  3  4  1  0  0  0
  3  6  1  0  0  0
  4  5  1  0  0  0
  4 11  1  0  0  0
  5 18  1  0  0  0
  5  7  1  0  0  0
 18 21  1  0  0  0
 18 19  1  0  0  0
 21 24  1  0  0  0
 21 22  1  0  0  0
 24 25  1  0  0  0
  9 10  1  0  0  0
  9 11  1  0  0  0
  9 12  2  0  0  0
 11 13  1  0  0  0
 16 17  1  0  0  0
  6  8  1  0  0  0
 19 20  1  0  0  0
 22 23  1  0  0  0
 25 26  1  0  0  0
M  END
> <minimizedAffinity>
-7.28240

$$$$
