3N9S_TD4_A_308


 24 23  0  0  0  0  0  0  0  0999 V2000
   -9.4438   25.3939  -22.7536 O   0  0  0  0  0  0  0  0  0  0  0  0
   -8.4299   25.7682  -23.6434 N   0  0  0  0  0  0  0  0  0  0  0  0
   -7.0699   25.3441  -23.4092 C   0  0  0  0  0  0  0  0  0  0  0  0
   -6.8487   24.4324  -22.6676 O   0  0  0  0  0  0  0  0  0  0  0  0
  -10.2901   25.7592  -23.0557 H   0  0  0  0  0  0  0  0  0  0  0  0
   -8.6498   26.9551  -24.4286 C   0  0  0  0  0  0  0  0  0  0  0  0
   -9.8621   27.7482  -23.9719 C   0  0  0  0  0  0  0  0  0  0  0  0
  -10.3969   28.7680  -24.9534 C   0  0  0  0  0  0  0  0  0  0  0  0
  -11.7126   28.4098  -25.6211 C   0  0  0  0  0  0  0  0  0  0  0  0
  -12.0846   27.0750  -25.5129 O   0  0  0  0  0  0  0  0  0  0  0  0
  -12.2629   26.2017  -26.8847 P   0  0  0  0  0  0  0  0  0  0  0  0
  -12.0179   27.1991  -28.1555 O   0  0  0  0  0  0  0  0  0  0  0  0
  -11.1588   24.9933  -26.8953 O   0  0  0  0  0  0  0  0  0  0  0  0
  -13.6005   25.6283  -26.9165 O   0  0  0  0  0  0  0  0  0  0  0  0
  -10.2657   25.3711  -26.8741 H   0  0  0  0  0  0  0  0  0  0  0  0
  -14.2582   26.3412  -26.9104 H   0  0  0  0  0  0  0  0  0  0  0  0
   -5.9802   25.9011  -24.3293 C   0  0  0  0  0  0  0  0  0  0  0  0
   -5.3200   27.0355  -23.8577 O   0  0  0  0  0  0  0  0  0  0  0  0
   -4.7434   28.1903  -24.8880 P   0  0  0  0  0  0  0  0  0  0  0  0
   -3.2493   27.6939  -25.3334 O   0  0  0  0  0  0  0  0  0  0  0  0
   -4.6862   29.6484  -24.1472 O   0  0  0  0  0  0  0  0  0  0  0  0
   -5.5771   28.2442  -26.0792 O   0  0  0  0  0  0  0  0  0  0  0  0
   -3.3123   26.8295  -25.7689 H   0  0  0  0  0  0  0  0  0  0  0  0
   -5.5830   29.9180  -23.8943 H   0  0  0  0  0  0  0  0  0  0  0  0
  2  1  1  0  0  0
  6  2  1  0  0  0
  2  3  1  0  0  0
  6  7  1  0  0  0
  8  7  1  0  0  0
  9  8  1  0  0  0
 10  9  1  0  0  0
 10 11  1  0  0  0
 12 11  2  0  0  0
 14 11  1  0  0  0
 11 13  1  0  0  0
 17  3  1  0  0  0
  3  4  2  0  0  0
 17 18  1  0  0  0
 19 18  1  0  0  0
 22 19  2  0  0  0
 19 21  1  0  0  0
 19 20  1  0  0  0
  1  5  1  0  0  0
 13 15  1  0  0  0
 14 16  1  0  0  0
 20 23  1  0  0  0
 21 24  1  0  0  0
M  END
> <minimizedAffinity>
-8.11105

$$$$
3N9S_TD4_A_308


 24 23  0  0  0  0  0  0  0  0999 V2000
   -9.3445   25.4844  -22.6635 O   0  0  0  0  0  0  0  0  0  0  0  0
   -8.3343   25.8452  -23.5629 N   0  0  0  0  0  0  0  0  0  0  0  0
   -7.0007   25.3160  -23.4023 C   0  0  0  0  0  0  0  0  0  0  0  0
   -6.8214   24.3459  -22.7263 O   0  0  0  0  0  0  0  0  0  0  0  0
  -10.1720   25.9247  -22.9131 H   0  0  0  0  0  0  0  0  0  0  0  0
   -8.4945   27.0920  -24.2655 C   0  0  0  0  0  0  0  0  0  0  0  0
   -9.7636   27.8299  -23.8756 C   0  0  0  0  0  0  0  0  0  0  0  0
  -10.8812   27.8140  -24.8954 C   0  0  0  0  0  0  0  0  0  0  0  0
  -11.9927   26.8128  -24.6359 C   0  0  0  0  0  0  0  0  0  0  0  0
  -12.9008   26.6570  -25.6764 O   0  0  0  0  0  0  0  0  0  0  0  0
  -12.4056   25.8927  -27.0354 P   0  0  0  0  0  0  0  0  0  0  0  0
  -11.1007   24.9843  -26.6588 O   0  0  0  0  0  0  0  0  0  0  0  0
  -13.6178   24.9385  -27.5829 O   0  0  0  0  0  0  0  0  0  0  0  0
  -12.0810   26.8840  -28.0508 O   0  0  0  0  0  0  0  0  0  0  0  0
  -13.8374   24.2762  -26.9090 H   0  0  0  0  0  0  0  0  0  0  0  0
  -11.3628   27.4518  -27.7304 H   0  0  0  0  0  0  0  0  0  0  0  0
   -5.9030   25.8556  -24.3234 C   0  0  0  0  0  0  0  0  0  0  0  0
   -5.1997   26.9569  -23.8360 O   0  0  0  0  0  0  0  0  0  0  0  0
   -4.7494   28.2008  -24.8246 P   0  0  0  0  0  0  0  0  0  0  0  0
   -4.8082   29.5532  -23.9056 O   0  0  0  0  0  0  0  0  0  0  0  0
   -5.7588   28.3130  -26.1078 O   0  0  0  0  0  0  0  0  0  0  0  0
   -3.3744   28.0077  -25.2596 O   0  0  0  0  0  0  0  0  0  0  0  0
   -4.2021   29.4600  -23.1541 H   0  0  0  0  0  0  0  0  0  0  0  0
   -5.7042   27.5001  -26.6342 H   0  0  0  0  0  0  0  0  0  0  0  0
  2  1  1  0  0  0
  6  2  1  0  0  0
  2  3  1  0  0  0
  6  7  1  0  0  0
  8  7  1  0  0  0
  9  8  1  0  0  0
 10  9  1  0  0  0
 10 11  1  0  0  0
 12 11  2  0  0  0
 14 11  1  0  0  0
 11 13  1  0  0  0
 17  3  1  0  0  0
  3  4  2  0  0  0
 17 18  1  0  0  0
 19 18  1  0  0  0
 22 19  2  0  0  0
 19 21  1  0  0  0
 19 20  1  0  0  0
  1  5  1  0  0  0
 13 15  1  0  0  0
 14 16  1  0  0  0
 20 23  1  0  0  0
 21 24  1  0  0  0
M  END
> <minimizedAffinity>
-7.70929

$$$$
3N9S_TD4_A_308


 24 23  0  0  0  0  0  0  0  0999 V2000
   -3.3801   27.7195  -25.0898 O   0  0  0  0  0  0  0  0  0  0  0  0
   -4.7732   27.6328  -25.1966 N   0  0  0  0  0  0  0  0  0  0  0  0
   -5.5916   28.7941  -24.9395 C   0  0  0  0  0  0  0  0  0  0  0  0
   -5.1008   29.8845  -24.9533 O   0  0  0  0  0  0  0  0  0  0  0  0
   -2.9858   26.8570  -25.2936 H   0  0  0  0  0  0  0  0  0  0  0  0
   -5.3650   26.3302  -25.0329 C   0  0  0  0  0  0  0  0  0  0  0  0
   -5.7396   26.0292  -23.5920 C   0  0  0  0  0  0  0  0  0  0  0  0
   -6.8436   25.0144  -23.3907 C   0  0  0  0  0  0  0  0  0  0  0  0
   -8.2525   25.5780  -23.3411 C   0  0  0  0  0  0  0  0  0  0  0  0
   -8.9132   25.6226  -24.5631 O   0  0  0  0  0  0  0  0  0  0  0  0
  -10.5488   25.5904  -24.5666 P   0  0  0  0  0  0  0  0  0  0  0  0
  -11.0677   26.0491  -23.0866 O   0  0  0  0  0  0  0  0  0  0  0  0
  -11.1005   26.6298  -25.7046 O   0  0  0  0  0  0  0  0  0  0  0  0
  -11.0004   24.2445  -24.8884 O   0  0  0  0  0  0  0  0  0  0  0  0
  -10.8018   27.5282  -25.4940 H   0  0  0  0  0  0  0  0  0  0  0  0
  -10.6755   23.6251  -24.2163 H   0  0  0  0  0  0  0  0  0  0  0  0
   -7.1113   28.6077  -24.9275 C   0  0  0  0  0  0  0  0  0  0  0  0
   -7.8596   29.7792  -25.0406 O   0  0  0  0  0  0  0  0  0  0  0  0
   -9.5013   29.7762  -24.8622 P   0  0  0  0  0  0  0  0  0  0  0  0
   -9.8258   28.6931  -23.6795 O   0  0  0  0  0  0  0  0  0  0  0  0
  -10.2338   29.3582  -26.2646 O   0  0  0  0  0  0  0  0  0  0  0  0
   -9.9475   31.0860  -24.4123 O   0  0  0  0  0  0  0  0  0  0  0  0
   -9.3806   28.9644  -22.8616 H   0  0  0  0  0  0  0  0  0  0  0  0
  -10.0252   30.0155  -26.9467 H   0  0  0  0  0  0  0  0  0  0  0  0
  2  1  1  0  0  0
  6  2  1  0  0  0
  2  3  1  0  0  0
  6  7  1  0  0  0
  8  7  1  0  0  0
  9  8  1  0  0  0
 10  9  1  0  0  0
 10 11  1  0  0  0
 12 11  2  0  0  0
 14 11  1  0  0  0
 11 13  1  0  0  0
 17  3  1  0  0  0
  3  4  2  0  0  0
 17 18  1  0  0  0
 19 18  1  0  0  0
 22 19  2  0  0  0
 19 21  1  0  0  0
 19 20  1  0  0  0
  1  5  1  0  0  0
 13 15  1  0  0  0
 14 16  1  0  0  0
 20 23  1  0  0  0
 21 24  1  0  0  0
M  END
> <minimizedAffinity>
-7.44409

$$$$
3N9S_TD4_A_308


 24 23  0  0  0  0  0  0  0  0999 V2000
  -11.3278   30.3843  -24.9059 O   0  0  0  0  0  0  0  0  0  0  0  0
  -10.2363   29.6297  -24.4599 N   0  0  0  0  0  0  0  0  0  0  0  0
   -8.9894   29.6628  -25.1869 C   0  0  0  0  0  0  0  0  0  0  0  0
   -8.7724   30.5500  -25.9589 O   0  0  0  0  0  0  0  0  0  0  0  0
  -12.0800   30.2493  -24.3084 H   0  0  0  0  0  0  0  0  0  0  0  0
  -10.5231   28.4758  -23.6476 C   0  0  0  0  0  0  0  0  0  0  0  0
  -11.3143   27.4133  -24.3906 C   0  0  0  0  0  0  0  0  0  0  0  0
  -11.1195   25.9889  -23.9190 C   0  0  0  0  0  0  0  0  0  0  0  0
  -11.2682   24.9180  -24.9849 C   0  0  0  0  0  0  0  0  0  0  0  0
  -11.0141   25.3402  -26.2845 O   0  0  0  0  0  0  0  0  0  0  0  0
  -12.1281   25.0218  -27.4395 P   0  0  0  0  0  0  0  0  0  0  0  0
  -12.2109   23.4011  -27.6303 O   0  0  0  0  0  0  0  0  0  0  0  0
  -13.5787   25.6077  -26.9577 O   0  0  0  0  0  0  0  0  0  0  0  0
  -11.7343   25.6777  -28.6780 O   0  0  0  0  0  0  0  0  0  0  0  0
  -13.8449   25.1732  -26.1324 H   0  0  0  0  0  0  0  0  0  0  0  0
  -10.8749   25.3333  -28.9672 H   0  0  0  0  0  0  0  0  0  0  0  0
   -7.8777   28.7091  -24.7408 C   0  0  0  0  0  0  0  0  0  0  0  0
   -6.7898   28.6097  -25.6078 O   0  0  0  0  0  0  0  0  0  0  0  0
   -5.2482   28.4327  -25.0427 P   0  0  0  0  0  0  0  0  0  0  0  0
   -4.7778   29.9166  -24.5390 O   0  0  0  0  0  0  0  0  0  0  0  0
   -4.2626   27.8677  -26.2207 O   0  0  0  0  0  0  0  0  0  0  0  0
   -5.2475   27.5421  -23.8921 O   0  0  0  0  0  0  0  0  0  0  0  0
   -5.3776   30.2268  -23.8426 H   0  0  0  0  0  0  0  0  0  0  0  0
   -4.5635   26.9889  -26.5001 H   0  0  0  0  0  0  0  0  0  0  0  0
  2  1  1  0  0  0
  6  2  1  0  0  0
  2  3  1  0  0  0
  6  7  1  0  0  0
  8  7  1  0  0  0
  9  8  1  0  0  0
 10  9  1  0  0  0
 10 11  1  0  0  0
 12 11  2  0  0  0
 14 11  1  0  0  0
 11 13  1  0  0  0
 17  3  1  0  0  0
  3  4  2  0  0  0
 17 18  1  0  0  0
 19 18  1  0  0  0
 22 19  2  0  0  0
 19 21  1  0  0  0
 19 20  1  0  0  0
  1  5  1  0  0  0
 13 15  1  0  0  0
 14 16  1  0  0  0
 20 23  1  0  0  0
 21 24  1  0  0  0
M  END
> <minimizedAffinity>
-7.43917

$$$$
3N9S_TD4_A_308


 24 23  0  0  0  0  0  0  0  0999 V2000
  -10.6098   24.4322  -24.5715 O   0  0  0  0  0  0  0  0  0  0  0  0
  -10.7466   25.6865  -23.9651 N   0  0  0  0  0  0  0  0  0  0  0  0
  -11.8501   26.5459  -24.3228 C   0  0  0  0  0  0  0  0  0  0  0  0
  -12.8078   26.0886  -24.8740 O   0  0  0  0  0  0  0  0  0  0  0  0
   -9.8224   23.9875  -24.2207 H   0  0  0  0  0  0  0  0  0  0  0  0
   -9.5538   26.2922  -23.4322 C   0  0  0  0  0  0  0  0  0  0  0  0
   -8.3380   26.0792  -24.3174 C   0  0  0  0  0  0  0  0  0  0  0  0
   -7.1119   25.5114  -23.6366 C   0  0  0  0  0  0  0  0  0  0  0  0
   -5.7787   25.9207  -24.2368 C   0  0  0  0  0  0  0  0  0  0  0  0
   -5.2942   27.1523  -23.8125 O   0  0  0  0  0  0  0  0  0  0  0  0
   -4.7364   28.2004  -24.9380 P   0  0  0  0  0  0  0  0  0  0  0  0
   -4.7148   29.6930  -24.2736 O   0  0  0  0  0  0  0  0  0  0  0  0
   -3.2232   27.7566  -25.3770 O   0  0  0  0  0  0  0  0  0  0  0  0
   -5.6055   28.1568  -26.1050 O   0  0  0  0  0  0  0  0  0  0  0  0
   -2.6405   27.7843  -24.6020 H   0  0  0  0  0  0  0  0  0  0  0  0
   -6.5037   28.4192  -25.8493 H   0  0  0  0  0  0  0  0  0  0  0  0
  -11.8705   27.9614  -23.7395 C   0  0  0  0  0  0  0  0  0  0  0  0
  -12.2762   28.9657  -24.6181 O   0  0  0  0  0  0  0  0  0  0  0  0
  -11.3450   29.4151  -25.9057 P   0  0  0  0  0  0  0  0  0  0  0  0
  -11.8662   28.5227  -27.1742 O   0  0  0  0  0  0  0  0  0  0  0  0
   -9.7618   29.1379  -25.5980 O   0  0  0  0  0  0  0  0  0  0  0  0
  -11.5776   30.8182  -26.2125 O   0  0  0  0  0  0  0  0  0  0  0  0
  -12.8052   28.7059  -27.3344 H   0  0  0  0  0  0  0  0  0  0  0  0
   -9.4796   29.6782  -24.8434 H   0  0  0  0  0  0  0  0  0  0  0  0
  2  1  1  0  0  0
  6  2  1  0  0  0
  2  3  1  0  0  0
  6  7  1  0  0  0
  8  7  1  0  0  0
  9  8  1  0  0  0
 10  9  1  0  0  0
 10 11  1  0  0  0
 12 11  2  0  0  0
 14 11  1  0  0  0
 11 13  1  0  0  0
 17  3  1  0  0  0
  3  4  2  0  0  0
 17 18  1  0  0  0
 19 18  1  0  0  0
 22 19  2  0  0  0
 19 21  1  0  0  0
 19 20  1  0  0  0
  1  5  1  0  0  0
 13 15  1  0  0  0
 14 16  1  0  0  0
 20 23  1  0  0  0
 21 24  1  0  0  0
M  END
> <minimizedAffinity>
-7.16512

$$$$
3N9S_TD4_A_308


 24 23  0  0  0  0  0  0  0  0999 V2000
  -10.8642   26.9974  -22.4139 O   0  0  0  0  0  0  0  0  0  0  0  0
  -11.4494   26.9662  -23.6854 N   0  0  0  0  0  0  0  0  0  0  0  0
  -11.4976   25.7296  -24.4287 C   0  0  0  0  0  0  0  0  0  0  0  0
  -11.3435   24.6872  -23.8631 O   0  0  0  0  0  0  0  0  0  0  0  0
  -10.9148   27.8977  -22.0567 H   0  0  0  0  0  0  0  0  0  0  0  0
  -11.4974   28.2056  -24.4171 C   0  0  0  0  0  0  0  0  0  0  0  0
  -10.2257   29.0241  -24.2752 C   0  0  0  0  0  0  0  0  0  0  0  0
   -9.1379   28.7422  -25.2883 C   0  0  0  0  0  0  0  0  0  0  0  0
   -7.7184   29.0043  -24.8178 C   0  0  0  0  0  0  0  0  0  0  0  0
   -6.7209   28.5731  -25.6841 O   0  0  0  0  0  0  0  0  0  0  0  0
   -5.2046   28.3901  -25.0978 P   0  0  0  0  0  0  0  0  0  0  0  0
   -4.7169   29.8291  -24.4967 O   0  0  0  0  0  0  0  0  0  0  0  0
   -5.2235   27.2611  -23.9126 O   0  0  0  0  0  0  0  0  0  0  0  0
   -4.3273   27.9436  -26.1702 O   0  0  0  0  0  0  0  0  0  0  0  0
   -5.8071   27.5548  -23.1956 H   0  0  0  0  0  0  0  0  0  0  0  0
   -4.3132   28.6099  -26.8750 H   0  0  0  0  0  0  0  0  0  0  0  0
  -12.0151   25.7823  -25.8688 C   0  0  0  0  0  0  0  0  0  0  0  0
  -11.5752   24.7537  -26.7017 O   0  0  0  0  0  0  0  0  0  0  0  0
  -12.3230   24.4246  -28.1368 P   0  0  0  0  0  0  0  0  0  0  0  0
  -12.1888   22.8088  -28.3568 O   0  0  0  0  0  0  0  0  0  0  0  0
  -11.6142   25.2492  -29.3598 O   0  0  0  0  0  0  0  0  0  0  0  0
  -13.7372   24.7529  -28.0388 O   0  0  0  0  0  0  0  0  0  0  0  0
  -12.6163   22.3456  -27.6195 H   0  0  0  0  0  0  0  0  0  0  0  0
  -11.7082   26.2020  -29.2045 H   0  0  0  0  0  0  0  0  0  0  0  0
  2  1  1  0  0  0
  6  2  1  0  0  0
  2  3  1  0  0  0
  6  7  1  0  0  0
  8  7  1  0  0  0
  9  8  1  0  0  0
 10  9  1  0  0  0
 10 11  1  0  0  0
 12 11  2  0  0  0
 14 11  1  0  0  0
 11 13  1  0  0  0
 17  3  1  0  0  0
  3  4  2  0  0  0
 17 18  1  0  0  0
 19 18  1  0  0  0
 22 19  2  0  0  0
 19 21  1  0  0  0
 19 20  1  0  0  0
  1  5  1  0  0  0
 13 15  1  0  0  0
 14 16  1  0  0  0
 20 23  1  0  0  0
 21 24  1  0  0  0
M  END
> <minimizedAffinity>
-6.98636

$$$$
3N9S_TD4_A_308


 24 23  0  0  0  0  0  0  0  0999 V2000
  -11.4053   30.0454  -24.9946 O   0  0  0  0  0  0  0  0  0  0  0  0
  -10.2227   29.4814  -24.5016 N   0  0  0  0  0  0  0  0  0  0  0  0
   -8.9727   29.7087  -25.1875 C   0  0  0  0  0  0  0  0  0  0  0  0
   -8.8747   30.6121  -25.9649 O   0  0  0  0  0  0  0  0  0  0  0  0
  -12.1463   29.7962  -24.4203 H   0  0  0  0  0  0  0  0  0  0  0  0
  -10.3480   28.3039  -23.6821 C   0  0  0  0  0  0  0  0  0  0  0  0
  -11.1284   27.1923  -24.3621 C   0  0  0  0  0  0  0  0  0  0  0  0
  -10.3130   26.0246  -24.8730 C   0  0  0  0  0  0  0  0  0  0  0  0
   -9.2070   25.5428  -23.9511 C   0  0  0  0  0  0  0  0  0  0  0  0
   -7.9170   25.7077  -24.4414 O   0  0  0  0  0  0  0  0  0  0  0  0
   -6.6933   24.9166  -23.6976 P   0  0  0  0  0  0  0  0  0  0  0  0
   -7.3133   24.1154  -22.4156 O   0  0  0  0  0  0  0  0  0  0  0  0
   -6.0222   23.8597  -24.7522 O   0  0  0  0  0  0  0  0  0  0  0  0
   -5.6855   25.8798  -23.2786 O   0  0  0  0  0  0  0  0  0  0  0  0
   -6.6907   23.2158  -25.0341 H   0  0  0  0  0  0  0  0  0  0  0  0
   -6.0791   26.5083  -22.6533 H   0  0  0  0  0  0  0  0  0  0  0  0
   -7.7382   28.9514  -24.6908 C   0  0  0  0  0  0  0  0  0  0  0  0
   -6.7079   28.8101  -25.6201 O   0  0  0  0  0  0  0  0  0  0  0  0
   -5.1219   28.8219  -25.1600 P   0  0  0  0  0  0  0  0  0  0  0  0
   -4.6185   30.3713  -25.3113 O   0  0  0  0  0  0  0  0  0  0  0  0
   -4.2392   27.8180  -26.1041 O   0  0  0  0  0  0  0  0  0  0  0  0
   -5.0157   28.4455  -23.7585 O   0  0  0  0  0  0  0  0  0  0  0  0
   -5.1572   30.9433  -24.7425 H   0  0  0  0  0  0  0  0  0  0  0  0
   -4.5579   26.9084  -25.9953 H   0  0  0  0  0  0  0  0  0  0  0  0
  2  1  1  0  0  0
  6  2  1  0  0  0
  2  3  1  0  0  0
  6  7  1  0  0  0
  8  7  1  0  0  0
  9  8  1  0  0  0
 10  9  1  0  0  0
 10 11  1  0  0  0
 12 11  2  0  0  0
 14 11  1  0  0  0
 11 13  1  0  0  0
 17  3  1  0  0  0
  3  4  2  0  0  0
 17 18  1  0  0  0
 19 18  1  0  0  0
 22 19  2  0  0  0
 19 21  1  0  0  0
 19 20  1  0  0  0
  1  5  1  0  0  0
 13 15  1  0  0  0
 14 16  1  0  0  0
 20 23  1  0  0  0
 21 24  1  0  0  0
M  END
> <minimizedAffinity>
-6.94135

$$$$
3N9S_TD4_A_308


 24 23  0  0  0  0  0  0  0  0999 V2000
   -8.6707   30.9685  -25.7202 O   0  0  0  0  0  0  0  0  0  0  0  0
   -8.8527   29.7267  -25.1000 N   0  0  0  0  0  0  0  0  0  0  0  0
   -7.7250   28.8487  -24.8954 C   0  0  0  0  0  0  0  0  0  0  0  0
   -6.6126   29.2842  -24.9498 O   0  0  0  0  0  0  0  0  0  0  0  0
   -9.5226   31.4286  -25.7789 H   0  0  0  0  0  0  0  0  0  0  0  0
  -10.1682   29.1447  -25.1680 C   0  0  0  0  0  0  0  0  0  0  0  0
  -10.8363   29.0363  -23.8082 C   0  0  0  0  0  0  0  0  0  0  0  0
  -11.6849   27.8044  -23.5814 C   0  0  0  0  0  0  0  0  0  0  0  0
  -12.5107   27.3477  -24.7707 C   0  0  0  0  0  0  0  0  0  0  0  0
  -12.1236   26.1340  -25.3263 O   0  0  0  0  0  0  0  0  0  0  0  0
  -12.2971   25.9245  -26.9395 P   0  0  0  0  0  0  0  0  0  0  0  0
  -12.1886   27.3894  -27.6552 O   0  0  0  0  0  0  0  0  0  0  0  0
  -11.1048   24.9424  -27.4813 O   0  0  0  0  0  0  0  0  0  0  0  0
  -13.5866   25.3035  -27.2055 O   0  0  0  0  0  0  0  0  0  0  0  0
  -10.2434   25.3526  -27.3060 H   0  0  0  0  0  0  0  0  0  0  0  0
  -14.2963   25.8823  -26.8859 H   0  0  0  0  0  0  0  0  0  0  0  0
   -8.0027   27.4464  -24.3470 C   0  0  0  0  0  0  0  0  0  0  0  0
   -6.8849   26.6231  -24.2135 O   0  0  0  0  0  0  0  0  0  0  0  0
   -6.9653   25.1803  -23.4141 P   0  0  0  0  0  0  0  0  0  0  0  0
   -6.5918   24.0307  -24.5168 O   0  0  0  0  0  0  0  0  0  0  0  0
   -8.4626   24.9444  -22.7974 O   0  0  0  0  0  0  0  0  0  0  0  0
   -5.9586   25.1454  -22.3640 O   0  0  0  0  0  0  0  0  0  0  0  0
   -5.7014   24.1941  -24.8653 H   0  0  0  0  0  0  0  0  0  0  0  0
   -8.6579   25.6381  -22.1481 H   0  0  0  0  0  0  0  0  0  0  0  0
  2  1  1  0  0  0
  6  2  1  0  0  0
  2  3  1  0  0  0
  6  7  1  0  0  0
  8  7  1  0  0  0
  9  8  1  0  0  0
 10  9  1  0  0  0
 10 11  1  0  0  0
 12 11  2  0  0  0
 14 11  1  0  0  0
 11 13  1  0  0  0
 17  3  1  0  0  0
  3  4  2  0  0  0
 17 18  1  0  0  0
 19 18  1  0  0  0
 22 19  2  0  0  0
 19 21  1  0  0  0
 19 20  1  0  0  0
  1  5  1  0  0  0
 13 15  1  0  0  0
 14 16  1  0  0  0
 20 23  1  0  0  0
 21 24  1  0  0  0
M  END
> <minimizedAffinity>
-6.81587

$$$$
3N9S_TD4_A_308


 24 23  0  0  0  0  0  0  0  0999 V2000
  -10.7255   24.4352  -24.4345 O   0  0  0  0  0  0  0  0  0  0  0  0
  -11.0342   25.7721  -24.1566 N   0  0  0  0  0  0  0  0  0  0  0  0
  -11.8783   26.5212  -25.0570 C   0  0  0  0  0  0  0  0  0  0  0  0
  -12.5671   25.9452  -25.8469 O   0  0  0  0  0  0  0  0  0  0  0  0
  -10.1532   24.0833  -23.7348 H   0  0  0  0  0  0  0  0  0  0  0  0
  -10.1157   26.4980  -23.3182 C   0  0  0  0  0  0  0  0  0  0  0  0
   -8.7021   25.9451  -23.3751 C   0  0  0  0  0  0  0  0  0  0  0  0
   -7.8113   26.5094  -24.4602 C   0  0  0  0  0  0  0  0  0  0  0  0
   -7.7499   28.0244  -24.5377 C   0  0  0  0  0  0  0  0  0  0  0  0
   -6.8647   28.5312  -25.4817 O   0  0  0  0  0  0  0  0  0  0  0  0
   -5.2679   28.5426  -25.1260 P   0  0  0  0  0  0  0  0  0  0  0  0
   -4.8201   30.0908  -24.8564 O   0  0  0  0  0  0  0  0  0  0  0  0
   -5.0137   27.6402  -23.7841 O   0  0  0  0  0  0  0  0  0  0  0  0
   -4.5257   27.9666  -26.2380 O   0  0  0  0  0  0  0  0  0  0  0  0
   -5.5066   28.0208  -23.0404 H   0  0  0  0  0  0  0  0  0  0  0  0
   -4.6737   28.4985  -27.0355 H   0  0  0  0  0  0  0  0  0  0  0  0
  -12.0643   28.0161  -24.7832 C   0  0  0  0  0  0  0  0  0  0  0  0
  -13.0648   28.6416  -25.5268 O   0  0  0  0  0  0  0  0  0  0  0  0
  -12.7255   29.4389  -26.9327 P   0  0  0  0  0  0  0  0  0  0  0  0
  -12.1023   28.3185  -27.9492 O   0  0  0  0  0  0  0  0  0  0  0  0
  -11.6611   30.6529  -26.6656 O   0  0  0  0  0  0  0  0  0  0  0  0
  -13.9575   29.9462  -27.5176 O   0  0  0  0  0  0  0  0  0  0  0  0
  -12.7522   27.6123  -28.0897 H   0  0  0  0  0  0  0  0  0  0  0  0
  -12.0552   31.3013  -26.0614 H   0  0  0  0  0  0  0  0  0  0  0  0
  2  1  1  0  0  0
  6  2  1  0  0  0
  2  3  1  0  0  0
  6  7  1  0  0  0
  8  7  1  0  0  0
  9  8  1  0  0  0
 10  9  1  0  0  0
 10 11  1  0  0  0
 12 11  2  0  0  0
 14 11  1  0  0  0
 11 13  1  0  0  0
 17  3  1  0  0  0
  3  4  2  0  0  0
 17 18  1  0  0  0
 19 18  1  0  0  0
 22 19  2  0  0  0
 19 21  1  0  0  0
 19 20  1  0  0  0
  1  5  1  0  0  0
 13 15  1  0  0  0
 14 16  1  0  0  0
 20 23  1  0  0  0
 21 24  1  0  0  0
M  END
> <minimizedAffinity>
-6.71113

$$$$
3N9S_TD4_A_308


 24 23  0  0  0  0  0  0  0  0999 V2000
  -11.7754   28.8640  -23.0924 O   0  0  0  0  0  0  0  0  0  0  0  0
  -11.0783   27.8078  -23.6910 N   0  0  0  0  0  0  0  0  0  0  0  0
  -10.6126   26.7021  -22.8880 C   0  0  0  0  0  0  0  0  0  0  0  0
  -11.0793   26.5147  -21.8030 O   0  0  0  0  0  0  0  0  0  0  0  0
  -12.0139   29.5180  -23.7679 H   0  0  0  0  0  0  0  0  0  0  0  0
  -10.3978   28.0876  -24.9288 C   0  0  0  0  0  0  0  0  0  0  0  0
  -10.1683   29.5722  -25.1534 C   0  0  0  0  0  0  0  0  0  0  0  0
   -8.7247   30.0126  -25.2595 C   0  0  0  0  0  0  0  0  0  0  0  0
   -7.6943   29.0081  -24.7752 C   0  0  0  0  0  0  0  0  0  0  0  0
   -6.7313   28.6529  -25.7122 O   0  0  0  0  0  0  0  0  0  0  0  0
   -5.1638   28.6204  -25.2451 P   0  0  0  0  0  0  0  0  0  0  0  0
   -4.6716   30.1616  -25.0157 O   0  0  0  0  0  0  0  0  0  0  0  0
   -5.0405   27.7754  -23.8485 O   0  0  0  0  0  0  0  0  0  0  0  0
   -4.3712   27.9629  -26.2740 O   0  0  0  0  0  0  0  0  0  0  0  0
   -5.5674   28.2103  -23.1599 H   0  0  0  0  0  0  0  0  0  0  0  0
   -4.4415   28.4606  -27.1036 H   0  0  0  0  0  0  0  0  0  0  0  0
   -9.7317   25.6490  -23.5659 C   0  0  0  0  0  0  0  0  0  0  0  0
   -8.6420   25.2068  -22.8162 O   0  0  0  0  0  0  0  0  0  0  0  0
   -7.1614   24.9622  -23.5057 P   0  0  0  0  0  0  0  0  0  0  0  0
   -7.1419   25.8676  -24.8684 O   0  0  0  0  0  0  0  0  0  0  0  0
   -6.9372   23.3771  -23.8450 O   0  0  0  0  0  0  0  0  0  0  0  0
   -6.1200   25.4568  -22.6179 O   0  0  0  0  0  0  0  0  0  0  0  0
   -7.2767   26.8003  -24.6389 H   0  0  0  0  0  0  0  0  0  0  0  0
   -6.9531   22.8648  -23.0215 H   0  0  0  0  0  0  0  0  0  0  0  0
  2  1  1  0  0  0
  6  2  1  0  0  0
  2  3  1  0  0  0
  6  7  1  0  0  0
  8  7  1  0  0  0
  9  8  1  0  0  0
 10  9  1  0  0  0
 10 11  1  0  0  0
 12 11  2  0  0  0
 14 11  1  0  0  0
 11 13  1  0  0  0
 17  3  1  0  0  0
  3  4  2  0  0  0
 17 18  1  0  0  0
 19 18  1  0  0  0
 22 19  2  0  0  0
 19 21  1  0  0  0
 19 20  1  0  0  0
  1  5  1  0  0  0
 13 15  1  0  0  0
 14 16  1  0  0  0
 20 23  1  0  0  0
 21 24  1  0  0  0
M  END
> <minimizedAffinity>
-6.70157

$$$$
