3SUS_GNL_A_2000


 17 18  0  0  0  0  0  0  0  0999 V2000
  -35.4905  -18.9098  -16.1282 C   0  0  0  0  0  0  0  0  0  0  0  0
  -34.0151  -19.9585  -15.8092 S   0  0  0  0  0  0  0  0  0  0  0  0
  -35.0196  -17.9665  -17.2808 C   0  0  0  0  0  0  0  0  0  0  0  0
  -34.1401  -18.8344  -18.1277 N   0  0  0  0  0  0  0  0  0  0  0  0
  -34.3031  -16.6733  -16.7852 C   0  0  0  0  0  0  0  0  0  0  0  0
  -34.2601  -15.6723  -17.8202 O   0  0  0  0  0  0  0  0  0  0  0  0
  -34.9545  -16.0680  -15.5162 C   0  0  0  0  0  0  0  0  0  0  0  0
  -36.2813  -15.5900  -15.8179 O   0  0  0  0  0  0  0  0  0  0  0  0
  -35.0287  -17.1479  -14.4271 C   0  0  0  0  0  0  0  0  0  0  0  0
  -35.8865  -18.2168  -14.9344 O   0  0  0  0  0  0  0  0  0  0  0  0
  -33.0901  -19.4232  -17.2761 C   0  0  0  0  0  0  0  0  0  0  0  0
  -32.3545  -20.5771  -17.9454 C   0  0  0  0  0  0  0  0  0  0  0  0
  -35.1639  -15.4034  -18.0477 H   0  0  0  0  0  0  0  0  0  0  0  0
  -36.8274  -16.3279  -16.1313 H   0  0  0  0  0  0  0  0  0  0  0  0
  -35.6150  -16.6583  -13.1056 C   0  0  0  0  0  0  0  0  0  0  0  0
  -35.2309  -17.5540  -12.0606 O   0  0  0  0  0  0  0  0  0  0  0  0
  -35.5654  -18.4430  -12.2574 H   0  0  0  0  0  0  0  0  0  0  0  0
  1  2  1  0  0  0
  1  3  1  0  0  0
  1 10  1  0  0  0
  2 11  1  0  0  0
  3  4  1  0  0  0
  3  5  1  0  0  0
  4 11  2  0  0  0
  5  6  1  0  0  0
  5  7  1  0  0  0
  7  8  1  0  0  0
  7  9  1  0  0  0
  9 10  1  0  0  0
  9 15  1  0  0  0
 15 16  1  0  0  0
 11 12  1  0  0  0
  6 13  1  0  0  0
  8 14  1  0  0  0
 16 17  1  0  0  0
M  END
> <minimizedAffinity>
-7.91092

$$$$
3SUS_GNL_A_2000


 17 18  0  0  0  0  0  0  0  0999 V2000
  -37.6606  -17.3702  -15.4757 C   0  0  0  0  0  0  0  0  0  0  0  0
  -38.6675  -15.8334  -15.5251 S   0  0  0  0  0  0  0  0  0  0  0  0
  -37.2283  -17.4698  -13.9781 C   0  0  0  0  0  0  0  0  0  0  0  0
  -38.4167  -16.9633  -13.2196 N   0  0  0  0  0  0  0  0  0  0  0  0
  -35.9179  -16.6924  -13.6462 C   0  0  0  0  0  0  0  0  0  0  0  0
  -35.3500  -17.1369  -12.3993 O   0  0  0  0  0  0  0  0  0  0  0  0
  -34.8487  -16.8028  -14.7624 C   0  0  0  0  0  0  0  0  0  0  0  0
  -34.3820  -18.1630  -14.8714 O   0  0  0  0  0  0  0  0  0  0  0  0
  -35.4684  -16.3598  -16.0957 C   0  0  0  0  0  0  0  0  0  0  0  0
  -36.5602  -17.2841  -16.3945 O   0  0  0  0  0  0  0  0  0  0  0  0
  -38.7685  -15.6234  -13.7251 C   0  0  0  0  0  0  0  0  0  0  0  0
  -40.1478  -15.1581  -13.2765 C   0  0  0  0  0  0  0  0  0  0  0  0
  -35.0926  -18.0690  -12.4753 H   0  0  0  0  0  0  0  0  0  0  0  0
  -35.1273  -18.7440  -15.0901 H   0  0  0  0  0  0  0  0  0  0  0  0
  -34.4949  -16.3824  -17.2711 C   0  0  0  0  0  0  0  0  0  0  0  0
  -34.5995  -17.6388  -17.9438 O   0  0  0  0  0  0  0  0  0  0  0  0
  -34.3836  -18.3551  -17.3263 H   0  0  0  0  0  0  0  0  0  0  0  0
  1  2  1  0  0  0
  1  3  1  0  0  0
  1 10  1  0  0  0
  2 11  1  0  0  0
  3  4  1  0  0  0
  3  5  1  0  0  0
  4 11  2  0  0  0
  5  6  1  0  0  0
  5  7  1  0  0  0
  7  8  1  0  0  0
  7  9  1  0  0  0
  9 10  1  0  0  0
  9 15  1  0  0  0
 15 16  1  0  0  0
 11 12  1  0  0  0
  6 13  1  0  0  0
  8 14  1  0  0  0
 16 17  1  0  0  0
M  END
> <minimizedAffinity>
-5.24619

$$$$
3SUS_GNL_A_2000


 17 18  0  0  0  0  0  0  0  0999 V2000
  -36.3186  -17.1203  -14.1644 C   0  0  0  0  0  0  0  0  0  0  0  0
  -35.4007  -16.1064  -15.3922 S   0  0  0  0  0  0  0  0  0  0  0  0
  -36.9473  -18.2561  -15.0330 C   0  0  0  0  0  0  0  0  0  0  0  0
  -35.9045  -18.5441  -16.0693 N   0  0  0  0  0  0  0  0  0  0  0  0
  -38.3317  -17.8873  -15.6485 C   0  0  0  0  0  0  0  0  0  0  0  0
  -39.0408  -19.0649  -16.0790 O   0  0  0  0  0  0  0  0  0  0  0  0
  -39.2289  -17.0765  -14.6797 C   0  0  0  0  0  0  0  0  0  0  0  0
  -39.6006  -17.8894  -13.5480 O   0  0  0  0  0  0  0  0  0  0  0  0
  -38.4566  -15.8400  -14.1975 C   0  0  0  0  0  0  0  0  0  0  0  0
  -37.2848  -16.3186  -13.4671 O   0  0  0  0  0  0  0  0  0  0  0  0
  -35.5607  -17.2878  -16.7607 C   0  0  0  0  0  0  0  0  0  0  0  0
  -34.2841  -17.3893  -17.5857 C   0  0  0  0  0  0  0  0  0  0  0  0
  -39.2336  -19.6251  -15.3109 H   0  0  0  0  0  0  0  0  0  0  0  0
  -38.8014  -18.1715  -13.0761 H   0  0  0  0  0  0  0  0  0  0  0  0
  -39.2558  -14.9325  -13.2662 C   0  0  0  0  0  0  0  0  0  0  0  0
  -40.3840  -14.4116  -13.9719 O   0  0  0  0  0  0  0  0  0  0  0  0
  -40.0787  -13.9045  -14.7403 H   0  0  0  0  0  0  0  0  0  0  0  0
  1  2  1  0  0  0
  1  3  1  0  0  0
  1 10  1  0  0  0
  2 11  1  0  0  0
  3  4  1  0  0  0
  3  5  1  0  0  0
  4 11  2  0  0  0
  5  6  1  0  0  0
  5  7  1  0  0  0
  7  8  1  0  0  0
  7  9  1  0  0  0
  9 10  1  0  0  0
  9 15  1  0  0  0
 15 16  1  0  0  0
 11 12  1  0  0  0
  6 13  1  0  0  0
  8 14  1  0  0  0
 16 17  1  0  0  0
M  END
> <minimizedAffinity>
-5.04343

$$$$
