4JAL_SAH_A_201


 33 35  0  0  0  0  0  0  0  0999 V2000
    4.9813    8.7517   19.2413 C   0  0  0  0  0  0  0  0  0  0  0  0
    4.6116    7.9283   18.1512 O   0  0  0  0  0  0  0  0  0  0  0  0
    6.4809    8.9766   19.0919 C   0  0  0  0  0  0  0  0  0  0  0  0
    7.0646    9.3060   20.3196 O   0  0  0  0  0  0  0  0  0  0  0  0
    6.9446    7.6347   18.5850 C   0  0  0  0  0  0  0  0  0  0  0  0
    7.1362    6.7383   19.6638 O   0  0  0  0  0  0  0  0  0  0  0  0
    5.7420    7.1590   17.7831 C   0  0  0  0  0  0  0  0  0  0  0  0
    6.8697    8.6107   20.9672 H   0  0  0  0  0  0  0  0  0  0  0  0
    6.3161    6.6704   20.1774 H   0  0  0  0  0  0  0  0  0  0  0  0
    6.0090    7.3453   16.3398 N   0  0  0  0  0  0  0  0  0  0  0  0
    5.5671    8.3348   15.5094 C   0  0  0  0  0  0  0  0  0  0  0  0
    6.0451    8.1015   14.2668 N   0  0  0  0  0  0  0  0  0  0  0  0
    6.7847    6.9707   14.2965 C   0  0  0  0  0  0  0  0  0  0  0  0
    7.4996    6.2759   13.3250 C   0  0  0  0  0  0  0  0  0  0  0  0
    7.5448    6.7024   12.0583 N   0  0  0  0  0  0  0  0  0  0  0  0
    8.1710    5.1302   13.6950 N   0  0  0  0  0  0  0  0  0  0  0  0
    8.1482    4.6746   14.9954 C   0  0  0  0  0  0  0  0  0  0  0  0
    7.4280    5.3695   15.9473 N   0  0  0  0  0  0  0  0  0  0  0  0
    6.7651    6.4899   15.5995 C   0  0  0  0  0  0  0  0  0  0  0  0
    7.0642    7.5210   11.7971 H   0  0  0  0  0  0  0  0  0  0  0  0
    8.0585    6.1978   11.3870 H   0  0  0  0  0  0  0  0  0  0  0  0
    4.1963   10.0536   19.2372 C   0  0  0  0  0  0  0  0  0  0  0  0
    5.1780   11.5004   18.7815 S   0  0  0  0  0  0  0  0  0  0  0  0
    3.7988   11.9564   17.7333 C   0  0  0  0  0  0  0  0  0  0  0  0
    2.5016   11.9237   18.5118 C   0  0  0  0  0  0  0  0  0  0  0  0
    1.8586   14.2502   18.6127 N   0  0  0  0  0  0  0  0  0  0  0  0
    1.5799   12.9814   17.9487 C   0  0  0  0  0  0  0  0  0  0  0  0
    2.8384   14.4980   18.4749 H   0  0  0  0  0  0  0  0  0  0  0  0
    1.6676   14.1608   19.6106 H   0  0  0  0  0  0  0  0  0  0  0  0
    0.1341   12.5347   18.1044 C   0  0  0  0  0  0  0  0  0  0  0  0
   -0.7514   13.0174   17.3991 O   0  0  0  0  0  0  0  0  0  0  0  0
   -0.1781   11.6796   18.9338 O   0  0  0  0  0  0  0  0  0  0  0  0
    0.4783   11.2973   19.4824 H   0  0  0  0  0  0  0  0  0  0  0  0
 26 27  1  0  0  0
 27 25  1  0  0  0
 27 30  1  0  0  0
 25 24  1  0  0  0
 24 23  1  0  0  0
 23 22  1  0  0  0
 30 31  2  0  0  0
 30 32  1  0  0  0
 22  1  1  0  0  0
  1  2  1  0  0  0
  1  3  1  0  0  0
  2  7  1  0  0  0
  3  4  1  0  0  0
  3  5  1  0  0  0
  5  6  1  0  0  0
  5  7  1  0  0  0
  7 10  1  0  0  0
 10 11  1  0  0  0
 10 19  1  0  0  0
 11 12  2  0  0  0
 12 13  1  0  0  0
 13 14  1  0  0  0
 13 19  2  0  0  0
 14 15  1  0  0  0
 14 16  2  0  0  0
 16 17  1  0  0  0
 17 18  2  0  0  0
 18 19  1  0  0  0
 26 28  1  0  0  0
 26 29  1  0  0  0
 32 33  1  0  0  0
  4  8  1  0  0  0
  6  9  1  0  0  0
 15 20  1  0  0  0
 15 21  1  0  0  0
M  END
> <minimizedAffinity>
-9.64912

$$$$
4JAL_SAH_A_201


 33 35  0  0  0  0  0  0  0  0999 V2000
    6.4106    9.1057   19.3812 C   0  0  0  0  0  0  0  0  0  0  0  0
    5.5276    8.6806   18.3602 O   0  0  0  0  0  0  0  0  0  0  0  0
    7.7632    8.4986   19.0291 C   0  0  0  0  0  0  0  0  0  0  0  0
    8.5736    8.3846   20.1635 O   0  0  0  0  0  0  0  0  0  0  0  0
    7.3631    7.1529   18.4799 C   0  0  0  0  0  0  0  0  0  0  0  0
    7.1663    6.2279   19.5334 O   0  0  0  0  0  0  0  0  0  0  0  0
    6.0090    7.4496   17.8524 C   0  0  0  0  0  0  0  0  0  0  0  0
    8.1123    7.8635   20.8393 H   0  0  0  0  0  0  0  0  0  0  0  0
    6.5080    6.5790   20.1532 H   0  0  0  0  0  0  0  0  0  0  0  0
    6.1601    7.5539   16.3843 N   0  0  0  0  0  0  0  0  0  0  0  0
    5.6761    8.5124   15.5410 C   0  0  0  0  0  0  0  0  0  0  0  0
    6.0433    8.2019   14.2779 N   0  0  0  0  0  0  0  0  0  0  0  0
    6.7540    7.0526   14.3074 C   0  0  0  0  0  0  0  0  0  0  0  0
    7.3682    6.2883   13.3194 C   0  0  0  0  0  0  0  0  0  0  0  0
    7.3190    6.6481   12.0322 N   0  0  0  0  0  0  0  0  0  0  0  0
    8.0388    5.1436   13.6940 N   0  0  0  0  0  0  0  0  0  0  0  0
    8.1122    4.7559   15.0144 C   0  0  0  0  0  0  0  0  0  0  0  0
    7.4913    5.5195   15.9834 N   0  0  0  0  0  0  0  0  0  0  0  0
    6.8304    6.6398   15.6315 C   0  0  0  0  0  0  0  0  0  0  0  0
    6.8393    7.4661   11.7678 H   0  0  0  0  0  0  0  0  0  0  0  0
    7.7624    6.0948   11.3492 H   0  0  0  0  0  0  0  0  0  0  0  0
    6.4606   10.6226   19.4678 C   0  0  0  0  0  0  0  0  0  0  0  0
    6.0916   11.4585   17.9089 S   0  0  0  0  0  0  0  0  0  0  0  0
    7.7727   12.0731   17.9796 C   0  0  0  0  0  0  0  0  0  0  0  0
    8.6527   11.3387   16.9915 C   0  0  0  0  0  0  0  0  0  0  0  0
   10.7065   12.2962   16.1542 N   0  0  0  0  0  0  0  0  0  0  0  0
   10.0962   11.6525   17.3125 C   0  0  0  0  0  0  0  0  0  0  0  0
   10.1846   13.1408   15.9203 H   0  0  0  0  0  0  0  0  0  0  0  0
   10.6894   11.6554   15.3608 H   0  0  0  0  0  0  0  0  0  0  0  0
   10.8151   10.3791   17.7313 C   0  0  0  0  0  0  0  0  0  0  0  0
   10.8254   10.0225   18.9092 O   0  0  0  0  0  0  0  0  0  0  0  0
   11.3955    9.6780   16.9018 O   0  0  0  0  0  0  0  0  0  0  0  0
   11.4017    9.9285   15.9989 H   0  0  0  0  0  0  0  0  0  0  0  0
 26 27  1  0  0  0
 27 25  1  0  0  0
 27 30  1  0  0  0
 25 24  1  0  0  0
 24 23  1  0  0  0
 23 22  1  0  0  0
 30 31  2  0  0  0
 30 32  1  0  0  0
 22  1  1  0  0  0
  1  2  1  0  0  0
  1  3  1  0  0  0
  2  7  1  0  0  0
  3  4  1  0  0  0
  3  5  1  0  0  0
  5  6  1  0  0  0
  5  7  1  0  0  0
  7 10  1  0  0  0
 10 11  1  0  0  0
 10 19  1  0  0  0
 11 12  2  0  0  0
 12 13  1  0  0  0
 13 14  1  0  0  0
 13 19  2  0  0  0
 14 15  1  0  0  0
 14 16  2  0  0  0
 16 17  1  0  0  0
 17 18  2  0  0  0
 18 19  1  0  0  0
 26 28  1  0  0  0
 26 29  1  0  0  0
 32 33  1  0  0  0
  4  8  1  0  0  0
  6  9  1  0  0  0
 15 20  1  0  0  0
 15 21  1  0  0  0
M  END
> <minimizedAffinity>
-9.43554

$$$$
4JAL_SAH_A_201


 33 35  0  0  0  0  0  0  0  0999 V2000
    4.9955    8.5829   17.8263 C   0  0  0  0  0  0  0  0  0  0  0  0
    6.3774    8.4534   18.1027 O   0  0  0  0  0  0  0  0  0  0  0  0
    4.7018   10.0759   17.9073 C   0  0  0  0  0  0  0  0  0  0  0  0
    3.3489   10.3083   18.1761 O   0  0  0  0  0  0  0  0  0  0  0  0
    5.5887   10.5027   19.0491 C   0  0  0  0  0  0  0  0  0  0  0  0
    4.9498   10.2592   20.2888 O   0  0  0  0  0  0  0  0  0  0  0  0
    6.7612    9.5407   18.9247 C   0  0  0  0  0  0  0  0  0  0  0  0
    3.0982    9.8493   18.9930 H   0  0  0  0  0  0  0  0  0  0  0  0
    4.7050    9.3225   20.3478 H   0  0  0  0  0  0  0  0  0  0  0  0
    7.9071   10.2405   18.3033 N   0  0  0  0  0  0  0  0  0  0  0  0
    7.8961   11.2790   17.4171 C   0  0  0  0  0  0  0  0  0  0  0  0
    9.1728   11.5930   17.1035 N   0  0  0  0  0  0  0  0  0  0  0  0
    9.9976   10.7621   17.7789 C   0  0  0  0  0  0  0  0  0  0  0  0
   11.3828   10.6371   17.8371 C   0  0  0  0  0  0  0  0  0  0  0  0
   12.1827   11.4376   17.1245 N   0  0  0  0  0  0  0  0  0  0  0  0
   11.9225    9.6661   18.6532 N   0  0  0  0  0  0  0  0  0  0  0  0
   11.1206    8.8347   19.4047 C   0  0  0  0  0  0  0  0  0  0  0  0
    9.7475    8.9646   19.3310 N   0  0  0  0  0  0  0  0  0  0  0  0
    9.2058    9.9079   18.5358 C   0  0  0  0  0  0  0  0  0  0  0  0
   11.7942   12.1302   16.5425 H   0  0  0  0  0  0  0  0  0  0  0  0
   13.1601   11.3344   17.1820 H   0  0  0  0  0  0  0  0  0  0  0  0
    4.6500    7.9967   16.4668 C   0  0  0  0  0  0  0  0  0  0  0  0
    5.8857    8.3269   15.1905 S   0  0  0  0  0  0  0  0  0  0  0  0
    5.7404    6.5915   14.7707 C   0  0  0  0  0  0  0  0  0  0  0  0
    6.4611    6.2927   13.4740 C   0  0  0  0  0  0  0  0  0  0  0  0
    8.6470    5.9238   12.5141 N   0  0  0  0  0  0  0  0  0  0  0  0
    7.9442    6.2201   13.7577 C   0  0  0  0  0  0  0  0  0  0  0  0
    8.4345    6.6438   11.8236 H   0  0  0  0  0  0  0  0  0  0  0  0
    8.3460    5.0152   12.1615 H   0  0  0  0  0  0  0  0  0  0  0  0
    8.2062    5.1915   14.8473 C   0  0  0  0  0  0  0  0  0  0  0  0
    7.9522    5.4455   16.0245 O   0  0  0  0  0  0  0  0  0  0  0  0
    8.6719    4.0847   14.5740 O   0  0  0  0  0  0  0  0  0  0  0  0
    8.8734    3.8678   13.6850 H   0  0  0  0  0  0  0  0  0  0  0  0
 26 27  1  0  0  0
 27 25  1  0  0  0
 27 30  1  0  0  0
 25 24  1  0  0  0
 24 23  1  0  0  0
 23 22  1  0  0  0
 30 31  2  0  0  0
 30 32  1  0  0  0
 22  1  1  0  0  0
  1  2  1  0  0  0
  1  3  1  0  0  0
  2  7  1  0  0  0
  3  4  1  0  0  0
  3  5  1  0  0  0
  5  6  1  0  0  0
  5  7  1  0  0  0
  7 10  1  0  0  0
 10 11  1  0  0  0
 10 19  1  0  0  0
 11 12  2  0  0  0
 12 13  1  0  0  0
 13 14  1  0  0  0
 13 19  2  0  0  0
 14 15  1  0  0  0
 14 16  2  0  0  0
 16 17  1  0  0  0
 17 18  2  0  0  0
 18 19  1  0  0  0
 26 28  1  0  0  0
 26 29  1  0  0  0
 32 33  1  0  0  0
  4  8  1  0  0  0
  6  9  1  0  0  0
 15 20  1  0  0  0
 15 21  1  0  0  0
M  END
> <minimizedAffinity>
-9.31501

$$$$
4JAL_SAH_A_201


 33 35  0  0  0  0  0  0  0  0999 V2000
    5.3368    8.5974   18.8628 C   0  0  0  0  0  0  0  0  0  0  0  0
    6.6793    8.8334   19.2435 O   0  0  0  0  0  0  0  0  0  0  0  0
    4.9964    9.6984   17.8659 C   0  0  0  0  0  0  0  0  0  0  0  0
    3.6155    9.9138   17.8071 O   0  0  0  0  0  0  0  0  0  0  0  0
    5.7305   10.8792   18.4485 C   0  0  0  0  0  0  0  0  0  0  0  0
    4.9563   11.4905   19.4639 O   0  0  0  0  0  0  0  0  0  0  0  0
    6.9344   10.2193   19.1049 C   0  0  0  0  0  0  0  0  0  0  0  0
    3.2822   10.1189   18.6946 H   0  0  0  0  0  0  0  0  0  0  0  0
    4.7309   10.8319   20.1395 H   0  0  0  0  0  0  0  0  0  0  0  0
    8.1269   10.4122   18.2506 N   0  0  0  0  0  0  0  0  0  0  0  0
    8.7842    9.4960   17.4807 C   0  0  0  0  0  0  0  0  0  0  0  0
    9.8293   10.1071   16.8797 N   0  0  0  0  0  0  0  0  0  0  0  0
    9.8465   11.4034   17.2618 C   0  0  0  0  0  0  0  0  0  0  0  0
   10.6817   12.4742   16.9561 C   0  0  0  0  0  0  0  0  0  0  0  0
   11.7234   12.3286   16.1302 N   0  0  0  0  0  0  0  0  0  0  0  0
   10.4123   13.7020   17.5222 N   0  0  0  0  0  0  0  0  0  0  0  0
    9.3398   13.8807   18.3689 C   0  0  0  0  0  0  0  0  0  0  0  0
    8.5241   12.8076   18.6699 N   0  0  0  0  0  0  0  0  0  0  0  0
    8.7768   11.6011   18.1256 C   0  0  0  0  0  0  0  0  0  0  0  0
   11.9133   11.4505   15.7275 H   0  0  0  0  0  0  0  0  0  0  0  0
   12.3004   13.0994   15.9249 H   0  0  0  0  0  0  0  0  0  0  0  0
    5.1701    7.2071   18.2708 C   0  0  0  0  0  0  0  0  0  0  0  0
    6.7214    6.3004   18.0804 S   0  0  0  0  0  0  0  0  0  0  0  0
    6.4700    6.4800   16.3159 C   0  0  0  0  0  0  0  0  0  0  0  0
    7.7922    6.4449   15.5808 C   0  0  0  0  0  0  0  0  0  0  0  0
    8.7571    4.4258   14.6708 N   0  0  0  0  0  0  0  0  0  0  0  0
    7.6996    5.4126   14.4803 C   0  0  0  0  0  0  0  0  0  0  0  0
    8.6612    3.9982   15.5919 H   0  0  0  0  0  0  0  0  0  0  0  0
    9.6659    4.8836   14.6014 H   0  0  0  0  0  0  0  0  0  0  0  0
    7.7678    6.1020   13.1260 C   0  0  0  0  0  0  0  0  0  0  0  0
    6.8381    6.8060   12.7325 O   0  0  0  0  0  0  0  0  0  0  0  0
    8.7542    5.9742   12.3999 O   0  0  0  0  0  0  0  0  0  0  0  0
    9.4747    5.4434   12.6775 H   0  0  0  0  0  0  0  0  0  0  0  0
 26 27  1  0  0  0
 27 25  1  0  0  0
 27 30  1  0  0  0
 25 24  1  0  0  0
 24 23  1  0  0  0
 23 22  1  0  0  0
 30 31  2  0  0  0
 30 32  1  0  0  0
 22  1  1  0  0  0
  1  2  1  0  0  0
  1  3  1  0  0  0
  2  7  1  0  0  0
  3  4  1  0  0  0
  3  5  1  0  0  0
  5  6  1  0  0  0
  5  7  1  0  0  0
  7 10  1  0  0  0
 10 11  1  0  0  0
 10 19  1  0  0  0
 11 12  2  0  0  0
 12 13  1  0  0  0
 13 14  1  0  0  0
 13 19  2  0  0  0
 14 15  1  0  0  0
 14 16  2  0  0  0
 16 17  1  0  0  0
 17 18  2  0  0  0
 18 19  1  0  0  0
 26 28  1  0  0  0
 26 29  1  0  0  0
 32 33  1  0  0  0
  4  8  1  0  0  0
  6  9  1  0  0  0
 15 20  1  0  0  0
 15 21  1  0  0  0
M  END
> <minimizedAffinity>
-9.24413

$$$$
4JAL_SAH_A_201


 33 35  0  0  0  0  0  0  0  0999 V2000
    6.1841   10.8314   18.0500 C   0  0  0  0  0  0  0  0  0  0  0  0
    6.4102   10.0989   16.8603 O   0  0  0  0  0  0  0  0  0  0  0  0
    5.6189    9.8264   19.0461 C   0  0  0  0  0  0  0  0  0  0  0  0
    4.8790   10.4695   20.0440 O   0  0  0  0  0  0  0  0  0  0  0  0
    4.7515    8.9690   18.1600 C   0  0  0  0  0  0  0  0  0  0  0  0
    3.4846    9.5732   17.9749 O   0  0  0  0  0  0  0  0  0  0  0  0
    5.4965    9.0175   16.8341 C   0  0  0  0  0  0  0  0  0  0  0  0
    4.1782   11.0010   19.6350 H   0  0  0  0  0  0  0  0  0  0  0  0
    3.6018   10.4666   17.6158 H   0  0  0  0  0  0  0  0  0  0  0  0
    6.2423    7.7540   16.6431 N   0  0  0  0  0  0  0  0  0  0  0  0
    6.7148    6.8891   17.5880 C   0  0  0  0  0  0  0  0  0  0  0  0
    7.3486    5.8715   16.9637 N   0  0  0  0  0  0  0  0  0  0  0  0
    7.2877    6.0814   15.6299 C   0  0  0  0  0  0  0  0  0  0  0  0
    7.7610    5.3681   14.5322 C   0  0  0  0  0  0  0  0  0  0  0  0
    8.4358    4.2238   14.6861 N   0  0  0  0  0  0  0  0  0  0  0  0
    7.5166    5.8644   13.2695 N   0  0  0  0  0  0  0  0  0  0  0  0
    6.8157    7.0362   13.0834 C   0  0  0  0  0  0  0  0  0  0  0  0
    6.3590    7.7378   14.1820 N   0  0  0  0  0  0  0  0  0  0  0  0
    6.5924    7.2658   15.4223 C   0  0  0  0  0  0  0  0  0  0  0  0
    8.6088    3.8720   15.5891 H   0  0  0  0  0  0  0  0  0  0  0  0
    8.7596    3.7333   13.8963 H   0  0  0  0  0  0  0  0  0  0  0  0
    7.4654   11.4820   18.5462 C   0  0  0  0  0  0  0  0  0  0  0  0
    8.0825   12.7983   17.4731 S   0  0  0  0  0  0  0  0  0  0  0  0
    9.3155   11.6160   16.9340 C   0  0  0  0  0  0  0  0  0  0  0  0
   10.1310   11.1205   18.1084 C   0  0  0  0  0  0  0  0  0  0  0  0
    9.5005    9.0180   17.0993 N   0  0  0  0  0  0  0  0  0  0  0  0
   10.5677    9.7018   17.8219 C   0  0  0  0  0  0  0  0  0  0  0  0
    9.2934    9.5252   16.2389 H   0  0  0  0  0  0  0  0  0  0  0  0
    8.6643    8.9816   17.6822 H   0  0  0  0  0  0  0  0  0  0  0  0
   10.9414    9.0094   19.1237 C   0  0  0  0  0  0  0  0  0  0  0  0
   12.0733    9.1242   19.5933 O   0  0  0  0  0  0  0  0  0  0  0  0
   10.1198    8.3258   19.7355 O   0  0  0  0  0  0  0  0  0  0  0  0
    9.2517    8.2234   19.3981 H   0  0  0  0  0  0  0  0  0  0  0  0
 26 27  1  0  0  0
 27 25  1  0  0  0
 27 30  1  0  0  0
 25 24  1  0  0  0
 24 23  1  0  0  0
 23 22  1  0  0  0
 30 31  2  0  0  0
 30 32  1  0  0  0
 22  1  1  0  0  0
  1  2  1  0  0  0
  1  3  1  0  0  0
  2  7  1  0  0  0
  3  4  1  0  0  0
  3  5  1  0  0  0
  5  6  1  0  0  0
  5  7  1  0  0  0
  7 10  1  0  0  0
 10 11  1  0  0  0
 10 19  1  0  0  0
 11 12  2  0  0  0
 12 13  1  0  0  0
 13 14  1  0  0  0
 13 19  2  0  0  0
 14 15  1  0  0  0
 14 16  2  0  0  0
 16 17  1  0  0  0
 17 18  2  0  0  0
 18 19  1  0  0  0
 26 28  1  0  0  0
 26 29  1  0  0  0
 32 33  1  0  0  0
  4  8  1  0  0  0
  6  9  1  0  0  0
 15 20  1  0  0  0
 15 21  1  0  0  0
M  END
> <minimizedAffinity>
-9.23772

$$$$
4JAL_SAH_A_201


 33 35  0  0  0  0  0  0  0  0999 V2000
    5.6385    8.9244   19.3656 C   0  0  0  0  0  0  0  0  0  0  0  0
    5.0062    8.2499   18.2941 O   0  0  0  0  0  0  0  0  0  0  0  0
    7.1340    8.7884   19.1070 C   0  0  0  0  0  0  0  0  0  0  0  0
    7.8638    8.9277   20.2921 O   0  0  0  0  0  0  0  0  0  0  0  0
    7.2237    7.3919   18.5462 C   0  0  0  0  0  0  0  0  0  0  0  0
    7.2679    6.4406   19.5937 O   0  0  0  0  0  0  0  0  0  0  0  0
    5.8891    7.2449   17.8301 C   0  0  0  0  0  0  0  0  0  0  0  0
    7.5523    8.2783   20.9419 H   0  0  0  0  0  0  0  0  0  0  0  0
    6.4934    6.5543   20.1665 H   0  0  0  0  0  0  0  0  0  0  0  0
    6.0922    7.4092   16.3738 N   0  0  0  0  0  0  0  0  0  0  0  0
    5.6109    8.3842   15.5482 C   0  0  0  0  0  0  0  0  0  0  0  0
    6.0350    8.1329   14.2897 N   0  0  0  0  0  0  0  0  0  0  0  0
    6.7793    7.0048   14.3046 C   0  0  0  0  0  0  0  0  0  0  0  0
    7.4537    6.2970   13.3137 C   0  0  0  0  0  0  0  0  0  0  0  0
    7.4419    6.7037   12.0397 N   0  0  0  0  0  0  0  0  0  0  0  0
    8.1448    5.1593   13.6718 N   0  0  0  0  0  0  0  0  0  0  0  0
    8.1804    4.7241   14.9788 C   0  0  0  0  0  0  0  0  0  0  0  0
    7.5000    5.4317   15.9504 N   0  0  0  0  0  0  0  0  0  0  0  0
    6.8184    6.5445   15.6146 C   0  0  0  0  0  0  0  0  0  0  0  0
    6.9475    7.5167   11.7871 H   0  0  0  0  0  0  0  0  0  0  0  0
    7.9277    6.1902   11.3545 H   0  0  0  0  0  0  0  0  0  0  0  0
    5.1925   10.3758   19.4406 C   0  0  0  0  0  0  0  0  0  0  0  0
    5.4917   11.3140   17.9256 S   0  0  0  0  0  0  0  0  0  0  0  0
    6.6627   12.2667   18.8900 C   0  0  0  0  0  0  0  0  0  0  0  0
    7.9833   12.3873   18.1609 C   0  0  0  0  0  0  0  0  0  0  0  0
    7.5715   14.6069   19.0213 N   0  0  0  0  0  0  0  0  0  0  0  0
    8.3178   13.8547   18.0184 C   0  0  0  0  0  0  0  0  0  0  0  0
    7.8066   14.2597   19.9512 H   0  0  0  0  0  0  0  0  0  0  0  0
    6.5713   14.4916   18.8581 H   0  0  0  0  0  0  0  0  0  0  0  0
    8.0259   14.3095   16.5965 C   0  0  0  0  0  0  0  0  0  0  0  0
    6.9568   14.8520   16.3179 O   0  0  0  0  0  0  0  0  0  0  0  0
    8.8531   14.1493   15.6984 O   0  0  0  0  0  0  0  0  0  0  0  0
    9.6744   13.7388   15.8857 H   0  0  0  0  0  0  0  0  0  0  0  0
 26 27  1  0  0  0
 27 25  1  0  0  0
 27 30  1  0  0  0
 25 24  1  0  0  0
 24 23  1  0  0  0
 23 22  1  0  0  0
 30 31  2  0  0  0
 30 32  1  0  0  0
 22  1  1  0  0  0
  1  2  1  0  0  0
  1  3  1  0  0  0
  2  7  1  0  0  0
  3  4  1  0  0  0
  3  5  1  0  0  0
  5  6  1  0  0  0
  5  7  1  0  0  0
  7 10  1  0  0  0
 10 11  1  0  0  0
 10 19  1  0  0  0
 11 12  2  0  0  0
 12 13  1  0  0  0
 13 14  1  0  0  0
 13 19  2  0  0  0
 14 15  1  0  0  0
 14 16  2  0  0  0
 16 17  1  0  0  0
 17 18  2  0  0  0
 18 19  1  0  0  0
 26 28  1  0  0  0
 26 29  1  0  0  0
 32 33  1  0  0  0
  4  8  1  0  0  0
  6  9  1  0  0  0
 15 20  1  0  0  0
 15 21  1  0  0  0
M  END
> <minimizedAffinity>
-8.89019

$$$$
4JAL_SAH_A_201


 33 35  0  0  0  0  0  0  0  0999 V2000
    8.0486    8.3112   18.3057 C   0  0  0  0  0  0  0  0  0  0  0  0
    7.6716    9.1647   17.2416 O   0  0  0  0  0  0  0  0  0  0  0  0
    8.9992    9.1316   19.1689 C   0  0  0  0  0  0  0  0  0  0  0  0
    9.8364    8.3023   19.9225 O   0  0  0  0  0  0  0  0  0  0  0  0
    9.7614    9.9138   18.1297 C   0  0  0  0  0  0  0  0  0  0  0  0
   10.8248    9.1379   17.6087 O   0  0  0  0  0  0  0  0  0  0  0  0
    8.7227   10.0900   17.0317 C   0  0  0  0  0  0  0  0  0  0  0  0
   10.3174    7.7038   19.3297 H   0  0  0  0  0  0  0  0  0  0  0  0
   10.4743    8.3058   17.2542 H   0  0  0  0  0  0  0  0  0  0  0  0
    8.1793   11.4651   17.0855 N   0  0  0  0  0  0  0  0  0  0  0  0
    7.0652   11.9193   17.7308 C   0  0  0  0  0  0  0  0  0  0  0  0
    6.9408   13.2448   17.4971 N   0  0  0  0  0  0  0  0  0  0  0  0
    7.9633   13.6391   16.7059 C   0  0  0  0  0  0  0  0  0  0  0  0
    8.3278   14.8688   16.1649 C   0  0  0  0  0  0  0  0  0  0  0  0
    7.6026   15.9694   16.3913 N   0  0  0  0  0  0  0  0  0  0  0  0
    9.4634   14.9349   15.3862 N   0  0  0  0  0  0  0  0  0  0  0  0
   10.2331   13.8175   15.1455 C   0  0  0  0  0  0  0  0  0  0  0  0
    9.8551   12.6022   15.6820 N   0  0  0  0  0  0  0  0  0  0  0  0
    8.7462   12.5222   16.4433 C   0  0  0  0  0  0  0  0  0  0  0  0
    6.7920   15.9190   16.9478 H   0  0  0  0  0  0  0  0  0  0  0  0
    7.8793   16.8300   16.0014 H   0  0  0  0  0  0  0  0  0  0  0  0
    6.8325    7.8285   19.0798 C   0  0  0  0  0  0  0  0  0  0  0  0
    5.5280    7.1363   18.0387 S   0  0  0  0  0  0  0  0  0  0  0  0
    6.7012    5.8440   17.6359 C   0  0  0  0  0  0  0  0  0  0  0  0
    6.5676    5.4333   16.1856 C   0  0  0  0  0  0  0  0  0  0  0  0
    6.9129    7.3272   14.7262 N   0  0  0  0  0  0  0  0  0  0  0  0
    7.5834    6.2055   15.3750 C   0  0  0  0  0  0  0  0  0  0  0  0
    6.4748    7.9168   15.4339 H   0  0  0  0  0  0  0  0  0  0  0  0
    6.1995    6.9741   14.0885 H   0  0  0  0  0  0  0  0  0  0  0  0
    8.2668    5.2711   14.3882 C   0  0  0  0  0  0  0  0  0  0  0  0
    8.3656    5.5763   13.2000 O   0  0  0  0  0  0  0  0  0  0  0  0
    8.7386    4.1954   14.7582 O   0  0  0  0  0  0  0  0  0  0  0  0
    8.6758    3.9409   15.6578 H   0  0  0  0  0  0  0  0  0  0  0  0
 26 27  1  0  0  0
 27 25  1  0  0  0
 27 30  1  0  0  0
 25 24  1  0  0  0
 24 23  1  0  0  0
 23 22  1  0  0  0
 30 31  2  0  0  0
 30 32  1  0  0  0
 22  1  1  0  0  0
  1  2  1  0  0  0
  1  3  1  0  0  0
  2  7  1  0  0  0
  3  4  1  0  0  0
  3  5  1  0  0  0
  5  6  1  0  0  0
  5  7  1  0  0  0
  7 10  1  0  0  0
 10 11  1  0  0  0
 10 19  1  0  0  0
 11 12  2  0  0  0
 12 13  1  0  0  0
 13 14  1  0  0  0
 13 19  2  0  0  0
 14 15  1  0  0  0
 14 16  2  0  0  0
 16 17  1  0  0  0
 17 18  2  0  0  0
 18 19  1  0  0  0
 26 28  1  0  0  0
 26 29  1  0  0  0
 32 33  1  0  0  0
  4  8  1  0  0  0
  6  9  1  0  0  0
 15 20  1  0  0  0
 15 21  1  0  0  0
M  END
> <minimizedAffinity>
-8.62326

$$$$
4JAL_SAH_A_201


 33 35  0  0  0  0  0  0  0  0999 V2000
    8.0329    7.4916   17.6081 C   0  0  0  0  0  0  0  0  0  0  0  0
    8.4981    8.7166   17.0734 O   0  0  0  0  0  0  0  0  0  0  0  0
    7.5274    7.8233   19.0068 C   0  0  0  0  0  0  0  0  0  0  0  0
    7.5316    6.6888   19.8250 O   0  0  0  0  0  0  0  0  0  0  0  0
    8.5301    8.8536   19.4603 C   0  0  0  0  0  0  0  0  0  0  0  0
    9.6886    8.2229   19.9746 O   0  0  0  0  0  0  0  0  0  0  0  0
    8.9048    9.5371   18.1534 C   0  0  0  0  0  0  0  0  0  0  0  0
    8.4241    6.3096   19.8475 H   0  0  0  0  0  0  0  0  0  0  0  0
   10.0567    7.6265   19.3040 H   0  0  0  0  0  0  0  0  0  0  0  0
    8.2101   10.8403   18.0636 N   0  0  0  0  0  0  0  0  0  0  0  0
    7.1469   11.2941   18.7901 C   0  0  0  0  0  0  0  0  0  0  0  0
    6.8313   12.5371   18.3635 N   0  0  0  0  0  0  0  0  0  0  0  0
    7.6810   12.8788   17.3695 C   0  0  0  0  0  0  0  0  0  0  0  0
    7.8160   14.0198   16.5836 C   0  0  0  0  0  0  0  0  0  0  0  0
    6.9995   15.0680   16.7353 N   0  0  0  0  0  0  0  0  0  0  0  0
    8.8188   14.0533   15.6383 N   0  0  0  0  0  0  0  0  0  0  0  0
    9.6792   12.9903   15.4685 C   0  0  0  0  0  0  0  0  0  0  0  0
    9.5286   11.8613   16.2497 N   0  0  0  0  0  0  0  0  0  0  0  0
    8.5514   11.8136   17.1762 C   0  0  0  0  0  0  0  0  0  0  0  0
    6.2843   15.0411   17.4113 H   0  0  0  0  0  0  0  0  0  0  0  0
    7.1137   15.8666   16.1710 H   0  0  0  0  0  0  0  0  0  0  0  0
    6.9513    6.8842   16.7293 C   0  0  0  0  0  0  0  0  0  0  0  0
    5.4905    7.9299   16.5362 S   0  0  0  0  0  0  0  0  0  0  0  0
    5.9391    8.0296   14.8048 C   0  0  0  0  0  0  0  0  0  0  0  0
    6.0957    6.6460   14.2123 C   0  0  0  0  0  0  0  0  0  0  0  0
    6.2532    6.3941   11.8148 N   0  0  0  0  0  0  0  0  0  0  0  0
    7.0105    6.7410   13.0125 C   0  0  0  0  0  0  0  0  0  0  0  0
    5.4538    7.0212   11.7245 H   0  0  0  0  0  0  0  0  0  0  0  0
    5.9237    5.4316   11.8878 H   0  0  0  0  0  0  0  0  0  0  0  0
    8.2259    5.8512   13.2249 C   0  0  0  0  0  0  0  0  0  0  0  0
    9.2080    5.9438   12.4890 O   0  0  0  0  0  0  0  0  0  0  0  0
    8.2538    5.0257   14.1383 O   0  0  0  0  0  0  0  0  0  0  0  0
    7.5183    4.9365   14.7119 H   0  0  0  0  0  0  0  0  0  0  0  0
 26 27  1  0  0  0
 27 25  1  0  0  0
 27 30  1  0  0  0
 25 24  1  0  0  0
 24 23  1  0  0  0
 23 22  1  0  0  0
 30 31  2  0  0  0
 30 32  1  0  0  0
 22  1  1  0  0  0
  1  2  1  0  0  0
  1  3  1  0  0  0
  2  7  1  0  0  0
  3  4  1  0  0  0
  3  5  1  0  0  0
  5  6  1  0  0  0
  5  7  1  0  0  0
  7 10  1  0  0  0
 10 11  1  0  0  0
 10 19  1  0  0  0
 11 12  2  0  0  0
 12 13  1  0  0  0
 13 14  1  0  0  0
 13 19  2  0  0  0
 14 15  1  0  0  0
 14 16  2  0  0  0
 16 17  1  0  0  0
 17 18  2  0  0  0
 18 19  1  0  0  0
 26 28  1  0  0  0
 26 29  1  0  0  0
 32 33  1  0  0  0
  4  8  1  0  0  0
  6  9  1  0  0  0
 15 20  1  0  0  0
 15 21  1  0  0  0
M  END
> <minimizedAffinity>
-8.47983

$$$$
4JAL_SAH_A_201


 33 35  0  0  0  0  0  0  0  0999 V2000
    6.1494   10.8357   18.1095 C   0  0  0  0  0  0  0  0  0  0  0  0
    6.4163   10.1390   16.9068 O   0  0  0  0  0  0  0  0  0  0  0  0
    5.5803    9.7947   19.0657 C   0  0  0  0  0  0  0  0  0  0  0  0
    4.8059   10.3978   20.0623 O   0  0  0  0  0  0  0  0  0  0  0  0
    4.7496    8.9455   18.1376 C   0  0  0  0  0  0  0  0  0  0  0  0
    3.4762    9.5314   17.9386 O   0  0  0  0  0  0  0  0  0  0  0  0
    5.5237    9.0424   16.8312 C   0  0  0  0  0  0  0  0  0  0  0  0
    4.1049   10.9272   19.6510 H   0  0  0  0  0  0  0  0  0  0  0  0
    3.5850   10.4360   17.6057 H   0  0  0  0  0  0  0  0  0  0  0  0
    6.2971    7.7980   16.6250 N   0  0  0  0  0  0  0  0  0  0  0  0
    6.8337    6.9602   17.5599 C   0  0  0  0  0  0  0  0  0  0  0  0
    7.4700    5.9524   16.9225 N   0  0  0  0  0  0  0  0  0  0  0  0
    7.3470    6.1417   15.5899 C   0  0  0  0  0  0  0  0  0  0  0  0
    7.7942    5.4268   14.4823 C   0  0  0  0  0  0  0  0  0  0  0  0
    8.5078    4.3044   14.6221 N   0  0  0  0  0  0  0  0  0  0  0  0
    7.4827    5.8982   13.2248 N   0  0  0  0  0  0  0  0  0  0  0  0
    6.7410    7.0469   13.0536 C   0  0  0  0  0  0  0  0  0  0  0  0
    6.3107    7.7506   14.1615 N   0  0  0  0  0  0  0  0  0  0  0  0
    6.6096    7.3029   15.3967 C   0  0  0  0  0  0  0  0  0  0  0  0
    8.7286    3.9704   15.5214 H   0  0  0  0  0  0  0  0  0  0  0  0
    8.8122    3.8123   13.8256 H   0  0  0  0  0  0  0  0  0  0  0  0
    7.4066   11.4960   18.6522 C   0  0  0  0  0  0  0  0  0  0  0  0
    8.9221   10.9943   17.8059 S   0  0  0  0  0  0  0  0  0  0  0  0
    9.1175   12.7248   17.3861 C   0  0  0  0  0  0  0  0  0  0  0  0
    8.5763   13.6074   18.4898 C   0  0  0  0  0  0  0  0  0  0  0  0
    9.1497   15.9239   18.8650 N   0  0  0  0  0  0  0  0  0  0  0  0
    8.4548   15.0171   17.9576 C   0  0  0  0  0  0  0  0  0  0  0  0
   10.1258   15.6398   18.9481 H   0  0  0  0  0  0  0  0  0  0  0  0
    8.7068   15.8916   19.7832 H   0  0  0  0  0  0  0  0  0  0  0  0
    6.9864   15.3697   17.7752 C   0  0  0  0  0  0  0  0  0  0  0  0
    6.3080   14.8081   16.9155 O   0  0  0  0  0  0  0  0  0  0  0  0
    6.4464   16.2184   18.4857 O   0  0  0  0  0  0  0  0  0  0  0  0
    6.9420   16.6597   19.1472 H   0  0  0  0  0  0  0  0  0  0  0  0
 26 27  1  0  0  0
 27 25  1  0  0  0
 27 30  1  0  0  0
 25 24  1  0  0  0
 24 23  1  0  0  0
 23 22  1  0  0  0
 30 31  2  0  0  0
 30 32  1  0  0  0
 22  1  1  0  0  0
  1  2  1  0  0  0
  1  3  1  0  0  0
  2  7  1  0  0  0
  3  4  1  0  0  0
  3  5  1  0  0  0
  5  6  1  0  0  0
  5  7  1  0  0  0
  7 10  1  0  0  0
 10 11  1  0  0  0
 10 19  1  0  0  0
 11 12  2  0  0  0
 12 13  1  0  0  0
 13 14  1  0  0  0
 13 19  2  0  0  0
 14 15  1  0  0  0
 14 16  2  0  0  0
 16 17  1  0  0  0
 17 18  2  0  0  0
 18 19  1  0  0  0
 26 28  1  0  0  0
 26 29  1  0  0  0
 32 33  1  0  0  0
  4  8  1  0  0  0
  6  9  1  0  0  0
 15 20  1  0  0  0
 15 21  1  0  0  0
M  END
> <minimizedAffinity>
-8.20569

$$$$
4JAL_SAH_A_201


 33 35  0  0  0  0  0  0  0  0999 V2000
    4.2981   11.2269   18.6883 C   0  0  0  0  0  0  0  0  0  0  0  0
    4.0504    9.9725   18.0817 O   0  0  0  0  0  0  0  0  0  0  0  0
    5.8010   11.4479   18.5684 C   0  0  0  0  0  0  0  0  0  0  0  0
    6.2570   12.3417   19.5430 O   0  0  0  0  0  0  0  0  0  0  0  0
    6.3352   10.0545   18.7820 C   0  0  0  0  0  0  0  0  0  0  0  0
    6.4370    9.7709   20.1653 O   0  0  0  0  0  0  0  0  0  0  0  0
    5.2245    9.1903   18.2029 C   0  0  0  0  0  0  0  0  0  0  0  0
    6.0124   12.0135   20.4224 H   0  0  0  0  0  0  0  0  0  0  0  0
    5.5723    9.8983   20.5859 H   0  0  0  0  0  0  0  0  0  0  0  0
    5.6270    8.7049   16.8645 N   0  0  0  0  0  0  0  0  0  0  0  0
    5.6643    9.3880   15.6830 C   0  0  0  0  0  0  0  0  0  0  0  0
    6.0813    8.5469   14.7106 N   0  0  0  0  0  0  0  0  0  0  0  0
    6.3068    7.3330   15.2604 C   0  0  0  0  0  0  0  0  0  0  0  0
    6.7415    6.1180   14.7382 C   0  0  0  0  0  0  0  0  0  0  0  0
    7.0261    5.9830   13.4385 N   0  0  0  0  0  0  0  0  0  0  0  0
    6.8788    5.0453   15.5930 N   0  0  0  0  0  0  0  0  0  0  0  0
    6.6011    5.1606   16.9379 C   0  0  0  0  0  0  0  0  0  0  0  0
    6.1629    6.3700   17.4410 N   0  0  0  0  0  0  0  0  0  0  0  0
    6.0219    7.4266   16.6167 C   0  0  0  0  0  0  0  0  0  0  0  0
    6.9270    6.7509   12.8305 H   0  0  0  0  0  0  0  0  0  0  0  0
    7.3347    5.1156   13.0897 H   0  0  0  0  0  0  0  0  0  0  0  0
    3.4944   12.3295   18.0178 C   0  0  0  0  0  0  0  0  0  0  0  0
    1.7224   12.2592   18.3639 S   0  0  0  0  0  0  0  0  0  0  0  0
    1.7750   14.0498   18.3705 C   0  0  0  0  0  0  0  0  0  0  0  0
    0.6938   14.6200   17.4785 C   0  0  0  0  0  0  0  0  0  0  0  0
    0.8210   16.5370   16.0140 N   0  0  0  0  0  0  0  0  0  0  0  0
    1.3482   15.1962   16.2435 C   0  0  0  0  0  0  0  0  0  0  0  0
    0.9977   17.1169   16.8343 H   0  0  0  0  0  0  0  0  0  0  0  0
   -0.1836   16.4832   15.8456 H   0  0  0  0  0  0  0  0  0  0  0  0
    1.1265   14.2611   15.0643 C   0  0  0  0  0  0  0  0  0  0  0  0
    0.1749   14.4273   14.3017 O   0  0  0  0  0  0  0  0  0  0  0  0
    1.8955   13.3243   14.8463 O   0  0  0  0  0  0  0  0  0  0  0  0
    2.6272   13.1773   15.4128 H   0  0  0  0  0  0  0  0  0  0  0  0
 26 27  1  0  0  0
 27 25  1  0  0  0
 27 30  1  0  0  0
 25 24  1  0  0  0
 24 23  1  0  0  0
 23 22  1  0  0  0
 30 31  2  0  0  0
 30 32  1  0  0  0
 22  1  1  0  0  0
  1  2  1  0  0  0
  1  3  1  0  0  0
  2  7  1  0  0  0
  3  4  1  0  0  0
  3  5  1  0  0  0
  5  6  1  0  0  0
  5  7  1  0  0  0
  7 10  1  0  0  0
 10 11  1  0  0  0
 10 19  1  0  0  0
 11 12  2  0  0  0
 12 13  1  0  0  0
 13 14  1  0  0  0
 13 19  2  0  0  0
 14 15  1  0  0  0
 14 16  2  0  0  0
 16 17  1  0  0  0
 17 18  2  0  0  0
 18 19  1  0  0  0
 26 28  1  0  0  0
 26 29  1  0  0  0
 32 33  1  0  0  0
  4  8  1  0  0  0
  6  9  1  0  0  0
 15 20  1  0  0  0
 15 21  1  0  0  0
M  END
> <minimizedAffinity>
-8.04483

$$$$
