4DEL_PGH_A_404


 14 13  0  0  0  0  0  0  0  0999 V2000
    7.7424   41.3889   21.5851 C   0  0  0  0  0  0  0  0  0  0  0  0
    8.5765   42.4209   22.2720 C   0  0  0  0  0  0  0  0  0  0  0  0
    8.5282   43.6733   21.8755 N   0  0  0  0  0  0  0  0  0  0  0  0
    9.2897   44.6029   22.5373 O   0  0  0  0  0  0  0  0  0  0  0  0
    9.3816   42.0237   23.3165 O   0  0  0  0  0  0  0  0  0  0  0  0
    7.9570   43.9388   21.1188 H   0  0  0  0  0  0  0  0  0  0  0  0
    9.7849   44.1678   23.2488 H   0  0  0  0  0  0  0  0  0  0  0  0
    8.3393   41.0503   20.3452 O   0  0  0  0  0  0  0  0  0  0  0  0
    7.4458   42.7979   18.7205 O   0  0  0  0  0  0  0  0  0  0  0  0
    8.1661   40.5840   17.8921 O   0  0  0  0  0  0  0  0  0  0  0  0
    6.0699   40.7654   19.2629 O   0  0  0  0  0  0  0  0  0  0  0  0
    7.4640   41.3188   19.0092 P   0  0  0  0  0  0  0  0  0  0  0  0
    9.0488   40.9637   17.7600 H   0  0  0  0  0  0  0  0  0  0  0  0
    5.6518   41.2608   19.9845 H   0  0  0  0  0  0  0  0  0  0  0  0
  2  1  1  0  0  0
  2  3  1  0  0  0
  2  5  2  0  0  0
  1  8  1  0  0  0
  3  4  1  0  0  0
  8 12  1  0  0  0
  9 12  2  0  0  0
 10 12  1  0  0  0
 11 12  1  0  0  0
  3  6  1  0  0  0
  4  7  1  0  0  0
 10 13  1  0  0  0
 11 14  1  0  0  0
M  END
> <minimizedAffinity>
-6.77835

$$$$
4DEL_PGH_A_404


 14 13  0  0  0  0  0  0  0  0999 V2000
    8.1184   41.7048   21.3145 C   0  0  0  0  0  0  0  0  0  0  0  0
    8.8225   43.0086   21.5061 C   0  0  0  0  0  0  0  0  0  0  0  0
    8.7876   43.6069   22.6760 N   0  0  0  0  0  0  0  0  0  0  0  0
    9.4596   44.7932   22.8287 O   0  0  0  0  0  0  0  0  0  0  0  0
    9.4982   43.5519   20.4359 O   0  0  0  0  0  0  0  0  0  0  0  0
    8.2894   43.2117   23.4276 H   0  0  0  0  0  0  0  0  0  0  0  0
    9.8904   45.0307   21.9927 H   0  0  0  0  0  0  0  0  0  0  0  0
    8.5046   41.1391   20.0738 O   0  0  0  0  0  0  0  0  0  0  0  0
    6.1172   40.7256   19.2854 O   0  0  0  0  0  0  0  0  0  0  0  0
    7.3394   42.7415   18.5444 O   0  0  0  0  0  0  0  0  0  0  0  0
    8.0322   40.4901   17.6743 O   0  0  0  0  0  0  0  0  0  0  0  0
    7.4541   41.2666   18.8477 P   0  0  0  0  0  0  0  0  0  0  0  0
    6.9683   43.2018   19.3133 H   0  0  0  0  0  0  0  0  0  0  0  0
    8.0905   39.5500   17.9059 H   0  0  0  0  0  0  0  0  0  0  0  0
  2  1  1  0  0  0
  2  3  1  0  0  0
  2  5  2  0  0  0
  1  8  1  0  0  0
  3  4  1  0  0  0
  8 12  1  0  0  0
  9 12  2  0  0  0
 10 12  1  0  0  0
 11 12  1  0  0  0
  3  6  1  0  0  0
  4  7  1  0  0  0
 10 13  1  0  0  0
 11 14  1  0  0  0
M  END
> <minimizedAffinity>
-6.76325

$$$$
4DEL_PGH_A_404


 14 13  0  0  0  0  0  0  0  0999 V2000
    7.5435   41.5237   21.2564 C   0  0  0  0  0  0  0  0  0  0  0  0
    8.4434   42.2880   22.1721 C   0  0  0  0  0  0  0  0  0  0  0  0
    8.5573   43.5911   22.0425 N   0  0  0  0  0  0  0  0  0  0  0  0
    9.3754   44.2697   22.9100 O   0  0  0  0  0  0  0  0  0  0  0  0
    9.1355   41.5943   23.1400 O   0  0  0  0  0  0  0  0  0  0  0  0
    8.0655   44.0705   21.3372 H   0  0  0  0  0  0  0  0  0  0  0  0
    9.7759   43.6436   23.5333 H   0  0  0  0  0  0  0  0  0  0  0  0
    8.3002   41.0092   20.1742 O   0  0  0  0  0  0  0  0  0  0  0  0
    8.0728   40.4561   17.6973 O   0  0  0  0  0  0  0  0  0  0  0  0
    6.5248   42.0631   18.7593 O   0  0  0  0  0  0  0  0  0  0  0  0
    8.9255   42.7110   18.4091 O   0  0  0  0  0  0  0  0  0  0  0  0
    7.9533   41.5771   18.6976 P   0  0  0  0  0  0  0  0  0  0  0  0
    5.9363   41.3146   18.9443 H   0  0  0  0  0  0  0  0  0  0  0  0
    9.8297   42.3613   18.3772 H   0  0  0  0  0  0  0  0  0  0  0  0
  2  1  1  0  0  0
  2  3  1  0  0  0
  2  5  2  0  0  0
  1  8  1  0  0  0
  3  4  1  0  0  0
  8 12  1  0  0  0
  9 12  2  0  0  0
 10 12  1  0  0  0
 11 12  1  0  0  0
  3  6  1  0  0  0
  4  7  1  0  0  0
 10 13  1  0  0  0
 11 14  1  0  0  0
M  END
> <minimizedAffinity>
-6.74862

$$$$
4DEL_PGH_A_404


 14 13  0  0  0  0  0  0  0  0999 V2000
    7.6896   41.4986   20.0859 C   0  0  0  0  0  0  0  0  0  0  0  0
    8.3278   42.0982   18.8752 C   0  0  0  0  0  0  0  0  0  0  0  0
    9.1798   43.0905   19.0066 N   0  0  0  0  0  0  0  0  0  0  0  0
    9.7657   43.6084   17.8793 O   0  0  0  0  0  0  0  0  0  0  0  0
    8.0008   41.5846   17.6398 O   0  0  0  0  0  0  0  0  0  0  0  0
    9.3933   43.4547   19.8960 H   0  0  0  0  0  0  0  0  0  0  0  0
    9.4416   43.1323   17.0987 H   0  0  0  0  0  0  0  0  0  0  0  0
    8.6497   41.3984   21.1234 O   0  0  0  0  0  0  0  0  0  0  0  0
    8.9847   43.7301   22.0946 O   0  0  0  0  0  0  0  0  0  0  0  0
    6.9553   42.4331   22.6475 O   0  0  0  0  0  0  0  0  0  0  0  0
    9.1723   41.7105   23.5793 O   0  0  0  0  0  0  0  0  0  0  0  0
    8.4450   42.3590   22.4112 P   0  0  0  0  0  0  0  0  0  0  0  0
    6.5271   42.8510   21.8840 H   0  0  0  0  0  0  0  0  0  0  0  0
   10.1235   41.6808   23.3916 H   0  0  0  0  0  0  0  0  0  0  0  0
  2  1  1  0  0  0
  2  3  1  0  0  0
  2  5  2  0  0  0
  1  8  1  0  0  0
  3  4  1  0  0  0
  8 12  1  0  0  0
  9 12  2  0  0  0
 10 12  1  0  0  0
 11 12  1  0  0  0
  3  6  1  0  0  0
  4  7  1  0  0  0
 10 13  1  0  0  0
 11 14  1  0  0  0
M  END
> <minimizedAffinity>
-6.51857

$$$$
4DEL_PGH_A_404


 14 13  0  0  0  0  0  0  0  0999 V2000
    7.4501   41.4920   21.1483 C   0  0  0  0  0  0  0  0  0  0  0  0
    8.4228   42.0438   22.1392 C   0  0  0  0  0  0  0  0  0  0  0  0
    8.6302   41.4148   23.2747 N   0  0  0  0  0  0  0  0  0  0  0  0
    9.5436   41.9337   24.1571 O   0  0  0  0  0  0  0  0  0  0  0  0
    9.0841   43.2112   21.8280 O   0  0  0  0  0  0  0  0  0  0  0  0
    8.1399   40.5880   23.4876 H   0  0  0  0  0  0  0  0  0  0  0  0
    9.9272   42.7437   23.7863 H   0  0  0  0  0  0  0  0  0  0  0  0
    8.1580   40.9269   20.0583 O   0  0  0  0  0  0  0  0  0  0  0  0
    8.8568   42.6509   18.3171 O   0  0  0  0  0  0  0  0  0  0  0  0
    8.0702   40.4178   17.6092 O   0  0  0  0  0  0  0  0  0  0  0  0
    6.4313   42.0492   18.5881 O   0  0  0  0  0  0  0  0  0  0  0  0
    7.8674   41.5474   18.5908 P   0  0  0  0  0  0  0  0  0  0  0  0
    8.9946   40.1254   17.6393 H   0  0  0  0  0  0  0  0  0  0  0  0
    6.3402   42.7719   19.2287 H   0  0  0  0  0  0  0  0  0  0  0  0
  2  1  1  0  0  0
  2  3  1  0  0  0
  2  5  2  0  0  0
  1  8  1  0  0  0
  3  4  1  0  0  0
  8 12  1  0  0  0
  9 12  2  0  0  0
 10 12  1  0  0  0
 11 12  1  0  0  0
  3  6  1  0  0  0
  4  7  1  0  0  0
 10 13  1  0  0  0
 11 14  1  0  0  0
M  END
> <minimizedAffinity>
-6.40697

$$$$
4DEL_PGH_A_404


 14 13  0  0  0  0  0  0  0  0999 V2000
    7.7945   41.3494   21.2895 C   0  0  0  0  0  0  0  0  0  0  0  0
    7.4527   41.2999   19.8358 C   0  0  0  0  0  0  0  0  0  0  0  0
    8.3069   41.7537   18.9455 N   0  0  0  0  0  0  0  0  0  0  0  0
    7.9750   41.6774   17.6166 O   0  0  0  0  0  0  0  0  0  0  0  0
    6.2359   40.7710   19.4664 O   0  0  0  0  0  0  0  0  0  0  0  0
    9.1674   42.1405   19.2268 H   0  0  0  0  0  0  0  0  0  0  0  0
    7.0986   41.2718   17.5249 H   0  0  0  0  0  0  0  0  0  0  0  0
    7.8086   42.6982   21.7241 O   0  0  0  0  0  0  0  0  0  0  0  0
   10.1226   43.4015   20.9222 O   0  0  0  0  0  0  0  0  0  0  0  0
    8.9614   44.7095   22.6679 O   0  0  0  0  0  0  0  0  0  0  0  0
    9.8319   42.4191   23.2176 O   0  0  0  0  0  0  0  0  0  0  0  0
    9.2433   43.3215   22.1437 P   0  0  0  0  0  0  0  0  0  0  0  0
    8.5883   45.2539   21.9571 H   0  0  0  0  0  0  0  0  0  0  0  0
    9.9990   41.5393   22.8447 H   0  0  0  0  0  0  0  0  0  0  0  0
  2  1  1  0  0  0
  2  3  1  0  0  0
  2  5  2  0  0  0
  1  8  1  0  0  0
  3  4  1  0  0  0
  8 12  1  0  0  0
  9 12  2  0  0  0
 10 12  1  0  0  0
 11 12  1  0  0  0
  3  6  1  0  0  0
  4  7  1  0  0  0
 10 13  1  0  0  0
 11 14  1  0  0  0
M  END
> <minimizedAffinity>
-6.37791

$$$$
4DEL_PGH_A_404


 14 13  0  0  0  0  0  0  0  0999 V2000
    9.1482   43.5217   19.6076 C   0  0  0  0  0  0  0  0  0  0  0  0
    8.2412   42.3788   19.2861 C   0  0  0  0  0  0  0  0  0  0  0  0
    7.5482   41.8024   20.2430 N   0  0  0  0  0  0  0  0  0  0  0  0
    6.7083   40.7682   19.9157 O   0  0  0  0  0  0  0  0  0  0  0  0
    8.1557   41.9581   17.9775 O   0  0  0  0  0  0  0  0  0  0  0  0
    7.6302   42.1068   21.1757 H   0  0  0  0  0  0  0  0  0  0  0  0
    6.7537   40.6046   18.9607 H   0  0  0  0  0  0  0  0  0  0  0  0
   10.0109   43.1537   20.6701 O   0  0  0  0  0  0  0  0  0  0  0  0
    9.7497   45.4575   21.7267 O   0  0  0  0  0  0  0  0  0  0  0  0
    8.6177   43.4987   22.7206 O   0  0  0  0  0  0  0  0  0  0  0  0
   11.1161   43.6920   22.8816 O   0  0  0  0  0  0  0  0  0  0  0  0
    9.8780   43.9911   22.0500 P   0  0  0  0  0  0  0  0  0  0  0  0
    7.8520   43.7067   22.1626 H   0  0  0  0  0  0  0  0  0  0  0  0
   11.9030   44.0219   22.4202 H   0  0  0  0  0  0  0  0  0  0  0  0
  2  1  1  0  0  0
  2  3  1  0  0  0
  2  5  2  0  0  0
  1  8  1  0  0  0
  3  4  1  0  0  0
  8 12  1  0  0  0
  9 12  2  0  0  0
 10 12  1  0  0  0
 11 12  1  0  0  0
  3  6  1  0  0  0
  4  7  1  0  0  0
 10 13  1  0  0  0
 11 14  1  0  0  0
M  END
> <minimizedAffinity>
-5.96706

$$$$
4DEL_PGH_A_404


 14 13  0  0  0  0  0  0  0  0999 V2000
    8.9027   43.6032   20.3597 C   0  0  0  0  0  0  0  0  0  0  0  0
    8.8179   42.9517   19.0177 C   0  0  0  0  0  0  0  0  0  0  0  0
    7.8741   42.0692   18.7757 N   0  0  0  0  0  0  0  0  0  0  0  0
    7.8081   41.5017   17.5284 O   0  0  0  0  0  0  0  0  0  0  0  0
    9.7436   43.3015   18.0599 O   0  0  0  0  0  0  0  0  0  0  0  0
    7.2277   41.8206   19.4754 H   0  0  0  0  0  0  0  0  0  0  0  0
    8.5168   41.8608   16.9719 H   0  0  0  0  0  0  0  0  0  0  0  0
    9.4312   42.6818   21.2978 O   0  0  0  0  0  0  0  0  0  0  0  0
    7.0099   42.0074   21.7154 O   0  0  0  0  0  0  0  0  0  0  0  0
    8.8558   40.5801   22.5292 O   0  0  0  0  0  0  0  0  0  0  0  0
    8.4409   42.8020   23.6231 O   0  0  0  0  0  0  0  0  0  0  0  0
    8.3857   42.0014   22.3307 P   0  0  0  0  0  0  0  0  0  0  0  0
    8.8064   40.1026   21.6863 H   0  0  0  0  0  0  0  0  0  0  0  0
    8.1326   43.7065   23.4565 H   0  0  0  0  0  0  0  0  0  0  0  0
  2  1  1  0  0  0
  2  3  1  0  0  0
  2  5  2  0  0  0
  1  8  1  0  0  0
  3  4  1  0  0  0
  8 12  1  0  0  0
  9 12  2  0  0  0
 10 12  1  0  0  0
 11 12  1  0  0  0
  3  6  1  0  0  0
  4  7  1  0  0  0
 10 13  1  0  0  0
 11 14  1  0  0  0
M  END
> <minimizedAffinity>
-5.85269

$$$$
4DEL_PGH_A_404


 14 13  0  0  0  0  0  0  0  0999 V2000
    8.4208   42.2419   20.8847 C   0  0  0  0  0  0  0  0  0  0  0  0
    9.1973   43.5016   20.6778 C   0  0  0  0  0  0  0  0  0  0  0  0
    8.9865   44.2334   19.6063 N   0  0  0  0  0  0  0  0  0  0  0  0
    9.6996   45.3952   19.4521 O   0  0  0  0  0  0  0  0  0  0  0  0
   10.1232   43.8646   21.6306 O   0  0  0  0  0  0  0  0  0  0  0  0
    8.3301   43.9533   18.9281 H   0  0  0  0  0  0  0  0  0  0  0  0
   10.2947   45.5122   20.2092 H   0  0  0  0  0  0  0  0  0  0  0  0
    8.6241   41.3769   19.7806 O   0  0  0  0  0  0  0  0  0  0  0  0
    7.8512   40.3793   17.5671 O   0  0  0  0  0  0  0  0  0  0  0  0
    6.2956   40.5083   19.4828 O   0  0  0  0  0  0  0  0  0  0  0  0
    6.9831   42.6188   18.3085 O   0  0  0  0  0  0  0  0  0  0  0  0
    7.3982   41.2185   18.7341 P   0  0  0  0  0  0  0  0  0  0  0  0
    6.5964   39.6218   19.7369 H   0  0  0  0  0  0  0  0  0  0  0  0
    7.7144   43.0420   17.8321 H   0  0  0  0  0  0  0  0  0  0  0  0
  2  1  1  0  0  0
  2  3  1  0  0  0
  2  5  2  0  0  0
  1  8  1  0  0  0
  3  4  1  0  0  0
  8 12  1  0  0  0
  9 12  2  0  0  0
 10 12  1  0  0  0
 11 12  1  0  0  0
  3  6  1  0  0  0
  4  7  1  0  0  0
 10 13  1  0  0  0
 11 14  1  0  0  0
M  END
> <minimizedAffinity>
-5.58891

$$$$
4DEL_PGH_A_404


 14 13  0  0  0  0  0  0  0  0999 V2000
    9.7521   43.0433   22.4983 C   0  0  0  0  0  0  0  0  0  0  0  0
   10.4063   44.3860   22.5384 C   0  0  0  0  0  0  0  0  0  0  0  0
    9.7280   45.4566   22.1894 N   0  0  0  0  0  0  0  0  0  0  0  0
   10.3480   46.6787   22.2549 O   0  0  0  0  0  0  0  0  0  0  0  0
   11.7192   44.4632   22.9474 O   0  0  0  0  0  0  0  0  0  0  0  0
    8.7940   45.3829   21.8871 H   0  0  0  0  0  0  0  0  0  0  0  0
   11.2578   46.5632   22.5709 H   0  0  0  0  0  0  0  0  0  0  0  0
    8.9793   42.9312   21.3157 O   0  0  0  0  0  0  0  0  0  0  0  0
    8.2975   40.5179   21.7665 O   0  0  0  0  0  0  0  0  0  0  0  0
    6.7630   42.3699   22.3341 O   0  0  0  0  0  0  0  0  0  0  0  0
    7.1866   41.8150   19.9220 O   0  0  0  0  0  0  0  0  0  0  0  0
    7.7661   41.8583   21.3278 P   0  0  0  0  0  0  0  0  0  0  0  0
    7.1673   42.3832   23.2157 H   0  0  0  0  0  0  0  0  0  0  0  0
    7.8578   41.4824   19.3057 H   0  0  0  0  0  0  0  0  0  0  0  0
  2  1  1  0  0  0
  2  3  1  0  0  0
  2  5  2  0  0  0
  1  8  1  0  0  0
  3  4  1  0  0  0
  8 12  1  0  0  0
  9 12  2  0  0  0
 10 12  1  0  0  0
 11 12  1  0  0  0
  3  6  1  0  0  0
  4  7  1  0  0  0
 10 13  1  0  0  0
 11 14  1  0  0  0
M  END
> <minimizedAffinity>
-5.48861

$$$$
