4EN4_GT0_A_405


 15 15  0  0  0  0  0  0  0  0999 V2000
   28.1598    7.3912   39.8737 C   0  0  0  0  0  0  0  0  0  0  0  0
   28.4389    8.2260   38.7678 N   0  0  0  0  0  0  0  0  0  0  0  0
   29.4584    7.9147   37.8599 C   0  0  0  0  0  0  0  0  0  0  0  0
   30.2398    6.7439   38.0509 C   0  0  0  0  0  0  0  0  0  0  0  0
   29.9745    5.8910   39.1702 C   0  0  0  0  0  0  0  0  0  0  0  0
   28.9189    6.2206   40.0941 C   0  0  0  0  0  0  0  0  0  0  0  0
   29.7066    8.8501   36.6913 C   0  0  0  0  0  0  0  0  0  0  0  0
   31.2581    6.4218   37.1551 O   0  0  0  0  0  0  0  0  0  0  0  0
   31.4317    6.9799   36.4227 H   0  0  0  0  0  0  0  0  0  0  0  0
   28.5976    5.3219   41.3085 C   0  0  0  0  0  0  0  0  0  0  0  0
   27.4114    5.7770   41.9898 O   0  0  0  0  0  0  0  0  0  0  0  0
   27.5508    6.6810   42.3128 H   0  0  0  0  0  0  0  0  0  0  0  0
   30.8444    4.6232   39.3651 C   0  0  0  0  0  0  0  0  0  0  0  0
   32.2568    4.9652   39.4018 O   0  0  0  0  0  0  0  0  0  0  0  0
   32.6242    5.6021   40.6452 C   0  0  0  0  0  0  0  0  0  0  0  0
  7  3  1  0  0  0
  8  4  1  0  0  0
  3  4  2  0  0  0
  3  2  1  0  0  0
  4  5  1  0  0  0
  2  1  2  0  0  0
  5 13  1  0  0  0
  5  6  2  0  0  0
 13 14  1  0  0  0
  1  6  1  0  0  0
  6 10  1  0  0  0
 14 15  1  0  0  0
 10 11  1  0  0  0
 11 12  1  0  0  0
  8  9  1  0  0  0
M  END
> <minimizedAffinity>
-5.63850

$$$$
4EN4_GT0_A_405


 15 15  0  0  0  0  0  0  0  0999 V2000
   29.0340    7.2296   38.5792 C   0  0  0  0  0  0  0  0  0  0  0  0
   28.1861    8.0225   39.3855 N   0  0  0  0  0  0  0  0  0  0  0  0
   27.6448    7.5278   40.5783 C   0  0  0  0  0  0  0  0  0  0  0  0
   27.9399    6.2007   40.9900 C   0  0  0  0  0  0  0  0  0  0  0  0
   28.7918    5.3819   40.1810 C   0  0  0  0  0  0  0  0  0  0  0  0
   29.3462    5.9053   38.9582 C   0  0  0  0  0  0  0  0  0  0  0  0
   26.7435    8.4299   41.4008 C   0  0  0  0  0  0  0  0  0  0  0  0
   27.4078    5.6952   42.1751 O   0  0  0  0  0  0  0  0  0  0  0  0
   26.8504    6.2310   42.7045 H   0  0  0  0  0  0  0  0  0  0  0  0
   30.2749    5.0557   38.0630 C   0  0  0  0  0  0  0  0  0  0  0  0
   31.2714    5.8780   37.4232 O   0  0  0  0  0  0  0  0  0  0  0  0
   30.8345    6.5382   36.8628 H   0  0  0  0  0  0  0  0  0  0  0  0
   29.0941    3.9341   40.6438 C   0  0  0  0  0  0  0  0  0  0  0  0
   27.8815    3.2707   41.0940 O   0  0  0  0  0  0  0  0  0  0  0  0
   27.9253    1.8473   40.8526 C   0  0  0  0  0  0  0  0  0  0  0  0
  7  3  1  0  0  0
  8  4  1  0  0  0
  3  4  2  0  0  0
  3  2  1  0  0  0
  4  5  1  0  0  0
  2  1  2  0  0  0
  5 13  1  0  0  0
  5  6  2  0  0  0
 13 14  1  0  0  0
  1  6  1  0  0  0
  6 10  1  0  0  0
 14 15  1  0  0  0
 10 11  1  0  0  0
 11 12  1  0  0  0
  8  9  1  0  0  0
M  END
> <minimizedAffinity>
-5.58943

$$$$
4EN4_GT0_A_405


 15 15  0  0  0  0  0  0  0  0999 V2000
   29.3581    5.7508   40.9700 C   0  0  0  0  0  0  0  0  0  0  0  0
   30.5921    5.1847   41.3633 N   0  0  0  0  0  0  0  0  0  0  0  0
   31.8030    5.6286   40.8183 C   0  0  0  0  0  0  0  0  0  0  0  0
   31.8012    6.6612   39.8428 C   0  0  0  0  0  0  0  0  0  0  0  0
   30.5590    7.2406   39.4283 C   0  0  0  0  0  0  0  0  0  0  0  0
   29.3203    6.7778   40.0010 C   0  0  0  0  0  0  0  0  0  0  0  0
   33.0943    4.9821   41.2842 C   0  0  0  0  0  0  0  0  0  0  0  0
   32.9993    7.1128   39.2917 O   0  0  0  0  0  0  0  0  0  0  0  0
   33.8121    6.7336   39.5629 H   0  0  0  0  0  0  0  0  0  0  0  0
   27.9615    7.3830   39.5852 C   0  0  0  0  0  0  0  0  0  0  0  0
   26.8729    6.7282   40.2668 O   0  0  0  0  0  0  0  0  0  0  0  0
   26.8664    5.7862   40.0354 H   0  0  0  0  0  0  0  0  0  0  0  0
   30.5785    8.3599   38.3564 C   0  0  0  0  0  0  0  0  0  0  0  0
   30.9032    7.8174   37.0474 O   0  0  0  0  0  0  0  0  0  0  0  0
   30.6594    8.7739   35.9929 C   0  0  0  0  0  0  0  0  0  0  0  0
  7  3  1  0  0  0
  8  4  1  0  0  0
  3  4  2  0  0  0
  3  2  1  0  0  0
  4  5  1  0  0  0
  2  1  2  0  0  0
  5 13  1  0  0  0
  5  6  2  0  0  0
 13 14  1  0  0  0
  1  6  1  0  0  0
  6 10  1  0  0  0
 14 15  1  0  0  0
 10 11  1  0  0  0
 11 12  1  0  0  0
  8  9  1  0  0  0
M  END
> <minimizedAffinity>
-5.58736

$$$$
4EN4_GT0_A_405


 15 15  0  0  0  0  0  0  0  0999 V2000
   28.0335    7.0842   39.7287 C   0  0  0  0  0  0  0  0  0  0  0  0
   28.3549    8.1704   38.8833 N   0  0  0  0  0  0  0  0  0  0  0  0
   29.4394    8.1088   37.9998 C   0  0  0  0  0  0  0  0  0  0  0  0
   30.2445    6.9394   37.9516 C   0  0  0  0  0  0  0  0  0  0  0  0
   29.9365    5.8326   38.8064 C   0  0  0  0  0  0  0  0  0  0  0  0
   28.8145    5.9075   39.7075 C   0  0  0  0  0  0  0  0  0  0  0  0
   29.7308    9.3075   37.1163 C   0  0  0  0  0  0  0  0  0  0  0  0
   31.3273    6.8644   37.0769 O   0  0  0  0  0  0  0  0  0  0  0  0
   31.5288    7.5886   36.5176 H   0  0  0  0  0  0  0  0  0  0  0  0
   28.4461    4.7320   40.6392 C   0  0  0  0  0  0  0  0  0  0  0  0
   27.5025    5.1465   41.6473 O   0  0  0  0  0  0  0  0  0  0  0  0
   27.8958    5.8484   42.1892 H   0  0  0  0  0  0  0  0  0  0  0  0
   30.8328    4.5698   38.7444 C   0  0  0  0  0  0  0  0  0  0  0  0
   31.1025    4.1937   37.3664 O   0  0  0  0  0  0  0  0  0  0  0  0
   31.8127    2.9388   37.2801 C   0  0  0  0  0  0  0  0  0  0  0  0
  7  3  1  0  0  0
  8  4  1  0  0  0
  3  4  2  0  0  0
  3  2  1  0  0  0
  4  5  1  0  0  0
  2  1  2  0  0  0
  5 13  1  0  0  0
  5  6  2  0  0  0
 13 14  1  0  0  0
  1  6  1  0  0  0
  6 10  1  0  0  0
 14 15  1  0  0  0
 10 11  1  0  0  0
 11 12  1  0  0  0
  8  9  1  0  0  0
M  END
> <minimizedAffinity>
-5.41755

$$$$
4EN4_GT0_A_405


 15 15  0  0  0  0  0  0  0  0999 V2000
   31.3679    6.3678   40.1890 C   0  0  0  0  0  0  0  0  0  0  0  0
   30.2032    7.0218   39.7271 N   0  0  0  0  0  0  0  0  0  0  0  0
   28.9377    6.6962   40.2301 C   0  0  0  0  0  0  0  0  0  0  0  0
   28.8104    5.6829   41.2176 C   0  0  0  0  0  0  0  0  0  0  0  0
   29.9799    5.0059   41.6914 C   0  0  0  0  0  0  0  0  0  0  0  0
   31.2768    5.3544   41.1687 C   0  0  0  0  0  0  0  0  0  0  0  0
   27.7262    7.4368   39.6951 C   0  0  0  0  0  0  0  0  0  0  0  0
   27.5568    5.3484   41.7271 O   0  0  0  0  0  0  0  0  0  0  0  0
   26.7916    5.7914   41.4170 H   0  0  0  0  0  0  0  0  0  0  0  0
   32.5617    4.6523   41.6601 C   0  0  0  0  0  0  0  0  0  0  0  0
   32.7690    3.4064   40.9649 O   0  0  0  0  0  0  0  0  0  0  0  0
   32.0194    2.8140   41.1325 H   0  0  0  0  0  0  0  0  0  0  0  0
   29.8180    3.8975   42.7625 C   0  0  0  0  0  0  0  0  0  0  0  0
   28.8915    2.8725   42.3108 O   0  0  0  0  0  0  0  0  0  0  0  0
   29.5233    1.9339   41.4128 C   0  0  0  0  0  0  0  0  0  0  0  0
  7  3  1  0  0  0
  8  4  1  0  0  0
  3  4  2  0  0  0
  3  2  1  0  0  0
  4  5  1  0  0  0
  2  1  2  0  0  0
  5 13  1  0  0  0
  5  6  2  0  0  0
 13 14  1  0  0  0
  1  6  1  0  0  0
  6 10  1  0  0  0
 14 15  1  0  0  0
 10 11  1  0  0  0
 11 12  1  0  0  0
  8  9  1  0  0  0
M  END
> <minimizedAffinity>
-5.35170

$$$$
4EN4_GT0_A_405


 15 15  0  0  0  0  0  0  0  0999 V2000
   28.3903    7.3922   39.7246 C   0  0  0  0  0  0  0  0  0  0  0  0
   29.0810    8.4037   39.0191 N   0  0  0  0  0  0  0  0  0  0  0  0
   30.4589    8.3171   38.7859 C   0  0  0  0  0  0  0  0  0  0  0  0
   31.1879    7.1992   39.2725 C   0  0  0  0  0  0  0  0  0  0  0  0
   30.5044    6.1690   39.9951 C   0  0  0  0  0  0  0  0  0  0  0  0
   29.0851    6.2683   40.2237 C   0  0  0  0  0  0  0  0  0  0  0  0
   31.1417    9.4346   38.0195 C   0  0  0  0  0  0  0  0  0  0  0  0
   32.5600    7.1001   39.0478 O   0  0  0  0  0  0  0  0  0  0  0  0
   33.0072    7.7742   38.5749 H   0  0  0  0  0  0  0  0  0  0  0  0
   28.3115    5.1741   40.9919 C   0  0  0  0  0  0  0  0  0  0  0  0
   27.4140    5.7564   41.9583 O   0  0  0  0  0  0  0  0  0  0  0  0
   27.9232    6.2733   42.6020 H   0  0  0  0  0  0  0  0  0  0  0  0
   31.3199    4.9623   40.5249 C   0  0  0  0  0  0  0  0  0  0  0  0
   32.4863    5.4116   41.2670 O   0  0  0  0  0  0  0  0  0  0  0  0
   33.4970    4.3833   41.3552 C   0  0  0  0  0  0  0  0  0  0  0  0
  7  3  1  0  0  0
  8  4  1  0  0  0
  3  4  2  0  0  0
  3  2  1  0  0  0
  4  5  1  0  0  0
  2  1  2  0  0  0
  5 13  1  0  0  0
  5  6  2  0  0  0
 13 14  1  0  0  0
  1  6  1  0  0  0
  6 10  1  0  0  0
 14 15  1  0  0  0
 10 11  1  0  0  0
 11 12  1  0  0  0
  8  9  1  0  0  0
M  END
> <minimizedAffinity>
-5.33584

$$$$
4EN4_GT0_A_405


 15 15  0  0  0  0  0  0  0  0999 V2000
   31.7170    5.7993   40.7034 C   0  0  0  0  0  0  0  0  0  0  0  0
   31.4149    4.8435   41.6998 N   0  0  0  0  0  0  0  0  0  0  0  0
   30.1017    4.4088   41.9170 C   0  0  0  0  0  0  0  0  0  0  0  0
   29.0438    4.9402   41.1320 C   0  0  0  0  0  0  0  0  0  0  0  0
   29.3320    5.9145   40.1229 C   0  0  0  0  0  0  0  0  0  0  0  0
   30.6887    6.3494   39.9065 C   0  0  0  0  0  0  0  0  0  0  0  0
   29.8431    3.3783   43.0004 C   0  0  0  0  0  0  0  0  0  0  0  0
   27.7317    4.5166   41.3375 O   0  0  0  0  0  0  0  0  0  0  0  0
   27.5432    3.8791   41.9978 H   0  0  0  0  0  0  0  0  0  0  0  0
   31.0401    7.3924   38.8230 C   0  0  0  0  0  0  0  0  0  0  0  0
   31.3775    6.7507   37.5768 O   0  0  0  0  0  0  0  0  0  0  0  0
   32.1504    6.1791   37.7064 H   0  0  0  0  0  0  0  0  0  0  0  0
   28.1621    6.4880   39.2836 C   0  0  0  0  0  0  0  0  0  0  0  0
   27.0330    6.8277   40.1337 O   0  0  0  0  0  0  0  0  0  0  0  0
   27.2523    8.0615   40.8522 C   0  0  0  0  0  0  0  0  0  0  0  0
  7  3  1  0  0  0
  8  4  1  0  0  0
  3  4  2  0  0  0
  3  2  1  0  0  0
  4  5  1  0  0  0
  2  1  2  0  0  0
  5 13  1  0  0  0
  5  6  2  0  0  0
 13 14  1  0  0  0
  1  6  1  0  0  0
  6 10  1  0  0  0
 14 15  1  0  0  0
 10 11  1  0  0  0
 11 12  1  0  0  0
  8  9  1  0  0  0
M  END
> <minimizedAffinity>
-5.27749

$$$$
4EN4_GT0_A_405


 15 15  0  0  0  0  0  0  0  0999 V2000
   30.8530    5.4457   38.3010 C   0  0  0  0  0  0  0  0  0  0  0  0
   31.1891    6.4777   37.3957 N   0  0  0  0  0  0  0  0  0  0  0  0
   30.4208    7.6447   37.3046 C   0  0  0  0  0  0  0  0  0  0  0  0
   29.2732    7.7998   38.1272 C   0  0  0  0  0  0  0  0  0  0  0  0
   28.9148    6.7606   39.0449 C   0  0  0  0  0  0  0  0  0  0  0  0
   29.7172    5.5668   39.1321 C   0  0  0  0  0  0  0  0  0  0  0  0
   30.8359    8.7171   36.3145 C   0  0  0  0  0  0  0  0  0  0  0  0
   28.4990    8.9562   38.0469 O   0  0  0  0  0  0  0  0  0  0  0  0
   28.7335    9.6362   37.4464 H   0  0  0  0  0  0  0  0  0  0  0  0
   29.3675    4.4276   40.1146 C   0  0  0  0  0  0  0  0  0  0  0  0
   30.1061    3.2295   39.8022 O   0  0  0  0  0  0  0  0  0  0  0  0
   29.8798    2.9345   38.9064 H   0  0  0  0  0  0  0  0  0  0  0  0
   27.6541    6.9459   39.9269 C   0  0  0  0  0  0  0  0  0  0  0  0
   27.7427    8.1700   40.7060 O   0  0  0  0  0  0  0  0  0  0  0  0
   26.6364    8.3045   41.6249 C   0  0  0  0  0  0  0  0  0  0  0  0
  7  3  1  0  0  0
  8  4  1  0  0  0
  3  4  2  0  0  0
  3  2  1  0  0  0
  4  5  1  0  0  0
  2  1  2  0  0  0
  5 13  1  0  0  0
  5  6  2  0  0  0
 13 14  1  0  0  0
  1  6  1  0  0  0
  6 10  1  0  0  0
 14 15  1  0  0  0
 10 11  1  0  0  0
 11 12  1  0  0  0
  8  9  1  0  0  0
M  END
> <minimizedAffinity>
-5.00765

$$$$
4EN4_GT0_A_405


 15 15  0  0  0  0  0  0  0  0999 V2000
   27.8532    6.2409   39.7857 C   0  0  0  0  0  0  0  0  0  0  0  0
   28.2091    7.4182   39.0893 N   0  0  0  0  0  0  0  0  0  0  0  0
   29.3711    7.4799   38.3105 C   0  0  0  0  0  0  0  0  0  0  0  0
   30.2207    6.3451   38.2198 C   0  0  0  0  0  0  0  0  0  0  0  0
   29.8780    5.1467   38.9247 C   0  0  0  0  0  0  0  0  0  0  0  0
   28.6766    5.0952   39.7187 C   0  0  0  0  0  0  0  0  0  0  0  0
   29.6964    8.7723   37.5849 C   0  0  0  0  0  0  0  0  0  0  0  0
   31.3807    6.3925   37.4483 O   0  0  0  0  0  0  0  0  0  0  0  0
   31.6048    7.1767   36.9870 H   0  0  0  0  0  0  0  0  0  0  0  0
   28.2695    3.8187   40.4871 C   0  0  0  0  0  0  0  0  0  0  0  0
   26.9727    3.3516   40.0645 O   0  0  0  0  0  0  0  0  0  0  0  0
   26.3085    4.0355   40.2436 H   0  0  0  0  0  0  0  0  0  0  0  0
   30.8231    3.9229   38.8195 C   0  0  0  0  0  0  0  0  0  0  0  0
   31.5546    3.7256   40.0601 O   0  0  0  0  0  0  0  0  0  0  0  0
   32.9632    4.0056   39.9047 C   0  0  0  0  0  0  0  0  0  0  0  0
  7  3  1  0  0  0
  8  4  1  0  0  0
  3  4  2  0  0  0
  3  2  1  0  0  0
  4  5  1  0  0  0
  2  1  2  0  0  0
  5 13  1  0  0  0
  5  6  2  0  0  0
 13 14  1  0  0  0
  1  6  1  0  0  0
  6 10  1  0  0  0
 14 15  1  0  0  0
 10 11  1  0  0  0
 11 12  1  0  0  0
  8  9  1  0  0  0
M  END
> <minimizedAffinity>
-4.77984

$$$$
4EN4_GT0_A_405


 15 15  0  0  0  0  0  0  0  0999 V2000
   28.6697    3.7118   40.6315 C   0  0  0  0  0  0  0  0  0  0  0  0
   29.4753    2.5889   40.3354 N   0  0  0  0  0  0  0  0  0  0  0  0
   30.8006    2.7363   39.9082 C   0  0  0  0  0  0  0  0  0  0  0  0
   31.3526    4.0365   39.7570 C   0  0  0  0  0  0  0  0  0  0  0  0
   30.5476    5.1849   40.0463 C   0  0  0  0  0  0  0  0  0  0  0  0
   29.1866    5.0187   40.4900 C   0  0  0  0  0  0  0  0  0  0  0  0
   31.6143    1.4911   39.6087 C   0  0  0  0  0  0  0  0  0  0  0  0
   32.6704    4.1981   39.3324 O   0  0  0  0  0  0  0  0  0  0  0  0
   33.1971    3.4466   39.1431 H   0  0  0  0  0  0  0  0  0  0  0  0
   28.2897    6.2323   40.8189 C   0  0  0  0  0  0  0  0  0  0  0  0
   27.3657    5.9204   41.8807 O   0  0  0  0  0  0  0  0  0  0  0  0
   26.7922    5.1880   41.6055 H   0  0  0  0  0  0  0  0  0  0  0  0
   31.1663    6.5944   39.8664 C   0  0  0  0  0  0  0  0  0  0  0  0
   31.7348    6.7443   38.5370 O   0  0  0  0  0  0  0  0  0  0  0  0
   30.7262    7.0615   37.5529 C   0  0  0  0  0  0  0  0  0  0  0  0
  7  3  1  0  0  0
  8  4  1  0  0  0
  3  4  2  0  0  0
  3  2  1  0  0  0
  4  5  1  0  0  0
  2  1  2  0  0  0
  5 13  1  0  0  0
  5  6  2  0  0  0
 13 14  1  0  0  0
  1  6  1  0  0  0
  6 10  1  0  0  0
 14 15  1  0  0  0
 10 11  1  0  0  0
 11 12  1  0  0  0
  8  9  1  0  0  0
M  END
> <minimizedAffinity>
-4.74573

$$$$
