4R5T_R5T_A_1112


 27 28  0  0  0  0  0  0  0  0999 V2000
   13.7123   10.6483   12.4237 C   0  0  0  0  0  0  0  0  0  0  0  0
   12.8242   11.6532   11.6602 C   0  0  0  0  0  0  0  0  0  0  0  0
   11.7643   11.2949   11.1601 O   0  0  0  0  0  0  0  0  0  0  0  0
   13.2981   12.8924   11.5283 N   0  0  0  0  0  0  0  0  0  0  0  0
   12.3630   13.9016   10.7443 O   0  0  0  0  0  0  0  0  0  0  0  0
   14.1715   13.1621   11.8941 H   0  0  0  0  0  0  0  0  0  0  0  0
   11.5535   13.4442   10.4680 H   0  0  0  0  0  0  0  0  0  0  0  0
   13.3189   10.5185   13.7560 C   0  0  0  0  0  0  0  0  0  0  0  0
   12.5827   11.5488   14.3331 C   0  0  0  0  0  0  0  0  0  0  0  0
   12.1696   11.4548   15.6583 C   0  0  0  0  0  0  0  0  0  0  0  0
   13.6475    9.3913   14.5081 C   0  0  0  0  0  0  0  0  0  0  0  0
   13.2368    9.2933   15.8399 C   0  0  0  0  0  0  0  0  0  0  0  0
   12.4938   10.3265   16.4096 C   0  0  0  0  0  0  0  0  0  0  0  0
   12.1043   10.2571   17.6772 N   0  0  0  0  0  0  0  0  0  0  0  0
   12.3850    9.3808   18.4605 N   0  0  0  0  0  0  0  0  0  0  0  0
   11.8305    9.6374   19.6473 C   0  0  0  0  0  0  0  0  0  0  0  0
   11.1716   10.7843   19.5376 C   0  0  0  0  0  0  0  0  0  0  0  0
   11.3482   11.1772   18.2832 C   0  0  0  0  0  0  0  0  0  0  0  0
   15.9145   10.5726   11.3475 C   0  0  0  0  0  0  0  0  0  0  0  0
   17.0965   10.9108   11.3228 O   0  0  0  0  0  0  0  0  0  0  0  0
   15.1343   11.0248   12.3402 N   0  0  0  0  0  0  0  0  0  0  0  0
   15.5184   11.6187   13.0250 H   0  0  0  0  0  0  0  0  0  0  0  0
   15.3710    9.7502   10.3827 O   0  0  0  0  0  0  0  0  0  0  0  0
   15.1937    7.7003    9.0862 C   0  0  0  0  0  0  0  0  0  0  0  0
   15.8861    8.3924   10.2726 C   0  0  0  0  0  0  0  0  0  0  0  0
   17.3966    8.4218   10.0092 C   0  0  0  0  0  0  0  0  0  0  0  0
   15.5813    7.5858   11.5490 C   0  0  0  0  0  0  0  0  0  0  0  0
 26 25  1  0  0  0
 24 25  1  0  0  0
 25 27  1  0  0  0
 25 23  1  0  0  0
  5  4  1  0  0  0
 23 19  1  0  0  0
  3  2  2  0  0  0
  4  2  1  0  0  0
  2  1  1  0  0  0
 20 19  2  0  0  0
 19 21  1  0  0  0
 21  1  1  0  0  0
  1  8  1  0  0  0
  8 11  2  0  0  0
  8  9  1  0  0  0
 11 12  1  0  0  0
  9 10  2  0  0  0
 12 13  2  0  0  0
 10 13  1  0  0  0
 13 14  1  0  0  0
 14 15  1  0  0  0
 14 18  1  0  0  0
 15 16  2  0  0  0
 18 17  2  0  0  0
 16 17  1  0  0  0
 21 22  1  0  0  0
  4  6  1  0  0  0
  5  7  1  0  0  0
M  END
> <minimizedAffinity>
-9.79529

$$$$
4R5T_R5T_A_1112


 27 28  0  0  0  0  0  0  0  0999 V2000
   14.0716   10.5988   11.5976 C   0  0  0  0  0  0  0  0  0  0  0  0
   12.9787   11.6410   11.2800 C   0  0  0  0  0  0  0  0  0  0  0  0
   11.8089   11.2992   11.1522 O   0  0  0  0  0  0  0  0  0  0  0  0
   13.3841   12.8980   11.0971 N   0  0  0  0  0  0  0  0  0  0  0  0
   12.2400   13.9450   10.7770 O   0  0  0  0  0  0  0  0  0  0  0  0
   14.3318   13.1579   11.1570 H   0  0  0  0  0  0  0  0  0  0  0  0
   11.3823   13.4922   10.7623 H   0  0  0  0  0  0  0  0  0  0  0  0
   13.9447   10.0944   12.8923 C   0  0  0  0  0  0  0  0  0  0  0  0
   14.4161    8.8114   13.1530 C   0  0  0  0  0  0  0  0  0  0  0  0
   14.3102    8.2748   14.4322 C   0  0  0  0  0  0  0  0  0  0  0  0
   13.3607   10.8427   13.9136 C   0  0  0  0  0  0  0  0  0  0  0  0
   13.2500   10.3074   15.1994 C   0  0  0  0  0  0  0  0  0  0  0  0
   13.7305    9.0236   15.4548 C   0  0  0  0  0  0  0  0  0  0  0  0
   13.6238    8.4929   16.6674 N   0  0  0  0  0  0  0  0  0  0  0  0
   13.0480    8.9829   17.6101 N   0  0  0  0  0  0  0  0  0  0  0  0
   13.1344    8.1720   18.6668 C   0  0  0  0  0  0  0  0  0  0  0  0
   13.8221    7.1011   18.2899 C   0  0  0  0  0  0  0  0  0  0  0  0
   14.1315    7.3073   17.0168 C   0  0  0  0  0  0  0  0  0  0  0  0
   16.1228   10.8876   10.2849 C   0  0  0  0  0  0  0  0  0  0  0  0
   17.2443   11.3764   10.1611 O   0  0  0  0  0  0  0  0  0  0  0  0
   15.4181   11.1609   11.3928 N   0  0  0  0  0  0  0  0  0  0  0  0
   15.8073   11.7472   12.0812 H   0  0  0  0  0  0  0  0  0  0  0  0
   15.5704   10.0754    9.3165 O   0  0  0  0  0  0  0  0  0  0  0  0
   17.0509    8.3936   10.2619 C   0  0  0  0  0  0  0  0  0  0  0  0
   16.2288    8.8084    9.0298 C   0  0  0  0  0  0  0  0  0  0  0  0
   15.1827    7.7225    8.7505 C   0  0  0  0  0  0  0  0  0  0  0  0
   17.1876    8.9481    7.8324 C   0  0  0  0  0  0  0  0  0  0  0  0
 26 25  1  0  0  0
 24 25  1  0  0  0
 25 27  1  0  0  0
 25 23  1  0  0  0
  5  4  1  0  0  0
 23 19  1  0  0  0
  3  2  2  0  0  0
  4  2  1  0  0  0
  2  1  1  0  0  0
 20 19  2  0  0  0
 19 21  1  0  0  0
 21  1  1  0  0  0
  1  8  1  0  0  0
  8 11  2  0  0  0
  8  9  1  0  0  0
 11 12  1  0  0  0
  9 10  2  0  0  0
 12 13  2  0  0  0
 10 13  1  0  0  0
 13 14  1  0  0  0
 14 15  1  0  0  0
 14 18  1  0  0  0
 15 16  2  0  0  0
 18 17  2  0  0  0
 16 17  1  0  0  0
 21 22  1  0  0  0
  4  6  1  0  0  0
  5  7  1  0  0  0
M  END
> <minimizedAffinity>
-9.49899

$$$$
4R5T_R5T_A_1112


 27 28  0  0  0  0  0  0  0  0999 V2000
   14.8795    9.0425   11.6524 C   0  0  0  0  0  0  0  0  0  0  0  0
   16.0656    9.9662   11.3038 C   0  0  0  0  0  0  0  0  0  0  0  0
   17.0887    9.9494   11.9781 O   0  0  0  0  0  0  0  0  0  0  0  0
   15.8906   10.8077   10.2846 N   0  0  0  0  0  0  0  0  0  0  0  0
   17.1261   11.7393    9.9481 O   0  0  0  0  0  0  0  0  0  0  0  0
   15.0492   10.8473    9.7751 H   0  0  0  0  0  0  0  0  0  0  0  0
   17.8526   11.5470   10.5613 H   0  0  0  0  0  0  0  0  0  0  0  0
   14.2689    9.4146   12.8505 C   0  0  0  0  0  0  0  0  0  0  0  0
   14.1195    8.4528   13.8450 C   0  0  0  0  0  0  0  0  0  0  0  0
   13.5184    8.7862   15.0546 C   0  0  0  0  0  0  0  0  0  0  0  0
   13.8112   10.7142   13.0641 C   0  0  0  0  0  0  0  0  0  0  0  0
   13.2048   11.0534   14.2763 C   0  0  0  0  0  0  0  0  0  0  0  0
   13.0646   10.0862   15.2707 C   0  0  0  0  0  0  0  0  0  0  0  0
   12.4804   10.3860   16.4249 N   0  0  0  0  0  0  0  0  0  0  0  0
   11.6440   11.2409   16.5978 N   0  0  0  0  0  0  0  0  0  0  0  0
   11.2724   11.2604   17.8797 C   0  0  0  0  0  0  0  0  0  0  0  0
   11.9585   10.3125   18.5061 C   0  0  0  0  0  0  0  0  0  0  0  0
   12.7259    9.7568   17.5780 C   0  0  0  0  0  0  0  0  0  0  0  0
   15.5677    6.9450   10.5843 C   0  0  0  0  0  0  0  0  0  0  0  0
   15.9122    5.7684   10.6788 O   0  0  0  0  0  0  0  0  0  0  0  0
   15.3016    7.6318   11.7050 N   0  0  0  0  0  0  0  0  0  0  0  0
   15.3899    7.1856   12.5782 H   0  0  0  0  0  0  0  0  0  0  0  0
   15.4548    7.5760    9.3628 O   0  0  0  0  0  0  0  0  0  0  0  0
   17.8846    7.4815    9.3243 C   0  0  0  0  0  0  0  0  0  0  0  0
   16.6063    7.5511    8.4716 C   0  0  0  0  0  0  0  0  0  0  0  0
   16.5494    6.3106    7.5718 C   0  0  0  0  0  0  0  0  0  0  0  0
   16.6641    8.8304    7.6156 C   0  0  0  0  0  0  0  0  0  0  0  0
 26 25  1  0  0  0
 24 25  1  0  0  0
 25 27  1  0  0  0
 25 23  1  0  0  0
  5  4  1  0  0  0
 23 19  1  0  0  0
  3  2  2  0  0  0
  4  2  1  0  0  0
  2  1  1  0  0  0
 20 19  2  0  0  0
 19 21  1  0  0  0
 21  1  1  0  0  0
  1  8  1  0  0  0
  8 11  2  0  0  0
  8  9  1  0  0  0
 11 12  1  0  0  0
  9 10  2  0  0  0
 12 13  2  0  0  0
 10 13  1  0  0  0
 13 14  1  0  0  0
 14 15  1  0  0  0
 14 18  1  0  0  0
 15 16  2  0  0  0
 18 17  2  0  0  0
 16 17  1  0  0  0
 21 22  1  0  0  0
  4  6  1  0  0  0
  5  7  1  0  0  0
M  END
> <minimizedAffinity>
-8.91159

$$$$
4R5T_R5T_A_1112


 27 28  0  0  0  0  0  0  0  0999 V2000
   14.4133   10.2037   11.9827 C   0  0  0  0  0  0  0  0  0  0  0  0
   13.3627   11.1230   11.3249 C   0  0  0  0  0  0  0  0  0  0  0  0
   12.3725   10.6490   10.7803 O   0  0  0  0  0  0  0  0  0  0  0  0
   13.6223   12.4307   11.3316 N   0  0  0  0  0  0  0  0  0  0  0  0
   12.5244   13.3485   10.6534 O   0  0  0  0  0  0  0  0  0  0  0  0
   14.4420   12.8011   11.7316 H   0  0  0  0  0  0  0  0  0  0  0  0
   11.7997   12.7951   10.3226 H   0  0  0  0  0  0  0  0  0  0  0  0
   15.0612    9.4025   11.0419 C   0  0  0  0  0  0  0  0  0  0  0  0
   15.3500    8.0841   11.3805 C   0  0  0  0  0  0  0  0  0  0  0  0
   15.9924    7.2532   10.4681 C   0  0  0  0  0  0  0  0  0  0  0  0
   15.4201    9.8940    9.7874 C   0  0  0  0  0  0  0  0  0  0  0  0
   16.0674    9.0642    8.8685 C   0  0  0  0  0  0  0  0  0  0  0  0
   16.3476    7.7423    9.2122 C   0  0  0  0  0  0  0  0  0  0  0  0
   16.9726    6.9415    8.3570 N   0  0  0  0  0  0  0  0  0  0  0  0
   18.1524    6.9614    8.0962 N   0  0  0  0  0  0  0  0  0  0  0  0
   18.4362    6.0117    7.2022 C   0  0  0  0  0  0  0  0  0  0  0  0
   17.3049    5.3737    6.9285 C   0  0  0  0  0  0  0  0  0  0  0  0
   16.3752    5.9666    7.6654 C   0  0  0  0  0  0  0  0  0  0  0  0
   13.5306    9.8805   14.2477 C   0  0  0  0  0  0  0  0  0  0  0  0
   13.0288    9.1465   15.0971 O   0  0  0  0  0  0  0  0  0  0  0  0
   13.8069    9.3727   13.0376 N   0  0  0  0  0  0  0  0  0  0  0  0
   13.6010    8.4283   12.8508 H   0  0  0  0  0  0  0  0  0  0  0  0
   13.8091   11.2072   14.5030 O   0  0  0  0  0  0  0  0  0  0  0  0
   13.2372   13.4862   15.1301 C   0  0  0  0  0  0  0  0  0  0  0  0
   12.7582   12.0251   15.0926 C   0  0  0  0  0  0  0  0  0  0  0  0
   11.4879   11.9477   14.2368 C   0  0  0  0  0  0  0  0  0  0  0  0
   12.4592   11.5762   16.5354 C   0  0  0  0  0  0  0  0  0  0  0  0
 26 25  1  0  0  0
 24 25  1  0  0  0
 25 27  1  0  0  0
 25 23  1  0  0  0
  5  4  1  0  0  0
 23 19  1  0  0  0
  3  2  2  0  0  0
  4  2  1  0  0  0
  2  1  1  0  0  0
 20 19  2  0  0  0
 19 21  1  0  0  0
 21  1  1  0  0  0
  1  8  1  0  0  0
  8 11  2  0  0  0
  8  9  1  0  0  0
 11 12  1  0  0  0
  9 10  2  0  0  0
 12 13  2  0  0  0
 10 13  1  0  0  0
 13 14  1  0  0  0
 14 15  1  0  0  0
 14 18  1  0  0  0
 15 16  2  0  0  0
 18 17  2  0  0  0
 16 17  1  0  0  0
 21 22  1  0  0  0
  4  6  1  0  0  0
  5  7  1  0  0  0
M  END
> <minimizedAffinity>
-8.73974

$$$$
4R5T_R5T_A_1112


 27 28  0  0  0  0  0  0  0  0999 V2000
   12.6773   11.5973   14.4287 C   0  0  0  0  0  0  0  0  0  0  0  0
   12.1316   12.3446   13.1937 C   0  0  0  0  0  0  0  0  0  0  0  0
   12.8077   13.1986   12.6321 O   0  0  0  0  0  0  0  0  0  0  0  0
   10.8850   12.0547   12.8200 N   0  0  0  0  0  0  0  0  0  0  0  0
   10.3547   12.8339   11.5475 O   0  0  0  0  0  0  0  0  0  0  0  0
   10.3311   11.3998   13.3031 H   0  0  0  0  0  0  0  0  0  0  0  0
   11.0477   13.4286   11.2204 H   0  0  0  0  0  0  0  0  0  0  0  0
   13.2806   10.3893   14.0775 C   0  0  0  0  0  0  0  0  0  0  0  0
   14.0348   10.3400   12.9091 C   0  0  0  0  0  0  0  0  0  0  0  0
   14.6543    9.1544   12.5271 C   0  0  0  0  0  0  0  0  0  0  0  0
   13.1412    9.2471   14.8651 C   0  0  0  0  0  0  0  0  0  0  0  0
   13.7596    8.0535   14.4845 C   0  0  0  0  0  0  0  0  0  0  0  0
   14.5192    8.0134   13.3160 C   0  0  0  0  0  0  0  0  0  0  0  0
   15.1049    6.8854   12.9313 N   0  0  0  0  0  0  0  0  0  0  0  0
   16.2493    6.7686   12.5611 N   0  0  0  0  0  0  0  0  0  0  0  0
   16.5017    5.4928   12.2607 C   0  0  0  0  0  0  0  0  0  0  0  0
   15.3911    4.8036   12.4915 C   0  0  0  0  0  0  0  0  0  0  0  0
   14.5039    5.6920   12.9192 C   0  0  0  0  0  0  0  0  0  0  0  0
   11.6435   11.9879   16.6179 C   0  0  0  0  0  0  0  0  0  0  0  0
   10.7379   11.7654   17.4195 O   0  0  0  0  0  0  0  0  0  0  0  0
   11.6164   11.3731   15.4263 N   0  0  0  0  0  0  0  0  0  0  0  0
   10.8747   10.7613   15.2144 H   0  0  0  0  0  0  0  0  0  0  0  0
   12.6774   12.8538   16.9076 O   0  0  0  0  0  0  0  0  0  0  0  0
   13.8545   11.0151   17.9791 C   0  0  0  0  0  0  0  0  0  0  0  0
   13.5539   12.5229   18.0227 C   0  0  0  0  0  0  0  0  0  0  0  0
   14.8761   13.2899   17.8989 C   0  0  0  0  0  0  0  0  0  0  0  0
   12.8740   12.8426   19.3674 C   0  0  0  0  0  0  0  0  0  0  0  0
 26 25  1  0  0  0
 24 25  1  0  0  0
 25 27  1  0  0  0
 25 23  1  0  0  0
  5  4  1  0  0  0
 23 19  1  0  0  0
  3  2  2  0  0  0
  4  2  1  0  0  0
  2  1  1  0  0  0
 20 19  2  0  0  0
 19 21  1  0  0  0
 21  1  1  0  0  0
  1  8  1  0  0  0
  8 11  2  0  0  0
  8  9  1  0  0  0
 11 12  1  0  0  0
  9 10  2  0  0  0
 12 13  2  0  0  0
 10 13  1  0  0  0
 13 14  1  0  0  0
 14 15  1  0  0  0
 14 18  1  0  0  0
 15 16  2  0  0  0
 18 17  2  0  0  0
 16 17  1  0  0  0
 21 22  1  0  0  0
  4  6  1  0  0  0
  5  7  1  0  0  0
M  END
> <minimizedAffinity>
-8.72408

$$$$
4R5T_R5T_A_1112


 27 28  0  0  0  0  0  0  0  0999 V2000
   16.0053    8.0323   11.5866 C   0  0  0  0  0  0  0  0  0  0  0  0
   17.4888    8.3768   11.8361 C   0  0  0  0  0  0  0  0  0  0  0  0
   18.1355    8.9940   10.9979 O   0  0  0  0  0  0  0  0  0  0  0  0
   18.0284    7.9198   12.9664 N   0  0  0  0  0  0  0  0  0  0  0  0
   19.5501    8.2929   13.1965 O   0  0  0  0  0  0  0  0  0  0  0  0
   17.5149    7.3859   13.6149 H   0  0  0  0  0  0  0  0  0  0  0  0
   19.8707    8.8195   12.4477 H   0  0  0  0  0  0  0  0  0  0  0  0
   15.1662    8.6626   12.5059 C   0  0  0  0  0  0  0  0  0  0  0  0
   14.9546   10.0321   12.3798 C   0  0  0  0  0  0  0  0  0  0  0  0
   14.1220   10.6957   13.2754 C   0  0  0  0  0  0  0  0  0  0  0  0
   14.5466    7.9539   13.5346 C   0  0  0  0  0  0  0  0  0  0  0  0
   13.7115    8.6163   14.4379 C   0  0  0  0  0  0  0  0  0  0  0  0
   13.4988    9.9875   14.3013 C   0  0  0  0  0  0  0  0  0  0  0  0
   12.7179   10.6369   15.1568 N   0  0  0  0  0  0  0  0  0  0  0  0
   12.0014   11.5741   14.8952 N   0  0  0  0  0  0  0  0  0  0  0  0
   11.3540   11.9714   15.9929 C   0  0  0  0  0  0  0  0  0  0  0  0
   11.7295   11.1740   16.9853 C   0  0  0  0  0  0  0  0  0  0  0  0
   12.5967   10.3250   16.4505 C   0  0  0  0  0  0  0  0  0  0  0  0
   15.5097    5.9017   10.4781 C   0  0  0  0  0  0  0  0  0  0  0  0
   15.3313    4.6868   10.5438 O   0  0  0  0  0  0  0  0  0  0  0  0
   15.7876    6.5751   11.6041 N   0  0  0  0  0  0  0  0  0  0  0  0
   15.8472    6.0874   12.4572 H   0  0  0  0  0  0  0  0  0  0  0  0
   15.4385    6.5855    9.2823 O   0  0  0  0  0  0  0  0  0  0  0  0
   16.1543    5.4962    7.2292 C   0  0  0  0  0  0  0  0  0  0  0  0
   16.5561    6.4621    8.3567 C   0  0  0  0  0  0  0  0  0  0  0  0
   16.8820    7.8276    7.7394 C   0  0  0  0  0  0  0  0  0  0  0  0
   17.7955    5.8873    9.0681 C   0  0  0  0  0  0  0  0  0  0  0  0
 26 25  1  0  0  0
 24 25  1  0  0  0
 25 27  1  0  0  0
 25 23  1  0  0  0
  5  4  1  0  0  0
 23 19  1  0  0  0
  3  2  2  0  0  0
  4  2  1  0  0  0
  2  1  1  0  0  0
 20 19  2  0  0  0
 19 21  1  0  0  0
 21  1  1  0  0  0
  1  8  1  0  0  0
  8 11  2  0  0  0
  8  9  1  0  0  0
 11 12  1  0  0  0
  9 10  2  0  0  0
 12 13  2  0  0  0
 10 13  1  0  0  0
 13 14  1  0  0  0
 14 15  1  0  0  0
 14 18  1  0  0  0
 15 16  2  0  0  0
 18 17  2  0  0  0
 16 17  1  0  0  0
 21 22  1  0  0  0
  4  6  1  0  0  0
  5  7  1  0  0  0
M  END
> <minimizedAffinity>
-8.37769

$$$$
4R5T_R5T_A_1112


 27 28  0  0  0  0  0  0  0  0999 V2000
   13.7498   11.1410   12.8058 C   0  0  0  0  0  0  0  0  0  0  0  0
   12.6429   12.0478   12.2279 C   0  0  0  0  0  0  0  0  0  0  0  0
   12.9302   13.0464   11.5783 O   0  0  0  0  0  0  0  0  0  0  0  0
   11.3846   11.7200   12.5229 N   0  0  0  0  0  0  0  0  0  0  0  0
   10.2712   12.6661   11.9125 O   0  0  0  0  0  0  0  0  0  0  0  0
   11.1626   10.9415   13.0831 H   0  0  0  0  0  0  0  0  0  0  0  0
   10.6930   13.3698   11.3949 H   0  0  0  0  0  0  0  0  0  0  0  0
   14.5777   10.6330   11.8042 C   0  0  0  0  0  0  0  0  0  0  0  0
   14.0016    9.8758   10.7887 C   0  0  0  0  0  0  0  0  0  0  0  0
   14.7937    9.3547    9.7706 C   0  0  0  0  0  0  0  0  0  0  0  0
   15.9524   10.8664   11.8047 C   0  0  0  0  0  0  0  0  0  0  0  0
   16.7524   10.3433   10.7857 C   0  0  0  0  0  0  0  0  0  0  0  0
   16.1673    9.5912    9.7678 C   0  0  0  0  0  0  0  0  0  0  0  0
   16.9124    9.0757    8.7971 N   0  0  0  0  0  0  0  0  0  0  0  0
   17.4937    8.0168    8.8326 N   0  0  0  0  0  0  0  0  0  0  0  0
   18.1365    7.8125    7.6808 C   0  0  0  0  0  0  0  0  0  0  0  0
   17.8914    8.8567    6.8989 C   0  0  0  0  0  0  0  0  0  0  0  0
   17.1113    9.6587    7.6112 C   0  0  0  0  0  0  0  0  0  0  0  0
   13.1325   10.1120   14.9445 C   0  0  0  0  0  0  0  0  0  0  0  0
   12.6480    9.1701   15.5690 O   0  0  0  0  0  0  0  0  0  0  0  0
   13.1757   10.0449   13.6057 N   0  0  0  0  0  0  0  0  0  0  0  0
   12.8176    9.2494   13.1495 H   0  0  0  0  0  0  0  0  0  0  0  0
   13.6241   11.2329   15.5806 O   0  0  0  0  0  0  0  0  0  0  0  0
   13.6092   12.9925   17.2592 C   0  0  0  0  0  0  0  0  0  0  0  0
   12.8261   11.8175   16.6494 C   0  0  0  0  0  0  0  0  0  0  0  0
   11.5023   12.3500   16.0875 C   0  0  0  0  0  0  0  0  0  0  0  0
   12.5586   10.7850   17.7607 C   0  0  0  0  0  0  0  0  0  0  0  0
 26 25  1  0  0  0
 24 25  1  0  0  0
 25 27  1  0  0  0
 25 23  1  0  0  0
  5  4  1  0  0  0
 23 19  1  0  0  0
  3  2  2  0  0  0
  4  2  1  0  0  0
  2  1  1  0  0  0
 20 19  2  0  0  0
 19 21  1  0  0  0
 21  1  1  0  0  0
  1  8  1  0  0  0
  8 11  2  0  0  0
  8  9  1  0  0  0
 11 12  1  0  0  0
  9 10  2  0  0  0
 12 13  2  0  0  0
 10 13  1  0  0  0
 13 14  1  0  0  0
 14 15  1  0  0  0
 14 18  1  0  0  0
 15 16  2  0  0  0
 18 17  2  0  0  0
 16 17  1  0  0  0
 21 22  1  0  0  0
  4  6  1  0  0  0
  5  7  1  0  0  0
M  END
> <minimizedAffinity>
-8.14657

$$$$
4R5T_R5T_A_1112


 27 28  0  0  0  0  0  0  0  0999 V2000
   15.8033    8.5158   11.5312 C   0  0  0  0  0  0  0  0  0  0  0  0
   15.7124    9.3409   10.2303 C   0  0  0  0  0  0  0  0  0  0  0  0
   14.8229    9.1251    9.4154 O   0  0  0  0  0  0  0  0  0  0  0  0
   16.6738   10.2410   10.0228 N   0  0  0  0  0  0  0  0  0  0  0  0
   16.5513   11.0748    8.6822 O   0  0  0  0  0  0  0  0  0  0  0  0
   17.4110   10.3781   10.6608 H   0  0  0  0  0  0  0  0  0  0  0  0
   15.7614   10.7910    8.1960 H   0  0  0  0  0  0  0  0  0  0  0  0
   14.9883    9.0406   12.5347 C   0  0  0  0  0  0  0  0  0  0  0  0
   14.6981   10.4013   12.5089 C   0  0  0  0  0  0  0  0  0  0  0  0
   13.8866   10.9612   13.4905 C   0  0  0  0  0  0  0  0  0  0  0  0
   14.4688    8.2368   13.5486 C   0  0  0  0  0  0  0  0  0  0  0  0
   13.6551    8.7948   14.5379 C   0  0  0  0  0  0  0  0  0  0  0  0
   13.3632   10.1577   14.5019 C   0  0  0  0  0  0  0  0  0  0  0  0
   12.6015   10.7088   15.4397 N   0  0  0  0  0  0  0  0  0  0  0  0
   11.8388   11.6332   15.2842 N   0  0  0  0  0  0  0  0  0  0  0  0
   11.2315   11.9202   16.4376 C   0  0  0  0  0  0  0  0  0  0  0  0
   11.6842   11.0665   17.3475 C   0  0  0  0  0  0  0  0  0  0  0  0
   12.5552   10.2960   16.7098 C   0  0  0  0  0  0  0  0  0  0  0  0
   17.9216    7.3059   11.7819 C   0  0  0  0  0  0  0  0  0  0  0  0
   19.0788    7.2654   12.1958 O   0  0  0  0  0  0  0  0  0  0  0  0
   17.1965    8.4129   11.9994 N   0  0  0  0  0  0  0  0  0  0  0  0
   17.6023    9.1701   12.4804 H   0  0  0  0  0  0  0  0  0  0  0  0
   17.3546    6.2510   11.0973 O   0  0  0  0  0  0  0  0  0  0  0  0
   15.4707    4.7521   11.4414 C   0  0  0  0  0  0  0  0  0  0  0  0
   16.9078    5.0980   11.8667 C   0  0  0  0  0  0  0  0  0  0  0  0
   17.8084    3.8908   11.5776 C   0  0  0  0  0  0  0  0  0  0  0  0
   16.9041    5.4136   13.3743 C   0  0  0  0  0  0  0  0  0  0  0  0
 26 25  1  0  0  0
 24 25  1  0  0  0
 25 27  1  0  0  0
 25 23  1  0  0  0
  5  4  1  0  0  0
 23 19  1  0  0  0
  3  2  2  0  0  0
  4  2  1  0  0  0
  2  1  1  0  0  0
 20 19  2  0  0  0
 19 21  1  0  0  0
 21  1  1  0  0  0
  1  8  1  0  0  0
  8 11  2  0  0  0
  8  9  1  0  0  0
 11 12  1  0  0  0
  9 10  2  0  0  0
 12 13  2  0  0  0
 10 13  1  0  0  0
 13 14  1  0  0  0
 14 15  1  0  0  0
 14 18  1  0  0  0
 15 16  2  0  0  0
 18 17  2  0  0  0
 16 17  1  0  0  0
 21 22  1  0  0  0
  4  6  1  0  0  0
  5  7  1  0  0  0
M  END
> <minimizedAffinity>
-7.90790

$$$$
4R5T_R5T_A_1112


 27 28  0  0  0  0  0  0  0  0999 V2000
   15.9433    8.0419   11.4875 C   0  0  0  0  0  0  0  0  0  0  0  0
   15.5562    8.3894   10.0346 C   0  0  0  0  0  0  0  0  0  0  0  0
   14.5259    9.0078    9.7942 O   0  0  0  0  0  0  0  0  0  0  0  0
   16.3612    7.9337    9.0744 N   0  0  0  0  0  0  0  0  0  0  0  0
   15.9407    8.3098    7.5948 O   0  0  0  0  0  0  0  0  0  0  0  0
   17.1638    7.3989    9.2722 H   0  0  0  0  0  0  0  0  0  0  0  0
   15.1266    8.8369    7.6141 H   0  0  0  0  0  0  0  0  0  0  0  0
   15.1436    8.7158   12.4111 C   0  0  0  0  0  0  0  0  0  0  0  0
   14.4599    7.9688   13.3655 C   0  0  0  0  0  0  0  0  0  0  0  0
   13.6550    8.6048   14.3053 C   0  0  0  0  0  0  0  0  0  0  0  0
   15.0186   10.1044   12.3930 C   0  0  0  0  0  0  0  0  0  0  0  0
   14.2097   10.7476   13.3333 C   0  0  0  0  0  0  0  0  0  0  0  0
   13.5329    9.9931   14.2908 C   0  0  0  0  0  0  0  0  0  0  0  0
   12.7502   10.5850   15.1854 N   0  0  0  0  0  0  0  0  0  0  0  0
   12.6274   10.2663   16.3445 N   0  0  0  0  0  0  0  0  0  0  0  0
   11.7659   11.0850   16.9521 C   0  0  0  0  0  0  0  0  0  0  0  0
   11.3593   11.9719   16.0521 C   0  0  0  0  0  0  0  0  0  0  0  0
   11.9879   11.6522   14.9288 C   0  0  0  0  0  0  0  0  0  0  0  0
   18.1862    7.3708   12.2174 C   0  0  0  0  0  0  0  0  0  0  0  0
   19.3667    7.6519   12.4158 O   0  0  0  0  0  0  0  0  0  0  0  0
   17.3681    8.3199   11.7393 N   0  0  0  0  0  0  0  0  0  0  0  0
   17.7259    9.2180   11.5533 H   0  0  0  0  0  0  0  0  0  0  0  0
   17.6851    6.1099   12.4659 O   0  0  0  0  0  0  0  0  0  0  0  0
   17.6412    6.8787   14.7727 C   0  0  0  0  0  0  0  0  0  0  0  0
   17.6455    5.6501   13.8472 C   0  0  0  0  0  0  0  0  0  0  0  0
   16.3653    4.8437   14.0974 C   0  0  0  0  0  0  0  0  0  0  0  0
   18.8865    4.7995   14.1772 C   0  0  0  0  0  0  0  0  0  0  0  0
 26 25  1  0  0  0
 24 25  1  0  0  0
 25 27  1  0  0  0
 25 23  1  0  0  0
  5  4  1  0  0  0
 23 19  1  0  0  0
  3  2  2  0  0  0
  4  2  1  0  0  0
  2  1  1  0  0  0
 20 19  2  0  0  0
 19 21  1  0  0  0
 21  1  1  0  0  0
  1  8  1  0  0  0
  8 11  2  0  0  0
  8  9  1  0  0  0
 11 12  1  0  0  0
  9 10  2  0  0  0
 12 13  2  0  0  0
 10 13  1  0  0  0
 13 14  1  0  0  0
 14 15  1  0  0  0
 14 18  1  0  0  0
 15 16  2  0  0  0
 18 17  2  0  0  0
 16 17  1  0  0  0
 21 22  1  0  0  0
  4  6  1  0  0  0
  5  7  1  0  0  0
M  END
> <minimizedAffinity>
-7.68329

$$$$
4R5T_R5T_A_1112


 27 28  0  0  0  0  0  0  0  0999 V2000
   15.3746    9.4711   11.8712 C   0  0  0  0  0  0  0  0  0  0  0  0
   15.1112   10.8930   11.3324 C   0  0  0  0  0  0  0  0  0  0  0  0
   16.0020   11.5243   10.7758 O   0  0  0  0  0  0  0  0  0  0  0  0
   13.9010   11.4049   11.5580 N   0  0  0  0  0  0  0  0  0  0  0  0
   13.6592   12.8631   10.9898 O   0  0  0  0  0  0  0  0  0  0  0  0
   13.2039   10.9092   12.0455 H   0  0  0  0  0  0  0  0  0  0  0  0
   14.4633   13.1743   10.5453 H   0  0  0  0  0  0  0  0  0  0  0  0
   15.7571    8.5953   10.8546 C   0  0  0  0  0  0  0  0  0  0  0  0
   14.8722    8.3723    9.8041 C   0  0  0  0  0  0  0  0  0  0  0  0
   15.2187    7.5083    8.7702 C   0  0  0  0  0  0  0  0  0  0  0  0
   16.9920    7.9482   10.8742 C   0  0  0  0  0  0  0  0  0  0  0  0
   17.3437    7.0779    9.8394 C   0  0  0  0  0  0  0  0  0  0  0  0
   16.4547    6.8644    8.7867 C   0  0  0  0  0  0  0  0  0  0  0  0
   16.7659    6.0319    7.8000 N   0  0  0  0  0  0  0  0  0  0  0  0
   17.8751    5.8241    7.3679 N   0  0  0  0  0  0  0  0  0  0  0  0
   17.8184    4.9231    6.3848 C   0  0  0  0  0  0  0  0  0  0  0  0
   16.5470    4.5691    6.2440 C   0  0  0  0  0  0  0  0  0  0  0  0
   15.8793    5.2753    7.1465 C   0  0  0  0  0  0  0  0  0  0  0  0
   14.3357    8.1843   13.6819 C   0  0  0  0  0  0  0  0  0  0  0  0
   13.3243    7.7668   14.2430 O   0  0  0  0  0  0  0  0  0  0  0  0
   14.1984    8.9475   12.5876 N   0  0  0  0  0  0  0  0  0  0  0  0
   13.2961    9.1616   12.2574 H   0  0  0  0  0  0  0  0  0  0  0  0
   15.6009    7.8956   14.1495 O   0  0  0  0  0  0  0  0  0  0  0  0
   17.5126    6.3931   14.1035 C   0  0  0  0  0  0  0  0  0  0  0  0
   15.9858    6.4954   14.2599 C   0  0  0  0  0  0  0  0  0  0  0  0
   15.5969    5.9494   15.6391 C   0  0  0  0  0  0  0  0  0  0  0  0
   15.3278    5.6571   13.1477 C   0  0  0  0  0  0  0  0  0  0  0  0
 26 25  1  0  0  0
 24 25  1  0  0  0
 25 27  1  0  0  0
 25 23  1  0  0  0
  5  4  1  0  0  0
 23 19  1  0  0  0
  3  2  2  0  0  0
  4  2  1  0  0  0
  2  1  1  0  0  0
 20 19  2  0  0  0
 19 21  1  0  0  0
 21  1  1  0  0  0
  1  8  1  0  0  0
  8 11  2  0  0  0
  8  9  1  0  0  0
 11 12  1  0  0  0
  9 10  2  0  0  0
 12 13  2  0  0  0
 10 13  1  0  0  0
 13 14  1  0  0  0
 14 15  1  0  0  0
 14 18  1  0  0  0
 15 16  2  0  0  0
 18 17  2  0  0  0
 16 17  1  0  0  0
 21 22  1  0  0  0
  4  6  1  0  0  0
  5  7  1  0  0  0
M  END
> <minimizedAffinity>
-7.58640

$$$$
