4DKR_0LJ_A_513


 33 35  0  0  0  0  0  0  0  0999 V2000
   29.2754  -14.6601   35.2307 C   0  0  0  0  0  0  0  0  0  0  0  0
   29.2907  -15.2695   33.0041 C   0  0  0  0  0  0  0  0  0  0  0  0
   29.2608  -12.7922   32.0669 C   0  0  0  0  0  0  0  0  0  0  0  0
   29.2417  -11.4379   32.4228 C   0  0  0  0  0  0  0  0  0  0  0  0
   29.2432  -12.0453   34.7676 C   0  0  0  0  0  0  0  0  0  0  0  0
   28.8183  -15.7107   34.2965 C   0  0  0  0  0  0  0  0  0  0  0  0
   29.2716  -13.7822   33.0678 C   0  0  0  0  0  0  0  0  0  0  0  0
   29.2656  -13.4107   34.4047 C   0  0  0  0  0  0  0  0  0  0  0  0
   29.2312  -11.0657   33.7740 C   0  0  0  0  0  0  0  0  0  0  0  0
   28.5362  -15.2314   37.4871 C   0  0  0  0  0  0  0  0  0  0  0  0
   28.3628  -14.5017   36.2670 N   0  0  0  0  0  0  0  0  0  0  0  0
   29.4916  -16.0147   37.6193 O   0  0  0  0  0  0  0  0  0  0  0  0
   27.5991  -13.8893   36.1626 H   0  0  0  0  0  0  0  0  0  0  0  0
   27.5352  -15.0467   38.6303 C   0  0  0  0  0  0  0  0  0  0  0  0
   27.9792  -15.3351   39.9704 N   0  0  0  0  0  0  0  0  0  0  0  0
   26.4034  -14.6746   38.3714 O   0  0  0  0  0  0  0  0  0  0  0  0
   28.9051  -15.6534   40.0734 H   0  0  0  0  0  0  0  0  0  0  0  0
   27.1639  -15.1634   43.5848 C   0  0  0  0  0  0  0  0  0  0  0  0
   25.7958  -14.9189   43.5590 C   0  0  0  0  0  0  0  0  0  0  0  0
   25.1301  -14.8100   42.3527 C   0  0  0  0  0  0  0  0  0  0  0  0
   25.8214  -14.9466   41.1673 C   0  0  0  0  0  0  0  0  0  0  0  0
   27.1921  -15.2013   41.1845 C   0  0  0  0  0  0  0  0  0  0  0  0
   27.8531  -15.2992   42.3984 C   0  0  0  0  0  0  0  0  0  0  0  0
   24.9248  -14.7457   45.0224 Cl  0  0  0  0  0  0  0  0  0  0  0  0
   23.8220  -14.5757   42.3419 F   0  0  0  0  0  0  0  0  0  0  0  0
   29.4267  -16.9514   34.6492 N   0  0  0  0  0  0  0  0  0  0  0  0
   30.4071  -17.0194   34.7087 H   0  0  0  0  0  0  0  0  0  0  0  0
   28.6187  -18.0885   34.9148 C   0  0  0  0  0  0  0  0  0  0  0  0
   28.0829  -18.7525   33.9200 N   0  0  0  0  0  0  0  0  0  0  0  0
   28.4143  -18.4696   36.1470 N   0  0  0  0  0  0  0  0  0  0  0  0
   27.5221  -19.5414   34.1001 H   0  0  0  0  0  0  0  0  0  0  0  0
   27.8543  -19.2579   36.3320 H   0  0  0  0  0  0  0  0  0  0  0  0
   28.8203  -17.9686   36.8909 H   0  0  0  0  0  0  0  0  0  0  0  0
  3  4  2  0  0  0
  3  7  1  0  0  0
  2  7  1  0  0  0
  2  6  1  0  0  0
 29 28  2  0  0  0
  4  9  1  0  0  0
  7  8  2  0  0  0
 28 30  1  0  0  0
 28 26  1  0  0  0
  6 26  1  0  0  0
  6  1  1  0  0  0
  9  5  2  0  0  0
  8  1  1  0  0  0
  8  5  1  0  0  0
  1 11  1  0  0  0
 11 10  1  0  0  0
 10 12  2  0  0  0
 10 14  1  0  0  0
 16 14  2  0  0  0
 14 15  1  0  0  0
 15 22  1  0  0  0
 21 22  2  0  0  0
 21 20  1  0  0  0
 22 23  1  0  0  0
 25 20  1  0  0  0
 20 19  2  0  0  0
 23 18  2  0  0  0
 19 18  1  0  0  0
 19 24  1  0  0  0
 15 17  1  0  0  0
 11 13  1  0  0  0
 26 27  1  0  0  0
 29 31  1  0  0  0
 30 32  1  0  0  0
 30 33  1  0  0  0
M  END
> <minimizedAffinity>
-8.70159

$$$$
4DKR_0LJ_A_513


 33 35  0  0  0  0  0  0  0  0999 V2000
   29.2293  -15.2000   35.4181 C   0  0  0  0  0  0  0  0  0  0  0  0
   30.2818  -14.3753   33.5363 C   0  0  0  0  0  0  0  0  0  0  0  0
   32.7287  -14.5024   34.5427 C   0  0  0  0  0  0  0  0  0  0  0  0
   33.4817  -14.8523   35.6704 C   0  0  0  0  0  0  0  0  0  0  0  0
   31.4578  -15.5050   36.8300 C   0  0  0  0  0  0  0  0  0  0  0  0
   29.0458  -14.2766   34.2783 C   0  0  0  0  0  0  0  0  0  0  0  0
   31.3292  -14.6548   34.5567 C   0  0  0  0  0  0  0  0  0  0  0  0
   30.7016  -15.1539   35.6892 C   0  0  0  0  0  0  0  0  0  0  0  0
   32.8447  -15.3521   36.8143 C   0  0  0  0  0  0  0  0  0  0  0  0
   27.7155  -15.5943   37.2936 C   0  0  0  0  0  0  0  0  0  0  0  0
   28.5665  -14.7212   36.5421 N   0  0  0  0  0  0  0  0  0  0  0  0
   27.5572  -16.7745   36.9387 O   0  0  0  0  0  0  0  0  0  0  0  0
   28.6817  -13.7841   36.8210 H   0  0  0  0  0  0  0  0  0  0  0  0
   26.9952  -15.0668   38.5369 C   0  0  0  0  0  0  0  0  0  0  0  0
   27.4288  -15.5475   39.8241 N   0  0  0  0  0  0  0  0  0  0  0  0
   26.0809  -14.2721   38.3984 O   0  0  0  0  0  0  0  0  0  0  0  0
   28.1597  -16.2070   39.8294 H   0  0  0  0  0  0  0  0  0  0  0  0
   27.3406  -14.5100   43.3841 C   0  0  0  0  0  0  0  0  0  0  0  0
   25.9770  -14.3533   43.6035 C   0  0  0  0  0  0  0  0  0  0  0  0
   25.0754  -14.5892   42.5830 C   0  0  0  0  0  0  0  0  0  0  0  0
   25.5257  -14.9844   41.3409 C   0  0  0  0  0  0  0  0  0  0  0  0
   26.8912  -15.1529   41.1151 C   0  0  0  0  0  0  0  0  0  0  0  0
   27.7886  -14.9048   42.1414 C   0  0  0  0  0  0  0  0  0  0  0  0
   25.4035  -13.8619   45.1397 Cl  0  0  0  0  0  0  0  0  0  0  0  0
   23.7743  -14.4354   42.8058 F   0  0  0  0  0  0  0  0  0  0  0  0
   27.9519  -14.7251   33.4807 N   0  0  0  0  0  0  0  0  0  0  0  0
   27.5191  -15.5868   33.6789 H   0  0  0  0  0  0  0  0  0  0  0  0
   27.4870  -13.9288   32.4007 C   0  0  0  0  0  0  0  0  0  0  0  0
   27.4680  -14.4250   31.1878 N   0  0  0  0  0  0  0  0  0  0  0  0
   27.0787  -12.7080   32.6194 N   0  0  0  0  0  0  0  0  0  0  0  0
   27.1464  -13.8761   30.4364 H   0  0  0  0  0  0  0  0  0  0  0  0
   26.7562  -12.1553   31.8712 H   0  0  0  0  0  0  0  0  0  0  0  0
   27.0933  -12.3402   33.5325 H   0  0  0  0  0  0  0  0  0  0  0  0
  3  4  2  0  0  0
  3  7  1  0  0  0
  2  7  1  0  0  0
  2  6  1  0  0  0
 29 28  2  0  0  0
  4  9  1  0  0  0
  7  8  2  0  0  0
 28 30  1  0  0  0
 28 26  1  0  0  0
  6 26  1  0  0  0
  6  1  1  0  0  0
  9  5  2  0  0  0
  8  1  1  0  0  0
  8  5  1  0  0  0
  1 11  1  0  0  0
 11 10  1  0  0  0
 10 12  2  0  0  0
 10 14  1  0  0  0
 16 14  2  0  0  0
 14 15  1  0  0  0
 15 22  1  0  0  0
 21 22  2  0  0  0
 21 20  1  0  0  0
 22 23  1  0  0  0
 25 20  1  0  0  0
 20 19  2  0  0  0
 23 18  2  0  0  0
 19 18  1  0  0  0
 19 24  1  0  0  0
 15 17  1  0  0  0
 11 13  1  0  0  0
 26 27  1  0  0  0
 29 31  1  0  0  0
 30 32  1  0  0  0
 30 33  1  0  0  0
M  END
> <minimizedAffinity>
-8.69595

$$$$
4DKR_0LJ_A_513


 33 35  0  0  0  0  0  0  0  0999 V2000
   29.1465  -14.4639   35.4248 C   0  0  0  0  0  0  0  0  0  0  0  0
   30.6349  -13.0641   34.3504 C   0  0  0  0  0  0  0  0  0  0  0  0
   32.8005  -14.4227   35.0439 C   0  0  0  0  0  0  0  0  0  0  0  0
   33.2701  -15.5421   35.7423 C   0  0  0  0  0  0  0  0  0  0  0  0
   30.9993  -16.1267   36.3494 C   0  0  0  0  0  0  0  0  0  0  0  0
   29.3638  -13.0538   35.0376 C   0  0  0  0  0  0  0  0  0  0  0  0
   31.4198  -14.1519   34.9963 C   0  0  0  0  0  0  0  0  0  0  0  0
   30.5289  -14.9982   35.6411 C   0  0  0  0  0  0  0  0  0  0  0  0
   32.3683  -16.3925   36.3963 C   0  0  0  0  0  0  0  0  0  0  0  0
   27.6452  -15.6769   36.9211 C   0  0  0  0  0  0  0  0  0  0  0  0
   28.4604  -14.5356   36.6314 N   0  0  0  0  0  0  0  0  0  0  0  0
   27.5384  -16.5979   36.0938 O   0  0  0  0  0  0  0  0  0  0  0  0
   28.5347  -13.8035   37.2855 H   0  0  0  0  0  0  0  0  0  0  0  0
   26.8992  -15.7576   38.2553 C   0  0  0  0  0  0  0  0  0  0  0  0
   27.5559  -15.2408   39.4290 N   0  0  0  0  0  0  0  0  0  0  0  0
   25.7887  -16.2601   38.2828 O   0  0  0  0  0  0  0  0  0  0  0  0
   28.4625  -14.8768   39.3075 H   0  0  0  0  0  0  0  0  0  0  0  0
   25.1747  -14.5958   42.1988 C   0  0  0  0  0  0  0  0  0  0  0  0
   25.8544  -15.1239   43.2903 C   0  0  0  0  0  0  0  0  0  0  0  0
   27.1021  -15.6949   43.1244 C   0  0  0  0  0  0  0  0  0  0  0  0
   27.6800  -15.7407   41.8732 C   0  0  0  0  0  0  0  0  0  0  0  0
   27.0090  -15.2049   40.7747 C   0  0  0  0  0  0  0  0  0  0  0  0
   25.7543  -14.6431   40.9487 C   0  0  0  0  0  0  0  0  0  0  0  0
   25.1488  -15.0754   44.8491 Cl  0  0  0  0  0  0  0  0  0  0  0  0
   27.7412  -16.1965   44.1760 F   0  0  0  0  0  0  0  0  0  0  0  0
   28.3247  -12.6437   34.1511 N   0  0  0  0  0  0  0  0  0  0  0  0
   27.9177  -13.2949   33.5350 H   0  0  0  0  0  0  0  0  0  0  0  0
   27.8770  -11.2960   34.1568 C   0  0  0  0  0  0  0  0  0  0  0  0
   27.1936  -10.8419   35.1788 N   0  0  0  0  0  0  0  0  0  0  0  0
   28.1491  -10.5144   33.1468 N   0  0  0  0  0  0  0  0  0  0  0  0
   26.8815   -9.9082   35.1865 H   0  0  0  0  0  0  0  0  0  0  0  0
   27.8391   -9.5800   33.1500 H   0  0  0  0  0  0  0  0  0  0  0  0
   28.6643  -10.8595   32.3821 H   0  0  0  0  0  0  0  0  0  0  0  0
  3  4  2  0  0  0
  3  7  1  0  0  0
  2  7  1  0  0  0
  2  6  1  0  0  0
 29 28  2  0  0  0
  4  9  1  0  0  0
  7  8  2  0  0  0
 28 30  1  0  0  0
 28 26  1  0  0  0
  6 26  1  0  0  0
  6  1  1  0  0  0
  9  5  2  0  0  0
  8  1  1  0  0  0
  8  5  1  0  0  0
  1 11  1  0  0  0
 11 10  1  0  0  0
 10 12  2  0  0  0
 10 14  1  0  0  0
 16 14  2  0  0  0
 14 15  1  0  0  0
 15 22  1  0  0  0
 21 22  2  0  0  0
 21 20  1  0  0  0
 22 23  1  0  0  0
 25 20  1  0  0  0
 20 19  2  0  0  0
 23 18  2  0  0  0
 19 18  1  0  0  0
 19 24  1  0  0  0
 15 17  1  0  0  0
 11 13  1  0  0  0
 26 27  1  0  0  0
 29 31  1  0  0  0
 30 32  1  0  0  0
 30 33  1  0  0  0
M  END
> <minimizedAffinity>
-8.46672

$$$$
4DKR_0LJ_A_513


 33 35  0  0  0  0  0  0  0  0999 V2000
   28.9867  -15.4075   35.2704 C   0  0  0  0  0  0  0  0  0  0  0  0
   29.9832  -14.6905   33.3154 C   0  0  0  0  0  0  0  0  0  0  0  0
   32.4620  -14.8046   34.2421 C   0  0  0  0  0  0  0  0  0  0  0  0
   33.2495  -15.1105   35.3590 C   0  0  0  0  0  0  0  0  0  0  0  0
   31.2592  -15.6765   36.6180 C   0  0  0  0  0  0  0  0  0  0  0  0
   28.7753  -14.5378   34.0938 C   0  0  0  0  0  0  0  0  0  0  0  0
   31.0620  -14.9355   34.3117 C   0  0  0  0  0  0  0  0  0  0  0  0
   30.4681  -15.3700   35.4881 C   0  0  0  0  0  0  0  0  0  0  0  0
   32.6465  -15.5449   36.5472 C   0  0  0  0  0  0  0  0  0  0  0  0
   27.6418  -15.7149   37.2856 C   0  0  0  0  0  0  0  0  0  0  0  0
   28.3700  -14.8652   36.3917 N   0  0  0  0  0  0  0  0  0  0  0  0
   27.5484  -16.9327   37.0572 O   0  0  0  0  0  0  0  0  0  0  0  0
   28.4335  -13.8993   36.5711 H   0  0  0  0  0  0  0  0  0  0  0  0
   26.9726  -15.1161   38.5252 C   0  0  0  0  0  0  0  0  0  0  0  0
   27.3998  -15.5874   39.8180 N   0  0  0  0  0  0  0  0  0  0  0  0
   26.1018  -14.2753   38.3795 O   0  0  0  0  0  0  0  0  0  0  0  0
   28.0929  -16.2865   39.8298 H   0  0  0  0  0  0  0  0  0  0  0  0
   25.0078  -14.7237   42.5180 C   0  0  0  0  0  0  0  0  0  0  0  0
   25.8607  -14.3198   43.5386 C   0  0  0  0  0  0  0  0  0  0  0  0
   27.2294  -14.3267   43.3465 C   0  0  0  0  0  0  0  0  0  0  0  0
   27.7553  -14.7326   42.1381 C   0  0  0  0  0  0  0  0  0  0  0  0
   26.9064  -15.1304   41.1061 C   0  0  0  0  0  0  0  0  0  0  0  0
   25.5359  -15.1295   41.3108 C   0  0  0  0  0  0  0  0  0  0  0  0
   25.2222  -13.8147   45.0443 Cl  0  0  0  0  0  0  0  0  0  0  0  0
   28.0338  -13.9385   44.3304 F   0  0  0  0  0  0  0  0  0  0  0  0
   27.6485  -15.0083   33.3571 N   0  0  0  0  0  0  0  0  0  0  0  0
   27.1918  -15.8362   33.6315 H   0  0  0  0  0  0  0  0  0  0  0  0
   27.1850  -14.2828   32.2278 C   0  0  0  0  0  0  0  0  0  0  0  0
   27.1309  -14.8677   31.0562 N   0  0  0  0  0  0  0  0  0  0  0  0
   26.8127  -13.0382   32.3604 N   0  0  0  0  0  0  0  0  0  0  0  0
   26.8101  -14.3680   30.2709 H   0  0  0  0  0  0  0  0  0  0  0  0
   26.4913  -12.5345   31.5780 H   0  0  0  0  0  0  0  0  0  0  0  0
   26.8535  -12.6036   33.2429 H   0  0  0  0  0  0  0  0  0  0  0  0
  3  4  2  0  0  0
  3  7  1  0  0  0
  2  7  1  0  0  0
  2  6  1  0  0  0
 29 28  2  0  0  0
  4  9  1  0  0  0
  7  8  2  0  0  0
 28 30  1  0  0  0
 28 26  1  0  0  0
  6 26  1  0  0  0
  6  1  1  0  0  0
  9  5  2  0  0  0
  8  1  1  0  0  0
  8  5  1  0  0  0
  1 11  1  0  0  0
 11 10  1  0  0  0
 10 12  2  0  0  0
 10 14  1  0  0  0
 16 14  2  0  0  0
 14 15  1  0  0  0
 15 22  1  0  0  0
 21 22  2  0  0  0
 21 20  1  0  0  0
 22 23  1  0  0  0
 25 20  1  0  0  0
 20 19  2  0  0  0
 23 18  2  0  0  0
 19 18  1  0  0  0
 19 24  1  0  0  0
 15 17  1  0  0  0
 11 13  1  0  0  0
 26 27  1  0  0  0
 29 31  1  0  0  0
 30 32  1  0  0  0
 30 33  1  0  0  0
M  END
> <minimizedAffinity>
-8.28139

$$$$
4DKR_0LJ_A_513


 33 35  0  0  0  0  0  0  0  0999 V2000
   29.2447  -14.9972   35.3667 C   0  0  0  0  0  0  0  0  0  0  0  0
   30.9908  -16.3884   34.7798 C   0  0  0  0  0  0  0  0  0  0  0  0
   29.5303  -17.9962   33.2637 C   0  0  0  0  0  0  0  0  0  0  0  0
   28.2418  -18.2437   32.7740 C   0  0  0  0  0  0  0  0  0  0  0  0
   27.4063  -16.3109   33.9712 C   0  0  0  0  0  0  0  0  0  0  0  0
   30.5190  -15.5578   35.8640 C   0  0  0  0  0  0  0  0  0  0  0  0
   29.7606  -16.8977   34.1135 C   0  0  0  0  0  0  0  0  0  0  0  0
   28.7083  -16.0625   34.4608 C   0  0  0  0  0  0  0  0  0  0  0  0
   27.1801  -17.4010   33.1301 C   0  0  0  0  0  0  0  0  0  0  0  0
   28.3774  -15.7240   37.5310 C   0  0  0  0  0  0  0  0  0  0  0  0
   28.3475  -14.8273   36.4146 N   0  0  0  0  0  0  0  0  0  0  0  0
   29.1935  -16.6605   37.5617 O   0  0  0  0  0  0  0  0  0  0  0  0
   27.6930  -14.0924   36.3895 H   0  0  0  0  0  0  0  0  0  0  0  0
   27.3949  -15.5279   38.6882 C   0  0  0  0  0  0  0  0  0  0  0  0
   27.9346  -15.3923   40.0173 N   0  0  0  0  0  0  0  0  0  0  0  0
   26.1992  -15.5026   38.4513 O   0  0  0  0  0  0  0  0  0  0  0  0
   28.9131  -15.4508   40.1081 H   0  0  0  0  0  0  0  0  0  0  0  0
   27.1852  -15.0514   43.6339 C   0  0  0  0  0  0  0  0  0  0  0  0
   25.8298  -14.7438   43.6183 C   0  0  0  0  0  0  0  0  0  0  0  0
   25.1509  -14.6476   42.4183 C   0  0  0  0  0  0  0  0  0  0  0  0
   25.8163  -14.8595   41.2292 C   0  0  0  0  0  0  0  0  0  0  0  0
   27.1738  -15.1777   41.2365 C   0  0  0  0  0  0  0  0  0  0  0  0
   27.8486  -15.2625   42.4438 C   0  0  0  0  0  0  0  0  0  0  0  0
   24.9910  -14.4768   45.0863 Cl  0  0  0  0  0  0  0  0  0  0  0  0
   23.8551  -14.3525   42.4171 F   0  0  0  0  0  0  0  0  0  0  0  0
   31.4371  -14.4945   36.1091 N   0  0  0  0  0  0  0  0  0  0  0  0
   31.1101  -13.5687   36.1815 H   0  0  0  0  0  0  0  0  0  0  0  0
   32.8230  -14.7708   36.2488 C   0  0  0  0  0  0  0  0  0  0  0  0
   33.6468  -14.4760   35.2730 N   0  0  0  0  0  0  0  0  0  0  0  0
   33.2717  -15.3147   37.3479 N   0  0  0  0  0  0  0  0  0  0  0  0
   34.6082  -14.6661   35.3661 H   0  0  0  0  0  0  0  0  0  0  0  0
   34.2324  -15.5067   37.4456 H   0  0  0  0  0  0  0  0  0  0  0  0
   32.6493  -15.5329   38.0788 H   0  0  0  0  0  0  0  0  0  0  0  0
  3  4  2  0  0  0
  3  7  1  0  0  0
  2  7  1  0  0  0
  2  6  1  0  0  0
 29 28  2  0  0  0
  4  9  1  0  0  0
  7  8  2  0  0  0
 28 30  1  0  0  0
 28 26  1  0  0  0
  6 26  1  0  0  0
  6  1  1  0  0  0
  9  5  2  0  0  0
  8  1  1  0  0  0
  8  5  1  0  0  0
  1 11  1  0  0  0
 11 10  1  0  0  0
 10 12  2  0  0  0
 10 14  1  0  0  0
 16 14  2  0  0  0
 14 15  1  0  0  0
 15 22  1  0  0  0
 21 22  2  0  0  0
 21 20  1  0  0  0
 22 23  1  0  0  0
 25 20  1  0  0  0
 20 19  2  0  0  0
 23 18  2  0  0  0
 19 18  1  0  0  0
 19 24  1  0  0  0
 15 17  1  0  0  0
 11 13  1  0  0  0
 26 27  1  0  0  0
 29 31  1  0  0  0
 30 32  1  0  0  0
 30 33  1  0  0  0
M  END
> <minimizedAffinity>
-8.18177

$$$$
4DKR_0LJ_A_513


 33 35  0  0  0  0  0  0  0  0999 V2000
   28.4518  -16.4106   34.7403 C   0  0  0  0  0  0  0  0  0  0  0  0
   29.7794  -17.7388   33.3978 C   0  0  0  0  0  0  0  0  0  0  0  0
   27.8669  -18.3321   31.6639 C   0  0  0  0  0  0  0  0  0  0  0  0
   26.5184  -18.1354   31.3410 C   0  0  0  0  0  0  0  0  0  0  0  0
   26.2498  -16.7202   33.2883 C   0  0  0  0  0  0  0  0  0  0  0  0
   29.6039  -17.3363   34.7745 C   0  0  0  0  0  0  0  0  0  0  0  0
   28.4129  -17.7185   32.8072 C   0  0  0  0  0  0  0  0  0  0  0  0
   27.6115  -16.9184   33.6091 C   0  0  0  0  0  0  0  0  0  0  0  0
   25.7103  -17.3303   32.1553 C   0  0  0  0  0  0  0  0  0  0  0  0
   27.9768  -15.6285   37.0046 C   0  0  0  0  0  0  0  0  0  0  0  0
   27.7106  -16.5147   35.9114 N   0  0  0  0  0  0  0  0  0  0  0  0
   28.8754  -14.7749   36.9157 O   0  0  0  0  0  0  0  0  0  0  0  0
   27.0043  -17.1961   35.9894 H   0  0  0  0  0  0  0  0  0  0  0  0
   27.1518  -15.7390   38.2891 C   0  0  0  0  0  0  0  0  0  0  0  0
   27.7192  -15.2118   39.5042 N   0  0  0  0  0  0  0  0  0  0  0  0
   26.0564  -16.2726   38.2448 O   0  0  0  0  0  0  0  0  0  0  0  0
   28.6209  -14.8218   39.4413 H   0  0  0  0  0  0  0  0  0  0  0  0
   25.1687  -14.6153   42.1304 C   0  0  0  0  0  0  0  0  0  0  0  0
   25.7782  -15.1648   43.2523 C   0  0  0  0  0  0  0  0  0  0  0  0
   27.0336  -15.7345   43.1545 C   0  0  0  0  0  0  0  0  0  0  0  0
   27.6891  -15.7577   41.9415 C   0  0  0  0  0  0  0  0  0  0  0  0
   27.0887  -15.2004   40.8133 C   0  0  0  0  0  0  0  0  0  0  0  0
   25.8258  -14.6400   40.9186 C   0  0  0  0  0  0  0  0  0  0  0  0
   24.9760  -15.1444   44.7643 Cl  0  0  0  0  0  0  0  0  0  0  0  0
   27.6051  -16.2567   44.2346 F   0  0  0  0  0  0  0  0  0  0  0  0
   30.7569  -16.6358   35.2367 N   0  0  0  0  0  0  0  0  0  0  0  0
   30.6875  -15.6872   35.4906 H   0  0  0  0  0  0  0  0  0  0  0  0
   32.0051  -17.3065   35.3307 C   0  0  0  0  0  0  0  0  0  0  0  0
   32.0443  -18.5558   35.7249 N   0  0  0  0  0  0  0  0  0  0  0  0
   33.1075  -16.6782   35.0224 N   0  0  0  0  0  0  0  0  0  0  0  0
   32.9077  -19.0241   35.7914 H   0  0  0  0  0  0  0  0  0  0  0  0
   33.9733  -17.1424   35.0873 H   0  0  0  0  0  0  0  0  0  0  0  0
   33.0729  -15.7403   34.7251 H   0  0  0  0  0  0  0  0  0  0  0  0
  3  4  2  0  0  0
  3  7  1  0  0  0
  2  7  1  0  0  0
  2  6  1  0  0  0
 29 28  2  0  0  0
  4  9  1  0  0  0
  7  8  2  0  0  0
 28 30  1  0  0  0
 28 26  1  0  0  0
  6 26  1  0  0  0
  6  1  1  0  0  0
  9  5  2  0  0  0
  8  1  1  0  0  0
  8  5  1  0  0  0
  1 11  1  0  0  0
 11 10  1  0  0  0
 10 12  2  0  0  0
 10 14  1  0  0  0
 16 14  2  0  0  0
 14 15  1  0  0  0
 15 22  1  0  0  0
 21 22  2  0  0  0
 21 20  1  0  0  0
 22 23  1  0  0  0
 25 20  1  0  0  0
 20 19  2  0  0  0
 23 18  2  0  0  0
 19 18  1  0  0  0
 19 24  1  0  0  0
 15 17  1  0  0  0
 11 13  1  0  0  0
 26 27  1  0  0  0
 29 31  1  0  0  0
 30 32  1  0  0  0
 30 33  1  0  0  0
M  END
> <minimizedAffinity>
-7.87196

$$$$
4DKR_0LJ_A_513


 33 35  0  0  0  0  0  0  0  0999 V2000
   28.4144  -16.0029   34.8991 C   0  0  0  0  0  0  0  0  0  0  0  0
   28.5822  -15.7367   32.6122 C   0  0  0  0  0  0  0  0  0  0  0  0
   30.9124  -14.4789   32.6775 C   0  0  0  0  0  0  0  0  0  0  0  0
   31.9245  -13.9947   33.5157 C   0  0  0  0  0  0  0  0  0  0  0  0
   30.7157  -14.7994   35.4543 C   0  0  0  0  0  0  0  0  0  0  0  0
   27.6072  -15.8062   33.6763 C   0  0  0  0  0  0  0  0  0  0  0  0
   29.7928  -15.1291   33.2302 C   0  0  0  0  0  0  0  0  0  0  0  0
   29.6981  -15.2894   34.6052 C   0  0  0  0  0  0  0  0  0  0  0  0
   31.8240  -14.1542   34.9045 C   0  0  0  0  0  0  0  0  0  0  0  0
   27.8510  -15.9986   37.2754 C   0  0  0  0  0  0  0  0  0  0  0  0
   27.8107  -15.3793   35.9846 N   0  0  0  0  0  0  0  0  0  0  0  0
   28.4125  -17.0965   37.4272 O   0  0  0  0  0  0  0  0  0  0  0  0
   27.3564  -14.5139   35.8666 H   0  0  0  0  0  0  0  0  0  0  0  0
   27.1941  -15.3042   38.4710 C   0  0  0  0  0  0  0  0  0  0  0  0
   27.5342  -15.7676   39.7922 N   0  0  0  0  0  0  0  0  0  0  0  0
   26.4052  -14.3970   38.2681 O   0  0  0  0  0  0  0  0  0  0  0  0
   28.1632  -16.5227   39.8505 H   0  0  0  0  0  0  0  0  0  0  0  0
   25.1348  -14.6769   42.4020 C   0  0  0  0  0  0  0  0  0  0  0  0
   25.9864  -14.2563   43.4169 C   0  0  0  0  0  0  0  0  0  0  0  0
   27.3566  -14.3265   43.2505 C   0  0  0  0  0  0  0  0  0  0  0  0
   27.8856  -14.8125   42.0734 C   0  0  0  0  0  0  0  0  0  0  0  0
   27.0384  -15.2278   41.0469 C   0  0  0  0  0  0  0  0  0  0  0  0
   25.6659  -15.1629   41.2261 C   0  0  0  0  0  0  0  0  0  0  0  0
   25.3441  -13.6520   44.8840 Cl  0  0  0  0  0  0  0  0  0  0  0  0
   28.1598  -13.9214   44.2287 F   0  0  0  0  0  0  0  0  0  0  0  0
   26.7513  -16.9319   33.4912 N   0  0  0  0  0  0  0  0  0  0  0  0
   26.7678  -17.6743   34.1377 H   0  0  0  0  0  0  0  0  0  0  0  0
   25.8754  -16.9822   32.3746 C   0  0  0  0  0  0  0  0  0  0  0  0
   25.8744  -18.0360   31.5955 N   0  0  0  0  0  0  0  0  0  0  0  0
   25.0736  -15.9811   32.1295 N   0  0  0  0  0  0  0  0  0  0  0  0
   25.2686  -18.0746   30.8204 H   0  0  0  0  0  0  0  0  0  0  0  0
   24.4660  -16.0151   31.3556 H   0  0  0  0  0  0  0  0  0  0  0  0
   25.0767  -15.1923   32.7186 H   0  0  0  0  0  0  0  0  0  0  0  0
  3  4  2  0  0  0
  3  7  1  0  0  0
  2  7  1  0  0  0
  2  6  1  0  0  0
 29 28  2  0  0  0
  4  9  1  0  0  0
  7  8  2  0  0  0
 28 30  1  0  0  0
 28 26  1  0  0  0
  6 26  1  0  0  0
  6  1  1  0  0  0
  9  5  2  0  0  0
  8  1  1  0  0  0
  8  5  1  0  0  0
  1 11  1  0  0  0
 11 10  1  0  0  0
 10 12  2  0  0  0
 10 14  1  0  0  0
 16 14  2  0  0  0
 14 15  1  0  0  0
 15 22  1  0  0  0
 21 22  2  0  0  0
 21 20  1  0  0  0
 22 23  1  0  0  0
 25 20  1  0  0  0
 20 19  2  0  0  0
 23 18  2  0  0  0
 19 18  1  0  0  0
 19 24  1  0  0  0
 15 17  1  0  0  0
 11 13  1  0  0  0
 26 27  1  0  0  0
 29 31  1  0  0  0
 30 32  1  0  0  0
 30 33  1  0  0  0
M  END
> <minimizedAffinity>
-7.76001

$$$$
4DKR_0LJ_A_513


 33 35  0  0  0  0  0  0  0  0999 V2000
   30.2586  -15.4495   36.2887 C   0  0  0  0  0  0  0  0  0  0  0  0
   30.2004  -16.3638   34.1698 C   0  0  0  0  0  0  0  0  0  0  0  0
   29.6504  -14.0881   32.9309 C   0  0  0  0  0  0  0  0  0  0  0  0
   29.4182  -12.7187   33.1101 C   0  0  0  0  0  0  0  0  0  0  0  0
   29.7205  -12.9714   35.4999 C   0  0  0  0  0  0  0  0  0  0  0  0
   29.9222  -16.6856   35.5507 C   0  0  0  0  0  0  0  0  0  0  0  0
   29.9205  -14.9070   34.0437 C   0  0  0  0  0  0  0  0  0  0  0  0
   29.9575  -14.3520   35.3149 C   0  0  0  0  0  0  0  0  0  0  0  0
   29.4519  -12.1618   34.3957 C   0  0  0  0  0  0  0  0  0  0  0  0
   28.1025  -15.8568   37.3610 C   0  0  0  0  0  0  0  0  0  0  0  0
   29.4204  -15.2966   37.3868 N   0  0  0  0  0  0  0  0  0  0  0  0
   27.7003  -16.4683   36.3570 O   0  0  0  0  0  0  0  0  0  0  0  0
   29.7319  -14.8044   38.1805 H   0  0  0  0  0  0  0  0  0  0  0  0
   27.1857  -15.6955   38.5761 C   0  0  0  0  0  0  0  0  0  0  0  0
   27.7935  -15.3840   39.8448 N   0  0  0  0  0  0  0  0  0  0  0  0
   25.9838  -15.8438   38.4343 O   0  0  0  0  0  0  0  0  0  0  0  0
   28.7750  -15.3083   39.8611 H   0  0  0  0  0  0  0  0  0  0  0  0
   27.2381  -15.0290   43.4949 C   0  0  0  0  0  0  0  0  0  0  0  0
   25.8801  -14.7380   43.5515 C   0  0  0  0  0  0  0  0  0  0  0  0
   25.1357  -14.6577   42.3897 C   0  0  0  0  0  0  0  0  0  0  0  0
   25.7380  -14.8691   41.1674 C   0  0  0  0  0  0  0  0  0  0  0  0
   27.0977  -15.1708   41.1024 C   0  0  0  0  0  0  0  0  0  0  0  0
   27.8382  -15.2397   42.2716 C   0  0  0  0  0  0  0  0  0  0  0  0
   25.1192  -14.4718   45.0615 Cl  0  0  0  0  0  0  0  0  0  0  0  0
   23.8382  -14.3783   42.4576 F   0  0  0  0  0  0  0  0  0  0  0  0
   30.7699  -17.7435   35.9934 N   0  0  0  0  0  0  0  0  0  0  0  0
   30.4270  -18.4184   36.6228 H   0  0  0  0  0  0  0  0  0  0  0  0
   32.1087  -17.8235   35.5265 C   0  0  0  0  0  0  0  0  0  0  0  0
   32.9869  -16.9308   35.9132 N   0  0  0  0  0  0  0  0  0  0  0  0
   32.4602  -18.7856   34.7168 N   0  0  0  0  0  0  0  0  0  0  0  0
   33.9160  -16.9829   35.5917 H   0  0  0  0  0  0  0  0  0  0  0  0
   33.3881  -18.8418   34.3926 H   0  0  0  0  0  0  0  0  0  0  0  0
   31.7974  -19.4549   34.4304 H   0  0  0  0  0  0  0  0  0  0  0  0
  3  4  2  0  0  0
  3  7  1  0  0  0
  2  7  1  0  0  0
  2  6  1  0  0  0
 29 28  2  0  0  0
  4  9  1  0  0  0
  7  8  2  0  0  0
 28 30  1  0  0  0
 28 26  1  0  0  0
  6 26  1  0  0  0
  6  1  1  0  0  0
  9  5  2  0  0  0
  8  1  1  0  0  0
  8  5  1  0  0  0
  1 11  1  0  0  0
 11 10  1  0  0  0
 10 12  2  0  0  0
 10 14  1  0  0  0
 16 14  2  0  0  0
 14 15  1  0  0  0
 15 22  1  0  0  0
 21 22  2  0  0  0
 21 20  1  0  0  0
 22 23  1  0  0  0
 25 20  1  0  0  0
 20 19  2  0  0  0
 23 18  2  0  0  0
 19 18  1  0  0  0
 19 24  1  0  0  0
 15 17  1  0  0  0
 11 13  1  0  0  0
 26 27  1  0  0  0
 29 31  1  0  0  0
 30 32  1  0  0  0
 30 33  1  0  0  0
M  END
> <minimizedAffinity>
-7.63455

$$$$
4DKR_0LJ_A_513


 33 35  0  0  0  0  0  0  0  0999 V2000
   30.2800  -17.0652   36.1345 C   0  0  0  0  0  0  0  0  0  0  0  0
   30.6082  -16.6186   33.8935 C   0  0  0  0  0  0  0  0  0  0  0  0
   32.7496  -15.1015   34.2521 C   0  0  0  0  0  0  0  0  0  0  0  0
   33.6183  -14.5618   35.2090 C   0  0  0  0  0  0  0  0  0  0  0  0
   32.3578  -15.6402   36.9740 C   0  0  0  0  0  0  0  0  0  0  0  0
   29.5620  -16.8789   34.8557 C   0  0  0  0  0  0  0  0  0  0  0  0
   31.6765  -15.9175   34.6575 C   0  0  0  0  0  0  0  0  0  0  0  0
   31.4854  -16.1855   36.0055 C   0  0  0  0  0  0  0  0  0  0  0  0
   33.4201  -14.8307   36.5701 C   0  0  0  0  0  0  0  0  0  0  0  0
   28.5051  -15.6057   36.9617 C   0  0  0  0  0  0  0  0  0  0  0  0
   29.5128  -16.5964   37.1945 N   0  0  0  0  0  0  0  0  0  0  0  0
   28.3214  -15.1542   35.8188 O   0  0  0  0  0  0  0  0  0  0  0  0
   29.6618  -16.9446   38.1032 H   0  0  0  0  0  0  0  0  0  0  0  0
   27.6550  -15.0992   38.1295 C   0  0  0  0  0  0  0  0  0  0  0  0
   27.9021  -15.6543   39.4359 N   0  0  0  0  0  0  0  0  0  0  0  0
   26.7985  -14.2580   37.9166 O   0  0  0  0  0  0  0  0  0  0  0  0
   28.5992  -16.3465   39.5005 H   0  0  0  0  0  0  0  0  0  0  0  0
   27.3975  -14.8271   43.0163 C   0  0  0  0  0  0  0  0  0  0  0  0
   26.0336  -14.5628   43.0602 C   0  0  0  0  0  0  0  0  0  0  0  0
   25.2685  -14.6560   41.9130 C   0  0  0  0  0  0  0  0  0  0  0  0
   25.8559  -15.0151   40.7182 C   0  0  0  0  0  0  0  0  0  0  0  0
   27.2217  -15.2910   40.6673 C   0  0  0  0  0  0  0  0  0  0  0  0
   27.9828  -15.1855   41.8205 C   0  0  0  0  0  0  0  0  0  0  0  0
   25.2910  -14.1147   44.5360 Cl  0  0  0  0  0  0  0  0  0  0  0  0
   23.9656  -14.4004   41.9685 F   0  0  0  0  0  0  0  0  0  0  0  0
   28.8718  -18.0820   34.5239 N   0  0  0  0  0  0  0  0  0  0  0  0
   29.1700  -18.9407   34.9019 H   0  0  0  0  0  0  0  0  0  0  0  0
   27.7546  -18.0414   33.6482 C   0  0  0  0  0  0  0  0  0  0  0  0
   26.9834  -16.9819   33.6262 N   0  0  0  0  0  0  0  0  0  0  0  0
   27.5009  -19.0570   32.8677 N   0  0  0  0  0  0  0  0  0  0  0  0
   26.2079  -16.9500   33.0206 H   0  0  0  0  0  0  0  0  0  0  0  0
   26.7266  -19.0297   32.2603 H   0  0  0  0  0  0  0  0  0  0  0  0
   28.0840  -19.8500   32.8865 H   0  0  0  0  0  0  0  0  0  0  0  0
  3  4  2  0  0  0
  3  7  1  0  0  0
  2  7  1  0  0  0
  2  6  1  0  0  0
 29 28  2  0  0  0
  4  9  1  0  0  0
  7  8  2  0  0  0
 28 30  1  0  0  0
 28 26  1  0  0  0
  6 26  1  0  0  0
  6  1  1  0  0  0
  9  5  2  0  0  0
  8  1  1  0  0  0
  8  5  1  0  0  0
  1 11  1  0  0  0
 11 10  1  0  0  0
 10 12  2  0  0  0
 10 14  1  0  0  0
 16 14  2  0  0  0
 14 15  1  0  0  0
 15 22  1  0  0  0
 21 22  2  0  0  0
 21 20  1  0  0  0
 22 23  1  0  0  0
 25 20  1  0  0  0
 20 19  2  0  0  0
 23 18  2  0  0  0
 19 18  1  0  0  0
 19 24  1  0  0  0
 15 17  1  0  0  0
 11 13  1  0  0  0
 26 27  1  0  0  0
 29 31  1  0  0  0
 30 32  1  0  0  0
 30 33  1  0  0  0
M  END
> <minimizedAffinity>
-7.47367

$$$$
4DKR_0LJ_A_513


 33 35  0  0  0  0  0  0  0  0999 V2000
   29.1681  -14.8800   34.3773 C   0  0  0  0  0  0  0  0  0  0  0  0
   30.3029  -13.8573   32.6466 C   0  0  0  0  0  0  0  0  0  0  0  0
   32.2038  -15.6940   32.4745 C   0  0  0  0  0  0  0  0  0  0  0  0
   32.6767  -16.8999   33.0070 C   0  0  0  0  0  0  0  0  0  0  0  0
   30.8307  -16.9414   34.5747 C   0  0  0  0  0  0  0  0  0  0  0  0
   29.4939  -13.5563   33.8054 C   0  0  0  0  0  0  0  0  0  0  0  0
   31.0352  -15.1060   32.9946 C   0  0  0  0  0  0  0  0  0  0  0  0
   30.3549  -15.7263   34.0328 C   0  0  0  0  0  0  0  0  0  0  0  0
   31.9899  -17.5218   34.0585 C   0  0  0  0  0  0  0  0  0  0  0  0
   28.1284  -15.6128   36.4621 C   0  0  0  0  0  0  0  0  0  0  0  0
   29.0789  -14.8018   35.7621 N   0  0  0  0  0  0  0  0  0  0  0  0
   27.3746  -16.3772   35.8364 O   0  0  0  0  0  0  0  0  0  0  0  0
   29.6677  -14.1903   36.2607 H   0  0  0  0  0  0  0  0  0  0  0  0
   28.0398  -15.5319   37.9880 C   0  0  0  0  0  0  0  0  0  0  0  0
   26.7652  -15.2045   38.5746 N   0  0  0  0  0  0  0  0  0  0  0  0
   29.0429  -15.7358   38.6505 O   0  0  0  0  0  0  0  0  0  0  0  0
   26.0206  -15.0336   37.9536 H   0  0  0  0  0  0  0  0  0  0  0  0
   27.2630  -15.3544   42.2471 C   0  0  0  0  0  0  0  0  0  0  0  0
   26.0367  -14.9037   42.7215 C   0  0  0  0  0  0  0  0  0  0  0  0
   25.0356  -14.5483   41.8374 C   0  0  0  0  0  0  0  0  0  0  0  0
   25.2487  -14.6423   40.4783 C   0  0  0  0  0  0  0  0  0  0  0  0
   26.4727  -15.1023   39.9942 C   0  0  0  0  0  0  0  0  0  0  0  0
   27.4741  -15.4472   40.8878 C   0  0  0  0  0  0  0  0  0  0  0  0
   25.7582  -14.7806   44.4060 Cl  0  0  0  0  0  0  0  0  0  0  0  0
   23.8678  -14.1186   42.3040 F   0  0  0  0  0  0  0  0  0  0  0  0
   28.2883  -12.9039   33.4120 N   0  0  0  0  0  0  0  0  0  0  0  0
   27.5813  -13.4118   32.9522 H   0  0  0  0  0  0  0  0  0  0  0  0
   28.1075  -11.5218   33.6835 C   0  0  0  0  0  0  0  0  0  0  0  0
   28.3452  -10.6380   32.7454 N   0  0  0  0  0  0  0  0  0  0  0  0
   27.7036  -11.1367   34.8641 N   0  0  0  0  0  0  0  0  0  0  0  0
   28.2210   -9.6789   32.9297 H   0  0  0  0  0  0  0  0  0  0  0  0
   27.5780  -10.1788   35.0531 H   0  0  0  0  0  0  0  0  0  0  0  0
   27.5247  -11.8044   35.5651 H   0  0  0  0  0  0  0  0  0  0  0  0
  3  4  2  0  0  0
  3  7  1  0  0  0
  2  7  1  0  0  0
  2  6  1  0  0  0
 29 28  2  0  0  0
  4  9  1  0  0  0
  7  8  2  0  0  0
 28 30  1  0  0  0
 28 26  1  0  0  0
  6 26  1  0  0  0
  6  1  1  0  0  0
  9  5  2  0  0  0
  8  1  1  0  0  0
  8  5  1  0  0  0
  1 11  1  0  0  0
 11 10  1  0  0  0
 10 12  2  0  0  0
 10 14  1  0  0  0
 16 14  2  0  0  0
 14 15  1  0  0  0
 15 22  1  0  0  0
 21 22  2  0  0  0
 21 20  1  0  0  0
 22 23  1  0  0  0
 25 20  1  0  0  0
 20 19  2  0  0  0
 23 18  2  0  0  0
 19 18  1  0  0  0
 19 24  1  0  0  0
 15 17  1  0  0  0
 11 13  1  0  0  0
 26 27  1  0  0  0
 29 31  1  0  0  0
 30 32  1  0  0  0
 30 33  1  0  0  0
M  END
> <minimizedAffinity>
-6.72000

$$$$
