1AI4_DHY_B_559


 15 15  0  0  0  0  0  0  0  0999 V2000
   13.1970   36.2017   35.4106 C   0  0  0  0  0  0  0  0  0  0  0  0
   12.5176   36.8158   34.3681 C   0  0  0  0  0  0  0  0  0  0  0  0
   11.3747   36.2622   33.8503 C   0  0  0  0  0  0  0  0  0  0  0  0
   10.9039   35.0590   34.3675 C   0  0  0  0  0  0  0  0  0  0  0  0
   11.5595   34.4237   35.4031 C   0  0  0  0  0  0  0  0  0  0  0  0
   12.7276   34.9849   35.9202 C   0  0  0  0  0  0  0  0  0  0  0  0
   10.5412   36.7076   32.8385 O   0  0  0  0  0  0  0  0  0  0  0  0
    9.7770   34.6472   33.6844 O   0  0  0  0  0  0  0  0  0  0  0  0
   10.7319   37.5097   32.3934 H   0  0  0  0  0  0  0  0  0  0  0  0
    9.4282   35.1761   32.9941 H   0  0  0  0  0  0  0  0  0  0  0  0
   14.4294   36.9155   35.8798 C   0  0  0  0  0  0  0  0  0  0  0  0
   14.2851   38.3668   36.3539 C   0  0  0  0  0  0  0  0  0  0  0  0
   13.7870   38.5667   37.4549 O   0  0  0  0  0  0  0  0  0  0  0  0
   14.4447   39.3988   35.6998 O   0  0  0  0  0  0  0  0  0  0  0  0
   14.8193   39.3566   34.8420 H   0  0  0  0  0  0  0  0  0  0  0  0
  1  2  2  0  0  0
  1  6  1  0  0  0
  1 11  1  0  0  0
  2  3  1  0  0  0
  3  4  2  0  0  0
  3  7  1  0  0  0
  4  5  1  0  0  0
  4  8  1  0  0  0
  5  6  2  0  0  0
 11 12  1  0  0  0
 12 13  2  0  0  0
 12 14  1  0  0  0
 14 15  1  0  0  0
  7  9  1  0  0  0
  8 10  1  0  0  0
M  END
> <minimizedAffinity>
-6.63435

$$$$
1AI4_DHY_B_559


 15 15  0  0  0  0  0  0  0  0999 V2000
   12.8049   35.6005   35.4724 C   0  0  0  0  0  0  0  0  0  0  0  0
   12.6637   36.4896   34.4163 C   0  0  0  0  0  0  0  0  0  0  0  0
   11.5243   36.5004   33.6531 C   0  0  0  0  0  0  0  0  0  0  0  0
   10.5066   35.5933   33.9330 C   0  0  0  0  0  0  0  0  0  0  0  0
   10.6192   34.6955   34.9756 C   0  0  0  0  0  0  0  0  0  0  0  0
   11.7842   34.6809   35.7432 C   0  0  0  0  0  0  0  0  0  0  0  0
   11.1705   37.3017   32.5810 O   0  0  0  0  0  0  0  0  0  0  0  0
    9.4730   35.7322   33.0281 O   0  0  0  0  0  0  0  0  0  0  0  0
   11.7598   37.9633   32.2761 H   0  0  0  0  0  0  0  0  0  0  0  0
    9.5197   36.3882   32.3606 H   0  0  0  0  0  0  0  0  0  0  0  0
   14.0995   35.6982   36.2225 C   0  0  0  0  0  0  0  0  0  0  0  0
   14.4631   37.0448   36.8601 C   0  0  0  0  0  0  0  0  0  0  0  0
   13.9222   37.3469   37.9168 O   0  0  0  0  0  0  0  0  0  0  0  0
   15.1094   37.9696   36.3649 O   0  0  0  0  0  0  0  0  0  0  0  0
   15.5629   37.8431   35.5548 H   0  0  0  0  0  0  0  0  0  0  0  0
  1  2  2  0  0  0
  1  6  1  0  0  0
  1 11  1  0  0  0
  2  3  1  0  0  0
  3  4  2  0  0  0
  3  7  1  0  0  0
  4  5  1  0  0  0
  4  8  1  0  0  0
  5  6  2  0  0  0
 11 12  1  0  0  0
 12 13  2  0  0  0
 12 14  1  0  0  0
 14 15  1  0  0  0
  7  9  1  0  0  0
  8 10  1  0  0  0
M  END
> <minimizedAffinity>
-6.19225

$$$$
1AI4_DHY_B_559


 15 15  0  0  0  0  0  0  0  0999 V2000
   13.3996   35.8872   36.2954 C   0  0  0  0  0  0  0  0  0  0  0  0
   13.6424   37.0541   35.5847 C   0  0  0  0  0  0  0  0  0  0  0  0
   14.1234   38.1739   36.2136 C   0  0  0  0  0  0  0  0  0  0  0  0
   14.3519   38.1411   37.5860 C   0  0  0  0  0  0  0  0  0  0  0  0
   14.1178   36.9955   38.3200 C   0  0  0  0  0  0  0  0  0  0  0  0
   13.6187   35.8616   37.6782 C   0  0  0  0  0  0  0  0  0  0  0  0
   14.4486   39.4191   35.7034 O   0  0  0  0  0  0  0  0  0  0  0  0
   14.7866   39.3728   38.0332 O   0  0  0  0  0  0  0  0  0  0  0  0
   14.3464   39.5917   34.7881 H   0  0  0  0  0  0  0  0  0  0  0  0
   14.9070   40.0760   37.4258 H   0  0  0  0  0  0  0  0  0  0  0  0
   12.8765   34.7404   35.4834 C   0  0  0  0  0  0  0  0  0  0  0  0
   11.3776   34.7103   35.1607 C   0  0  0  0  0  0  0  0  0  0  0  0
   10.5920   34.5467   36.0860 O   0  0  0  0  0  0  0  0  0  0  0  0
   10.8402   34.6542   34.0533 O   0  0  0  0  0  0  0  0  0  0  0  0
   11.3533   34.7665   33.2773 H   0  0  0  0  0  0  0  0  0  0  0  0
  1  2  2  0  0  0
  1  6  1  0  0  0
  1 11  1  0  0  0
  2  3  1  0  0  0
  3  4  2  0  0  0
  3  7  1  0  0  0
  4  5  1  0  0  0
  4  8  1  0  0  0
  5  6  2  0  0  0
 11 12  1  0  0  0
 12 13  2  0  0  0
 12 14  1  0  0  0
 14 15  1  0  0  0
  7  9  1  0  0  0
  8 10  1  0  0  0
M  END
> <minimizedAffinity>
-6.15733

$$$$
1AI4_DHY_B_559


 15 15  0  0  0  0  0  0  0  0999 V2000
   13.0228   36.3480   35.2519 C   0  0  0  0  0  0  0  0  0  0  0  0
   12.3852   35.3260   35.9408 C   0  0  0  0  0  0  0  0  0  0  0  0
   11.2377   34.7564   35.4512 C   0  0  0  0  0  0  0  0  0  0  0  0
   10.6986   35.2254   34.2569 C   0  0  0  0  0  0  0  0  0  0  0  0
   11.3093   36.2421   33.5503 C   0  0  0  0  0  0  0  0  0  0  0  0
   12.4708   36.8258   34.0570 C   0  0  0  0  0  0  0  0  0  0  0  0
   10.4600   33.7288   35.9571 O   0  0  0  0  0  0  0  0  0  0  0  0
    9.5258   34.5594   33.9616 O   0  0  0  0  0  0  0  0  0  0  0  0
   10.7001   33.3118   36.7611 H   0  0  0  0  0  0  0  0  0  0  0  0
    9.2165   33.8811   34.5292 H   0  0  0  0  0  0  0  0  0  0  0  0
   14.2670   36.8776   35.9000 C   0  0  0  0  0  0  0  0  0  0  0  0
   14.2741   38.3413   36.3576 C   0  0  0  0  0  0  0  0  0  0  0  0
   13.8872   38.5923   37.4923 O   0  0  0  0  0  0  0  0  0  0  0  0
   14.4560   39.3499   35.6736 O   0  0  0  0  0  0  0  0  0  0  0  0
   14.7528   39.2684   34.7885 H   0  0  0  0  0  0  0  0  0  0  0  0
  1  2  2  0  0  0
  1  6  1  0  0  0
  1 11  1  0  0  0
  2  3  1  0  0  0
  3  4  2  0  0  0
  3  7  1  0  0  0
  4  5  1  0  0  0
  4  8  1  0  0  0
  5  6  2  0  0  0
 11 12  1  0  0  0
 12 13  2  0  0  0
 12 14  1  0  0  0
 14 15  1  0  0  0
  7  9  1  0  0  0
  8 10  1  0  0  0
M  END
> <minimizedAffinity>
-6.05604

$$$$
1AI4_DHY_B_559


 15 15  0  0  0  0  0  0  0  0999 V2000
   10.8013   35.6067   34.2474 C   0  0  0  0  0  0  0  0  0  0  0  0
   11.8154   36.5034   33.9421 C   0  0  0  0  0  0  0  0  0  0  0  0
   12.9915   36.5025   34.6475 C   0  0  0  0  0  0  0  0  0  0  0  0
   13.1587   35.6013   35.6948 C   0  0  0  0  0  0  0  0  0  0  0  0
   12.1670   34.6988   36.0232 C   0  0  0  0  0  0  0  0  0  0  0  0
   10.9680   34.7098   35.3098 C   0  0  0  0  0  0  0  0  0  0  0  0
   14.1247   37.2844   34.5026 O   0  0  0  0  0  0  0  0  0  0  0  0
   14.3827   35.7909   36.3047 O   0  0  0  0  0  0  0  0  0  0  0  0
   14.1593   37.9400   33.8340 H   0  0  0  0  0  0  0  0  0  0  0  0
   14.9714   36.4440   35.9808 H   0  0  0  0  0  0  0  0  0  0  0  0
    9.5716   35.7171   33.3965 C   0  0  0  0  0  0  0  0  0  0  0  0
    9.4192   34.7445   32.2206 C   0  0  0  0  0  0  0  0  0  0  0  0
   10.2882   34.7430   31.3574 O   0  0  0  0  0  0  0  0  0  0  0  0
    8.4363   34.0649   31.9198 O   0  0  0  0  0  0  0  0  0  0  0  0
    7.7133   33.9990   32.5121 H   0  0  0  0  0  0  0  0  0  0  0  0
  1  2  2  0  0  0
  1  6  1  0  0  0
  1 11  1  0  0  0
  2  3  1  0  0  0
  3  4  2  0  0  0
  3  7  1  0  0  0
  4  5  1  0  0  0
  4  8  1  0  0  0
  5  6  2  0  0  0
 11 12  1  0  0  0
 12 13  2  0  0  0
 12 14  1  0  0  0
 14 15  1  0  0  0
  7  9  1  0  0  0
  8 10  1  0  0  0
M  END
> <minimizedAffinity>
-5.87515

$$$$
1AI4_DHY_B_559


 15 15  0  0  0  0  0  0  0  0999 V2000
   13.2389   35.3720   36.2529 C   0  0  0  0  0  0  0  0  0  0  0  0
   14.5108   35.6675   35.7833 C   0  0  0  0  0  0  0  0  0  0  0  0
   15.4771   36.1531   36.6267 C   0  0  0  0  0  0  0  0  0  0  0  0
   15.1683   36.3686   37.9665 C   0  0  0  0  0  0  0  0  0  0  0  0
   13.9113   36.0859   38.4622 C   0  0  0  0  0  0  0  0  0  0  0  0
   12.9281   35.6018   37.5988 C   0  0  0  0  0  0  0  0  0  0  0  0
   16.7962   36.4923   36.3784 O   0  0  0  0  0  0  0  0  0  0  0  0
   16.2538   36.9011   38.6330 O   0  0  0  0  0  0  0  0  0  0  0  0
   17.1492   36.3998   35.5154 H   0  0  0  0  0  0  0  0  0  0  0  0
   17.0592   37.0456   38.1764 H   0  0  0  0  0  0  0  0  0  0  0  0
   12.2825   34.8477   35.2239 C   0  0  0  0  0  0  0  0  0  0  0  0
   11.3973   35.8569   34.4824 C   0  0  0  0  0  0  0  0  0  0  0  0
   11.8562   36.9700   34.2573 O   0  0  0  0  0  0  0  0  0  0  0  0
   10.1961   35.7666   34.2230 O   0  0  0  0  0  0  0  0  0  0  0  0
    9.7470   34.9557   34.3596 H   0  0  0  0  0  0  0  0  0  0  0  0
  1  2  2  0  0  0
  1  6  1  0  0  0
  1 11  1  0  0  0
  2  3  1  0  0  0
  3  4  2  0  0  0
  3  7  1  0  0  0
  4  5  1  0  0  0
  4  8  1  0  0  0
  5  6  2  0  0  0
 11 12  1  0  0  0
 12 13  2  0  0  0
 12 14  1  0  0  0
 14 15  1  0  0  0
  7  9  1  0  0  0
  8 10  1  0  0  0
M  END
> <minimizedAffinity>
-5.73019

$$$$
1AI4_DHY_B_559


 15 15  0  0  0  0  0  0  0  0999 V2000
   14.9028   38.4236   37.6503 C   0  0  0  0  0  0  0  0  0  0  0  0
   14.3635   38.4208   36.3717 C   0  0  0  0  0  0  0  0  0  0  0  0
   13.7853   37.2900   35.8542 C   0  0  0  0  0  0  0  0  0  0  0  0
   13.7580   36.1267   36.6177 C   0  0  0  0  0  0  0  0  0  0  0  0
   14.2883   36.0983   37.8920 C   0  0  0  0  0  0  0  0  0  0  0  0
   14.8847   37.2480   38.4108 C   0  0  0  0  0  0  0  0  0  0  0  0
   13.1796   37.0729   34.6284 O   0  0  0  0  0  0  0  0  0  0  0  0
   13.1803   35.0946   35.9055 O   0  0  0  0  0  0  0  0  0  0  0  0
   13.1226   37.7694   34.0041 H   0  0  0  0  0  0  0  0  0  0  0  0
   12.8558   35.2470   35.0398 H   0  0  0  0  0  0  0  0  0  0  0  0
   15.5013   39.7263   38.0896 C   0  0  0  0  0  0  0  0  0  0  0  0
   16.2117   40.5847   37.0359 C   0  0  0  0  0  0  0  0  0  0  0  0
   15.7387   41.6836   36.7733 O   0  0  0  0  0  0  0  0  0  0  0  0
   17.1170   40.2512   36.2693 O   0  0  0  0  0  0  0  0  0  0  0  0
   17.5471   39.4265   36.3830 H   0  0  0  0  0  0  0  0  0  0  0  0
  1  2  2  0  0  0
  1  6  1  0  0  0
  1 11  1  0  0  0
  2  3  1  0  0  0
  3  4  2  0  0  0
  3  7  1  0  0  0
  4  5  1  0  0  0
  4  8  1  0  0  0
  5  6  2  0  0  0
 11 12  1  0  0  0
 12 13  2  0  0  0
 12 14  1  0  0  0
 14 15  1  0  0  0
  7  9  1  0  0  0
  8 10  1  0  0  0
M  END
> <minimizedAffinity>
-5.57160

$$$$
1AI4_DHY_B_559


 15 15  0  0  0  0  0  0  0  0999 V2000
   12.6276   35.2300   35.9904 C   0  0  0  0  0  0  0  0  0  0  0  0
   12.0368   35.0474   37.2327 C   0  0  0  0  0  0  0  0  0  0  0  0
   12.7010   35.3847   38.3842 C   0  0  0  0  0  0  0  0  0  0  0  0
   13.9916   35.8990   38.3022 C   0  0  0  0  0  0  0  0  0  0  0  0
   14.6061   36.0900   37.0809 C   0  0  0  0  0  0  0  0  0  0  0  0
   13.9310   35.7360   35.9123 C   0  0  0  0  0  0  0  0  0  0  0  0
   12.3000   35.3051   39.7069 O   0  0  0  0  0  0  0  0  0  0  0  0
   14.5014   36.1287   39.5646 O   0  0  0  0  0  0  0  0  0  0  0  0
   11.4489   34.9758   39.9195 H   0  0  0  0  0  0  0  0  0  0  0  0
   13.9756   35.9562   40.3207 H   0  0  0  0  0  0  0  0  0  0  0  0
   11.7894   34.8202   34.8166 C   0  0  0  0  0  0  0  0  0  0  0  0
   10.9651   35.9015   34.1072 C   0  0  0  0  0  0  0  0  0  0  0  0
   11.4851   36.9952   33.9239 O   0  0  0  0  0  0  0  0  0  0  0  0
    9.7626   35.8857   33.8390 O   0  0  0  0  0  0  0  0  0  0  0  0
    9.2693   35.0961   33.9446 H   0  0  0  0  0  0  0  0  0  0  0  0
  1  2  2  0  0  0
  1  6  1  0  0  0
  1 11  1  0  0  0
  2  3  1  0  0  0
  3  4  2  0  0  0
  3  7  1  0  0  0
  4  5  1  0  0  0
  4  8  1  0  0  0
  5  6  2  0  0  0
 11 12  1  0  0  0
 12 13  2  0  0  0
 12 14  1  0  0  0
 14 15  1  0  0  0
  7  9  1  0  0  0
  8 10  1  0  0  0
M  END
> <minimizedAffinity>
-5.54437

$$$$
1AI4_DHY_B_559


 15 15  0  0  0  0  0  0  0  0999 V2000
   15.5426   38.5076   38.2581 C   0  0  0  0  0  0  0  0  0  0  0  0
   15.5105   39.4633   37.2525 C   0  0  0  0  0  0  0  0  0  0  0  0
   15.8143   40.7741   37.5174 C   0  0  0  0  0  0  0  0  0  0  0  0
   16.1402   41.1501   38.8172 C   0  0  0  0  0  0  0  0  0  0  0  0
   16.1785   40.2223   39.8387 C   0  0  0  0  0  0  0  0  0  0  0  0
   15.8587   38.8917   39.5671 C   0  0  0  0  0  0  0  0  0  0  0  0
   15.8621   41.8716   36.6749 O   0  0  0  0  0  0  0  0  0  0  0  0
   16.3648   42.5107   38.8848 O   0  0  0  0  0  0  0  0  0  0  0  0
   15.6654   41.7721   35.7642 H   0  0  0  0  0  0  0  0  0  0  0  0
   16.3076   43.0340   38.1097 H   0  0  0  0  0  0  0  0  0  0  0  0
   15.1899   37.1149   37.8290 C   0  0  0  0  0  0  0  0  0  0  0  0
   16.1828   36.3634   36.9338 C   0  0  0  0  0  0  0  0  0  0  0  0
   17.3573   36.3271   37.2795 O   0  0  0  0  0  0  0  0  0  0  0  0
   15.9983   35.9234   35.7977 O   0  0  0  0  0  0  0  0  0  0  0  0
   15.1339   35.9062   35.4366 H   0  0  0  0  0  0  0  0  0  0  0  0
  1  2  2  0  0  0
  1  6  1  0  0  0
  1 11  1  0  0  0
  2  3  1  0  0  0
  3  4  2  0  0  0
  3  7  1  0  0  0
  4  5  1  0  0  0
  4  8  1  0  0  0
  5  6  2  0  0  0
 11 12  1  0  0  0
 12 13  2  0  0  0
 12 14  1  0  0  0
 14 15  1  0  0  0
  7  9  1  0  0  0
  8 10  1  0  0  0
M  END
> <minimizedAffinity>
-5.15593

$$$$
1AI4_DHY_B_559


 15 15  0  0  0  0  0  0  0  0999 V2000
   14.6637   36.4939   38.4515 C   0  0  0  0  0  0  0  0  0  0  0  0
   15.0569   37.7974   38.7199 C   0  0  0  0  0  0  0  0  0  0  0  0
   14.9643   38.7722   37.7596 C   0  0  0  0  0  0  0  0  0  0  0  0
   14.4868   38.4413   36.4949 C   0  0  0  0  0  0  0  0  0  0  0  0
   14.0901   37.1529   36.1977 C   0  0  0  0  0  0  0  0  0  0  0  0
   14.1956   36.1620   37.1743 C   0  0  0  0  0  0  0  0  0  0  0  0
   15.2777   40.1195   37.8161 O   0  0  0  0  0  0  0  0  0  0  0  0
   14.5156   39.5435   35.6639 O   0  0  0  0  0  0  0  0  0  0  0  0
   15.6127   40.4897   38.6090 H   0  0  0  0  0  0  0  0  0  0  0  0
   14.8096   40.3704   35.9924 H   0  0  0  0  0  0  0  0  0  0  0  0
   14.8176   35.5316   39.5911 C   0  0  0  0  0  0  0  0  0  0  0  0
   13.5452   34.9600   40.2284 C   0  0  0  0  0  0  0  0  0  0  0  0
   12.4639   35.3189   39.7786 O   0  0  0  0  0  0  0  0  0  0  0  0
   13.4445   34.3055   41.2676 O   0  0  0  0  0  0  0  0  0  0  0  0
   14.2136   33.9824   41.6942 H   0  0  0  0  0  0  0  0  0  0  0  0
  1  2  2  0  0  0
  1  6  1  0  0  0
  1 11  1  0  0  0
  2  3  1  0  0  0
  3  4  2  0  0  0
  3  7  1  0  0  0
  4  5  1  0  0  0
  4  8  1  0  0  0
  5  6  2  0  0  0
 11 12  1  0  0  0
 12 13  2  0  0  0
 12 14  1  0  0  0
 14 15  1  0  0  0
  7  9  1  0  0  0
  8 10  1  0  0  0
M  END
> <minimizedAffinity>
-5.14968

$$$$
