5OH7_HYN_A_202


  9  9  0  0  0  0  0  0  0  0999 V2000
   25.0614   18.3934   -6.6735 O   0  0  0  0  0  0  0  0  0  0  0  0
   24.4215   17.3887   -7.1563 C   0  0  0  0  0  0  0  0  0  0  0  0
   25.0122   16.4588   -8.1444 C   0  0  0  0  0  0  0  0  0  0  0  0
   23.9237   15.5224   -8.2637 N   0  0  0  0  0  0  0  0  0  0  0  0
   23.1615   17.1318   -6.7480 N   0  0  0  0  0  0  0  0  0  0  0  0
   22.9278   15.9556   -7.4534 C   0  0  0  0  0  0  0  0  0  0  0  0
   21.8650   15.2942   -7.3925 O   0  0  0  0  0  0  0  0  0  0  0  0
   23.9066   14.7169   -8.8294 H   0  0  0  0  0  0  0  0  0  0  0  0
   22.5782   17.6306   -6.1313 H   0  0  0  0  0  0  0  0  0  0  0  0
  1  2  2  0  0  0
  2  3  1  0  0  0
  2  5  1  0  0  0
  3  4  1  0  0  0
  4  6  1  0  0  0
  5  6  1  0  0  0
  6  7  2  0  0  0
  4  8  1  0  0  0
  5  9  1  0  0  0
M  END
> <minimizedAffinity>
-5.14383

$$$$
5OH7_HYN_A_202


  9  9  0  0  0  0  0  0  0  0999 V2000
   25.6427   16.5122   -8.5936 O   0  0  0  0  0  0  0  0  0  0  0  0
   24.5241   16.4424   -7.9643 C   0  0  0  0  0  0  0  0  0  0  0  0
   24.1163   17.4271   -6.9377 C   0  0  0  0  0  0  0  0  0  0  0  0
   22.7996   16.9232   -6.6407 N   0  0  0  0  0  0  0  0  0  0  0  0
   23.6527   15.4513   -8.2451 N   0  0  0  0  0  0  0  0  0  0  0  0
   22.6047   15.8247   -7.4097 C   0  0  0  0  0  0  0  0  0  0  0  0
   21.5174   15.2077   -7.3209 O   0  0  0  0  0  0  0  0  0  0  0  0
   22.1598   17.3062   -5.9979 H   0  0  0  0  0  0  0  0  0  0  0  0
   23.7345   14.6875   -8.8608 H   0  0  0  0  0  0  0  0  0  0  0  0
  1  2  2  0  0  0
  2  3  1  0  0  0
  2  5  1  0  0  0
  3  4  1  0  0  0
  4  6  1  0  0  0
  5  6  1  0  0  0
  6  7  2  0  0  0
  4  8  1  0  0  0
  5  9  1  0  0  0
M  END
> <minimizedAffinity>
-4.89194

$$$$
5OH7_HYN_A_202


  9  9  0  0  0  0  0  0  0  0999 V2000
   21.4993   15.0767   -7.4426 O   0  0  0  0  0  0  0  0  0  0  0  0
   22.5753   15.7797   -7.4316 C   0  0  0  0  0  0  0  0  0  0  0  0
   22.7664   16.9432   -6.5373 C   0  0  0  0  0  0  0  0  0  0  0  0
   24.1237   17.2822   -6.8819 N   0  0  0  0  0  0  0  0  0  0  0  0
   23.6020   15.4547   -8.2443 N   0  0  0  0  0  0  0  0  0  0  0  0
   24.5289   16.4079   -7.8345 C   0  0  0  0  0  0  0  0  0  0  0  0
   25.6895   16.5095   -8.2963 O   0  0  0  0  0  0  0  0  0  0  0  0
   24.6581   18.0137   -6.4964 H   0  0  0  0  0  0  0  0  0  0  0  0
   23.6742   14.7494   -8.9274 H   0  0  0  0  0  0  0  0  0  0  0  0
  1  2  2  0  0  0
  2  3  1  0  0  0
  2  5  1  0  0  0
  3  4  1  0  0  0
  4  6  1  0  0  0
  5  6  1  0  0  0
  6  7  2  0  0  0
  4  8  1  0  0  0
  5  9  1  0  0  0
M  END
> <minimizedAffinity>
-4.70978

$$$$
5OH7_HYN_A_202


  9  9  0  0  0  0  0  0  0  0999 V2000
   21.9990   16.7887   -6.1873 O   0  0  0  0  0  0  0  0  0  0  0  0
   23.0204   16.6134   -6.9476 C   0  0  0  0  0  0  0  0  0  0  0  0
   23.1070   15.5170   -7.9377 C   0  0  0  0  0  0  0  0  0  0  0  0
   24.3782   15.8404   -8.5339 N   0  0  0  0  0  0  0  0  0  0  0  0
   24.0667   17.4625   -6.8785 N   0  0  0  0  0  0  0  0  0  0  0  0
   24.8538   16.9392   -7.8994 C   0  0  0  0  0  0  0  0  0  0  0  0
   25.9613   17.4097   -8.2499 O   0  0  0  0  0  0  0  0  0  0  0  0
   24.8196   15.3532   -9.2666 H   0  0  0  0  0  0  0  0  0  0  0  0
   24.2265   18.2282   -6.2806 H   0  0  0  0  0  0  0  0  0  0  0  0
  1  2  2  0  0  0
  2  3  1  0  0  0
  2  5  1  0  0  0
  3  4  1  0  0  0
  4  6  1  0  0  0
  5  6  1  0  0  0
  6  7  2  0  0  0
  4  8  1  0  0  0
  5  9  1  0  0  0
M  END
> <minimizedAffinity>
-4.48090

$$$$
5OH7_HYN_A_202


  9  9  0  0  0  0  0  0  0  0999 V2000
   22.5211   15.5273   -7.7903 O   0  0  0  0  0  0  0  0  0  0  0  0
   23.5898   16.2328   -7.6799 C   0  0  0  0  0  0  0  0  0  0  0  0
   24.8273   15.9415   -8.4373 C   0  0  0  0  0  0  0  0  0  0  0  0
   25.6357   17.0510   -7.9997 N   0  0  0  0  0  0  0  0  0  0  0  0
   23.6088   17.3054   -6.8616 N   0  0  0  0  0  0  0  0  0  0  0  0
   24.8917   17.7735   -7.1277 C   0  0  0  0  0  0  0  0  0  0  0  0
   25.3924   18.7978   -6.6073 O   0  0  0  0  0  0  0  0  0  0  0  0
   26.5580   17.2478   -8.2822 H   0  0  0  0  0  0  0  0  0  0  0  0
   22.9173   17.6546   -6.2541 H   0  0  0  0  0  0  0  0  0  0  0  0
  1  2  2  0  0  0
  2  3  1  0  0  0
  2  5  1  0  0  0
  3  4  1  0  0  0
  4  6  1  0  0  0
  5  6  1  0  0  0
  6  7  2  0  0  0
  4  8  1  0  0  0
  5  9  1  0  0  0
M  END
> <minimizedAffinity>
-4.38370

$$$$
5OH7_HYN_A_202


  9  9  0  0  0  0  0  0  0  0999 V2000
   25.5370   14.9123   -8.7395 O   0  0  0  0  0  0  0  0  0  0  0  0
   25.0300   15.9314   -8.1425 C   0  0  0  0  0  0  0  0  0  0  0  0
   23.6210   15.9810   -7.6927 C   0  0  0  0  0  0  0  0  0  0  0  0
   23.6273   17.2686   -7.0463 N   0  0  0  0  0  0  0  0  0  0  0  0
   25.7964   17.0106   -7.8810 N   0  0  0  0  0  0  0  0  0  0  0  0
   24.8731   17.7835   -7.1840 C   0  0  0  0  0  0  0  0  0  0  0  0
   25.1200   18.9116   -6.6970 O   0  0  0  0  0  0  0  0  0  0  0  0
   22.8671   17.6954   -6.5890 H   0  0  0  0  0  0  0  0  0  0  0  0
   26.7345   17.1966   -8.1149 H   0  0  0  0  0  0  0  0  0  0  0  0
  1  2  2  0  0  0
  2  3  1  0  0  0
  2  5  1  0  0  0
  3  4  1  0  0  0
  4  6  1  0  0  0
  5  6  1  0  0  0
  6  7  2  0  0  0
  4  8  1  0  0  0
  5  9  1  0  0  0
M  END
> <minimizedAffinity>
-4.07527

$$$$
5OH7_HYN_A_202


  9  9  0  0  0  0  0  0  0  0999 V2000
   26.5728   17.9402   -6.9326 O   0  0  0  0  0  0  0  0  0  0  0  0
   25.5630   17.3359   -7.4495 C   0  0  0  0  0  0  0  0  0  0  0  0
   25.5580   16.8210   -8.8368 C   0  0  0  0  0  0  0  0  0  0  0  0
   24.2599   16.1957   -8.8491 N   0  0  0  0  0  0  0  0  0  0  0  0
   24.4518   17.1278   -6.7131 N   0  0  0  0  0  0  0  0  0  0  0  0
   23.7017   16.4001   -7.6315 C   0  0  0  0  0  0  0  0  0  0  0  0
   22.5569   15.9431   -7.4051 O   0  0  0  0  0  0  0  0  0  0  0  0
   23.8537   15.7097   -9.6028 H   0  0  0  0  0  0  0  0  0  0  0  0
   24.2352   17.4087   -5.7947 H   0  0  0  0  0  0  0  0  0  0  0  0
  1  2  2  0  0  0
  2  3  1  0  0  0
  2  5  1  0  0  0
  3  4  1  0  0  0
  4  6  1  0  0  0
  5  6  1  0  0  0
  6  7  2  0  0  0
  4  8  1  0  0  0
  5  9  1  0  0  0
M  END
> <minimizedAffinity>
-3.98515

$$$$
5OH7_HYN_A_202


  9  9  0  0  0  0  0  0  0  0999 V2000
   26.7290   18.2322   -9.1746 O   0  0  0  0  0  0  0  0  0  0  0  0
   25.8291   17.7109   -8.4194 C   0  0  0  0  0  0  0  0  0  0  0  0
   25.5137   18.2289   -7.0695 C   0  0  0  0  0  0  0  0  0  0  0  0
   24.4220   17.3513   -6.7318 N   0  0  0  0  0  0  0  0  0  0  0  0
   25.1085   16.6575   -8.8568 N   0  0  0  0  0  0  0  0  0  0  0  0
   24.2463   16.5053   -7.7755 C   0  0  0  0  0  0  0  0  0  0  0  0
   23.3428   15.6393   -7.7084 O   0  0  0  0  0  0  0  0  0  0  0  0
   23.9001   17.3641   -5.8971 H   0  0  0  0  0  0  0  0  0  0  0  0
   25.1737   16.1461   -9.6956 H   0  0  0  0  0  0  0  0  0  0  0  0
  1  2  2  0  0  0
  2  3  1  0  0  0
  2  5  1  0  0  0
  3  4  1  0  0  0
  4  6  1  0  0  0
  5  6  1  0  0  0
  6  7  2  0  0  0
  4  8  1  0  0  0
  5  9  1  0  0  0
M  END
> <minimizedAffinity>
-3.54759

$$$$
5OH7_HYN_A_202


  9  9  0  0  0  0  0  0  0  0999 V2000
   24.3863   18.1505   -6.8641 O   0  0  0  0  0  0  0  0  0  0  0  0
   25.6028   18.4142   -7.1841 C   0  0  0  0  0  0  0  0  0  0  0  0
   26.2019   18.0041   -8.4736 C   0  0  0  0  0  0  0  0  0  0  0  0
   27.5019   18.6085   -8.3300 N   0  0  0  0  0  0  0  0  0  0  0  0
   26.3871   19.1127   -6.3371 N   0  0  0  0  0  0  0  0  0  0  0  0
   27.5337   19.2148   -7.1186 C   0  0  0  0  0  0  0  0  0  0  0  0
   28.5775   19.8130   -6.7673 O   0  0  0  0  0  0  0  0  0  0  0  0
   28.2321   18.5853   -8.9899 H   0  0  0  0  0  0  0  0  0  0  0  0
   26.2023   19.4510   -5.4313 H   0  0  0  0  0  0  0  0  0  0  0  0
  1  2  2  0  0  0
  2  3  1  0  0  0
  2  5  1  0  0  0
  3  4  1  0  0  0
  4  6  1  0  0  0
  5  6  1  0  0  0
  6  7  2  0  0  0
  4  8  1  0  0  0
  5  9  1  0  0  0
M  END
> <minimizedAffinity>
-3.39802

$$$$
5OH7_HYN_A_202


  9  9  0  0  0  0  0  0  0  0999 V2000
   25.9995   17.5833   -9.8810 O   0  0  0  0  0  0  0  0  0  0  0  0
   25.9774   17.7072   -8.6019 C   0  0  0  0  0  0  0  0  0  0  0  0
   25.0287   16.9688   -7.7389 C   0  0  0  0  0  0  0  0  0  0  0  0
   25.4905   17.4149   -6.4491 N   0  0  0  0  0  0  0  0  0  0  0  0
   26.8596   18.5225   -7.9876 N   0  0  0  0  0  0  0  0  0  0  0  0
   26.5165   18.2738   -6.6624 C   0  0  0  0  0  0  0  0  0  0  0  0
   27.0831   18.7984   -5.6753 O   0  0  0  0  0  0  0  0  0  0  0  0
   25.1277   17.1454   -5.5744 H   0  0  0  0  0  0  0  0  0  0  0  0
   27.5454   19.1187   -8.3662 H   0  0  0  0  0  0  0  0  0  0  0  0
  1  2  2  0  0  0
  2  3  1  0  0  0
  2  5  1  0  0  0
  3  4  1  0  0  0
  4  6  1  0  0  0
  5  6  1  0  0  0
  6  7  2  0  0  0
  4  8  1  0  0  0
  5  9  1  0  0  0
M  END
> <minimizedAffinity>
-3.30301

$$$$
