1BXR_ANP_A_1083


 40 42  0  0  0  0  0  0  0  0999 V2000
   16.1187   34.0145   68.3198 C   0  0  0  0  0  0  0  0  0  0  0  0
   14.8072   34.2633   67.7488 O   0  0  0  0  0  0  0  0  0  0  0  0
   16.2677   35.0297   69.4499 C   0  0  0  0  0  0  0  0  0  0  0  0
   17.6495   35.3466   69.7042 O   0  0  0  0  0  0  0  0  0  0  0  0
   15.3336   36.1754   69.0123 C   0  0  0  0  0  0  0  0  0  0  0  0
   16.0479   37.2778   68.4308 O   0  0  0  0  0  0  0  0  0  0  0  0
   14.3667   35.5523   68.0132 C   0  0  0  0  0  0  0  0  0  0  0  0
   18.0601   35.6787   68.8906 H   0  0  0  0  0  0  0  0  0  0  0  0
   16.5382   36.9708   67.6522 H   0  0  0  0  0  0  0  0  0  0  0  0
   13.0057   35.4738   68.5714 N   0  0  0  0  0  0  0  0  0  0  0  0
   12.5174   34.5803   69.4651 C   0  0  0  0  0  0  0  0  0  0  0  0
   11.2183   34.7455   69.7313 N   0  0  0  0  0  0  0  0  0  0  0  0
   10.8410   35.8310   68.9820 C   0  0  0  0  0  0  0  0  0  0  0  0
    9.5775   36.4759   68.8818 C   0  0  0  0  0  0  0  0  0  0  0  0
    8.5163   36.1711   69.4889 N   0  0  0  0  0  0  0  0  0  0  0  0
    9.6566   37.5381   68.0267 N   0  0  0  0  0  0  0  0  0  0  0  0
   10.7777   37.9581   67.3447 C   0  0  0  0  0  0  0  0  0  0  0  0
   11.9446   37.3786   67.4383 N   0  0  0  0  0  0  0  0  0  0  0  0
   11.9312   36.3110   68.2715 C   0  0  0  0  0  0  0  0  0  0  0  0
    8.5020   35.3970   70.0970 H   0  0  0  0  0  0  0  0  0  0  0  0
    7.7013   36.7071   69.3551 H   0  0  0  0  0  0  0  0  0  0  0  0
   16.2831   32.5323   68.6901 C   0  0  0  0  0  0  0  0  0  0  0  0
   15.4615   32.1145   69.8188 O   0  0  0  0  0  0  0  0  0  0  0  0
   15.9426   30.8276   70.6633 P   0  0  0  0  0  0  0  0  0  0  0  0
   15.6759   29.5628   69.8885 O   0  0  0  0  0  0  0  0  0  0  0  0
   15.2423   30.7590   71.9893 O   0  0  0  0  0  0  0  0  0  0  0  0
   15.5484   29.9782   72.4766 H   0  0  0  0  0  0  0  0  0  0  0  0
   17.4960   30.9299   70.9564 O   0  0  0  0  0  0  0  0  0  0  0  0
   18.4693   29.7261   71.2822 P   0  0  0  0  0  0  0  0  0  0  0  0
   19.1920   29.4462   69.9861 O   0  0  0  0  0  0  0  0  0  0  0  0
   17.6175   28.5672   71.7229 O   0  0  0  0  0  0  0  0  0  0  0  0
   18.1856   27.8091   71.9313 H   0  0  0  0  0  0  0  0  0  0  0  0
   19.5356   30.1331   72.4563 N   0  0  0  0  0  0  0  0  0  0  0  0
   19.5737   31.1515   72.4118 H   0  0  0  0  0  0  0  0  0  0  0  0
   21.0621   29.6987   72.6751 P   0  0  0  0  0  0  0  0  0  0  0  0
   21.8629   30.7755   73.4259 O   0  0  0  0  0  0  0  0  0  0  0  0
   21.1550   28.4302   73.4311 O   0  0  0  0  0  0  0  0  0  0  0  0
   21.6844   29.3964   71.2181 O   0  0  0  0  0  0  0  0  0  0  0  0
   22.0877   28.1915   73.5488 H   0  0  0  0  0  0  0  0  0  0  0  0
   22.6121   29.1291   71.3119 H   0  0  0  0  0  0  0  0  0  0  0  0
 35 36  2  0  0  0
 35 37  1  0  0  0
 35 38  1  0  0  0
 35 33  1  0  0  0
 29 30  2  0  0  0
 29 31  1  0  0  0
 29 33  1  0  0  0
 29 28  1  0  0  0
 24 25  2  0  0  0
 24 26  1  0  0  0
 24 28  1  0  0  0
 24 23  1  0  0  0
 23 22  1  0  0  0
 22  1  1  0  0  0
  1  2  1  0  0  0
  1  3  1  0  0  0
  2  7  1  0  0  0
  3  4  1  0  0  0
  3  5  1  0  0  0
  5  6  1  0  0  0
  5  7  1  0  0  0
  7 10  1  0  0  0
 10 11  1  0  0  0
 10 19  1  0  0  0
 11 12  2  0  0  0
 12 13  1  0  0  0
 13 14  1  0  0  0
 13 19  2  0  0  0
 14 15  1  0  0  0
 14 16  2  0  0  0
 16 17  1  0  0  0
 17 18  2  0  0  0
 18 19  1  0  0  0
 37 39  1  0  0  0
 38 40  1  0  0  0
 31 32  1  0  0  0
 33 34  1  0  0  0
 26 27  1  0  0  0
  4  8  1  0  0  0
  6  9  1  0  0  0
 15 20  1  0  0  0
 15 21  1  0  0  0
M  END
> <minimizedAffinity>
-13.78699

$$$$
1BXR_ANP_A_1083


 40 42  0  0  0  0  0  0  0  0999 V2000
   16.0402   33.3955   69.0970 C   0  0  0  0  0  0  0  0  0  0  0  0
   14.8422   33.7023   68.3362 O   0  0  0  0  0  0  0  0  0  0  0  0
   16.1625   34.5140   70.1285 C   0  0  0  0  0  0  0  0  0  0  0  0
   17.5300   34.7237   70.5290 O   0  0  0  0  0  0  0  0  0  0  0  0
   15.4192   35.6866   69.4583 C   0  0  0  0  0  0  0  0  0  0  0  0
   16.3149   36.6418   68.8675 O   0  0  0  0  0  0  0  0  0  0  0  0
   14.5172   35.0494   68.4089 C   0  0  0  0  0  0  0  0  0  0  0  0
   18.0695   34.9198   69.7471 H   0  0  0  0  0  0  0  0  0  0  0  0
   16.8587   36.2023   68.1952 H   0  0  0  0  0  0  0  0  0  0  0  0
   13.0986   35.1662   68.7882 N   0  0  0  0  0  0  0  0  0  0  0  0
   12.3899   34.3785   69.6326 C   0  0  0  0  0  0  0  0  0  0  0  0
   11.1005   34.7172   69.7246 N   0  0  0  0  0  0  0  0  0  0  0  0
   10.9647   35.8103   68.9069 C   0  0  0  0  0  0  0  0  0  0  0  0
    9.8187   36.6051   68.6287 C   0  0  0  0  0  0  0  0  0  0  0  0
    8.6592   36.4616   69.1008 N   0  0  0  0  0  0  0  0  0  0  0  0
   10.1419   37.6132   67.7657 N   0  0  0  0  0  0  0  0  0  0  0  0
   11.3847   37.8602   67.2243 C   0  0  0  0  0  0  0  0  0  0  0  0
   12.4451   37.1422   67.4819 N   0  0  0  0  0  0  0  0  0  0  0  0
   12.1884   36.1195   68.3319 C   0  0  0  0  0  0  0  0  0  0  0  0
    8.4682   35.7208   69.7204 H   0  0  0  0  0  0  0  0  0  0  0  0
    7.9444   37.0903   68.8499 H   0  0  0  0  0  0  0  0  0  0  0  0
   15.9951   31.9563   69.6335 C   0  0  0  0  0  0  0  0  0  0  0  0
   17.1552   31.1555   69.2643 O   0  0  0  0  0  0  0  0  0  0  0  0
   17.8515   30.2656   70.4150 P   0  0  0  0  0  0  0  0  0  0  0  0
   18.4897   29.0394   69.8149 O   0  0  0  0  0  0  0  0  0  0  0  0
   16.8524   29.8510   71.4559 O   0  0  0  0  0  0  0  0  0  0  0  0
   17.2951   29.3183   72.1350 H   0  0  0  0  0  0  0  0  0  0  0  0
   18.9685   31.1170   71.1478 O   0  0  0  0  0  0  0  0  0  0  0  0
   20.0697   30.5625   72.1391 P   0  0  0  0  0  0  0  0  0  0  0  0
   21.3362   30.4976   71.3193 O   0  0  0  0  0  0  0  0  0  0  0  0
   19.6163   29.2037   72.5984 O   0  0  0  0  0  0  0  0  0  0  0  0
   20.2718   28.8339   73.2102 H   0  0  0  0  0  0  0  0  0  0  0  0
   20.2666   31.5644   73.4192 N   0  0  0  0  0  0  0  0  0  0  0  0
   19.5956   32.3139   73.2505 H   0  0  0  0  0  0  0  0  0  0  0  0
   21.5696   32.3260   73.9567 P   0  0  0  0  0  0  0  0  0  0  0  0
   22.5176   31.3784   74.7103 O   0  0  0  0  0  0  0  0  0  0  0  0
   22.3180   32.9558   72.8466 O   0  0  0  0  0  0  0  0  0  0  0  0
   21.0610   33.5353   74.8948 O   0  0  0  0  0  0  0  0  0  0  0  0
   23.0998   33.4086   73.1997 H   0  0  0  0  0  0  0  0  0  0  0  0
   21.8265   34.0210   75.2396 H   0  0  0  0  0  0  0  0  0  0  0  0
 35 36  2  0  0  0
 35 37  1  0  0  0
 35 38  1  0  0  0
 35 33  1  0  0  0
 29 30  2  0  0  0
 29 31  1  0  0  0
 29 33  1  0  0  0
 29 28  1  0  0  0
 24 25  2  0  0  0
 24 26  1  0  0  0
 24 28  1  0  0  0
 24 23  1  0  0  0
 23 22  1  0  0  0
 22  1  1  0  0  0
  1  2  1  0  0  0
  1  3  1  0  0  0
  2  7  1  0  0  0
  3  4  1  0  0  0
  3  5  1  0  0  0
  5  6  1  0  0  0
  5  7  1  0  0  0
  7 10  1  0  0  0
 10 11  1  0  0  0
 10 19  1  0  0  0
 11 12  2  0  0  0
 12 13  1  0  0  0
 13 14  1  0  0  0
 13 19  2  0  0  0
 14 15  1  0  0  0
 14 16  2  0  0  0
 16 17  1  0  0  0
 17 18  2  0  0  0
 18 19  1  0  0  0
 37 39  1  0  0  0
 38 40  1  0  0  0
 31 32  1  0  0  0
 33 34  1  0  0  0
 26 27  1  0  0  0
  4  8  1  0  0  0
  6  9  1  0  0  0
 15 20  1  0  0  0
 15 21  1  0  0  0
M  END
> <minimizedAffinity>
-13.03398

$$$$
1BXR_ANP_A_1083


 40 42  0  0  0  0  0  0  0  0999 V2000
   15.5803   33.7636   69.0605 C   0  0  0  0  0  0  0  0  0  0  0  0
   14.6487   34.1879   68.0309 O   0  0  0  0  0  0  0  0  0  0  0  0
   15.7241   34.9618   69.9954 C   0  0  0  0  0  0  0  0  0  0  0  0
   16.9973   34.9638   70.6688 O   0  0  0  0  0  0  0  0  0  0  0  0
   15.3897   36.1572   69.0810 C   0  0  0  0  0  0  0  0  0  0  0  0
   16.5639   36.8473   68.6239 O   0  0  0  0  0  0  0  0  0  0  0  0
   14.6029   35.5700   67.9159 C   0  0  0  0  0  0  0  0  0  0  0  0
   17.7107   34.9560   70.0115 H   0  0  0  0  0  0  0  0  0  0  0  0
   17.1274   36.2331   68.1279 H   0  0  0  0  0  0  0  0  0  0  0  0
   13.1931   35.9945   67.9614 N   0  0  0  0  0  0  0  0  0  0  0  0
   12.5714   36.9186   67.1898 C   0  0  0  0  0  0  0  0  0  0  0  0
   11.2910   37.1152   67.5179 N   0  0  0  0  0  0  0  0  0  0  0  0
   11.0557   36.2468   68.5535 C   0  0  0  0  0  0  0  0  0  0  0  0
    9.8622   36.0041   69.2877 C   0  0  0  0  0  0  0  0  0  0  0  0
    8.7407   36.5541   69.1221 N   0  0  0  0  0  0  0  0  0  0  0  0
   10.0745   35.0343   70.2258 N   0  0  0  0  0  0  0  0  0  0  0  0
   11.2555   34.3629   70.4562 C   0  0  0  0  0  0  0  0  0  0  0  0
   12.3536   34.5716   69.7804 N   0  0  0  0  0  0  0  0  0  0  0  0
   12.2091   35.5293   68.8337 C   0  0  0  0  0  0  0  0  0  0  0  0
    8.6304   37.2496   68.4340 H   0  0  0  0  0  0  0  0  0  0  0  0
    7.9749   36.2885   69.6808 H   0  0  0  0  0  0  0  0  0  0  0  0
   15.1311   32.4376   69.6935 C   0  0  0  0  0  0  0  0  0  0  0  0
   15.7927   31.2660   69.1340 O   0  0  0  0  0  0  0  0  0  0  0  0
   16.4189   30.1932   70.1625 P   0  0  0  0  0  0  0  0  0  0  0  0
   16.4627   28.8256   69.5311 O   0  0  0  0  0  0  0  0  0  0  0  0
   15.6206   30.1327   71.4323 O   0  0  0  0  0  0  0  0  0  0  0  0
   16.0168   29.4819   72.0327 H   0  0  0  0  0  0  0  0  0  0  0  0
   17.8926   30.6236   70.5533 O   0  0  0  0  0  0  0  0  0  0  0  0
   18.9158   29.7828   71.4187 P   0  0  0  0  0  0  0  0  0  0  0  0
   20.0980   29.5496   70.5085 O   0  0  0  0  0  0  0  0  0  0  0  0
   18.2299   28.5006   71.8038 O   0  0  0  0  0  0  0  0  0  0  0  0
   18.8324   27.9593   72.3375 H   0  0  0  0  0  0  0  0  0  0  0  0
   19.3756   30.6108   72.7544 N   0  0  0  0  0  0  0  0  0  0  0  0
   18.7137   31.3852   72.8039 H   0  0  0  0  0  0  0  0  0  0  0  0
   20.7812   31.2790   73.1347 P   0  0  0  0  0  0  0  0  0  0  0  0
   21.8802   30.2238   73.3429 O   0  0  0  0  0  0  0  0  0  0  0  0
   21.2271   32.2224   72.0857 O   0  0  0  0  0  0  0  0  0  0  0  0
   20.5433   32.1658   74.4607 O   0  0  0  0  0  0  0  0  0  0  0  0
   22.0783   32.6112   72.3413 H   0  0  0  0  0  0  0  0  0  0  0  0
   21.3770   32.5875   74.7215 H   0  0  0  0  0  0  0  0  0  0  0  0
 35 36  2  0  0  0
 35 37  1  0  0  0
 35 38  1  0  0  0
 35 33  1  0  0  0
 29 30  2  0  0  0
 29 31  1  0  0  0
 29 33  1  0  0  0
 29 28  1  0  0  0
 24 25  2  0  0  0
 24 26  1  0  0  0
 24 28  1  0  0  0
 24 23  1  0  0  0
 23 22  1  0  0  0
 22  1  1  0  0  0
  1  2  1  0  0  0
  1  3  1  0  0  0
  2  7  1  0  0  0
  3  4  1  0  0  0
  3  5  1  0  0  0
  5  6  1  0  0  0
  5  7  1  0  0  0
  7 10  1  0  0  0
 10 11  1  0  0  0
 10 19  1  0  0  0
 11 12  2  0  0  0
 12 13  1  0  0  0
 13 14  1  0  0  0
 13 19  2  0  0  0
 14 15  1  0  0  0
 14 16  2  0  0  0
 16 17  1  0  0  0
 17 18  2  0  0  0
 18 19  1  0  0  0
 37 39  1  0  0  0
 38 40  1  0  0  0
 31 32  1  0  0  0
 33 34  1  0  0  0
 26 27  1  0  0  0
  4  8  1  0  0  0
  6  9  1  0  0  0
 15 20  1  0  0  0
 15 21  1  0  0  0
M  END
> <minimizedAffinity>
-11.45921

$$$$
1BXR_ANP_A_1083


 40 42  0  0  0  0  0  0  0  0999 V2000
   15.7094   33.9738   68.2744 C   0  0  0  0  0  0  0  0  0  0  0  0
   14.3850   34.2720   67.7596 O   0  0  0  0  0  0  0  0  0  0  0  0
   15.9166   34.9362   69.4410 C   0  0  0  0  0  0  0  0  0  0  0  0
   17.3123   35.2155   69.6613 O   0  0  0  0  0  0  0  0  0  0  0  0
   14.9920   36.1173   69.0846 C   0  0  0  0  0  0  0  0  0  0  0  0
   15.7090   37.2301   68.5266 O   0  0  0  0  0  0  0  0  0  0  0  0
   13.9800   35.5565   68.0936 C   0  0  0  0  0  0  0  0  0  0  0  0
   17.7023   35.5746   68.8490 H   0  0  0  0  0  0  0  0  0  0  0  0
   16.1668   36.9477   67.7193 H   0  0  0  0  0  0  0  0  0  0  0  0
   12.6370   35.4798   68.6940 N   0  0  0  0  0  0  0  0  0  0  0  0
   12.1913   34.6207   69.6421 C   0  0  0  0  0  0  0  0  0  0  0  0
   10.8973   34.7748   69.9378 N   0  0  0  0  0  0  0  0  0  0  0  0
   10.4781   35.8169   69.1500 C   0  0  0  0  0  0  0  0  0  0  0  0
    9.2000   36.4335   69.0566 C   0  0  0  0  0  0  0  0  0  0  0  0
    8.1624   36.1385   69.7077 N   0  0  0  0  0  0  0  0  0  0  0  0
    9.2345   37.4555   68.1511 N   0  0  0  0  0  0  0  0  0  0  0  0
   10.3277   37.8631   67.4181 C   0  0  0  0  0  0  0  0  0  0  0  0
   11.5078   37.3097   67.5047 N   0  0  0  0  0  0  0  0  0  0  0  0
   11.5384   36.2825   68.3868 C   0  0  0  0  0  0  0  0  0  0  0  0
    8.1802   35.3937   70.3513 H   0  0  0  0  0  0  0  0  0  0  0  0
    7.3338   36.6528   69.5729 H   0  0  0  0  0  0  0  0  0  0  0  0
   15.8556   32.4742   68.5755 C   0  0  0  0  0  0  0  0  0  0  0  0
   16.9010   32.1689   69.5437 O   0  0  0  0  0  0  0  0  0  0  0  0
   16.4489   31.6095   70.9871 P   0  0  0  0  0  0  0  0  0  0  0  0
   15.0542   31.0430   70.9162 O   0  0  0  0  0  0  0  0  0  0  0  0
   16.4968   32.6927   72.0254 O   0  0  0  0  0  0  0  0  0  0  0  0
   16.2210   32.3315   72.8824 H   0  0  0  0  0  0  0  0  0  0  0  0
   17.4420   30.4667   71.4533 O   0  0  0  0  0  0  0  0  0  0  0  0
   17.9693   29.2654   70.5693 P   0  0  0  0  0  0  0  0  0  0  0  0
   17.7942   28.0388   71.4326 O   0  0  0  0  0  0  0  0  0  0  0  0
   19.4142   29.5407   70.2543 O   0  0  0  0  0  0  0  0  0  0  0  0
   19.7697   28.8200   69.7110 H   0  0  0  0  0  0  0  0  0  0  0  0
   17.0985   29.1240   69.1898 N   0  0  0  0  0  0  0  0  0  0  0  0
   16.7758   30.0737   69.0041 H   0  0  0  0  0  0  0  0  0  0  0  0
   15.8276   28.2104   68.8478 P   0  0  0  0  0  0  0  0  0  0  0  0
   15.3159   28.4519   67.4180 O   0  0  0  0  0  0  0  0  0  0  0  0
   16.1453   26.7731   68.9976 O   0  0  0  0  0  0  0  0  0  0  0  0
   14.6972   28.5350   69.9514 O   0  0  0  0  0  0  0  0  0  0  0  0
   15.3602   26.2446   68.7849 H   0  0  0  0  0  0  0  0  0  0  0  0
   13.9093   27.9974   69.7750 H   0  0  0  0  0  0  0  0  0  0  0  0
 35 36  2  0  0  0
 35 37  1  0  0  0
 35 38  1  0  0  0
 35 33  1  0  0  0
 29 30  2  0  0  0
 29 31  1  0  0  0
 29 33  1  0  0  0
 29 28  1  0  0  0
 24 25  2  0  0  0
 24 26  1  0  0  0
 24 28  1  0  0  0
 24 23  1  0  0  0
 23 22  1  0  0  0
 22  1  1  0  0  0
  1  2  1  0  0  0
  1  3  1  0  0  0
  2  7  1  0  0  0
  3  4  1  0  0  0
  3  5  1  0  0  0
  5  6  1  0  0  0
  5  7  1  0  0  0
  7 10  1  0  0  0
 10 11  1  0  0  0
 10 19  1  0  0  0
 11 12  2  0  0  0
 12 13  1  0  0  0
 13 14  1  0  0  0
 13 19  2  0  0  0
 14 15  1  0  0  0
 14 16  2  0  0  0
 16 17  1  0  0  0
 17 18  2  0  0  0
 18 19  1  0  0  0
 37 39  1  0  0  0
 38 40  1  0  0  0
 31 32  1  0  0  0
 33 34  1  0  0  0
 26 27  1  0  0  0
  4  8  1  0  0  0
  6  9  1  0  0  0
 15 20  1  0  0  0
 15 21  1  0  0  0
M  END
> <minimizedAffinity>
-10.89133

$$$$
