1MRW_K57_A_1001


 41 43  0  0  0  0  0  0  0  0999 V2000
   15.1813   22.5598   17.3229 C   0  0  0  0  0  0  0  0  0  0  0  0
   14.5121   20.3256   18.1487 C   0  0  0  0  0  0  0  0  0  0  0  0
   15.6819   19.9443   18.0823 O   0  0  0  0  0  0  0  0  0  0  0  0
   14.1867   21.6128   17.8453 N   0  0  0  0  0  0  0  0  0  0  0  0
   13.2601   21.9169   17.9797 H   0  0  0  0  0  0  0  0  0  0  0  0
   11.1824   17.7318   19.2010 C   0  0  0  0  0  0  0  0  0  0  0  0
   11.1971   18.4135   17.9675 C   0  0  0  0  0  0  0  0  0  0  0  0
   12.2847   19.2554   17.6364 C   0  0  0  0  0  0  0  0  0  0  0  0
   13.3799   19.4330   18.5361 C   0  0  0  0  0  0  0  0  0  0  0  0
   13.3663   18.7353   19.8056 C   0  0  0  0  0  0  0  0  0  0  0  0
   12.2529   17.8890   20.1125 C   0  0  0  0  0  0  0  0  0  0  0  0
   14.4936   18.8664   20.8244 C   0  0  0  0  0  0  0  0  0  0  0  0
   12.2109   17.2079   21.3138 O   0  0  0  0  0  0  0  0  0  0  0  0
   11.4816   16.6545   21.5133 H   0  0  0  0  0  0  0  0  0  0  0  0
   15.1531   23.8117   18.2053 C   0  0  0  0  0  0  0  0  0  0  0  0
   13.9423   24.2502   18.7298 O   0  0  0  0  0  0  0  0  0  0  0  0
   13.4275   24.6871   18.0333 H   0  0  0  0  0  0  0  0  0  0  0  0
   16.4544   24.6146   18.4535 C   0  0  0  0  0  0  0  0  0  0  0  0
   16.5275   25.7378   17.9769 O   0  0  0  0  0  0  0  0  0  0  0  0
   17.5532   23.9545   19.0276 N   0  0  0  0  0  0  0  0  0  0  0  0
   18.8983   24.5448   18.8776 C   0  0  0  0  0  0  0  0  0  0  0  0
   19.8351   23.8654   19.9326 C   0  0  0  0  0  0  0  0  0  0  0  0
   17.5407   22.6177   19.6843 C   0  0  0  0  0  0  0  0  0  0  0  0
   19.7351   24.5256   21.3235 C   0  0  0  0  0  0  0  0  0  0  0  0
   21.3113   23.8195   19.4732 C   0  0  0  0  0  0  0  0  0  0  0  0
   19.2494   22.1798   20.0695 S   0  0  0  0  0  0  0  0  0  0  0  0
   19.3025   24.3191   17.3753 C   0  0  0  0  0  0  0  0  0  0  0  0
   19.3632   23.1778   16.9037 O   0  0  0  0  0  0  0  0  0  0  0  0
   19.5517   25.4883   16.6889 N   0  0  0  0  0  0  0  0  0  0  0  0
   19.4623   26.3256   17.1990 H   0  0  0  0  0  0  0  0  0  0  0  0
   19.9410   25.6190   15.2613 C   0  0  0  0  0  0  0  0  0  0  0  0
   20.3316   27.0926   15.0619 C   0  0  0  0  0  0  0  0  0  0  0  0
   18.7528   25.2625   14.3381 C   0  0  0  0  0  0  0  0  0  0  0  0
   21.1680   24.7232   14.9446 C   0  0  0  0  0  0  0  0  0  0  0  0
   15.1247   22.7966   15.7891 C   0  0  0  0  0  0  0  0  0  0  0  0
   14.1030   22.0016   15.0326 C   0  0  0  0  0  0  0  0  0  0  0  0
   12.2541   20.3939   13.5845 C   0  0  0  0  0  0  0  0  0  0  0  0
   14.5279   20.8053   14.3950 C   0  0  0  0  0  0  0  0  0  0  0  0
   12.7389   22.3935   14.9392 C   0  0  0  0  0  0  0  0  0  0  0  0
   13.6092   19.9982   13.6699 C   0  0  0  0  0  0  0  0  0  0  0  0
   11.8198   21.5934   14.2188 C   0  0  0  0  0  0  0  0  0  0  0  0
  6  7  2  0  0  0
  6 11  1  0  0  0
  7  8  1  0  0  0
  8  9  2  0  0  0
  9 10  1  0  0  0
  9  2  1  0  0  0
 10 11  2  0  0  0
 10 12  1  0  0  0
 11 13  1  0  0  0
  2  4  1  0  0  0
  2  3  2  0  0  0
  4  1  1  0  0  0
  1 35  1  0  0  0
  1 15  1  0  0  0
 35 36  1  0  0  0
 15 18  1  0  0  0
 15 16  1  0  0  0
 18 20  1  0  0  0
 18 19  2  0  0  0
 20 21  1  0  0  0
 20 23  1  0  0  0
 21 22  1  0  0  0
 21 27  1  0  0  0
 22 26  1  0  0  0
 22 24  1  0  0  0
 22 25  1  0  0  0
 26 23  1  0  0  0
 36 38  2  0  0  0
 36 39  1  0  0  0
 38 40  1  0  0  0
 40 37  2  0  0  0
 37 41  1  0  0  0
 41 39  2  0  0  0
 27 29  1  0  0  0
 27 28  2  0  0  0
 29 31  1  0  0  0
 31 32  1  0  0  0
 31 33  1  0  0  0
 31 34  1  0  0  0
 13 14  1  0  0  0
  4  5  1  0  0  0
 16 17  1  0  0  0
 29 30  1  0  0  0
M  END
> <minimizedAffinity>
-11.47332

$$$$
1MRW_K57_A_1001


 41 43  0  0  0  0  0  0  0  0999 V2000
   17.4901   23.7414   18.2602 C   0  0  0  0  0  0  0  0  0  0  0  0
   19.2783   24.5436   16.7502 C   0  0  0  0  0  0  0  0  0  0  0  0
   19.3663   23.4215   16.2488 O   0  0  0  0  0  0  0  0  0  0  0  0
   18.3447   24.8013   17.7077 N   0  0  0  0  0  0  0  0  0  0  0  0
   18.2396   25.7225   18.0386 H   0  0  0  0  0  0  0  0  0  0  0  0
   21.9158   27.8532   15.7441 C   0  0  0  0  0  0  0  0  0  0  0  0
   21.8030   27.4068   17.0761 C   0  0  0  0  0  0  0  0  0  0  0  0
   20.9412   26.3303   17.3919 C   0  0  0  0  0  0  0  0  0  0  0  0
   20.1727   25.6797   16.3786 C   0  0  0  0  0  0  0  0  0  0  0  0
   20.2849   26.1380   15.0090 C   0  0  0  0  0  0  0  0  0  0  0  0
   21.1663   27.2287   14.7196 C   0  0  0  0  0  0  0  0  0  0  0  0
   19.5026   25.5009   13.8653 C   0  0  0  0  0  0  0  0  0  0  0  0
   21.2977   27.6878   13.4232 O   0  0  0  0  0  0  0  0  0  0  0  0
   21.8748   28.4017   13.2352 H   0  0  0  0  0  0  0  0  0  0  0  0
   16.0915   24.3266   18.4801 C   0  0  0  0  0  0  0  0  0  0  0  0
   15.9616   25.5942   19.0367 O   0  0  0  0  0  0  0  0  0  0  0  0
   16.1300   25.5471   19.9909 H   0  0  0  0  0  0  0  0  0  0  0  0
   14.8366   23.4828   18.1443 C   0  0  0  0  0  0  0  0  0  0  0  0
   14.0173   23.3059   19.0341 O   0  0  0  0  0  0  0  0  0  0  0  0
   14.7940   22.7986   16.9185 N   0  0  0  0  0  0  0  0  0  0  0  0
   13.8487   21.6753   16.7607 C   0  0  0  0  0  0  0  0  0  0  0  0
   13.7090   21.3841   15.2284 C   0  0  0  0  0  0  0  0  0  0  0  0
   15.7095   22.9959   15.7604 C   0  0  0  0  0  0  0  0  0  0  0  0
   12.6788   22.3059   14.5433 C   0  0  0  0  0  0  0  0  0  0  0  0
   13.3729   19.9033   14.9340 C   0  0  0  0  0  0  0  0  0  0  0  0
   15.3209   21.7309   14.5322 S   0  0  0  0  0  0  0  0  0  0  0  0
   14.4348   20.4956   17.6187 C   0  0  0  0  0  0  0  0  0  0  0  0
   15.5888   20.0933   17.4318 O   0  0  0  0  0  0  0  0  0  0  0  0
   13.5538   20.0063   18.5593 N   0  0  0  0  0  0  0  0  0  0  0  0
   12.6652   20.4290   18.5919 H   0  0  0  0  0  0  0  0  0  0  0  0
   13.8029   18.9090   19.5292 C   0  0  0  0  0  0  0  0  0  0  0  0
   12.4232   18.5021   20.0720 C   0  0  0  0  0  0  0  0  0  0  0  0
   14.6983   19.4010   20.6900 C   0  0  0  0  0  0  0  0  0  0  0  0
   14.4477   17.6883   18.8204 C   0  0  0  0  0  0  0  0  0  0  0  0
   18.1022   22.9536   19.4503 C   0  0  0  0  0  0  0  0  0  0  0  0
   19.3050   23.5667   20.1028 C   0  0  0  0  0  0  0  0  0  0  0  0
   21.6618   24.6895   21.2365 C   0  0  0  0  0  0  0  0  0  0  0  0
   20.5799   23.2986   19.5361 C   0  0  0  0  0  0  0  0  0  0  0  0
   19.2150   24.4036   21.2493 C   0  0  0  0  0  0  0  0  0  0  0  0
   21.7608   23.8562   20.0981 C   0  0  0  0  0  0  0  0  0  0  0  0
   20.3875   24.9618   21.8127 C   0  0  0  0  0  0  0  0  0  0  0  0
  6  7  2  0  0  0
  6 11  1  0  0  0
  7  8  1  0  0  0
  8  9  2  0  0  0
  9 10  1  0  0  0
  9  2  1  0  0  0
 10 11  2  0  0  0
 10 12  1  0  0  0
 11 13  1  0  0  0
  2  4  1  0  0  0
  2  3  2  0  0  0
  4  1  1  0  0  0
  1 35  1  0  0  0
  1 15  1  0  0  0
 35 36  1  0  0  0
 15 18  1  0  0  0
 15 16  1  0  0  0
 18 20  1  0  0  0
 18 19  2  0  0  0
 20 21  1  0  0  0
 20 23  1  0  0  0
 21 22  1  0  0  0
 21 27  1  0  0  0
 22 26  1  0  0  0
 22 24  1  0  0  0
 22 25  1  0  0  0
 26 23  1  0  0  0
 36 38  2  0  0  0
 36 39  1  0  0  0
 38 40  1  0  0  0
 40 37  2  0  0  0
 37 41  1  0  0  0
 41 39  2  0  0  0
 27 29  1  0  0  0
 27 28  2  0  0  0
 29 31  1  0  0  0
 31 32  1  0  0  0
 31 33  1  0  0  0
 31 34  1  0  0  0
 13 14  1  0  0  0
  4  5  1  0  0  0
 16 17  1  0  0  0
 29 30  1  0  0  0
M  END
> <minimizedAffinity>
-10.21176

$$$$
1MRW_K57_A_1001


 41 43  0  0  0  0  0  0  0  0999 V2000
   15.5064   22.6144   17.1755 C   0  0  0  0  0  0  0  0  0  0  0  0
   14.8819   20.4256   18.1456 C   0  0  0  0  0  0  0  0  0  0  0  0
   15.3316   19.8508   17.1528 O   0  0  0  0  0  0  0  0  0  0  0  0
   14.9763   21.7793   18.2620 N   0  0  0  0  0  0  0  0  0  0  0  0
   14.6814   22.2099   19.0968 H   0  0  0  0  0  0  0  0  0  0  0  0
   12.9478   18.3738   21.4578 C   0  0  0  0  0  0  0  0  0  0  0  0
   14.2482   18.8979   21.6014 C   0  0  0  0  0  0  0  0  0  0  0  0
   14.8679   19.5623   20.5170 C   0  0  0  0  0  0  0  0  0  0  0  0
   14.1972   19.7136   19.2648 C   0  0  0  0  0  0  0  0  0  0  0  0
   12.8614   19.1739   19.1138 C   0  0  0  0  0  0  0  0  0  0  0  0
   12.2593   18.5078   20.2292 C   0  0  0  0  0  0  0  0  0  0  0  0
   12.0726   19.2912   17.8137 C   0  0  0  0  0  0  0  0  0  0  0  0
   10.9857   17.9842   20.1183 O   0  0  0  0  0  0  0  0  0  0  0  0
   10.5929   17.5486   20.8490 H   0  0  0  0  0  0  0  0  0  0  0  0
   16.4800   23.6266   17.7874 C   0  0  0  0  0  0  0  0  0  0  0  0
   15.9786   24.7405   18.4517 O   0  0  0  0  0  0  0  0  0  0  0  0
   15.6592   25.3872   17.8031 H   0  0  0  0  0  0  0  0  0  0  0  0
   18.0071   23.4396   17.6075 C   0  0  0  0  0  0  0  0  0  0  0  0
   18.5549   22.5736   18.2741 O   0  0  0  0  0  0  0  0  0  0  0  0
   18.7176   24.3897   16.8558 N   0  0  0  0  0  0  0  0  0  0  0  0
   20.1813   24.4845   17.0256 C   0  0  0  0  0  0  0  0  0  0  0  0
   20.7492   25.2897   15.8085 C   0  0  0  0  0  0  0  0  0  0  0  0
   18.1348   25.4357   15.9701 C   0  0  0  0  0  0  0  0  0  0  0  0
   20.9823   24.4009   14.5691 C   0  0  0  0  0  0  0  0  0  0  0  0
   22.0438   26.0602   16.1587 C   0  0  0  0  0  0  0  0  0  0  0  0
   19.4860   26.4919   15.4058 S   0  0  0  0  0  0  0  0  0  0  0  0
   20.4095   25.1446   18.4339 C   0  0  0  0  0  0  0  0  0  0  0  0
   20.5048   26.3722   18.5466 O   0  0  0  0  0  0  0  0  0  0  0  0
   20.4718   24.2340   19.4670 N   0  0  0  0  0  0  0  0  0  0  0  0
   20.3782   23.2848   19.2231 H   0  0  0  0  0  0  0  0  0  0  0  0
   20.6651   24.5329   20.9092 C   0  0  0  0  0  0  0  0  0  0  0  0
   19.9195   23.4275   21.6746 C   0  0  0  0  0  0  0  0  0  0  0  0
   20.0643   25.9128   21.2647 C   0  0  0  0  0  0  0  0  0  0  0  0
   22.1705   24.4792   21.2821 C   0  0  0  0  0  0  0  0  0  0  0  0
   14.4397   23.1859   16.2022 C   0  0  0  0  0  0  0  0  0  0  0  0
   14.0414   22.2997   15.0603 C   0  0  0  0  0  0  0  0  0  0  0  0
   13.4154   20.5931   12.8703 C   0  0  0  0  0  0  0  0  0  0  0  0
   15.0652   21.8214   14.1993 C   0  0  0  0  0  0  0  0  0  0  0  0
   12.6928   21.9190   14.8167 C   0  0  0  0  0  0  0  0  0  0  0  0
   14.7588   20.9689   13.1035 C   0  0  0  0  0  0  0  0  0  0  0  0
   12.3821   21.0701   13.7274 C   0  0  0  0  0  0  0  0  0  0  0  0
  6  7  2  0  0  0
  6 11  1  0  0  0
  7  8  1  0  0  0
  8  9  2  0  0  0
  9 10  1  0  0  0
  9  2  1  0  0  0
 10 11  2  0  0  0
 10 12  1  0  0  0
 11 13  1  0  0  0
  2  4  1  0  0  0
  2  3  2  0  0  0
  4  1  1  0  0  0
  1 35  1  0  0  0
  1 15  1  0  0  0
 35 36  1  0  0  0
 15 18  1  0  0  0
 15 16  1  0  0  0
 18 20  1  0  0  0
 18 19  2  0  0  0
 20 21  1  0  0  0
 20 23  1  0  0  0
 21 22  1  0  0  0
 21 27  1  0  0  0
 22 26  1  0  0  0
 22 24  1  0  0  0
 22 25  1  0  0  0
 26 23  1  0  0  0
 36 38  2  0  0  0
 36 39  1  0  0  0
 38 40  1  0  0  0
 40 37  2  0  0  0
 37 41  1  0  0  0
 41 39  2  0  0  0
 27 29  1  0  0  0
 27 28  2  0  0  0
 29 31  1  0  0  0
 31 32  1  0  0  0
 31 33  1  0  0  0
 31 34  1  0  0  0
 13 14  1  0  0  0
  4  5  1  0  0  0
 16 17  1  0  0  0
 29 30  1  0  0  0
M  END
> <minimizedAffinity>
-10.08471

$$$$
1MRW_K57_A_1001


 41 43  0  0  0  0  0  0  0  0999 V2000
   18.8218   24.5990   18.3501 C   0  0  0  0  0  0  0  0  0  0  0  0
   20.9593   25.2380   19.4199 C   0  0  0  0  0  0  0  0  0  0  0  0
   20.3504   25.9349   20.2335 O   0  0  0  0  0  0  0  0  0  0  0  0
   20.2811   24.5050   18.4938 N   0  0  0  0  0  0  0  0  0  0  0  0
   20.7822   23.8957   17.9048 H   0  0  0  0  0  0  0  0  0  0  0  0
   25.2965   24.9244   19.3110 C   0  0  0  0  0  0  0  0  0  0  0  0
   24.5411   24.1090   20.1775 C   0  0  0  0  0  0  0  0  0  0  0  0
   23.1311   24.2204   20.2053 C   0  0  0  0  0  0  0  0  0  0  0  0
   22.4488   25.1534   19.3659 C   0  0  0  0  0  0  0  0  0  0  0  0
   23.2229   25.9944   18.4760 C   0  0  0  0  0  0  0  0  0  0  0  0
   24.6482   25.8581   18.4688 C   0  0  0  0  0  0  0  0  0  0  0  0
   22.5767   27.0158   17.5458 C   0  0  0  0  0  0  0  0  0  0  0  0
   25.4149   26.6436   17.6298 O   0  0  0  0  0  0  0  0  0  0  0  0
   26.3475   26.5534   17.6261 H   0  0  0  0  0  0  0  0  0  0  0  0
   18.2366   23.1943   18.5265 C   0  0  0  0  0  0  0  0  0  0  0  0
   19.0939   22.1023   18.6043 O   0  0  0  0  0  0  0  0  0  0  0  0
   19.4279   21.8898   17.7187 H   0  0  0  0  0  0  0  0  0  0  0  0
   16.7011   22.9918   18.5516 C   0  0  0  0  0  0  0  0  0  0  0  0
   16.1407   23.0366   19.6371 O   0  0  0  0  0  0  0  0  0  0  0  0
   16.0588   22.5690   17.3764 N   0  0  0  0  0  0  0  0  0  0  0  0
   14.7160   21.9628   17.4755 C   0  0  0  0  0  0  0  0  0  0  0  0
   14.0813   21.9784   16.0440 C   0  0  0  0  0  0  0  0  0  0  0  0
   16.6432   22.5423   16.0067 C   0  0  0  0  0  0  0  0  0  0  0  0
   13.4126   23.3278   15.7089 C   0  0  0  0  0  0  0  0  0  0  0  0
   13.0775   20.8218   15.8273 C   0  0  0  0  0  0  0  0  0  0  0  0
   15.4503   21.7367   14.9169 S   0  0  0  0  0  0  0  0  0  0  0  0
   14.9327   20.5363   18.0995 C   0  0  0  0  0  0  0  0  0  0  0  0
   15.9434   19.8773   17.8296 O   0  0  0  0  0  0  0  0  0  0  0  0
   13.9182   20.1443   18.9466 N   0  0  0  0  0  0  0  0  0  0  0  0
   13.1744   20.7782   19.0652 H   0  0  0  0  0  0  0  0  0  0  0  0
   13.8282   18.8668   19.6993 C   0  0  0  0  0  0  0  0  0  0  0  0
   12.3290   18.6156   19.9298 C   0  0  0  0  0  0  0  0  0  0  0  0
   14.5548   18.9839   21.0594 C   0  0  0  0  0  0  0  0  0  0  0  0
   14.4147   17.6974   18.8646 C   0  0  0  0  0  0  0  0  0  0  0  0
   18.3310   25.3994   17.1130 C   0  0  0  0  0  0  0  0  0  0  0  0
   19.3467   25.6480   16.0384 C   0  0  0  0  0  0  0  0  0  0  0  0
   21.2597   26.2518   14.0195 C   0  0  0  0  0  0  0  0  0  0  0  0
   19.5327   26.9843   15.5935 C   0  0  0  0  0  0  0  0  0  0  0  0
   20.1267   24.6076   15.4621 C   0  0  0  0  0  0  0  0  0  0  0  0
   20.4865   27.2922   14.5851 C   0  0  0  0  0  0  0  0  0  0  0  0
   21.0780   24.9085   14.4581 C   0  0  0  0  0  0  0  0  0  0  0  0
  6  7  2  0  0  0
  6 11  1  0  0  0
  7  8  1  0  0  0
  8  9  2  0  0  0
  9 10  1  0  0  0
  9  2  1  0  0  0
 10 11  2  0  0  0
 10 12  1  0  0  0
 11 13  1  0  0  0
  2  4  1  0  0  0
  2  3  2  0  0  0
  4  1  1  0  0  0
  1 35  1  0  0  0
  1 15  1  0  0  0
 35 36  1  0  0  0
 15 18  1  0  0  0
 15 16  1  0  0  0
 18 20  1  0  0  0
 18 19  2  0  0  0
 20 21  1  0  0  0
 20 23  1  0  0  0
 21 22  1  0  0  0
 21 27  1  0  0  0
 22 26  1  0  0  0
 22 24  1  0  0  0
 22 25  1  0  0  0
 26 23  1  0  0  0
 36 38  2  0  0  0
 36 39  1  0  0  0
 38 40  1  0  0  0
 40 37  2  0  0  0
 37 41  1  0  0  0
 41 39  2  0  0  0
 27 29  1  0  0  0
 27 28  2  0  0  0
 29 31  1  0  0  0
 31 32  1  0  0  0
 31 33  1  0  0  0
 31 34  1  0  0  0
 13 14  1  0  0  0
  4  5  1  0  0  0
 16 17  1  0  0  0
 29 30  1  0  0  0
M  END
> <minimizedAffinity>
-9.33543

$$$$
1MRW_K57_A_1001


 41 43  0  0  0  0  0  0  0  0999 V2000
   15.3964   21.7403   18.4788 C   0  0  0  0  0  0  0  0  0  0  0  0
   14.3342   21.9269   16.2520 C   0  0  0  0  0  0  0  0  0  0  0  0
   14.0720   23.1110   16.4699 O   0  0  0  0  0  0  0  0  0  0  0  0
   15.0310   21.1943   17.1645 N   0  0  0  0  0  0  0  0  0  0  0  0
   15.2971   20.2741   16.9373 H   0  0  0  0  0  0  0  0  0  0  0  0
   13.1634   19.8471   12.6153 C   0  0  0  0  0  0  0  0  0  0  0  0
   14.3510   20.6049   12.6562 C   0  0  0  0  0  0  0  0  0  0  0  0
   14.7213   21.2781   13.8441 C   0  0  0  0  0  0  0  0  0  0  0  0
   13.9073   21.2071   15.0158 C   0  0  0  0  0  0  0  0  0  0  0  0
   12.6849   20.4308   14.9759 C   0  0  0  0  0  0  0  0  0  0  0  0
   12.3368   19.7594   13.7601 C   0  0  0  0  0  0  0  0  0  0  0  0
   11.7579   20.3002   16.1799 C   0  0  0  0  0  0  0  0  0  0  0  0
   11.1789   19.0090   13.6903 O   0  0  0  0  0  0  0  0  0  0  0  0
   10.9524   18.5701   12.8940 H   0  0  0  0  0  0  0  0  0  0  0  0
   16.9023   22.0215   18.4733 C   0  0  0  0  0  0  0  0  0  0  0  0
   17.7957   20.9580   18.5385 O   0  0  0  0  0  0  0  0  0  0  0  0
   17.8273   20.6175   19.4463 H   0  0  0  0  0  0  0  0  0  0  0  0
   17.4181   23.4821   18.4612 C   0  0  0  0  0  0  0  0  0  0  0  0
   16.7364   24.3196   17.8883 O   0  0  0  0  0  0  0  0  0  0  0  0
   18.7201   23.7399   18.9203 N   0  0  0  0  0  0  0  0  0  0  0  0
   19.3790   25.0013   18.5268 C   0  0  0  0  0  0  0  0  0  0  0  0
   20.5979   25.2194   19.4853 C   0  0  0  0  0  0  0  0  0  0  0  0
   19.5946   22.8031   19.6794 C   0  0  0  0  0  0  0  0  0  0  0  0
   20.1911   25.8842   20.8168 C   0  0  0  0  0  0  0  0  0  0  0  0
   21.7400   26.0224   18.8197 C   0  0  0  0  0  0  0  0  0  0  0  0
   21.2165   23.5788   19.8446 S   0  0  0  0  0  0  0  0  0  0  0  0
   19.7401   24.8419   17.0052 C   0  0  0  0  0  0  0  0  0  0  0  0
   20.0922   23.7466   16.5524 O   0  0  0  0  0  0  0  0  0  0  0  0
   19.6081   26.0076   16.2812 N   0  0  0  0  0  0  0  0  0  0  0  0
   19.3166   26.8047   16.7801 H   0  0  0  0  0  0  0  0  0  0  0  0
   19.8590   26.1887   14.8283 C   0  0  0  0  0  0  0  0  0  0  0  0
   19.9292   27.7069   14.5965 C   0  0  0  0  0  0  0  0  0  0  0  0
   18.7035   25.5847   13.9968 C   0  0  0  0  0  0  0  0  0  0  0  0
   21.2151   25.5520   14.4238 C   0  0  0  0  0  0  0  0  0  0  0  0
   14.8477   20.9493   19.6974 C   0  0  0  0  0  0  0  0  0  0  0  0
   14.2050   19.6287   19.3958 C   0  0  0  0  0  0  0  0  0  0  0  0
   12.8658   17.1840   18.8211 C   0  0  0  0  0  0  0  0  0  0  0  0
   12.7867   19.5539   19.4328 C   0  0  0  0  0  0  0  0  0  0  0  0
   14.9551   18.4651   19.0699 C   0  0  0  0  0  0  0  0  0  0  0  0
   12.1121   18.3355   19.1470 C   0  0  0  0  0  0  0  0  0  0  0  0
   14.2885   17.2495   18.7841 C   0  0  0  0  0  0  0  0  0  0  0  0
  6  7  2  0  0  0
  6 11  1  0  0  0
  7  8  1  0  0  0
  8  9  2  0  0  0
  9 10  1  0  0  0
  9  2  1  0  0  0
 10 11  2  0  0  0
 10 12  1  0  0  0
 11 13  1  0  0  0
  2  4  1  0  0  0
  2  3  2  0  0  0
  4  1  1  0  0  0
  1 35  1  0  0  0
  1 15  1  0  0  0
 35 36  1  0  0  0
 15 18  1  0  0  0
 15 16  1  0  0  0
 18 20  1  0  0  0
 18 19  2  0  0  0
 20 21  1  0  0  0
 20 23  1  0  0  0
 21 22  1  0  0  0
 21 27  1  0  0  0
 22 26  1  0  0  0
 22 24  1  0  0  0
 22 25  1  0  0  0
 26 23  1  0  0  0
 36 38  2  0  0  0
 36 39  1  0  0  0
 38 40  1  0  0  0
 40 37  2  0  0  0
 37 41  1  0  0  0
 41 39  2  0  0  0
 27 29  1  0  0  0
 27 28  2  0  0  0
 29 31  1  0  0  0
 31 32  1  0  0  0
 31 33  1  0  0  0
 31 34  1  0  0  0
 13 14  1  0  0  0
  4  5  1  0  0  0
 16 17  1  0  0  0
 29 30  1  0  0  0
M  END
> <minimizedAffinity>
-9.31778

$$$$
1MRW_K57_A_1001


 41 43  0  0  0  0  0  0  0  0999 V2000
   17.5023   23.2011   18.6122 C   0  0  0  0  0  0  0  0  0  0  0  0
   18.7549   24.1041   16.6790 C   0  0  0  0  0  0  0  0  0  0  0  0
   19.3132   23.0165   16.5253 O   0  0  0  0  0  0  0  0  0  0  0  0
   17.8110   24.2655   17.6473 N   0  0  0  0  0  0  0  0  0  0  0  0
   17.3222   25.1183   17.7024 H   0  0  0  0  0  0  0  0  0  0  0  0
   19.6074   27.5961   14.2292 C   0  0  0  0  0  0  0  0  0  0  0  0
   18.7009   26.6130   13.7841 C   0  0  0  0  0  0  0  0  0  0  0  0
   18.4322   25.4809   14.5887 C   0  0  0  0  0  0  0  0  0  0  0  0
   19.0684   25.3097   15.8562 C   0  0  0  0  0  0  0  0  0  0  0  0
   20.0023   26.3175   16.3152 C   0  0  0  0  0  0  0  0  0  0  0  0
   20.2532   27.4530   15.4798 C   0  0  0  0  0  0  0  0  0  0  0  0
   20.7249   26.2153   17.6544 C   0  0  0  0  0  0  0  0  0  0  0  0
   21.1366   28.4329   15.8898 O   0  0  0  0  0  0  0  0  0  0  0  0
   21.2998   29.1754   15.3421 H   0  0  0  0  0  0  0  0  0  0  0  0
   16.0688   22.7272   18.3527 C   0  0  0  0  0  0  0  0  0  0  0  0
   15.0035   23.5428   18.7177 O   0  0  0  0  0  0  0  0  0  0  0  0
   14.8799   23.5025   19.6789 H   0  0  0  0  0  0  0  0  0  0  0  0
   15.8138   21.3235   17.7491 C   0  0  0  0  0  0  0  0  0  0  0  0
   16.2782   21.0888   16.6430 O   0  0  0  0  0  0  0  0  0  0  0  0
   14.9049   20.4687   18.3940 N   0  0  0  0  0  0  0  0  0  0  0  0
   14.3249   19.3416   17.6367 C   0  0  0  0  0  0  0  0  0  0  0  0
   13.7070   18.3422   18.6719 C   0  0  0  0  0  0  0  0  0  0  0  0
   14.3394   20.6438   19.7607 C   0  0  0  0  0  0  0  0  0  0  0  0
   14.7551   17.3708   19.2535 C   0  0  0  0  0  0  0  0  0  0  0  0
   12.5139   17.5479   18.0906 C   0  0  0  0  0  0  0  0  0  0  0  0
   13.0898   19.3639   20.0054 S   0  0  0  0  0  0  0  0  0  0  0  0
   13.3036   19.9813   16.6274 C   0  0  0  0  0  0  0  0  0  0  0  0
   12.2022   20.3860   17.0169 O   0  0  0  0  0  0  0  0  0  0  0  0
   13.7717   20.0420   15.3322 N   0  0  0  0  0  0  0  0  0  0  0  0
   14.6729   19.6793   15.1726 H   0  0  0  0  0  0  0  0  0  0  0  0
   13.0606   20.5966   14.1517 C   0  0  0  0  0  0  0  0  0  0  0  0
   14.0685   20.5539   12.9915 C   0  0  0  0  0  0  0  0  0  0  0  0
   12.6259   22.0572   14.4145 C   0  0  0  0  0  0  0  0  0  0  0  0
   11.8342   19.7176   13.7890 C   0  0  0  0  0  0  0  0  0  0  0  0
   17.8652   23.5225   20.0875 C   0  0  0  0  0  0  0  0  0  0  0  0
   19.3007   23.8604   20.3588 C   0  0  0  0  0  0  0  0  0  0  0  0
   21.9863   24.5629   20.9868 C   0  0  0  0  0  0  0  0  0  0  0  0
   19.5847   24.7555   21.4248 C   0  0  0  0  0  0  0  0  0  0  0  0
   20.3749   23.3165   19.6017 C   0  0  0  0  0  0  0  0  0  0  0  0
   20.9241   25.1106   21.7431 C   0  0  0  0  0  0  0  0  0  0  0  0
   21.7104   23.6662   19.9145 C   0  0  0  0  0  0  0  0  0  0  0  0
  6  7  2  0  0  0
  6 11  1  0  0  0
  7  8  1  0  0  0
  8  9  2  0  0  0
  9 10  1  0  0  0
  9  2  1  0  0  0
 10 11  2  0  0  0
 10 12  1  0  0  0
 11 13  1  0  0  0
  2  4  1  0  0  0
  2  3  2  0  0  0
  4  1  1  0  0  0
  1 35  1  0  0  0
  1 15  1  0  0  0
 35 36  1  0  0  0
 15 18  1  0  0  0
 15 16  1  0  0  0
 18 20  1  0  0  0
 18 19  2  0  0  0
 20 21  1  0  0  0
 20 23  1  0  0  0
 21 22  1  0  0  0
 21 27  1  0  0  0
 22 26  1  0  0  0
 22 24  1  0  0  0
 22 25  1  0  0  0
 26 23  1  0  0  0
 36 38  2  0  0  0
 36 39  1  0  0  0
 38 40  1  0  0  0
 40 37  2  0  0  0
 37 41  1  0  0  0
 41 39  2  0  0  0
 27 29  1  0  0  0
 27 28  2  0  0  0
 29 31  1  0  0  0
 31 32  1  0  0  0
 31 33  1  0  0  0
 31 34  1  0  0  0
 13 14  1  0  0  0
  4  5  1  0  0  0
 16 17  1  0  0  0
 29 30  1  0  0  0
M  END
> <minimizedAffinity>
-9.15571

$$$$
1MRW_K57_A_1001


 41 43  0  0  0  0  0  0  0  0999 V2000
   18.6780   23.4806   17.9604 C   0  0  0  0  0  0  0  0  0  0  0  0
   20.5089   24.6536   19.1408 C   0  0  0  0  0  0  0  0  0  0  0  0
   19.7216   25.0112   20.0187 O   0  0  0  0  0  0  0  0  0  0  0  0
   20.0900   23.8537   18.1212 N   0  0  0  0  0  0  0  0  0  0  0  0
   20.7512   23.5164   17.4745 H   0  0  0  0  0  0  0  0  0  0  0  0
   24.7062   25.7944   19.0830 C   0  0  0  0  0  0  0  0  0  0  0  0
   24.2753   24.6875   19.8416 C   0  0  0  0  0  0  0  0  0  0  0  0
   22.9076   24.3263   19.8538 C   0  0  0  0  0  0  0  0  0  0  0  0
   21.9424   25.0689   19.1069 C   0  0  0  0  0  0  0  0  0  0  0  0
   22.3822   26.2085   18.3282 C   0  0  0  0  0  0  0  0  0  0  0  0
   23.7729   26.5491   18.3341 C   0  0  0  0  0  0  0  0  0  0  0  0
   21.4207   27.0558   17.5014 C   0  0  0  0  0  0  0  0  0  0  0  0
   24.2248   27.6287   17.5999 O   0  0  0  0  0  0  0  0  0  0  0  0
   25.1351   27.8504   17.6047 H   0  0  0  0  0  0  0  0  0  0  0  0
   18.4737   22.1075   18.6084 C   0  0  0  0  0  0  0  0  0  0  0  0
   19.1336   21.8076   19.7950 O   0  0  0  0  0  0  0  0  0  0  0  0
   20.0665   21.6191   19.6074 H   0  0  0  0  0  0  0  0  0  0  0  0
   17.5907   21.0441   17.9091 C   0  0  0  0  0  0  0  0  0  0  0  0
   18.0018   20.5648   16.8624 O   0  0  0  0  0  0  0  0  0  0  0  0
   16.2879   20.8306   18.3882 N   0  0  0  0  0  0  0  0  0  0  0  0
   15.3031   20.1704   17.5081 C   0  0  0  0  0  0  0  0  0  0  0  0
   14.1123   19.6900   18.4045 C   0  0  0  0  0  0  0  0  0  0  0  0
   15.7252   21.3215   19.6770 C   0  0  0  0  0  0  0  0  0  0  0  0
   14.3863   18.3248   19.0691 C   0  0  0  0  0  0  0  0  0  0  0  0
   12.7711   19.6448   17.6354 C   0  0  0  0  0  0  0  0  0  0  0  0
   13.9648   20.9214   19.6948 S   0  0  0  0  0  0  0  0  0  0  0  0
   14.9315   21.2292   16.4073 C   0  0  0  0  0  0  0  0  0  0  0  0
   14.9574   22.4388   16.6620 O   0  0  0  0  0  0  0  0  0  0  0  0
   14.6063   20.6695   15.1902 N   0  0  0  0  0  0  0  0  0  0  0  0
   14.6304   19.6867   15.1374 H   0  0  0  0  0  0  0  0  0  0  0  0
   14.2233   21.3918   13.9499 C   0  0  0  0  0  0  0  0  0  0  0  0
   13.6006   20.3371   13.0206 C   0  0  0  0  0  0  0  0  0  0  0  0
   15.4681   22.0144   13.2759 C   0  0  0  0  0  0  0  0  0  0  0  0
   13.1641   22.4835   14.2575 C   0  0  0  0  0  0  0  0  0  0  0  0
   18.1081   23.6574   16.5267 C   0  0  0  0  0  0  0  0  0  0  0  0
   18.8483   24.6051   15.6310 C   0  0  0  0  0  0  0  0  0  0  0  0
   20.3531   26.3140   13.9236 C   0  0  0  0  0  0  0  0  0  0  0  0
   20.1982   24.3009   15.3092 C   0  0  0  0  0  0  0  0  0  0  0  0
   18.2517   25.7784   15.0922 C   0  0  0  0  0  0  0  0  0  0  0  0
   20.9552   25.1508   14.4572 C   0  0  0  0  0  0  0  0  0  0  0  0
   19.0006   26.6279   14.2430 C   0  0  0  0  0  0  0  0  0  0  0  0
  6  7  2  0  0  0
  6 11  1  0  0  0
  7  8  1  0  0  0
  8  9  2  0  0  0
  9 10  1  0  0  0
  9  2  1  0  0  0
 10 11  2  0  0  0
 10 12  1  0  0  0
 11 13  1  0  0  0
  2  4  1  0  0  0
  2  3  2  0  0  0
  4  1  1  0  0  0
  1 35  1  0  0  0
  1 15  1  0  0  0
 35 36  1  0  0  0
 15 18  1  0  0  0
 15 16  1  0  0  0
 18 20  1  0  0  0
 18 19  2  0  0  0
 20 21  1  0  0  0
 20 23  1  0  0  0
 21 22  1  0  0  0
 21 27  1  0  0  0
 22 26  1  0  0  0
 22 24  1  0  0  0
 22 25  1  0  0  0
 26 23  1  0  0  0
 36 38  2  0  0  0
 36 39  1  0  0  0
 38 40  1  0  0  0
 40 37  2  0  0  0
 37 41  1  0  0  0
 41 39  2  0  0  0
 27 29  1  0  0  0
 27 28  2  0  0  0
 29 31  1  0  0  0
 31 32  1  0  0  0
 31 33  1  0  0  0
 31 34  1  0  0  0
 13 14  1  0  0  0
  4  5  1  0  0  0
 16 17  1  0  0  0
 29 30  1  0  0  0
M  END
> <minimizedAffinity>
-9.06845

$$$$
1MRW_K57_A_1001


 41 43  0  0  0  0  0  0  0  0999 V2000
   17.1521   24.9970   16.1294 C   0  0  0  0  0  0  0  0  0  0  0  0
   18.5671   23.9965   17.8953 C   0  0  0  0  0  0  0  0  0  0  0  0
   18.7435   22.9974   17.1960 O   0  0  0  0  0  0  0  0  0  0  0  0
   17.8423   25.0495   17.4255 N   0  0  0  0  0  0  0  0  0  0  0  0
   17.7791   25.8679   17.9690 H   0  0  0  0  0  0  0  0  0  0  0  0
   20.0478   24.3465   21.9705 C   0  0  0  0  0  0  0  0  0  0  0  0
   18.7267   23.9227   21.7225 C   0  0  0  0  0  0  0  0  0  0  0  0
   18.2555   23.8136   20.3930 C   0  0  0  0  0  0  0  0  0  0  0  0
   19.0988   24.1291   19.2839 C   0  0  0  0  0  0  0  0  0  0  0  0
   20.4564   24.5672   19.5361 C   0  0  0  0  0  0  0  0  0  0  0  0
   20.9055   24.6666   20.8920 C   0  0  0  0  0  0  0  0  0  0  0  0
   21.4243   24.9231   18.4124 C   0  0  0  0  0  0  0  0  0  0  0  0
   22.1954   25.0790   21.1659 O   0  0  0  0  0  0  0  0  0  0  0  0
   22.4880   25.1436   22.0537 H   0  0  0  0  0  0  0  0  0  0  0  0
   16.6691   23.5603   15.9074 C   0  0  0  0  0  0  0  0  0  0  0  0
   17.4531   22.6832   15.1662 O   0  0  0  0  0  0  0  0  0  0  0  0
   17.3704   22.8938   14.2230 H   0  0  0  0  0  0  0  0  0  0  0  0
   15.2887   23.1140   16.4505 C   0  0  0  0  0  0  0  0  0  0  0  0
   14.9694   23.4928   17.5681 O   0  0  0  0  0  0  0  0  0  0  0  0
   14.5659   22.1445   15.7362 N   0  0  0  0  0  0  0  0  0  0  0  0
   13.4940   21.4005   16.4274 C   0  0  0  0  0  0  0  0  0  0  0  0
   12.6045   20.7220   15.3317 C   0  0  0  0  0  0  0  0  0  0  0  0
   14.8454   21.6712   14.3519 C   0  0  0  0  0  0  0  0  0  0  0  0
   11.5331   21.6770   14.7656 C   0  0  0  0  0  0  0  0  0  0  0  0
   11.9403   19.4173   15.8307 C   0  0  0  0  0  0  0  0  0  0  0  0
   13.7295   20.2944   14.0072 S   0  0  0  0  0  0  0  0  0  0  0  0
   14.2207   20.4122   17.4104 C   0  0  0  0  0  0  0  0  0  0  0  0
   15.4188   20.1447   17.2635 O   0  0  0  0  0  0  0  0  0  0  0  0
   13.4026   19.9226   18.4061 N   0  0  0  0  0  0  0  0  0  0  0  0
   12.4664   20.2271   18.3957 H   0  0  0  0  0  0  0  0  0  0  0  0
   13.7836   18.9844   19.4929 C   0  0  0  0  0  0  0  0  0  0  0  0
   12.4684   18.5605   20.1670 C   0  0  0  0  0  0  0  0  0  0  0  0
   14.6977   19.6871   20.5235 C   0  0  0  0  0  0  0  0  0  0  0  0
   14.4817   17.7268   18.9103 C   0  0  0  0  0  0  0  0  0  0  0  0
   17.9145   25.6577   14.9488 C   0  0  0  0  0  0  0  0  0  0  0  0
   19.3925   25.8337   15.1295 C   0  0  0  0  0  0  0  0  0  0  0  0
   22.2170   26.0567   15.3994 C   0  0  0  0  0  0  0  0  0  0  0  0
   20.2458   24.7790   14.7078 C   0  0  0  0  0  0  0  0  0  0  0  0
   19.9638   27.0080   15.6932 C   0  0  0  0  0  0  0  0  0  0  0  0
   21.6574   24.8843   14.8403 C   0  0  0  0  0  0  0  0  0  0  0  0
   21.3686   27.1183   15.8271 C   0  0  0  0  0  0  0  0  0  0  0  0
  6  7  2  0  0  0
  6 11  1  0  0  0
  7  8  1  0  0  0
  8  9  2  0  0  0
  9 10  1  0  0  0
  9  2  1  0  0  0
 10 11  2  0  0  0
 10 12  1  0  0  0
 11 13  1  0  0  0
  2  4  1  0  0  0
  2  3  2  0  0  0
  4  1  1  0  0  0
  1 35  1  0  0  0
  1 15  1  0  0  0
 35 36  1  0  0  0
 15 18  1  0  0  0
 15 16  1  0  0  0
 18 20  1  0  0  0
 18 19  2  0  0  0
 20 21  1  0  0  0
 20 23  1  0  0  0
 21 22  1  0  0  0
 21 27  1  0  0  0
 22 26  1  0  0  0
 22 24  1  0  0  0
 22 25  1  0  0  0
 26 23  1  0  0  0
 36 38  2  0  0  0
 36 39  1  0  0  0
 38 40  1  0  0  0
 40 37  2  0  0  0
 37 41  1  0  0  0
 41 39  2  0  0  0
 27 29  1  0  0  0
 27 28  2  0  0  0
 29 31  1  0  0  0
 31 32  1  0  0  0
 31 33  1  0  0  0
 31 34  1  0  0  0
 13 14  1  0  0  0
  4  5  1  0  0  0
 16 17  1  0  0  0
 29 30  1  0  0  0
M  END
> <minimizedAffinity>
-8.83903

$$$$
1MRW_K57_A_1001


 41 43  0  0  0  0  0  0  0  0999 V2000
   18.8792   22.3548   18.3044 C   0  0  0  0  0  0  0  0  0  0  0  0
   18.5357   24.6084   17.3427 C   0  0  0  0  0  0  0  0  0  0  0  0
   17.6724   24.8445   18.1897 O   0  0  0  0  0  0  0  0  0  0  0  0
   19.2167   23.4291   17.3605 N   0  0  0  0  0  0  0  0  0  0  0  0
   19.9551   23.2928   16.7237 H   0  0  0  0  0  0  0  0  0  0  0  0
   19.4955   27.3412   14.0973 C   0  0  0  0  0  0  0  0  0  0  0  0
   18.5217   26.3372   13.9238 C   0  0  0  0  0  0  0  0  0  0  0  0
   18.2185   25.4533   14.9859 C   0  0  0  0  0  0  0  0  0  0  0  0
   18.8869   25.5563   16.2442 C   0  0  0  0  0  0  0  0  0  0  0  0
   19.8900   26.5858   16.4245 C   0  0  0  0  0  0  0  0  0  0  0  0
   20.1745   27.4666   15.3321 C   0  0  0  0  0  0  0  0  0  0  0  0
   20.6509   26.7677   17.7337 C   0  0  0  0  0  0  0  0  0  0  0  0
   21.1238   28.4604   15.4727 O   0  0  0  0  0  0  0  0  0  0  0  0
   21.3090   29.0361   14.7570 H   0  0  0  0  0  0  0  0  0  0  0  0
   17.7870   21.4899   17.6674 C   0  0  0  0  0  0  0  0  0  0  0  0
   18.1491   20.3877   16.9009 O   0  0  0  0  0  0  0  0  0  0  0  0
   18.4664   20.6866   16.0344 H   0  0  0  0  0  0  0  0  0  0  0  0
   16.2969   21.8828   17.8250 C   0  0  0  0  0  0  0  0  0  0  0  0
   15.8615   22.0128   18.9599 O   0  0  0  0  0  0  0  0  0  0  0  0
   15.4739   21.8714   16.6870 N   0  0  0  0  0  0  0  0  0  0  0  0
   14.0094   21.8119   16.8659 C   0  0  0  0  0  0  0  0  0  0  0  0
   13.3481   22.2294   15.5093 C   0  0  0  0  0  0  0  0  0  0  0  0
   15.9218   21.7811   15.2694 C   0  0  0  0  0  0  0  0  0  0  0  0
   13.2351   23.7602   15.3534 C   0  0  0  0  0  0  0  0  0  0  0  0
   11.9643   21.5719   15.2965 C   0  0  0  0  0  0  0  0  0  0  0  0
   14.4490   21.6169   14.2381 S   0  0  0  0  0  0  0  0  0  0  0  0
   13.6933   20.3488   17.3459 C   0  0  0  0  0  0  0  0  0  0  0  0
   13.3490   19.4804   16.5360 O   0  0  0  0  0  0  0  0  0  0  0  0
   13.8536   20.1660   18.7028 N   0  0  0  0  0  0  0  0  0  0  0  0
   14.1344   20.9535   19.2227 H   0  0  0  0  0  0  0  0  0  0  0  0
   13.6477   18.9070   19.4639 C   0  0  0  0  0  0  0  0  0  0  0  0
   14.1761   19.1779   20.8820 C   0  0  0  0  0  0  0  0  0  0  0  0
   14.4425   17.7462   18.8216 C   0  0  0  0  0  0  0  0  0  0  0  0
   12.1379   18.5574   19.5448 C   0  0  0  0  0  0  0  0  0  0  0  0
   18.6283   22.8155   19.7660 C   0  0  0  0  0  0  0  0  0  0  0  0
   19.7686   23.5112   20.4471 C   0  0  0  0  0  0  0  0  0  0  0  0
   22.0037   24.8207   21.6259 C   0  0  0  0  0  0  0  0  0  0  0  0
   21.0200   23.5534   19.7759 C   0  0  0  0  0  0  0  0  0  0  0  0
   19.6411   24.1299   21.7214 C   0  0  0  0  0  0  0  0  0  0  0  0
   22.1403   24.2057   20.3598 C   0  0  0  0  0  0  0  0  0  0  0  0
   20.7531   24.7811   22.3072 C   0  0  0  0  0  0  0  0  0  0  0  0
  6  7  2  0  0  0
  6 11  1  0  0  0
  7  8  1  0  0  0
  8  9  2  0  0  0
  9 10  1  0  0  0
  9  2  1  0  0  0
 10 11  2  0  0  0
 10 12  1  0  0  0
 11 13  1  0  0  0
  2  4  1  0  0  0
  2  3  2  0  0  0
  4  1  1  0  0  0
  1 35  1  0  0  0
  1 15  1  0  0  0
 35 36  1  0  0  0
 15 18  1  0  0  0
 15 16  1  0  0  0
 18 20  1  0  0  0
 18 19  2  0  0  0
 20 21  1  0  0  0
 20 23  1  0  0  0
 21 22  1  0  0  0
 21 27  1  0  0  0
 22 26  1  0  0  0
 22 24  1  0  0  0
 22 25  1  0  0  0
 26 23  1  0  0  0
 36 38  2  0  0  0
 36 39  1  0  0  0
 38 40  1  0  0  0
 40 37  2  0  0  0
 37 41  1  0  0  0
 41 39  2  0  0  0
 27 29  1  0  0  0
 27 28  2  0  0  0
 29 31  1  0  0  0
 31 32  1  0  0  0
 31 33  1  0  0  0
 31 34  1  0  0  0
 13 14  1  0  0  0
  4  5  1  0  0  0
 16 17  1  0  0  0
 29 30  1  0  0  0
M  END
> <minimizedAffinity>
-8.67881

$$$$
