5GSA_73K_A_501


 27 30  0  0  0  0  0  0  0  0999 V2000
  -31.2397   75.3350    5.8456 C   0  0  0  0  0  0  0  0  0  0  0  0
  -31.9315   75.6850    6.9515 C   0  0  0  0  0  0  0  0  0  0  0  0
  -32.3591   74.5667    7.8143 C   0  0  0  0  0  0  0  0  0  0  0  0
  -32.5362   72.6533    8.4767 C   0  0  0  0  0  0  0  0  0  0  0  0
  -32.0132   73.3493    7.5000 N   0  0  0  0  0  0  0  0  0  0  0  0
  -31.2800   73.0249    6.4308 C   0  0  0  0  0  0  0  0  0  0  0  0
  -30.9128   73.9430    5.6271 N   0  0  0  0  0  0  0  0  0  0  0  0
  -33.0525   74.6722    8.8861 N   0  0  0  0  0  0  0  0  0  0  0  0
  -33.1673   73.3319    9.3465 N   0  0  0  0  0  0  0  0  0  0  0  0
  -33.6353   77.4898    7.4273 C   0  0  0  0  0  0  0  0  0  0  0  0
  -33.9822   78.8374    7.5920 C   0  0  0  0  0  0  0  0  0  0  0  0
  -32.9757   79.8264    7.4853 C   0  0  0  0  0  0  0  0  0  0  0  0
  -31.6282   79.4730    7.2448 C   0  0  0  0  0  0  0  0  0  0  0  0
  -31.2742   78.1240    7.1185 C   0  0  0  0  0  0  0  0  0  0  0  0
  -32.2823   77.1285    7.2113 C   0  0  0  0  0  0  0  0  0  0  0  0
  -32.3843   82.2476    6.3137 C   0  0  0  0  0  0  0  0  0  0  0  0
  -33.4051   81.5482    7.6369 S   0  0  0  0  0  0  0  0  0  0  0  0
  -34.7973   81.7604    7.2420 O   0  0  0  0  0  0  0  0  0  0  0  0
  -32.9253   82.0025    8.9426 O   0  0  0  0  0  0  0  0  0  0  0  0
  -30.9223   71.7897    6.2007 N   0  0  0  0  0  0  0  0  0  0  0  0
  -31.1505   71.1073    6.8726 H   0  0  0  0  0  0  0  0  0  0  0  0
  -30.2060   71.3655    5.0082 C   0  0  0  0  0  0  0  0  0  0  0  0
  -28.7583   71.2127    5.3177 C   0  0  0  0  0  0  0  0  0  0  0  0
  -28.1738   70.2650    6.0413 C   0  0  0  0  0  0  0  0  0  0  0  0
  -26.7574   70.6266    5.9723 C   0  0  0  0  0  0  0  0  0  0  0  0
  -26.7755   71.7216    5.2224 C   0  0  0  0  0  0  0  0  0  0  0  0
  -27.9775   72.1405    4.7895 O   0  0  0  0  0  0  0  0  0  0  0  0
 22 23  1  0  0  0
 22 20  1  0  0  0
 27 23  1  0  0  0
 27 26  1  0  0  0
  7  1  1  0  0  0
  7  6  2  0  0  0
 23 24  2  0  0  0
  1  2  2  0  0  0
 26 25  2  0  0  0
 20  6  1  0  0  0
  6  5  1  0  0  0
 16 17  1  0  0  0
 24 25  1  0  0  0
  2 15  1  0  0  0
  2  3  1  0  0  0
 14 15  2  0  0  0
 14 13  1  0  0  0
 15 10  1  0  0  0
 13 12  2  0  0  0
  5  3  1  0  0  0
  5  4  1  0  0  0
 10 11  2  0  0  0
 12 11  1  0  0  0
 12 17  1  0  0  0
 19 17  2  0  0  0
  3  8  2  0  0  0
 17 18  2  0  0  0
  4  9  2  0  0  0
  8  9  1  0  0  0
 20 21  1  0  0  0
M  END
> <minimizedAffinity>
-8.69249

$$$$
5GSA_73K_A_501


 27 30  0  0  0  0  0  0  0  0999 V2000
  -33.9087   76.3039    7.5204 C   0  0  0  0  0  0  0  0  0  0  0  0
  -32.5917   76.3381    7.2232 C   0  0  0  0  0  0  0  0  0  0  0  0
  -31.9183   77.6284    7.4670 C   0  0  0  0  0  0  0  0  0  0  0  0
  -31.6907   79.5549    8.0737 C   0  0  0  0  0  0  0  0  0  0  0  0
  -32.5958   78.6141    7.9863 N   0  0  0  0  0  0  0  0  0  0  0  0
  -33.8863   78.5465    8.3272 C   0  0  0  0  0  0  0  0  0  0  0  0
  -34.5320   77.4705    8.1058 N   0  0  0  0  0  0  0  0  0  0  0  0
  -30.6882   77.8877    7.2218 N   0  0  0  0  0  0  0  0  0  0  0  0
  -30.5349   79.2337    7.6537 N   0  0  0  0  0  0  0  0  0  0  0  0
  -31.9697   73.8896    7.2894 C   0  0  0  0  0  0  0  0  0  0  0  0
  -31.2761   72.7853    6.7767 C   0  0  0  0  0  0  0  0  0  0  0  0
  -30.4796   72.9483    5.6185 C   0  0  0  0  0  0  0  0  0  0  0  0
  -30.3976   74.1962    4.9592 C   0  0  0  0  0  0  0  0  0  0  0  0
  -31.1209   75.2909    5.4486 C   0  0  0  0  0  0  0  0  0  0  0  0
  -31.9111   75.1361    6.6181 C   0  0  0  0  0  0  0  0  0  0  0  0
  -28.0009   72.4084    4.5466 C   0  0  0  0  0  0  0  0  0  0  0  0
  -29.5469   71.5707    4.9827 S   0  0  0  0  0  0  0  0  0  0  0  0
  -29.2222   70.6373    6.0609 O   0  0  0  0  0  0  0  0  0  0  0  0
  -30.2296   71.1037    3.7755 O   0  0  0  0  0  0  0  0  0  0  0  0
  -34.4941   79.5549    8.8932 N   0  0  0  0  0  0  0  0  0  0  0  0
  -34.7631   79.4652    9.8359 H   0  0  0  0  0  0  0  0  0  0  0  0
  -34.7959   80.8025    8.2094 C   0  0  0  0  0  0  0  0  0  0  0  0
  -35.7537   80.5494    7.0989 C   0  0  0  0  0  0  0  0  0  0  0  0
  -35.5361   80.6549    5.7931 C   0  0  0  0  0  0  0  0  0  0  0  0
  -36.8220   80.2642    5.2139 C   0  0  0  0  0  0  0  0  0  0  0  0
  -37.5557   80.0045    6.2890 C   0  0  0  0  0  0  0  0  0  0  0  0
  -36.9595   80.1649    7.4834 O   0  0  0  0  0  0  0  0  0  0  0  0
 22 23  1  0  0  0
 22 20  1  0  0  0
 27 23  1  0  0  0
 27 26  1  0  0  0
  7  1  1  0  0  0
  7  6  2  0  0  0
 23 24  2  0  0  0
  1  2  2  0  0  0
 26 25  2  0  0  0
 20  6  1  0  0  0
  6  5  1  0  0  0
 16 17  1  0  0  0
 24 25  1  0  0  0
  2 15  1  0  0  0
  2  3  1  0  0  0
 14 15  2  0  0  0
 14 13  1  0  0  0
 15 10  1  0  0  0
 13 12  2  0  0  0
  5  3  1  0  0  0
  5  4  1  0  0  0
 10 11  2  0  0  0
 12 11  1  0  0  0
 12 17  1  0  0  0
 19 17  2  0  0  0
  3  8  2  0  0  0
 17 18  2  0  0  0
  4  9  2  0  0  0
  8  9  1  0  0  0
 20 21  1  0  0  0
M  END
> <minimizedAffinity>
-7.86734

$$$$
5GSA_73K_A_501


 27 30  0  0  0  0  0  0  0  0999 V2000
  -32.0124   73.8976    7.4545 C   0  0  0  0  0  0  0  0  0  0  0  0
  -31.6730   74.9531    6.6832 C   0  0  0  0  0  0  0  0  0  0  0  0
  -30.8254   74.6412    5.5162 C   0  0  0  0  0  0  0  0  0  0  0  0
  -29.7904   73.5094    4.1824 C   0  0  0  0  0  0  0  0  0  0  0  0
  -30.5050   73.4008    5.2730 N   0  0  0  0  0  0  0  0  0  0  0  0
  -30.8960   72.3605    6.0153 C   0  0  0  0  0  0  0  0  0  0  0  0
  -31.5980   72.5698    7.0579 N   0  0  0  0  0  0  0  0  0  0  0  0
  -30.3624   75.4933    4.6795 N   0  0  0  0  0  0  0  0  0  0  0  0
  -29.6450   74.6947    3.7471 N   0  0  0  0  0  0  0  0  0  0  0  0
  -33.4565   76.6107    7.3601 C   0  0  0  0  0  0  0  0  0  0  0  0
  -33.8733   77.9187    7.6406 C   0  0  0  0  0  0  0  0  0  0  0  0
  -32.9310   78.9722    7.5724 C   0  0  0  0  0  0  0  0  0  0  0  0
  -31.5767   78.7202    7.2548 C   0  0  0  0  0  0  0  0  0  0  0  0
  -31.1511   77.4084    7.0120 C   0  0  0  0  0  0  0  0  0  0  0  0
  -32.0952   76.3493    7.0661 C   0  0  0  0  0  0  0  0  0  0  0  0
  -32.0714   81.5494    7.1206 C   0  0  0  0  0  0  0  0  0  0  0  0
  -33.4522   80.6488    7.8717 S   0  0  0  0  0  0  0  0  0  0  0  0
  -34.6355   80.9626    7.0715 O   0  0  0  0  0  0  0  0  0  0  0  0
  -33.4607   80.8490    9.3214 O   0  0  0  0  0  0  0  0  0  0  0  0
  -30.5840   71.1351    5.6869 N   0  0  0  0  0  0  0  0  0  0  0  0
  -31.1286   70.4026    6.0557 H   0  0  0  0  0  0  0  0  0  0  0  0
  -29.4778   70.7918    4.8074 C   0  0  0  0  0  0  0  0  0  0  0  0
  -28.1982   70.8377    5.5660 C   0  0  0  0  0  0  0  0  0  0  0  0
  -27.9275   70.2884    6.7443 C   0  0  0  0  0  0  0  0  0  0  0  0
  -26.5260   70.6502    6.9604 C   0  0  0  0  0  0  0  0  0  0  0  0
  -26.2364   71.3471    5.8685 C   0  0  0  0  0  0  0  0  0  0  0  0
  -27.2239   71.5048    4.9698 O   0  0  0  0  0  0  0  0  0  0  0  0
 22 23  1  0  0  0
 22 20  1  0  0  0
 27 23  1  0  0  0
 27 26  1  0  0  0
  7  1  1  0  0  0
  7  6  2  0  0  0
 23 24  2  0  0  0
  1  2  2  0  0  0
 26 25  2  0  0  0
 20  6  1  0  0  0
  6  5  1  0  0  0
 16 17  1  0  0  0
 24 25  1  0  0  0
  2 15  1  0  0  0
  2  3  1  0  0  0
 14 15  2  0  0  0
 14 13  1  0  0  0
 15 10  1  0  0  0
 13 12  2  0  0  0
  5  3  1  0  0  0
  5  4  1  0  0  0
 10 11  2  0  0  0
 12 11  1  0  0  0
 12 17  1  0  0  0
 19 17  2  0  0  0
  3  8  2  0  0  0
 17 18  2  0  0  0
  4  9  2  0  0  0
  8  9  1  0  0  0
 20 21  1  0  0  0
M  END
> <minimizedAffinity>
-7.78588

$$$$
5GSA_73K_A_501


 27 30  0  0  0  0  0  0  0  0999 V2000
  -32.6730   77.1356    7.2649 C   0  0  0  0  0  0  0  0  0  0  0  0
  -32.8012   75.8468    7.6481 C   0  0  0  0  0  0  0  0  0  0  0  0
  -33.6509   75.6172    8.8325 C   0  0  0  0  0  0  0  0  0  0  0  0
  -34.9108   76.0544   10.3663 C   0  0  0  0  0  0  0  0  0  0  0  0
  -34.2519   76.6295    9.3932 N   0  0  0  0  0  0  0  0  0  0  0  0
  -34.1592   77.8929    8.9674 C   0  0  0  0  0  0  0  0  0  0  0  0
  -33.4100   78.1600    7.9719 N   0  0  0  0  0  0  0  0  0  0  0  0
  -33.8764   74.4824    9.3821 N   0  0  0  0  0  0  0  0  0  0  0  0
  -34.7621   74.7949   10.4496 N   0  0  0  0  0  0  0  0  0  0  0  0
  -32.0051   73.4537    7.4866 C   0  0  0  0  0  0  0  0  0  0  0  0
  -31.2469   72.4517    6.8664 C   0  0  0  0  0  0  0  0  0  0  0  0
  -30.4917   72.7726    5.7136 C   0  0  0  0  0  0  0  0  0  0  0  0
  -30.5143   74.0758    5.1659 C   0  0  0  0  0  0  0  0  0  0  0  0
  -31.3020   75.0680    5.7626 C   0  0  0  0  0  0  0  0  0  0  0  0
  -32.0512   74.7549    6.9273 C   0  0  0  0  0  0  0  0  0  0  0  0
  -28.0470   72.5313    4.4685 C   0  0  0  0  0  0  0  0  0  0  0  0
  -29.4785   71.5273    4.9424 S   0  0  0  0  0  0  0  0  0  0  0  0
  -29.0014   70.5715    5.9414 O   0  0  0  0  0  0  0  0  0  0  0  0
  -30.1908   71.0640    3.7510 O   0  0  0  0  0  0  0  0  0  0  0  0
  -34.8299   78.8554    9.5423 N   0  0  0  0  0  0  0  0  0  0  0  0
  -34.4240   79.3048   10.3186 H   0  0  0  0  0  0  0  0  0  0  0  0
  -36.1420   79.3005    9.1007 C   0  0  0  0  0  0  0  0  0  0  0  0
  -36.0414   79.8914    7.7385 C   0  0  0  0  0  0  0  0  0  0  0  0
  -36.5748   79.4375    6.6103 C   0  0  0  0  0  0  0  0  0  0  0  0
  -36.1556   80.4351    5.6249 C   0  0  0  0  0  0  0  0  0  0  0  0
  -35.4517   81.2877    6.3592 C   0  0  0  0  0  0  0  0  0  0  0  0
  -35.3376   81.0093    7.6696 O   0  0  0  0  0  0  0  0  0  0  0  0
 22 23  1  0  0  0
 22 20  1  0  0  0
 27 23  1  0  0  0
 27 26  1  0  0  0
  7  1  1  0  0  0
  7  6  2  0  0  0
 23 24  2  0  0  0
  1  2  2  0  0  0
 26 25  2  0  0  0
 20  6  1  0  0  0
  6  5  1  0  0  0
 16 17  1  0  0  0
 24 25  1  0  0  0
  2 15  1  0  0  0
  2  3  1  0  0  0
 14 15  2  0  0  0
 14 13  1  0  0  0
 15 10  1  0  0  0
 13 12  2  0  0  0
  5  3  1  0  0  0
  5  4  1  0  0  0
 10 11  2  0  0  0
 12 11  1  0  0  0
 12 17  1  0  0  0
 19 17  2  0  0  0
  3  8  2  0  0  0
 17 18  2  0  0  0
  4  9  2  0  0  0
  8  9  1  0  0  0
 20 21  1  0  0  0
M  END
> <minimizedAffinity>
-7.63192

$$$$
5GSA_73K_A_501


 27 30  0  0  0  0  0  0  0  0999 V2000
  -32.7583   77.1427    7.3258 C   0  0  0  0  0  0  0  0  0  0  0  0
  -32.8053   75.8334    7.6537 C   0  0  0  0  0  0  0  0  0  0  0  0
  -33.5918   75.5077    8.8592 C   0  0  0  0  0  0  0  0  0  0  0  0
  -34.8063   75.8106   10.4605 C   0  0  0  0  0  0  0  0  0  0  0  0
  -34.2187   76.4617    9.4896 N   0  0  0  0  0  0  0  0  0  0  0  0
  -34.2076   77.7458    9.1193 C   0  0  0  0  0  0  0  0  0  0  0  0
  -33.5154   78.0952    8.1082 N   0  0  0  0  0  0  0  0  0  0  0  0
  -33.7366   74.3396    9.3643 N   0  0  0  0  0  0  0  0  0  0  0  0
  -34.5912   74.5581   10.4794 N   0  0  0  0  0  0  0  0  0  0  0  0
  -31.9349   73.4832    7.3284 C   0  0  0  0  0  0  0  0  0  0  0  0
  -31.1552   72.5484    6.6346 C   0  0  0  0  0  0  0  0  0  0  0  0
  -30.4301   72.9666    5.4936 C   0  0  0  0  0  0  0  0  0  0  0  0
  -30.5041   74.3003    5.0305 C   0  0  0  0  0  0  0  0  0  0  0  0
  -31.3134   75.2259    5.7007 C   0  0  0  0  0  0  0  0  0  0  0  0
  -32.0326   74.8149    6.8539 C   0  0  0  0  0  0  0  0  0  0  0  0
  -28.7640   70.8397    6.0278 C   0  0  0  0  0  0  0  0  0  0  0  0
  -29.3901   71.8070    4.6299 S   0  0  0  0  0  0  0  0  0  0  0  0
  -30.2047   70.8953    3.8272 O   0  0  0  0  0  0  0  0  0  0  0  0
  -28.3046   72.5715    4.0144 O   0  0  0  0  0  0  0  0  0  0  0  0
  -34.9009   78.6457    9.7645 N   0  0  0  0  0  0  0  0  0  0  0  0
  -35.7965   78.8732    9.4248 H   0  0  0  0  0  0  0  0  0  0  0  0
  -34.4247   79.3303   10.9559 C   0  0  0  0  0  0  0  0  0  0  0  0
  -32.9369   79.3635   10.9571 C   0  0  0  0  0  0  0  0  0  0  0  0
  -32.1014   78.4958   11.5160 C   0  0  0  0  0  0  0  0  0  0  0  0
  -30.7866   79.0367   11.1690 C   0  0  0  0  0  0  0  0  0  0  0  0
  -31.0963   80.1234   10.4727 C   0  0  0  0  0  0  0  0  0  0  0  0
  -32.4046   80.3861   10.3085 O   0  0  0  0  0  0  0  0  0  0  0  0
 22 23  1  0  0  0
 22 20  1  0  0  0
 27 23  1  0  0  0
 27 26  1  0  0  0
  7  1  1  0  0  0
  7  6  2  0  0  0
 23 24  2  0  0  0
  1  2  2  0  0  0
 26 25  2  0  0  0
 20  6  1  0  0  0
  6  5  1  0  0  0
 16 17  1  0  0  0
 24 25  1  0  0  0
  2 15  1  0  0  0
  2  3  1  0  0  0
 14 15  2  0  0  0
 14 13  1  0  0  0
 15 10  1  0  0  0
 13 12  2  0  0  0
  5  3  1  0  0  0
  5  4  1  0  0  0
 10 11  2  0  0  0
 12 11  1  0  0  0
 12 17  1  0  0  0
 19 17  2  0  0  0
  3  8  2  0  0  0
 17 18  2  0  0  0
  4  9  2  0  0  0
  8  9  1  0  0  0
 20 21  1  0  0  0
M  END
> <minimizedAffinity>
-7.37516

$$$$
5GSA_73K_A_501


 27 30  0  0  0  0  0  0  0  0999 V2000
  -33.8788   76.1316    7.7918 C   0  0  0  0  0  0  0  0  0  0  0  0
  -32.6144   76.2397    7.3296 C   0  0  0  0  0  0  0  0  0  0  0  0
  -32.0126   77.5832    7.4322 C   0  0  0  0  0  0  0  0  0  0  0  0
  -31.8541   79.5489    7.9242 C   0  0  0  0  0  0  0  0  0  0  0  0
  -32.6917   78.5460    7.9912 N   0  0  0  0  0  0  0  0  0  0  0  0
  -33.9220   78.4086    8.4947 C   0  0  0  0  0  0  0  0  0  0  0  0
  -34.5093   77.2816    8.4018 N   0  0  0  0  0  0  0  0  0  0  0  0
  -30.8444   77.9123    7.0231 N   0  0  0  0  0  0  0  0  0  0  0  0
  -30.7383   79.2857    7.3754 N   0  0  0  0  0  0  0  0  0  0  0  0
  -31.9693   73.7962    7.3390 C   0  0  0  0  0  0  0  0  0  0  0  0
  -31.2691   72.7097    6.7982 C   0  0  0  0  0  0  0  0  0  0  0  0
  -30.4824   72.9049    5.6383 C   0  0  0  0  0  0  0  0  0  0  0  0
  -30.4166   74.1673    5.0053 C   0  0  0  0  0  0  0  0  0  0  0  0
  -31.1466   75.2444    5.5229 C   0  0  0  0  0  0  0  0  0  0  0  0
  -31.9270   75.0573    6.6942 C   0  0  0  0  0  0  0  0  0  0  0  0
  -28.0059   72.4110    4.5393 C   0  0  0  0  0  0  0  0  0  0  0  0
  -29.5415   71.5500    4.9668 S   0  0  0  0  0  0  0  0  0  0  0  0
  -29.2014   70.5964    6.0223 O   0  0  0  0  0  0  0  0  0  0  0  0
  -30.2278   71.1031    3.7540 O   0  0  0  0  0  0  0  0  0  0  0  0
  -34.5280   79.4010    9.0902 N   0  0  0  0  0  0  0  0  0  0  0  0
  -34.6892   80.2236    8.5739 H   0  0  0  0  0  0  0  0  0  0  0  0
  -34.9778   79.3595   10.4725 C   0  0  0  0  0  0  0  0  0  0  0  0
  -33.8431   79.6779   11.3813 C   0  0  0  0  0  0  0  0  0  0  0  0
  -33.4677   79.0285   12.4771 C   0  0  0  0  0  0  0  0  0  0  0  0
  -32.2975   79.7861   12.9224 C   0  0  0  0  0  0  0  0  0  0  0  0
  -32.2060   80.7412   12.0054 C   0  0  0  0  0  0  0  0  0  0  0  0
  -33.1308   80.7355   11.0294 O   0  0  0  0  0  0  0  0  0  0  0  0
 22 23  1  0  0  0
 22 20  1  0  0  0
 27 23  1  0  0  0
 27 26  1  0  0  0
  7  1  1  0  0  0
  7  6  2  0  0  0
 23 24  2  0  0  0
  1  2  2  0  0  0
 26 25  2  0  0  0
 20  6  1  0  0  0
  6  5  1  0  0  0
 16 17  1  0  0  0
 24 25  1  0  0  0
  2 15  1  0  0  0
  2  3  1  0  0  0
 14 15  2  0  0  0
 14 13  1  0  0  0
 15 10  1  0  0  0
 13 12  2  0  0  0
  5  3  1  0  0  0
  5  4  1  0  0  0
 10 11  2  0  0  0
 12 11  1  0  0  0
 12 17  1  0  0  0
 19 17  2  0  0  0
  3  8  2  0  0  0
 17 18  2  0  0  0
  4  9  2  0  0  0
  8  9  1  0  0  0
 20 21  1  0  0  0
M  END
> <minimizedAffinity>
-7.13347

$$$$
5GSA_73K_A_501


 27 30  0  0  0  0  0  0  0  0999 V2000
  -33.9075   76.2685    7.4666 C   0  0  0  0  0  0  0  0  0  0  0  0
  -32.5900   76.3088    7.1723 C   0  0  0  0  0  0  0  0  0  0  0  0
  -31.9258   77.6057    7.4058 C   0  0  0  0  0  0  0  0  0  0  0  0
  -31.7125   79.5392    7.9951 C   0  0  0  0  0  0  0  0  0  0  0  0
  -32.6112   78.5917    7.9142 N   0  0  0  0  0  0  0  0  0  0  0  0
  -33.9021   78.5186    8.2525 C   0  0  0  0  0  0  0  0  0  0  0  0
  -34.5400   77.4363    8.0396 N   0  0  0  0  0  0  0  0  0  0  0  0
  -30.6968   77.8710    7.1612 N   0  0  0  0  0  0  0  0  0  0  0  0
  -30.5536   79.2219    7.5809 N   0  0  0  0  0  0  0  0  0  0  0  0
  -31.9511   73.8653    7.2631 C   0  0  0  0  0  0  0  0  0  0  0  0
  -31.2489   72.7610    6.7624 C   0  0  0  0  0  0  0  0  0  0  0  0
  -30.4513   72.9185    5.6042 C   0  0  0  0  0  0  0  0  0  0  0  0
  -30.3767   74.1606    4.9331 C   0  0  0  0  0  0  0  0  0  0  0  0
  -31.1086   75.2548    5.4106 C   0  0  0  0  0  0  0  0  0  0  0  0
  -31.8999   75.1058    6.5800 C   0  0  0  0  0  0  0  0  0  0  0  0
  -27.9573   72.3809    4.5670 C   0  0  0  0  0  0  0  0  0  0  0  0
  -29.5078   71.5414    4.9834 S   0  0  0  0  0  0  0  0  0  0  0  0
  -29.1963   70.6103    6.0674 O   0  0  0  0  0  0  0  0  0  0  0  0
  -30.1733   71.0713    3.7678 O   0  0  0  0  0  0  0  0  0  0  0  0
  -34.5180   79.5281    8.8076 N   0  0  0  0  0  0  0  0  0  0  0  0
  -34.0174   80.0810    9.4503 H   0  0  0  0  0  0  0  0  0  0  0  0
  -35.9011   79.8815    8.5300 C   0  0  0  0  0  0  0  0  0  0  0  0
  -36.6936   79.8419    9.7891 C   0  0  0  0  0  0  0  0  0  0  0  0
  -36.7078   78.8903   10.7152 C   0  0  0  0  0  0  0  0  0  0  0  0
  -37.6461   79.4139   11.7088 C   0  0  0  0  0  0  0  0  0  0  0  0
  -38.0096   80.5751   11.1785 C   0  0  0  0  0  0  0  0  0  0  0  0
  -37.4632   80.8982    9.9932 O   0  0  0  0  0  0  0  0  0  0  0  0
 22 23  1  0  0  0
 22 20  1  0  0  0
 27 23  1  0  0  0
 27 26  1  0  0  0
  7  1  1  0  0  0
  7  6  2  0  0  0
 23 24  2  0  0  0
  1  2  2  0  0  0
 26 25  2  0  0  0
 20  6  1  0  0  0
  6  5  1  0  0  0
 16 17  1  0  0  0
 24 25  1  0  0  0
  2 15  1  0  0  0
  2  3  1  0  0  0
 14 15  2  0  0  0
 14 13  1  0  0  0
 15 10  1  0  0  0
 13 12  2  0  0  0
  5  3  1  0  0  0
  5  4  1  0  0  0
 10 11  2  0  0  0
 12 11  1  0  0  0
 12 17  1  0  0  0
 19 17  2  0  0  0
  3  8  2  0  0  0
 17 18  2  0  0  0
  4  9  2  0  0  0
  8  9  1  0  0  0
 20 21  1  0  0  0
M  END
> <minimizedAffinity>
-7.08883

$$$$
5GSA_73K_A_501


 27 30  0  0  0  0  0  0  0  0999 V2000
  -32.6344   77.2364    7.4946 C   0  0  0  0  0  0  0  0  0  0  0  0
  -32.7131   75.9151    7.7629 C   0  0  0  0  0  0  0  0  0  0  0  0
  -33.5067   75.5543    8.9535 C   0  0  0  0  0  0  0  0  0  0  0  0
  -34.7129   75.8137   10.5688 C   0  0  0  0  0  0  0  0  0  0  0  0
  -34.1100   76.4936    9.6274 N   0  0  0  0  0  0  0  0  0  0  0  0
  -34.0678   77.7926    9.3157 C   0  0  0  0  0  0  0  0  0  0  0  0
  -33.3677   78.1705    8.3204 N   0  0  0  0  0  0  0  0  0  0  0  0
  -33.6797   74.3684    9.4054 N   0  0  0  0  0  0  0  0  0  0  0  0
  -34.5282   74.5568   10.5306 N   0  0  0  0  0  0  0  0  0  0  0  0
  -31.9606   73.5490    7.2917 C   0  0  0  0  0  0  0  0  0  0  0  0
  -31.2059   72.6244    6.5576 C   0  0  0  0  0  0  0  0  0  0  0  0
  -30.4132   73.0830    5.4789 C   0  0  0  0  0  0  0  0  0  0  0  0
  -30.3950   74.4493    5.1161 C   0  0  0  0  0  0  0  0  0  0  0  0
  -31.1787   75.3682    5.8249 C   0  0  0  0  0  0  0  0  0  0  0  0
  -31.9656   74.9155    6.9166 C   0  0  0  0  0  0  0  0  0  0  0  0
  -28.5406   71.1158    5.9351 C   0  0  0  0  0  0  0  0  0  0  0  0
  -29.4044   71.9322    4.5679 S   0  0  0  0  0  0  0  0  0  0  0  0
  -30.2417   70.9114    3.9386 O   0  0  0  0  0  0  0  0  0  0  0  0
  -28.4628   72.7175    3.7689 O   0  0  0  0  0  0  0  0  0  0  0  0
  -34.7388   78.6788   10.0020 N   0  0  0  0  0  0  0  0  0  0  0  0
  -35.4895   78.3656   10.5566 H   0  0  0  0  0  0  0  0  0  0  0  0
  -34.4397   80.1020    9.9932 C   0  0  0  0  0  0  0  0  0  0  0  0
  -35.5979   80.8568    9.4423 C   0  0  0  0  0  0  0  0  0  0  0  0
  -35.5771   81.8878    8.6056 C   0  0  0  0  0  0  0  0  0  0  0  0
  -36.9976   82.1826    8.4133 C   0  0  0  0  0  0  0  0  0  0  0  0
  -37.5874   81.2703    9.1757 C   0  0  0  0  0  0  0  0  0  0  0  0
  -36.7824   80.4241    9.8418 O   0  0  0  0  0  0  0  0  0  0  0  0
 22 23  1  0  0  0
 22 20  1  0  0  0
 27 23  1  0  0  0
 27 26  1  0  0  0
  7  1  1  0  0  0
  7  6  2  0  0  0
 23 24  2  0  0  0
  1  2  2  0  0  0
 26 25  2  0  0  0
 20  6  1  0  0  0
  6  5  1  0  0  0
 16 17  1  0  0  0
 24 25  1  0  0  0
  2 15  1  0  0  0
  2  3  1  0  0  0
 14 15  2  0  0  0
 14 13  1  0  0  0
 15 10  1  0  0  0
 13 12  2  0  0  0
  5  3  1  0  0  0
  5  4  1  0  0  0
 10 11  2  0  0  0
 12 11  1  0  0  0
 12 17  1  0  0  0
 19 17  2  0  0  0
  3  8  2  0  0  0
 17 18  2  0  0  0
  4  9  2  0  0  0
  8  9  1  0  0  0
 20 21  1  0  0  0
M  END
> <minimizedAffinity>
-7.05042

$$$$
5GSA_73K_A_501


 27 30  0  0  0  0  0  0  0  0999 V2000
  -32.7413   77.1065    7.3265 C   0  0  0  0  0  0  0  0  0  0  0  0
  -32.8533   75.8134    7.7000 C   0  0  0  0  0  0  0  0  0  0  0  0
  -33.6944   75.5650    8.8868 C   0  0  0  0  0  0  0  0  0  0  0  0
  -34.9512   75.9762   10.4304 C   0  0  0  0  0  0  0  0  0  0  0  0
  -34.3036   76.5662    9.4586 N   0  0  0  0  0  0  0  0  0  0  0  0
  -34.2270   77.8339    9.0424 C   0  0  0  0  0  0  0  0  0  0  0  0
  -33.4859   78.1170    8.0453 N   0  0  0  0  0  0  0  0  0  0  0  0
  -33.9045   74.4235    9.4285 N   0  0  0  0  0  0  0  0  0  0  0  0
  -34.7881   74.7178   10.5028 N   0  0  0  0  0  0  0  0  0  0  0  0
  -32.0145   73.4358    7.5256 C   0  0  0  0  0  0  0  0  0  0  0  0
  -31.2481   72.4482    6.8928 C   0  0  0  0  0  0  0  0  0  0  0  0
  -30.5190   72.7827    5.7270 C   0  0  0  0  0  0  0  0  0  0  0  0
  -30.5760   74.0848    5.1794 C   0  0  0  0  0  0  0  0  0  0  0  0
  -31.3721   75.0622    5.7893 C   0  0  0  0  0  0  0  0  0  0  0  0
  -32.0951   74.7355    6.9668 C   0  0  0  0  0  0  0  0  0  0  0  0
  -28.0815   72.5829    4.4608 C   0  0  0  0  0  0  0  0  0  0  0  0
  -29.4956   71.5565    4.9390 S   0  0  0  0  0  0  0  0  0  0  0  0
  -28.9978   70.6001    5.9273 O   0  0  0  0  0  0  0  0  0  0  0  0
  -30.2113   71.0921    3.7499 O   0  0  0  0  0  0  0  0  0  0  0  0
  -34.9053   78.7843    9.6283 N   0  0  0  0  0  0  0  0  0  0  0  0
  -34.4766   79.2725   10.3681 H   0  0  0  0  0  0  0  0  0  0  0  0
  -36.2577   79.1621    9.2499 C   0  0  0  0  0  0  0  0  0  0  0  0
  -37.0591   79.4543   10.4694 C   0  0  0  0  0  0  0  0  0  0  0  0
  -37.2256   78.6868   11.5402 C   0  0  0  0  0  0  0  0  0  0  0  0
  -38.0835   79.5041   12.3991 C   0  0  0  0  0  0  0  0  0  0  0  0
  -38.2625   80.5988   11.6702 C   0  0  0  0  0  0  0  0  0  0  0  0
  -37.6624   80.6315   10.4674 O   0  0  0  0  0  0  0  0  0  0  0  0
 22 23  1  0  0  0
 22 20  1  0  0  0
 27 23  1  0  0  0
 27 26  1  0  0  0
  7  1  1  0  0  0
  7  6  2  0  0  0
 23 24  2  0  0  0
  1  2  2  0  0  0
 26 25  2  0  0  0
 20  6  1  0  0  0
  6  5  1  0  0  0
 16 17  1  0  0  0
 24 25  1  0  0  0
  2 15  1  0  0  0
  2  3  1  0  0  0
 14 15  2  0  0  0
 14 13  1  0  0  0
 15 10  1  0  0  0
 13 12  2  0  0  0
  5  3  1  0  0  0
  5  4  1  0  0  0
 10 11  2  0  0  0
 12 11  1  0  0  0
 12 17  1  0  0  0
 19 17  2  0  0  0
  3  8  2  0  0  0
 17 18  2  0  0  0
  4  9  2  0  0  0
  8  9  1  0  0  0
 20 21  1  0  0  0
M  END
> <minimizedAffinity>
-6.95619

$$$$
5GSA_73K_A_501


 27 30  0  0  0  0  0  0  0  0999 V2000
  -31.8096   73.1302    7.0401 C   0  0  0  0  0  0  0  0  0  0  0  0
  -31.6897   74.4424    6.7439 C   0  0  0  0  0  0  0  0  0  0  0  0
  -30.7892   74.7606    5.6189 C   0  0  0  0  0  0  0  0  0  0  0  0
  -29.5357   74.4340    4.0526 C   0  0  0  0  0  0  0  0  0  0  0  0
  -30.2193   73.7886    4.9626 N   0  0  0  0  0  0  0  0  0  0  0  0
  -30.3925   72.4913    5.2333 C   0  0  0  0  0  0  0  0  0  0  0  0
  -31.1288   72.1546    6.2172 N   0  0  0  0  0  0  0  0  0  0  0  0
  -30.5061   75.9365    5.1974 N   0  0  0  0  0  0  0  0  0  0  0  0
  -29.6345   75.7003    4.0992 N   0  0  0  0  0  0  0  0  0  0  0  0
  -32.2547   76.8541    7.2452 C   0  0  0  0  0  0  0  0  0  0  0  0
  -32.8384   77.8343    8.0588 C   0  0  0  0  0  0  0  0  0  0  0  0
  -33.5145   77.4389    9.2374 C   0  0  0  0  0  0  0  0  0  0  0  0
  -33.6329   76.0745    9.5878 C   0  0  0  0  0  0  0  0  0  0  0  0
  -33.0831   75.0918    8.7553 C   0  0  0  0  0  0  0  0  0  0  0  0
  -32.3921   75.4837    7.5785 C   0  0  0  0  0  0  0  0  0  0  0  0
  -33.2474   80.1192    9.8116 C   0  0  0  0  0  0  0  0  0  0  0  0
  -34.2159   78.6728   10.3134 S   0  0  0  0  0  0  0  0  0  0  0  0
  -35.6008   78.9494    9.9330 O   0  0  0  0  0  0  0  0  0  0  0  0
  -33.8843   78.2910   11.6867 O   0  0  0  0  0  0  0  0  0  0  0  0
  -29.8334   71.5635    4.5030 N   0  0  0  0  0  0  0  0  0  0  0  0
  -29.8327   71.6796    3.5253 H   0  0  0  0  0  0  0  0  0  0  0  0
  -29.2119   70.3690    5.0523 C   0  0  0  0  0  0  0  0  0  0  0  0
  -27.9258   70.7271    5.7099 C   0  0  0  0  0  0  0  0  0  0  0  0
  -26.9450   71.4817    5.2282 C   0  0  0  0  0  0  0  0  0  0  0  0
  -25.9707   71.4892    6.3202 C   0  0  0  0  0  0  0  0  0  0  0  0
  -26.5612   70.7348    7.2388 C   0  0  0  0  0  0  0  0  0  0  0  0
  -27.7668   70.2291    6.9250 O   0  0  0  0  0  0  0  0  0  0  0  0
 22 23  1  0  0  0
 22 20  1  0  0  0
 27 23  1  0  0  0
 27 26  1  0  0  0
  7  1  1  0  0  0
  7  6  2  0  0  0
 23 24  2  0  0  0
  1  2  2  0  0  0
 26 25  2  0  0  0
 20  6  1  0  0  0
  6  5  1  0  0  0
 16 17  1  0  0  0
 24 25  1  0  0  0
  2 15  1  0  0  0
  2  3  1  0  0  0
 14 15  2  0  0  0
 14 13  1  0  0  0
 15 10  1  0  0  0
 13 12  2  0  0  0
  5  3  1  0  0  0
  5  4  1  0  0  0
 10 11  2  0  0  0
 12 11  1  0  0  0
 12 17  1  0  0  0
 19 17  2  0  0  0
  3  8  2  0  0  0
 17 18  2  0  0  0
  4  9  2  0  0  0
  8  9  1  0  0  0
 20 21  1  0  0  0
M  END
> <minimizedAffinity>
-6.55624

$$$$
