3PCE_3HP_M_550


 13 13  0  0  0  0  0  0  0  0999 V2000
   14.5008   12.4426   40.8113 C   0  0  0  0  0  0  0  0  0  0  0  0
   15.6209   13.1482   40.3514 C   0  0  0  0  0  0  0  0  0  0  0  0
   15.9541   14.3783   40.9686 C   0  0  0  0  0  0  0  0  0  0  0  0
   15.2086   14.8970   42.0223 C   0  0  0  0  0  0  0  0  0  0  0  0
   14.1357   14.1915   42.5031 C   0  0  0  0  0  0  0  0  0  0  0  0
   13.7579   12.9662   41.8794 C   0  0  0  0  0  0  0  0  0  0  0  0
   17.0515   15.0681   40.5385 O   0  0  0  0  0  0  0  0  0  0  0  0
   17.5663   14.7349   39.8301 H   0  0  0  0  0  0  0  0  0  0  0  0
   13.9776   11.1590   40.2333 C   0  0  0  0  0  0  0  0  0  0  0  0
   14.7654    9.9089   40.6313 C   0  0  0  0  0  0  0  0  0  0  0  0
   15.3717    9.3790   39.6313 O   0  0  0  0  0  0  0  0  0  0  0  0
   14.6933    9.4192   41.7957 O   0  0  0  0  0  0  0  0  0  0  0  0
   14.2277    9.8764   42.4682 H   0  0  0  0  0  0  0  0  0  0  0  0
 10 11  2  0  0  0
 10 12  1  0  0  0
 10  9  1  0  0  0
  9  1  1  0  0  0
  1  2  1  0  0  0
  1  6  2  0  0  0
  2  3  2  0  0  0
  3  4  1  0  0  0
  3  7  1  0  0  0
  4  5  2  0  0  0
  5  6  1  0  0  0
 12 13  1  0  0  0
  7  8  1  0  0  0
M  END
> <minimizedAffinity>
-7.08916

$$$$
3PCE_3HP_M_550


 13 13  0  0  0  0  0  0  0  0999 V2000
   14.3164   12.2861   40.8436 C   0  0  0  0  0  0  0  0  0  0  0  0
   13.6851   12.9093   41.9285 C   0  0  0  0  0  0  0  0  0  0  0  0
   14.2108   14.1307   42.4152 C   0  0  0  0  0  0  0  0  0  0  0  0
   15.3258   14.7314   41.8399 C   0  0  0  0  0  0  0  0  0  0  0  0
   15.9232   14.1472   40.7528 C   0  0  0  0  0  0  0  0  0  0  0  0
   15.4350   12.9006   40.2623 C   0  0  0  0  0  0  0  0  0  0  0  0
   13.5961   14.7545   43.4630 O   0  0  0  0  0  0  0  0  0  0  0  0
   12.8437   14.3656   43.8638 H   0  0  0  0  0  0  0  0  0  0  0  0
   13.9250   10.9658   40.2443 C   0  0  0  0  0  0  0  0  0  0  0  0
   14.7758    9.7780   40.6995 C   0  0  0  0  0  0  0  0  0  0  0  0
   15.3645    9.1982   39.7168 O   0  0  0  0  0  0  0  0  0  0  0  0
   14.7669    9.3733   41.8982 O   0  0  0  0  0  0  0  0  0  0  0  0
   14.3094    9.8616   42.5541 H   0  0  0  0  0  0  0  0  0  0  0  0
 10 11  2  0  0  0
 10 12  1  0  0  0
 10  9  1  0  0  0
  9  1  1  0  0  0
  1  2  1  0  0  0
  1  6  2  0  0  0
  2  3  2  0  0  0
  3  4  1  0  0  0
  3  7  1  0  0  0
  4  5  2  0  0  0
  5  6  1  0  0  0
 12 13  1  0  0  0
  7  8  1  0  0  0
M  END
> <minimizedAffinity>
-6.71016

$$$$
3PCE_3HP_M_550


 13 13  0  0  0  0  0  0  0  0999 V2000
   14.8785   14.6666   42.1579 C   0  0  0  0  0  0  0  0  0  0  0  0
   15.6574   14.1161   41.1312 C   0  0  0  0  0  0  0  0  0  0  0  0
   15.2679   12.8768   40.5679 C   0  0  0  0  0  0  0  0  0  0  0  0
   14.1310   12.1998   40.9973 C   0  0  0  0  0  0  0  0  0  0  0  0
   13.3429   12.7531   41.9734 C   0  0  0  0  0  0  0  0  0  0  0  0
   13.7289   13.9839   42.5810 C   0  0  0  0  0  0  0  0  0  0  0  0
   16.0110   12.3370   39.5572 O   0  0  0  0  0  0  0  0  0  0  0  0
   16.7801   12.7781   39.2542 H   0  0  0  0  0  0  0  0  0  0  0  0
   15.1805   15.9371   42.8998 C   0  0  0  0  0  0  0  0  0  0  0  0
   15.0159   17.2155   42.0749 C   0  0  0  0  0  0  0  0  0  0  0  0
   16.1348   17.6400   41.6099 O   0  0  0  0  0  0  0  0  0  0  0  0
   13.9064   17.8184   41.9956 O   0  0  0  0  0  0  0  0  0  0  0  0
   13.1363   17.4329   42.3648 H   0  0  0  0  0  0  0  0  0  0  0  0
 10 11  2  0  0  0
 10 12  1  0  0  0
 10  9  1  0  0  0
  9  1  1  0  0  0
  1  2  1  0  0  0
  1  6  2  0  0  0
  2  3  2  0  0  0
  3  4  1  0  0  0
  3  7  1  0  0  0
  4  5  2  0  0  0
  5  6  1  0  0  0
 12 13  1  0  0  0
  7  8  1  0  0  0
M  END
> <minimizedAffinity>
-6.28549

$$$$
3PCE_3HP_M_550


 13 13  0  0  0  0  0  0  0  0999 V2000
   14.1199   14.5433   42.5525 C   0  0  0  0  0  0  0  0  0  0  0  0
   15.2741   15.1696   42.0630 C   0  0  0  0  0  0  0  0  0  0  0  0
   16.0192   14.5283   41.0439 C   0  0  0  0  0  0  0  0  0  0  0  0
   15.6311   13.3036   40.5104 C   0  0  0  0  0  0  0  0  0  0  0  0
   14.4809   12.7055   40.9569 C   0  0  0  0  0  0  0  0  0  0  0  0
   13.7289   13.3128   42.0051 C   0  0  0  0  0  0  0  0  0  0  0  0
   17.1380   15.1352   40.5490 O   0  0  0  0  0  0  0  0  0  0  0  0
   17.4154   15.9605   40.8954 H   0  0  0  0  0  0  0  0  0  0  0  0
   13.2516   15.0561   43.6655 C   0  0  0  0  0  0  0  0  0  0  0  0
   13.3704   14.2814   44.9799 C   0  0  0  0  0  0  0  0  0  0  0  0
   12.3774   13.4895   45.1675 O   0  0  0  0  0  0  0  0  0  0  0  0
   14.2918   14.5214   45.8131 O   0  0  0  0  0  0  0  0  0  0  0  0
   14.9810   15.1161   45.5911 H   0  0  0  0  0  0  0  0  0  0  0  0
 10 11  2  0  0  0
 10 12  1  0  0  0
 10  9  1  0  0  0
  9  1  1  0  0  0
  1  2  1  0  0  0
  1  6  2  0  0  0
  2  3  2  0  0  0
  3  4  1  0  0  0
  3  7  1  0  0  0
  4  5  2  0  0  0
  5  6  1  0  0  0
 12 13  1  0  0  0
  7  8  1  0  0  0
M  END
> <minimizedAffinity>
-6.23325

$$$$
3PCE_3HP_M_550


 13 13  0  0  0  0  0  0  0  0999 V2000
   15.2888   13.9741   41.1537 C   0  0  0  0  0  0  0  0  0  0  0  0
   14.3846   13.9963   42.2241 C   0  0  0  0  0  0  0  0  0  0  0  0
   13.4109   12.9725   42.3172 C   0  0  0  0  0  0  0  0  0  0  0  0
   13.3359   11.9434   41.3842 C   0  0  0  0  0  0  0  0  0  0  0  0
   14.2433   11.8940   40.3575 C   0  0  0  0  0  0  0  0  0  0  0  0
   15.2138   12.9296   40.2208 C   0  0  0  0  0  0  0  0  0  0  0  0
   12.5333   12.9756   43.3635 O   0  0  0  0  0  0  0  0  0  0  0  0
   12.5681   13.6603   44.0022 H   0  0  0  0  0  0  0  0  0  0  0  0
   16.3408   15.0093   40.8755 C   0  0  0  0  0  0  0  0  0  0  0  0
   15.8938   16.4548   41.1047 C   0  0  0  0  0  0  0  0  0  0  0  0
   15.6417   17.0649   40.0035 O   0  0  0  0  0  0  0  0  0  0  0  0
   15.9100   16.9823   42.2546 O   0  0  0  0  0  0  0  0  0  0  0  0
   16.1048   16.4592   43.0072 H   0  0  0  0  0  0  0  0  0  0  0  0
 10 11  2  0  0  0
 10 12  1  0  0  0
 10  9  1  0  0  0
  9  1  1  0  0  0
  1  2  1  0  0  0
  1  6  2  0  0  0
  2  3  2  0  0  0
  3  4  1  0  0  0
  3  7  1  0  0  0
  4  5  2  0  0  0
  5  6  1  0  0  0
 12 13  1  0  0  0
  7  8  1  0  0  0
M  END
> <minimizedAffinity>
-6.22355

$$$$
3PCE_3HP_M_550


 13 13  0  0  0  0  0  0  0  0999 V2000
   14.2371   14.5093   42.4919 C   0  0  0  0  0  0  0  0  0  0  0  0
   15.3938   15.1368   42.0100 C   0  0  0  0  0  0  0  0  0  0  0  0
   16.1199   14.5195   40.9627 C   0  0  0  0  0  0  0  0  0  0  0  0
   15.7108   13.3174   40.3946 C   0  0  0  0  0  0  0  0  0  0  0  0
   14.5579   12.7194   40.8344 C   0  0  0  0  0  0  0  0  0  0  0  0
   13.8248   13.3019   41.9097 C   0  0  0  0  0  0  0  0  0  0  0  0
   17.2409   15.1283   40.4752 O   0  0  0  0  0  0  0  0  0  0  0  0
   17.5323   15.9385   40.8448 H   0  0  0  0  0  0  0  0  0  0  0  0
   13.3872   14.9965   43.6303 C   0  0  0  0  0  0  0  0  0  0  0  0
   13.0541   16.4896   43.5879 C   0  0  0  0  0  0  0  0  0  0  0  0
   13.0710   17.0235   44.7554 O   0  0  0  0  0  0  0  0  0  0  0  0
   12.6855   17.0594   42.5201 O   0  0  0  0  0  0  0  0  0  0  0  0
   12.7059   16.5918   41.7084 H   0  0  0  0  0  0  0  0  0  0  0  0
 10 11  2  0  0  0
 10 12  1  0  0  0
 10  9  1  0  0  0
  9  1  1  0  0  0
  1  2  1  0  0  0
  1  6  2  0  0  0
  2  3  2  0  0  0
  3  4  1  0  0  0
  3  7  1  0  0  0
  4  5  2  0  0  0
  5  6  1  0  0  0
 12 13  1  0  0  0
  7  8  1  0  0  0
M  END
> <minimizedAffinity>
-6.13705

$$$$
3PCE_3HP_M_550


 13 13  0  0  0  0  0  0  0  0999 V2000
   14.3466   14.5270   42.5872 C   0  0  0  0  0  0  0  0  0  0  0  0
   13.5643   13.3845   42.3712 C   0  0  0  0  0  0  0  0  0  0  0  0
   13.9028   12.5164   41.3051 C   0  0  0  0  0  0  0  0  0  0  0  0
   14.9935   12.7609   40.4770 C   0  0  0  0  0  0  0  0  0  0  0  0
   15.7864   13.8553   40.7085 C   0  0  0  0  0  0  0  0  0  0  0  0
   15.4499   14.7639   41.7545 C   0  0  0  0  0  0  0  0  0  0  0  0
   13.1564   11.3926   41.0933 O   0  0  0  0  0  0  0  0  0  0  0  0
   12.4179   11.2106   41.6406 H   0  0  0  0  0  0  0  0  0  0  0  0
   14.0929   15.5763   43.6314 C   0  0  0  0  0  0  0  0  0  0  0  0
   12.9852   16.5729   43.2826 C   0  0  0  0  0  0  0  0  0  0  0  0
   11.9839   16.4840   44.0812 O   0  0  0  0  0  0  0  0  0  0  0  0
   13.0394   17.2912   42.2425 O   0  0  0  0  0  0  0  0  0  0  0  0
   13.8141   17.2950   41.7155 H   0  0  0  0  0  0  0  0  0  0  0  0
 10 11  2  0  0  0
 10 12  1  0  0  0
 10  9  1  0  0  0
  9  1  1  0  0  0
  1  2  1  0  0  0
  1  6  2  0  0  0
  2  3  2  0  0  0
  3  4  1  0  0  0
  3  7  1  0  0  0
  4  5  2  0  0  0
  5  6  1  0  0  0
 12 13  1  0  0  0
  7  8  1  0  0  0
M  END
> <minimizedAffinity>
-6.13262

$$$$
3PCE_3HP_M_550


 13 13  0  0  0  0  0  0  0  0999 V2000
   14.0265   14.1698   42.4745 C   0  0  0  0  0  0  0  0  0  0  0  0
   13.5779   12.9482   41.9543 C   0  0  0  0  0  0  0  0  0  0  0  0
   14.2904   12.3598   40.8815 C   0  0  0  0  0  0  0  0  0  0  0  0
   15.4256   12.9542   40.3401 C   0  0  0  0  0  0  0  0  0  0  0  0
   15.8926   14.1288   40.8714 C   0  0  0  0  0  0  0  0  0  0  0  0
   15.1763   14.7602   41.9303 C   0  0  0  0  0  0  0  0  0  0  0  0
   13.8712   11.1627   40.3753 O   0  0  0  0  0  0  0  0  0  0  0  0
   13.1087   10.7466   40.7268 H   0  0  0  0  0  0  0  0  0  0  0  0
   13.3576   14.9537   43.5670 C   0  0  0  0  0  0  0  0  0  0  0  0
   13.2040   14.2037   44.8921 C   0  0  0  0  0  0  0  0  0  0  0  0
   14.1794   14.4329   45.6949 O   0  0  0  0  0  0  0  0  0  0  0  0
   12.2740   13.3665   45.0792 O   0  0  0  0  0  0  0  0  0  0  0  0
   11.5993   13.2644   44.4371 H   0  0  0  0  0  0  0  0  0  0  0  0
 10 11  2  0  0  0
 10 12  1  0  0  0
 10  9  1  0  0  0
  9  1  1  0  0  0
  1  2  1  0  0  0
  1  6  2  0  0  0
  2  3  2  0  0  0
  3  4  1  0  0  0
  3  7  1  0  0  0
  4  5  2  0  0  0
  5  6  1  0  0  0
 12 13  1  0  0  0
  7  8  1  0  0  0
M  END
> <minimizedAffinity>
-6.08074

$$$$
3PCE_3HP_M_550


 13 13  0  0  0  0  0  0  0  0999 V2000
   14.4344   14.7137   42.6784 C   0  0  0  0  0  0  0  0  0  0  0  0
   14.0181   15.0615   43.9706 C   0  0  0  0  0  0  0  0  0  0  0  0
   13.0850   14.2290   44.6348 C   0  0  0  0  0  0  0  0  0  0  0  0
   12.5814   13.0739   44.0454 C   0  0  0  0  0  0  0  0  0  0  0  0
   13.0157   12.7070   42.7977 C   0  0  0  0  0  0  0  0  0  0  0  0
   13.9298   13.5437   42.0925 C   0  0  0  0  0  0  0  0  0  0  0  0
   12.6824   14.5499   45.8997 O   0  0  0  0  0  0  0  0  0  0  0  0
   13.0104   15.3239   46.3136 H   0  0  0  0  0  0  0  0  0  0  0  0
   15.3688   15.5126   41.8157 C   0  0  0  0  0  0  0  0  0  0  0  0
   15.0483   17.0068   41.7366 C   0  0  0  0  0  0  0  0  0  0  0  0
   16.1056   17.7331   41.7904 O   0  0  0  0  0  0  0  0  0  0  0  0
   13.8573   17.4337   41.7477 O   0  0  0  0  0  0  0  0  0  0  0  0
   13.1426   16.8293   41.7048 H   0  0  0  0  0  0  0  0  0  0  0  0
 10 11  2  0  0  0
 10 12  1  0  0  0
 10  9  1  0  0  0
  9  1  1  0  0  0
  1  2  1  0  0  0
  1  6  2  0  0  0
  2  3  2  0  0  0
  3  4  1  0  0  0
  3  7  1  0  0  0
  4  5  2  0  0  0
  5  6  1  0  0  0
 12 13  1  0  0  0
  7  8  1  0  0  0
M  END
> <minimizedAffinity>
-5.86475

$$$$
3PCE_3HP_M_550


 13 13  0  0  0  0  0  0  0  0999 V2000
   14.0499   14.3679   42.6250 C   0  0  0  0  0  0  0  0  0  0  0  0
   15.0210   14.2516   41.6213 C   0  0  0  0  0  0  0  0  0  0  0  0
   15.0349   13.0871   40.8159 C   0  0  0  0  0  0  0  0  0  0  0  0
   14.1069   12.0650   40.9866 C   0  0  0  0  0  0  0  0  0  0  0  0
   13.1296   12.1913   41.9400 C   0  0  0  0  0  0  0  0  0  0  0  0
   13.1117   13.3382   42.7870 C   0  0  0  0  0  0  0  0  0  0  0  0
   15.9677   12.9685   39.8255 O   0  0  0  0  0  0  0  0  0  0  0  0
   16.6011   13.6465   39.6949 H   0  0  0  0  0  0  0  0  0  0  0  0
   13.9312   15.5042   43.5999 C   0  0  0  0  0  0  0  0  0  0  0  0
   14.7840   15.3575   44.8620 C   0  0  0  0  0  0  0  0  0  0  0  0
   15.9755   15.8064   44.6970 O   0  0  0  0  0  0  0  0  0  0  0  0
   14.3611   14.7422   45.8834 O   0  0  0  0  0  0  0  0  0  0  0  0
   13.4720   14.4488   45.9188 H   0  0  0  0  0  0  0  0  0  0  0  0
 10 11  2  0  0  0
 10 12  1  0  0  0
 10  9  1  0  0  0
  9  1  1  0  0  0
  1  2  1  0  0  0
  1  6  2  0  0  0
  2  3  2  0  0  0
  3  4  1  0  0  0
  3  7  1  0  0  0
  4  5  2  0  0  0
  5  6  1  0  0  0
 12 13  1  0  0  0
  7  8  1  0  0  0
M  END
> <minimizedAffinity>
-5.80246

$$$$
