5IH9_6BF_A_401


 33 37  0  0  0  0  0  0  0  0999 V2000
   -4.9643   -9.3512    2.4546 C   0  0  0  0  0  0  0  0  0  0  0  0
   -5.6347   -8.5037    3.3081 C   0  0  0  0  0  0  0  0  0  0  0  0
   -5.5032   -7.2094    2.7238 C   0  0  0  0  0  0  0  0  0  0  0  0
   -4.7734   -7.2674    1.6183 N   0  0  0  0  0  0  0  0  0  0  0  0
   -4.4045   -8.5645    1.4762 N   0  0  0  0  0  0  0  0  0  0  0  0
   -7.6872   -8.0025    6.4258 C   0  0  0  0  0  0  0  0  0  0  0  0
   -7.1645  -10.2670    6.3248 C   0  0  0  0  0  0  0  0  0  0  0  0
   -6.4243  -10.1210    5.1215 C   0  0  0  0  0  0  0  0  0  0  0  0
   -7.7396   -9.2305    6.9739 N   0  0  0  0  0  0  0  0  0  0  0  0
   -6.3790   -8.8186    4.5392 C   0  0  0  0  0  0  0  0  0  0  0  0
   -6.9934   -7.7419    5.2446 C   0  0  0  0  0  0  0  0  0  0  0  0
   -5.7700  -11.1572    4.4690 O   0  0  0  0  0  0  0  0  0  0  0  0
   -4.8362  -12.0010    5.1620 C   0  0  0  0  0  0  0  0  0  0  0  0
   -3.3350  -13.8739    4.4203 C   0  0  0  0  0  0  0  0  0  0  0  0
   -2.1230  -14.3115    3.5596 C   0  0  0  0  0  0  0  0  0  0  0  0
   -1.3123  -11.9684    3.3972 C   0  0  0  0  0  0  0  0  0  0  0  0
   -2.4523  -11.4872    4.3294 C   0  0  0  0  0  0  0  0  0  0  0  0
   -3.7115  -12.3809    4.1872 C   0  0  0  0  0  0  0  0  0  0  0  0
   -0.9851  -13.3802    3.6608 N   0  0  0  0  0  0  0  0  0  0  0  0
   -0.6050  -13.4461    4.6051 H   0  0  0  0  0  0  0  0  0  0  0  0
   -1.8670  -10.3915   -0.5561 C   0  0  0  0  0  0  0  0  0  0  0  0
   -1.9899   -9.7749   -1.8337 C   0  0  0  0  0  0  0  0  0  0  0  0
   -2.9438   -8.7250   -1.9880 C   0  0  0  0  0  0  0  0  0  0  0  0
   -3.7476   -8.3603   -0.8824 C   0  0  0  0  0  0  0  0  0  0  0  0
   -3.6042   -8.9843    0.3863 C   0  0  0  0  0  0  0  0  0  0  0  0
   -2.6643  -10.0246    0.5447 C   0  0  0  0  0  0  0  0  0  0  0  0
   -1.2971   -9.7651   -4.2751 C   0  0  0  0  0  0  0  0  0  0  0  0
    0.0304   -9.9428   -5.0648 C   0  0  0  0  0  0  0  0  0  0  0  0
    0.6589  -11.8035   -3.6237 C   0  0  0  0  0  0  0  0  0  0  0  0
   -0.6066  -11.5953   -2.7718 C   0  0  0  0  0  0  0  0  0  0  0  0
    1.7087  -11.4994   -5.7138 C   0  0  0  0  0  0  0  0  0  0  0  0
   -1.1389  -10.2241   -2.8829 N   0  0  0  0  0  0  0  0  0  0  0  0
    0.4454  -11.3596   -5.0075 N   0  0  0  0  0  0  0  0  0  0  0  0
 31 33  1  0  0  0
 29 33  1  0  0  0
 29 30  1  0  0  0
 33 28  1  0  0  0
 28 27  1  0  0  0
 30 32  1  0  0  0
 32 27  1  0  0  0
 32 22  1  0  0  0
 21 22  2  0  0  0
 21 26  1  0  0  0
 22 23  1  0  0  0
 26 25  2  0  0  0
 23 24  2  0  0  0
 25 24  1  0  0  0
 25  5  1  0  0  0
  5  4  1  0  0  0
  5  1  1  0  0  0
  4  3  2  0  0  0
  1  2  2  0  0  0
  3  2  1  0  0  0
  2 10  1  0  0  0
 16 17  1  0  0  0
 16 19  1  0  0  0
 10 11  2  0  0  0
 10  8  1  0  0  0
 17 18  1  0  0  0
 19 15  1  0  0  0
 12  8  1  0  0  0
 12 13  1  0  0  0
 18 13  1  0  0  0
 18 14  1  0  0  0
 15 14  1  0  0  0
 11  6  1  0  0  0
  8  7  2  0  0  0
  6  9  2  0  0  0
  7  9  1  0  0  0
 19 20  1  0  0  0
M  END
> <minimizedAffinity>
-9.08559

$$$$
5IH9_6BF_A_401


 33 37  0  0  0  0  0  0  0  0999 V2000
   -5.1879   -9.3052    3.0734 C   0  0  0  0  0  0  0  0  0  0  0  0
   -5.9898   -8.4940    3.8449 C   0  0  0  0  0  0  0  0  0  0  0  0
   -6.0923   -7.2728    3.1154 C   0  0  0  0  0  0  0  0  0  0  0  0
   -5.3726   -7.3307    2.0033 N   0  0  0  0  0  0  0  0  0  0  0  0
   -4.7829   -8.5518    1.9974 N   0  0  0  0  0  0  0  0  0  0  0  0
   -7.8709   -7.9454    7.0612 C   0  0  0  0  0  0  0  0  0  0  0  0
   -7.3135  -10.2027    6.9878 C   0  0  0  0  0  0  0  0  0  0  0  0
   -6.6455  -10.0760    5.7408 C   0  0  0  0  0  0  0  0  0  0  0  0
   -7.8696   -9.1593    7.6423 N   0  0  0  0  0  0  0  0  0  0  0  0
   -6.6571   -8.7888    5.1242 C   0  0  0  0  0  0  0  0  0  0  0  0
   -7.2500   -7.7044    5.8360 C   0  0  0  0  0  0  0  0  0  0  0  0
   -6.0105  -11.1179    5.0785 O   0  0  0  0  0  0  0  0  0  0  0  0
   -4.9940  -11.9009    5.7249 C   0  0  0  0  0  0  0  0  0  0  0  0
   -3.6674  -13.8229    4.7989 C   0  0  0  0  0  0  0  0  0  0  0  0
   -2.5310  -14.2884    3.8538 C   0  0  0  0  0  0  0  0  0  0  0  0
   -1.5621  -12.0013    3.7897 C   0  0  0  0  0  0  0  0  0  0  0  0
   -2.6202  -11.5019    4.8051 C   0  0  0  0  0  0  0  0  0  0  0  0
   -3.9458  -12.2958    4.6739 C   0  0  0  0  0  0  0  0  0  0  0  0
   -1.3256  -13.4461    3.9524 N   0  0  0  0  0  0  0  0  0  0  0  0
   -0.9081  -13.5971    4.8708 H   0  0  0  0  0  0  0  0  0  0  0  0
   -3.1742   -8.7766   -1.3594 C   0  0  0  0  0  0  0  0  0  0  0  0
   -2.2102   -9.8080   -1.1734 C   0  0  0  0  0  0  0  0  0  0  0  0
   -2.1233  -10.4279    0.1088 C   0  0  0  0  0  0  0  0  0  0  0  0
   -2.9702   -9.9762    1.1482 C   0  0  0  0  0  0  0  0  0  0  0  0
   -3.9304   -8.9495    0.9394 C   0  0  0  0  0  0  0  0  0  0  0  0
   -4.0197   -8.3311   -0.3257 C   0  0  0  0  0  0  0  0  0  0  0  0
   -0.0050  -10.6305   -2.1226 C   0  0  0  0  0  0  0  0  0  0  0  0
    0.4427  -11.4753   -3.3487 C   0  0  0  0  0  0  0  0  0  0  0  0
   -1.1283  -10.2746   -4.7716 C   0  0  0  0  0  0  0  0  0  0  0  0
   -1.6508   -9.4833   -3.5586 C   0  0  0  0  0  0  0  0  0  0  0  0
    0.6540  -11.4953   -5.7184 C   0  0  0  0  0  0  0  0  0  0  0  0
   -1.4000  -10.1805   -2.2831 N   0  0  0  0  0  0  0  0  0  0  0  0
    0.2715  -10.6762   -4.5795 N   0  0  0  0  0  0  0  0  0  0  0  0
 31 33  1  0  0  0
 29 33  1  0  0  0
 29 30  1  0  0  0
 33 28  1  0  0  0
 28 27  1  0  0  0
 30 32  1  0  0  0
 32 27  1  0  0  0
 32 22  1  0  0  0
 21 22  2  0  0  0
 21 26  1  0  0  0
 22 23  1  0  0  0
 26 25  2  0  0  0
 23 24  2  0  0  0
 25 24  1  0  0  0
 25  5  1  0  0  0
  5  4  1  0  0  0
  5  1  1  0  0  0
  4  3  2  0  0  0
  1  2  2  0  0  0
  3  2  1  0  0  0
  2 10  1  0  0  0
 16 17  1  0  0  0
 16 19  1  0  0  0
 10 11  2  0  0  0
 10  8  1  0  0  0
 17 18  1  0  0  0
 19 15  1  0  0  0
 12  8  1  0  0  0
 12 13  1  0  0  0
 18 13  1  0  0  0
 18 14  1  0  0  0
 15 14  1  0  0  0
 11  6  1  0  0  0
  8  7  2  0  0  0
  6  9  2  0  0  0
  7  9  1  0  0  0
 19 20  1  0  0  0
M  END
> <minimizedAffinity>
-8.92250

$$$$
5IH9_6BF_A_401


 33 37  0  0  0  0  0  0  0  0999 V2000
   -4.4478   -9.9505    1.1779 C   0  0  0  0  0  0  0  0  0  0  0  0
   -5.0434   -9.1480    2.1252 C   0  0  0  0  0  0  0  0  0  0  0  0
   -4.6848   -7.8166    1.7611 C   0  0  0  0  0  0  0  0  0  0  0  0
   -3.8980   -7.8195    0.6938 N   0  0  0  0  0  0  0  0  0  0  0  0
   -3.7139   -9.1217    0.3631 N   0  0  0  0  0  0  0  0  0  0  0  0
   -8.0748   -9.3315    4.3525 C   0  0  0  0  0  0  0  0  0  0  0  0
   -6.3965  -10.5524    5.4034 C   0  0  0  0  0  0  0  0  0  0  0  0
   -5.4528  -10.2849    4.3763 C   0  0  0  0  0  0  0  0  0  0  0  0
   -7.6527  -10.0539    5.4066 N   0  0  0  0  0  0  0  0  0  0  0  0
   -5.9075   -9.5259    3.2562 C   0  0  0  0  0  0  0  0  0  0  0  0
   -7.2374   -9.0110    3.2846 C   0  0  0  0  0  0  0  0  0  0  0  0
   -4.1379  -10.7305    4.3797 O   0  0  0  0  0  0  0  0  0  0  0  0
   -3.8046  -12.0684    3.9758 C   0  0  0  0  0  0  0  0  0  0  0  0
   -2.9998  -12.2778    6.3464 C   0  0  0  0  0  0  0  0  0  0  0  0
   -2.8650  -13.1730    7.6041 C   0  0  0  0  0  0  0  0  0  0  0  0
   -3.2179  -15.2296    6.2552 C   0  0  0  0  0  0  0  0  0  0  0  0
   -3.2694  -14.3919    4.9530 C   0  0  0  0  0  0  0  0  0  0  0  0
   -3.8240  -12.9687    5.2202 C   0  0  0  0  0  0  0  0  0  0  0  0
   -2.4210  -14.5418    7.2855 N   0  0  0  0  0  0  0  0  0  0  0  0
   -1.4557  -14.4937    6.9594 H   0  0  0  0  0  0  0  0  0  0  0  0
   -2.1493   -9.1539   -3.0218 C   0  0  0  0  0  0  0  0  0  0  0  0
   -1.2988  -10.2943   -2.9599 C   0  0  0  0  0  0  0  0  0  0  0  0
   -1.2733  -11.0531   -1.7519 C   0  0  0  0  0  0  0  0  0  0  0  0
   -2.0644  -10.6289   -0.6583 C   0  0  0  0  0  0  0  0  0  0  0  0
   -2.9116   -9.4911   -0.7433 C   0  0  0  0  0  0  0  0  0  0  0  0
   -2.9396   -8.7354   -1.9345 C   0  0  0  0  0  0  0  0  0  0  0  0
   -0.5429   -9.7951   -5.3306 C   0  0  0  0  0  0  0  0  0  0  0  0
    0.7362  -10.0501   -6.1769 C   0  0  0  0  0  0  0  0  0  0  0  0
    0.8869  -12.3170   -5.2981 C   0  0  0  0  0  0  0  0  0  0  0  0
   -0.3270  -12.0637   -4.3855 C   0  0  0  0  0  0  0  0  0  0  0  0
    2.0449  -11.7142   -7.2625 C   0  0  0  0  0  0  0  0  0  0  0  0
   -0.5361  -10.6289   -4.1145 N   0  0  0  0  0  0  0  0  0  0  0  0
    0.8226  -11.4872   -6.5084 N   0  0  0  0  0  0  0  0  0  0  0  0
 31 33  1  0  0  0
 29 33  1  0  0  0
 29 30  1  0  0  0
 33 28  1  0  0  0
 28 27  1  0  0  0
 30 32  1  0  0  0
 32 27  1  0  0  0
 32 22  1  0  0  0
 21 22  2  0  0  0
 21 26  1  0  0  0
 22 23  1  0  0  0
 26 25  2  0  0  0
 23 24  2  0  0  0
 25 24  1  0  0  0
 25  5  1  0  0  0
  5  4  1  0  0  0
  5  1  1  0  0  0
  4  3  2  0  0  0
  1  2  2  0  0  0
  3  2  1  0  0  0
  2 10  1  0  0  0
 16 17  1  0  0  0
 16 19  1  0  0  0
 10 11  2  0  0  0
 10  8  1  0  0  0
 17 18  1  0  0  0
 19 15  1  0  0  0
 12  8  1  0  0  0
 12 13  1  0  0  0
 18 13  1  0  0  0
 18 14  1  0  0  0
 15 14  1  0  0  0
 11  6  1  0  0  0
  8  7  2  0  0  0
  6  9  2  0  0  0
  7  9  1  0  0  0
 19 20  1  0  0  0
M  END
> <minimizedAffinity>
-8.51238

$$$$
5IH9_6BF_A_401


 33 37  0  0  0  0  0  0  0  0999 V2000
   -4.9487   -9.6829    4.2422 C   0  0  0  0  0  0  0  0  0  0  0  0
   -6.2256   -9.2073    4.4413 C   0  0  0  0  0  0  0  0  0  0  0  0
   -6.8122   -9.1659    3.1421 C   0  0  0  0  0  0  0  0  0  0  0  0
   -5.9389   -9.5522    2.2222 N   0  0  0  0  0  0  0  0  0  0  0  0
   -4.7872   -9.8241    2.8844 N   0  0  0  0  0  0  0  0  0  0  0  0
   -7.9682   -7.1275    7.0531 C   0  0  0  0  0  0  0  0  0  0  0  0
   -7.6907   -9.2504    7.9629 C   0  0  0  0  0  0  0  0  0  0  0  0
   -7.0348   -9.7449    6.8043 C   0  0  0  0  0  0  0  0  0  0  0  0
   -8.1040   -7.9704    8.0934 N   0  0  0  0  0  0  0  0  0  0  0  0
   -6.9008   -8.8501    5.7004 C   0  0  0  0  0  0  0  0  0  0  0  0
   -7.3446   -7.5045    5.8642 C   0  0  0  0  0  0  0  0  0  0  0  0
   -6.5431  -11.0362    6.6687 O   0  0  0  0  0  0  0  0  0  0  0  0
   -6.5646  -11.9600    7.7689 C   0  0  0  0  0  0  0  0  0  0  0  0
   -4.4540  -12.4221    9.0508 C   0  0  0  0  0  0  0  0  0  0  0  0
   -3.0573  -13.0932    9.0660 C   0  0  0  0  0  0  0  0  0  0  0  0
   -3.0257  -13.2282    6.5851 C   0  0  0  0  0  0  0  0  0  0  0  0
   -4.3789  -12.4779    6.5061 C   0  0  0  0  0  0  0  0  0  0  0  0
   -5.2522  -12.7580    7.7566 C   0  0  0  0  0  0  0  0  0  0  0  0
   -2.3040  -12.8716    7.8187 N   0  0  0  0  0  0  0  0  0  0  0  0
   -2.0596  -11.8826    7.7679 H   0  0  0  0  0  0  0  0  0  0  0  0
   -1.5816  -11.5589    2.0965 C   0  0  0  0  0  0  0  0  0  0  0  0
   -1.2972  -11.1023    0.7781 C   0  0  0  0  0  0  0  0  0  0  0  0
   -2.2096  -10.1909    0.1675 C   0  0  0  0  0  0  0  0  0  0  0  0
   -3.3701   -9.8027    0.8776 C   0  0  0  0  0  0  0  0  0  0  0  0
   -3.6317  -10.2654    2.1956 C   0  0  0  0  0  0  0  0  0  0  0  0
   -2.7344  -11.1683    2.8040 C   0  0  0  0  0  0  0  0  0  0  0  0
    0.8679  -12.4246    0.8425 C   0  0  0  0  0  0  0  0  0  0  0  0
    1.7336  -13.2092   -0.1834 C   0  0  0  0  0  0  0  0  0  0  0  0
    1.4362  -11.4307   -1.8212 C   0  0  0  0  0  0  0  0  0  0  0  0
    0.5059  -10.6727   -0.8565 C   0  0  0  0  0  0  0  0  0  0  0  0
    3.1767  -13.0038   -2.0638 C   0  0  0  0  0  0  0  0  0  0  0  0
   -0.1062  -11.5624    0.1484 N   0  0  0  0  0  0  0  0  0  0  0  0
    2.4066  -12.2524   -1.0857 N   0  0  0  0  0  0  0  0  0  0  0  0
 31 33  1  0  0  0
 29 33  1  0  0  0
 29 30  1  0  0  0
 33 28  1  0  0  0
 28 27  1  0  0  0
 30 32  1  0  0  0
 32 27  1  0  0  0
 32 22  1  0  0  0
 21 22  2  0  0  0
 21 26  1  0  0  0
 22 23  1  0  0  0
 26 25  2  0  0  0
 23 24  2  0  0  0
 25 24  1  0  0  0
 25  5  1  0  0  0
  5  4  1  0  0  0
  5  1  1  0  0  0
  4  3  2  0  0  0
  1  2  2  0  0  0
  3  2  1  0  0  0
  2 10  1  0  0  0
 16 17  1  0  0  0
 16 19  1  0  0  0
 10 11  2  0  0  0
 10  8  1  0  0  0
 17 18  1  0  0  0
 19 15  1  0  0  0
 12  8  1  0  0  0
 12 13  1  0  0  0
 18 13  1  0  0  0
 18 14  1  0  0  0
 15 14  1  0  0  0
 11  6  1  0  0  0
  8  7  2  0  0  0
  6  9  2  0  0  0
  7  9  1  0  0  0
 19 20  1  0  0  0
M  END
> <minimizedAffinity>
-8.48666

$$$$
5IH9_6BF_A_401


 33 37  0  0  0  0  0  0  0  0999 V2000
   -4.9640  -10.3965    4.8559 C   0  0  0  0  0  0  0  0  0  0  0  0
   -5.9837   -9.5089    4.5940 C   0  0  0  0  0  0  0  0  0  0  0  0
   -6.1537   -9.5471    3.1786 C   0  0  0  0  0  0  0  0  0  0  0  0
   -5.2738  -10.3696    2.6240 N   0  0  0  0  0  0  0  0  0  0  0  0
   -4.5167  -10.8541    3.6393 N   0  0  0  0  0  0  0  0  0  0  0  0
   -7.6118   -6.5116    6.1906 C   0  0  0  0  0  0  0  0  0  0  0  0
   -8.1065   -8.3407    7.5400 C   0  0  0  0  0  0  0  0  0  0  0  0
   -7.3802   -9.2417    6.7167 C   0  0  0  0  0  0  0  0  0  0  0  0
   -8.1810   -7.0124    7.3025 N   0  0  0  0  0  0  0  0  0  0  0  0
   -6.7857   -8.7077    5.5340 C   0  0  0  0  0  0  0  0  0  0  0  0
   -6.8784   -7.3027    5.3069 C   0  0  0  0  0  0  0  0  0  0  0  0
   -7.2339  -10.5984    6.9725 O   0  0  0  0  0  0  0  0  0  0  0  0
   -6.8745  -11.0748    8.2794 C   0  0  0  0  0  0  0  0  0  0  0  0
   -7.1912  -13.0896    6.8126 C   0  0  0  0  0  0  0  0  0  0  0  0
   -7.4069  -14.6219    6.7296 C   0  0  0  0  0  0  0  0  0  0  0  0
   -8.1790  -14.7045    9.0899 C   0  0  0  0  0  0  0  0  0  0  0  0
   -8.0698  -13.1631    9.2015 C   0  0  0  0  0  0  0  0  0  0  0  0
   -6.9567  -12.6086    8.2751 C   0  0  0  0  0  0  0  0  0  0  0  0
   -8.4100  -15.1102    7.6928 N   0  0  0  0  0  0  0  0  0  0  0  0
   -9.3225  -14.7554    7.4068 H   0  0  0  0  0  0  0  0  0  0  0  0
   -2.5328  -14.0084    3.4932 C   0  0  0  0  0  0  0  0  0  0  0  0
   -1.3032  -13.5756    2.9199 C   0  0  0  0  0  0  0  0  0  0  0  0
   -1.1601  -12.1944    2.5920 C   0  0  0  0  0  0  0  0  0  0  0  0
   -2.2484  -11.3191    2.8179 C   0  0  0  0  0  0  0  0  0  0  0  0
   -3.4650  -11.7705    3.3973 C   0  0  0  0  0  0  0  0  0  0  0  0
   -3.6135  -13.1355    3.7218 C   0  0  0  0  0  0  0  0  0  0  0  0
   -0.2644  -15.8333    3.4341 C   0  0  0  0  0  0  0  0  0  0  0  0
    0.5941  -16.8746    2.6621 C   0  0  0  0  0  0  0  0  0  0  0  0
    1.9593  -15.0849    1.7309 C   0  0  0  0  0  0  0  0  0  0  0  0
    1.0734  -14.0279    2.4155 C   0  0  0  0  0  0  0  0  0  0  0  0
    2.7377  -17.3114    1.7267 C   0  0  0  0  0  0  0  0  0  0  0  0
   -0.2747  -14.5404    2.7252 N   0  0  0  0  0  0  0  0  0  0  0  0
    1.9618  -16.3445    2.4867 N   0  0  0  0  0  0  0  0  0  0  0  0
 31 33  1  0  0  0
 29 33  1  0  0  0
 29 30  1  0  0  0
 33 28  1  0  0  0
 28 27  1  0  0  0
 30 32  1  0  0  0
 32 27  1  0  0  0
 32 22  1  0  0  0
 21 22  2  0  0  0
 21 26  1  0  0  0
 22 23  1  0  0  0
 26 25  2  0  0  0
 23 24  2  0  0  0
 25 24  1  0  0  0
 25  5  1  0  0  0
  5  4  1  0  0  0
  5  1  1  0  0  0
  4  3  2  0  0  0
  1  2  2  0  0  0
  3  2  1  0  0  0
  2 10  1  0  0  0
 16 17  1  0  0  0
 16 19  1  0  0  0
 10 11  2  0  0  0
 10  8  1  0  0  0
 17 18  1  0  0  0
 19 15  1  0  0  0
 12  8  1  0  0  0
 12 13  1  0  0  0
 18 13  1  0  0  0
 18 14  1  0  0  0
 15 14  1  0  0  0
 11  6  1  0  0  0
  8  7  2  0  0  0
  6  9  2  0  0  0
  7  9  1  0  0  0
 19 20  1  0  0  0
M  END
> <minimizedAffinity>
-8.37400

$$$$
5IH9_6BF_A_401


 33 37  0  0  0  0  0  0  0  0999 V2000
   -4.4185  -12.5791    5.6033 C   0  0  0  0  0  0  0  0  0  0  0  0
   -4.4254  -12.7950    6.9632 C   0  0  0  0  0  0  0  0  0  0  0  0
   -3.1066  -12.4684    7.3967 C   0  0  0  0  0  0  0  0  0  0  0  0
   -2.3490  -12.1180    6.3665 N   0  0  0  0  0  0  0  0  0  0  0  0
   -3.1329  -12.2288    5.2655 N   0  0  0  0  0  0  0  0  0  0  0  0
   -6.5789  -15.0117    9.1155 C   0  0  0  0  0  0  0  0  0  0  0  0
   -7.6653  -12.9599    8.9696 C   0  0  0  0  0  0  0  0  0  0  0  0
   -6.6620  -12.4014    8.1338 C   0  0  0  0  0  0  0  0  0  0  0  0
   -7.6403  -14.2378    9.4085 N   0  0  0  0  0  0  0  0  0  0  0  0
   -5.5341  -13.2228    7.8330 C   0  0  0  0  0  0  0  0  0  0  0  0
   -5.5324  -14.5678    8.3078 C   0  0  0  0  0  0  0  0  0  0  0  0
   -6.6953  -11.1134    7.6167 O   0  0  0  0  0  0  0  0  0  0  0  0
   -7.4733  -10.7997    6.4502 C   0  0  0  0  0  0  0  0  0  0  0  0
   -7.6093   -8.3243    6.0437 C   0  0  0  0  0  0  0  0  0  0  0  0
   -7.0766   -7.1003    5.2567 C   0  0  0  0  0  0  0  0  0  0  0  0
   -6.1198   -8.5695    3.4960 C   0  0  0  0  0  0  0  0  0  0  0  0
   -6.7083   -9.8222    4.1920 C   0  0  0  0  0  0  0  0  0  0  0  0
   -6.8065   -9.6204    5.7264 C   0  0  0  0  0  0  0  0  0  0  0  0
   -6.9166   -7.3729    3.8171 N   0  0  0  0  0  0  0  0  0  0  0  0
   -7.8452   -7.4929    3.4125 H   0  0  0  0  0  0  0  0  0  0  0  0
   -2.7675  -10.7338    1.8688 C   0  0  0  0  0  0  0  0  0  0  0  0
   -1.6030  -11.3822    1.3677 C   0  0  0  0  0  0  0  0  0  0  0  0
   -0.9512  -12.3392    2.2015 C   0  0  0  0  0  0  0  0  0  0  0  0
   -1.4645  -12.5829    3.4972 C   0  0  0  0  0  0  0  0  0  0  0  0
   -2.6323  -11.9294    3.9755 C   0  0  0  0  0  0  0  0  0  0  0  0
   -3.2800  -10.9805    3.1565 C   0  0  0  0  0  0  0  0  0  0  0  0
    0.2568  -10.8298   -0.2683 C   0  0  0  0  0  0  0  0  0  0  0  0
    0.5171  -11.0479   -1.7856 C   0  0  0  0  0  0  0  0  0  0  0  0
   -1.7809  -10.4150   -2.2886 C   0  0  0  0  0  0  0  0  0  0  0  0
   -2.0903  -10.2743   -0.7869 C   0  0  0  0  0  0  0  0  0  0  0  0
   -0.1365  -10.3993   -3.9794 C   0  0  0  0  0  0  0  0  0  0  0  0
   -1.1642  -11.0570    0.0530 N   0  0  0  0  0  0  0  0  0  0  0  0
   -0.3623  -10.1519   -2.5645 N   0  0  0  0  0  0  0  0  0  0  0  0
 31 33  1  0  0  0
 29 33  1  0  0  0
 29 30  1  0  0  0
 33 28  1  0  0  0
 28 27  1  0  0  0
 30 32  1  0  0  0
 32 27  1  0  0  0
 32 22  1  0  0  0
 21 22  2  0  0  0
 21 26  1  0  0  0
 22 23  1  0  0  0
 26 25  2  0  0  0
 23 24  2  0  0  0
 25 24  1  0  0  0
 25  5  1  0  0  0
  5  4  1  0  0  0
  5  1  1  0  0  0
  4  3  2  0  0  0
  1  2  2  0  0  0
  3  2  1  0  0  0
  2 10  1  0  0  0
 16 17  1  0  0  0
 16 19  1  0  0  0
 10 11  2  0  0  0
 10  8  1  0  0  0
 17 18  1  0  0  0
 19 15  1  0  0  0
 12  8  1  0  0  0
 12 13  1  0  0  0
 18 13  1  0  0  0
 18 14  1  0  0  0
 15 14  1  0  0  0
 11  6  1  0  0  0
  8  7  2  0  0  0
  6  9  2  0  0  0
  7  9  1  0  0  0
 19 20  1  0  0  0
M  END
> <minimizedAffinity>
-8.31284

$$$$
5IH9_6BF_A_401


 33 37  0  0  0  0  0  0  0  0999 V2000
   -2.2230  -10.0567   -0.9176 C   0  0  0  0  0  0  0  0  0  0  0  0
   -1.7831   -9.8104   -2.1990 C   0  0  0  0  0  0  0  0  0  0  0  0
   -2.4543   -8.6171   -2.5981 C   0  0  0  0  0  0  0  0  0  0  0  0
   -3.2691   -8.1962   -1.6404 N   0  0  0  0  0  0  0  0  0  0  0  0
   -3.1651   -9.0971   -0.6323 N   0  0  0  0  0  0  0  0  0  0  0  0
   -0.1707  -11.4379   -5.1882 C   0  0  0  0  0  0  0  0  0  0  0  0
    1.1802  -11.9155   -3.3556 C   0  0  0  0  0  0  0  0  0  0  0  0
    0.3355  -11.2155   -2.4536 C   0  0  0  0  0  0  0  0  0  0  0  0
    0.9084  -12.0546   -4.6722 N   0  0  0  0  0  0  0  0  0  0  0  0
   -0.8029  -10.5557   -3.0068 C   0  0  0  0  0  0  0  0  0  0  0  0
   -1.0675  -10.7187   -4.3988 C   0  0  0  0  0  0  0  0  0  0  0  0
    0.5571  -11.1119   -1.0869 O   0  0  0  0  0  0  0  0  0  0  0  0
    0.9249  -12.2589   -0.3037 C   0  0  0  0  0  0  0  0  0  0  0  0
   -0.1583  -11.2586    1.7305 C   0  0  0  0  0  0  0  0  0  0  0  0
   -1.1385  -11.4523    2.9150 C   0  0  0  0  0  0  0  0  0  0  0  0
   -1.0104  -13.9243    2.6987 C   0  0  0  0  0  0  0  0  0  0  0  0
    0.0428  -13.7920    1.5703 C   0  0  0  0  0  0  0  0  0  0  0  0
   -0.1550  -12.4811    0.7658 C   0  0  0  0  0  0  0  0  0  0  0  0
   -0.9691  -12.7518    3.5894 N   0  0  0  0  0  0  0  0  0  0  0  0
   -0.0664  -12.7466    4.0645 H   0  0  0  0  0  0  0  0  0  0  0  0
   -5.0418   -9.8974    2.4892 C   0  0  0  0  0  0  0  0  0  0  0  0
   -5.4491   -8.6113    2.9451 C   0  0  0  0  0  0  0  0  0  0  0  0
   -5.0804   -7.4719    2.1695 C   0  0  0  0  0  0  0  0  0  0  0  0
   -4.3032   -7.6586    1.0022 C   0  0  0  0  0  0  0  0  0  0  0  0
   -3.9127   -8.9520    0.5611 C   0  0  0  0  0  0  0  0  0  0  0  0
   -4.2723  -10.0824    1.3250 C   0  0  0  0  0  0  0  0  0  0  0  0
   -6.8040   -9.7273    4.7778 C   0  0  0  0  0  0  0  0  0  0  0  0
   -7.0911   -9.4585    6.2821 C   0  0  0  0  0  0  0  0  0  0  0  0
   -7.3824   -7.0845    5.8203 C   0  0  0  0  0  0  0  0  0  0  0  0
   -7.0179   -7.3086    4.3413 C   0  0  0  0  0  0  0  0  0  0  0  0
   -8.2086   -8.0264    7.8187 C   0  0  0  0  0  0  0  0  0  0  0  0
   -6.2210   -8.5333    4.1387 N   0  0  0  0  0  0  0  0  0  0  0  0
   -7.9854   -8.2891    6.4060 N   0  0  0  0  0  0  0  0  0  0  0  0
 31 33  1  0  0  0
 29 33  1  0  0  0
 29 30  1  0  0  0
 33 28  1  0  0  0
 28 27  1  0  0  0
 30 32  1  0  0  0
 32 27  1  0  0  0
 32 22  1  0  0  0
 21 22  2  0  0  0
 21 26  1  0  0  0
 22 23  1  0  0  0
 26 25  2  0  0  0
 23 24  2  0  0  0
 25 24  1  0  0  0
 25  5  1  0  0  0
  5  4  1  0  0  0
  5  1  1  0  0  0
  4  3  2  0  0  0
  1  2  2  0  0  0
  3  2  1  0  0  0
  2 10  1  0  0  0
 16 17  1  0  0  0
 16 19  1  0  0  0
 10 11  2  0  0  0
 10  8  1  0  0  0
 17 18  1  0  0  0
 19 15  1  0  0  0
 12  8  1  0  0  0
 12 13  1  0  0  0
 18 13  1  0  0  0
 18 14  1  0  0  0
 15 14  1  0  0  0
 11  6  1  0  0  0
  8  7  2  0  0  0
  6  9  2  0  0  0
  7  9  1  0  0  0
 19 20  1  0  0  0
M  END
> <minimizedAffinity>
-8.28663

$$$$
5IH9_6BF_A_401


 33 37  0  0  0  0  0  0  0  0999 V2000
   -4.6312  -13.3561    5.1485 C   0  0  0  0  0  0  0  0  0  0  0  0
   -5.0365  -13.3837    6.4643 C   0  0  0  0  0  0  0  0  0  0  0  0
   -3.9537  -12.8146    7.1974 C   0  0  0  0  0  0  0  0  0  0  0  0
   -2.9526  -12.5022    6.3860 N   0  0  0  0  0  0  0  0  0  0  0  0
   -3.3441  -12.8735    5.1419 N   0  0  0  0  0  0  0  0  0  0  0  0
   -7.5707  -15.6437    8.0934 C   0  0  0  0  0  0  0  0  0  0  0  0
   -8.6779  -13.6675    7.5641 C   0  0  0  0  0  0  0  0  0  0  0  0
   -7.5183  -13.0815    6.9905 C   0  0  0  0  0  0  0  0  0  0  0  0
   -8.7076  -14.9245    8.0598 N   0  0  0  0  0  0  0  0  0  0  0  0
   -6.3128  -13.8445    7.0364 C   0  0  0  0  0  0  0  0  0  0  0  0
   -6.3713  -15.1683    7.5641 C   0  0  0  0  0  0  0  0  0  0  0  0
   -7.4764  -11.8179    6.4168 O   0  0  0  0  0  0  0  0  0  0  0  0
   -7.2372  -10.6465    7.2134 C   0  0  0  0  0  0  0  0  0  0  0  0
   -7.6435   -8.3423    6.2984 C   0  0  0  0  0  0  0  0  0  0  0  0
   -7.2008   -7.2347    5.3091 C   0  0  0  0  0  0  0  0  0  0  0  0
   -5.9213   -8.8736    3.9487 C   0  0  0  0  0  0  0  0  0  0  0  0
   -6.4078  -10.0346    4.8517 C   0  0  0  0  0  0  0  0  0  0  0  0
   -6.6619   -9.5512    6.3030 C   0  0  0  0  0  0  0  0  0  0  0  0
   -6.8850   -7.7597    3.9686 N   0  0  0  0  0  0  0  0  0  0  0  0
   -7.7532   -8.0844    3.5431 H   0  0  0  0  0  0  0  0  0  0  0  0
   -0.9958  -13.5445    2.3238 C   0  0  0  0  0  0  0  0  0  0  0  0
   -0.7851  -12.2458    1.7791 C   0  0  0  0  0  0  0  0  0  0  0  0
   -1.4490  -11.1410    2.3910 C   0  0  0  0  0  0  0  0  0  0  0  0
   -2.3099  -11.3797    3.4880 C   0  0  0  0  0  0  0  0  0  0  0  0
   -2.5012  -12.6834    4.0204 C   0  0  0  0  0  0  0  0  0  0  0  0
   -1.8491  -13.7803    3.4184 C   0  0  0  0  0  0  0  0  0  0  0  0
    1.4111  -12.7783    0.6243 C   0  0  0  0  0  0  0  0  0  0  0  0
    1.8953  -12.9407   -0.8443 C   0  0  0  0  0  0  0  0  0  0  0  0
    0.6131  -10.9769   -1.5027 C   0  0  0  0  0  0  0  0  0  0  0  0
    0.0508  -10.8428   -0.0757 C   0  0  0  0  0  0  0  0  0  0  0  0
    2.3498  -11.7896   -2.8762 C   0  0  0  0  0  0  0  0  0  0  0  0
    0.0941  -12.1166    0.6669 N   0  0  0  0  0  0  0  0  0  0  0  0
    1.9366  -11.6141   -1.4932 N   0  0  0  0  0  0  0  0  0  0  0  0
 31 33  1  0  0  0
 29 33  1  0  0  0
 29 30  1  0  0  0
 33 28  1  0  0  0
 28 27  1  0  0  0
 30 32  1  0  0  0
 32 27  1  0  0  0
 32 22  1  0  0  0
 21 22  2  0  0  0
 21 26  1  0  0  0
 22 23  1  0  0  0
 26 25  2  0  0  0
 23 24  2  0  0  0
 25 24  1  0  0  0
 25  5  1  0  0  0
  5  4  1  0  0  0
  5  1  1  0  0  0
  4  3  2  0  0  0
  1  2  2  0  0  0
  3  2  1  0  0  0
  2 10  1  0  0  0
 16 17  1  0  0  0
 16 19  1  0  0  0
 10 11  2  0  0  0
 10  8  1  0  0  0
 17 18  1  0  0  0
 19 15  1  0  0  0
 12  8  1  0  0  0
 12 13  1  0  0  0
 18 13  1  0  0  0
 18 14  1  0  0  0
 15 14  1  0  0  0
 11  6  1  0  0  0
  8  7  2  0  0  0
  6  9  2  0  0  0
  7  9  1  0  0  0
 19 20  1  0  0  0
M  END
> <minimizedAffinity>
-8.22236

$$$$
5IH9_6BF_A_401


 33 37  0  0  0  0  0  0  0  0999 V2000
   -1.6044  -13.7777    2.3453 C   0  0  0  0  0  0  0  0  0  0  0  0
   -0.5438  -13.1499    1.7312 C   0  0  0  0  0  0  0  0  0  0  0  0
   -0.2221  -12.0503    2.5804 C   0  0  0  0  0  0  0  0  0  0  0  0
   -1.0537  -11.9970    3.6118 N   0  0  0  0  0  0  0  0  0  0  0  0
   -1.9267  -13.0216    3.4472 N   0  0  0  0  0  0  0  0  0  0  0  0
    1.6583  -15.0743   -0.6418 C   0  0  0  0  0  0  0  0  0  0  0  0
    0.9523  -13.1709   -1.7775 C   0  0  0  0  0  0  0  0  0  0  0  0
    0.2040  -12.6935   -0.6688 C   0  0  0  0  0  0  0  0  0  0  0  0
    1.6880  -14.3041   -1.7449 N   0  0  0  0  0  0  0  0  0  0  0  0
    0.1682  -13.5180    0.4958 C   0  0  0  0  0  0  0  0  0  0  0  0
    0.9538  -14.7085    0.5046 C   0  0  0  0  0  0  0  0  0  0  0  0
   -0.5077  -11.5015   -0.6539 O   0  0  0  0  0  0  0  0  0  0  0  0
   -1.4135  -11.1623   -1.7162 C   0  0  0  0  0  0  0  0  0  0  0  0
   -2.7320   -9.0363   -1.9468 C   0  0  0  0  0  0  0  0  0  0  0  0
   -3.8041   -8.0941   -1.3432 C   0  0  0  0  0  0  0  0  0  0  0  0
   -3.5191   -9.1084    0.9071 C   0  0  0  0  0  0  0  0  0  0  0  0
   -2.3763  -10.0110    0.3785 C   0  0  0  0  0  0  0  0  0  0  0  0
   -2.5726  -10.3478   -1.1224 C   0  0  0  0  0  0  0  0  0  0  0  0
   -3.6248   -7.8783    0.1037 N   0  0  0  0  0  0  0  0  0  0  0  0
   -2.7710   -7.3370    0.2397 H   0  0  0  0  0  0  0  0  0  0  0  0
   -4.9640  -12.5496    5.5586 C   0  0  0  0  0  0  0  0  0  0  0  0
   -5.0217  -13.7663    6.2961 C   0  0  0  0  0  0  0  0  0  0  0  0
   -4.0074  -14.7434    6.0674 C   0  0  0  0  0  0  0  0  0  0  0  0
   -3.0080  -14.4817    5.1009 C   0  0  0  0  0  0  0  0  0  0  0  0
   -2.9650  -13.2576    4.3802 C   0  0  0  0  0  0  0  0  0  0  0  0
   -3.9663  -12.2883    4.6003 C   0  0  0  0  0  0  0  0  0  0  0  0
   -6.2699  -13.0121    8.3730 C   0  0  0  0  0  0  0  0  0  0  0  0
   -7.7372  -13.0733    8.8837 C   0  0  0  0  0  0  0  0  0  0  0  0
   -7.9283  -15.3759    8.1119 C   0  0  0  0  0  0  0  0  0  0  0  0
   -6.5078  -15.3151    7.5210 C   0  0  0  0  0  0  0  0  0  0  0  0
   -9.4529  -14.5109    9.6900 C   0  0  0  0  0  0  0  0  0  0  0  0
   -6.0759  -13.9333    7.2382 N   0  0  0  0  0  0  0  0  0  0  0  0
   -8.0659  -14.4647    9.2558 N   0  0  0  0  0  0  0  0  0  0  0  0
 31 33  1  0  0  0
 29 33  1  0  0  0
 29 30  1  0  0  0
 33 28  1  0  0  0
 28 27  1  0  0  0
 30 32  1  0  0  0
 32 27  1  0  0  0
 32 22  1  0  0  0
 21 22  2  0  0  0
 21 26  1  0  0  0
 22 23  1  0  0  0
 26 25  2  0  0  0
 23 24  2  0  0  0
 25 24  1  0  0  0
 25  5  1  0  0  0
  5  4  1  0  0  0
  5  1  1  0  0  0
  4  3  2  0  0  0
  1  2  2  0  0  0
  3  2  1  0  0  0
  2 10  1  0  0  0
 16 17  1  0  0  0
 16 19  1  0  0  0
 10 11  2  0  0  0
 10  8  1  0  0  0
 17 18  1  0  0  0
 19 15  1  0  0  0
 12  8  1  0  0  0
 12 13  1  0  0  0
 18 13  1  0  0  0
 18 14  1  0  0  0
 15 14  1  0  0  0
 11  6  1  0  0  0
  8  7  2  0  0  0
  6  9  2  0  0  0
  7  9  1  0  0  0
 19 20  1  0  0  0
M  END
> <minimizedAffinity>
-8.02966

$$$$
5IH9_6BF_A_401


 33 37  0  0  0  0  0  0  0  0999 V2000
   -2.1784  -10.3842   -0.5983 C   0  0  0  0  0  0  0  0  0  0  0  0
   -1.9615   -9.7562   -1.8045 C   0  0  0  0  0  0  0  0  0  0  0  0
   -2.8473   -8.6385   -1.8046 C   0  0  0  0  0  0  0  0  0  0  0  0
   -3.5730   -8.6168   -0.6951 N   0  0  0  0  0  0  0  0  0  0  0  0
   -3.2004   -9.7057    0.0220 N   0  0  0  0  0  0  0  0  0  0  0  0
   -0.4545  -10.0309   -5.2450 C   0  0  0  0  0  0  0  0  0  0  0  0
    0.9800  -11.1485   -3.7942 C   0  0  0  0  0  0  0  0  0  0  0  0
    0.1645  -10.8843   -2.6618 C   0  0  0  0  0  0  0  0  0  0  0  0
    0.6544  -10.7679   -5.0494 N   0  0  0  0  0  0  0  0  0  0  0  0
   -1.0059  -10.0949   -2.8725 C   0  0  0  0  0  0  0  0  0  0  0  0
   -1.3272   -9.7065   -4.2068 C   0  0  0  0  0  0  0  0  0  0  0  0
    0.4425  -11.3187   -1.3728 O   0  0  0  0  0  0  0  0  0  0  0  0
    0.2517  -12.6910   -0.9926 C   0  0  0  0  0  0  0  0  0  0  0  0
    1.6824  -13.0367    1.0433 C   0  0  0  0  0  0  0  0  0  0  0  0
    1.7389  -13.2510    2.5770 C   0  0  0  0  0  0  0  0  0  0  0  0
   -0.6392  -13.9692    2.6276 C   0  0  0  0  0  0  0  0  0  0  0  0
   -0.7266  -13.8607    1.0847 C   0  0  0  0  0  0  0  0  0  0  0  0
    0.2326  -12.7701    0.5413 C   0  0  0  0  0  0  0  0  0  0  0  0
    0.7464  -14.2309    3.0534 N   0  0  0  0  0  0  0  0  0  0  0  0
    1.0166  -15.1505    2.7043 H   0  0  0  0  0  0  0  0  0  0  0  0
   -3.7574  -11.1088    3.4319 C   0  0  0  0  0  0  0  0  0  0  0  0
   -5.0270  -10.5699    3.7859 C   0  0  0  0  0  0  0  0  0  0  0  0
   -5.6905   -9.7292    2.8431 C   0  0  0  0  0  0  0  0  0  0  0  0
   -5.0526   -9.4394    1.6140 C   0  0  0  0  0  0  0  0  0  0  0  0
   -3.7877   -9.9931    1.2777 C   0  0  0  0  0  0  0  0  0  0  0  0
   -3.1256  -10.8234    2.2067 C   0  0  0  0  0  0  0  0  0  0  0  0
   -6.3781   -9.9692    5.8484 C   0  0  0  0  0  0  0  0  0  0  0  0
   -7.2861  -10.7305    6.8552 C   0  0  0  0  0  0  0  0  0  0  0  0
   -5.6888  -12.5680    6.9332 C   0  0  0  0  0  0  0  0  0  0  0  0
   -4.8126  -11.8758    5.8730 C   0  0  0  0  0  0  0  0  0  0  0  0
   -7.3137  -12.3206    8.6247 C   0  0  0  0  0  0  0  0  0  0  0  0
   -5.5763  -10.9168    5.0527 N   0  0  0  0  0  0  0  0  0  0  0  0
   -6.4459  -11.5849    7.7193 N   0  0  0  0  0  0  0  0  0  0  0  0
 31 33  1  0  0  0
 29 33  1  0  0  0
 29 30  1  0  0  0
 33 28  1  0  0  0
 28 27  1  0  0  0
 30 32  1  0  0  0
 32 27  1  0  0  0
 32 22  1  0  0  0
 21 22  2  0  0  0
 21 26  1  0  0  0
 22 23  1  0  0  0
 26 25  2  0  0  0
 23 24  2  0  0  0
 25 24  1  0  0  0
 25  5  1  0  0  0
  5  4  1  0  0  0
  5  1  1  0  0  0
  4  3  2  0  0  0
  1  2  2  0  0  0
  3  2  1  0  0  0
  2 10  1  0  0  0
 16 17  1  0  0  0
 16 19  1  0  0  0
 10 11  2  0  0  0
 10  8  1  0  0  0
 17 18  1  0  0  0
 19 15  1  0  0  0
 12  8  1  0  0  0
 12 13  1  0  0  0
 18 13  1  0  0  0
 18 14  1  0  0  0
 15 14  1  0  0  0
 11  6  1  0  0  0
  8  7  2  0  0  0
  6  9  2  0  0  0
  7  9  1  0  0  0
 19 20  1  0  0  0
M  END
> <minimizedAffinity>
-7.80505

$$$$
