4BUQ_KGM_A_201


 23 23  0  0  0  0  0  0  0  0999 V2000
   20.4506   -5.9304    7.3640 C   0  0  0  0  0  0  0  0  0  0  0  0
   19.1990   -5.2191    7.2326 O   0  0  0  0  0  0  0  0  0  0  0  0
   20.4822   -7.0520    6.3742 C   0  0  0  0  0  0  0  0  0  0  0  0
   21.7324   -7.7915    6.5589 O   0  0  0  0  0  0  0  0  0  0  0  0
   19.3136   -7.9832    6.6542 C   0  0  0  0  0  0  0  0  0  0  0  0
   19.3383   -9.0210    5.6697 O   0  0  0  0  0  0  0  0  0  0  0  0
   17.9979   -7.2101    6.5278 C   0  0  0  0  0  0  0  0  0  0  0  0
   17.8916   -6.7027    5.2260 O   0  0  0  0  0  0  0  0  0  0  0  0
   18.0155   -6.0483    7.4748 C   0  0  0  0  0  0  0  0  0  0  0  0
   21.7779   -8.1278    7.4676 H   0  0  0  0  0  0  0  0  0  0  0  0
   19.2685   -8.6292    4.7851 H   0  0  0  0  0  0  0  0  0  0  0  0
   18.6424   -6.1156    5.0455 H   0  0  0  0  0  0  0  0  0  0  0  0
   21.7168   -4.7311    5.6803 O   0  0  0  0  0  0  0  0  0  0  0  0
   21.5983   -4.9481    7.1082 C   0  0  0  0  0  0  0  0  0  0  0  0
   22.4414   -4.1099    5.5066 H   0  0  0  0  0  0  0  0  0  0  0  0
   18.1198   -6.5468    8.8193 O   0  0  0  0  0  0  0  0  0  0  0  0
   17.8849   -5.5738    9.8519 C   0  0  0  0  0  0  0  0  0  0  0  0
   18.9747   -5.7911   10.9093 C   0  0  0  0  0  0  0  0  0  0  0  0
   20.0431   -4.7233   10.7410 C   0  0  0  0  0  0  0  0  0  0  0  0
   19.4176   -3.4244   10.2444 C   0  0  0  0  0  0  0  0  0  0  0  0
   20.0493   -2.2473   11.0003 C   0  0  0  0  0  0  0  0  0  0  0  0
   20.9459   -1.6702   13.2964 C   0  0  0  0  0  0  0  0  0  0  0  0
   19.9280   -2.4978   12.5046 C   0  0  0  0  0  0  0  0  0  0  0  0
 22 23  1  0  0  0
 23 21  1  0  0  0
 21 20  1  0  0  0
 20 19  1  0  0  0
 19 18  1  0  0  0
 18 17  1  0  0  0
 17 16  1  0  0  0
 16  9  1  0  0  0
  9  7  1  0  0  0
  9  2  1  0  0  0
  7  8  1  0  0  0
  7  5  1  0  0  0
  5  6  1  0  0  0
  5  3  1  0  0  0
  3  4  1  0  0  0
  3  1  1  0  0  0
  1  2  1  0  0  0
  1 14  1  0  0  0
 14 13  1  0  0  0
 13 15  1  0  0  0
  4 10  1  0  0  0
  6 11  1  0  0  0
  8 12  1  0  0  0
M  END
> <minimizedAffinity>
-7.20139

$$$$
4BUQ_KGM_A_201


 23 23  0  0  0  0  0  0  0  0999 V2000
   20.4692   -5.9816    7.3739 C   0  0  0  0  0  0  0  0  0  0  0  0
   19.2056   -5.2873    7.2692 O   0  0  0  0  0  0  0  0  0  0  0  0
   20.5093   -7.0806    6.3594 C   0  0  0  0  0  0  0  0  0  0  0  0
   21.7725   -7.8042    6.5169 O   0  0  0  0  0  0  0  0  0  0  0  0
   19.3578   -8.0359    6.6291 C   0  0  0  0  0  0  0  0  0  0  0  0
   19.3897   -9.0515    5.6218 O   0  0  0  0  0  0  0  0  0  0  0  0
   18.0292   -7.2811    6.5312 C   0  0  0  0  0  0  0  0  0  0  0  0
   17.9032   -6.7471    5.2419 O   0  0  0  0  0  0  0  0  0  0  0  0
   18.0373   -6.1401    7.5033 C   0  0  0  0  0  0  0  0  0  0  0  0
   21.8314   -8.1595    7.4175 H   0  0  0  0  0  0  0  0  0  0  0  0
   19.3058   -8.6416    4.7467 H   0  0  0  0  0  0  0  0  0  0  0  0
   18.6431   -6.1445    5.0678 H   0  0  0  0  0  0  0  0  0  0  0  0
   21.7203   -4.7478    5.7037 O   0  0  0  0  0  0  0  0  0  0  0  0
   21.5992   -4.9759    7.1298 C   0  0  0  0  0  0  0  0  0  0  0  0
   22.4337   -4.1119    5.5375 H   0  0  0  0  0  0  0  0  0  0  0  0
   18.1617   -6.6662    8.8356 O   0  0  0  0  0  0  0  0  0  0  0  0
   17.0261   -7.4125    9.3066 C   0  0  0  0  0  0  0  0  0  0  0  0
   17.5706   -8.4587   10.2873 C   0  0  0  0  0  0  0  0  0  0  0  0
   19.0645   -8.2398   10.4607 C   0  0  0  0  0  0  0  0  0  0  0  0
   19.3876   -7.9352   11.9194 C   0  0  0  0  0  0  0  0  0  0  0  0
   20.3164   -6.7146   11.9787 C   0  0  0  0  0  0  0  0  0  0  0  0
   19.9602   -4.4995   10.8059 C   0  0  0  0  0  0  0  0  0  0  0  0
   19.4715   -5.4411   11.9116 C   0  0  0  0  0  0  0  0  0  0  0  0
 22 23  1  0  0  0
 23 21  1  0  0  0
 21 20  1  0  0  0
 20 19  1  0  0  0
 19 18  1  0  0  0
 18 17  1  0  0  0
 17 16  1  0  0  0
 16  9  1  0  0  0
  9  7  1  0  0  0
  9  2  1  0  0  0
  7  8  1  0  0  0
  7  5  1  0  0  0
  5  6  1  0  0  0
  5  3  1  0  0  0
  3  4  1  0  0  0
  3  1  1  0  0  0
  1  2  1  0  0  0
  1 14  1  0  0  0
 14 13  1  0  0  0
 13 15  1  0  0  0
  4 10  1  0  0  0
  6 11  1  0  0  0
  8 12  1  0  0  0
M  END
> <minimizedAffinity>
-7.11374

$$$$
4BUQ_KGM_A_201


 23 23  0  0  0  0  0  0  0  0999 V2000
   20.5363   -5.9302    7.3841 C   0  0  0  0  0  0  0  0  0  0  0  0
   19.3053   -5.1780    7.2901 O   0  0  0  0  0  0  0  0  0  0  0  0
   20.5005   -7.0527    6.3954 C   0  0  0  0  0  0  0  0  0  0  0  0
   21.7309   -7.8329    6.5428 O   0  0  0  0  0  0  0  0  0  0  0  0
   19.3111   -7.9447    6.7127 C   0  0  0  0  0  0  0  0  0  0  0  0
   19.2714   -8.9833    5.7295 O   0  0  0  0  0  0  0  0  0  0  0  0
   18.0183   -7.1289    6.6256 C   0  0  0  0  0  0  0  0  0  0  0  0
   17.8887   -6.6189    5.3269 O   0  0  0  0  0  0  0  0  0  0  0  0
   18.1032   -5.9678    7.5697 C   0  0  0  0  0  0  0  0  0  0  0  0
   21.7932   -8.1700    7.4502 H   0  0  0  0  0  0  0  0  0  0  0  0
   19.1872   -8.5899    4.8468 H   0  0  0  0  0  0  0  0  0  0  0  0
   18.6525   -6.0569    5.1225 H   0  0  0  0  0  0  0  0  0  0  0  0
   21.7213   -4.6860    5.6739 O   0  0  0  0  0  0  0  0  0  0  0  0
   21.7073   -4.9863    7.0916 C   0  0  0  0  0  0  0  0  0  0  0  0
   22.4597   -4.0884    5.4772 H   0  0  0  0  0  0  0  0  0  0  0  0
   18.2324   -6.4687    8.9112 O   0  0  0  0  0  0  0  0  0  0  0  0
   17.8687   -5.5407    9.9480 C   0  0  0  0  0  0  0  0  0  0  0  0
   19.1181   -5.3489   10.8168 C   0  0  0  0  0  0  0  0  0  0  0  0
   19.7868   -6.6982   11.0215 C   0  0  0  0  0  0  0  0  0  0  0  0
   20.4973   -6.7362   12.3701 C   0  0  0  0  0  0  0  0  0  0  0  0
   19.7230   -7.6663   13.3142 C   0  0  0  0  0  0  0  0  0  0  0  0
   18.4734   -9.8589   13.1138 C   0  0  0  0  0  0  0  0  0  0  0  0
   18.7127   -8.4758   12.4992 C   0  0  0  0  0  0  0  0  0  0  0  0
 22 23  1  0  0  0
 23 21  1  0  0  0
 21 20  1  0  0  0
 20 19  1  0  0  0
 19 18  1  0  0  0
 18 17  1  0  0  0
 17 16  1  0  0  0
 16  9  1  0  0  0
  9  7  1  0  0  0
  9  2  1  0  0  0
  7  8  1  0  0  0
  7  5  1  0  0  0
  5  6  1  0  0  0
  5  3  1  0  0  0
  3  4  1  0  0  0
  3  1  1  0  0  0
  1  2  1  0  0  0
  1 14  1  0  0  0
 14 13  1  0  0  0
 13 15  1  0  0  0
  4 10  1  0  0  0
  6 11  1  0  0  0
  8 12  1  0  0  0
M  END
> <minimizedAffinity>
-6.74115

$$$$
4BUQ_KGM_A_201


 23 23  0  0  0  0  0  0  0  0999 V2000
   20.4831   -5.9590    7.3499 C   0  0  0  0  0  0  0  0  0  0  0  0
   19.2451   -5.2247    7.2167 O   0  0  0  0  0  0  0  0  0  0  0  0
   20.4933   -7.0841    6.3636 C   0  0  0  0  0  0  0  0  0  0  0  0
   21.7295   -7.8463    6.5502 O   0  0  0  0  0  0  0  0  0  0  0  0
   19.3075   -7.9923    6.6471 C   0  0  0  0  0  0  0  0  0  0  0  0
   19.3123   -9.0335    5.6660 O   0  0  0  0  0  0  0  0  0  0  0  0
   18.0065   -7.1952    6.5188 C   0  0  0  0  0  0  0  0  0  0  0  0
   17.9091   -6.6900    5.2154 O   0  0  0  0  0  0  0  0  0  0  0  0
   18.0463   -6.0309    7.4620 C   0  0  0  0  0  0  0  0  0  0  0  0
   21.7691   -8.1805    7.4600 H   0  0  0  0  0  0  0  0  0  0  0  0
   19.2494   -8.6434    4.7802 H   0  0  0  0  0  0  0  0  0  0  0  0
   18.6707   -6.1177    5.0328 H   0  0  0  0  0  0  0  0  0  0  0  0
   21.7017   -4.7020    5.6730 O   0  0  0  0  0  0  0  0  0  0  0  0
   21.6490   -4.9991    7.0904 C   0  0  0  0  0  0  0  0  0  0  0  0
   22.4371   -4.0943    5.4972 H   0  0  0  0  0  0  0  0  0  0  0  0
   18.1420   -6.5269    8.8081 O   0  0  0  0  0  0  0  0  0  0  0  0
   17.1744   -5.9909    9.7273 C   0  0  0  0  0  0  0  0  0  0  0  0
   16.4963   -7.1943   10.3944 C   0  0  0  0  0  0  0  0  0  0  0  0
   15.3067   -7.6193    9.5495 C   0  0  0  0  0  0  0  0  0  0  0  0
   15.5041   -9.0420    9.0378 C   0  0  0  0  0  0  0  0  0  0  0  0
   14.9126  -10.0242   10.0583 C   0  0  0  0  0  0  0  0  0  0  0  0
   16.3206  -10.5669   12.0911 C   0  0  0  0  0  0  0  0  0  0  0  0
   16.0368  -10.8955   10.6216 C   0  0  0  0  0  0  0  0  0  0  0  0
 22 23  1  0  0  0
 23 21  1  0  0  0
 21 20  1  0  0  0
 20 19  1  0  0  0
 19 18  1  0  0  0
 18 17  1  0  0  0
 17 16  1  0  0  0
 16  9  1  0  0  0
  9  7  1  0  0  0
  9  2  1  0  0  0
  7  8  1  0  0  0
  7  5  1  0  0  0
  5  6  1  0  0  0
  5  3  1  0  0  0
  3  4  1  0  0  0
  3  1  1  0  0  0
  1  2  1  0  0  0
  1 14  1  0  0  0
 14 13  1  0  0  0
 13 15  1  0  0  0
  4 10  1  0  0  0
  6 11  1  0  0  0
  8 12  1  0  0  0
M  END
> <minimizedAffinity>
-6.26304

$$$$
4BUQ_KGM_A_201


 23 23  0  0  0  0  0  0  0  0999 V2000
   18.5513   -6.9062    6.5317 C   0  0  0  0  0  0  0  0  0  0  0  0
   18.0162   -7.5073    7.7326 O   0  0  0  0  0  0  0  0  0  0  0  0
   19.8823   -7.5189    6.2291 C   0  0  0  0  0  0  0  0  0  0  0  0
   20.4309   -6.8605    5.0417 O   0  0  0  0  0  0  0  0  0  0  0  0
   20.8133   -7.2689    7.4047 C   0  0  0  0  0  0  0  0  0  0  0  0
   22.0631   -7.9009    7.1123 O   0  0  0  0  0  0  0  0  0  0  0  0
   20.2236   -7.8967    8.6706 C   0  0  0  0  0  0  0  0  0  0  0  0
   20.0811   -9.2762    8.4705 O   0  0  0  0  0  0  0  0  0  0  0  0
   18.8603   -7.3239    8.9162 C   0  0  0  0  0  0  0  0  0  0  0  0
   20.5158   -5.9090    5.2097 H   0  0  0  0  0  0  0  0  0  0  0  0
   21.9209   -8.8506    6.9753 H   0  0  0  0  0  0  0  0  0  0  0  0
   19.4938   -9.4343    7.7148 H   0  0  0  0  0  0  0  0  0  0  0  0
   18.0341   -8.2797    4.6022 O   0  0  0  0  0  0  0  0  0  0  0  0
   17.5668   -7.1522    5.3836 C   0  0  0  0  0  0  0  0  0  0  0  0
   17.4176   -8.4446    3.8717 H   0  0  0  0  0  0  0  0  0  0  0  0
   18.9833   -5.9073    9.1289 O   0  0  0  0  0  0  0  0  0  0  0  0
   18.7313   -5.4670   10.4746 C   0  0  0  0  0  0  0  0  0  0  0  0
   19.9490   -4.6337   10.8940 C   0  0  0  0  0  0  0  0  0  0  0  0
   19.7102   -4.0821   12.2899 C   0  0  0  0  0  0  0  0  0  0  0  0
   19.2871   -2.6192   12.2142 C   0  0  0  0  0  0  0  0  0  0  0  0
   20.3980   -1.8152   11.5244 C   0  0  0  0  0  0  0  0  0  0  0  0
   21.3270   -1.1224   13.7752 C   0  0  0  0  0  0  0  0  0  0  0  0
   20.7945   -0.6411   12.4214 C   0  0  0  0  0  0  0  0  0  0  0  0
 22 23  1  0  0  0
 23 21  1  0  0  0
 21 20  1  0  0  0
 20 19  1  0  0  0
 19 18  1  0  0  0
 18 17  1  0  0  0
 17 16  1  0  0  0
 16  9  1  0  0  0
  9  7  1  0  0  0
  9  2  1  0  0  0
  7  8  1  0  0  0
  7  5  1  0  0  0
  5  6  1  0  0  0
  5  3  1  0  0  0
  3  4  1  0  0  0
  3  1  1  0  0  0
  1  2  1  0  0  0
  1 14  1  0  0  0
 14 13  1  0  0  0
 13 15  1  0  0  0
  4 10  1  0  0  0
  6 11  1  0  0  0
  8 12  1  0  0  0
M  END
> <minimizedAffinity>
-5.72576

$$$$
4BUQ_KGM_A_201


 23 23  0  0  0  0  0  0  0  0999 V2000
   18.2875   -7.2645    6.5091 C   0  0  0  0  0  0  0  0  0  0  0  0
   17.8288   -7.8067    7.7682 O   0  0  0  0  0  0  0  0  0  0  0  0
   19.6705   -7.7654    6.2354 C   0  0  0  0  0  0  0  0  0  0  0  0
   20.1369   -7.1639    4.9844 O   0  0  0  0  0  0  0  0  0  0  0  0
   20.5837   -7.3197    7.3662 C   0  0  0  0  0  0  0  0  0  0  0  0
   21.8880   -7.8470    7.1061 O   0  0  0  0  0  0  0  0  0  0  0  0
   20.0741   -7.8881    8.6936 C   0  0  0  0  0  0  0  0  0  0  0  0
   20.0701   -9.2872    8.6178 O   0  0  0  0  0  0  0  0  0  0  0  0
   18.6624   -7.4350    8.9145 C   0  0  0  0  0  0  0  0  0  0  0  0
   20.1266   -6.1975    5.0668 H   0  0  0  0  0  0  0  0  0  0  0  0
   21.8414   -8.8146    7.0555 H   0  0  0  0  0  0  0  0  0  0  0  0
   19.4940   -9.5700    7.8905 H   0  0  0  0  0  0  0  0  0  0  0  0
   17.3708   -6.7447    4.3259 O   0  0  0  0  0  0  0  0  0  0  0  0
   17.3210   -7.7091    5.4064 C   0  0  0  0  0  0  0  0  0  0  0  0
   16.7620   -7.0166    3.6214 H   0  0  0  0  0  0  0  0  0  0  0  0
   18.6434   -5.9999    8.9999 O   0  0  0  0  0  0  0  0  0  0  0  0
   17.3795   -5.4267    9.3774 C   0  0  0  0  0  0  0  0  0  0  0  0
   17.6813   -4.3892   10.4662 C   0  0  0  0  0  0  0  0  0  0  0  0
   19.1131   -3.9067   10.3025 C   0  0  0  0  0  0  0  0  0  0  0  0
   19.7719   -3.7360   11.6670 C   0  0  0  0  0  0  0  0  0  0  0  0
   19.4750   -4.9762   12.5213 C   0  0  0  0  0  0  0  0  0  0  0  0
   19.9495   -7.4565   12.7004 C   0  0  0  0  0  0  0  0  0  0  0  0
   20.3566   -6.1324   12.0455 C   0  0  0  0  0  0  0  0  0  0  0  0
 22 23  1  0  0  0
 23 21  1  0  0  0
 21 20  1  0  0  0
 20 19  1  0  0  0
 19 18  1  0  0  0
 18 17  1  0  0  0
 17 16  1  0  0  0
 16  9  1  0  0  0
  9  7  1  0  0  0
  9  2  1  0  0  0
  7  8  1  0  0  0
  7  5  1  0  0  0
  5  6  1  0  0  0
  5  3  1  0  0  0
  3  4  1  0  0  0
  3  1  1  0  0  0
  1  2  1  0  0  0
  1 14  1  0  0  0
 14 13  1  0  0  0
 13 15  1  0  0  0
  4 10  1  0  0  0
  6 11  1  0  0  0
  8 12  1  0  0  0
M  END
> <minimizedAffinity>
-5.65059

$$$$
4BUQ_KGM_A_201


 23 23  0  0  0  0  0  0  0  0999 V2000
   20.9029   -5.7311    7.7788 C   0  0  0  0  0  0  0  0  0  0  0  0
   20.1054   -4.5317    7.6554 O   0  0  0  0  0  0  0  0  0  0  0  0
   20.1343   -6.8889    7.2243 C   0  0  0  0  0  0  0  0  0  0  0  0
   20.9356   -8.1008    7.4067 O   0  0  0  0  0  0  0  0  0  0  0  0
   18.8383   -7.0336    8.0059 C   0  0  0  0  0  0  0  0  0  0  0  0
   18.1013   -8.1163    7.4301 O   0  0  0  0  0  0  0  0  0  0  0  0
   18.0145   -5.7491    7.8787 C   0  0  0  0  0  0  0  0  0  0  0  0
   17.7241   -5.5270    6.5260 O   0  0  0  0  0  0  0  0  0  0  0  0
   18.8282   -4.5906    8.3711 C   0  0  0  0  0  0  0  0  0  0  0  0
   21.1217   -8.2264    8.3504 H   0  0  0  0  0  0  0  0  0  0  0  0
   17.9260   -7.9270    6.4951 H   0  0  0  0  0  0  0  0  0  0  0  0
   18.5517   -5.4435    6.0270 H   0  0  0  0  0  0  0  0  0  0  0  0
   21.9991   -4.5193    5.9881 O   0  0  0  0  0  0  0  0  0  0  0  0
   22.2107   -5.5281    7.0068 C   0  0  0  0  0  0  0  0  0  0  0  0
   22.8217   -4.3826    5.4926 H   0  0  0  0  0  0  0  0  0  0  0  0
   19.1345   -4.7957    9.7608 O   0  0  0  0  0  0  0  0  0  0  0  0
   19.5858   -3.6265   10.4663 C   0  0  0  0  0  0  0  0  0  0  0  0
   18.5552   -2.5255   10.1859 C   0  0  0  0  0  0  0  0  0  0  0  0
   19.0814   -1.2086   10.7323 C   0  0  0  0  0  0  0  0  0  0  0  0
   20.4436   -1.4147   11.3856 C   0  0  0  0  0  0  0  0  0  0  0  0
   20.5613   -0.4787   12.5964 C   0  0  0  0  0  0  0  0  0  0  0  0
   20.5264   -2.6219   13.9434 C   0  0  0  0  0  0  0  0  0  0  0  0
   21.1818   -1.2486   13.7637 C   0  0  0  0  0  0  0  0  0  0  0  0
 22 23  1  0  0  0
 23 21  1  0  0  0
 21 20  1  0  0  0
 20 19  1  0  0  0
 19 18  1  0  0  0
 18 17  1  0  0  0
 17 16  1  0  0  0
 16  9  1  0  0  0
  9  7  1  0  0  0
  9  2  1  0  0  0
  7  8  1  0  0  0
  7  5  1  0  0  0
  5  6  1  0  0  0
  5  3  1  0  0  0
  3  4  1  0  0  0
  3  1  1  0  0  0
  1  2  1  0  0  0
  1 14  1  0  0  0
 14 13  1  0  0  0
 13 15  1  0  0  0
  4 10  1  0  0  0
  6 11  1  0  0  0
  8 12  1  0  0  0
M  END
> <minimizedAffinity>
-5.60930

$$$$
4BUQ_KGM_A_201


 23 23  0  0  0  0  0  0  0  0999 V2000
   20.6411   -5.9256    7.8899 C   0  0  0  0  0  0  0  0  0  0  0  0
   19.4233   -5.4988    8.5414 O   0  0  0  0  0  0  0  0  0  0  0  0
   20.5467   -7.3876    7.5856 C   0  0  0  0  0  0  0  0  0  0  0  0
   21.8085   -7.8113    6.9753 O   0  0  0  0  0  0  0  0  0  0  0  0
   20.3513   -8.1457    8.8888 C   0  0  0  0  0  0  0  0  0  0  0  0
   20.2191   -9.5339    8.5692 O   0  0  0  0  0  0  0  0  0  0  0  0
   19.0672   -7.6694    9.5736 C   0  0  0  0  0  0  0  0  0  0  0  0
   17.9808   -7.9120    8.7225 O   0  0  0  0  0  0  0  0  0  0  0  0
   19.1504   -6.1906    9.8039 C   0  0  0  0  0  0  0  0  0  0  0  0
   22.5401   -7.6293    7.5857 H   0  0  0  0  0  0  0  0  0  0  0  0
   19.4619   -9.6584    7.9758 H   0  0  0  0  0  0  0  0  0  0  0  0
   18.1109   -7.4347    7.8881 H   0  0  0  0  0  0  0  0  0  0  0  0
   22.2179   -4.7846    6.4446 O   0  0  0  0  0  0  0  0  0  0  0  0
   20.8153   -5.1133    6.6024 C   0  0  0  0  0  0  0  0  0  0  0  0
   22.3398   -4.2697    5.6316 H   0  0  0  0  0  0  0  0  0  0  0  0
   20.2577   -5.9187   10.6797 O   0  0  0  0  0  0  0  0  0  0  0  0
   19.9705   -6.0390   12.0837 C   0  0  0  0  0  0  0  0  0  0  0  0
   19.0455   -4.8681   12.4395 C   0  0  0  0  0  0  0  0  0  0  0  0
   19.8183   -3.8707   13.2867 C   0  0  0  0  0  0  0  0  0  0  0  0
   20.2286   -2.6682   12.4436 C   0  0  0  0  0  0  0  0  0  0  0  0
   18.9658   -1.9128   12.0069 C   0  0  0  0  0  0  0  0  0  0  0  0
   17.9312   -2.4316    9.7554 C   0  0  0  0  0  0  0  0  0  0  0  0
   19.0296   -1.6643   10.4988 C   0  0  0  0  0  0  0  0  0  0  0  0
 22 23  1  0  0  0
 23 21  1  0  0  0
 21 20  1  0  0  0
 20 19  1  0  0  0
 19 18  1  0  0  0
 18 17  1  0  0  0
 17 16  1  0  0  0
 16  9  1  0  0  0
  9  7  1  0  0  0
  9  2  1  0  0  0
  7  8  1  0  0  0
  7  5  1  0  0  0
  5  6  1  0  0  0
  5  3  1  0  0  0
  3  4  1  0  0  0
  3  1  1  0  0  0
  1  2  1  0  0  0
  1 14  1  0  0  0
 14 13  1  0  0  0
 13 15  1  0  0  0
  4 10  1  0  0  0
  6 11  1  0  0  0
  8 12  1  0  0  0
M  END
> <minimizedAffinity>
-5.32844

$$$$
4BUQ_KGM_A_201


 23 23  0  0  0  0  0  0  0  0999 V2000
   18.6541   -6.8974    6.6428 C   0  0  0  0  0  0  0  0  0  0  0  0
   18.1558   -7.5212    7.8479 O   0  0  0  0  0  0  0  0  0  0  0  0
   19.9425   -7.5496    6.2510 C   0  0  0  0  0  0  0  0  0  0  0  0
   20.4573   -6.8697    5.0607 O   0  0  0  0  0  0  0  0  0  0  0  0
   20.9404   -7.3793    7.3853 C   0  0  0  0  0  0  0  0  0  0  0  0
   22.1473   -8.0481    7.0073 O   0  0  0  0  0  0  0  0  0  0  0  0
   20.3896   -8.0301    8.6572 C   0  0  0  0  0  0  0  0  0  0  0  0
   20.1816   -9.3947    8.4166 O   0  0  0  0  0  0  0  0  0  0  0  0
   19.0647   -7.4144    8.9923 C   0  0  0  0  0  0  0  0  0  0  0  0
   20.5889   -5.9289    5.2572 H   0  0  0  0  0  0  0  0  0  0  0  0
   21.9601   -8.9858    6.8447 H   0  0  0  0  0  0  0  0  0  0  0  0
   19.5514   -9.5020    7.6871 H   0  0  0  0  0  0  0  0  0  0  0  0
   18.0241   -8.1293    4.6522 O   0  0  0  0  0  0  0  0  0  0  0  0
   17.6044   -7.0627    5.5389 C   0  0  0  0  0  0  0  0  0  0  0  0
   17.3661   -8.2427    3.9486 H   0  0  0  0  0  0  0  0  0  0  0  0
   19.2555   -6.0124    9.2476 O   0  0  0  0  0  0  0  0  0  0  0  0
   19.3263   -5.6482   10.6371 C   0  0  0  0  0  0  0  0  0  0  0  0
   17.8782   -5.5119   11.1245 C   0  0  0  0  0  0  0  0  0  0  0  0
   17.6772   -6.4171   12.3286 C   0  0  0  0  0  0  0  0  0  0  0  0
   16.9613   -7.6975   11.9128 C   0  0  0  0  0  0  0  0  0  0  0  0
   17.8460   -8.9002   12.2692 C   0  0  0  0  0  0  0  0  0  0  0  0
   18.9317   -9.3086   14.5194 C   0  0  0  0  0  0  0  0  0  0  0  0
   18.9292   -8.4492   13.2508 C   0  0  0  0  0  0  0  0  0  0  0  0
 22 23  1  0  0  0
 23 21  1  0  0  0
 21 20  1  0  0  0
 20 19  1  0  0  0
 19 18  1  0  0  0
 18 17  1  0  0  0
 17 16  1  0  0  0
 16  9  1  0  0  0
  9  7  1  0  0  0
  9  2  1  0  0  0
  7  8  1  0  0  0
  7  5  1  0  0  0
  5  6  1  0  0  0
  5  3  1  0  0  0
  3  4  1  0  0  0
  3  1  1  0  0  0
  1  2  1  0  0  0
  1 14  1  0  0  0
 14 13  1  0  0  0
 13 15  1  0  0  0
  4 10  1  0  0  0
  6 11  1  0  0  0
  8 12  1  0  0  0
M  END
> <minimizedAffinity>
-5.00632

$$$$
4BUQ_KGM_A_201


 23 23  0  0  0  0  0  0  0  0999 V2000
   20.6835   -6.1946    7.6992 C   0  0  0  0  0  0  0  0  0  0  0  0
   20.1559   -4.9307    8.1618 O   0  0  0  0  0  0  0  0  0  0  0  0
   19.5554   -7.1623    7.5274 C   0  0  0  0  0  0  0  0  0  0  0  0
   20.1149   -8.4496    7.1103 O   0  0  0  0  0  0  0  0  0  0  0  0
   18.8565   -7.3399    8.8658 C   0  0  0  0  0  0  0  0  0  0  0  0
   17.7564   -8.2328    8.6674 O   0  0  0  0  0  0  0  0  0  0  0  0
   18.3194   -5.9899    9.3489 C   0  0  0  0  0  0  0  0  0  0  0  0
   17.4073   -5.4991    8.4052 O   0  0  0  0  0  0  0  0  0  0  0  0
   19.4528   -5.0137    9.4447 C   0  0  0  0  0  0  0  0  0  0  0  0
   20.7424   -8.7619    7.7809 H   0  0  0  0  0  0  0  0  0  0  0  0
   17.1533   -7.8606    8.0052 H   0  0  0  0  0  0  0  0  0  0  0  0
   17.8521   -5.3944    7.5496 H   0  0  0  0  0  0  0  0  0  0  0  0
   21.7351   -4.5556    6.2554 O   0  0  0  0  0  0  0  0  0  0  0  0
   21.4071   -5.9626    6.3686 C   0  0  0  0  0  0  0  0  0  0  0  0
   22.1941   -4.3972    5.4157 H   0  0  0  0  0  0  0  0  0  0  0  0
   20.4004   -5.4960   10.4125 O   0  0  0  0  0  0  0  0  0  0  0  0
   19.9149   -5.5589   11.7647 C   0  0  0  0  0  0  0  0  0  0  0  0
   20.4682   -6.8577   12.3647 C   0  0  0  0  0  0  0  0  0  0  0  0
   19.3086   -7.7911   12.6711 C   0  0  0  0  0  0  0  0  0  0  0  0
   19.2396   -8.0734   14.1680 C   0  0  0  0  0  0  0  0  0  0  0  0
   18.2606   -9.2304   14.4112 C   0  0  0  0  0  0  0  0  0  0  0  0
   18.7529  -11.6252   13.7542 C   0  0  0  0  0  0  0  0  0  0  0  0
   19.0553  -10.4947   14.7434 C   0  0  0  0  0  0  0  0  0  0  0  0
 22 23  1  0  0  0
 23 21  1  0  0  0
 21 20  1  0  0  0
 20 19  1  0  0  0
 19 18  1  0  0  0
 18 17  1  0  0  0
 17 16  1  0  0  0
 16  9  1  0  0  0
  9  7  1  0  0  0
  9  2  1  0  0  0
  7  8  1  0  0  0
  7  5  1  0  0  0
  5  6  1  0  0  0
  5  3  1  0  0  0
  3  4  1  0  0  0
  3  1  1  0  0  0
  1  2  1  0  0  0
  1 14  1  0  0  0
 14 13  1  0  0  0
 13 15  1  0  0  0
  4 10  1  0  0  0
  6 11  1  0  0  0
  8 12  1  0  0  0
M  END
> <minimizedAffinity>
-4.94562

$$$$
