4BAK_M67_B_1287


 40 42  0  0  0  0  0  0  0  0999 V2000
   17.9897  -13.1626   22.1928 C   0  0  0  0  0  0  0  0  0  0  0  0
   16.9311  -12.5693   22.4089 O   0  0  0  0  0  0  0  0  0  0  0  0
   18.8066  -12.6987   21.2242 N   0  0  0  0  0  0  0  0  0  0  0  0
   20.0676  -13.0731   20.5534 C   0  0  0  0  0  0  0  0  0  0  0  0
   19.7672  -12.1101   19.3985 C   0  0  0  0  0  0  0  0  0  0  0  0
   18.6263  -11.5865   20.2845 C   0  0  0  0  0  0  0  0  0  0  0  0
   17.2278  -11.7418   19.7240 C   0  0  0  0  0  0  0  0  0  0  0  0
   16.9214  -12.7995   19.2107 O   0  0  0  0  0  0  0  0  0  0  0  0
   16.2905  -10.7960   19.9164 N   0  0  0  0  0  0  0  0  0  0  0  0
   16.5051   -9.9647   20.3982 H   0  0  0  0  0  0  0  0  0  0  0  0
   14.9410  -11.0323   19.3913 C   0  0  0  0  0  0  0  0  0  0  0  0
   13.9791  -10.9509   20.5407 C   0  0  0  0  0  0  0  0  0  0  0  0
   13.2562  -12.0731   20.9111 C   0  0  0  0  0  0  0  0  0  0  0  0
   12.3720  -11.9933   21.9739 C   0  0  0  0  0  0  0  0  0  0  0  0
   12.2301  -10.7847   22.6802 C   0  0  0  0  0  0  0  0  0  0  0  0
   12.9624   -9.6502   22.2954 C   0  0  0  0  0  0  0  0  0  0  0  0
   13.8532   -9.7552   21.2388 C   0  0  0  0  0  0  0  0  0  0  0  0
   11.2485  -10.6937   23.7913 C   0  0  0  0  0  0  0  0  0  0  0  0
   10.6191  -11.7666   24.2131 N   0  0  0  0  0  0  0  0  0  0  0  0
   10.9385   -9.4740   24.3430 N   0  0  0  0  0  0  0  0  0  0  0  0
   10.8321  -12.6464   23.8259 H   0  0  0  0  0  0  0  0  0  0  0  0
   11.4031   -8.6623   24.0355 H   0  0  0  0  0  0  0  0  0  0  0  0
   10.2518   -9.4118   25.0457 H   0  0  0  0  0  0  0  0  0  0  0  0
   18.2950  -14.4128   22.9714 C   0  0  0  0  0  0  0  0  0  0  0  0
   18.8143  -14.0439   24.3760 C   0  0  0  0  0  0  0  0  0  0  0  0
   19.0641  -15.3233   25.1936 C   0  0  0  0  0  0  0  0  0  0  0  0
   19.5855  -14.9597   26.5924 C   0  0  0  0  0  0  0  0  0  0  0  0
   20.9012  -14.1724   26.4920 C   0  0  0  0  0  0  0  0  0  0  0  0
   20.7044  -12.8885   25.6734 C   0  0  0  0  0  0  0  0  0  0  0  0
   20.1246  -13.2280   24.2858 C   0  0  0  0  0  0  0  0  0  0  0  0
   17.0335  -15.1883   23.0574 N   0  0  0  0  0  0  0  0  0  0  0  0
   17.1685  -15.9402   23.7333 H   0  0  0  0  0  0  0  0  0  0  0  0
   16.5874  -15.7915   21.7794 C   0  0  0  0  0  0  0  0  0  0  0  0
   14.3242  -15.5415   20.9210 N   0  0  0  0  0  0  0  0  0  0  0  0
   15.1247  -16.1593   21.8132 C   0  0  0  0  0  0  0  0  0  0  0  0
   14.6800  -16.9891   22.5973 O   0  0  0  0  0  0  0  0  0  0  0  0
   14.7300  -14.8892   20.3054 H   0  0  0  0  0  0  0  0  0  0  0  0
   12.8775  -15.7890   20.8173 C   0  0  0  0  0  0  0  0  0  0  0  0
   11.1924  -16.2847   19.0107 C   0  0  0  0  0  0  0  0  0  0  0  0
   12.3687  -15.3979   19.4252 C   0  0  0  0  0  0  0  0  0  0  0  0
 39 40  1  0  0  0
 40 38  1  0  0  0
 38 34  1  0  0  0
 34 35  1  0  0  0
 35 36  2  0  0  0
 35 33  1  0  0  0
 33 31  1  0  0  0
 31 24  1  0  0  0
 24 25  1  0  0  0
 24  1  1  0  0  0
 25 26  1  0  0  0
 25 30  1  0  0  0
 26 27  1  0  0  0
 27 28  1  0  0  0
 28 29  1  0  0  0
 29 30  1  0  0  0
  1  2  2  0  0  0
  1  3  1  0  0  0
  3  4  1  0  0  0
  3  6  1  0  0  0
  4  5  1  0  0  0
  5  6  1  0  0  0
  6  7  1  0  0  0
  7  8  2  0  0  0
  7  9  1  0  0  0
  9 11  1  0  0  0
 11 12  1  0  0  0
 12 13  1  0  0  0
 12 17  2  0  0  0
 13 14  2  0  0  0
 14 15  1  0  0  0
 15 16  2  0  0  0
 15 18  1  0  0  0
 16 17  1  0  0  0
 18 19  2  0  0  0
 18 20  1  0  0  0
 34 37  1  0  0  0
 31 32  1  0  0  0
  9 10  1  0  0  0
 19 21  1  0  0  0
 20 22  1  0  0  0
 20 23  1  0  0  0
M  END
> <minimizedAffinity>
-10.11603

$$$$
4BAK_M67_B_1287


 40 42  0  0  0  0  0  0  0  0999 V2000
   18.0506  -13.1464   22.1965 C   0  0  0  0  0  0  0  0  0  0  0  0
   16.9833  -12.5715   22.4191 O   0  0  0  0  0  0  0  0  0  0  0  0
   18.8543  -12.6674   21.2243 N   0  0  0  0  0  0  0  0  0  0  0  0
   20.1179  -13.0194   20.5463 C   0  0  0  0  0  0  0  0  0  0  0  0
   19.7951  -12.0600   19.3944 C   0  0  0  0  0  0  0  0  0  0  0  0
   18.6502  -11.5570   20.2872 C   0  0  0  0  0  0  0  0  0  0  0  0
   17.2516  -11.7352   19.7340 C   0  0  0  0  0  0  0  0  0  0  0  0
   16.9746  -12.7801   19.1793 O   0  0  0  0  0  0  0  0  0  0  0  0
   16.2858  -10.8301   19.9750 N   0  0  0  0  0  0  0  0  0  0  0  0
   16.4781  -10.0130   20.4895 H   0  0  0  0  0  0  0  0  0  0  0  0
   14.9391  -11.0891   19.4532 C   0  0  0  0  0  0  0  0  0  0  0  0
   13.9729  -10.9755   20.5962 C   0  0  0  0  0  0  0  0  0  0  0  0
   13.5307   -9.7260   20.9990 C   0  0  0  0  0  0  0  0  0  0  0  0
   12.6371   -9.6269   22.0524 C   0  0  0  0  0  0  0  0  0  0  0  0
   12.1706  -10.7914   22.6895 C   0  0  0  0  0  0  0  0  0  0  0  0
   12.6275  -12.0540   22.2788 C   0  0  0  0  0  0  0  0  0  0  0  0
   13.5098  -12.1323   21.2128 C   0  0  0  0  0  0  0  0  0  0  0  0
   11.2461  -10.6761   23.8464 C   0  0  0  0  0  0  0  0  0  0  0  0
   10.6541  -11.7423   24.3343 N   0  0  0  0  0  0  0  0  0  0  0  0
   10.9481   -9.4430   24.3742 N   0  0  0  0  0  0  0  0  0  0  0  0
   10.8591  -12.6315   23.9648 H   0  0  0  0  0  0  0  0  0  0  0  0
   11.3850   -8.6361   24.0173 H   0  0  0  0  0  0  0  0  0  0  0  0
   10.2976   -9.3663   25.1092 H   0  0  0  0  0  0  0  0  0  0  0  0
   18.3811  -14.3924   22.9716 C   0  0  0  0  0  0  0  0  0  0  0  0
   18.8518  -14.0187   24.3919 C   0  0  0  0  0  0  0  0  0  0  0  0
   19.0571  -15.2947   25.2271 C   0  0  0  0  0  0  0  0  0  0  0  0
   19.5301  -14.9264   26.6418 C   0  0  0  0  0  0  0  0  0  0  0  0
   20.8570  -14.1539   26.5850 C   0  0  0  0  0  0  0  0  0  0  0  0
   20.7047  -12.8740   25.7509 C   0  0  0  0  0  0  0  0  0  0  0  0
   20.1733  -13.2174   24.3450 C   0  0  0  0  0  0  0  0  0  0  0  0
   17.1465  -15.2132   23.0190 N   0  0  0  0  0  0  0  0  0  0  0  0
   17.2509  -15.9007   23.7652 H   0  0  0  0  0  0  0  0  0  0  0  0
   16.8345  -15.9379   21.7646 C   0  0  0  0  0  0  0  0  0  0  0  0
   15.8585  -17.5475   23.3068 N   0  0  0  0  0  0  0  0  0  0  0  0
   15.9993  -17.1680   22.0205 C   0  0  0  0  0  0  0  0  0  0  0  0
   15.4585  -17.7880   21.1127 O   0  0  0  0  0  0  0  0  0  0  0  0
   16.3049  -17.0115   24.0016 H   0  0  0  0  0  0  0  0  0  0  0  0
   15.0742  -18.7188   23.7287 C   0  0  0  0  0  0  0  0  0  0  0  0
   16.8575  -18.9850   25.4889 C   0  0  0  0  0  0  0  0  0  0  0  0
   15.9654  -19.7134   24.4812 C   0  0  0  0  0  0  0  0  0  0  0  0
 39 40  1  0  0  0
 40 38  1  0  0  0
 38 34  1  0  0  0
 34 35  1  0  0  0
 35 36  2  0  0  0
 35 33  1  0  0  0
 33 31  1  0  0  0
 31 24  1  0  0  0
 24 25  1  0  0  0
 24  1  1  0  0  0
 25 26  1  0  0  0
 25 30  1  0  0  0
 26 27  1  0  0  0
 27 28  1  0  0  0
 28 29  1  0  0  0
 29 30  1  0  0  0
  1  2  2  0  0  0
  1  3  1  0  0  0
  3  4  1  0  0  0
  3  6  1  0  0  0
  4  5  1  0  0  0
  5  6  1  0  0  0
  6  7  1  0  0  0
  7  8  2  0  0  0
  7  9  1  0  0  0
  9 11  1  0  0  0
 11 12  1  0  0  0
 12 13  1  0  0  0
 12 17  2  0  0  0
 13 14  2  0  0  0
 14 15  1  0  0  0
 15 16  2  0  0  0
 15 18  1  0  0  0
 16 17  1  0  0  0
 18 19  2  0  0  0
 18 20  1  0  0  0
 34 37  1  0  0  0
 31 32  1  0  0  0
  9 10  1  0  0  0
 19 21  1  0  0  0
 20 22  1  0  0  0
 20 23  1  0  0  0
M  END
> <minimizedAffinity>
-9.41683

$$$$
4BAK_M67_B_1287


 40 42  0  0  0  0  0  0  0  0999 V2000
   13.5912  -13.5495   21.6998 C   0  0  0  0  0  0  0  0  0  0  0  0
   14.6871  -13.3374   22.2225 O   0  0  0  0  0  0  0  0  0  0  0  0
   13.2283  -14.8248   21.4495 N   0  0  0  0  0  0  0  0  0  0  0  0
   12.1287  -15.5653   20.7994 C   0  0  0  0  0  0  0  0  0  0  0  0
   12.9903  -16.8320   20.7306 C   0  0  0  0  0  0  0  0  0  0  0  0
   13.9696  -16.0762   21.6420 C   0  0  0  0  0  0  0  0  0  0  0  0
   15.3506  -15.8304   21.0708 C   0  0  0  0  0  0  0  0  0  0  0  0
   15.4708  -15.7217   19.8667 O   0  0  0  0  0  0  0  0  0  0  0  0
   16.4034  -15.5861   21.8723 N   0  0  0  0  0  0  0  0  0  0  0  0
   16.3039  -15.5960   22.8517 H   0  0  0  0  0  0  0  0  0  0  0  0
   17.7032  -15.3047   21.2525 C   0  0  0  0  0  0  0  0  0  0  0  0
   18.5969  -14.7157   22.3047 C   0  0  0  0  0  0  0  0  0  0  0  0
   19.9648  -14.6636   22.0922 C   0  0  0  0  0  0  0  0  0  0  0  0
   20.7848  -14.1167   23.0650 C   0  0  0  0  0  0  0  0  0  0  0  0
   20.2237  -13.6010   24.2478 C   0  0  0  0  0  0  0  0  0  0  0  0
   18.8367  -13.6622   24.4581 C   0  0  0  0  0  0  0  0  0  0  0  0
   18.0323  -14.1995   23.4656 C   0  0  0  0  0  0  0  0  0  0  0  0
   21.1121  -13.0553   25.3057 C   0  0  0  0  0  0  0  0  0  0  0  0
   21.0816  -11.7772   25.6067 N   0  0  0  0  0  0  0  0  0  0  0  0
   22.0238  -13.8703   25.9323 N   0  0  0  0  0  0  0  0  0  0  0  0
   20.4330  -11.1828   25.1648 H   0  0  0  0  0  0  0  0  0  0  0  0
   22.0569  -14.8300   25.7155 H   0  0  0  0  0  0  0  0  0  0  0  0
   22.6441  -13.4944   26.5981 H   0  0  0  0  0  0  0  0  0  0  0  0
   12.7348  -12.3777   21.3049 C   0  0  0  0  0  0  0  0  0  0  0  0
   12.7248  -11.3289   22.4356 C   0  0  0  0  0  0  0  0  0  0  0  0
   12.6973   -9.9126   21.8345 C   0  0  0  0  0  0  0  0  0  0  0  0
   12.6832   -8.8650   22.9584 C   0  0  0  0  0  0  0  0  0  0  0  0
   11.4469   -9.0467   23.8524 C   0  0  0  0  0  0  0  0  0  0  0  0
   11.4242  -10.4529   24.4682 C   0  0  0  0  0  0  0  0  0  0  0  0
   11.4982  -11.5194   23.3575 C   0  0  0  0  0  0  0  0  0  0  0  0
   13.3173  -11.8149   20.0623 N   0  0  0  0  0  0  0  0  0  0  0  0
   12.5778  -11.7587   19.3621 H   0  0  0  0  0  0  0  0  0  0  0  0
   14.4358  -12.6005   19.4899 C   0  0  0  0  0  0  0  0  0  0  0  0
   16.6364  -12.1277   20.4147 N   0  0  0  0  0  0  0  0  0  0  0  0
   15.7231  -11.8139   19.4735 C   0  0  0  0  0  0  0  0  0  0  0  0
   15.9435  -10.9433   18.6402 O   0  0  0  0  0  0  0  0  0  0  0  0
   16.4168  -12.8411   21.0566 H   0  0  0  0  0  0  0  0  0  0  0  0
   17.9431  -11.4620   20.5349 C   0  0  0  0  0  0  0  0  0  0  0  0
   20.3930  -11.7000   19.9959 C   0  0  0  0  0  0  0  0  0  0  0  0
   18.9755  -12.1489   19.6337 C   0  0  0  0  0  0  0  0  0  0  0  0
 39 40  1  0  0  0
 40 38  1  0  0  0
 38 34  1  0  0  0
 34 35  1  0  0  0
 35 36  2  0  0  0
 35 33  1  0  0  0
 33 31  1  0  0  0
 31 24  1  0  0  0
 24 25  1  0  0  0
 24  1  1  0  0  0
 25 26  1  0  0  0
 25 30  1  0  0  0
 26 27  1  0  0  0
 27 28  1  0  0  0
 28 29  1  0  0  0
 29 30  1  0  0  0
  1  2  2  0  0  0
  1  3  1  0  0  0
  3  4  1  0  0  0
  3  6  1  0  0  0
  4  5  1  0  0  0
  5  6  1  0  0  0
  6  7  1  0  0  0
  7  8  2  0  0  0
  7  9  1  0  0  0
  9 11  1  0  0  0
 11 12  1  0  0  0
 12 13  1  0  0  0
 12 17  2  0  0  0
 13 14  2  0  0  0
 14 15  1  0  0  0
 15 16  2  0  0  0
 15 18  1  0  0  0
 16 17  1  0  0  0
 18 19  2  0  0  0
 18 20  1  0  0  0
 34 37  1  0  0  0
 31 32  1  0  0  0
  9 10  1  0  0  0
 19 21  1  0  0  0
 20 22  1  0  0  0
 20 23  1  0  0  0
M  END
> <minimizedAffinity>
-8.66462

$$$$
4BAK_M67_B_1287


 40 42  0  0  0  0  0  0  0  0999 V2000
   17.8407  -13.5695   22.0257 C   0  0  0  0  0  0  0  0  0  0  0  0
   16.8256  -12.9334   22.3158 O   0  0  0  0  0  0  0  0  0  0  0  0
   18.7588  -12.9936   21.2218 N   0  0  0  0  0  0  0  0  0  0  0  0
   20.0251  -13.3402   20.5461 C   0  0  0  0  0  0  0  0  0  0  0  0
   19.8888  -12.1282   19.6166 C   0  0  0  0  0  0  0  0  0  0  0  0
   18.7402  -11.6944   20.5405 C   0  0  0  0  0  0  0  0  0  0  0  0
   17.3749  -11.5865   19.8939 C   0  0  0  0  0  0  0  0  0  0  0  0
   17.0272  -12.4572   19.1211 O   0  0  0  0  0  0  0  0  0  0  0  0
   16.4982  -10.6376   20.2699 N   0  0  0  0  0  0  0  0  0  0  0  0
   16.7402   -9.9700   20.9518 H   0  0  0  0  0  0  0  0  0  0  0  0
   15.1733  -10.6209   19.6398 C   0  0  0  0  0  0  0  0  0  0  0  0
   14.1440  -10.6412   20.7319 C   0  0  0  0  0  0  0  0  0  0  0  0
   13.6508  -11.8531   21.1873 C   0  0  0  0  0  0  0  0  0  0  0  0
   12.7031  -11.8664   22.1971 C   0  0  0  0  0  0  0  0  0  0  0  0
   12.2652  -10.6560   22.7653 C   0  0  0  0  0  0  0  0  0  0  0  0
   12.7659   -9.4315   22.2947 C   0  0  0  0  0  0  0  0  0  0  0  0
   13.7249   -9.4406   21.2941 C   0  0  0  0  0  0  0  0  0  0  0  0
   11.2171  -10.6748   23.8176 C   0  0  0  0  0  0  0  0  0  0  0  0
   10.9705   -9.5998   24.5308 N   0  0  0  0  0  0  0  0  0  0  0  0
   10.5423  -11.8375   24.1018 N   0  0  0  0  0  0  0  0  0  0  0  0
   11.4473   -8.7605   24.3372 H   0  0  0  0  0  0  0  0  0  0  0  0
   10.7181  -12.6501   23.5746 H   0  0  0  0  0  0  0  0  0  0  0  0
    9.8830  -11.8580   24.8327 H   0  0  0  0  0  0  0  0  0  0  0  0
   17.9824  -14.9810   22.5258 C   0  0  0  0  0  0  0  0  0  0  0  0
   16.7015  -15.7809   22.2127 C   0  0  0  0  0  0  0  0  0  0  0  0
   16.7640  -16.3257   20.7750 C   0  0  0  0  0  0  0  0  0  0  0  0
   15.4910  -17.1267   20.4608 C   0  0  0  0  0  0  0  0  0  0  0  0
   15.3416  -18.3085   21.4313 C   0  0  0  0  0  0  0  0  0  0  0  0
   15.2855  -17.8143   22.8838 C   0  0  0  0  0  0  0  0  0  0  0  0
   16.5273  -16.9574   23.2007 C   0  0  0  0  0  0  0  0  0  0  0  0
   19.1579  -15.5683   21.8377 N   0  0  0  0  0  0  0  0  0  0  0  0
   18.8450  -15.9509   20.9455 H   0  0  0  0  0  0  0  0  0  0  0  0
   19.8412  -16.6479   22.5884 C   0  0  0  0  0  0  0  0  0  0  0  0
   21.4762  -15.0737   23.4660 N   0  0  0  0  0  0  0  0  0  0  0  0
   20.6512  -16.1047   23.7395 C   0  0  0  0  0  0  0  0  0  0  0  0
   20.5582  -16.5601   24.8730 O   0  0  0  0  0  0  0  0  0  0  0  0
   21.5091  -14.7366   22.5417 H   0  0  0  0  0  0  0  0  0  0  0  0
   22.3301  -14.4251   24.4737 C   0  0  0  0  0  0  0  0  0  0  0  0
   20.3072  -12.9377   24.6841 C   0  0  0  0  0  0  0  0  0  0  0  0
   21.8345  -13.0022   24.7554 C   0  0  0  0  0  0  0  0  0  0  0  0
 39 40  1  0  0  0
 40 38  1  0  0  0
 38 34  1  0  0  0
 34 35  1  0  0  0
 35 36  2  0  0  0
 35 33  1  0  0  0
 33 31  1  0  0  0
 31 24  1  0  0  0
 24 25  1  0  0  0
 24  1  1  0  0  0
 25 26  1  0  0  0
 25 30  1  0  0  0
 26 27  1  0  0  0
 27 28  1  0  0  0
 28 29  1  0  0  0
 29 30  1  0  0  0
  1  2  2  0  0  0
  1  3  1  0  0  0
  3  4  1  0  0  0
  3  6  1  0  0  0
  4  5  1  0  0  0
  5  6  1  0  0  0
  6  7  1  0  0  0
  7  8  2  0  0  0
  7  9  1  0  0  0
  9 11  1  0  0  0
 11 12  1  0  0  0
 12 13  1  0  0  0
 12 17  2  0  0  0
 13 14  2  0  0  0
 14 15  1  0  0  0
 15 16  2  0  0  0
 15 18  1  0  0  0
 16 17  1  0  0  0
 18 19  2  0  0  0
 18 20  1  0  0  0
 34 37  1  0  0  0
 31 32  1  0  0  0
  9 10  1  0  0  0
 19 21  1  0  0  0
 20 22  1  0  0  0
 20 23  1  0  0  0
M  END
> <minimizedAffinity>
-8.21458

$$$$
4BAK_M67_B_1287


 40 42  0  0  0  0  0  0  0  0999 V2000
   12.9745  -13.8826   20.4627 C   0  0  0  0  0  0  0  0  0  0  0  0
   13.2918  -13.9294   19.2726 O   0  0  0  0  0  0  0  0  0  0  0  0
   12.8749  -12.6768   21.0600 N   0  0  0  0  0  0  0  0  0  0  0  0
   12.6289  -12.1130   22.4023 C   0  0  0  0  0  0  0  0  0  0  0  0
   13.1808  -10.7529   21.9585 C   0  0  0  0  0  0  0  0  0  0  0  0
   13.1504  -11.3342   20.5365 C   0  0  0  0  0  0  0  0  0  0  0  0
   14.4877  -11.4318   19.8322 C   0  0  0  0  0  0  0  0  0  0  0  0
   14.5784  -11.0116   18.6959 O   0  0  0  0  0  0  0  0  0  0  0  0
   15.5928  -11.8326   20.4868 N   0  0  0  0  0  0  0  0  0  0  0  0
   15.5478  -12.1043   21.4319 H   0  0  0  0  0  0  0  0  0  0  0  0
   16.8666  -11.8552   19.7589 C   0  0  0  0  0  0  0  0  0  0  0  0
   17.9240  -12.3595   20.6972 C   0  0  0  0  0  0  0  0  0  0  0  0
   17.5569  -12.8891   21.9235 C   0  0  0  0  0  0  0  0  0  0  0  0
   18.5362  -13.3555   22.7846 C   0  0  0  0  0  0  0  0  0  0  0  0
   19.8892  -13.3078   22.4011 C   0  0  0  0  0  0  0  0  0  0  0  0
   20.2537  -12.7646   21.1587 C   0  0  0  0  0  0  0  0  0  0  0  0
   19.2573  -12.3175   20.3054 C   0  0  0  0  0  0  0  0  0  0  0  0
   20.9377  -13.7694   23.3465 C   0  0  0  0  0  0  0  0  0  0  0  0
   21.5792  -14.8952   23.1311 N   0  0  0  0  0  0  0  0  0  0  0  0
   21.1988  -13.0574   24.4923 N   0  0  0  0  0  0  0  0  0  0  0  0
   21.4011  -15.4146   22.3140 H   0  0  0  0  0  0  0  0  0  0  0  0
   20.7247  -12.2121   24.6654 H   0  0  0  0  0  0  0  0  0  0  0  0
   21.8601  -13.3925   25.1402 H   0  0  0  0  0  0  0  0  0  0  0  0
   12.7757  -15.1707   21.2137 C   0  0  0  0  0  0  0  0  0  0  0  0
   12.7103  -16.3517   20.2240 C   0  0  0  0  0  0  0  0  0  0  0  0
   12.6969  -17.6817   20.9976 C   0  0  0  0  0  0  0  0  0  0  0  0
   12.6277  -18.8607   20.0147 C   0  0  0  0  0  0  0  0  0  0  0  0
   11.3566  -18.7755   19.1558 C   0  0  0  0  0  0  0  0  0  0  0  0
   11.3193  -17.4566   18.3707 C   0  0  0  0  0  0  0  0  0  0  0  0
   11.4479  -16.2613   19.3358 C   0  0  0  0  0  0  0  0  0  0  0  0
   13.9263  -15.3147   22.1386 N   0  0  0  0  0  0  0  0  0  0  0  0
   14.0086  -14.4538   22.6794 H   0  0  0  0  0  0  0  0  0  0  0  0
   15.2272  -15.5694   21.4761 C   0  0  0  0  0  0  0  0  0  0  0  0
   16.4863  -16.2877   23.4306 N   0  0  0  0  0  0  0  0  0  0  0  0
   16.0319  -16.6172   22.2045 C   0  0  0  0  0  0  0  0  0  0  0  0
   16.2526  -17.7211   21.7210 O   0  0  0  0  0  0  0  0  0  0  0  0
   16.2750  -15.3918   23.7799 H   0  0  0  0  0  0  0  0  0  0  0  0
   17.2804  -17.1940   24.2751 C   0  0  0  0  0  0  0  0  0  0  0  0
   18.7131  -15.7064   25.7186 C   0  0  0  0  0  0  0  0  0  0  0  0
   18.6862  -16.6232   24.4935 C   0  0  0  0  0  0  0  0  0  0  0  0
 39 40  1  0  0  0
 40 38  1  0  0  0
 38 34  1  0  0  0
 34 35  1  0  0  0
 35 36  2  0  0  0
 35 33  1  0  0  0
 33 31  1  0  0  0
 31 24  1  0  0  0
 24 25  1  0  0  0
 24  1  1  0  0  0
 25 26  1  0  0  0
 25 30  1  0  0  0
 26 27  1  0  0  0
 27 28  1  0  0  0
 28 29  1  0  0  0
 29 30  1  0  0  0
  1  2  2  0  0  0
  1  3  1  0  0  0
  3  4  1  0  0  0
  3  6  1  0  0  0
  4  5  1  0  0  0
  5  6  1  0  0  0
  6  7  1  0  0  0
  7  8  2  0  0  0
  7  9  1  0  0  0
  9 11  1  0  0  0
 11 12  1  0  0  0
 12 13  1  0  0  0
 12 17  2  0  0  0
 13 14  2  0  0  0
 14 15  1  0  0  0
 15 16  2  0  0  0
 15 18  1  0  0  0
 16 17  1  0  0  0
 18 19  2  0  0  0
 18 20  1  0  0  0
 34 37  1  0  0  0
 31 32  1  0  0  0
  9 10  1  0  0  0
 19 21  1  0  0  0
 20 22  1  0  0  0
 20 23  1  0  0  0
M  END
> <minimizedAffinity>
-8.11114

$$$$
4BAK_M67_B_1287


 40 42  0  0  0  0  0  0  0  0999 V2000
   17.9036  -13.3834   22.1191 C   0  0  0  0  0  0  0  0  0  0  0  0
   16.8807  -12.7423   22.3676 O   0  0  0  0  0  0  0  0  0  0  0  0
   18.7825  -12.8815   21.2267 N   0  0  0  0  0  0  0  0  0  0  0  0
   20.0375  -13.2731   20.5546 C   0  0  0  0  0  0  0  0  0  0  0  0
   19.8421  -12.1780   19.4991 C   0  0  0  0  0  0  0  0  0  0  0  0
   18.7095  -11.6688   20.4040 C   0  0  0  0  0  0  0  0  0  0  0  0
   17.3237  -11.6669   19.7930 C   0  0  0  0  0  0  0  0  0  0  0  0
   16.9857  -12.6170   19.1154 O   0  0  0  0  0  0  0  0  0  0  0  0
   16.4247  -10.7162   20.1065 N   0  0  0  0  0  0  0  0  0  0  0  0
   16.6617   -9.9801   20.7158 H   0  0  0  0  0  0  0  0  0  0  0  0
   15.0829  -10.8021   19.5191 C   0  0  0  0  0  0  0  0  0  0  0  0
   14.0864  -10.7700   20.6410 C   0  0  0  0  0  0  0  0  0  0  0  0
   13.6671  -11.9565   21.2202 C   0  0  0  0  0  0  0  0  0  0  0  0
   12.7495  -11.9213   22.2569 C   0  0  0  0  0  0  0  0  0  0  0  0
   12.2676  -10.6856   22.7265 C   0  0  0  0  0  0  0  0  0  0  0  0
   12.6933   -9.4875   22.1306 C   0  0  0  0  0  0  0  0  0  0  0  0
   13.6236   -9.5438   21.1049 C   0  0  0  0  0  0  0  0  0  0  0  0
   11.2511  -10.6566   23.8092 C   0  0  0  0  0  0  0  0  0  0  0  0
   10.5995  -11.7481   24.1398 N   0  0  0  0  0  0  0  0  0  0  0  0
   10.9334   -9.4721   24.4289 N   0  0  0  0  0  0  0  0  0  0  0  0
   10.8177  -12.6030   23.7031 H   0  0  0  0  0  0  0  0  0  0  0  0
   11.4144   -8.6471   24.1900 H   0  0  0  0  0  0  0  0  0  0  0  0
   10.2247   -9.4486   25.1119 H   0  0  0  0  0  0  0  0  0  0  0  0
   18.0973  -14.7253   22.7705 C   0  0  0  0  0  0  0  0  0  0  0  0
   18.1144  -15.8331   21.6977 C   0  0  0  0  0  0  0  0  0  0  0  0
   18.8059  -17.0898   22.2549 C   0  0  0  0  0  0  0  0  0  0  0  0
   18.8211  -18.1972   21.1899 C   0  0  0  0  0  0  0  0  0  0  0  0
   17.3893  -18.5653   20.7712 C   0  0  0  0  0  0  0  0  0  0  0  0
   16.6532  -17.3374   20.2169 C   0  0  0  0  0  0  0  0  0  0  0  0
   16.6789  -16.1929   21.2495 C   0  0  0  0  0  0  0  0  0  0  0  0
   19.3880  -14.6706   23.4993 N   0  0  0  0  0  0  0  0  0  0  0  0
   19.8829  -15.5472   23.3347 H   0  0  0  0  0  0  0  0  0  0  0  0
   19.2664  -14.4776   24.9635 C   0  0  0  0  0  0  0  0  0  0  0  0
   21.0065  -16.1235   25.3932 N   0  0  0  0  0  0  0  0  0  0  0  0
   19.7826  -15.6693   25.7312 C   0  0  0  0  0  0  0  0  0  0  0  0
   19.1363  -16.1945   26.6298 O   0  0  0  0  0  0  0  0  0  0  0  0
   21.4908  -15.6622   24.6707 H   0  0  0  0  0  0  0  0  0  0  0  0
   21.6577  -17.2707   26.0451 C   0  0  0  0  0  0  0  0  0  0  0  0
   23.8927  -17.3995   27.2016 C   0  0  0  0  0  0  0  0  0  0  0  0
   23.1779  -17.1936   25.8642 C   0  0  0  0  0  0  0  0  0  0  0  0
 39 40  1  0  0  0
 40 38  1  0  0  0
 38 34  1  0  0  0
 34 35  1  0  0  0
 35 36  2  0  0  0
 35 33  1  0  0  0
 33 31  1  0  0  0
 31 24  1  0  0  0
 24 25  1  0  0  0
 24  1  1  0  0  0
 25 26  1  0  0  0
 25 30  1  0  0  0
 26 27  1  0  0  0
 27 28  1  0  0  0
 28 29  1  0  0  0
 29 30  1  0  0  0
  1  2  2  0  0  0
  1  3  1  0  0  0
  3  4  1  0  0  0
  3  6  1  0  0  0
  4  5  1  0  0  0
  5  6  1  0  0  0
  6  7  1  0  0  0
  7  8  2  0  0  0
  7  9  1  0  0  0
  9 11  1  0  0  0
 11 12  1  0  0  0
 12 13  1  0  0  0
 12 17  2  0  0  0
 13 14  2  0  0  0
 14 15  1  0  0  0
 15 16  2  0  0  0
 15 18  1  0  0  0
 16 17  1  0  0  0
 18 19  2  0  0  0
 18 20  1  0  0  0
 34 37  1  0  0  0
 31 32  1  0  0  0
  9 10  1  0  0  0
 19 21  1  0  0  0
 20 22  1  0  0  0
 20 23  1  0  0  0
M  END
> <minimizedAffinity>
-8.03446

$$$$
4BAK_M67_B_1287


 40 42  0  0  0  0  0  0  0  0999 V2000
   14.9778  -13.8364   21.0114 C   0  0  0  0  0  0  0  0  0  0  0  0
   14.3943  -13.9236   22.0937 O   0  0  0  0  0  0  0  0  0  0  0  0
   14.9364  -14.8874   20.1662 N   0  0  0  0  0  0  0  0  0  0  0  0
   15.5070  -15.2990   18.8681 C   0  0  0  0  0  0  0  0  0  0  0  0
   15.1412  -16.7624   19.1441 C   0  0  0  0  0  0  0  0  0  0  0  0
   14.3389  -16.2167   20.3355 C   0  0  0  0  0  0  0  0  0  0  0  0
   14.7772  -16.6954   21.7039 C   0  0  0  0  0  0  0  0  0  0  0  0
   13.9550  -17.2231   22.4261 O   0  0  0  0  0  0  0  0  0  0  0  0
   16.0730  -16.6803   22.0660 N   0  0  0  0  0  0  0  0  0  0  0  0
   16.7615  -16.3245   21.4589 H   0  0  0  0  0  0  0  0  0  0  0  0
   16.4359  -17.2064   23.3867 C   0  0  0  0  0  0  0  0  0  0  0  0
   17.8664  -16.8375   23.6519 C   0  0  0  0  0  0  0  0  0  0  0  0
   18.8660  -17.3316   22.8298 C   0  0  0  0  0  0  0  0  0  0  0  0
   20.1840  -16.9861   23.0772 C   0  0  0  0  0  0  0  0  0  0  0  0
   20.4954  -16.1229   24.1439 C   0  0  0  0  0  0  0  0  0  0  0  0
   19.4772  -15.6304   24.9758 C   0  0  0  0  0  0  0  0  0  0  0  0
   18.1632  -15.9759   24.7019 C   0  0  0  0  0  0  0  0  0  0  0  0
   21.9146  -15.7909   24.4304 C   0  0  0  0  0  0  0  0  0  0  0  0
   22.2505  -15.2337   25.5714 N   0  0  0  0  0  0  0  0  0  0  0  0
   22.8809  -16.0007   23.4764 N   0  0  0  0  0  0  0  0  0  0  0  0
   21.5675  -15.0779   26.2631 H   0  0  0  0  0  0  0  0  0  0  0  0
   22.6419  -16.4175   22.6171 H   0  0  0  0  0  0  0  0  0  0  0  0
   23.8122  -15.7343   23.6521 H   0  0  0  0  0  0  0  0  0  0  0  0
   15.7633  -12.5903   20.7068 C   0  0  0  0  0  0  0  0  0  0  0  0
   17.2273  -12.9562   20.3887 C   0  0  0  0  0  0  0  0  0  0  0  0
   18.0044  -11.6930   19.9785 C   0  0  0  0  0  0  0  0  0  0  0  0
   19.4648  -12.0532   19.6646 C   0  0  0  0  0  0  0  0  0  0  0  0
   20.1453  -12.6748   20.8939 C   0  0  0  0  0  0  0  0  0  0  0  0
   19.3972  -13.9362   21.3486 C   0  0  0  0  0  0  0  0  0  0  0  0
   17.9142  -13.6073   21.6114 C   0  0  0  0  0  0  0  0  0  0  0  0
   15.1120  -11.9416   19.5427 N   0  0  0  0  0  0  0  0  0  0  0  0
   15.6729  -11.1328   19.2751 H   0  0  0  0  0  0  0  0  0  0  0  0
   13.7245  -11.4808   19.7849 C   0  0  0  0  0  0  0  0  0  0  0  0
   12.6802  -10.3105   21.6453 N   0  0  0  0  0  0  0  0  0  0  0  0
   13.6796  -10.3139   20.7400 C   0  0  0  0  0  0  0  0  0  0  0  0
   14.5148   -9.4180   20.7129 O   0  0  0  0  0  0  0  0  0  0  0  0
   12.0390  -11.0575   21.6333 H   0  0  0  0  0  0  0  0  0  0  0  0
   12.4957   -9.2515   22.6501 C   0  0  0  0  0  0  0  0  0  0  0  0
   11.3709  -11.2676   23.6598 C   0  0  0  0  0  0  0  0  0  0  0  0
   11.6856   -9.7808   23.8390 C   0  0  0  0  0  0  0  0  0  0  0  0
 39 40  1  0  0  0
 40 38  1  0  0  0
 38 34  1  0  0  0
 34 35  1  0  0  0
 35 36  2  0  0  0
 35 33  1  0  0  0
 33 31  1  0  0  0
 31 24  1  0  0  0
 24 25  1  0  0  0
 24  1  1  0  0  0
 25 26  1  0  0  0
 25 30  1  0  0  0
 26 27  1  0  0  0
 27 28  1  0  0  0
 28 29  1  0  0  0
 29 30  1  0  0  0
  1  2  2  0  0  0
  1  3  1  0  0  0
  3  4  1  0  0  0
  3  6  1  0  0  0
  4  5  1  0  0  0
  5  6  1  0  0  0
  6  7  1  0  0  0
  7  8  2  0  0  0
  7  9  1  0  0  0
  9 11  1  0  0  0
 11 12  1  0  0  0
 12 13  1  0  0  0
 12 17  2  0  0  0
 13 14  2  0  0  0
 14 15  1  0  0  0
 15 16  2  0  0  0
 15 18  1  0  0  0
 16 17  1  0  0  0
 18 19  2  0  0  0
 18 20  1  0  0  0
 34 37  1  0  0  0
 31 32  1  0  0  0
  9 10  1  0  0  0
 19 21  1  0  0  0
 20 22  1  0  0  0
 20 23  1  0  0  0
M  END
> <minimizedAffinity>
-7.99465

$$$$
4BAK_M67_B_1287


 40 42  0  0  0  0  0  0  0  0999 V2000
   16.8119  -16.5165   21.1380 C   0  0  0  0  0  0  0  0  0  0  0  0
   16.5508  -16.3623   19.9434 O   0  0  0  0  0  0  0  0  0  0  0  0
   16.1364  -17.4552   21.8332 N   0  0  0  0  0  0  0  0  0  0  0  0
   16.0165  -17.9459   23.2207 C   0  0  0  0  0  0  0  0  0  0  0  0
   14.7011  -18.6571   22.8810 C   0  0  0  0  0  0  0  0  0  0  0  0
   15.0402  -18.3370   21.4169 C   0  0  0  0  0  0  0  0  0  0  0  0
   14.0522  -17.4514   20.6866 C   0  0  0  0  0  0  0  0  0  0  0  0
   13.4555  -17.9094   19.7326 O   0  0  0  0  0  0  0  0  0  0  0  0
   13.7216  -16.2365   21.1611 N   0  0  0  0  0  0  0  0  0  0  0  0
   14.1426  -15.8830   21.9779 H   0  0  0  0  0  0  0  0  0  0  0  0
   12.7190  -15.4508   20.4329 C   0  0  0  0  0  0  0  0  0  0  0  0
   12.9609  -14.0010   20.7366 C   0  0  0  0  0  0  0  0  0  0  0  0
   12.7218  -13.5184   22.0129 C   0  0  0  0  0  0  0  0  0  0  0  0
   12.9492  -12.1804   22.2887 C   0  0  0  0  0  0  0  0  0  0  0  0
   13.4391  -11.3291   21.2812 C   0  0  0  0  0  0  0  0  0  0  0  0
   13.6740  -11.8246   19.9886 C   0  0  0  0  0  0  0  0  0  0  0  0
   13.4547  -13.1699   19.7374 C   0  0  0  0  0  0  0  0  0  0  0  0
   13.6396   -9.8862   21.5715 C   0  0  0  0  0  0  0  0  0  0  0  0
   12.9177   -9.2853   22.4896 N   0  0  0  0  0  0  0  0  0  0  0  0
   14.5351   -9.1497   20.8342 N   0  0  0  0  0  0  0  0  0  0  0  0
   12.2725   -9.8019   23.0246 H   0  0  0  0  0  0  0  0  0  0  0  0
   15.0821   -9.5883   20.1431 H   0  0  0  0  0  0  0  0  0  0  0  0
   14.6297   -8.1834   20.9971 H   0  0  0  0  0  0  0  0  0  0  0  0
   17.8237  -15.6103   21.7844 C   0  0  0  0  0  0  0  0  0  0  0  0
   17.9293  -14.2909   20.9928 C   0  0  0  0  0  0  0  0  0  0  0  0
   17.0741  -13.2055   21.6698 C   0  0  0  0  0  0  0  0  0  0  0  0
   17.1801  -11.8881   20.8861 C   0  0  0  0  0  0  0  0  0  0  0  0
   18.6381  -11.4064   20.8317 C   0  0  0  0  0  0  0  0  0  0  0  0
   19.5349  -12.4636   20.1721 C   0  0  0  0  0  0  0  0  0  0  0  0
   19.3966  -13.8106   20.9091 C   0  0  0  0  0  0  0  0  0  0  0  0
   17.3600  -15.3630   23.1714 N   0  0  0  0  0  0  0  0  0  0  0  0
   17.2121  -14.3599   23.2826 H   0  0  0  0  0  0  0  0  0  0  0  0
   18.2971  -15.8110   24.2283 C   0  0  0  0  0  0  0  0  0  0  0  0
   19.5916  -13.7582   24.4061 N   0  0  0  0  0  0  0  0  0  0  0  0
   19.6162  -15.0827   24.1539 C   0  0  0  0  0  0  0  0  0  0  0  0
   20.6650  -15.6603   23.8945 O   0  0  0  0  0  0  0  0  0  0  0  0
   18.7256  -13.3410   24.6190 H   0  0  0  0  0  0  0  0  0  0  0  0
   20.7883  -12.9023   24.3805 C   0  0  0  0  0  0  0  0  0  0  0  0
   20.9844  -13.2667   26.8660 C   0  0  0  0  0  0  0  0  0  0  0  0
   20.9899  -12.2280   25.7422 C   0  0  0  0  0  0  0  0  0  0  0  0
 39 40  1  0  0  0
 40 38  1  0  0  0
 38 34  1  0  0  0
 34 35  1  0  0  0
 35 36  2  0  0  0
 35 33  1  0  0  0
 33 31  1  0  0  0
 31 24  1  0  0  0
 24 25  1  0  0  0
 24  1  1  0  0  0
 25 26  1  0  0  0
 25 30  1  0  0  0
 26 27  1  0  0  0
 27 28  1  0  0  0
 28 29  1  0  0  0
 29 30  1  0  0  0
  1  2  2  0  0  0
  1  3  1  0  0  0
  3  4  1  0  0  0
  3  6  1  0  0  0
  4  5  1  0  0  0
  5  6  1  0  0  0
  6  7  1  0  0  0
  7  8  2  0  0  0
  7  9  1  0  0  0
  9 11  1  0  0  0
 11 12  1  0  0  0
 12 13  1  0  0  0
 12 17  2  0  0  0
 13 14  2  0  0  0
 14 15  1  0  0  0
 15 16  2  0  0  0
 15 18  1  0  0  0
 16 17  1  0  0  0
 18 19  2  0  0  0
 18 20  1  0  0  0
 34 37  1  0  0  0
 31 32  1  0  0  0
  9 10  1  0  0  0
 19 21  1  0  0  0
 20 22  1  0  0  0
 20 23  1  0  0  0
M  END
> <minimizedAffinity>
-7.99182

$$$$
4BAK_M67_B_1287


 40 42  0  0  0  0  0  0  0  0999 V2000
   14.0242  -13.8315   20.0999 C   0  0  0  0  0  0  0  0  0  0  0  0
   14.6784  -14.1532   19.1060 O   0  0  0  0  0  0  0  0  0  0  0  0
   14.0639  -12.5480   20.5144 N   0  0  0  0  0  0  0  0  0  0  0  0
   13.5635  -11.7191   21.6292 C   0  0  0  0  0  0  0  0  0  0  0  0
   14.5677  -10.6115   21.2880 C   0  0  0  0  0  0  0  0  0  0  0  0
   14.8371  -11.4106   20.0036 C   0  0  0  0  0  0  0  0  0  0  0  0
   16.2522  -11.9199   19.8250 C   0  0  0  0  0  0  0  0  0  0  0  0
   16.8042  -11.7409   18.7576 O   0  0  0  0  0  0  0  0  0  0  0  0
   16.9472  -12.4254   20.8603 N   0  0  0  0  0  0  0  0  0  0  0  0
   16.5364  -12.5062   21.7513 H   0  0  0  0  0  0  0  0  0  0  0  0
   18.3317  -12.8533   20.6303 C   0  0  0  0  0  0  0  0  0  0  0  0
   18.9454  -13.1629   21.9646 C   0  0  0  0  0  0  0  0  0  0  0  0
   20.3151  -13.0430   22.1340 C   0  0  0  0  0  0  0  0  0  0  0  0
   20.8761  -13.3274   23.3679 C   0  0  0  0  0  0  0  0  0  0  0  0
   20.0527  -13.7138   24.4414 C   0  0  0  0  0  0  0  0  0  0  0  0
   18.6659  -13.8381   24.2603 C   0  0  0  0  0  0  0  0  0  0  0  0
   18.1226  -13.5341   23.0221 C   0  0  0  0  0  0  0  0  0  0  0  0
   20.6650  -14.0592   25.7499 C   0  0  0  0  0  0  0  0  0  0  0  0
   21.9038  -13.7137   26.0171 N   0  0  0  0  0  0  0  0  0  0  0  0
   19.9637  -14.8037   26.6674 N   0  0  0  0  0  0  0  0  0  0  0  0
   22.4170  -13.1804   25.3679 H   0  0  0  0  0  0  0  0  0  0  0  0
   19.0345  -15.0690   26.4791 H   0  0  0  0  0  0  0  0  0  0  0  0
   20.3903  -15.0718   27.5132 H   0  0  0  0  0  0  0  0  0  0  0  0
   13.2631  -14.8937   20.8448 C   0  0  0  0  0  0  0  0  0  0  0  0
   12.9746  -16.0866   19.9108 C   0  0  0  0  0  0  0  0  0  0  0  0
   12.6886  -17.3470   20.7459 C   0  0  0  0  0  0  0  0  0  0  0  0
   12.3968  -18.5369   19.8186 C   0  0  0  0  0  0  0  0  0  0  0  0
   11.1772  -18.2448   18.9308 C   0  0  0  0  0  0  0  0  0  0  0  0
   11.4115  -16.9859   18.0838 C   0  0  0  0  0  0  0  0  0  0  0  0
   11.7649  -15.7927   18.9938 C   0  0  0  0  0  0  0  0  0  0  0  0
   14.1078  -15.3080   21.9916 N   0  0  0  0  0  0  0  0  0  0  0  0
   14.0686  -14.5722   22.6968 H   0  0  0  0  0  0  0  0  0  0  0  0
   15.5309  -15.5519   21.6580 C   0  0  0  0  0  0  0  0  0  0  0  0
   16.2571  -16.7081   23.6723 N   0  0  0  0  0  0  0  0  0  0  0  0
   16.0631  -16.7879   22.3402 C   0  0  0  0  0  0  0  0  0  0  0  0
   16.2944  -17.8221   21.7256 O   0  0  0  0  0  0  0  0  0  0  0  0
   16.0478  -15.8583   24.1230 H   0  0  0  0  0  0  0  0  0  0  0  0
   16.7647  -17.8220   24.4890 C   0  0  0  0  0  0  0  0  0  0  0  0
   19.2353  -17.5888   24.0520 C   0  0  0  0  0  0  0  0  0  0  0  0
   18.1245  -17.4601   25.0968 C   0  0  0  0  0  0  0  0  0  0  0  0
 39 40  1  0  0  0
 40 38  1  0  0  0
 38 34  1  0  0  0
 34 35  1  0  0  0
 35 36  2  0  0  0
 35 33  1  0  0  0
 33 31  1  0  0  0
 31 24  1  0  0  0
 24 25  1  0  0  0
 24  1  1  0  0  0
 25 26  1  0  0  0
 25 30  1  0  0  0
 26 27  1  0  0  0
 27 28  1  0  0  0
 28 29  1  0  0  0
 29 30  1  0  0  0
  1  2  2  0  0  0
  1  3  1  0  0  0
  3  4  1  0  0  0
  3  6  1  0  0  0
  4  5  1  0  0  0
  5  6  1  0  0  0
  6  7  1  0  0  0
  7  8  2  0  0  0
  7  9  1  0  0  0
  9 11  1  0  0  0
 11 12  1  0  0  0
 12 13  1  0  0  0
 12 17  2  0  0  0
 13 14  2  0  0  0
 14 15  1  0  0  0
 15 16  2  0  0  0
 15 18  1  0  0  0
 16 17  1  0  0  0
 18 19  2  0  0  0
 18 20  1  0  0  0
 34 37  1  0  0  0
 31 32  1  0  0  0
  9 10  1  0  0  0
 19 21  1  0  0  0
 20 22  1  0  0  0
 20 23  1  0  0  0
M  END
> <minimizedAffinity>
-7.73255

$$$$
4BAK_M67_B_1287


 40 42  0  0  0  0  0  0  0  0999 V2000
   18.0210  -17.6896   21.7514 C   0  0  0  0  0  0  0  0  0  0  0  0
   17.5191  -17.9052   20.6465 O   0  0  0  0  0  0  0  0  0  0  0  0
   17.4494  -18.2418   22.8418 N   0  0  0  0  0  0  0  0  0  0  0  0
   17.5989  -18.2236   24.3106 C   0  0  0  0  0  0  0  0  0  0  0  0
   16.1960  -18.8177   24.4849 C   0  0  0  0  0  0  0  0  0  0  0  0
   16.2318  -19.0509   22.9666 C   0  0  0  0  0  0  0  0  0  0  0  0
   15.1719  -18.3293   22.1605 C   0  0  0  0  0  0  0  0  0  0  0  0
   14.4385  -18.9838   21.4466 O   0  0  0  0  0  0  0  0  0  0  0  0
   14.9375  -17.0158   22.3345 N   0  0  0  0  0  0  0  0  0  0  0  0
   15.4756  -16.4876   22.9674 H   0  0  0  0  0  0  0  0  0  0  0  0
   13.8612  -16.3892   21.5587 C   0  0  0  0  0  0  0  0  0  0  0  0
   14.3410  -15.0385   21.1135 C   0  0  0  0  0  0  0  0  0  0  0  0
   13.8600  -13.8995   21.7382 C   0  0  0  0  0  0  0  0  0  0  0  0
   14.3080  -12.6557   21.3254 C   0  0  0  0  0  0  0  0  0  0  0  0
   15.2597  -12.5589   20.2936 C   0  0  0  0  0  0  0  0  0  0  0  0
   15.7384  -13.7179   19.6617 C   0  0  0  0  0  0  0  0  0  0  0  0
   15.2891  -14.9535   20.1001 C   0  0  0  0  0  0  0  0  0  0  0  0
   15.7034  -11.2207   19.8262 C   0  0  0  0  0  0  0  0  0  0  0  0
   16.5603  -11.1116   18.8367 N   0  0  0  0  0  0  0  0  0  0  0  0
   15.2742  -10.0852   20.4699 N   0  0  0  0  0  0  0  0  0  0  0  0
   16.8756  -11.9176   18.3674 H   0  0  0  0  0  0  0  0  0  0  0  0
   14.6321  -10.1535   21.2130 H   0  0  0  0  0  0  0  0  0  0  0  0
   15.6088   -9.2032   20.1879 H   0  0  0  0  0  0  0  0  0  0  0  0
   19.2077  -16.7700   21.8443 C   0  0  0  0  0  0  0  0  0  0  0  0
   18.7704  -15.3176   21.5655 C   0  0  0  0  0  0  0  0  0  0  0  0
   18.3303  -14.6434   22.8768 C   0  0  0  0  0  0  0  0  0  0  0  0
   17.8977  -13.1946   22.6035 C   0  0  0  0  0  0  0  0  0  0  0  0
   19.0572  -12.3885   21.9981 C   0  0  0  0  0  0  0  0  0  0  0  0
   19.5395  -13.0303   20.6894 C   0  0  0  0  0  0  0  0  0  0  0  0
   19.9222  -14.5040   20.9312 C   0  0  0  0  0  0  0  0  0  0  0  0
   19.7551  -16.9068   23.2161 N   0  0  0  0  0  0  0  0  0  0  0  0
   19.4780  -16.0843   23.7519 H   0  0  0  0  0  0  0  0  0  0  0  0
   21.2304  -17.0276   23.2865 C   0  0  0  0  0  0  0  0  0  0  0  0
   21.7489  -14.6996   23.7692 N   0  0  0  0  0  0  0  0  0  0  0  0
   21.8368  -15.9791   24.1859 C   0  0  0  0  0  0  0  0  0  0  0  0
   22.3696  -16.2647   25.2515 O   0  0  0  0  0  0  0  0  0  0  0  0
   21.3031  -14.5196   22.9100 H   0  0  0  0  0  0  0  0  0  0  0  0
   22.2829  -13.5578   24.5283 C   0  0  0  0  0  0  0  0  0  0  0  0
   20.9654  -13.0502   26.6154 C   0  0  0  0  0  0  0  0  0  0  0  0
   21.1373  -12.7344   25.1279 C   0  0  0  0  0  0  0  0  0  0  0  0
 39 40  1  0  0  0
 40 38  1  0  0  0
 38 34  1  0  0  0
 34 35  1  0  0  0
 35 36  2  0  0  0
 35 33  1  0  0  0
 33 31  1  0  0  0
 31 24  1  0  0  0
 24 25  1  0  0  0
 24  1  1  0  0  0
 25 26  1  0  0  0
 25 30  1  0  0  0
 26 27  1  0  0  0
 27 28  1  0  0  0
 28 29  1  0  0  0
 29 30  1  0  0  0
  1  2  2  0  0  0
  1  3  1  0  0  0
  3  4  1  0  0  0
  3  6  1  0  0  0
  4  5  1  0  0  0
  5  6  1  0  0  0
  6  7  1  0  0  0
  7  8  2  0  0  0
  7  9  1  0  0  0
  9 11  1  0  0  0
 11 12  1  0  0  0
 12 13  1  0  0  0
 12 17  2  0  0  0
 13 14  2  0  0  0
 14 15  1  0  0  0
 15 16  2  0  0  0
 15 18  1  0  0  0
 16 17  1  0  0  0
 18 19  2  0  0  0
 18 20  1  0  0  0
 34 37  1  0  0  0
 31 32  1  0  0  0
  9 10  1  0  0  0
 19 21  1  0  0  0
 20 22  1  0  0  0
 20 23  1  0  0  0
M  END
> <minimizedAffinity>
-7.63306

$$$$
