1PFU_MPJ_A_553


 13 12  0  0  0  0  0  0  0  0999 V2000
   12.9475    9.8241   19.2744 N   0  0  0  0  0  0  0  0  0  0  0  0
   13.8805   10.7541   19.9652 C   0  0  0  0  0  0  0  0  0  0  0  0
   11.9911   10.1630   19.3777 H   0  0  0  0  0  0  0  0  0  0  0  0
   13.0255    8.8949   19.6879 H   0  0  0  0  0  0  0  0  0  0  0  0
   15.8900   10.1476   18.1526 O   0  0  0  0  0  0  0  0  0  0  0  0
   15.8165    8.9739   20.8484 O   0  0  0  0  0  0  0  0  0  0  0  0
   15.5948   10.2548   19.8480 P   0  0  0  0  0  0  0  0  0  0  0  0
   15.5990    9.2323   21.7577 H   0  0  0  0  0  0  0  0  0  0  0  0
   15.7794   11.5386   20.3195 H   0  0  0  0  0  0  0  0  0  0  0  0
   13.5358   10.9771   21.4469 C   0  0  0  0  0  0  0  0  0  0  0  0
   14.4018   12.0107   22.1282 C   0  0  0  0  0  0  0  0  0  0  0  0
   14.4669   11.5901   23.8801 S   0  0  0  0  0  0  0  0  0  0  0  0
   14.1707    9.7976   23.8055 C   0  0  0  0  0  0  0  0  0  0  0  0
  1  2  1  0  0  0
  2 10  1  0  0  0
  2  7  1  0  0  0
 10 11  1  0  0  0
 11 12  1  0  0  0
 12 13  1  0  0  0
  5  7  2  0  0  0
  6  7  1  0  0  0
  1  3  1  0  0  0
  1  4  1  0  0  0
  6  8  1  0  0  0
  7  9  1  0  0  0
M  END
> <minimizedAffinity>
-3.85119

$$$$
1PFU_MPJ_A_553


 13 12  0  0  0  0  0  0  0  0999 V2000
   12.9340   10.3627   20.8451 N   0  0  0  0  0  0  0  0  0  0  0  0
   14.1067   11.2486   20.6155 C   0  0  0  0  0  0  0  0  0  0  0  0
   12.1776   10.9022   21.2661 H   0  0  0  0  0  0  0  0  0  0  0  0
   13.1994    9.6030   21.4718 H   0  0  0  0  0  0  0  0  0  0  0  0
   15.2486   10.5755   18.1795 O   0  0  0  0  0  0  0  0  0  0  0  0
   15.6305    8.9303   20.5873 O   0  0  0  0  0  0  0  0  0  0  0  0
   15.4997   10.4029   19.8766 P   0  0  0  0  0  0  0  0  0  0  0  0
   15.7678    9.0425   21.5410 H   0  0  0  0  0  0  0  0  0  0  0  0
   16.1675   11.4873   20.4081 H   0  0  0  0  0  0  0  0  0  0  0  0
   14.5884   11.9669   21.8868 C   0  0  0  0  0  0  0  0  0  0  0  0
   14.3981   11.1646   23.1527 C   0  0  0  0  0  0  0  0  0  0  0  0
   13.9812   12.3240   24.4689 S   0  0  0  0  0  0  0  0  0  0  0  0
   13.5806   11.1710   25.8166 C   0  0  0  0  0  0  0  0  0  0  0  0
  1  2  1  0  0  0
  2 10  1  0  0  0
  2  7  1  0  0  0
 10 11  1  0  0  0
 11 12  1  0  0  0
 12 13  1  0  0  0
  5  7  2  0  0  0
  6  7  1  0  0  0
  1  3  1  0  0  0
  1  4  1  0  0  0
  6  8  1  0  0  0
  7  9  1  0  0  0
M  END
> <minimizedAffinity>
-3.56107

$$$$
1PFU_MPJ_A_553


 13 12  0  0  0  0  0  0  0  0999 V2000
   12.6980   10.1670   20.8537 N   0  0  0  0  0  0  0  0  0  0  0  0
   13.8626   11.0175   21.2181 C   0  0  0  0  0  0  0  0  0  0  0  0
   11.8656   10.5052   21.3365 H   0  0  0  0  0  0  0  0  0  0  0  0
   12.8822    9.2022   21.1288 H   0  0  0  0  0  0  0  0  0  0  0  0
   15.9189   11.9262   19.5940 O   0  0  0  0  0  0  0  0  0  0  0  0
   15.0993    9.1019   19.6374 O   0  0  0  0  0  0  0  0  0  0  0  0
   15.3847   10.5126   20.4243 P   0  0  0  0  0  0  0  0  0  0  0  0
   14.8084    8.4299   20.2735 H   0  0  0  0  0  0  0  0  0  0  0  0
   15.8139   10.4965   21.7358 H   0  0  0  0  0  0  0  0  0  0  0  0
   14.1062   11.1037   22.7337 C   0  0  0  0  0  0  0  0  0  0  0  0
   14.9079    9.9510   23.2915 C   0  0  0  0  0  0  0  0  0  0  0  0
   13.9089    9.1686   24.5723 S   0  0  0  0  0  0  0  0  0  0  0  0
   13.7008   10.5561   25.7289 C   0  0  0  0  0  0  0  0  0  0  0  0
  1  2  1  0  0  0
  2 10  1  0  0  0
  2  7  1  0  0  0
 10 11  1  0  0  0
 11 12  1  0  0  0
 12 13  1  0  0  0
  5  7  2  0  0  0
  6  7  1  0  0  0
  1  3  1  0  0  0
  1  4  1  0  0  0
  6  8  1  0  0  0
  7  9  1  0  0  0
M  END
> <minimizedAffinity>
-3.44316

$$$$
1PFU_MPJ_A_553


 13 12  0  0  0  0  0  0  0  0999 V2000
   15.6917    9.1450   20.4097 N   0  0  0  0  0  0  0  0  0  0  0  0
   15.1925   10.3002   19.6166 C   0  0  0  0  0  0  0  0  0  0  0  0
   14.9562    8.8202   21.0374 H   0  0  0  0  0  0  0  0  0  0  0  0
   16.5028    9.4333   20.9568 H   0  0  0  0  0  0  0  0  0  0  0  0
   15.8061   10.5147   16.9206 O   0  0  0  0  0  0  0  0  0  0  0  0
   17.8901   10.4864   18.9957 O   0  0  0  0  0  0  0  0  0  0  0  0
   16.4062   10.9542   18.4761 P   0  0  0  0  0  0  0  0  0  0  0  0
   18.0431   10.8308   19.8895 H   0  0  0  0  0  0  0  0  0  0  0  0
   15.8649   12.1450   18.9158 H   0  0  0  0  0  0  0  0  0  0  0  0
   14.6640   11.4544   20.4841 C   0  0  0  0  0  0  0  0  0  0  0  0
   13.6181   11.0349   21.4903 C   0  0  0  0  0  0  0  0  0  0  0  0
   14.3021   11.3260   23.1328 S   0  0  0  0  0  0  0  0  0  0  0  0
   14.2166    9.6502   23.8331 C   0  0  0  0  0  0  0  0  0  0  0  0
  1  2  1  0  0  0
  2 10  1  0  0  0
  2  7  1  0  0  0
 10 11  1  0  0  0
 11 12  1  0  0  0
 12 13  1  0  0  0
  5  7  2  0  0  0
  6  7  1  0  0  0
  1  3  1  0  0  0
  1  4  1  0  0  0
  6  8  1  0  0  0
  7  9  1  0  0  0
M  END
> <minimizedAffinity>
-3.37942

$$$$
1PFU_MPJ_A_553


 13 12  0  0  0  0  0  0  0  0999 V2000
   16.0319   12.9314   20.1125 N   0  0  0  0  0  0  0  0  0  0  0  0
   15.5691   11.7706   20.9194 C   0  0  0  0  0  0  0  0  0  0  0  0
   16.0061   13.7753   20.6848 H   0  0  0  0  0  0  0  0  0  0  0  0
   15.4202   13.0496   19.3048 H   0  0  0  0  0  0  0  0  0  0  0  0
   14.1396   10.2965   19.0553 O   0  0  0  0  0  0  0  0  0  0  0  0
   15.8460    9.0147   21.0790 O   0  0  0  0  0  0  0  0  0  0  0  0
   15.5734   10.2292   20.0107 P   0  0  0  0  0  0  0  0  0  0  0  0
   16.7007    9.1542   21.5159 H   0  0  0  0  0  0  0  0  0  0  0  0
   16.6357   10.8481   19.3837 H   0  0  0  0  0  0  0  0  0  0  0  0
   14.1750   11.9716   21.5358 C   0  0  0  0  0  0  0  0  0  0  0  0
   14.0790   11.5500   22.9833 C   0  0  0  0  0  0  0  0  0  0  0  0
   14.6027   12.9514   23.9894 S   0  0  0  0  0  0  0  0  0  0  0  0
   13.3083   12.9492   25.2664 C   0  0  0  0  0  0  0  0  0  0  0  0
  1  2  1  0  0  0
  2 10  1  0  0  0
  2  7  1  0  0  0
 10 11  1  0  0  0
 11 12  1  0  0  0
 12 13  1  0  0  0
  5  7  2  0  0  0
  6  7  1  0  0  0
  1  3  1  0  0  0
  1  4  1  0  0  0
  6  8  1  0  0  0
  7  9  1  0  0  0
M  END
> <minimizedAffinity>
-3.32536

$$$$
1PFU_MPJ_A_553


 13 12  0  0  0  0  0  0  0  0999 V2000
   16.9671    8.7476   23.4235 N   0  0  0  0  0  0  0  0  0  0  0  0
   15.7163    9.5474   23.3315 C   0  0  0  0  0  0  0  0  0  0  0  0
   17.0673    8.3809   24.3701 H   0  0  0  0  0  0  0  0  0  0  0  0
   17.7670    9.3405   23.2022 H   0  0  0  0  0  0  0  0  0  0  0  0
   13.8721   10.9570   21.8138 O   0  0  0  0  0  0  0  0  0  0  0  0
   15.7879    9.0866   20.5966 O   0  0  0  0  0  0  0  0  0  0  0  0
   15.4378   10.2426   21.7064 P   0  0  0  0  0  0  0  0  0  0  0  0
   16.7134    8.8133   20.6954 H   0  0  0  0  0  0  0  0  0  0  0  0
   16.4245   11.1046   22.1397 H   0  0  0  0  0  0  0  0  0  0  0  0
   15.6373   10.6799   24.3685 C   0  0  0  0  0  0  0  0  0  0  0  0
   14.4728   10.5558   25.3230 C   0  0  0  0  0  0  0  0  0  0  0  0
   13.6143   12.1411   25.3357 S   0  0  0  0  0  0  0  0  0  0  0  0
   14.8045   13.1739   24.4285 C   0  0  0  0  0  0  0  0  0  0  0  0
  1  2  1  0  0  0
  2 10  1  0  0  0
  2  7  1  0  0  0
 10 11  1  0  0  0
 11 12  1  0  0  0
 12 13  1  0  0  0
  5  7  2  0  0  0
  6  7  1  0  0  0
  1  3  1  0  0  0
  1  4  1  0  0  0
  6  8  1  0  0  0
  7  9  1  0  0  0
M  END
> <minimizedAffinity>
-3.30368

$$$$
1PFU_MPJ_A_553


 13 12  0  0  0  0  0  0  0  0999 V2000
   13.2848   10.0642   26.1972 N   0  0  0  0  0  0  0  0  0  0  0  0
   14.2917   11.0613   25.7448 C   0  0  0  0  0  0  0  0  0  0  0  0
   13.5128    9.1498   25.8069 H   0  0  0  0  0  0  0  0  0  0  0  0
   12.3583   10.3483   25.8791 H   0  0  0  0  0  0  0  0  0  0  0  0
   12.4881   13.1662   25.6570 O   0  0  0  0  0  0  0  0  0  0  0  0
   15.3552   13.5905   26.1568 O   0  0  0  0  0  0  0  0  0  0  0  0
   13.9887   12.7092   26.3728 P   0  0  0  0  0  0  0  0  0  0  0  0
   16.0881   13.1734   26.6362 H   0  0  0  0  0  0  0  0  0  0  0  0
   13.8030   11.9993   27.5415 H   0  0  0  0  0  0  0  0  0  0  0  0
   14.4315   11.1383   24.2156 C   0  0  0  0  0  0  0  0  0  0  0  0
   14.5120    9.7897   23.5395 C   0  0  0  0  0  0  0  0  0  0  0  0
   16.2318    9.5244   23.0679 S   0  0  0  0  0  0  0  0  0  0  0  0
   16.1372    9.8199   21.2762 C   0  0  0  0  0  0  0  0  0  0  0  0
  1  2  1  0  0  0
  2 10  1  0  0  0
  2  7  1  0  0  0
 10 11  1  0  0  0
 11 12  1  0  0  0
 12 13  1  0  0  0
  5  7  2  0  0  0
  6  7  1  0  0  0
  1  3  1  0  0  0
  1  4  1  0  0  0
  6  8  1  0  0  0
  7  9  1  0  0  0
M  END
> <minimizedAffinity>
-3.25784

$$$$
1PFU_MPJ_A_553


 13 12  0  0  0  0  0  0  0  0999 V2000
   15.6678    9.2400   21.7310 N   0  0  0  0  0  0  0  0  0  0  0  0
   16.5172   10.3865   22.1513 C   0  0  0  0  0  0  0  0  0  0  0  0
   14.9864    9.5566   21.0411 H   0  0  0  0  0  0  0  0  0  0  0  0
   15.1793    8.8630   22.5432 H   0  0  0  0  0  0  0  0  0  0  0  0
   17.8791    8.2290   23.2383 O   0  0  0  0  0  0  0  0  0  0  0  0
   17.3612   10.6810   24.7778 O   0  0  0  0  0  0  0  0  0  0  0  0
   17.7542    9.9440   23.3660 P   0  0  0  0  0  0  0  0  0  0  0  0
   17.3420   11.6418   24.6465 H   0  0  0  0  0  0  0  0  0  0  0  0
   18.5700   10.5856   22.4565 H   0  0  0  0  0  0  0  0  0  0  0  0
   15.7105   11.5809   22.6869 C   0  0  0  0  0  0  0  0  0  0  0  0
   14.3016   11.2302   23.1046 C   0  0  0  0  0  0  0  0  0  0  0  0
   13.9434   12.1450   24.6162 S   0  0  0  0  0  0  0  0  0  0  0  0
   13.7079   10.7754   25.7888 C   0  0  0  0  0  0  0  0  0  0  0  0
  1  2  1  0  0  0
  2 10  1  0  0  0
  2  7  1  0  0  0
 10 11  1  0  0  0
 11 12  1  0  0  0
 12 13  1  0  0  0
  5  7  2  0  0  0
  6  7  1  0  0  0
  1  3  1  0  0  0
  1  4  1  0  0  0
  6  8  1  0  0  0
  7  9  1  0  0  0
M  END
> <minimizedAffinity>
-3.24169

$$$$
1PFU_MPJ_A_553


 13 12  0  0  0  0  0  0  0  0999 V2000
   16.1194   13.6629   23.3806 N   0  0  0  0  0  0  0  0  0  0  0  0
   14.9007   13.0789   24.0022 C   0  0  0  0  0  0  0  0  0  0  0  0
   16.5348   12.9835   22.7431 H   0  0  0  0  0  0  0  0  0  0  0  0
   16.7922   13.9007   24.1095 H   0  0  0  0  0  0  0  0  0  0  0  0
   12.6792   13.3270   25.6437 O   0  0  0  0  0  0  0  0  0  0  0  0
   13.9914   15.6644   24.4333 O   0  0  0  0  0  0  0  0  0  0  0  0
   14.0865   14.1894   25.1447 P   0  0  0  0  0  0  0  0  0  0  0  0
   14.8844   15.9825   24.2280 H   0  0  0  0  0  0  0  0  0  0  0  0
   15.1857   13.8633   25.9127 H   0  0  0  0  0  0  0  0  0  0  0  0
   15.1599   11.7433   24.7184 C   0  0  0  0  0  0  0  0  0  0  0  0
   16.3382   10.9730   24.1701 C   0  0  0  0  0  0  0  0  0  0  0  0
   15.6896    9.4978   23.3617 S   0  0  0  0  0  0  0  0  0  0  0  0
   14.1088    9.3029   24.2389 C   0  0  0  0  0  0  0  0  0  0  0  0
  1  2  1  0  0  0
  2 10  1  0  0  0
  2  7  1  0  0  0
 10 11  1  0  0  0
 11 12  1  0  0  0
 12 13  1  0  0  0
  5  7  2  0  0  0
  6  7  1  0  0  0
  1  3  1  0  0  0
  1  4  1  0  0  0
  6  8  1  0  0  0
  7  9  1  0  0  0
M  END
> <minimizedAffinity>
-3.12240

$$$$
1PFU_MPJ_A_553


 13 12  0  0  0  0  0  0  0  0999 V2000
   16.3389   11.8736   23.8480 N   0  0  0  0  0  0  0  0  0  0  0  0
   15.5377   10.8873   24.6213 C   0  0  0  0  0  0  0  0  0  0  0  0
   16.8630   12.4657   24.4923 H   0  0  0  0  0  0  0  0  0  0  0  0
   15.7150   12.4521   23.2855 H   0  0  0  0  0  0  0  0  0  0  0  0
   13.7411    8.7762   24.7052 O   0  0  0  0  0  0  0  0  0  0  0  0
   15.5689    9.1779   22.4362 O   0  0  0  0  0  0  0  0  0  0  0  0
   14.5734    9.7909   23.5869 P   0  0  0  0  0  0  0  0  0  0  0  0
   15.9399    9.9032   21.9098 H   0  0  0  0  0  0  0  0  0  0  0  0
   13.8863   10.9641   23.3509 H   0  0  0  0  0  0  0  0  0  0  0  0
   14.6010   11.5357   25.6538 C   0  0  0  0  0  0  0  0  0  0  0  0
   13.7873   12.6846   25.1057 C   0  0  0  0  0  0  0  0  0  0  0  0
   14.3838   14.1926   25.8935 S   0  0  0  0  0  0  0  0  0  0  0  0
   14.2284   15.3727   24.5189 C   0  0  0  0  0  0  0  0  0  0  0  0
  1  2  1  0  0  0
  2 10  1  0  0  0
  2  7  1  0  0  0
 10 11  1  0  0  0
 11 12  1  0  0  0
 12 13  1  0  0  0
  5  7  2  0  0  0
  6  7  1  0  0  0
  1  3  1  0  0  0
  1  4  1  0  0  0
  6  8  1  0  0  0
  7  9  1  0  0  0
M  END
> <minimizedAffinity>
-3.09056

$$$$
