4D1J_DGJ_A_600


 16 16  0  0  0  0  0  0  0  0999 V2000
   64.2279   28.8607   33.7830 C   0  0  0  0  0  0  0  0  0  0  0  0
   62.9792   28.0059   33.6052 C   0  0  0  0  0  0  0  0  0  0  0  0
   62.4789   27.9844   32.2201 O   0  0  0  0  0  0  0  0  0  0  0  0
   61.8579   28.5600   34.4952 C   0  0  0  0  0  0  0  0  0  0  0  0
   60.6657   27.7652   34.4401 O   0  0  0  0  0  0  0  0  0  0  0  0
   62.3435   28.6527   35.9355 C   0  0  0  0  0  0  0  0  0  0  0  0
   62.7261   27.3519   36.4152 O   0  0  0  0  0  0  0  0  0  0  0  0
   63.5021   29.6290   35.9992 C   0  0  0  0  0  0  0  0  0  0  0  0
   64.6212   29.0574   35.1931 N   0  0  0  0  0  0  0  0  0  0  0  0
   62.2224   28.8815   31.9550 H   0  0  0  0  0  0  0  0  0  0  0  0
   60.8557   26.8739   34.7724 H   0  0  0  0  0  0  0  0  0  0  0  0
   63.4410   27.0005   35.8616 H   0  0  0  0  0  0  0  0  0  0  0  0
   65.4157   29.6960   35.2295 H   0  0  0  0  0  0  0  0  0  0  0  0
   64.0018   29.8529   37.4216 C   0  0  0  0  0  0  0  0  0  0  0  0
   63.0430   29.5880   38.4200 O   0  0  0  0  0  0  0  0  0  0  0  0
   62.2925   30.1938   38.3164 H   0  0  0  0  0  0  0  0  0  0  0  0
  9  1  1  0  0  0
  2  1  1  0  0  0
  4  2  1  0  0  0
  2  3  1  0  0  0
  6  4  1  0  0  0
  5  4  1  0  0  0
  7  6  1  0  0  0
  6  8  1  0  0  0
 14  8  1  0  0  0
  8  9  1  0  0  0
 14 15  1  0  0  0
  3 10  1  0  0  0
  5 11  1  0  0  0
  7 12  1  0  0  0
  9 13  1  0  0  0
 15 16  1  0  0  0
M  END
> <minimizedAffinity>
-5.92560

$$$$
4D1J_DGJ_A_600


 16 16  0  0  0  0  0  0  0  0999 V2000
   61.6076   27.6209   34.6418 C   0  0  0  0  0  0  0  0  0  0  0  0
   62.3729   28.3158   33.5225 C   0  0  0  0  0  0  0  0  0  0  0  0
   62.4521   27.5183   32.2869 O   0  0  0  0  0  0  0  0  0  0  0  0
   63.8089   28.5921   33.9896 C   0  0  0  0  0  0  0  0  0  0  0  0
   64.5772   29.3118   33.0160 O   0  0  0  0  0  0  0  0  0  0  0  0
   63.7829   29.3720   35.2973 C   0  0  0  0  0  0  0  0  0  0  0  0
   63.0978   30.6234   35.1155 O   0  0  0  0  0  0  0  0  0  0  0  0
   63.1121   28.5229   36.3598 C   0  0  0  0  0  0  0  0  0  0  0  0
   61.6937   28.3134   35.9436 N   0  0  0  0  0  0  0  0  0  0  0  0
   62.9351   26.6959   32.4633 H   0  0  0  0  0  0  0  0  0  0  0  0
   64.1734   30.1805   32.8633 H   0  0  0  0  0  0  0  0  0  0  0  0
   62.1866   30.4546   34.8289 H   0  0  0  0  0  0  0  0  0  0  0  0
   61.2208   27.7501   36.6504 H   0  0  0  0  0  0  0  0  0  0  0  0
   63.1158   29.1893   37.7306 C   0  0  0  0  0  0  0  0  0  0  0  0
   63.8529   30.3892   37.7885 O   0  0  0  0  0  0  0  0  0  0  0  0
   64.7851   30.2057   37.5929 H   0  0  0  0  0  0  0  0  0  0  0  0
  9  1  1  0  0  0
  2  1  1  0  0  0
  4  2  1  0  0  0
  2  3  1  0  0  0
  6  4  1  0  0  0
  5  4  1  0  0  0
  7  6  1  0  0  0
  6  8  1  0  0  0
 14  8  1  0  0  0
  8  9  1  0  0  0
 14 15  1  0  0  0
  3 10  1  0  0  0
  5 11  1  0  0  0
  7 12  1  0  0  0
  9 13  1  0  0  0
 15 16  1  0  0  0
M  END
> <minimizedAffinity>
-5.67828

$$$$
4D1J_DGJ_A_600


 16 16  0  0  0  0  0  0  0  0999 V2000
   63.8752   30.4798   35.9146 C   0  0  0  0  0  0  0  0  0  0  0  0
   63.3649   29.7772   37.1665 C   0  0  0  0  0  0  0  0  0  0  0  0
   64.0945   30.1578   38.3880 O   0  0  0  0  0  0  0  0  0  0  0  0
   63.5153   28.2598   36.9898 C   0  0  0  0  0  0  0  0  0  0  0  0
   62.9888   27.5199   38.0996 O   0  0  0  0  0  0  0  0  0  0  0  0
   62.8206   27.8204   35.7079 C   0  0  0  0  0  0  0  0  0  0  0  0
   61.4221   28.1519   35.7623 O   0  0  0  0  0  0  0  0  0  0  0  0
   63.5022   28.4875   34.5289 C   0  0  0  0  0  0  0  0  0  0  0  0
   63.2950   29.9603   34.6596 N   0  0  0  0  0  0  0  0  0  0  0  0
   65.0253   29.8983   38.3028 H   0  0  0  0  0  0  0  0  0  0  0  0
   62.0366   27.6875   38.1773 H   0  0  0  0  0  0  0  0  0  0  0  0
   61.3210   29.1111   35.8650 H   0  0  0  0  0  0  0  0  0  0  0  0
   63.7396   30.4288   33.8702 H   0  0  0  0  0  0  0  0  0  0  0  0
   62.9276   28.0398   33.1900 C   0  0  0  0  0  0  0  0  0  0  0  0
   61.5352   28.2201   33.0688 O   0  0  0  0  0  0  0  0  0  0  0  0
   61.0801   27.6800   33.7336 H   0  0  0  0  0  0  0  0  0  0  0  0
  9  1  1  0  0  0
  2  1  1  0  0  0
  4  2  1  0  0  0
  2  3  1  0  0  0
  6  4  1  0  0  0
  5  4  1  0  0  0
  7  6  1  0  0  0
  6  8  1  0  0  0
 14  8  1  0  0  0
  8  9  1  0  0  0
 14 15  1  0  0  0
  3 10  1  0  0  0
  5 11  1  0  0  0
  7 12  1  0  0  0
  9 13  1  0  0  0
 15 16  1  0  0  0
M  END
> <minimizedAffinity>
-5.40525

$$$$
4D1J_DGJ_A_600


 16 16  0  0  0  0  0  0  0  0999 V2000
   64.8122   29.7152   34.9949 C   0  0  0  0  0  0  0  0  0  0  0  0
   64.1084   28.6258   34.1952 C   0  0  0  0  0  0  0  0  0  0  0  0
   64.0966   28.8815   32.7448 O   0  0  0  0  0  0  0  0  0  0  0  0
   62.6491   28.5222   34.6601 C   0  0  0  0  0  0  0  0  0  0  0  0
   61.9344   27.4662   34.0041 O   0  0  0  0  0  0  0  0  0  0  0  0
   62.6038   28.3095   36.1673 C   0  0  0  0  0  0  0  0  0  0  0  0
   63.2972   27.0995   36.5191 O   0  0  0  0  0  0  0  0  0  0  0  0
   63.2163   29.5170   36.8503 C   0  0  0  0  0  0  0  0  0  0  0  0
   64.6553   29.5785   36.4572 N   0  0  0  0  0  0  0  0  0  0  0  0
   63.6051   29.6981   32.5644 H   0  0  0  0  0  0  0  0  0  0  0  0
   62.3455   26.6147   34.2202 H   0  0  0  0  0  0  0  0  0  0  0  0
   64.2226   27.1631   36.2355 H   0  0  0  0  0  0  0  0  0  0  0  0
   65.0894   30.3809   36.9134 H   0  0  0  0  0  0  0  0  0  0  0  0
   63.1379   29.4327   38.3701 C   0  0  0  0  0  0  0  0  0  0  0  0
   62.1291   28.5739   38.8505 O   0  0  0  0  0  0  0  0  0  0  0  0
   61.2617   28.9051   38.5697 H   0  0  0  0  0  0  0  0  0  0  0  0
  9  1  1  0  0  0
  2  1  1  0  0  0
  4  2  1  0  0  0
  2  3  1  0  0  0
  6  4  1  0  0  0
  5  4  1  0  0  0
  7  6  1  0  0  0
  6  8  1  0  0  0
 14  8  1  0  0  0
  8  9  1  0  0  0
 14 15  1  0  0  0
  3 10  1  0  0  0
  5 11  1  0  0  0
  7 12  1  0  0  0
  9 13  1  0  0  0
 15 16  1  0  0  0
M  END
> <minimizedAffinity>
-5.37452

$$$$
4D1J_DGJ_A_600


 16 16  0  0  0  0  0  0  0  0999 V2000
   63.3246   28.2001   37.0730 C   0  0  0  0  0  0  0  0  0  0  0  0
   64.7219   28.6322   36.6459 C   0  0  0  0  0  0  0  0  0  0  0  0
   65.4528   29.3637   37.6946 O   0  0  0  0  0  0  0  0  0  0  0  0
   64.6127   29.5566   35.4252 C   0  0  0  0  0  0  0  0  0  0  0  0
   65.8935   29.9511   34.9152 O   0  0  0  0  0  0  0  0  0  0  0  0
   63.8168   28.8651   34.3265 C   0  0  0  0  0  0  0  0  0  0  0  0
   64.4677   27.6436   33.9355 O   0  0  0  0  0  0  0  0  0  0  0  0
   62.4102   28.6059   34.8307 C   0  0  0  0  0  0  0  0  0  0  0  0
   62.5074   27.6493   35.9728 N   0  0  0  0  0  0  0  0  0  0  0  0
   64.9789   30.1827   37.9077 H   0  0  0  0  0  0  0  0  0  0  0  0
   66.3774   29.1661   34.6144 H   0  0  0  0  0  0  0  0  0  0  0  0
   64.5314   27.0517   34.7013 H   0  0  0  0  0  0  0  0  0  0  0  0
   61.5692   27.4544   36.3225 H   0  0  0  0  0  0  0  0  0  0  0  0
   61.5103   27.9906   33.7655 C   0  0  0  0  0  0  0  0  0  0  0  0
   62.1246   27.8394   32.5061 O   0  0  0  0  0  0  0  0  0  0  0  0
   62.3692   28.7115   32.1589 H   0  0  0  0  0  0  0  0  0  0  0  0
  9  1  1  0  0  0
  2  1  1  0  0  0
  4  2  1  0  0  0
  2  3  1  0  0  0
  6  4  1  0  0  0
  5  4  1  0  0  0
  7  6  1  0  0  0
  6  8  1  0  0  0
 14  8  1  0  0  0
  8  9  1  0  0  0
 14 15  1  0  0  0
  3 10  1  0  0  0
  5 11  1  0  0  0
  7 12  1  0  0  0
  9 13  1  0  0  0
 15 16  1  0  0  0
M  END
> <minimizedAffinity>
-5.30441

$$$$
4D1J_DGJ_A_600


 16 16  0  0  0  0  0  0  0  0999 V2000
   62.1746   28.4209   35.9114 C   0  0  0  0  0  0  0  0  0  0  0  0
   61.7704   28.4781   34.4435 C   0  0  0  0  0  0  0  0  0  0  0  0
   60.5160   27.7623   34.1551 O   0  0  0  0  0  0  0  0  0  0  0  0
   62.8758   27.8395   33.5909 C   0  0  0  0  0  0  0  0  0  0  0  0
   62.6039   27.9186   32.1852 O   0  0  0  0  0  0  0  0  0  0  0  0
   64.2091   28.5110   33.8914 C   0  0  0  0  0  0  0  0  0  0  0  0
   64.1361   29.9159   33.5924 O   0  0  0  0  0  0  0  0  0  0  0  0
   64.5597   28.2724   35.3474 C   0  0  0  0  0  0  0  0  0  0  0  0
   63.5253   28.9547   36.1802 N   0  0  0  0  0  0  0  0  0  0  0  0
   60.6265   26.8207   34.3600 H   0  0  0  0  0  0  0  0  0  0  0  0
   62.5619   28.8495   31.9159 H   0  0  0  0  0  0  0  0  0  0  0  0
   63.4449   30.3265   34.1351 H   0  0  0  0  0  0  0  0  0  0  0  0
   63.7474   28.8135   37.1657 H   0  0  0  0  0  0  0  0  0  0  0  0
   65.9250   28.8374   35.7212 C   0  0  0  0  0  0  0  0  0  0  0  0
   66.7651   29.0966   34.6197 O   0  0  0  0  0  0  0  0  0  0  0  0
   66.9527   28.2668   34.1539 H   0  0  0  0  0  0  0  0  0  0  0  0
  9  1  1  0  0  0
  2  1  1  0  0  0
  4  2  1  0  0  0
  2  3  1  0  0  0
  6  4  1  0  0  0
  5  4  1  0  0  0
  7  6  1  0  0  0
  6  8  1  0  0  0
 14  8  1  0  0  0
  8  9  1  0  0  0
 14 15  1  0  0  0
  3 10  1  0  0  0
  5 11  1  0  0  0
  7 12  1  0  0  0
  9 13  1  0  0  0
 15 16  1  0  0  0
M  END
> <minimizedAffinity>
-5.15113

$$$$
4D1J_DGJ_A_600


 16 16  0  0  0  0  0  0  0  0999 V2000
   64.4735   29.1372   37.5416 C   0  0  0  0  0  0  0  0  0  0  0  0
   62.9857   29.0722   37.2194 C   0  0  0  0  0  0  0  0  0  0  0  0
   62.1739   28.5220   38.3183 O   0  0  0  0  0  0  0  0  0  0  0  0
   62.7744   28.1749   35.9919 C   0  0  0  0  0  0  0  0  0  0  0  0
   61.4025   28.1193   35.5784 O   0  0  0  0  0  0  0  0  0  0  0  0
   63.6354   28.6714   34.8382 C   0  0  0  0  0  0  0  0  0  0  0  0
   63.2807   30.0235   34.4999 O   0  0  0  0  0  0  0  0  0  0  0  0
   65.0949   28.5651   35.2361 C   0  0  0  0  0  0  0  0  0  0  0  0
   65.3201   29.4921   36.3845 N   0  0  0  0  0  0  0  0  0  0  0  0
   62.4445   27.6071   38.4934 H   0  0  0  0  0  0  0  0  0  0  0  0
   61.1076   29.0054   35.3165 H   0  0  0  0  0  0  0  0  0  0  0  0
   63.4208   30.5968   35.2697 H   0  0  0  0  0  0  0  0  0  0  0  0
   66.3000   29.4423   36.6633 H   0  0  0  0  0  0  0  0  0  0  0  0
   66.0400   28.9613   34.1079 C   0  0  0  0  0  0  0  0  0  0  0  0
   65.4119   29.1207   32.8564 O   0  0  0  0  0  0  0  0  0  0  0  0
   65.0254   28.2755   32.5786 H   0  0  0  0  0  0  0  0  0  0  0  0
  9  1  1  0  0  0
  2  1  1  0  0  0
  4  2  1  0  0  0
  2  3  1  0  0  0
  6  4  1  0  0  0
  5  4  1  0  0  0
  7  6  1  0  0  0
  6  8  1  0  0  0
 14  8  1  0  0  0
  8  9  1  0  0  0
 14 15  1  0  0  0
  3 10  1  0  0  0
  5 11  1  0  0  0
  7 12  1  0  0  0
  9 13  1  0  0  0
 15 16  1  0  0  0
M  END
> <minimizedAffinity>
-5.07219

$$$$
4D1J_DGJ_A_600


 16 16  0  0  0  0  0  0  0  0999 V2000
   62.8574   28.0948   33.5593 C   0  0  0  0  0  0  0  0  0  0  0  0
   62.4323   27.9754   35.0175 C   0  0  0  0  0  0  0  0  0  0  0  0
   60.9790   28.1096   35.2148 O   0  0  0  0  0  0  0  0  0  0  0  0
   63.1157   29.0812   35.8340 C   0  0  0  0  0  0  0  0  0  0  0  0
   62.8232   28.9937   37.2351 O   0  0  0  0  0  0  0  0  0  0  0  0
   64.6225   29.0196   35.6225 C   0  0  0  0  0  0  0  0  0  0  0  0
   65.1310   27.7415   36.0424 O   0  0  0  0  0  0  0  0  0  0  0  0
   64.9219   29.2809   34.1589 C   0  0  0  0  0  0  0  0  0  0  0  0
   64.3201   28.1672   33.3675 N   0  0  0  0  0  0  0  0  0  0  0  0
   60.6941   28.9920   34.9302 H   0  0  0  0  0  0  0  0  0  0  0  0
   63.1619   28.1546   37.5843 H   0  0  0  0  0  0  0  0  0  0  0  0
   64.7090   27.0392   35.5232 H   0  0  0  0  0  0  0  0  0  0  0  0
   64.5175   28.3192   32.3784 H   0  0  0  0  0  0  0  0  0  0  0  0
   66.4170   29.3238   33.8657 C   0  0  0  0  0  0  0  0  0  0  0  0
   66.7665   28.8766   32.5757 O   0  0  0  0  0  0  0  0  0  0  0  0
   66.5153   27.9449   32.4774 H   0  0  0  0  0  0  0  0  0  0  0  0
  9  1  1  0  0  0
  2  1  1  0  0  0
  4  2  1  0  0  0
  2  3  1  0  0  0
  6  4  1  0  0  0
  5  4  1  0  0  0
  7  6  1  0  0  0
  6  8  1  0  0  0
 14  8  1  0  0  0
  8  9  1  0  0  0
 14 15  1  0  0  0
  3 10  1  0  0  0
  5 11  1  0  0  0
  7 12  1  0  0  0
  9 13  1  0  0  0
 15 16  1  0  0  0
M  END
> <minimizedAffinity>
-4.98921

$$$$
4D1J_DGJ_A_600


 16 16  0  0  0  0  0  0  0  0999 V2000
   66.1709   28.1382   35.4831 C   0  0  0  0  0  0  0  0  0  0  0  0
   65.6675   28.0772   34.0464 C   0  0  0  0  0  0  0  0  0  0  0  0
   66.6835   28.4690   33.0547 O   0  0  0  0  0  0  0  0  0  0  0  0
   64.4740   29.0297   33.8894 C   0  0  0  0  0  0  0  0  0  0  0  0
   63.8942   28.9769   32.5789 O   0  0  0  0  0  0  0  0  0  0  0  0
   63.4128   28.6998   34.9305 C   0  0  0  0  0  0  0  0  0  0  0  0
   62.9591   27.3451   34.7651 O   0  0  0  0  0  0  0  0  0  0  0  0
   63.9971   28.9232   36.3121 C   0  0  0  0  0  0  0  0  0  0  0  0
   65.1123   27.9477   36.4955 N   0  0  0  0  0  0  0  0  0  0  0  0
   66.9411   29.3923   33.2031 H   0  0  0  0  0  0  0  0  0  0  0  0
   63.5492   28.0855   32.4137 H   0  0  0  0  0  0  0  0  0  0  0  0
   63.7080   26.7380   34.8723 H   0  0  0  0  0  0  0  0  0  0  0  0
   65.5149   28.0755   37.4239 H   0  0  0  0  0  0  0  0  0  0  0  0
   62.9772   28.6994   37.4224 C   0  0  0  0  0  0  0  0  0  0  0  0
   62.6404   27.3475   37.6346 O   0  0  0  0  0  0  0  0  0  0  0  0
   62.2271   26.9878   36.8341 H   0  0  0  0  0  0  0  0  0  0  0  0
  9  1  1  0  0  0
  2  1  1  0  0  0
  4  2  1  0  0  0
  2  3  1  0  0  0
  6  4  1  0  0  0
  5  4  1  0  0  0
  7  6  1  0  0  0
  6  8  1  0  0  0
 14  8  1  0  0  0
  8  9  1  0  0  0
 14 15  1  0  0  0
  3 10  1  0  0  0
  5 11  1  0  0  0
  7 12  1  0  0  0
  9 13  1  0  0  0
 15 16  1  0  0  0
M  END
> <minimizedAffinity>
-4.96551

$$$$
4D1J_DGJ_A_600


 16 16  0  0  0  0  0  0  0  0999 V2000
   63.7339   29.7910   38.7775 C   0  0  0  0  0  0  0  0  0  0  0  0
   63.0360   28.4718   39.0841 C   0  0  0  0  0  0  0  0  0  0  0  0
   63.3163   27.9638   40.4378 O   0  0  0  0  0  0  0  0  0  0  0  0
   63.5062   27.4079   38.0824 C   0  0  0  0  0  0  0  0  0  0  0  0
   62.8391   26.1508   38.2584 O   0  0  0  0  0  0  0  0  0  0  0  0
   63.2863   27.9076   36.6608 C   0  0  0  0  0  0  0  0  0  0  0  0
   61.8911   28.1785   36.4400 O   0  0  0  0  0  0  0  0  0  0  0  0
   64.1322   29.1471   36.4418 C   0  0  0  0  0  0  0  0  0  0  0  0
   63.6293   30.2077   37.3643 N   0  0  0  0  0  0  0  0  0  0  0  0
   64.2656   27.7847   40.5258 H   0  0  0  0  0  0  0  0  0  0  0  0
   61.8886   26.2645   38.1020 H   0  0  0  0  0  0  0  0  0  0  0  0
   61.5906   28.8570   37.0646 H   0  0  0  0  0  0  0  0  0  0  0  0
   64.1806   31.0549   37.2271 H   0  0  0  0  0  0  0  0  0  0  0  0
   64.0429   29.6723   35.0138 C   0  0  0  0  0  0  0  0  0  0  0  0
   62.8309   30.3251   34.7123 O   0  0  0  0  0  0  0  0  0  0  0  0
   62.0958   29.6981   34.7985 H   0  0  0  0  0  0  0  0  0  0  0  0
  9  1  1  0  0  0
  2  1  1  0  0  0
  4  2  1  0  0  0
  2  3  1  0  0  0
  6  4  1  0  0  0
  5  4  1  0  0  0
  7  6  1  0  0  0
  6  8  1  0  0  0
 14  8  1  0  0  0
  8  9  1  0  0  0
 14 15  1  0  0  0
  3 10  1  0  0  0
  5 11  1  0  0  0
  7 12  1  0  0  0
  9 13  1  0  0  0
 15 16  1  0  0  0
M  END
> <minimizedAffinity>
-4.96386

$$$$
