4B73_4VA_A_1721


 29 30  0  0  0  0  0  0  0  0999 V2000
    2.7107   12.9686  -41.7567 F   0  0  0  0  0  0  0  0  0  0  0  0
    4.9484   17.2974  -40.5070 Cl  0  0  0  0  0  0  0  0  0  0  0  0
    1.3274   14.8785  -41.5744 C   0  0  0  0  0  0  0  0  0  0  0  0
    1.2233   16.2312  -41.3089 C   0  0  0  0  0  0  0  0  0  0  0  0
    2.3406   16.9614  -40.9876 C   0  0  0  0  0  0  0  0  0  0  0  0
    3.5705   16.3449  -40.9257 C   0  0  0  0  0  0  0  0  0  0  0  0
    3.6911   14.9937  -41.1738 C   0  0  0  0  0  0  0  0  0  0  0  0
    2.5856   14.2791  -41.5048 C   0  0  0  0  0  0  0  0  0  0  0  0
    0.0947   14.0810  -41.9387 C   0  0  0  0  0  0  0  0  0  0  0  0
   -0.2581   13.0673  -40.8803 N   0  0  0  0  0  0  0  0  0  0  0  0
   -0.5320   13.5814  -40.0429 H   0  0  0  0  0  0  0  0  0  0  0  0
    0.5772   12.4905  -40.7814 H   0  0  0  0  0  0  0  0  0  0  0  0
   -1.3657   12.0938  -41.1966 C   0  0  0  0  0  0  0  0  0  0  0  0
   -0.8391   10.6640  -41.1348 C   0  0  0  0  0  0  0  0  0  0  0  0
   -2.5191   12.3418  -40.2355 C   0  0  0  0  0  0  0  0  0  0  0  0
   -2.0551   12.9363  -38.9385 C   0  0  0  0  0  0  0  0  0  0  0  0
   -1.1941   12.3936  -38.2862 O   0  0  0  0  0  0  0  0  0  0  0  0
   -2.6491   14.0621  -38.5634 N   0  0  0  0  0  0  0  0  0  0  0  0
   -3.3454   14.4643  -39.1314 H   0  0  0  0  0  0  0  0  0  0  0  0
   -2.3933   14.4953  -37.7171 H   0  0  0  0  0  0  0  0  0  0  0  0
    0.2182   14.2754  -44.4499 C   0  0  0  0  0  0  0  0  0  0  0  0
    0.2485   13.3606  -43.2749 C   0  0  0  0  0  0  0  0  0  0  0  0
    4.9073   14.3741  -41.1334 O   0  0  0  0  0  0  0  0  0  0  0  0
    5.6459   14.2283  -39.9839 C   0  0  0  0  0  0  0  0  0  0  0  0
    7.0219   14.1259  -40.0381 C   0  0  0  0  0  0  0  0  0  0  0  0
    7.7411   13.9895  -38.8809 C   0  0  0  0  0  0  0  0  0  0  0  0
    7.0921   13.9624  -37.6565 C   0  0  0  0  0  0  0  0  0  0  0  0
    5.7244   14.0669  -37.5974 C   0  0  0  0  0  0  0  0  0  0  0  0
    4.9972   14.1965  -38.7549 C   0  0  0  0  0  0  0  0  0  0  0  0
  1  8  1  0  0  0
  2  6  1  0  0  0
 21 22  1  0  0  0
 22  9  1  0  0  0
  9 10  1  0  0  0
  9  3  1  0  0  0
 10 13  1  0  0  0
 13 14  1  0  0  0
 13 15  1  0  0  0
 15 16  1  0  0  0
 16 17  2  0  0  0
 16 18  1  0  0  0
  3  4  2  0  0  0
  3  8  1  0  0  0
  4  5  1  0  0  0
  5  6  2  0  0  0
  6  7  1  0  0  0
  7 23  1  0  0  0
  7  8  2  0  0  0
 23 24  1  0  0  0
 24 25  2  0  0  0
 24 29  1  0  0  0
 25 26  1  0  0  0
 26 27  2  0  0  0
 27 28  1  0  0  0
 28 29  2  0  0  0
 10 11  1  0  0  0
 10 12  1  0  0  0
 18 19  1  0  0  0
 18 20  1  0  0  0
M  CHG 1  10   1
M  END
> <minimizedAffinity>
-8.20670

$$$$
4B73_4VA_A_1721


 29 30  0  0  0  0  0  0  0  0999 V2000
    3.4486   13.0525  -41.5831 F   0  0  0  0  0  0  0  0  0  0  0  0
    4.6609   17.8002  -40.4442 Cl  0  0  0  0  0  0  0  0  0  0  0  0
    1.6849   14.6277  -41.5308 C   0  0  0  0  0  0  0  0  0  0  0  0
    1.2848   15.9352  -41.3273 C   0  0  0  0  0  0  0  0  0  0  0  0
    2.2069   16.8980  -40.9995 C   0  0  0  0  0  0  0  0  0  0  0  0
    3.5358   16.5612  -40.8688 C   0  0  0  0  0  0  0  0  0  0  0  0
    3.9510   15.2593  -41.0544 C   0  0  0  0  0  0  0  0  0  0  0  0
    3.0375   14.3139  -41.3922 C   0  0  0  0  0  0  0  0  0  0  0  0
    0.6663   13.5730  -41.9027 C   0  0  0  0  0  0  0  0  0  0  0  0
    0.6280   13.3204  -43.3882 N   0  0  0  0  0  0  0  0  0  0  0  0
    0.4930   12.3187  -43.5253 H   0  0  0  0  0  0  0  0  0  0  0  0
    1.5107   13.6914  -43.7397 H   0  0  0  0  0  0  0  0  0  0  0  0
   -0.4361   14.0340  -44.1841 C   0  0  0  0  0  0  0  0  0  0  0  0
    0.2051   15.0561  -45.1166 C   0  0  0  0  0  0  0  0  0  0  0  0
   -1.2662   12.9957  -44.9248 C   0  0  0  0  0  0  0  0  0  0  0  0
   -0.4894   12.3309  -46.0227 C   0  0  0  0  0  0  0  0  0  0  0  0
    0.5132   11.7029  -45.7738 O   0  0  0  0  0  0  0  0  0  0  0  0
   -0.9615   12.4871  -47.2531 N   0  0  0  0  0  0  0  0  0  0  0  0
   -1.7831   13.0085  -47.4025 H   0  0  0  0  0  0  0  0  0  0  0  0
   -0.4902   12.0815  -48.0164 H   0  0  0  0  0  0  0  0  0  0  0  0
   -1.0015   13.5732  -40.0112 C   0  0  0  0  0  0  0  0  0  0  0  0
   -0.7385   13.9371  -41.4313 C   0  0  0  0  0  0  0  0  0  0  0  0
    5.2681   14.9158  -40.9454 O   0  0  0  0  0  0  0  0  0  0  0  0
    5.8338   14.4389  -39.7876 C   0  0  0  0  0  0  0  0  0  0  0  0
    5.1830   14.5737  -38.5773 C   0  0  0  0  0  0  0  0  0  0  0  0
    5.7592   14.0844  -37.4356 C   0  0  0  0  0  0  0  0  0  0  0  0
    6.9889   13.4476  -37.4937 C   0  0  0  0  0  0  0  0  0  0  0  0
    7.6385   13.3086  -38.6953 C   0  0  0  0  0  0  0  0  0  0  0  0
    7.0690   13.8036  -39.8425 C   0  0  0  0  0  0  0  0  0  0  0  0
  1  8  1  0  0  0
  2  6  1  0  0  0
 21 22  1  0  0  0
 22  9  1  0  0  0
  9 10  1  0  0  0
  9  3  1  0  0  0
 10 13  1  0  0  0
 13 14  1  0  0  0
 13 15  1  0  0  0
 15 16  1  0  0  0
 16 17  2  0  0  0
 16 18  1  0  0  0
  3  4  2  0  0  0
  3  8  1  0  0  0
  4  5  1  0  0  0
  5  6  2  0  0  0
  6  7  1  0  0  0
  7 23  1  0  0  0
  7  8  2  0  0  0
 23 24  1  0  0  0
 24 25  2  0  0  0
 24 29  1  0  0  0
 25 26  1  0  0  0
 26 27  2  0  0  0
 27 28  1  0  0  0
 28 29  2  0  0  0
 10 11  1  0  0  0
 10 12  1  0  0  0
 18 19  1  0  0  0
 18 20  1  0  0  0
M  CHG 1  10   1
M  END
> <minimizedAffinity>
-7.98812

$$$$
4B73_4VA_A_1721


 29 30  0  0  0  0  0  0  0  0999 V2000
    0.5893   14.6785  -44.4534 F   0  0  0  0  0  0  0  0  0  0  0  0
   -1.0118   10.4188  -46.5980 Cl  0  0  0  0  0  0  0  0  0  0  0  0
   -0.1981   12.9793  -43.0086 C   0  0  0  0  0  0  0  0  0  0  0  0
   -0.7261   11.7093  -42.8686 C   0  0  0  0  0  0  0  0  0  0  0  0
   -0.9663   10.9338  -43.9756 C   0  0  0  0  0  0  0  0  0  0  0  0
   -0.6842   11.4225  -45.2318 C   0  0  0  0  0  0  0  0  0  0  0  0
   -0.1703   12.6922  -45.3914 C   0  0  0  0  0  0  0  0  0  0  0  0
    0.0786   13.4497  -44.2929 C   0  0  0  0  0  0  0  0  0  0  0  0
    0.0748   13.8254  -41.7848 C   0  0  0  0  0  0  0  0  0  0  0  0
    1.5165   13.7475  -41.3515 N   0  0  0  0  0  0  0  0  0  0  0  0
    1.9535   12.9896  -41.8760 H   0  0  0  0  0  0  0  0  0  0  0  0
    1.4793   13.6109  -40.3414 H   0  0  0  0  0  0  0  0  0  0  0  0
    2.3644   14.9797  -41.5445 C   0  0  0  0  0  0  0  0  0  0  0  0
    1.4865   16.2265  -41.5308 C   0  0  0  0  0  0  0  0  0  0  0  0
    3.4407   15.0016  -40.4689 C   0  0  0  0  0  0  0  0  0  0  0  0
    4.7144   15.6258  -40.9576 C   0  0  0  0  0  0  0  0  0  0  0  0
    5.4871   14.9938  -41.6394 O   0  0  0  0  0  0  0  0  0  0  0  0
    4.9316   16.8818  -40.5883 N   0  0  0  0  0  0  0  0  0  0  0  0
    4.2699   17.3528  -40.0319 H   0  0  0  0  0  0  0  0  0  0  0  0
    5.7545   17.3426  -40.8708 H   0  0  0  0  0  0  0  0  0  0  0  0
   -1.8479   14.4565  -40.2801 C   0  0  0  0  0  0  0  0  0  0  0  0
   -0.8126   13.4366  -40.6059 C   0  0  0  0  0  0  0  0  0  0  0  0
    0.1306   13.1817  -46.6302 O   0  0  0  0  0  0  0  0  0  0  0  0
   -0.6925   14.0304  -47.3303 C   0  0  0  0  0  0  0  0  0  0  0  0
   -1.8440   13.5603  -47.9302 C   0  0  0  0  0  0  0  0  0  0  0  0
   -2.6559   14.4234  -48.6165 C   0  0  0  0  0  0  0  0  0  0  0  0
   -2.3288   15.7674  -48.7030 C   0  0  0  0  0  0  0  0  0  0  0  0
   -1.1864   16.2400  -48.1057 C   0  0  0  0  0  0  0  0  0  0  0  0
   -0.3646   15.3781  -47.4223 C   0  0  0  0  0  0  0  0  0  0  0  0
  1  8  1  0  0  0
  2  6  1  0  0  0
 21 22  1  0  0  0
 22  9  1  0  0  0
  9 10  1  0  0  0
  9  3  1  0  0  0
 10 13  1  0  0  0
 13 14  1  0  0  0
 13 15  1  0  0  0
 15 16  1  0  0  0
 16 17  2  0  0  0
 16 18  1  0  0  0
  3  4  2  0  0  0
  3  8  1  0  0  0
  4  5  1  0  0  0
  5  6  2  0  0  0
  6  7  1  0  0  0
  7 23  1  0  0  0
  7  8  2  0  0  0
 23 24  1  0  0  0
 24 25  2  0  0  0
 24 29  1  0  0  0
 25 26  1  0  0  0
 26 27  2  0  0  0
 27 28  1  0  0  0
 28 29  2  0  0  0
 10 11  1  0  0  0
 10 12  1  0  0  0
 18 19  1  0  0  0
 18 20  1  0  0  0
M  CHG 1  10   1
M  END
> <minimizedAffinity>
-7.83150

$$$$
4B73_4VA_A_1721


 29 30  0  0  0  0  0  0  0  0999 V2000
    0.1379   15.4714  -40.5751 F   0  0  0  0  0  0  0  0  0  0  0  0
   -1.7400   11.4010  -42.8583 Cl  0  0  0  0  0  0  0  0  0  0  0  0
    1.6784   14.0453  -41.6649 C   0  0  0  0  0  0  0  0  0  0  0  0
    1.8944   12.8985  -42.4062 C   0  0  0  0  0  0  0  0  0  0  0  0
    0.8384   12.0999  -42.7690 C   0  0  0  0  0  0  0  0  0  0  0  0
   -0.4417   12.4389  -42.3909 C   0  0  0  0  0  0  0  0  0  0  0  0
   -0.6744   13.5715  -41.6394 C   0  0  0  0  0  0  0  0  0  0  0  0
    0.3714   14.3654  -41.2953 C   0  0  0  0  0  0  0  0  0  0  0  0
    2.8444   14.9275  -41.2773 C   0  0  0  0  0  0  0  0  0  0  0  0
    3.3567   14.6153  -39.8945 N   0  0  0  0  0  0  0  0  0  0  0  0
    2.7119   13.9470  -39.4726 H   0  0  0  0  0  0  0  0  0  0  0  0
    3.4126   15.5194  -39.4257 H   0  0  0  0  0  0  0  0  0  0  0  0
    4.7449   14.0361  -39.7854 C   0  0  0  0  0  0  0  0  0  0  0  0
    5.5160   14.2779  -41.0786 C   0  0  0  0  0  0  0  0  0  0  0  0
    5.4284   14.6399  -38.5671 C   0  0  0  0  0  0  0  0  0  0  0  0
    6.1559   13.6068  -37.7583 C   0  0  0  0  0  0  0  0  0  0  0  0
    6.0474   12.4317  -38.0205 O   0  0  0  0  0  0  0  0  0  0  0  0
    6.8964   14.0616  -36.7553 N   0  0  0  0  0  0  0  0  0  0  0  0
    6.9515   15.0294  -36.5835 H   0  0  0  0  0  0  0  0  0  0  0  0
    7.3907   13.4311  -36.1831 H   0  0  0  0  0  0  0  0  0  0  0  0
    3.4703   17.2863  -40.6421 C   0  0  0  0  0  0  0  0  0  0  0  0
    2.4926   16.4107  -41.3460 C   0  0  0  0  0  0  0  0  0  0  0  0
   -1.9407   13.9284  -41.2734 O   0  0  0  0  0  0  0  0  0  0  0  0
   -2.3150   14.1670  -39.9731 C   0  0  0  0  0  0  0  0  0  0  0  0
   -3.1054   15.2537  -39.6550 C   0  0  0  0  0  0  0  0  0  0  0  0
   -3.4749   15.4700  -38.3544 C   0  0  0  0  0  0  0  0  0  0  0  0
   -3.0646   14.5969  -37.3592 C   0  0  0  0  0  0  0  0  0  0  0  0
   -2.2812   13.5134  -37.6711 C   0  0  0  0  0  0  0  0  0  0  0  0
   -1.9013   13.2953  -38.9725 C   0  0  0  0  0  0  0  0  0  0  0  0
  1  8  1  0  0  0
  2  6  1  0  0  0
 21 22  1  0  0  0
 22  9  1  0  0  0
  9 10  1  0  0  0
  9  3  1  0  0  0
 10 13  1  0  0  0
 13 14  1  0  0  0
 13 15  1  0  0  0
 15 16  1  0  0  0
 16 17  2  0  0  0
 16 18  1  0  0  0
  3  4  2  0  0  0
  3  8  1  0  0  0
  4  5  1  0  0  0
  5  6  2  0  0  0
  6  7  1  0  0  0
  7 23  1  0  0  0
  7  8  2  0  0  0
 23 24  1  0  0  0
 24 25  2  0  0  0
 24 29  1  0  0  0
 25 26  1  0  0  0
 26 27  2  0  0  0
 27 28  1  0  0  0
 28 29  2  0  0  0
 10 11  1  0  0  0
 10 12  1  0  0  0
 18 19  1  0  0  0
 18 20  1  0  0  0
M  CHG 1  10   1
M  END
> <minimizedAffinity>
-7.80590

$$$$
4B73_4VA_A_1721


 29 30  0  0  0  0  0  0  0  0999 V2000
   -2.0454   12.6205  -43.6322 F   0  0  0  0  0  0  0  0  0  0  0  0
    1.5322   14.6699  -40.7497 Cl  0  0  0  0  0  0  0  0  0  0  0  0
   -0.6150   14.2007  -44.6576 C   0  0  0  0  0  0  0  0  0  0  0  0
    0.4527   15.0704  -44.5352 C   0  0  0  0  0  0  0  0  0  0  0  0
    1.1044   15.2013  -43.3341 C   0  0  0  0  0  0  0  0  0  0  0  0
    0.6922   14.4668  -42.2445 C   0  0  0  0  0  0  0  0  0  0  0  0
   -0.3796   13.6049  -42.3445 C   0  0  0  0  0  0  0  0  0  0  0  0
   -1.0118   13.4686  -43.5379 C   0  0  0  0  0  0  0  0  0  0  0  0
   -1.3226   14.0522  -45.9863 C   0  0  0  0  0  0  0  0  0  0  0  0
   -0.9316   12.7824  -46.6982 N   0  0  0  0  0  0  0  0  0  0  0  0
   -0.1078   12.4083  -46.2273 H   0  0  0  0  0  0  0  0  0  0  0  0
   -0.7876   13.0602  -47.6690 H   0  0  0  0  0  0  0  0  0  0  0  0
   -1.9583   11.6794  -46.7595 C   0  0  0  0  0  0  0  0  0  0  0  0
   -3.0722   12.0545  -47.7311 C   0  0  0  0  0  0  0  0  0  0  0  0
   -1.2560   10.3830  -47.1362 C   0  0  0  0  0  0  0  0  0  0  0  0
   -0.2614    9.9573  -46.0968 C   0  0  0  0  0  0  0  0  0  0  0  0
   -0.3675   10.3340  -44.9530 O   0  0  0  0  0  0  0  0  0  0  0  0
    0.7221    9.1699  -46.5136 N   0  0  0  0  0  0  0  0  0  0  0  0
    0.7633    8.8911  -47.4569 H   0  0  0  0  0  0  0  0  0  0  0  0
    1.4105    8.8644  -45.8794 H   0  0  0  0  0  0  0  0  0  0  0  0
   -0.3698   14.8560  -48.1784 C   0  0  0  0  0  0  0  0  0  0  0  0
   -1.0601   15.2347  -46.9142 C   0  0  0  0  0  0  0  0  0  0  0  0
   -0.7869   12.8577  -41.2766 O   0  0  0  0  0  0  0  0  0  0  0  0
   -1.4900   13.3733  -40.2146 C   0  0  0  0  0  0  0  0  0  0  0  0
   -1.4093   12.7901  -38.9656 C   0  0  0  0  0  0  0  0  0  0  0  0
   -2.1109   13.3236  -37.9178 C   0  0  0  0  0  0  0  0  0  0  0  0
   -2.8945   14.4512  -38.1064 C   0  0  0  0  0  0  0  0  0  0  0  0
   -2.9756   15.0363  -39.3458 C   0  0  0  0  0  0  0  0  0  0  0  0
   -2.2800   14.5016  -40.4020 C   0  0  0  0  0  0  0  0  0  0  0  0
  1  8  1  0  0  0
  2  6  1  0  0  0
 21 22  1  0  0  0
 22  9  1  0  0  0
  9 10  1  0  0  0
  9  3  1  0  0  0
 10 13  1  0  0  0
 13 14  1  0  0  0
 13 15  1  0  0  0
 15 16  1  0  0  0
 16 17  2  0  0  0
 16 18  1  0  0  0
  3  4  2  0  0  0
  3  8  1  0  0  0
  4  5  1  0  0  0
  5  6  2  0  0  0
  6  7  1  0  0  0
  7 23  1  0  0  0
  7  8  2  0  0  0
 23 24  1  0  0  0
 24 25  2  0  0  0
 24 29  1  0  0  0
 25 26  1  0  0  0
 26 27  2  0  0  0
 27 28  1  0  0  0
 28 29  2  0  0  0
 10 11  1  0  0  0
 10 12  1  0  0  0
 18 19  1  0  0  0
 18 20  1  0  0  0
M  CHG 1  10   1
M  END
> <minimizedAffinity>
-7.38363

$$$$
4B73_4VA_A_1721


 29 30  0  0  0  0  0  0  0  0999 V2000
    0.2426   14.8561  -43.9981 F   0  0  0  0  0  0  0  0  0  0  0  0
    0.0750   10.2977  -46.1196 Cl  0  0  0  0  0  0  0  0  0  0  0  0
   -0.1407   13.0168  -42.5612 C   0  0  0  0  0  0  0  0  0  0  0  0
   -0.2982   11.6506  -42.4201 C   0  0  0  0  0  0  0  0  0  0  0  0
   -0.2254   10.8286  -43.5172 C   0  0  0  0  0  0  0  0  0  0  0  0
    0.0018   11.3656  -44.7648 C   0  0  0  0  0  0  0  0  0  0  0  0
    0.1474   12.7274  -44.9264 C   0  0  0  0  0  0  0  0  0  0  0  0
    0.0886   13.5345  -43.8366 C   0  0  0  0  0  0  0  0  0  0  0  0
   -0.2110   13.9168  -41.3474 C   0  0  0  0  0  0  0  0  0  0  0  0
   -1.5596   14.5754  -41.2070 N   0  0  0  0  0  0  0  0  0  0  0  0
   -1.9591   14.6579  -42.1419 H   0  0  0  0  0  0  0  0  0  0  0  0
   -1.3710   15.4604  -40.7362 H   0  0  0  0  0  0  0  0  0  0  0  0
   -2.5799   13.8842  -40.3377 C   0  0  0  0  0  0  0  0  0  0  0  0
   -3.5614   13.1019  -41.2039 C   0  0  0  0  0  0  0  0  0  0  0  0
   -1.8472   13.0066  -39.3334 C   0  0  0  0  0  0  0  0  0  0  0  0
   -2.1373   13.4069  -37.9169 C   0  0  0  0  0  0  0  0  0  0  0  0
   -1.5568   12.8791  -36.9972 O   0  0  0  0  0  0  0  0  0  0  0  0
   -3.0592   14.3466  -37.7499 N   0  0  0  0  0  0  0  0  0  0  0  0
   -3.5032   14.7454  -38.5329 H   0  0  0  0  0  0  0  0  0  0  0  0
   -3.2992   14.6451  -36.8429 H   0  0  0  0  0  0  0  0  0  0  0  0
    2.2449   14.4706  -41.2010 C   0  0  0  0  0  0  0  0  0  0  0  0
    0.8632   15.0002  -41.3704 C   0  0  0  0  0  0  0  0  0  0  0  0
    0.3909   13.2707  -46.1553 O   0  0  0  0  0  0  0  0  0  0  0  0
   -0.5668   13.9105  -46.9046 C   0  0  0  0  0  0  0  0  0  0  0  0
   -0.4160   15.2368  -47.2580 C   0  0  0  0  0  0  0  0  0  0  0  0
   -1.3774   15.8545  -48.0123 C   0  0  0  0  0  0  0  0  0  0  0  0
   -2.4961   15.1497  -48.4280 C   0  0  0  0  0  0  0  0  0  0  0  0
   -2.6491   13.8301  -48.0815 C   0  0  0  0  0  0  0  0  0  0  0  0
   -1.6919   13.2071  -47.3192 C   0  0  0  0  0  0  0  0  0  0  0  0
  1  8  1  0  0  0
  2  6  1  0  0  0
 21 22  1  0  0  0
 22  9  1  0  0  0
  9 10  1  0  0  0
  9  3  1  0  0  0
 10 13  1  0  0  0
 13 14  1  0  0  0
 13 15  1  0  0  0
 15 16  1  0  0  0
 16 17  2  0  0  0
 16 18  1  0  0  0
  3  4  2  0  0  0
  3  8  1  0  0  0
  4  5  1  0  0  0
  5  6  2  0  0  0
  6  7  1  0  0  0
  7 23  1  0  0  0
  7  8  2  0  0  0
 23 24  1  0  0  0
 24 25  2  0  0  0
 24 29  1  0  0  0
 25 26  1  0  0  0
 26 27  2  0  0  0
 27 28  1  0  0  0
 28 29  2  0  0  0
 10 11  1  0  0  0
 10 12  1  0  0  0
 18 19  1  0  0  0
 18 20  1  0  0  0
M  CHG 1  10   1
M  END
> <minimizedAffinity>
-7.27640

$$$$
4B73_4VA_A_1721


 29 30  0  0  0  0  0  0  0  0999 V2000
    0.4263   14.4835  -44.3324 F   0  0  0  0  0  0  0  0  0  0  0  0
   -0.6783   10.1973  -46.7232 Cl  0  0  0  0  0  0  0  0  0  0  0  0
   -0.2202   12.6437  -42.9939 C   0  0  0  0  0  0  0  0  0  0  0  0
   -0.6195   11.3217  -42.9300 C   0  0  0  0  0  0  0  0  0  0  0  0
   -0.7516   10.5823  -44.0791 C   0  0  0  0  0  0  0  0  0  0  0  0
   -0.4891   11.1592  -45.3018 C   0  0  0  0  0  0  0  0  0  0  0  0
   -0.1033   12.4805  -45.3857 C   0  0  0  0  0  0  0  0  0  0  0  0
    0.0395   13.2032  -44.2456 C   0  0  0  0  0  0  0  0  0  0  0  0
   -0.0657   13.4506  -41.7238 C   0  0  0  0  0  0  0  0  0  0  0  0
   -1.2485   14.3519  -41.4771 N   0  0  0  0  0  0  0  0  0  0  0  0
   -1.8340   14.3245  -42.3119 H   0  0  0  0  0  0  0  0  0  0  0  0
   -0.8431   15.2626  -41.2612 H   0  0  0  0  0  0  0  0  0  0  0  0
   -2.1290   14.0302  -40.2956 C   0  0  0  0  0  0  0  0  0  0  0  0
   -2.9685   15.2471  -39.9217 C   0  0  0  0  0  0  0  0  0  0  0  0
   -2.9732   12.8110  -40.6372 C   0  0  0  0  0  0  0  0  0  0  0  0
   -3.9635   13.0977  -41.7271 C   0  0  0  0  0  0  0  0  0  0  0  0
   -3.5891   13.4476  -42.8220 O   0  0  0  0  0  0  0  0  0  0  0  0
   -5.2439   12.9554  -41.4088 N   0  0  0  0  0  0  0  0  0  0  0  0
   -5.4966   12.6675  -40.5019 H   0  0  0  0  0  0  0  0  0  0  0  0
   -5.9411   13.1377  -42.0796 H   0  0  0  0  0  0  0  0  0  0  0  0
    0.9732   15.7147  -41.3318 C   0  0  0  0  0  0  0  0  0  0  0  0
    1.2030   14.2982  -41.7303 C   0  0  0  0  0  0  0  0  0  0  0  0
    0.1773   13.0591  -46.5903 O   0  0  0  0  0  0  0  0  0  0  0  0
   -0.6883   13.9001  -47.2472 C   0  0  0  0  0  0  0  0  0  0  0  0
   -1.8884   13.4299  -47.7426 C   0  0  0  0  0  0  0  0  0  0  0  0
   -2.7415   14.2854  -48.3870 C   0  0  0  0  0  0  0  0  0  0  0  0
   -2.4069   15.6222  -48.5355 C   0  0  0  0  0  0  0  0  0  0  0  0
   -1.2160   16.0949  -48.0421 C   0  0  0  0  0  0  0  0  0  0  0  0
   -0.3532   15.2403  -47.4014 C   0  0  0  0  0  0  0  0  0  0  0  0
  1  8  1  0  0  0
  2  6  1  0  0  0
 21 22  1  0  0  0
 22  9  1  0  0  0
  9 10  1  0  0  0
  9  3  1  0  0  0
 10 13  1  0  0  0
 13 14  1  0  0  0
 13 15  1  0  0  0
 15 16  1  0  0  0
 16 17  2  0  0  0
 16 18  1  0  0  0
  3  4  2  0  0  0
  3  8  1  0  0  0
  4  5  1  0  0  0
  5  6  2  0  0  0
  6  7  1  0  0  0
  7 23  1  0  0  0
  7  8  2  0  0  0
 23 24  1  0  0  0
 24 25  2  0  0  0
 24 29  1  0  0  0
 25 26  1  0  0  0
 26 27  2  0  0  0
 27 28  1  0  0  0
 28 29  2  0  0  0
 10 11  1  0  0  0
 10 12  1  0  0  0
 18 19  1  0  0  0
 18 20  1  0  0  0
M  CHG 1  10   1
M  END
> <minimizedAffinity>
-7.07570

$$$$
4B73_4VA_A_1721


 29 30  0  0  0  0  0  0  0  0999 V2000
    0.2553   14.3772  -40.0785 F   0  0  0  0  0  0  0  0  0  0  0  0
   -2.1032   13.1270  -44.3425 Cl  0  0  0  0  0  0  0  0  0  0  0  0
    1.3771   14.8545  -42.1053 C   0  0  0  0  0  0  0  0  0  0  0  0
    1.3730   14.8124  -43.4871 C   0  0  0  0  0  0  0  0  0  0  0  0
    0.2990   14.2849  -44.1602 C   0  0  0  0  0  0  0  0  0  0  0  0
   -0.7780   13.7920  -43.4576 C   0  0  0  0  0  0  0  0  0  0  0  0
   -0.7852   13.8130  -42.0788 C   0  0  0  0  0  0  0  0  0  0  0  0
    0.2729   14.3485  -41.4184 C   0  0  0  0  0  0  0  0  0  0  0  0
    2.5584   15.4469  -41.3691 C   0  0  0  0  0  0  0  0  0  0  0  0
    2.9141   14.6545  -40.1371 N   0  0  0  0  0  0  0  0  0  0  0  0
    2.3262   13.8210  -40.1286 H   0  0  0  0  0  0  0  0  0  0  0  0
    2.7657   15.2981  -39.3599 H   0  0  0  0  0  0  0  0  0  0  0  0
    4.3455   14.2006  -39.9959 C   0  0  0  0  0  0  0  0  0  0  0  0
    5.1835   14.7463  -41.1472 C   0  0  0  0  0  0  0  0  0  0  0  0
    4.8600   14.6353  -38.6313 C   0  0  0  0  0  0  0  0  0  0  0  0
    6.0540   13.8369  -38.1979 C   0  0  0  0  0  0  0  0  0  0  0  0
    5.9673   12.6430  -38.0289 O   0  0  0  0  0  0  0  0  0  0  0  0
    7.1770   14.5176  -38.0070 N   0  0  0  0  0  0  0  0  0  0  0  0
    7.1950   15.4902  -38.1587 H   0  0  0  0  0  0  0  0  0  0  0  0
    7.9922   14.0500  -37.7137 H   0  0  0  0  0  0  0  0  0  0  0  0
    3.5612   17.6261  -40.5915 C   0  0  0  0  0  0  0  0  0  0  0  0
    2.3166   16.8983  -40.9651 C   0  0  0  0  0  0  0  0  0  0  0  0
   -1.8545   13.3440  -41.3708 O   0  0  0  0  0  0  0  0  0  0  0  0
   -2.9123   14.1314  -40.9848 C   0  0  0  0  0  0  0  0  0  0  0  0
   -2.8380   14.9006  -39.8405 C   0  0  0  0  0  0  0  0  0  0  0  0
   -3.8996   15.6853  -39.4769 C   0  0  0  0  0  0  0  0  0  0  0  0
   -5.0437   15.7152  -40.2586 C   0  0  0  0  0  0  0  0  0  0  0  0
   -5.1211   14.9544  -41.3988 C   0  0  0  0  0  0  0  0  0  0  0  0
   -4.0626   14.1599  -41.7648 C   0  0  0  0  0  0  0  0  0  0  0  0
  1  8  1  0  0  0
  2  6  1  0  0  0
 21 22  1  0  0  0
 22  9  1  0  0  0
  9 10  1  0  0  0
  9  3  1  0  0  0
 10 13  1  0  0  0
 13 14  1  0  0  0
 13 15  1  0  0  0
 15 16  1  0  0  0
 16 17  2  0  0  0
 16 18  1  0  0  0
  3  4  2  0  0  0
  3  8  1  0  0  0
  4  5  1  0  0  0
  5  6  2  0  0  0
  6  7  1  0  0  0
  7 23  1  0  0  0
  7  8  2  0  0  0
 23 24  1  0  0  0
 24 25  2  0  0  0
 24 29  1  0  0  0
 25 26  1  0  0  0
 26 27  2  0  0  0
 27 28  1  0  0  0
 28 29  2  0  0  0
 10 11  1  0  0  0
 10 12  1  0  0  0
 18 19  1  0  0  0
 18 20  1  0  0  0
M  CHG 1  10   1
M  END
> <minimizedAffinity>
-6.96986

$$$$
4B73_4VA_A_1721


 29 30  0  0  0  0  0  0  0  0999 V2000
    0.5473   11.4655  -43.6522 F   0  0  0  0  0  0  0  0  0  0  0  0
   -0.9042   13.8156  -47.8568 Cl  0  0  0  0  0  0  0  0  0  0  0  0
    0.5756   13.8304  -43.6245 C   0  0  0  0  0  0  0  0  0  0  0  0
    0.3488   15.0149  -44.3004 C   0  0  0  0  0  0  0  0  0  0  0  0
   -0.1087   14.9964  -45.5946 C   0  0  0  0  0  0  0  0  0  0  0  0
   -0.3398   13.7941  -46.2251 C   0  0  0  0  0  0  0  0  0  0  0  0
   -0.1058   12.6028  -45.5711 C   0  0  0  0  0  0  0  0  0  0  0  0
    0.3330   12.6264  -44.2869 C   0  0  0  0  0  0  0  0  0  0  0  0
    1.0692   13.8567  -42.1949 C   0  0  0  0  0  0  0  0  0  0  0  0
    0.0637   13.2706  -41.2369 N   0  0  0  0  0  0  0  0  0  0  0  0
    0.3657   13.5088  -40.2922 H   0  0  0  0  0  0  0  0  0  0  0  0
    0.0500   12.2731  -41.4495 H   0  0  0  0  0  0  0  0  0  0  0  0
   -1.3699   13.7167  -41.3801 C   0  0  0  0  0  0  0  0  0  0  0  0
   -2.2786   12.5061  -41.5649 C   0  0  0  0  0  0  0  0  0  0  0  0
   -1.7408   14.5554  -40.1657 C   0  0  0  0  0  0  0  0  0  0  0  0
   -1.8405   13.7284  -38.9179 C   0  0  0  0  0  0  0  0  0  0  0  0
   -0.9702   12.9399  -38.6312 O   0  0  0  0  0  0  0  0  0  0  0  0
   -2.9274   13.9106  -38.1786 N   0  0  0  0  0  0  0  0  0  0  0  0
   -3.6075   14.5660  -38.4564 H   0  0  0  0  0  0  0  0  0  0  0  0
   -3.0537   13.3903  -37.3524 H   0  0  0  0  0  0  0  0  0  0  0  0
    2.8589   15.4358  -41.3808 C   0  0  0  0  0  0  0  0  0  0  0  0
    1.4215   15.2676  -41.7327 C   0  0  0  0  0  0  0  0  0  0  0  0
   -0.3481   11.4041  -46.1788 O   0  0  0  0  0  0  0  0  0  0  0  0
   -1.2963   10.5107  -45.7419 C   0  0  0  0  0  0  0  0  0  0  0  0
   -0.9646    9.1922  -45.5006 C   0  0  0  0  0  0  0  0  0  0  0  0
   -1.9217    8.3190  -45.0575 C   0  0  0  0  0  0  0  0  0  0  0  0
   -3.2190    8.7573  -44.8432 C   0  0  0  0  0  0  0  0  0  0  0  0
   -3.5528   10.0680  -45.0790 C   0  0  0  0  0  0  0  0  0  0  0  0
   -2.5992   10.9468  -45.5303 C   0  0  0  0  0  0  0  0  0  0  0  0
  1  8  1  0  0  0
  2  6  1  0  0  0
 21 22  1  0  0  0
 22  9  1  0  0  0
  9 10  1  0  0  0
  9  3  1  0  0  0
 10 13  1  0  0  0
 13 14  1  0  0  0
 13 15  1  0  0  0
 15 16  1  0  0  0
 16 17  2  0  0  0
 16 18  1  0  0  0
  3  4  2  0  0  0
  3  8  1  0  0  0
  4  5  1  0  0  0
  5  6  2  0  0  0
  6  7  1  0  0  0
  7 23  1  0  0  0
  7  8  2  0  0  0
 23 24  1  0  0  0
 24 25  2  0  0  0
 24 29  1  0  0  0
 25 26  1  0  0  0
 26 27  2  0  0  0
 27 28  1  0  0  0
 28 29  2  0  0  0
 10 11  1  0  0  0
 10 12  1  0  0  0
 18 19  1  0  0  0
 18 20  1  0  0  0
M  CHG 1  10   1
M  END
> <minimizedAffinity>
-6.81571

$$$$
4B73_4VA_A_1721


 29 30  0  0  0  0  0  0  0  0999 V2000
   -0.8988   14.1300  -43.4920 F   0  0  0  0  0  0  0  0  0  0  0  0
    0.0072    9.9700  -46.1719 Cl  0  0  0  0  0  0  0  0  0  0  0  0
   -1.7274   12.0919  -42.6236 C   0  0  0  0  0  0  0  0  0  0  0  0
   -1.8607   10.7233  -42.7661 C   0  0  0  0  0  0  0  0  0  0  0  0
   -1.3209   10.0851  -43.8552 C   0  0  0  0  0  0  0  0  0  0  0  0
   -0.6465   10.8100  -44.8124 C   0  0  0  0  0  0  0  0  0  0  0  0
   -0.5159   12.1777  -44.6938 C   0  0  0  0  0  0  0  0  0  0  0  0
   -1.0392   12.8021  -43.6081 C   0  0  0  0  0  0  0  0  0  0  0  0
   -2.3147   12.7885  -41.4161 C   0  0  0  0  0  0  0  0  0  0  0  0
   -2.9207   14.1226  -41.7699 N   0  0  0  0  0  0  0  0  0  0  0  0
   -2.3442   14.5362  -42.5027 H   0  0  0  0  0  0  0  0  0  0  0  0
   -2.9438   14.6408  -40.8917 H   0  0  0  0  0  0  0  0  0  0  0  0
   -4.3472   14.1265  -42.2593 C   0  0  0  0  0  0  0  0  0  0  0  0
   -5.0825   12.8962  -41.7387 C   0  0  0  0  0  0  0  0  0  0  0  0
   -5.0028   15.4321  -41.8335 C   0  0  0  0  0  0  0  0  0  0  0  0
   -4.9590   15.6270  -40.3466 C   0  0  0  0  0  0  0  0  0  0  0  0
   -3.9080   15.8245  -39.7827 O   0  0  0  0  0  0  0  0  0  0  0  0
   -6.1219   15.5571  -39.7112 N   0  0  0  0  0  0  0  0  0  0  0  0
   -6.9504   15.3941  -40.2174 H   0  0  0  0  0  0  0  0  0  0  0  0
   -6.1561   15.6681  -38.7336 H   0  0  0  0  0  0  0  0  0  0  0  0
   -1.8717   13.0250  -38.9448 C   0  0  0  0  0  0  0  0  0  0  0  0
   -1.2821   12.9968  -40.3122 C   0  0  0  0  0  0  0  0  0  0  0  0
    0.1658   12.9056  -45.6266 O   0  0  0  0  0  0  0  0  0  0  0  0
   -0.4488   13.6670  -46.5913 C   0  0  0  0  0  0  0  0  0  0  0  0
   -1.3301   13.0938  -47.4866 C   0  0  0  0  0  0  0  0  0  0  0  0
   -1.9390   13.8709  -48.4354 C   0  0  0  0  0  0  0  0  0  0  0  0
   -1.6792   15.2311  -48.4935 C   0  0  0  0  0  0  0  0  0  0  0  0
   -0.8060   15.8059  -47.6036 C   0  0  0  0  0  0  0  0  0  0  0  0
   -0.1867   15.0307  -46.6544 C   0  0  0  0  0  0  0  0  0  0  0  0
  1  8  1  0  0  0
  2  6  1  0  0  0
 21 22  1  0  0  0
 22  9  1  0  0  0
  9 10  1  0  0  0
  9  3  1  0  0  0
 10 13  1  0  0  0
 13 14  1  0  0  0
 13 15  1  0  0  0
 15 16  1  0  0  0
 16 17  2  0  0  0
 16 18  1  0  0  0
  3  4  2  0  0  0
  3  8  1  0  0  0
  4  5  1  0  0  0
  5  6  2  0  0  0
  6  7  1  0  0  0
  7 23  1  0  0  0
  7  8  2  0  0  0
 23 24  1  0  0  0
 24 25  2  0  0  0
 24 29  1  0  0  0
 25 26  1  0  0  0
 26 27  2  0  0  0
 27 28  1  0  0  0
 28 29  2  0  0  0
 10 11  1  0  0  0
 10 12  1  0  0  0
 18 19  1  0  0  0
 18 20  1  0  0  0
M  CHG 1  10   1
M  END
> <minimizedAffinity>
-6.81128

$$$$
