5ZA7_HMX_U_301


 27 28  0  0  0  0  0  0  0  0999 V2000
  -28.6042  -16.3912   -1.6815 C   0  0  0  0  0  0  0  0  0  0  0  0
  -28.2910  -15.3319   -3.7552 N   0  0  0  0  0  0  0  0  0  0  0  0
  -28.1487  -15.3014   -2.4056 C   0  0  0  0  0  0  0  0  0  0  0  0
  -29.1520  -17.4393   -2.2816 N   0  0  0  0  0  0  0  0  0  0  0  0
  -28.8348  -16.3960   -4.3825 C   0  0  0  0  0  0  0  0  0  0  0  0
  -29.3026  -17.4535   -3.6206 C   0  0  0  0  0  0  0  0  0  0  0  0
  -28.4895  -16.5480    0.0916 Cl  0  0  0  0  0  0  0  0  0  0  0  0
  -28.9458  -16.3540   -5.7443 N   0  0  0  0  0  0  0  0  0  0  0  0
  -28.5976  -15.5798   -6.2429 H   0  0  0  0  0  0  0  0  0  0  0  0
  -29.3739  -17.0980   -6.2264 H   0  0  0  0  0  0  0  0  0  0  0  0
  -28.3049  -12.8616   -1.8108 C   0  0  0  0  0  0  0  0  0  0  0  0
  -27.3371  -11.6968   -2.0040 C   0  0  0  0  0  0  0  0  0  0  0  0
  -26.6009  -11.7795   -3.3351 C   0  0  0  0  0  0  0  0  0  0  0  0
  -25.7390  -13.0307   -3.4875 C   0  0  0  0  0  0  0  0  0  0  0  0
  -25.2208  -13.6339   -2.1768 C   0  0  0  0  0  0  0  0  0  0  0  0
  -26.2615  -14.2256   -1.2313 C   0  0  0  0  0  0  0  0  0  0  0  0
  -27.5960  -14.1498   -1.8150 N   0  0  0  0  0  0  0  0  0  0  0  0
  -29.9123  -18.6884   -4.1703 C   0  0  0  0  0  0  0  0  0  0  0  0
  -29.6234  -19.0299   -5.3069 O   0  0  0  0  0  0  0  0  0  0  0  0
  -31.9924  -19.7054   -3.5769 C   0  0  0  0  0  0  0  0  0  0  0  0
  -30.7338  -19.3433   -3.3279 N   0  0  0  0  0  0  0  0  0  0  0  0
  -32.6862  -20.3298   -2.6251 N   0  0  0  0  0  0  0  0  0  0  0  0
  -32.5591  -19.4578   -4.7524 N   0  0  0  0  0  0  0  0  0  0  0  0
  -33.6168  -20.6036   -2.7935 H   0  0  0  0  0  0  0  0  0  0  0  0
  -32.2681  -20.5171   -1.7537 H   0  0  0  0  0  0  0  0  0  0  0  0
  -32.0493  -18.9969   -5.4573 H   0  0  0  0  0  0  0  0  0  0  0  0
  -33.4889  -19.7353   -4.9188 H   0  0  0  0  0  0  0  0  0  0  0  0
  8  5  1  0  0  0
 19 18  2  0  0  0
  5  2  2  0  0  0
  5  6  1  0  0  0
 23 20  1  0  0  0
 18  6  1  0  0  0
 18 21  1  0  0  0
  2  3  1  0  0  0
  6  4  2  0  0  0
 15 16  1  0  0  0
 15 14  1  0  0  0
 20 21  2  0  0  0
 20 22  1  0  0  0
 16 17  1  0  0  0
  3 17  1  0  0  0
  3  1  2  0  0  0
 14 13  1  0  0  0
  4  1  1  0  0  0
 17 11  1  0  0  0
  1  7  1  0  0  0
 13 12  1  0  0  0
 11 12  1  0  0  0
 22 24  1  0  0  0
 22 25  1  0  0  0
 23 26  1  0  0  0
 23 27  1  0  0  0
  8  9  1  0  0  0
  8 10  1  0  0  0
M  END
> <minimizedAffinity>
-8.31586

$$$$
5ZA7_HMX_U_301


 27 28  0  0  0  0  0  0  0  0999 V2000
  -28.9040  -16.0979   -1.5429 C   0  0  0  0  0  0  0  0  0  0  0  0
  -28.5634  -14.9793   -3.5808 N   0  0  0  0  0  0  0  0  0  0  0  0
  -28.5379  -14.9483   -2.2240 C   0  0  0  0  0  0  0  0  0  0  0  0
  -29.2580  -17.2006   -2.1890 N   0  0  0  0  0  0  0  0  0  0  0  0
  -28.9092  -16.0970   -4.2537 C   0  0  0  0  0  0  0  0  0  0  0  0
  -29.2948  -17.2166   -3.5359 C   0  0  0  0  0  0  0  0  0  0  0  0
  -28.9159  -16.2618    0.2333 Cl  0  0  0  0  0  0  0  0  0  0  0  0
  -28.9123  -16.0518   -5.6199 N   0  0  0  0  0  0  0  0  0  0  0  0
  -28.6292  -15.2321   -6.0860 H   0  0  0  0  0  0  0  0  0  0  0  0
  -29.1977  -16.8389   -6.1378 H   0  0  0  0  0  0  0  0  0  0  0  0
  -27.3946  -13.7165   -0.3515 C   0  0  0  0  0  0  0  0  0  0  0  0
  -27.8735  -12.6173    0.5935 C   0  0  0  0  0  0  0  0  0  0  0  0
  -29.3220  -12.8204    1.0196 C   0  0  0  0  0  0  0  0  0  0  0  0
  -30.3157  -12.7971   -0.1396 C   0  0  0  0  0  0  0  0  0  0  0  0
  -29.8829  -11.9739   -1.3583 C   0  0  0  0  0  0  0  0  0  0  0  0
  -28.6778  -12.4843   -2.1423 C   0  0  0  0  0  0  0  0  0  0  0  0
  -28.1919  -13.7422   -1.5867 N   0  0  0  0  0  0  0  0  0  0  0  0
  -29.6895  -18.5133   -4.1373 C   0  0  0  0  0  0  0  0  0  0  0  0
  -29.3299  -18.7653   -5.2771 O   0  0  0  0  0  0  0  0  0  0  0  0
  -31.6589  -19.7334   -3.5495 C   0  0  0  0  0  0  0  0  0  0  0  0
  -30.4103  -19.3191   -3.3346 N   0  0  0  0  0  0  0  0  0  0  0  0
  -32.2469  -20.5136   -2.6423 N   0  0  0  0  0  0  0  0  0  0  0  0
  -32.3191  -19.3854   -4.6483 N   0  0  0  0  0  0  0  0  0  0  0  0
  -33.1687  -20.8278   -2.7865 H   0  0  0  0  0  0  0  0  0  0  0  0
  -31.7593  -20.7755   -1.8281 H   0  0  0  0  0  0  0  0  0  0  0  0
  -31.8876  -18.8094   -5.3201 H   0  0  0  0  0  0  0  0  0  0  0  0
  -33.2398  -19.7034   -4.7909 H   0  0  0  0  0  0  0  0  0  0  0  0
  8  5  1  0  0  0
 19 18  2  0  0  0
  5  2  2  0  0  0
  5  6  1  0  0  0
 23 20  1  0  0  0
 18  6  1  0  0  0
 18 21  1  0  0  0
  2  3  1  0  0  0
  6  4  2  0  0  0
 15 16  1  0  0  0
 15 14  1  0  0  0
 20 21  2  0  0  0
 20 22  1  0  0  0
 16 17  1  0  0  0
  3 17  1  0  0  0
  3  1  2  0  0  0
 14 13  1  0  0  0
  4  1  1  0  0  0
 17 11  1  0  0  0
  1  7  1  0  0  0
 13 12  1  0  0  0
 11 12  1  0  0  0
 22 24  1  0  0  0
 22 25  1  0  0  0
 23 26  1  0  0  0
 23 27  1  0  0  0
  8  9  1  0  0  0
  8 10  1  0  0  0
M  END
> <minimizedAffinity>
-8.27252

$$$$
5ZA7_HMX_U_301


 27 28  0  0  0  0  0  0  0  0999 V2000
  -27.8012  -16.5348   -2.1933 C   0  0  0  0  0  0  0  0  0  0  0  0
  -27.9395  -15.5407   -4.3176 N   0  0  0  0  0  0  0  0  0  0  0  0
  -27.4453  -15.5091   -3.0538 C   0  0  0  0  0  0  0  0  0  0  0  0
  -28.5896  -17.5255   -2.5880 N   0  0  0  0  0  0  0  0  0  0  0  0
  -28.7328  -16.5480   -4.7390 C   0  0  0  0  0  0  0  0  0  0  0  0
  -29.0874  -17.5399   -3.8401 C   0  0  0  0  0  0  0  0  0  0  0  0
  -27.2409  -16.6813   -0.5062 Cl  0  0  0  0  0  0  0  0  0  0  0  0
  -29.1930  -16.5110   -6.0256 N   0  0  0  0  0  0  0  0  0  0  0  0
  -28.9123  -15.7847   -6.6281 H   0  0  0  0  0  0  0  0  0  0  0  0
  -29.8050  -17.2107   -6.3498 H   0  0  0  0  0  0  0  0  0  0  0  0
  -25.4416  -14.5848   -1.8447 C   0  0  0  0  0  0  0  0  0  0  0  0
  -25.2840  -13.4315   -0.8570 C   0  0  0  0  0  0  0  0  0  0  0  0
  -26.4612  -13.3377    0.1054 C   0  0  0  0  0  0  0  0  0  0  0  0
  -27.8011  -13.0819   -0.5809 C   0  0  0  0  0  0  0  0  0  0  0  0
  -27.7211  -12.3399   -1.9200 C   0  0  0  0  0  0  0  0  0  0  0  0
  -27.0451  -13.0724   -3.0748 C   0  0  0  0  0  0  0  0  0  0  0  0
  -26.6443  -14.4161   -2.6736 N   0  0  0  0  0  0  0  0  0  0  0  0
  -29.9406  -18.7091   -4.1626 C   0  0  0  0  0  0  0  0  0  0  0  0
  -29.8294  -19.2316   -5.2610 O   0  0  0  0  0  0  0  0  0  0  0  0
  -31.8277  -19.8984   -3.3038 C   0  0  0  0  0  0  0  0  0  0  0  0
  -30.7647  -19.1045   -3.1738 N   0  0  0  0  0  0  0  0  0  0  0  0
  -32.5612  -20.1790   -2.2265 N   0  0  0  0  0  0  0  0  0  0  0  0
  -32.1615  -20.4126   -4.4821 N   0  0  0  0  0  0  0  0  0  0  0  0
  -33.3492  -20.7637   -2.3062 H   0  0  0  0  0  0  0  0  0  0  0  0
  -32.3148  -19.8016   -1.3513 H   0  0  0  0  0  0  0  0  0  0  0  0
  -31.6219  -20.2072   -5.2795 H   0  0  0  0  0  0  0  0  0  0  0  0
  -32.9486  -20.9991   -4.5581 H   0  0  0  0  0  0  0  0  0  0  0  0
  8  5  1  0  0  0
 19 18  2  0  0  0
  5  2  2  0  0  0
  5  6  1  0  0  0
 23 20  1  0  0  0
 18  6  1  0  0  0
 18 21  1  0  0  0
  2  3  1  0  0  0
  6  4  2  0  0  0
 15 16  1  0  0  0
 15 14  1  0  0  0
 20 21  2  0  0  0
 20 22  1  0  0  0
 16 17  1  0  0  0
  3 17  1  0  0  0
  3  1  2  0  0  0
 14 13  1  0  0  0
  4  1  1  0  0  0
 17 11  1  0  0  0
  1  7  1  0  0  0
 13 12  1  0  0  0
 11 12  1  0  0  0
 22 24  1  0  0  0
 22 25  1  0  0  0
 23 26  1  0  0  0
 23 27  1  0  0  0
  8  9  1  0  0  0
  8 10  1  0  0  0
M  END
> <minimizedAffinity>
-8.19103

$$$$
5ZA7_HMX_U_301


 27 28  0  0  0  0  0  0  0  0999 V2000
  -28.5284  -14.3029   -3.2043 C   0  0  0  0  0  0  0  0  0  0  0  0
  -29.0459  -15.5225   -1.2640 N   0  0  0  0  0  0  0  0  0  0  0  0
  -28.6943  -14.3396   -1.8293 C   0  0  0  0  0  0  0  0  0  0  0  0
  -28.7168  -15.3819   -3.9520 N   0  0  0  0  0  0  0  0  0  0  0  0
  -29.2536  -16.6267   -2.0116 C   0  0  0  0  0  0  0  0  0  0  0  0
  -29.0509  -16.5552   -3.3796 C   0  0  0  0  0  0  0  0  0  0  0  0
  -28.0894  -12.8444   -4.1326 Cl  0  0  0  0  0  0  0  0  0  0  0  0
  -29.6049  -17.7821   -1.3711 N   0  0  0  0  0  0  0  0  0  0  0  0
  -29.7380  -17.7833   -0.3957 H   0  0  0  0  0  0  0  0  0  0  0  0
  -29.7247  -18.6131   -1.8853 H   0  0  0  0  0  0  0  0  0  0  0  0
  -27.4210  -13.2424    0.0429 C   0  0  0  0  0  0  0  0  0  0  0  0
  -27.8796  -12.5152    1.3045 C   0  0  0  0  0  0  0  0  0  0  0  0
  -29.1041  -13.1712    1.9297 C   0  0  0  0  0  0  0  0  0  0  0  0
  -30.3305  -13.1832    1.0200 C   0  0  0  0  0  0  0  0  0  0  0  0
  -30.3914  -12.0528   -0.0138 C   0  0  0  0  0  0  0  0  0  0  0  0
  -29.3320  -12.0645   -1.1114 C   0  0  0  0  0  0  0  0  0  0  0  0
  -28.4694  -13.2341   -0.9879 N   0  0  0  0  0  0  0  0  0  0  0  0
  -29.2494  -17.6803   -4.3249 C   0  0  0  0  0  0  0  0  0  0  0  0
  -28.6908  -17.6404   -5.4104 O   0  0  0  0  0  0  0  0  0  0  0  0
  -31.1369  -19.1407   -4.4574 C   0  0  0  0  0  0  0  0  0  0  0  0
  -30.0338  -18.6761   -3.8706 N   0  0  0  0  0  0  0  0  0  0  0  0
  -31.8208  -20.1203   -3.8658 N   0  0  0  0  0  0  0  0  0  0  0  0
  -31.5587  -18.6475   -5.6163 N   0  0  0  0  0  0  0  0  0  0  0  0
  -32.6375  -20.4742   -4.2866 H   0  0  0  0  0  0  0  0  0  0  0  0
  -31.5092  -20.4898   -3.0081 H   0  0  0  0  0  0  0  0  0  0  0  0
  -31.0558  -17.9241   -6.0557 H   0  0  0  0  0  0  0  0  0  0  0  0
  -32.3743  -19.0053   -6.0359 H   0  0  0  0  0  0  0  0  0  0  0  0
  8  5  1  0  0  0
 19 18  2  0  0  0
  5  2  2  0  0  0
  5  6  1  0  0  0
 23 20  1  0  0  0
 18  6  1  0  0  0
 18 21  1  0  0  0
  2  3  1  0  0  0
  6  4  2  0  0  0
 15 16  1  0  0  0
 15 14  1  0  0  0
 20 21  2  0  0  0
 20 22  1  0  0  0
 16 17  1  0  0  0
  3 17  1  0  0  0
  3  1  2  0  0  0
 14 13  1  0  0  0
  4  1  1  0  0  0
 17 11  1  0  0  0
  1  7  1  0  0  0
 13 12  1  0  0  0
 11 12  1  0  0  0
 22 24  1  0  0  0
 22 25  1  0  0  0
 23 26  1  0  0  0
 23 27  1  0  0  0
  8  9  1  0  0  0
  8 10  1  0  0  0
M  END
> <minimizedAffinity>
-7.82155

$$$$
5ZA7_HMX_U_301


 27 28  0  0  0  0  0  0  0  0999 V2000
  -29.3172  -14.3543   -1.9330 C   0  0  0  0  0  0  0  0  0  0  0  0
  -28.7147  -15.9322   -0.2998 N   0  0  0  0  0  0  0  0  0  0  0  0
  -28.9937  -14.6422   -0.6170 C   0  0  0  0  0  0  0  0  0  0  0  0
  -29.3664  -15.3050   -2.8563 N   0  0  0  0  0  0  0  0  0  0  0  0
  -28.7724  -16.9136   -1.2246 C   0  0  0  0  0  0  0  0  0  0  0  0
  -29.0731  -16.5803   -2.5346 C   0  0  0  0  0  0  0  0  0  0  0  0
  -29.7331  -12.7298   -2.5411 Cl  0  0  0  0  0  0  0  0  0  0  0  0
  -28.4776  -18.1888   -0.8305 N   0  0  0  0  0  0  0  0  0  0  0  0
  -28.2700  -18.3767    0.1134 H   0  0  0  0  0  0  0  0  0  0  0  0
  -28.4728  -18.9193   -1.4904 H   0  0  0  0  0  0  0  0  0  0  0  0
  -27.5995  -13.3103    0.9994 C   0  0  0  0  0  0  0  0  0  0  0  0
  -27.7496  -13.0315    2.4928 C   0  0  0  0  0  0  0  0  0  0  0  0
  -28.2639  -14.2475    3.2527 C   0  0  0  0  0  0  0  0  0  0  0  0
  -29.6458  -14.7173    2.8038 C   0  0  0  0  0  0  0  0  0  0  0  0
  -30.5462  -13.6300    2.2062 C   0  0  0  0  0  0  0  0  0  0  0  0
  -30.1043  -13.0215    0.8789 C   0  0  0  0  0  0  0  0  0  0  0  0
  -28.8900  -13.6658    0.3911 N   0  0  0  0  0  0  0  0  0  0  0  0
  -29.1813  -17.5498   -3.6514 C   0  0  0  0  0  0  0  0  0  0  0  0
  -28.5225  -17.3571   -4.6618 O   0  0  0  0  0  0  0  0  0  0  0  0
  -30.9469  -19.0442   -4.2534 C   0  0  0  0  0  0  0  0  0  0  0  0
  -30.0052  -18.5908   -3.4260 N   0  0  0  0  0  0  0  0  0  0  0  0
  -31.7012  -20.0752   -3.8721 N   0  0  0  0  0  0  0  0  0  0  0  0
  -31.1401  -18.4896   -5.4448 N   0  0  0  0  0  0  0  0  0  0  0  0
  -32.4008  -20.4217   -4.4719 H   0  0  0  0  0  0  0  0  0  0  0  0
  -31.5586  -20.4901   -2.9908 H   0  0  0  0  0  0  0  0  0  0  0  0
  -30.5847  -17.7282   -5.7292 H   0  0  0  0  0  0  0  0  0  0  0  0
  -31.8387  -18.8401   -6.0434 H   0  0  0  0  0  0  0  0  0  0  0  0
  8  5  1  0  0  0
 19 18  2  0  0  0
  5  2  2  0  0  0
  5  6  1  0  0  0
 23 20  1  0  0  0
 18  6  1  0  0  0
 18 21  1  0  0  0
  2  3  1  0  0  0
  6  4  2  0  0  0
 15 16  1  0  0  0
 15 14  1  0  0  0
 20 21  2  0  0  0
 20 22  1  0  0  0
 16 17  1  0  0  0
  3 17  1  0  0  0
  3  1  2  0  0  0
 14 13  1  0  0  0
  4  1  1  0  0  0
 17 11  1  0  0  0
  1  7  1  0  0  0
 13 12  1  0  0  0
 11 12  1  0  0  0
 22 24  1  0  0  0
 22 25  1  0  0  0
 23 26  1  0  0  0
 23 27  1  0  0  0
  8  9  1  0  0  0
  8 10  1  0  0  0
M  END
> <minimizedAffinity>
-7.20881

$$$$
5ZA7_HMX_U_301


 27 28  0  0  0  0  0  0  0  0999 V2000
  -28.7533  -14.7074   -0.8864 C   0  0  0  0  0  0  0  0  0  0  0  0
  -28.3536  -13.3323   -2.7491 N   0  0  0  0  0  0  0  0  0  0  0  0
  -28.5194  -13.4448   -1.4065 C   0  0  0  0  0  0  0  0  0  0  0  0
  -28.8034  -15.7780   -1.6674 N   0  0  0  0  0  0  0  0  0  0  0  0
  -28.3892  -14.4132   -3.5565 C   0  0  0  0  0  0  0  0  0  0  0  0
  -28.6527  -15.6539   -3.0008 C   0  0  0  0  0  0  0  0  0  0  0  0
  -28.9762  -15.0627    0.8473 Cl  0  0  0  0  0  0  0  0  0  0  0  0
  -28.2146  -14.2213   -4.8986 N   0  0  0  0  0  0  0  0  0  0  0  0
  -28.0290  -13.3193   -5.2468 H   0  0  0  0  0  0  0  0  0  0  0  0
  -28.2744  -14.9850   -5.5169 H   0  0  0  0  0  0  0  0  0  0  0  0
  -29.3693  -11.1275   -0.9182 C   0  0  0  0  0  0  0  0  0  0  0  0
  -28.6495   -9.8047   -0.6676 C   0  0  0  0  0  0  0  0  0  0  0  0
  -27.4204   -9.6456   -1.5534 C   0  0  0  0  0  0  0  0  0  0  0  0
  -26.3552  -10.7166   -1.3298 C   0  0  0  0  0  0  0  0  0  0  0  0
  -26.3332  -11.3375    0.0717 C   0  0  0  0  0  0  0  0  0  0  0  0
  -27.5427  -12.1759    0.4733 C   0  0  0  0  0  0  0  0  0  0  0  0
  -28.4952  -12.2734   -0.6269 N   0  0  0  0  0  0  0  0  0  0  0  0
  -28.7121  -16.9263   -3.7599 C   0  0  0  0  0  0  0  0  0  0  0  0
  -28.0962  -17.0117   -4.8113 O   0  0  0  0  0  0  0  0  0  0  0  0
  -30.1567  -18.8294   -3.8240 C   0  0  0  0  0  0  0  0  0  0  0  0
  -29.4454  -17.8994   -3.1867 N   0  0  0  0  0  0  0  0  0  0  0  0
  -30.8530  -19.7138   -3.1095 N   0  0  0  0  0  0  0  0  0  0  0  0
  -30.1783  -18.8890   -5.1507 N   0  0  0  0  0  0  0  0  0  0  0  0
  -31.3833  -20.4067   -3.5654 H   0  0  0  0  0  0  0  0  0  0  0  0
  -30.8369  -19.6739   -2.1259 H   0  0  0  0  0  0  0  0  0  0  0  0
  -29.6652  -18.2374   -5.6811 H   0  0  0  0  0  0  0  0  0  0  0  0
  -30.7074  -19.5848   -5.6037 H   0  0  0  0  0  0  0  0  0  0  0  0
  8  5  1  0  0  0
 19 18  2  0  0  0
  5  2  2  0  0  0
  5  6  1  0  0  0
 23 20  1  0  0  0
 18  6  1  0  0  0
 18 21  1  0  0  0
  2  3  1  0  0  0
  6  4  2  0  0  0
 15 16  1  0  0  0
 15 14  1  0  0  0
 20 21  2  0  0  0
 20 22  1  0  0  0
 16 17  1  0  0  0
  3 17  1  0  0  0
  3  1  2  0  0  0
 14 13  1  0  0  0
  4  1  1  0  0  0
 17 11  1  0  0  0
  1  7  1  0  0  0
 13 12  1  0  0  0
 11 12  1  0  0  0
 22 24  1  0  0  0
 22 25  1  0  0  0
 23 26  1  0  0  0
 23 27  1  0  0  0
  8  9  1  0  0  0
  8 10  1  0  0  0
M  END
> <minimizedAffinity>
-7.16792

$$$$
5ZA7_HMX_U_301


 27 28  0  0  0  0  0  0  0  0999 V2000
  -26.0211  -14.7144   -3.9033 C   0  0  0  0  0  0  0  0  0  0  0  0
  -27.6733  -14.2814   -2.2899 N   0  0  0  0  0  0  0  0  0  0  0  0
  -26.4666  -13.9662   -2.8256 C   0  0  0  0  0  0  0  0  0  0  0  0
  -26.7499  -15.7006   -4.4081 N   0  0  0  0  0  0  0  0  0  0  0  0
  -28.4330  -15.2737   -2.7995 C   0  0  0  0  0  0  0  0  0  0  0  0
  -27.9398  -16.0156   -3.8597 C   0  0  0  0  0  0  0  0  0  0  0  0
  -24.4775  -14.4431   -4.7549 Cl  0  0  0  0  0  0  0  0  0  0  0  0
  -29.6367  -15.5336   -2.2062 N   0  0  0  0  0  0  0  0  0  0  0  0
  -29.9452  -14.9776   -1.4545 H   0  0  0  0  0  0  0  0  0  0  0  0
  -30.1952  -16.2766   -2.5305 H   0  0  0  0  0  0  0  0  0  0  0  0
  -25.1612  -13.0638   -0.8732 C   0  0  0  0  0  0  0  0  0  0  0  0
  -25.2317  -11.7381   -0.1195 C   0  0  0  0  0  0  0  0  0  0  0  0
  -26.6652  -11.2494    0.0454 C   0  0  0  0  0  0  0  0  0  0  0  0
  -27.3831  -10.9844   -1.2759 C   0  0  0  0  0  0  0  0  0  0  0  0
  -26.4746  -10.6097   -2.4525 C   0  0  0  0  0  0  0  0  0  0  0  0
  -25.5221  -11.6885   -2.9589 C   0  0  0  0  0  0  0  0  0  0  0  0
  -25.7158  -12.9363   -2.2289 N   0  0  0  0  0  0  0  0  0  0  0  0
  -28.6639  -17.1248   -4.5262 C   0  0  0  0  0  0  0  0  0  0  0  0
  -28.7076  -17.1473   -5.7467 O   0  0  0  0  0  0  0  0  0  0  0  0
  -30.3028  -18.7539   -3.9158 C   0  0  0  0  0  0  0  0  0  0  0  0
  -29.2006  -18.0376   -3.6944 N   0  0  0  0  0  0  0  0  0  0  0  0
  -30.7212  -19.6040   -2.9779 N   0  0  0  0  0  0  0  0  0  0  0  0
  -30.9827  -18.6361   -5.0508 N   0  0  0  0  0  0  0  0  0  0  0  0
  -31.5334  -20.1401   -3.1264 H   0  0  0  0  0  0  0  0  0  0  0  0
  -30.2179  -19.6955   -2.1367 H   0  0  0  0  0  0  0  0  0  0  0  0
  -30.6763  -18.0092   -5.7453 H   0  0  0  0  0  0  0  0  0  0  0  0
  -31.7931  -19.1756   -5.1974 H   0  0  0  0  0  0  0  0  0  0  0  0
  8  5  1  0  0  0
 19 18  2  0  0  0
  5  2  2  0  0  0
  5  6  1  0  0  0
 23 20  1  0  0  0
 18  6  1  0  0  0
 18 21  1  0  0  0
  2  3  1  0  0  0
  6  4  2  0  0  0
 15 16  1  0  0  0
 15 14  1  0  0  0
 20 21  2  0  0  0
 20 22  1  0  0  0
 16 17  1  0  0  0
  3 17  1  0  0  0
  3  1  2  0  0  0
 14 13  1  0  0  0
  4  1  1  0  0  0
 17 11  1  0  0  0
  1  7  1  0  0  0
 13 12  1  0  0  0
 11 12  1  0  0  0
 22 24  1  0  0  0
 22 25  1  0  0  0
 23 26  1  0  0  0
 23 27  1  0  0  0
  8  9  1  0  0  0
  8 10  1  0  0  0
M  END
> <minimizedAffinity>
-7.07021

$$$$
5ZA7_HMX_U_301


 27 28  0  0  0  0  0  0  0  0999 V2000
  -29.3053  -13.8303   -2.2321 C   0  0  0  0  0  0  0  0  0  0  0  0
  -27.0759  -13.8161   -2.9734 N   0  0  0  0  0  0  0  0  0  0  0  0
  -28.0532  -13.2372   -2.2303 C   0  0  0  0  0  0  0  0  0  0  0  0
  -29.5456  -14.9348   -2.9257 N   0  0  0  0  0  0  0  0  0  0  0  0
  -27.3004  -14.9470   -3.6750 C   0  0  0  0  0  0  0  0  0  0  0  0
  -28.5728  -15.4933   -3.6724 C   0  0  0  0  0  0  0  0  0  0  0  0
  -30.7092  -13.2342   -1.3071 Cl  0  0  0  0  0  0  0  0  0  0  0  0
  -26.2674  -15.4712   -4.4006 N   0  0  0  0  0  0  0  0  0  0  0  0
  -25.3795  -15.0470   -4.3703 H   0  0  0  0  0  0  0  0  0  0  0  0
  -26.4112  -16.2730   -4.9535 H   0  0  0  0  0  0  0  0  0  0  0  0
  -27.0585  -10.9264   -2.1931 C   0  0  0  0  0  0  0  0  0  0  0  0
  -26.0907  -10.2438   -1.2298 C   0  0  0  0  0  0  0  0  0  0  0  0
  -25.0105  -11.1964   -0.7336 C   0  0  0  0  0  0  0  0  0  0  0  0
  -25.5526  -12.3941    0.0432 C   0  0  0  0  0  0  0  0  0  0  0  0
  -26.8914  -12.1637    0.7535 C   0  0  0  0  0  0  0  0  0  0  0  0
  -28.1118  -11.9352   -0.1329 C   0  0  0  0  0  0  0  0  0  0  0  0
  -27.7569  -12.0453   -1.5433 N   0  0  0  0  0  0  0  0  0  0  0  0
  -28.9633  -16.7333   -4.3858 C   0  0  0  0  0  0  0  0  0  0  0  0
  -28.7499  -16.8118   -5.5859 O   0  0  0  0  0  0  0  0  0  0  0  0
  -30.3774  -18.6227   -4.0072 C   0  0  0  0  0  0  0  0  0  0  0  0
  -29.5128  -17.6883   -3.6117 N   0  0  0  0  0  0  0  0  0  0  0  0
  -30.8516  -19.4868   -3.1095 N   0  0  0  0  0  0  0  0  0  0  0  0
  -30.7671  -18.7064   -5.2742 N   0  0  0  0  0  0  0  0  0  0  0  0
  -31.4908  -20.1827   -3.3860 H   0  0  0  0  0  0  0  0  0  0  0  0
  -30.5626  -19.4290   -2.1702 H   0  0  0  0  0  0  0  0  0  0  0  0
  -30.4187  -18.0698   -5.9395 H   0  0  0  0  0  0  0  0  0  0  0  0
  -31.4044  -19.4051   -5.5481 H   0  0  0  0  0  0  0  0  0  0  0  0
  8  5  1  0  0  0
 19 18  2  0  0  0
  5  2  2  0  0  0
  5  6  1  0  0  0
 23 20  1  0  0  0
 18  6  1  0  0  0
 18 21  1  0  0  0
  2  3  1  0  0  0
  6  4  2  0  0  0
 15 16  1  0  0  0
 15 14  1  0  0  0
 20 21  2  0  0  0
 20 22  1  0  0  0
 16 17  1  0  0  0
  3 17  1  0  0  0
  3  1  2  0  0  0
 14 13  1  0  0  0
  4  1  1  0  0  0
 17 11  1  0  0  0
  1  7  1  0  0  0
 13 12  1  0  0  0
 11 12  1  0  0  0
 22 24  1  0  0  0
 22 25  1  0  0  0
 23 26  1  0  0  0
 23 27  1  0  0  0
  8  9  1  0  0  0
  8 10  1  0  0  0
M  END
> <minimizedAffinity>
-6.98384

$$$$
5ZA7_HMX_U_301


 27 28  0  0  0  0  0  0  0  0999 V2000
  -29.4188  -14.2176   -1.8375 C   0  0  0  0  0  0  0  0  0  0  0  0
  -28.0860  -15.6118   -0.4959 N   0  0  0  0  0  0  0  0  0  0  0  0
  -28.6209  -14.3840   -0.7172 C   0  0  0  0  0  0  0  0  0  0  0  0
  -29.6661  -15.2238   -2.6652 N   0  0  0  0  0  0  0  0  0  0  0  0
  -28.3377  -16.6494   -1.3214 C   0  0  0  0  0  0  0  0  0  0  0  0
  -29.1181  -16.4350   -2.4451 C   0  0  0  0  0  0  0  0  0  0  0  0
  -30.2255  -12.6919   -2.2883 Cl  0  0  0  0  0  0  0  0  0  0  0  0
  -27.7630  -17.8559   -1.0342 N   0  0  0  0  0  0  0  0  0  0  0  0
  -27.2158  -17.9596   -0.2223 H   0  0  0  0  0  0  0  0  0  0  0  0
  -27.8961  -18.6211   -1.6391 H   0  0  0  0  0  0  0  0  0  0  0  0
  -29.3230  -12.4488    0.7293 C   0  0  0  0  0  0  0  0  0  0  0  0
  -28.8085  -11.0159    0.8429 C   0  0  0  0  0  0  0  0  0  0  0  0
  -28.4261  -10.4364   -0.5131 C   0  0  0  0  0  0  0  0  0  0  0  0
  -27.3046  -11.1979   -1.2161 C   0  0  0  0  0  0  0  0  0  0  0  0
  -26.3326  -11.9374   -0.2895 C   0  0  0  0  0  0  0  0  0  0  0  0
  -26.8968  -13.1093    0.5077 C   0  0  0  0  0  0  0  0  0  0  0  0
  -28.2967  -13.3409    0.1700 N   0  0  0  0  0  0  0  0  0  0  0  0
  -29.4856  -17.4786   -3.4324 C   0  0  0  0  0  0  0  0  0  0  0  0
  -29.2050  -17.2995   -4.6077 O   0  0  0  0  0  0  0  0  0  0  0  0
  -31.0435  -19.2898   -3.5050 C   0  0  0  0  0  0  0  0  0  0  0  0
  -30.0926  -18.5642   -2.9165 N   0  0  0  0  0  0  0  0  0  0  0  0
  -31.5646  -20.3271   -2.8494 N   0  0  0  0  0  0  0  0  0  0  0  0
  -31.4731  -18.9981   -4.7276 N   0  0  0  0  0  0  0  0  0  0  0  0
  -32.2676  -20.8728   -3.2705 H   0  0  0  0  0  0  0  0  0  0  0  0
  -31.2464  -20.5475   -1.9442 H   0  0  0  0  0  0  0  0  0  0  0  0
  -31.0902  -18.2327   -5.2142 H   0  0  0  0  0  0  0  0  0  0  0  0
  -32.1743  -19.5472   -5.1470 H   0  0  0  0  0  0  0  0  0  0  0  0
  8  5  1  0  0  0
 19 18  2  0  0  0
  5  2  2  0  0  0
  5  6  1  0  0  0
 23 20  1  0  0  0
 18  6  1  0  0  0
 18 21  1  0  0  0
  2  3  1  0  0  0
  6  4  2  0  0  0
 15 16  1  0  0  0
 15 14  1  0  0  0
 20 21  2  0  0  0
 20 22  1  0  0  0
 16 17  1  0  0  0
  3 17  1  0  0  0
  3  1  2  0  0  0
 14 13  1  0  0  0
  4  1  1  0  0  0
 17 11  1  0  0  0
  1  7  1  0  0  0
 13 12  1  0  0  0
 11 12  1  0  0  0
 22 24  1  0  0  0
 22 25  1  0  0  0
 23 26  1  0  0  0
 23 27  1  0  0  0
  8  9  1  0  0  0
  8 10  1  0  0  0
M  END
> <minimizedAffinity>
-6.95870

$$$$
5ZA7_HMX_U_301


 27 28  0  0  0  0  0  0  0  0999 V2000
  -26.6745  -16.2823   -0.3230 C   0  0  0  0  0  0  0  0  0  0  0  0
  -28.4742  -17.7901   -0.2351 N   0  0  0  0  0  0  0  0  0  0  0  0
  -27.4382  -17.1847    0.3994 C   0  0  0  0  0  0  0  0  0  0  0  0
  -26.9480  -16.0050   -1.5907 N   0  0  0  0  0  0  0  0  0  0  0  0
  -28.7737  -17.5100   -1.5210 C   0  0  0  0  0  0  0  0  0  0  0  0
  -27.9693  -16.6227   -2.2162 C   0  0  0  0  0  0  0  0  0  0  0  0
  -25.2890  -15.3728    0.3363 Cl  0  0  0  0  0  0  0  0  0  0  0  0
  -29.8314  -18.1601   -2.0929 N   0  0  0  0  0  0  0  0  0  0  0  0
  -30.3746  -18.7824   -1.5573 H   0  0  0  0  0  0  0  0  0  0  0  0
  -30.0499  -18.0061   -3.0404 H   0  0  0  0  0  0  0  0  0  0  0  0
  -26.7712  -16.5464    2.7400 C   0  0  0  0  0  0  0  0  0  0  0  0
  -25.7246  -17.1123    3.6966 C   0  0  0  0  0  0  0  0  0  0  0  0
  -24.4493  -17.5225    2.9714 C   0  0  0  0  0  0  0  0  0  0  0  0
  -24.6569  -18.6189    1.9291 C   0  0  0  0  0  0  0  0  0  0  0  0
  -25.8393  -19.5585    2.1921 C   0  0  0  0  0  0  0  0  0  0  0  0
  -27.2353  -18.9479    2.1163 C   0  0  0  0  0  0  0  0  0  0  0  0
  -27.1669  -17.5423    1.7332 N   0  0  0  0  0  0  0  0  0  0  0  0
  -28.1817  -16.2130   -3.6255 C   0  0  0  0  0  0  0  0  0  0  0  0
  -28.0073  -17.0382   -4.5091 O   0  0  0  0  0  0  0  0  0  0  0  0
  -27.8074  -13.9148   -4.1648 C   0  0  0  0  0  0  0  0  0  0  0  0
  -28.5785  -14.9376   -3.7957 N   0  0  0  0  0  0  0  0  0  0  0  0
  -28.3481  -12.7004   -4.2659 N   0  0  0  0  0  0  0  0  0  0  0  0
  -26.5184  -14.0882   -4.4347 N   0  0  0  0  0  0  0  0  0  0  0  0
  -27.7918  -11.9349   -4.5373 H   0  0  0  0  0  0  0  0  0  0  0  0
  -29.3038  -12.5692   -4.0691 H   0  0  0  0  0  0  0  0  0  0  0  0
  -26.1162  -14.9838   -4.3610 H   0  0  0  0  0  0  0  0  0  0  0  0
  -25.9653  -13.3212   -4.7085 H   0  0  0  0  0  0  0  0  0  0  0  0
  8  5  1  0  0  0
 19 18  2  0  0  0
  5  2  2  0  0  0
  5  6  1  0  0  0
 23 20  1  0  0  0
 18  6  1  0  0  0
 18 21  1  0  0  0
  2  3  1  0  0  0
  6  4  2  0  0  0
 15 16  1  0  0  0
 15 14  1  0  0  0
 20 21  2  0  0  0
 20 22  1  0  0  0
 16 17  1  0  0  0
  3 17  1  0  0  0
  3  1  2  0  0  0
 14 13  1  0  0  0
  4  1  1  0  0  0
 17 11  1  0  0  0
  1  7  1  0  0  0
 13 12  1  0  0  0
 11 12  1  0  0  0
 22 24  1  0  0  0
 22 25  1  0  0  0
 23 26  1  0  0  0
 23 27  1  0  0  0
  8  9  1  0  0  0
  8 10  1  0  0  0
M  END
> <minimizedAffinity>
-6.64823

$$$$
