3U8N_09S_A_211


 18 19  0  0  0  0  0  0  0  0999 V2000
   56.3259   21.6261  103.3764 C   0  0  0  0  0  0  0  0  0  0  0  0
   55.1765   21.0211  103.7608 N   0  0  0  0  0  0  0  0  0  0  0  0
   54.0025   21.5726  103.4127 C   0  0  0  0  0  0  0  0  0  0  0  0
   53.9018   22.7712  102.6551 C   0  0  0  0  0  0  0  0  0  0  0  0
   55.1155   23.3910  102.2720 C   0  0  0  0  0  0  0  0  0  0  0  0
   56.3661   22.8292  102.6292 C   0  0  0  0  0  0  0  0  0  0  0  0
   57.7930   20.8533  103.8680 Br  0  0  0  0  0  0  0  0  0  0  0  0
   51.5162   22.3987  102.3518 C   0  0  0  0  0  0  0  0  0  0  0  0
   50.4940   22.6504  101.2422 C   0  0  0  0  0  0  0  0  0  0  0  0
   51.1811   22.7458   99.9391 N   0  0  0  0  0  0  0  0  0  0  0  0
   51.5003   24.1394   99.5364 C   0  0  0  0  0  0  0  0  0  0  0  0
   52.7235   24.6926  100.2832 C   0  0  0  0  0  0  0  0  0  0  0  0
   52.5597   24.6736  101.8228 C   0  0  0  0  0  0  0  0  0  0  0  0
   52.6900   23.2970  102.3289 N   0  0  0  0  0  0  0  0  0  0  0  0
   52.0524   22.2185   99.9945 H   0  0  0  0  0  0  0  0  0  0  0  0
   57.5940   23.3713  102.2659 O   0  0  0  0  0  0  0  0  0  0  0  0
   57.5628   24.5647  101.5092 C   0  0  0  0  0  0  0  0  0  0  0  0
   58.2116   25.7628  102.2009 C   0  0  0  0  0  0  0  0  0  0  0  0
 11 10  1  0  0  0
 11 12  1  0  0  0
 10  9  1  0  0  0
 12 13  1  0  0  0
  9  8  1  0  0  0
 18 17  1  0  0  0
 17 16  1  0  0  0
 13 14  1  0  0  0
  8 14  1  0  0  0
 14  4  1  0  0  0
  5  4  2  0  0  0
  5  6  1  0  0  0
 16  6  1  0  0  0
  4  3  1  0  0  0
  6  1  2  0  0  0
  3  2  2  0  0  0
  1  2  1  0  0  0
  1  7  1  0  0  0
 10 15  1  0  0  0
M  END
> <minimizedAffinity>
-7.61638

$$$$
3U8N_09S_A_211


 18 19  0  0  0  0  0  0  0  0999 V2000
   56.4906   21.9198  103.1660 C   0  0  0  0  0  0  0  0  0  0  0  0
   56.3390   23.0666  102.4610 N   0  0  0  0  0  0  0  0  0  0  0  0
   55.0989   23.5062  102.1918 C   0  0  0  0  0  0  0  0  0  0  0  0
   53.9247   22.8235  102.6114 C   0  0  0  0  0  0  0  0  0  0  0  0
   54.1070   21.6229  103.3389 C   0  0  0  0  0  0  0  0  0  0  0  0
   55.4053   21.1380  103.6331 C   0  0  0  0  0  0  0  0  0  0  0  0
   58.1194   21.4222  103.4669 Br  0  0  0  0  0  0  0  0  0  0  0  0
   51.5498   22.3603  102.3516 C   0  0  0  0  0  0  0  0  0  0  0  0
   50.4974   22.5781  101.2634 C   0  0  0  0  0  0  0  0  0  0  0  0
   51.1548   22.7071   99.9480 N   0  0  0  0  0  0  0  0  0  0  0  0
   51.4120   24.1142   99.5478 C   0  0  0  0  0  0  0  0  0  0  0  0
   52.6272   24.7104  100.2744 C   0  0  0  0  0  0  0  0  0  0  0  0
   52.4940   24.6768  101.8167 C   0  0  0  0  0  0  0  0  0  0  0  0
   52.6873   23.3036  102.3118 N   0  0  0  0  0  0  0  0  0  0  0  0
   52.0468   22.2137   99.9835 H   0  0  0  0  0  0  0  0  0  0  0  0
   55.6562   19.9812  104.3628 O   0  0  0  0  0  0  0  0  0  0  0  0
   55.7967   18.7832  103.6259 C   0  0  0  0  0  0  0  0  0  0  0  0
   55.3769   17.5263  104.3867 C   0  0  0  0  0  0  0  0  0  0  0  0
 11 10  1  0  0  0
 11 12  1  0  0  0
 10  9  1  0  0  0
 12 13  1  0  0  0
  9  8  1  0  0  0
 18 17  1  0  0  0
 17 16  1  0  0  0
 13 14  1  0  0  0
  8 14  1  0  0  0
 14  4  1  0  0  0
  5  4  2  0  0  0
  5  6  1  0  0  0
 16  6  1  0  0  0
  4  3  1  0  0  0
  6  1  2  0  0  0
  3  2  2  0  0  0
  1  2  1  0  0  0
  1  7  1  0  0  0
 10 15  1  0  0  0
M  END
> <minimizedAffinity>
-6.34374

$$$$
