2ZA0_MGI_A_300


 25 26  0  0  0  0  0  0  0  0999 V2000
   45.3312   28.8268   57.1833 C   0  0  0  0  0  0  0  0  0  0  0  0
   44.8020   28.3310   58.4075 C   0  0  0  0  0  0  0  0  0  0  0  0
   45.4299   27.3414   59.0950 O   0  0  0  0  0  0  0  0  0  0  0  0
   43.6329   28.8543   58.9259 C   0  0  0  0  0  0  0  0  0  0  0  0
   44.6080   29.8878   56.4938 C   0  0  0  0  0  0  0  0  0  0  0  0
   45.0286   30.5161   55.1794 C   0  0  0  0  0  0  0  0  0  0  0  0
   43.4335   30.3928   57.0486 C   0  0  0  0  0  0  0  0  0  0  0  0
   42.9323   29.8991   58.2511 C   0  0  0  0  0  0  0  0  0  0  0  0
   46.2240   26.9712   58.7628 H   0  0  0  0  0  0  0  0  0  0  0  0
   47.6790   28.4581   57.2319 O   0  0  0  0  0  0  0  0  0  0  0  0
   46.6212   28.2229   56.6637 C   0  0  0  0  0  0  0  0  0  0  0  0
   46.6531   27.3837   55.4770 O   0  0  0  0  0  0  0  0  0  0  0  0
   47.1448   27.8344   54.2002 C   0  0  0  0  0  0  0  0  0  0  0  0
   41.7827   30.4621   58.7157 O   0  0  0  0  0  0  0  0  0  0  0  0
   40.6661   29.7601   59.1495 C   0  0  0  0  0  0  0  0  0  0  0  0
   40.6147   29.1146   60.4330 C   0  0  0  0  0  0  0  0  0  0  0  0
   39.5655   29.6830   58.2821 C   0  0  0  0  0  0  0  0  0  0  0  0
   39.6174   30.2960   57.0818 O   0  0  0  0  0  0  0  0  0  0  0  0
   38.4171   28.9755   58.6518 C   0  0  0  0  0  0  0  0  0  0  0  0
   37.3418   28.8969   57.7868 O   0  0  0  0  0  0  0  0  0  0  0  0
   38.3611   28.3295   59.9265 C   0  0  0  0  0  0  0  0  0  0  0  0
   39.4539   28.4018   60.8105 C   0  0  0  0  0  0  0  0  0  0  0  0
   39.3733   27.7225   62.1399 C   0  0  0  0  0  0  0  0  0  0  0  0
   40.3853   30.7709   56.8311 H   0  0  0  0  0  0  0  0  0  0  0  0
   37.3801   29.3207   56.9520 H   0  0  0  0  0  0  0  0  0  0  0  0
 10 11  2  0  0  0
 11 12  1  0  0  0
 11  1  1  0  0  0
 12 13  1  0  0  0
  1  5  2  0  0  0
  1  2  1  0  0  0
  2  4  2  0  0  0
  2  3  1  0  0  0
  4  8  1  0  0  0
  5  6  1  0  0  0
  5  7  1  0  0  0
  7  8  2  0  0  0
  8 14  1  0  0  0
 14 15  1  0  0  0
 15 16  1  0  0  0
 15 17  2  0  0  0
 16 22  2  0  0  0
 17 19  1  0  0  0
 17 18  1  0  0  0
 19 21  2  0  0  0
 19 20  1  0  0  0
 21 22  1  0  0  0
 22 23  1  0  0  0
  3  9  1  0  0  0
 18 24  1  0  0  0
 20 25  1  0  0  0
M  END
> <minimizedAffinity>
-8.65728

$$$$
2ZA0_MGI_A_300


 25 26  0  0  0  0  0  0  0  0999 V2000
   43.2180   33.1506   57.8039 C   0  0  0  0  0  0  0  0  0  0  0  0
   41.8253   32.9094   57.6398 C   0  0  0  0  0  0  0  0  0  0  0  0
   41.0008   33.8655   57.1377 O   0  0  0  0  0  0  0  0  0  0  0  0
   41.2826   31.6868   57.9866 C   0  0  0  0  0  0  0  0  0  0  0  0
   44.0474   32.0839   58.3501 C   0  0  0  0  0  0  0  0  0  0  0  0
   45.5402   32.1821   58.5981 C   0  0  0  0  0  0  0  0  0  0  0  0
   43.4651   30.8630   58.6859 C   0  0  0  0  0  0  0  0  0  0  0  0
   42.1004   30.6422   58.5137 C   0  0  0  0  0  0  0  0  0  0  0  0
   41.3464   34.7022   56.8956 H   0  0  0  0  0  0  0  0  0  0  0  0
   43.7942   34.8259   56.2190 O   0  0  0  0  0  0  0  0  0  0  0  0
   43.7626   34.5066   57.3998 C   0  0  0  0  0  0  0  0  0  0  0  0
   44.2856   35.4468   58.3776 O   0  0  0  0  0  0  0  0  0  0  0  0
   45.6859   35.7586   58.5077 C   0  0  0  0  0  0  0  0  0  0  0  0
   41.6270   29.4143   58.8640 O   0  0  0  0  0  0  0  0  0  0  0  0
   40.3441   29.1531   59.3263 C   0  0  0  0  0  0  0  0  0  0  0  0
   40.0789   28.7831   60.6899 C   0  0  0  0  0  0  0  0  0  0  0  0
   39.2869   29.2497   58.4084 C   0  0  0  0  0  0  0  0  0  0  0  0
   39.5414   29.6035   57.1320 O   0  0  0  0  0  0  0  0  0  0  0  0
   37.9731   28.9814   58.8062 C   0  0  0  0  0  0  0  0  0  0  0  0
   36.9396   29.0698   57.8927 O   0  0  0  0  0  0  0  0  0  0  0  0
   37.7035   28.6108   60.1609 C   0  0  0  0  0  0  0  0  0  0  0  0
   38.7516   28.5148   61.0954 C   0  0  0  0  0  0  0  0  0  0  0  0
   38.4476   28.1294   62.5076 C   0  0  0  0  0  0  0  0  0  0  0  0
   40.4204   29.7839   56.8622 H   0  0  0  0  0  0  0  0  0  0  0  0
   37.1180   29.3128   57.0055 H   0  0  0  0  0  0  0  0  0  0  0  0
 10 11  2  0  0  0
 11 12  1  0  0  0
 11  1  1  0  0  0
 12 13  1  0  0  0
  1  5  2  0  0  0
  1  2  1  0  0  0
  2  4  2  0  0  0
  2  3  1  0  0  0
  4  8  1  0  0  0
  5  6  1  0  0  0
  5  7  1  0  0  0
  7  8  2  0  0  0
  8 14  1  0  0  0
 14 15  1  0  0  0
 15 16  1  0  0  0
 15 17  2  0  0  0
 16 22  2  0  0  0
 17 19  1  0  0  0
 17 18  1  0  0  0
 19 21  2  0  0  0
 19 20  1  0  0  0
 21 22  1  0  0  0
 22 23  1  0  0  0
  3  9  1  0  0  0
 18 24  1  0  0  0
 20 25  1  0  0  0
M  END
> <minimizedAffinity>
-8.43830

$$$$
2ZA0_MGI_A_300


 25 26  0  0  0  0  0  0  0  0999 V2000
   44.9680   29.3487   57.0641 C   0  0  0  0  0  0  0  0  0  0  0  0
   44.2695   30.5561   56.7834 C   0  0  0  0  0  0  0  0  0  0  0  0
   44.6339   31.3540   55.7457 O   0  0  0  0  0  0  0  0  0  0  0  0
   43.1962   30.9399   57.5646 C   0  0  0  0  0  0  0  0  0  0  0  0
   44.5282   28.5389   58.1932 C   0  0  0  0  0  0  0  0  0  0  0  0
   45.1687   27.2365   58.6324 C   0  0  0  0  0  0  0  0  0  0  0  0
   43.4397   28.9567   58.9569 C   0  0  0  0  0  0  0  0  0  0  0  0
   42.7639   30.1394   58.6647 C   0  0  0  0  0  0  0  0  0  0  0  0
   45.3586   31.1140   55.2023 H   0  0  0  0  0  0  0  0  0  0  0  0
   45.9387   28.7047   54.9920 O   0  0  0  0  0  0  0  0  0  0  0  0
   46.1330   28.9707   56.1704 C   0  0  0  0  0  0  0  0  0  0  0  0
   47.4927   28.8822   56.6772 O   0  0  0  0  0  0  0  0  0  0  0  0
   48.0702   29.8523   57.5719 C   0  0  0  0  0  0  0  0  0  0  0  0
   41.7086   30.4583   59.4640 O   0  0  0  0  0  0  0  0  0  0  0  0
   40.5746   29.6771   59.6422 C   0  0  0  0  0  0  0  0  0  0  0  0
   40.3988   28.8276   60.7885 C   0  0  0  0  0  0  0  0  0  0  0  0
   39.5843   29.7275   58.6491 C   0  0  0  0  0  0  0  0  0  0  0  0
   39.7523   30.5313   57.5791 O   0  0  0  0  0  0  0  0  0  0  0  0
   38.4263   28.9510   58.7597 C   0  0  0  0  0  0  0  0  0  0  0  0
   37.4608   29.0000   57.7718 O   0  0  0  0  0  0  0  0  0  0  0  0
   38.2468   28.1024   59.8969 C   0  0  0  0  0  0  0  0  0  0  0  0
   39.2277   28.0444   60.9045 C   0  0  0  0  0  0  0  0  0  0  0  0
   39.0188   27.1535   62.0868 C   0  0  0  0  0  0  0  0  0  0  0  0
   40.5269   31.0528   57.5019 H   0  0  0  0  0  0  0  0  0  0  0  0
   37.5799   29.5565   57.0275 H   0  0  0  0  0  0  0  0  0  0  0  0
 10 11  2  0  0  0
 11 12  1  0  0  0
 11  1  1  0  0  0
 12 13  1  0  0  0
  1  5  2  0  0  0
  1  2  1  0  0  0
  2  4  2  0  0  0
  2  3  1  0  0  0
  4  8  1  0  0  0
  5  6  1  0  0  0
  5  7  1  0  0  0
  7  8  2  0  0  0
  8 14  1  0  0  0
 14 15  1  0  0  0
 15 16  1  0  0  0
 15 17  2  0  0  0
 16 22  2  0  0  0
 17 19  1  0  0  0
 17 18  1  0  0  0
 19 21  2  0  0  0
 19 20  1  0  0  0
 21 22  1  0  0  0
 22 23  1  0  0  0
  3  9  1  0  0  0
 18 24  1  0  0  0
 20 25  1  0  0  0
M  END
> <minimizedAffinity>
-8.23936

$$$$
2ZA0_MGI_A_300


 25 26  0  0  0  0  0  0  0  0999 V2000
   44.2763   33.9341   55.9608 C   0  0  0  0  0  0  0  0  0  0  0  0
   43.8025   32.8823   55.1277 C   0  0  0  0  0  0  0  0  0  0  0  0
   44.4431   32.5562   53.9747 O   0  0  0  0  0  0  0  0  0  0  0  0
   42.6759   32.1648   55.4814 C   0  0  0  0  0  0  0  0  0  0  0  0
   43.5422   34.2354   57.1832 C   0  0  0  0  0  0  0  0  0  0  0  0
   43.9058   35.3275   58.1703 C   0  0  0  0  0  0  0  0  0  0  0  0
   42.4116   33.4882   57.5086 C   0  0  0  0  0  0  0  0  0  0  0  0
   41.9646   32.4582   56.6839 C   0  0  0  0  0  0  0  0  0  0  0  0
   45.2091   33.0290   53.7145 H   0  0  0  0  0  0  0  0  0  0  0  0
   45.4463   35.5522   54.6712 O   0  0  0  0  0  0  0  0  0  0  0  0
   45.5217   34.6836   55.5297 C   0  0  0  0  0  0  0  0  0  0  0  0
   46.8305   34.3832   56.0867 O   0  0  0  0  0  0  0  0  0  0  0  0
   47.0596   33.3436   57.0572 C   0  0  0  0  0  0  0  0  0  0  0  0
   40.8554   31.7814   57.0914 O   0  0  0  0  0  0  0  0  0  0  0  0
   40.7968   30.9234   58.1814 C   0  0  0  0  0  0  0  0  0  0  0  0
   41.6993   31.0326   59.2951 C   0  0  0  0  0  0  0  0  0  0  0  0
   39.8205   29.9153   58.1672 C   0  0  0  0  0  0  0  0  0  0  0  0
   38.9726   29.8219   57.1225 O   0  0  0  0  0  0  0  0  0  0  0  0
   39.7206   29.0072   59.2263 C   0  0  0  0  0  0  0  0  0  0  0  0
   38.7621   28.0117   59.1990 O   0  0  0  0  0  0  0  0  0  0  0  0
   40.6171   29.1097   60.3359 C   0  0  0  0  0  0  0  0  0  0  0  0
   41.5982   30.1182   60.3684 C   0  0  0  0  0  0  0  0  0  0  0  0
   42.5231   30.2100   61.5395 C   0  0  0  0  0  0  0  0  0  0  0  0
   39.0368   30.4286   56.4113 H   0  0  0  0  0  0  0  0  0  0  0  0
   38.1755   27.9460   58.4713 H   0  0  0  0  0  0  0  0  0  0  0  0
 10 11  2  0  0  0
 11 12  1  0  0  0
 11  1  1  0  0  0
 12 13  1  0  0  0
  1  5  2  0  0  0
  1  2  1  0  0  0
  2  4  2  0  0  0
  2  3  1  0  0  0
  4  8  1  0  0  0
  5  6  1  0  0  0
  5  7  1  0  0  0
  7  8  2  0  0  0
  8 14  1  0  0  0
 14 15  1  0  0  0
 15 16  1  0  0  0
 15 17  2  0  0  0
 16 22  2  0  0  0
 17 19  1  0  0  0
 17 18  1  0  0  0
 19 21  2  0  0  0
 19 20  1  0  0  0
 21 22  1  0  0  0
 22 23  1  0  0  0
  3  9  1  0  0  0
 18 24  1  0  0  0
 20 25  1  0  0  0
M  END
> <minimizedAffinity>
-7.68340

$$$$
2ZA0_MGI_A_300


 25 26  0  0  0  0  0  0  0  0999 V2000
   39.6855   29.1898   59.7455 C   0  0  0  0  0  0  0  0  0  0  0  0
   39.1807   29.3260   58.4221 C   0  0  0  0  0  0  0  0  0  0  0  0
   37.9656   28.8243   58.0784 O   0  0  0  0  0  0  0  0  0  0  0  0
   39.9209   29.9801   57.4560 C   0  0  0  0  0  0  0  0  0  0  0  0
   40.9970   29.7484   60.0487 C   0  0  0  0  0  0  0  0  0  0  0  0
   41.6815   29.6793   61.4001 C   0  0  0  0  0  0  0  0  0  0  0  0
   41.7135   30.4040   59.0490 C   0  0  0  0  0  0  0  0  0  0  0  0
   41.2017   30.5328   57.7598 C   0  0  0  0  0  0  0  0  0  0  0  0
   37.4458   28.3768   58.7169 H   0  0  0  0  0  0  0  0  0  0  0  0
   37.7545   28.9464   61.1101 O   0  0  0  0  0  0  0  0  0  0  0  0
   38.8287   28.4704   60.7686 C   0  0  0  0  0  0  0  0  0  0  0  0
   39.2567   27.2289   61.3923 O   0  0  0  0  0  0  0  0  0  0  0  0
   39.4566   27.0822   62.8114 C   0  0  0  0  0  0  0  0  0  0  0  0
   41.9733   31.1964   56.8551 O   0  0  0  0  0  0  0  0  0  0  0  0
   43.1008   31.9464   57.1621 C   0  0  0  0  0  0  0  0  0  0  0  0
   43.0214   33.3243   57.5642 C   0  0  0  0  0  0  0  0  0  0  0  0
   44.3513   31.3179   57.0582 C   0  0  0  0  0  0  0  0  0  0  0  0
   44.4188   30.0231   56.6866 O   0  0  0  0  0  0  0  0  0  0  0  0
   45.5268   32.0231   57.3359 C   0  0  0  0  0  0  0  0  0  0  0  0
   46.7545   31.3984   57.2214 O   0  0  0  0  0  0  0  0  0  0  0  0
   45.4541   33.3948   57.7342 C   0  0  0  0  0  0  0  0  0  0  0  0
   44.2077   34.0383   57.8488 C   0  0  0  0  0  0  0  0  0  0  0  0
   44.1538   35.4718   58.2704 C   0  0  0  0  0  0  0  0  0  0  0  0
   43.6333   29.5477   56.4998 H   0  0  0  0  0  0  0  0  0  0  0  0
   46.8003   30.4997   56.9603 H   0  0  0  0  0  0  0  0  0  0  0  0
 10 11  2  0  0  0
 11 12  1  0  0  0
 11  1  1  0  0  0
 12 13  1  0  0  0
  1  5  2  0  0  0
  1  2  1  0  0  0
  2  4  2  0  0  0
  2  3  1  0  0  0
  4  8  1  0  0  0
  5  6  1  0  0  0
  5  7  1  0  0  0
  7  8  2  0  0  0
  8 14  1  0  0  0
 14 15  1  0  0  0
 15 16  1  0  0  0
 15 17  2  0  0  0
 16 22  2  0  0  0
 17 19  1  0  0  0
 17 18  1  0  0  0
 19 21  2  0  0  0
 19 20  1  0  0  0
 21 22  1  0  0  0
 22 23  1  0  0  0
  3  9  1  0  0  0
 18 24  1  0  0  0
 20 25  1  0  0  0
M  END
> <minimizedAffinity>
-7.61175

$$$$
2ZA0_MGI_A_300


 25 26  0  0  0  0  0  0  0  0999 V2000
   47.6379   28.6278   56.4217 C   0  0  0  0  0  0  0  0  0  0  0  0
   47.5923   28.9670   57.8029 C   0  0  0  0  0  0  0  0  0  0  0  0
   48.6824   28.8162   58.5999 O   0  0  0  0  0  0  0  0  0  0  0  0
   46.4307   29.4644   58.3620 C   0  0  0  0  0  0  0  0  0  0  0  0
   46.4333   28.8111   55.6221 C   0  0  0  0  0  0  0  0  0  0  0  0
   46.3112   28.4886   54.1455 C   0  0  0  0  0  0  0  0  0  0  0  0
   45.2810   29.3179   56.2202 C   0  0  0  0  0  0  0  0  0  0  0  0
   45.2556   29.6498   57.5730 C   0  0  0  0  0  0  0  0  0  0  0  0
   49.4811   28.4807   58.2428 H   0  0  0  0  0  0  0  0  0  0  0  0
   49.4268   27.0665   56.3098 O   0  0  0  0  0  0  0  0  0  0  0  0
   48.9400   28.0941   55.8578 C   0  0  0  0  0  0  0  0  0  0  0  0
   49.6603   28.7860   54.8013 O   0  0  0  0  0  0  0  0  0  0  0  0
   50.0484   28.1586   53.5639 C   0  0  0  0  0  0  0  0  0  0  0  0
   44.0854   30.1446   58.0631 O   0  0  0  0  0  0  0  0  0  0  0  0
   43.6169   31.4364   57.8643 C   0  0  0  0  0  0  0  0  0  0  0  0
   44.4173   32.5965   58.1476 C   0  0  0  0  0  0  0  0  0  0  0  0
   42.3088   31.5892   57.3793 C   0  0  0  0  0  0  0  0  0  0  0  0
   41.5651   30.4969   57.1094 O   0  0  0  0  0  0  0  0  0  0  0  0
   41.7708   32.8640   57.1747 C   0  0  0  0  0  0  0  0  0  0  0  0
   40.4781   33.0046   56.7059 O   0  0  0  0  0  0  0  0  0  0  0  0
   42.5616   34.0217   57.4568 C   0  0  0  0  0  0  0  0  0  0  0  0
   43.8771   33.8859   57.9384 C   0  0  0  0  0  0  0  0  0  0  0  0
   44.6881   35.1091   58.2235 C   0  0  0  0  0  0  0  0  0  0  0  0
   41.9225   29.6415   57.2454 H   0  0  0  0  0  0  0  0  0  0  0  0
   39.9613   32.2451   56.5216 H   0  0  0  0  0  0  0  0  0  0  0  0
 10 11  2  0  0  0
 11 12  1  0  0  0
 11  1  1  0  0  0
 12 13  1  0  0  0
  1  5  2  0  0  0
  1  2  1  0  0  0
  2  4  2  0  0  0
  2  3  1  0  0  0
  4  8  1  0  0  0
  5  6  1  0  0  0
  5  7  1  0  0  0
  7  8  2  0  0  0
  8 14  1  0  0  0
 14 15  1  0  0  0
 15 16  1  0  0  0
 15 17  2  0  0  0
 16 22  2  0  0  0
 17 19  1  0  0  0
 17 18  1  0  0  0
 19 21  2  0  0  0
 19 20  1  0  0  0
 21 22  1  0  0  0
 22 23  1  0  0  0
  3  9  1  0  0  0
 18 24  1  0  0  0
 20 25  1  0  0  0
M  END
> <minimizedAffinity>
-7.21954

$$$$
2ZA0_MGI_A_300


 25 26  0  0  0  0  0  0  0  0999 V2000
   39.6841   28.8523   60.5987 C   0  0  0  0  0  0  0  0  0  0  0  0
   40.9114   29.5647   60.4941 C   0  0  0  0  0  0  0  0  0  0  0  0
   41.7360   29.7051   61.5650 O   0  0  0  0  0  0  0  0  0  0  0  0
   41.2923   30.1271   59.2908 C   0  0  0  0  0  0  0  0  0  0  0  0
   38.8439   28.7398   59.4132 C   0  0  0  0  0  0  0  0  0  0  0  0
   37.5063   28.0276   59.3585 C   0  0  0  0  0  0  0  0  0  0  0  0
   39.2623   29.3178   58.2160 C   0  0  0  0  0  0  0  0  0  0  0  0
   40.4697   30.0074   58.1301 C   0  0  0  0  0  0  0  0  0  0  0  0
   41.4986   29.3322   62.3911 H   0  0  0  0  0  0  0  0  0  0  0  0
   38.2624   28.5494   62.4794 O   0  0  0  0  0  0  0  0  0  0  0  0
   39.3187   28.2481   61.9403 C   0  0  0  0  0  0  0  0  0  0  0  0
   40.2056   27.3305   62.6367 O   0  0  0  0  0  0  0  0  0  0  0  0
   39.8726   26.7037   63.8902 C   0  0  0  0  0  0  0  0  0  0  0  0
   40.7946   30.5301   56.9154 O   0  0  0  0  0  0  0  0  0  0  0  0
   41.9756   31.1985   56.6215 C   0  0  0  0  0  0  0  0  0  0  0  0
   43.2035   30.5041   56.3450 C   0  0  0  0  0  0  0  0  0  0  0  0
   41.9465   32.6016   56.6109 C   0  0  0  0  0  0  0  0  0  0  0  0
   40.7899   33.2472   56.8649 O   0  0  0  0  0  0  0  0  0  0  0  0
   43.1064   33.3347   56.3401 C   0  0  0  0  0  0  0  0  0  0  0  0
   43.0703   34.7165   56.3414 O   0  0  0  0  0  0  0  0  0  0  0  0
   44.3315   32.6493   56.0664 C   0  0  0  0  0  0  0  0  0  0  0  0
   44.3765   31.2427   56.0676 C   0  0  0  0  0  0  0  0  0  0  0  0
   45.6665   30.5458   55.7753 C   0  0  0  0  0  0  0  0  0  0  0  0
   40.0110   32.7591   57.0467 H   0  0  0  0  0  0  0  0  0  0  0  0
   42.2668   35.1640   56.5209 H   0  0  0  0  0  0  0  0  0  0  0  0
 10 11  2  0  0  0
 11 12  1  0  0  0
 11  1  1  0  0  0
 12 13  1  0  0  0
  1  5  2  0  0  0
  1  2  1  0  0  0
  2  4  2  0  0  0
  2  3  1  0  0  0
  4  8  1  0  0  0
  5  6  1  0  0  0
  5  7  1  0  0  0
  7  8  2  0  0  0
  8 14  1  0  0  0
 14 15  1  0  0  0
 15 16  1  0  0  0
 15 17  2  0  0  0
 16 22  2  0  0  0
 17 19  1  0  0  0
 17 18  1  0  0  0
 19 21  2  0  0  0
 19 20  1  0  0  0
 21 22  1  0  0  0
 22 23  1  0  0  0
  3  9  1  0  0  0
 18 24  1  0  0  0
 20 25  1  0  0  0
M  END
> <minimizedAffinity>
-7.16946

$$$$
2ZA0_MGI_A_300


 25 26  0  0  0  0  0  0  0  0999 V2000
   44.4716   34.3710   55.7938 C   0  0  0  0  0  0  0  0  0  0  0  0
   44.1917   33.4026   54.7895 C   0  0  0  0  0  0  0  0  0  0  0  0
   44.7740   33.4727   53.5639 O   0  0  0  0  0  0  0  0  0  0  0  0
   43.3191   32.3624   55.0462 C   0  0  0  0  0  0  0  0  0  0  0  0
   43.8122   34.2403   57.0869 C   0  0  0  0  0  0  0  0  0  0  0  0
   43.9913   35.1899   58.2554 C   0  0  0  0  0  0  0  0  0  0  0  0
   42.9404   33.1761   57.3101 C   0  0  0  0  0  0  0  0  0  0  0  0
   42.6818   32.2338   56.3171 C   0  0  0  0  0  0  0  0  0  0  0  0
   45.3690   34.1692   53.3670 H   0  0  0  0  0  0  0  0  0  0  0  0
   45.0431   36.5000   54.9041 O   0  0  0  0  0  0  0  0  0  0  0  0
   45.4428   35.4869   55.4619 C   0  0  0  0  0  0  0  0  0  0  0  0
   46.8619   35.3841   55.7604 O   0  0  0  0  0  0  0  0  0  0  0  0
   47.4872   36.0447   56.8774 C   0  0  0  0  0  0  0  0  0  0  0  0
   41.8214   31.2269   56.6338 O   0  0  0  0  0  0  0  0  0  0  0  0
   41.9470   30.3810   57.7277 C   0  0  0  0  0  0  0  0  0  0  0  0
   40.9378   30.2877   58.7471 C   0  0  0  0  0  0  0  0  0  0  0  0
   43.1145   29.6083   57.8249 C   0  0  0  0  0  0  0  0  0  0  0  0
   44.0549   29.6956   56.8620 O   0  0  0  0  0  0  0  0  0  0  0  0
   43.3106   28.7499   58.9117 C   0  0  0  0  0  0  0  0  0  0  0  0
   44.4680   27.9999   59.0038 O   0  0  0  0  0  0  0  0  0  0  0  0
   42.3109   28.6545   59.9300 C   0  0  0  0  0  0  0  0  0  0  0  0
   41.1319   29.4184   59.8448 C   0  0  0  0  0  0  0  0  0  0  0  0
   40.0978   29.3010   60.9182 C   0  0  0  0  0  0  0  0  0  0  0  0
   43.9267   30.2696   56.1326 H   0  0  0  0  0  0  0  0  0  0  0  0
   45.1219   28.0636   58.3358 H   0  0  0  0  0  0  0  0  0  0  0  0
 10 11  2  0  0  0
 11 12  1  0  0  0
 11  1  1  0  0  0
 12 13  1  0  0  0
  1  5  2  0  0  0
  1  2  1  0  0  0
  2  4  2  0  0  0
  2  3  1  0  0  0
  4  8  1  0  0  0
  5  6  1  0  0  0
  5  7  1  0  0  0
  7  8  2  0  0  0
  8 14  1  0  0  0
 14 15  1  0  0  0
 15 16  1  0  0  0
 15 17  2  0  0  0
 16 22  2  0  0  0
 17 19  1  0  0  0
 17 18  1  0  0  0
 19 21  2  0  0  0
 19 20  1  0  0  0
 21 22  1  0  0  0
 22 23  1  0  0  0
  3  9  1  0  0  0
 18 24  1  0  0  0
 20 25  1  0  0  0
M  END
> <minimizedAffinity>
-7.15431

$$$$
2ZA0_MGI_A_300


 25 26  0  0  0  0  0  0  0  0999 V2000
   44.4302   30.3301   56.1342 C   0  0  0  0  0  0  0  0  0  0  0  0
   43.4142   31.3107   55.9587 C   0  0  0  0  0  0  0  0  0  0  0  0
   43.3270   32.0351   54.8125 O   0  0  0  0  0  0  0  0  0  0  0  0
   42.4874   31.5426   56.9571 C   0  0  0  0  0  0  0  0  0  0  0  0
   44.4701   29.5889   57.3884 C   0  0  0  0  0  0  0  0  0  0  0  0
   45.4908   28.5232   57.7377 C   0  0  0  0  0  0  0  0  0  0  0  0
   43.5168   29.8483   58.3714 C   0  0  0  0  0  0  0  0  0  0  0  0
   42.5256   30.8084   58.1808 C   0  0  0  0  0  0  0  0  0  0  0  0
   43.9444   31.8951   54.1217 H   0  0  0  0  0  0  0  0  0  0  0  0
   46.2112   30.9913   54.7054 O   0  0  0  0  0  0  0  0  0  0  0  0
   45.4163   30.1102   55.0038 C   0  0  0  0  0  0  0  0  0  0  0  0
   45.4334   28.8810   54.2276 O   0  0  0  0  0  0  0  0  0  0  0  0
   46.6332   28.1313   53.9561 C   0  0  0  0  0  0  0  0  0  0  0  0
   41.6357   30.9838   59.1965 O   0  0  0  0  0  0  0  0  0  0  0  0
   40.6204   30.0984   59.5329 C   0  0  0  0  0  0  0  0  0  0  0  0
   39.4586   29.9113   58.7072 C   0  0  0  0  0  0  0  0  0  0  0  0
   40.7507   29.3805   60.7317 C   0  0  0  0  0  0  0  0  0  0  0  0
   41.8461   29.5556   61.4990 O   0  0  0  0  0  0  0  0  0  0  0  0
   39.7544   28.4863   61.1369 C   0  0  0  0  0  0  0  0  0  0  0  0
   39.8871   27.7908   62.3240 O   0  0  0  0  0  0  0  0  0  0  0  0
   38.5954   28.2977   60.3206 C   0  0  0  0  0  0  0  0  0  0  0  0
   38.4518   29.0057   59.1127 C   0  0  0  0  0  0  0  0  0  0  0  0
   37.2341   28.7910   58.2722 C   0  0  0  0  0  0  0  0  0  0  0  0
   42.5154   30.1539   61.2305 H   0  0  0  0  0  0  0  0  0  0  0  0
   40.6471   27.9156   62.8577 H   0  0  0  0  0  0  0  0  0  0  0  0
 10 11  2  0  0  0
 11 12  1  0  0  0
 11  1  1  0  0  0
 12 13  1  0  0  0
  1  5  2  0  0  0
  1  2  1  0  0  0
  2  4  2  0  0  0
  2  3  1  0  0  0
  4  8  1  0  0  0
  5  6  1  0  0  0
  5  7  1  0  0  0
  7  8  2  0  0  0
  8 14  1  0  0  0
 14 15  1  0  0  0
 15 16  1  0  0  0
 15 17  2  0  0  0
 16 22  2  0  0  0
 17 19  1  0  0  0
 17 18  1  0  0  0
 19 21  2  0  0  0
 19 20  1  0  0  0
 21 22  1  0  0  0
 22 23  1  0  0  0
  3  9  1  0  0  0
 18 24  1  0  0  0
 20 25  1  0  0  0
M  END
> <minimizedAffinity>
-6.96429

$$$$
2ZA0_MGI_A_300


 25 26  0  0  0  0  0  0  0  0999 V2000
   46.1890   33.9060   55.0902 C   0  0  0  0  0  0  0  0  0  0  0  0
   45.2793   34.9301   55.4753 C   0  0  0  0  0  0  0  0  0  0  0  0
   45.4120   36.1996   55.0094 O   0  0  0  0  0  0  0  0  0  0  0  0
   44.2332   34.6487   56.3331 C   0  0  0  0  0  0  0  0  0  0  0  0
   45.9926   32.5654   55.6272 C   0  0  0  0  0  0  0  0  0  0  0  0
   46.8753   31.3695   55.3274 C   0  0  0  0  0  0  0  0  0  0  0  0
   44.9244   32.3187   56.4878 C   0  0  0  0  0  0  0  0  0  0  0  0
   44.0400   33.3322   56.8502 C   0  0  0  0  0  0  0  0  0  0  0  0
   46.1137   36.4138   54.4266 H   0  0  0  0  0  0  0  0  0  0  0  0
   47.0754   34.4634   52.9562 O   0  0  0  0  0  0  0  0  0  0  0  0
   47.3140   34.2672   54.1402 C   0  0  0  0  0  0  0  0  0  0  0  0
   48.6947   34.3619   54.5853 O   0  0  0  0  0  0  0  0  0  0  0  0
   49.0722   34.5705   55.9598 C   0  0  0  0  0  0  0  0  0  0  0  0
   43.0238   32.9906   57.6900 O   0  0  0  0  0  0  0  0  0  0  0  0
   42.5163   31.7084   57.8523 C   0  0  0  0  0  0  0  0  0  0  0  0
   43.2949   30.6391   58.4153 C   0  0  0  0  0  0  0  0  0  0  0  0
   41.1980   31.4702   57.4342 C   0  0  0  0  0  0  0  0  0  0  0  0
   40.4705   32.4791   56.9126 O   0  0  0  0  0  0  0  0  0  0  0  0
   40.6335   30.1961   57.5534 C   0  0  0  0  0  0  0  0  0  0  0  0
   39.3375   29.9687   57.1300 O   0  0  0  0  0  0  0  0  0  0  0  0
   41.4040   29.1279   58.1108 C   0  0  0  0  0  0  0  0  0  0  0  0
   42.7256   29.3513   58.5400 C   0  0  0  0  0  0  0  0  0  0  0  0
   43.5125   28.2217   59.1233 C   0  0  0  0  0  0  0  0  0  0  0  0
   40.8456   33.3339   56.8314 H   0  0  0  0  0  0  0  0  0  0  0  0
   38.8341   30.6697   56.7651 H   0  0  0  0  0  0  0  0  0  0  0  0
 10 11  2  0  0  0
 11 12  1  0  0  0
 11  1  1  0  0  0
 12 13  1  0  0  0
  1  5  2  0  0  0
  1  2  1  0  0  0
  2  4  2  0  0  0
  2  3  1  0  0  0
  4  8  1  0  0  0
  5  6  1  0  0  0
  5  7  1  0  0  0
  7  8  2  0  0  0
  8 14  1  0  0  0
 14 15  1  0  0  0
 15 16  1  0  0  0
 15 17  2  0  0  0
 16 22  2  0  0  0
 17 19  1  0  0  0
 17 18  1  0  0  0
 19 21  2  0  0  0
 19 20  1  0  0  0
 21 22  1  0  0  0
 22 23  1  0  0  0
  3  9  1  0  0  0
 18 24  1  0  0  0
 20 25  1  0  0  0
M  END
> <minimizedAffinity>
-6.93525

$$$$
