4CPY_G39_A_1470


 24 24  0  0  0  0  0  0  0  0999 V2000
  -19.0164   88.8865   15.8523 C   0  0  0  0  0  0  0  0  0  0  0  0
  -20.2394   88.1779   15.3148 C   0  0  0  0  0  0  0  0  0  0  0  0
  -21.3194   89.1785   14.8702 C   0  0  0  0  0  0  0  0  0  0  0  0
  -20.7289   90.2351   13.9337 C   0  0  0  0  0  0  0  0  0  0  0  0
  -19.6674   91.0380   14.6636 C   0  0  0  0  0  0  0  0  0  0  0  0
  -18.7446   90.1628   15.5001 C   0  0  0  0  0  0  0  0  0  0  0  0
  -22.3918   88.4675   14.2010 N   0  0  0  0  0  0  0  0  0  0  0  0
  -22.0231   87.9943   13.3761 H   0  0  0  0  0  0  0  0  0  0  0  0
  -23.1143   89.1297   13.9186 H   0  0  0  0  0  0  0  0  0  0  0  0
  -21.7582   91.1558   13.4809 N   0  0  0  0  0  0  0  0  0  0  0  0
  -22.0930   91.3955   12.2029 C   0  0  0  0  0  0  0  0  0  0  0  0
  -21.5435   90.9061   11.2393 O   0  0  0  0  0  0  0  0  0  0  0  0
  -23.2060   92.3738   11.9861 C   0  0  0  0  0  0  0  0  0  0  0  0
  -22.2547   91.6482   14.1739 H   0  0  0  0  0  0  0  0  0  0  0  0
  -18.1276   88.2186   16.8284 C   0  0  0  0  0  0  0  0  0  0  0  0
  -17.4480   88.8911   17.6365 O   0  0  0  0  0  0  0  0  0  0  0  0
  -18.0685   86.9638   16.8316 O   0  0  0  0  0  0  0  0  0  0  0  0
  -18.5810   86.4690   16.2228 H   0  0  0  0  0  0  0  0  0  0  0  0
  -18.9003   91.7669   13.6927 O   0  0  0  0  0  0  0  0  0  0  0  0
  -17.5879   92.1601   14.1235 C   0  0  0  0  0  0  0  0  0  0  0  0
  -16.5216   91.7304   13.1136 C   0  0  0  0  0  0  0  0  0  0  0  0
  -17.0430   91.8200   11.6932 C   0  0  0  0  0  0  0  0  0  0  0  0
  -17.5786   93.6700   14.3150 C   0  0  0  0  0  0  0  0  0  0  0  0
  -16.5178   94.1272   15.2948 C   0  0  0  0  0  0  0  0  0  0  0  0
 15 16  2  0  0  0
 15 17  1  0  0  0
 15  1  1  0  0  0
  1  2  1  0  0  0
  1  6  2  0  0  0
  2  3  1  0  0  0
  3  4  1  0  0  0
  3  7  1  0  0  0
  4 10  1  0  0  0
  4  5  1  0  0  0
 10 11  1  0  0  0
 11 12  2  0  0  0
 11 13  1  0  0  0
  5  6  1  0  0  0
  5 19  1  0  0  0
 19 20  1  0  0  0
 20 21  1  0  0  0
 20 23  1  0  0  0
 21 22  1  0  0  0
 23 24  1  0  0  0
 17 18  1  0  0  0
 10 14  1  0  0  0
  7  8  1  0  0  0
  7  9  1  0  0  0
M  END
> <minimizedAffinity>
-6.92787

$$$$
4CPY_G39_A_1470


 24 24  0  0  0  0  0  0  0  0999 V2000
  -22.0538   90.6922   12.5583 C   0  0  0  0  0  0  0  0  0  0  0  0
  -22.6136   90.0650   13.8152 C   0  0  0  0  0  0  0  0  0  0  0  0
  -21.5433   89.2522   14.5631 C   0  0  0  0  0  0  0  0  0  0  0  0
  -20.2766   90.0850   14.7732 C   0  0  0  0  0  0  0  0  0  0  0  0
  -19.6765   90.4613   13.4305 C   0  0  0  0  0  0  0  0  0  0  0  0
  -20.7272   90.9157   12.4272 C   0  0  0  0  0  0  0  0  0  0  0  0
  -22.0703   88.8209   15.8436 N   0  0  0  0  0  0  0  0  0  0  0  0
  -22.3133   89.6379   16.4039 H   0  0  0  0  0  0  0  0  0  0  0  0
  -21.3651   88.2703   16.3334 H   0  0  0  0  0  0  0  0  0  0  0  0
  -19.2811   89.3309   15.5162 N   0  0  0  0  0  0  0  0  0  0  0  0
  -18.7218   89.6991   16.6801 C   0  0  0  0  0  0  0  0  0  0  0  0
  -18.9388   90.7456   17.2525 O   0  0  0  0  0  0  0  0  0  0  0  0
  -17.7327   88.7404   17.2678 C   0  0  0  0  0  0  0  0  0  0  0  0
  -18.9904   88.4726   15.1315 H   0  0  0  0  0  0  0  0  0  0  0  0
  -22.9401   91.0130   11.4180 C   0  0  0  0  0  0  0  0  0  0  0  0
  -24.0662   91.5252   11.6097 O   0  0  0  0  0  0  0  0  0  0  0  0
  -22.5407   90.7626   10.2535 O   0  0  0  0  0  0  0  0  0  0  0  0
  -21.6962   90.3792   10.1201 H   0  0  0  0  0  0  0  0  0  0  0  0
  -18.7161   91.5085   13.6388 O   0  0  0  0  0  0  0  0  0  0  0  0
  -17.3969   91.2331   13.1424 C   0  0  0  0  0  0  0  0  0  0  0  0
  -17.1306   91.9799   11.8336 C   0  0  0  0  0  0  0  0  0  0  0  0
  -18.0970   93.1336   11.6534 C   0  0  0  0  0  0  0  0  0  0  0  0
  -16.3895   91.6323   14.2112 C   0  0  0  0  0  0  0  0  0  0  0  0
  -16.7575   92.9276   14.9048 C   0  0  0  0  0  0  0  0  0  0  0  0
 15 16  2  0  0  0
 15 17  1  0  0  0
 15  1  1  0  0  0
  1  2  1  0  0  0
  1  6  2  0  0  0
  2  3  1  0  0  0
  3  4  1  0  0  0
  3  7  1  0  0  0
  4 10  1  0  0  0
  4  5  1  0  0  0
 10 11  1  0  0  0
 11 12  2  0  0  0
 11 13  1  0  0  0
  5  6  1  0  0  0
  5 19  1  0  0  0
 19 20  1  0  0  0
 20 21  1  0  0  0
 20 23  1  0  0  0
 21 22  1  0  0  0
 23 24  1  0  0  0
 17 18  1  0  0  0
 10 14  1  0  0  0
  7  8  1  0  0  0
  7  9  1  0  0  0
M  END
> <minimizedAffinity>
-6.83361

$$$$
4CPY_G39_A_1470


 24 24  0  0  0  0  0  0  0  0999 V2000
  -21.9489   91.3275   12.2852 C   0  0  0  0  0  0  0  0  0  0  0  0
  -20.9963   91.9540   11.2920 C   0  0  0  0  0  0  0  0  0  0  0  0
  -19.7455   92.5151   11.9891 C   0  0  0  0  0  0  0  0  0  0  0  0
  -19.1149   91.4626   12.9039 C   0  0  0  0  0  0  0  0  0  0  0  0
  -20.0902   91.0815   14.0029 C   0  0  0  0  0  0  0  0  0  0  0  0
  -21.5082   90.8867   13.4846 C   0  0  0  0  0  0  0  0  0  0  0  0
  -18.7849   92.9418   10.9898 N   0  0  0  0  0  0  0  0  0  0  0  0
  -18.5115   92.1427   10.4178 H   0  0  0  0  0  0  0  0  0  0  0  0
  -17.9613   93.3266   11.4523 H   0  0  0  0  0  0  0  0  0  0  0  0
  -17.9097   91.9793   13.5303 N   0  0  0  0  0  0  0  0  0  0  0  0
  -16.7805   91.2882   13.7539 C   0  0  0  0  0  0  0  0  0  0  0  0
  -16.6272   90.1118   13.5038 O   0  0  0  0  0  0  0  0  0  0  0  0
  -15.6603   92.0469   14.3961 C   0  0  0  0  0  0  0  0  0  0  0  0
  -17.9224   92.9212   13.8166 H   0  0  0  0  0  0  0  0  0  0  0  0
  -23.3964   91.2449   11.9910 C   0  0  0  0  0  0  0  0  0  0  0  0
  -23.8507   90.3222   11.2771 O   0  0  0  0  0  0  0  0  0  0  0  0
  -24.1614   92.1177   12.4719 O   0  0  0  0  0  0  0  0  0  0  0  0
  -23.8120   92.8044   13.0051 H   0  0  0  0  0  0  0  0  0  0  0  0
  -19.6272   89.8716   14.6229 O   0  0  0  0  0  0  0  0  0  0  0  0
  -20.1616   89.6139   15.9308 C   0  0  0  0  0  0  0  0  0  0  0  0
  -20.4280   88.1212   16.1359 C   0  0  0  0  0  0  0  0  0  0  0  0
  -21.2730   87.5548   15.0122 C   0  0  0  0  0  0  0  0  0  0  0  0
  -19.1739   90.1373   16.9638 C   0  0  0  0  0  0  0  0  0  0  0  0
  -17.8597   89.3844   16.9479 C   0  0  0  0  0  0  0  0  0  0  0  0
 15 16  2  0  0  0
 15 17  1  0  0  0
 15  1  1  0  0  0
  1  2  1  0  0  0
  1  6  2  0  0  0
  2  3  1  0  0  0
  3  4  1  0  0  0
  3  7  1  0  0  0
  4 10  1  0  0  0
  4  5  1  0  0  0
 10 11  1  0  0  0
 11 12  2  0  0  0
 11 13  1  0  0  0
  5  6  1  0  0  0
  5 19  1  0  0  0
 19 20  1  0  0  0
 20 21  1  0  0  0
 20 23  1  0  0  0
 21 22  1  0  0  0
 23 24  1  0  0  0
 17 18  1  0  0  0
 10 14  1  0  0  0
  7  8  1  0  0  0
  7  9  1  0  0  0
M  END
> <minimizedAffinity>
-6.71269

$$$$
4CPY_G39_A_1470


 24 24  0  0  0  0  0  0  0  0999 V2000
  -20.0464   88.8244   15.4076 C   0  0  0  0  0  0  0  0  0  0  0  0
  -21.4033   88.4122   14.8827 C   0  0  0  0  0  0  0  0  0  0  0  0
  -22.1649   89.6098   14.2903 C   0  0  0  0  0  0  0  0  0  0  0  0
  -21.2926   90.3654   13.2851 C   0  0  0  0  0  0  0  0  0  0  0  0
  -20.0698   90.9314   13.9843 C   0  0  0  0  0  0  0  0  0  0  0  0
  -19.4341   89.9376   14.9463 C   0  0  0  0  0  0  0  0  0  0  0  0
  -23.3747   89.1413   13.6420 N   0  0  0  0  0  0  0  0  0  0  0  0
  -23.1295   88.5017   12.8862 H   0  0  0  0  0  0  0  0  0  0  0  0
  -23.8865   89.9372   13.2613 H   0  0  0  0  0  0  0  0  0  0  0  0
  -22.0266   91.4721   12.6949 N   0  0  0  0  0  0  0  0  0  0  0  0
  -22.3919   91.5766   11.4071 C   0  0  0  0  0  0  0  0  0  0  0  0
  -22.1146   90.7747   10.5411 O   0  0  0  0  0  0  0  0  0  0  0  0
  -23.1650   92.8055   11.0396 C   0  0  0  0  0  0  0  0  0  0  0  0
  -22.2788   92.2120   13.2934 H   0  0  0  0  0  0  0  0  0  0  0  0
  -19.3906   88.0533   16.4865 C   0  0  0  0  0  0  0  0  0  0  0  0
  -18.1466   88.0805   16.6245 O   0  0  0  0  0  0  0  0  0  0  0  0
  -20.1058   87.3714   17.2623 O   0  0  0  0  0  0  0  0  0  0  0  0
  -21.0360   87.3574   17.1510 H   0  0  0  0  0  0  0  0  0  0  0  0
  -19.1148   91.3224   12.9856 O   0  0  0  0  0  0  0  0  0  0  0  0
  -18.7083   92.6989   13.0369 C   0  0  0  0  0  0  0  0  0  0  0  0
  -17.4244   92.8672   13.8521 C   0  0  0  0  0  0  0  0  0  0  0  0
  -17.4601   94.1390   14.6761 C   0  0  0  0  0  0  0  0  0  0  0  0
  -18.5164   93.1955   11.6110 C   0  0  0  0  0  0  0  0  0  0  0  0
  -19.6014   94.1598   11.1783 C   0  0  0  0  0  0  0  0  0  0  0  0
 15 16  2  0  0  0
 15 17  1  0  0  0
 15  1  1  0  0  0
  1  2  1  0  0  0
  1  6  2  0  0  0
  2  3  1  0  0  0
  3  4  1  0  0  0
  3  7  1  0  0  0
  4 10  1  0  0  0
  4  5  1  0  0  0
 10 11  1  0  0  0
 11 12  2  0  0  0
 11 13  1  0  0  0
  5  6  1  0  0  0
  5 19  1  0  0  0
 19 20  1  0  0  0
 20 21  1  0  0  0
 20 23  1  0  0  0
 21 22  1  0  0  0
 23 24  1  0  0  0
 17 18  1  0  0  0
 10 14  1  0  0  0
  7  8  1  0  0  0
  7  9  1  0  0  0
M  END
> <minimizedAffinity>
-6.65314

$$$$
4CPY_G39_A_1470


 24 24  0  0  0  0  0  0  0  0999 V2000
  -20.2315   92.8939   11.7378 C   0  0  0  0  0  0  0  0  0  0  0  0
  -21.6069   92.6078   12.2974 C   0  0  0  0  0  0  0  0  0  0  0  0
  -21.7993   91.1079   12.5776 C   0  0  0  0  0  0  0  0  0  0  0  0
  -20.6413   90.5581   13.4137 C   0  0  0  0  0  0  0  0  0  0  0  0
  -19.3391   90.6926   12.6452 C   0  0  0  0  0  0  0  0  0  0  0  0
  -19.2044   92.0426   11.9548 C   0  0  0  0  0  0  0  0  0  0  0  0
  -23.0543   90.9029   13.2750 N   0  0  0  0  0  0  0  0  0  0  0  0
  -23.0351   91.4032   14.1637 H   0  0  0  0  0  0  0  0  0  0  0  0
  -23.1882   89.9067   13.4484 H   0  0  0  0  0  0  0  0  0  0  0  0
  -20.8443   89.1507   13.7133 N   0  0  0  0  0  0  0  0  0  0  0  0
  -21.3562   88.6539   14.8509 C   0  0  0  0  0  0  0  0  0  0  0  0
  -21.6786   89.3173   15.8131 O   0  0  0  0  0  0  0  0  0  0  0  0
  -21.4896   87.1637   14.9174 C   0  0  0  0  0  0  0  0  0  0  0  0
  -20.5828   88.5029   13.0196 H   0  0  0  0  0  0  0  0  0  0  0  0
  -19.9979   94.0792   10.8838 C   0  0  0  0  0  0  0  0  0  0  0  0
  -19.3654   93.9761    9.8084 O   0  0  0  0  0  0  0  0  0  0  0  0
  -20.4473   95.1912   11.2578 O   0  0  0  0  0  0  0  0  0  0  0  0
  -20.9195   95.2584   12.0644 H   0  0  0  0  0  0  0  0  0  0  0  0
  -18.2488   90.5020   13.5603 O   0  0  0  0  0  0  0  0  0  0  0  0
  -18.3107   91.2957   14.7556 C   0  0  0  0  0  0  0  0  0  0  0  0
  -18.1983   90.4221   16.0069 C   0  0  0  0  0  0  0  0  0  0  0  0
  -17.8093   89.0010   15.6511 C   0  0  0  0  0  0  0  0  0  0  0  0
  -17.1891   92.3234   14.7072 C   0  0  0  0  0  0  0  0  0  0  0  0
  -15.9571   91.8090   13.9918 C   0  0  0  0  0  0  0  0  0  0  0  0
 15 16  2  0  0  0
 15 17  1  0  0  0
 15  1  1  0  0  0
  1  2  1  0  0  0
  1  6  2  0  0  0
  2  3  1  0  0  0
  3  4  1  0  0  0
  3  7  1  0  0  0
  4 10  1  0  0  0
  4  5  1  0  0  0
 10 11  1  0  0  0
 11 12  2  0  0  0
 11 13  1  0  0  0
  5  6  1  0  0  0
  5 19  1  0  0  0
 19 20  1  0  0  0
 20 21  1  0  0  0
 20 23  1  0  0  0
 21 22  1  0  0  0
 23 24  1  0  0  0
 17 18  1  0  0  0
 10 14  1  0  0  0
  7  8  1  0  0  0
  7  9  1  0  0  0
M  END
> <minimizedAffinity>
-6.19346

$$$$
4CPY_G39_A_1470


 24 24  0  0  0  0  0  0  0  0999 V2000
  -17.4569   91.4232   12.8287 C   0  0  0  0  0  0  0  0  0  0  0  0
  -18.3670   90.2778   13.2111 C   0  0  0  0  0  0  0  0  0  0  0  0
  -19.8359   90.7274   13.2858 C   0  0  0  0  0  0  0  0  0  0  0  0
  -20.2427   91.4696   12.0106 C   0  0  0  0  0  0  0  0  0  0  0  0
  -19.4103   92.7298   11.8579 C   0  0  0  0  0  0  0  0  0  0  0  0
  -17.9376   92.4985   12.1658 C   0  0  0  0  0  0  0  0  0  0  0  0
  -20.6874   89.5690   13.4774 N   0  0  0  0  0  0  0  0  0  0  0  0
  -20.5784   88.9326   12.6877 H   0  0  0  0  0  0  0  0  0  0  0  0
  -21.6602   89.8689   13.5407 H   0  0  0  0  0  0  0  0  0  0  0  0
  -21.6421   91.8577   12.0642 N   0  0  0  0  0  0  0  0  0  0  0  0
  -22.6039   91.4539   11.2186 C   0  0  0  0  0  0  0  0  0  0  0  0
  -22.4245   90.7396   10.2556 O   0  0  0  0  0  0  0  0  0  0  0  0
  -23.9816   91.9737   11.4918 C   0  0  0  0  0  0  0  0  0  0  0  0
  -21.9091   92.4723   12.7855 H   0  0  0  0  0  0  0  0  0  0  0  0
  -16.0334   91.4205   13.2318 C   0  0  0  0  0  0  0  0  0  0  0  0
  -15.7116   91.5189   14.4376 O   0  0  0  0  0  0  0  0  0  0  0  0
  -15.1535   91.3164   12.3411 O   0  0  0  0  0  0  0  0  0  0  0  0
  -15.4042   91.2432   11.4412 H   0  0  0  0  0  0  0  0  0  0  0  0
  -19.5574   93.2121   10.5132 O   0  0  0  0  0  0  0  0  0  0  0  0
  -20.0475   94.5572   10.3984 C   0  0  0  0  0  0  0  0  0  0  0  0
  -18.8981   95.5526   10.2264 C   0  0  0  0  0  0  0  0  0  0  0  0
  -18.6893   96.3726   11.4840 C   0  0  0  0  0  0  0  0  0  0  0  0
  -21.0031   94.6199    9.2155 C   0  0  0  0  0  0  0  0  0  0  0  0
  -20.2834   94.7774    7.8920 C   0  0  0  0  0  0  0  0  0  0  0  0
 15 16  2  0  0  0
 15 17  1  0  0  0
 15  1  1  0  0  0
  1  2  1  0  0  0
  1  6  2  0  0  0
  2  3  1  0  0  0
  3  4  1  0  0  0
  3  7  1  0  0  0
  4 10  1  0  0  0
  4  5  1  0  0  0
 10 11  1  0  0  0
 11 12  2  0  0  0
 11 13  1  0  0  0
  5  6  1  0  0  0
  5 19  1  0  0  0
 19 20  1  0  0  0
 20 21  1  0  0  0
 20 23  1  0  0  0
 21 22  1  0  0  0
 23 24  1  0  0  0
 17 18  1  0  0  0
 10 14  1  0  0  0
  7  8  1  0  0  0
  7  9  1  0  0  0
M  END
> <minimizedAffinity>
-6.03231

$$$$
4CPY_G39_A_1470


 24 24  0  0  0  0  0  0  0  0999 V2000
  -17.7171   90.9705   13.1542 C   0  0  0  0  0  0  0  0  0  0  0  0
  -17.4736   89.7173   13.9646 C   0  0  0  0  0  0  0  0  0  0  0  0
  -18.4167   89.6392   15.1769 C   0  0  0  0  0  0  0  0  0  0  0  0
  -19.8707   89.8520   14.7490 C   0  0  0  0  0  0  0  0  0  0  0  0
  -20.0379   91.2400   14.1576 C   0  0  0  0  0  0  0  0  0  0  0  0
  -18.9049   91.6130   13.2119 C   0  0  0  0  0  0  0  0  0  0  0  0
  -18.2737   88.3466   15.8188 N   0  0  0  0  0  0  0  0  0  0  0  0
  -18.5247   87.6099   15.1595 H   0  0  0  0  0  0  0  0  0  0  0  0
  -18.8892   88.3003   16.6309 H   0  0  0  0  0  0  0  0  0  0  0  0
  -20.7655   89.7368   15.8882 N   0  0  0  0  0  0  0  0  0  0  0  0
  -21.3983   88.6201   16.2824 C   0  0  0  0  0  0  0  0  0  0  0  0
  -21.3459   87.5543   15.7069 O   0  0  0  0  0  0  0  0  0  0  0  0
  -22.2541   88.7448   17.5052 C   0  0  0  0  0  0  0  0  0  0  0  0
  -20.9220   90.5512   16.4189 H   0  0  0  0  0  0  0  0  0  0  0  0
  -16.6361   91.5573   12.3320 C   0  0  0  0  0  0  0  0  0  0  0  0
  -16.9052   92.2871   11.3511 O   0  0  0  0  0  0  0  0  0  0  0  0
  -15.4429   91.3101   12.6375 O   0  0  0  0  0  0  0  0  0  0  0  0
  -15.2514   90.7628   13.3735 H   0  0  0  0  0  0  0  0  0  0  0  0
  -21.2919   91.2892   13.4594 O   0  0  0  0  0  0  0  0  0  0  0  0
  -21.2945   92.0897   12.2670 C   0  0  0  0  0  0  0  0  0  0  0  0
  -22.0713   91.4037   11.1412 C   0  0  0  0  0  0  0  0  0  0  0  0
  -23.4077   90.8847   11.6334 C   0  0  0  0  0  0  0  0  0  0  0  0
  -21.9027   93.4444   12.6005 C   0  0  0  0  0  0  0  0  0  0  0  0
  -21.0194   94.6002   12.1782 C   0  0  0  0  0  0  0  0  0  0  0  0
 15 16  2  0  0  0
 15 17  1  0  0  0
 15  1  1  0  0  0
  1  2  1  0  0  0
  1  6  2  0  0  0
  2  3  1  0  0  0
  3  4  1  0  0  0
  3  7  1  0  0  0
  4 10  1  0  0  0
  4  5  1  0  0  0
 10 11  1  0  0  0
 11 12  2  0  0  0
 11 13  1  0  0  0
  5  6  1  0  0  0
  5 19  1  0  0  0
 19 20  1  0  0  0
 20 21  1  0  0  0
 20 23  1  0  0  0
 21 22  1  0  0  0
 23 24  1  0  0  0
 17 18  1  0  0  0
 10 14  1  0  0  0
  7  8  1  0  0  0
  7  9  1  0  0  0
M  END
> <minimizedAffinity>
-5.87189

$$$$
4CPY_G39_A_1470


 24 24  0  0  0  0  0  0  0  0999 V2000
  -21.8406   90.6302   12.4903 C   0  0  0  0  0  0  0  0  0  0  0  0
  -22.5226   90.1478   13.7508 C   0  0  0  0  0  0  0  0  0  0  0  0
  -21.5526   89.3633   14.6502 C   0  0  0  0  0  0  0  0  0  0  0  0
  -20.2649   90.1568   14.8831 C   0  0  0  0  0  0  0  0  0  0  0  0
  -19.5489   90.3798   13.5633 C   0  0  0  0  0  0  0  0  0  0  0  0
  -20.4985   90.7833   12.4439 C   0  0  0  0  0  0  0  0  0  0  0  0
  -22.1938   89.0765   15.9191 N   0  0  0  0  0  0  0  0  0  0  0  0
  -22.4365   89.9519   16.3829 H   0  0  0  0  0  0  0  0  0  0  0  0
  -21.5552   88.5443   16.5101 H   0  0  0  0  0  0  0  0  0  0  0  0
  -19.3660   89.4334   15.7666 N   0  0  0  0  0  0  0  0  0  0  0  0
  -18.8427   88.2189   15.5343 C   0  0  0  0  0  0  0  0  0  0  0  0
  -19.0893   87.5319   14.5663 O   0  0  0  0  0  0  0  0  0  0  0  0
  -17.9202   87.6870   16.5874 C   0  0  0  0  0  0  0  0  0  0  0  0
  -19.1184   89.8735   16.6117 H   0  0  0  0  0  0  0  0  0  0  0  0
  -22.6229   90.8808   11.2598 C   0  0  0  0  0  0  0  0  0  0  0  0
  -22.1113   91.4865   10.2910 O   0  0  0  0  0  0  0  0  0  0  0  0
  -23.8100   90.4734   11.2052 O   0  0  0  0  0  0  0  0  0  0  0  0
  -24.1841   90.0210   11.9356 H   0  0  0  0  0  0  0  0  0  0  0  0
  -18.5555   91.3997   13.7511 O   0  0  0  0  0  0  0  0  0  0  0  0
  -18.9807   92.7321   13.4248 C   0  0  0  0  0  0  0  0  0  0  0  0
  -18.8830   93.6577   14.6394 C   0  0  0  0  0  0  0  0  0  0  0  0
  -17.5073   94.2858   14.7418 C   0  0  0  0  0  0  0  0  0  0  0  0
  -18.1179   93.2439   12.2802 C   0  0  0  0  0  0  0  0  0  0  0  0
  -18.9343   93.8760   11.1719 C   0  0  0  0  0  0  0  0  0  0  0  0
 15 16  2  0  0  0
 15 17  1  0  0  0
 15  1  1  0  0  0
  1  2  1  0  0  0
  1  6  2  0  0  0
  2  3  1  0  0  0
  3  4  1  0  0  0
  3  7  1  0  0  0
  4 10  1  0  0  0
  4  5  1  0  0  0
 10 11  1  0  0  0
 11 12  2  0  0  0
 11 13  1  0  0  0
  5  6  1  0  0  0
  5 19  1  0  0  0
 19 20  1  0  0  0
 20 21  1  0  0  0
 20 23  1  0  0  0
 21 22  1  0  0  0
 23 24  1  0  0  0
 17 18  1  0  0  0
 10 14  1  0  0  0
  7  8  1  0  0  0
  7  9  1  0  0  0
M  END
> <minimizedAffinity>
-5.86588

$$$$
4CPY_G39_A_1470


 24 24  0  0  0  0  0  0  0  0999 V2000
  -19.0685   89.9159   13.4445 C   0  0  0  0  0  0  0  0  0  0  0  0
  -20.3136   89.2444   13.9786 C   0  0  0  0  0  0  0  0  0  0  0  0
  -21.4448   90.2601   14.2109 C   0  0  0  0  0  0  0  0  0  0  0  0
  -21.6665   91.1212   12.9653 C   0  0  0  0  0  0  0  0  0  0  0  0
  -20.4154   91.9263   12.6638 C   0  0  0  0  0  0  0  0  0  0  0  0
  -19.1427   91.1026   12.8018 C   0  0  0  0  0  0  0  0  0  0  0  0
  -22.6663   89.5552   14.5492 N   0  0  0  0  0  0  0  0  0  0  0  0
  -22.9293   88.9414   13.7781 H   0  0  0  0  0  0  0  0  0  0  0  0
  -23.4129   90.2297   14.7167 H   0  0  0  0  0  0  0  0  0  0  0  0
  -22.7629   92.0527   13.1707 N   0  0  0  0  0  0  0  0  0  0  0  0
  -23.8296   92.2019   12.3690 C   0  0  0  0  0  0  0  0  0  0  0  0
  -24.0020   91.6064   11.3271 O   0  0  0  0  0  0  0  0  0  0  0  0
  -24.8437   93.2146   12.8039 C   0  0  0  0  0  0  0  0  0  0  0  0
  -22.7197   92.6260   13.9699 H   0  0  0  0  0  0  0  0  0  0  0  0
  -17.7342   89.3192   13.6737 C   0  0  0  0  0  0  0  0  0  0  0  0
  -16.7209   90.0460   13.7847 O   0  0  0  0  0  0  0  0  0  0  0  0
  -17.6374   88.0694   13.7558 O   0  0  0  0  0  0  0  0  0  0  0  0
  -18.4015   87.5337   13.6714 H   0  0  0  0  0  0  0  0  0  0  0  0
  -20.5184   92.4444   11.3283 O   0  0  0  0  0  0  0  0  0  0  0  0
  -20.4308   93.8738   11.2207 C   0  0  0  0  0  0  0  0  0  0  0  0
  -19.0673   94.3057   10.6768 C   0  0  0  0  0  0  0  0  0  0  0  0
  -18.5611   95.5459   11.3862 C   0  0  0  0  0  0  0  0  0  0  0  0
  -21.5552   94.3562   10.3155 C   0  0  0  0  0  0  0  0  0  0  0  0
  -22.4278   95.4030   10.9765 C   0  0  0  0  0  0  0  0  0  0  0  0
 15 16  2  0  0  0
 15 17  1  0  0  0
 15  1  1  0  0  0
  1  2  1  0  0  0
  1  6  2  0  0  0
  2  3  1  0  0  0
  3  4  1  0  0  0
  3  7  1  0  0  0
  4 10  1  0  0  0
  4  5  1  0  0  0
 10 11  1  0  0  0
 11 12  2  0  0  0
 11 13  1  0  0  0
  5  6  1  0  0  0
  5 19  1  0  0  0
 19 20  1  0  0  0
 20 21  1  0  0  0
 20 23  1  0  0  0
 21 22  1  0  0  0
 23 24  1  0  0  0
 17 18  1  0  0  0
 10 14  1  0  0  0
  7  8  1  0  0  0
  7  9  1  0  0  0
M  END
> <minimizedAffinity>
-5.71555

$$$$
4CPY_G39_A_1470


 24 24  0  0  0  0  0  0  0  0999 V2000
  -21.5775   89.2042   15.2585 C   0  0  0  0  0  0  0  0  0  0  0  0
  -22.6853   89.3414   14.2384 C   0  0  0  0  0  0  0  0  0  0  0  0
  -22.5823   90.6703   13.4713 C   0  0  0  0  0  0  0  0  0  0  0  0
  -21.1708   90.8680   12.9135 C   0  0  0  0  0  0  0  0  0  0  0  0
  -20.1707   90.9457   14.0529 C   0  0  0  0  0  0  0  0  0  0  0  0
  -20.4240   89.8959   15.1258 C   0  0  0  0  0  0  0  0  0  0  0  0
  -23.5481   90.6808   12.3894 N   0  0  0  0  0  0  0  0  0  0  0  0
  -23.3473   89.9144   11.7470 H   0  0  0  0  0  0  0  0  0  0  0  0
  -23.4890   91.5679   11.8894 H   0  0  0  0  0  0  0  0  0  0  0  0
  -21.0851   92.1038   12.1537 N   0  0  0  0  0  0  0  0  0  0  0  0
  -21.5179   92.2860   10.8958 C   0  0  0  0  0  0  0  0  0  0  0  0
  -22.0020   91.4210   10.1976 O   0  0  0  0  0  0  0  0  0  0  0  0
  -21.3395   93.6614   10.3307 C   0  0  0  0  0  0  0  0  0  0  0  0
  -20.6723   92.8772   12.6017 H   0  0  0  0  0  0  0  0  0  0  0  0
  -21.7605   88.3601   16.4597 C   0  0  0  0  0  0  0  0  0  0  0  0
  -21.1695   87.2613   16.5633 O   0  0  0  0  0  0  0  0  0  0  0  0
  -22.5195   88.7672   17.3742 O   0  0  0  0  0  0  0  0  0  0  0  0
  -22.9575   89.5910   17.2875 H   0  0  0  0  0  0  0  0  0  0  0  0
  -18.8507   90.7812   13.5117 O   0  0  0  0  0  0  0  0  0  0  0  0
  -17.8462   91.6321   14.0858 C   0  0  0  0  0  0  0  0  0  0  0  0
  -16.7802   92.0050   13.0533 C   0  0  0  0  0  0  0  0  0  0  0  0
  -17.2782   91.7706   11.6410 C   0  0  0  0  0  0  0  0  0  0  0  0
  -18.5292   92.8759   14.6363 C   0  0  0  0  0  0  0  0  0  0  0  0
  -17.6169   94.0850   14.6486 C   0  0  0  0  0  0  0  0  0  0  0  0
 15 16  2  0  0  0
 15 17  1  0  0  0
 15  1  1  0  0  0
  1  2  1  0  0  0
  1  6  2  0  0  0
  2  3  1  0  0  0
  3  4  1  0  0  0
  3  7  1  0  0  0
  4 10  1  0  0  0
  4  5  1  0  0  0
 10 11  1  0  0  0
 11 12  2  0  0  0
 11 13  1  0  0  0
  5  6  1  0  0  0
  5 19  1  0  0  0
 19 20  1  0  0  0
 20 21  1  0  0  0
 20 23  1  0  0  0
 21 22  1  0  0  0
 23 24  1  0  0  0
 17 18  1  0  0  0
 10 14  1  0  0  0
  7  8  1  0  0  0
  7  9  1  0  0  0
M  END
> <minimizedAffinity>
-5.47342

$$$$
