2I4J_DRJ_A_999


 34 36  0  0  0  0  0  0  0  0999 V2000
   17.7113   16.4305   15.6909 C   0  0  0  0  0  0  0  0  0  0  0  0
   17.0383   16.8111   14.3688 C   0  0  0  0  0  0  0  0  0  0  0  0
   12.8760   15.6904   14.3647 C   0  0  0  0  0  0  0  0  0  0  0  0
   13.6224   15.6107   13.1886 C   0  0  0  0  0  0  0  0  0  0  0  0
   14.9756   15.9260   13.1917 C   0  0  0  0  0  0  0  0  0  0  0  0
   13.4994   16.0694   15.5487 C   0  0  0  0  0  0  0  0  0  0  0  0
   14.8560   16.3875   15.5559 C   0  0  0  0  0  0  0  0  0  0  0  0
   15.5902   16.3262   14.3771 C   0  0  0  0  0  0  0  0  0  0  0  0
   11.5411   15.4152   14.3895 O   0  0  0  0  0  0  0  0  0  0  0  0
   11.0710   14.0622   14.3062 C   0  0  0  0  0  0  0  0  0  0  0  0
   12.2268   13.0906   14.5684 C   0  0  0  0  0  0  0  0  0  0  0  0
    9.9421   13.8352   15.3171 C   0  0  0  0  0  0  0  0  0  0  0  0
    8.9132   14.5311   15.1710 O   0  0  0  0  0  0  0  0  0  0  0  0
   10.1256   12.9807   16.2100 O   0  0  0  0  0  0  0  0  0  0  0  0
    8.8621   15.1504   14.4697 H   0  0  0  0  0  0  0  0  0  0  0  0
    9.9952   12.4420   12.6413 C   0  0  0  0  0  0  0  0  0  0  0  0
   10.5095   13.8621   12.8956 C   0  0  0  0  0  0  0  0  0  0  0  0
   19.0140   17.0969   15.7876 N   0  0  0  0  0  0  0  0  0  0  0  0
   19.2920   17.7219   16.9254 C   0  0  0  0  0  0  0  0  0  0  0  0
   19.8775   18.9544   16.9590 O   0  0  0  0  0  0  0  0  0  0  0  0
   19.9710   19.3050   18.2741 C   0  0  0  0  0  0  0  0  0  0  0  0
   20.4721   20.4289   18.9107 C   0  0  0  0  0  0  0  0  0  0  0  0
   20.4409   20.5123   20.3051 C   0  0  0  0  0  0  0  0  0  0  0  0
   19.9073   19.4665   21.0424 C   0  0  0  0  0  0  0  0  0  0  0  0
   19.4022   18.3348   20.3949 C   0  0  0  0  0  0  0  0  0  0  0  0
   19.4316   18.2504   19.0134 C   0  0  0  0  0  0  0  0  0  0  0  0
   19.0295   17.3081   18.1590 N   0  0  0  0  0  0  0  0  0  0  0  0
   19.9750   17.0207   14.6709 C   0  0  0  0  0  0  0  0  0  0  0  0
   21.4101   16.9998   15.2033 C   0  0  0  0  0  0  0  0  0  0  0  0
   22.2159   18.2355   14.7907 C   0  0  0  0  0  0  0  0  0  0  0  0
   22.9224   17.9656   13.4571 C   0  0  0  0  0  0  0  0  0  0  0  0
   23.0556   19.2442   12.6219 C   0  0  0  0  0  0  0  0  0  0  0  0
   24.5303   19.6536   12.5392 C   0  0  0  0  0  0  0  0  0  0  0  0
   24.6945   20.9795   11.7926 C   0  0  0  0  0  0  0  0  0  0  0  0
 16 17  1  0  0  0
 17 10  1  0  0  0
 10  9  1  0  0  0
 10 11  1  0  0  0
 10 12  1  0  0  0
 12 14  2  0  0  0
 12 13  1  0  0  0
  9  3  1  0  0  0
  3  6  2  0  0  0
  3  4  1  0  0  0
  4  5  2  0  0  0
  5  8  1  0  0  0
  6  7  1  0  0  0
  7  8  2  0  0  0
  8  2  1  0  0  0
  2  1  1  0  0  0
  1 18  1  0  0  0
 18 19  1  0  0  0
 18 28  1  0  0  0
 28 29  1  0  0  0
 29 30  1  0  0  0
 30 31  1  0  0  0
 31 32  1  0  0  0
 32 33  1  0  0  0
 33 34  1  0  0  0
 19 27  2  0  0  0
 19 20  1  0  0  0
 20 21  1  0  0  0
 21 26  2  0  0  0
 21 22  1  0  0  0
 22 23  2  0  0  0
 23 24  1  0  0  0
 24 25  2  0  0  0
 25 26  1  0  0  0
 26 27  1  0  0  0
 13 15  1  0  0  0
M  END
> <minimizedAffinity>
-10.03890

$$$$
2I4J_DRJ_A_999


 34 36  0  0  0  0  0  0  0  0999 V2000
   18.3856   15.9187   16.2103 C   0  0  0  0  0  0  0  0  0  0  0  0
   18.3866   15.1061   14.9121 C   0  0  0  0  0  0  0  0  0  0  0  0
   15.2871   16.3892   12.2051 C   0  0  0  0  0  0  0  0  0  0  0  0
   15.0388   16.3358   13.5770 C   0  0  0  0  0  0  0  0  0  0  0  0
   16.0462   15.9676   14.4603 C   0  0  0  0  0  0  0  0  0  0  0  0
   16.5578   16.0901   11.7257 C   0  0  0  0  0  0  0  0  0  0  0  0
   17.5705   15.7194   12.6079 C   0  0  0  0  0  0  0  0  0  0  0  0
   17.3120   15.6479   13.9719 C   0  0  0  0  0  0  0  0  0  0  0  0
   14.3131   16.7193   11.3102 O   0  0  0  0  0  0  0  0  0  0  0  0
   14.5852   17.6288   10.2346 C   0  0  0  0  0  0  0  0  0  0  0  0
   15.5907   17.0023    9.2624 C   0  0  0  0  0  0  0  0  0  0  0  0
   13.2853   17.9830    9.5046 C   0  0  0  0  0  0  0  0  0  0  0  0
   12.5890   17.0234    9.1064 O   0  0  0  0  0  0  0  0  0  0  0  0
   13.0140   19.1936    9.3568 O   0  0  0  0  0  0  0  0  0  0  0  0
   12.8712   16.1436    9.2618 H   0  0  0  0  0  0  0  0  0  0  0  0
   16.4158   19.4162   10.1408 C   0  0  0  0  0  0  0  0  0  0  0  0
   15.1599   18.9061   10.8537 C   0  0  0  0  0  0  0  0  0  0  0  0
   19.4144   16.9611   16.1370 N   0  0  0  0  0  0  0  0  0  0  0  0
   19.6168   17.6905   17.2276 C   0  0  0  0  0  0  0  0  0  0  0  0
   20.2255   18.9115   17.1886 O   0  0  0  0  0  0  0  0  0  0  0  0
   20.2241   19.3880   18.4669 C   0  0  0  0  0  0  0  0  0  0  0  0
   20.6993   20.5614   19.0299 C   0  0  0  0  0  0  0  0  0  0  0  0
   20.5613   20.7816   20.4028 C   0  0  0  0  0  0  0  0  0  0  0  0
   19.9484   19.8212   21.1927 C   0  0  0  0  0  0  0  0  0  0  0  0
   19.4699   18.6390   20.6194 C   0  0  0  0  0  0  0  0  0  0  0  0
   19.6050   18.4192   19.2592 C   0  0  0  0  0  0  0  0  0  0  0  0
   19.2497   17.4037   18.4705 N   0  0  0  0  0  0  0  0  0  0  0  0
   20.2086   17.1393   14.9066 C   0  0  0  0  0  0  0  0  0  0  0  0
   21.6956   16.9184   15.1956 C   0  0  0  0  0  0  0  0  0  0  0  0
   22.5559   18.1387   14.8535 C   0  0  0  0  0  0  0  0  0  0  0  0
   22.8304   18.1667   13.3454 C   0  0  0  0  0  0  0  0  0  0  0  0
   23.0719   19.5950   12.8436 C   0  0  0  0  0  0  0  0  0  0  0  0
   24.5622   19.7897   12.5429 C   0  0  0  0  0  0  0  0  0  0  0  0
   24.7864   20.9838   11.6121 C   0  0  0  0  0  0  0  0  0  0  0  0
 16 17  1  0  0  0
 17 10  1  0  0  0
 10  9  1  0  0  0
 10 11  1  0  0  0
 10 12  1  0  0  0
 12 14  2  0  0  0
 12 13  1  0  0  0
  9  3  1  0  0  0
  3  6  2  0  0  0
  3  4  1  0  0  0
  4  5  2  0  0  0
  5  8  1  0  0  0
  6  7  1  0  0  0
  7  8  2  0  0  0
  8  2  1  0  0  0
  2  1  1  0  0  0
  1 18  1  0  0  0
 18 19  1  0  0  0
 18 28  1  0  0  0
 28 29  1  0  0  0
 29 30  1  0  0  0
 30 31  1  0  0  0
 31 32  1  0  0  0
 32 33  1  0  0  0
 33 34  1  0  0  0
 19 27  2  0  0  0
 19 20  1  0  0  0
 20 21  1  0  0  0
 21 26  2  0  0  0
 21 22  1  0  0  0
 22 23  2  0  0  0
 23 24  1  0  0  0
 24 25  2  0  0  0
 25 26  1  0  0  0
 26 27  1  0  0  0
 13 15  1  0  0  0
M  END
> <minimizedAffinity>
-9.16883

$$$$
2I4J_DRJ_A_999


 34 36  0  0  0  0  0  0  0  0999 V2000
   16.8519   15.8492   15.8008 C   0  0  0  0  0  0  0  0  0  0  0  0
   15.8784   16.8558   15.1806 C   0  0  0  0  0  0  0  0  0  0  0  0
   12.0945   15.0889   14.1122 C   0  0  0  0  0  0  0  0  0  0  0  0
   13.2236   14.8501   13.3281 C   0  0  0  0  0  0  0  0  0  0  0  0
   14.4565   15.3781   13.6911 C   0  0  0  0  0  0  0  0  0  0  0  0
   12.2131   15.8444   15.2738 C   0  0  0  0  0  0  0  0  0  0  0  0
   13.4474   16.3767   15.6409 C   0  0  0  0  0  0  0  0  0  0  0  0
   14.5649   16.1527   14.8450 C   0  0  0  0  0  0  0  0  0  0  0  0
   10.8657   14.6090   13.7687 O   0  0  0  0  0  0  0  0  0  0  0  0
   10.3651   13.3963   14.3491 C   0  0  0  0  0  0  0  0  0  0  0  0
   11.5057   12.6349   15.0332 C   0  0  0  0  0  0  0  0  0  0  0  0
    9.2554   13.7151   15.3566 C   0  0  0  0  0  0  0  0  0  0  0  0
    9.4335   13.3162   16.5286 O   0  0  0  0  0  0  0  0  0  0  0  0
    8.2581   14.3432   14.9421 O   0  0  0  0  0  0  0  0  0  0  0  0
   10.2155   12.8505   16.7512 H   0  0  0  0  0  0  0  0  0  0  0  0
    9.3247   13.4002   12.0099 C   0  0  0  0  0  0  0  0  0  0  0  0
    9.7666   12.5618   13.2131 C   0  0  0  0  0  0  0  0  0  0  0  0
   18.2295   16.3041   15.5874 N   0  0  0  0  0  0  0  0  0  0  0  0
   18.7750   17.0521   16.5389 C   0  0  0  0  0  0  0  0  0  0  0  0
   18.3709   16.9890   17.8410 O   0  0  0  0  0  0  0  0  0  0  0  0
   19.1686   17.8485   18.5382 C   0  0  0  0  0  0  0  0  0  0  0  0
   19.2228   18.1989   19.8776 C   0  0  0  0  0  0  0  0  0  0  0  0
   20.1634   19.1347   20.3157 C   0  0  0  0  0  0  0  0  0  0  0  0
   21.0371   19.7067   19.4040 C   0  0  0  0  0  0  0  0  0  0  0  0
   20.9787   19.3490   18.0535 C   0  0  0  0  0  0  0  0  0  0  0  0
   20.0479   18.4215   17.6173 C   0  0  0  0  0  0  0  0  0  0  0  0
   19.7782   17.9123   16.4142 N   0  0  0  0  0  0  0  0  0  0  0  0
   18.9712   15.8945   14.3797 C   0  0  0  0  0  0  0  0  0  0  0  0
   18.4233   16.6180   13.1469 C   0  0  0  0  0  0  0  0  0  0  0  0
   17.6337   15.6926   12.2159 C   0  0  0  0  0  0  0  0  0  0  0  0
   16.9385   16.5259   11.1330 C   0  0  0  0  0  0  0  0  0  0  0  0
   16.4290   17.8602   11.6898 C   0  0  0  0  0  0  0  0  0  0  0  0
   15.1874   18.3036   10.9081 C   0  0  0  0  0  0  0  0  0  0  0  0
   14.5564   17.1271   10.1598 C   0  0  0  0  0  0  0  0  0  0  0  0
 16 17  1  0  0  0
 17 10  1  0  0  0
 10  9  1  0  0  0
 10 11  1  0  0  0
 10 12  1  0  0  0
 12 14  2  0  0  0
 12 13  1  0  0  0
  9  3  1  0  0  0
  3  6  2  0  0  0
  3  4  1  0  0  0
  4  5  2  0  0  0
  5  8  1  0  0  0
  6  7  1  0  0  0
  7  8  2  0  0  0
  8  2  1  0  0  0
  2  1  1  0  0  0
  1 18  1  0  0  0
 18 19  1  0  0  0
 18 28  1  0  0  0
 28 29  1  0  0  0
 29 30  1  0  0  0
 30 31  1  0  0  0
 31 32  1  0  0  0
 32 33  1  0  0  0
 33 34  1  0  0  0
 19 27  2  0  0  0
 19 20  1  0  0  0
 20 21  1  0  0  0
 21 26  2  0  0  0
 21 22  1  0  0  0
 22 23  2  0  0  0
 23 24  1  0  0  0
 24 25  2  0  0  0
 25 26  1  0  0  0
 26 27  1  0  0  0
 13 15  1  0  0  0
M  END
> <minimizedAffinity>
-9.04465

$$$$
2I4J_DRJ_A_999


 34 36  0  0  0  0  0  0  0  0999 V2000
   16.2130   17.7165   12.4660 C   0  0  0  0  0  0  0  0  0  0  0  0
   16.0027   16.2263   12.7501 C   0  0  0  0  0  0  0  0  0  0  0  0
   12.0493   15.3400   14.2219 C   0  0  0  0  0  0  0  0  0  0  0  0
   13.0564   15.7204   15.1094 C   0  0  0  0  0  0  0  0  0  0  0  0
   14.3207   16.0524   14.6381 C   0  0  0  0  0  0  0  0  0  0  0  0
   12.3120   15.3133   12.8565 C   0  0  0  0  0  0  0  0  0  0  0  0
   13.5787   15.6443   12.3798 C   0  0  0  0  0  0  0  0  0  0  0  0
   14.5843   16.0029   13.2702 C   0  0  0  0  0  0  0  0  0  0  0  0
   10.8072   14.9813   14.6544 O   0  0  0  0  0  0  0  0  0  0  0  0
   10.4574   13.5987   14.8101 C   0  0  0  0  0  0  0  0  0  0  0  0
   11.7200   12.7316   14.7606 C   0  0  0  0  0  0  0  0  0  0  0  0
    9.7173   13.3901   16.1356 C   0  0  0  0  0  0  0  0  0  0  0  0
    8.5505   13.8358   16.1999 O   0  0  0  0  0  0  0  0  0  0  0  0
   10.3247   12.7972   17.0524 O   0  0  0  0  0  0  0  0  0  0  0  0
    8.1730   14.2691   15.4598 H   0  0  0  0  0  0  0  0  0  0  0  0
   10.1774   12.4017   12.5644 C   0  0  0  0  0  0  0  0  0  0  0  0
    9.5111   13.2371   13.6616 C   0  0  0  0  0  0  0  0  0  0  0  0
   16.0887   17.9635   11.0259 N   0  0  0  0  0  0  0  0  0  0  0  0
   15.4850   19.0856   10.6534 C   0  0  0  0  0  0  0  0  0  0  0  0
   14.1552   19.1351   10.3500 O   0  0  0  0  0  0  0  0  0  0  0  0
   13.8709   20.4370   10.0576 C   0  0  0  0  0  0  0  0  0  0  0  0
   12.7016   21.0795    9.6843 C   0  0  0  0  0  0  0  0  0  0  0  0
   12.7104   22.4548    9.4373 C   0  0  0  0  0  0  0  0  0  0  0  0
   13.8925   23.1671    9.5681 C   0  0  0  0  0  0  0  0  0  0  0  0
   15.0697   22.5138    9.9459 C   0  0  0  0  0  0  0  0  0  0  0  0
   15.0631   21.1514   10.1917 C   0  0  0  0  0  0  0  0  0  0  0  0
   16.0203   20.2963   10.5552 N   0  0  0  0  0  0  0  0  0  0  0  0
   16.6606   17.0120   10.0543 C   0  0  0  0  0  0  0  0  0  0  0  0
   18.1499   17.2963    9.8434 C   0  0  0  0  0  0  0  0  0  0  0  0
   18.4485   17.9228    8.4778 C   0  0  0  0  0  0  0  0  0  0  0  0
   18.7834   19.4081    8.6567 C   0  0  0  0  0  0  0  0  0  0  0  0
   18.0042   20.2838    7.6687 C   0  0  0  0  0  0  0  0  0  0  0  0
   18.2586   21.7628    7.9804 C   0  0  0  0  0  0  0  0  0  0  0  0
   17.3446   22.6673    7.1504 C   0  0  0  0  0  0  0  0  0  0  0  0
 16 17  1  0  0  0
 17 10  1  0  0  0
 10  9  1  0  0  0
 10 11  1  0  0  0
 10 12  1  0  0  0
 12 14  2  0  0  0
 12 13  1  0  0  0
  9  3  1  0  0  0
  3  6  2  0  0  0
  3  4  1  0  0  0
  4  5  2  0  0  0
  5  8  1  0  0  0
  6  7  1  0  0  0
  7  8  2  0  0  0
  8  2  1  0  0  0
  2  1  1  0  0  0
  1 18  1  0  0  0
 18 19  1  0  0  0
 18 28  1  0  0  0
 28 29  1  0  0  0
 29 30  1  0  0  0
 30 31  1  0  0  0
 31 32  1  0  0  0
 32 33  1  0  0  0
 33 34  1  0  0  0
 19 27  2  0  0  0
 19 20  1  0  0  0
 20 21  1  0  0  0
 21 26  2  0  0  0
 21 22  1  0  0  0
 22 23  2  0  0  0
 23 24  1  0  0  0
 24 25  2  0  0  0
 25 26  1  0  0  0
 26 27  1  0  0  0
 13 15  1  0  0  0
M  END
> <minimizedAffinity>
-9.04156

$$$$
2I4J_DRJ_A_999


 34 36  0  0  0  0  0  0  0  0999 V2000
   15.5344   17.0119    9.7740 C   0  0  0  0  0  0  0  0  0  0  0  0
   16.6225   17.7408   10.5681 C   0  0  0  0  0  0  0  0  0  0  0  0
   17.0335   16.2497   14.5916 C   0  0  0  0  0  0  0  0  0  0  0  0
   16.3165   17.4221   14.3506 C   0  0  0  0  0  0  0  0  0  0  0  0
   16.1403   17.8844   13.0522 C   0  0  0  0  0  0  0  0  0  0  0  0
   17.5563   15.5327   13.5208 C   0  0  0  0  0  0  0  0  0  0  0  0
   17.3828   15.9934   12.2173 C   0  0  0  0  0  0  0  0  0  0  0  0
   16.6852   17.1731   11.9844 C   0  0  0  0  0  0  0  0  0  0  0  0
   17.2482   15.7847   15.8550 O   0  0  0  0  0  0  0  0  0  0  0  0
   18.4637   16.0934   16.5519 C   0  0  0  0  0  0  0  0  0  0  0  0
   18.8807   17.5388   16.2597 C   0  0  0  0  0  0  0  0  0  0  0  0
   18.2728   15.8862   18.0581 C   0  0  0  0  0  0  0  0  0  0  0  0
   19.3021   15.6331   18.7220 O   0  0  0  0  0  0  0  0  0  0  0  0
   17.1137   15.9810   18.5147 O   0  0  0  0  0  0  0  0  0  0  0  0
   20.1342   15.5807   18.2944 H   0  0  0  0  0  0  0  0  0  0  0  0
   20.7752   15.8067   15.4893 C   0  0  0  0  0  0  0  0  0  0  0  0
   19.5324   15.1146   16.0570 C   0  0  0  0  0  0  0  0  0  0  0  0
   14.2456   17.6802    9.9810 N   0  0  0  0  0  0  0  0  0  0  0  0
   14.1913   18.9828    9.7305 C   0  0  0  0  0  0  0  0  0  0  0  0
   15.2392   19.6676    9.1864 O   0  0  0  0  0  0  0  0  0  0  0  0
   14.8214   20.9566    9.0278 C   0  0  0  0  0  0  0  0  0  0  0  0
   15.4454   22.0892    8.5305 C   0  0  0  0  0  0  0  0  0  0  0  0
   14.7575   23.3049    8.4943 C   0  0  0  0  0  0  0  0  0  0  0  0
   13.4524   23.3679    8.9577 C   0  0  0  0  0  0  0  0  0  0  0  0
   12.8270   22.2217    9.4578 C   0  0  0  0  0  0  0  0  0  0  0  0
   13.5066   21.0160    9.4940 C   0  0  0  0  0  0  0  0  0  0  0  0
   13.1593   19.7977    9.9119 N   0  0  0  0  0  0  0  0  0  0  0  0
   13.0638   16.9056   10.4047 C   0  0  0  0  0  0  0  0  0  0  0  0
   13.4957   15.6135   11.1026 C   0  0  0  0  0  0  0  0  0  0  0  0
   12.6259   15.2737   12.3169 C   0  0  0  0  0  0  0  0  0  0  0  0
   13.4558   15.4146   13.5982 C   0  0  0  0  0  0  0  0  0  0  0  0
   13.5582   14.0836   14.3518 C   0  0  0  0  0  0  0  0  0  0  0  0
   12.2286   13.3285   14.2458 C   0  0  0  0  0  0  0  0  0  0  0  0
   11.4951   13.3104   15.5890 C   0  0  0  0  0  0  0  0  0  0  0  0
 16 17  1  0  0  0
 17 10  1  0  0  0
 10  9  1  0  0  0
 10 11  1  0  0  0
 10 12  1  0  0  0
 12 14  2  0  0  0
 12 13  1  0  0  0
  9  3  1  0  0  0
  3  6  2  0  0  0
  3  4  1  0  0  0
  4  5  2  0  0  0
  5  8  1  0  0  0
  6  7  1  0  0  0
  7  8  2  0  0  0
  8  2  1  0  0  0
  2  1  1  0  0  0
  1 18  1  0  0  0
 18 19  1  0  0  0
 18 28  1  0  0  0
 28 29  1  0  0  0
 29 30  1  0  0  0
 30 31  1  0  0  0
 31 32  1  0  0  0
 32 33  1  0  0  0
 33 34  1  0  0  0
 19 27  2  0  0  0
 19 20  1  0  0  0
 20 21  1  0  0  0
 21 26  2  0  0  0
 21 22  1  0  0  0
 22 23  2  0  0  0
 23 24  1  0  0  0
 24 25  2  0  0  0
 25 26  1  0  0  0
 26 27  1  0  0  0
 13 15  1  0  0  0
M  END
> <minimizedAffinity>
-9.02087

$$$$
2I4J_DRJ_A_999


 34 36  0  0  0  0  0  0  0  0999 V2000
   16.3408   18.2997   11.5811 C   0  0  0  0  0  0  0  0  0  0  0  0
   16.2629   16.7772   11.4341 C   0  0  0  0  0  0  0  0  0  0  0  0
   12.5772   15.5880   13.3268 C   0  0  0  0  0  0  0  0  0  0  0  0
   12.6350   15.7360   11.9406 C   0  0  0  0  0  0  0  0  0  0  0  0
   13.8306   16.0741   11.3186 C   0  0  0  0  0  0  0  0  0  0  0  0
   13.7306   15.7618   14.0841 C   0  0  0  0  0  0  0  0  0  0  0  0
   14.9314   16.1019   13.4644 C   0  0  0  0  0  0  0  0  0  0  0  0
   14.9786   16.2683   12.0851 C   0  0  0  0  0  0  0  0  0  0  0  0
   11.4141   15.2847   13.9699 O   0  0  0  0  0  0  0  0  0  0  0  0
   10.9471   13.9298   14.0378 C   0  0  0  0  0  0  0  0  0  0  0  0
   12.1377   12.9723   14.1577 C   0  0  0  0  0  0  0  0  0  0  0  0
   10.0017   13.7593   15.2316 C   0  0  0  0  0  0  0  0  0  0  0  0
    8.9515   14.4383   15.2139 O   0  0  0  0  0  0  0  0  0  0  0  0
   10.3421   12.9634   16.1326 O   0  0  0  0  0  0  0  0  0  0  0  0
    8.7768   15.0123   14.4942 H   0  0  0  0  0  0  0  0  0  0  0  0
    9.6927   12.2021   12.6250 C   0  0  0  0  0  0  0  0  0  0  0  0
   10.1626   13.6543   12.7518 C   0  0  0  0  0  0  0  0  0  0  0  0
   16.0091   18.9335   10.3010 N   0  0  0  0  0  0  0  0  0  0  0  0
   15.0410   19.8419   10.3074 C   0  0  0  0  0  0  0  0  0  0  0  0
   15.2715   21.1548   10.6008 O   0  0  0  0  0  0  0  0  0  0  0  0
   14.0761   21.7988   10.4689 C   0  0  0  0  0  0  0  0  0  0  0  0
   13.7011   23.1218   10.6376 C   0  0  0  0  0  0  0  0  0  0  0  0
   12.3715   23.5007   10.4346 C   0  0  0  0  0  0  0  0  0  0  0  0
   11.4358   22.5468   10.0652 C   0  0  0  0  0  0  0  0  0  0  0  0
   11.8198   21.2130    9.8956 C   0  0  0  0  0  0  0  0  0  0  0  0
   13.1367   20.8356   10.0956 C   0  0  0  0  0  0  0  0  0  0  0  0
   13.7609   19.6600   10.0072 N   0  0  0  0  0  0  0  0  0  0  0  0
   16.7663   18.5921    9.0819 C   0  0  0  0  0  0  0  0  0  0  0  0
   18.0293   19.4513    8.9809 C   0  0  0  0  0  0  0  0  0  0  0  0
   17.8365   20.6917    8.1031 C   0  0  0  0  0  0  0  0  0  0  0  0
   18.1191   21.9529    8.9277 C   0  0  0  0  0  0  0  0  0  0  0  0
   17.6451   23.2176    8.2025 C   0  0  0  0  0  0  0  0  0  0  0  0
   16.8445   22.8263    6.9555 C   0  0  0  0  0  0  0  0  0  0  0  0
   17.2523   23.6745    5.7486 C   0  0  0  0  0  0  0  0  0  0  0  0
 16 17  1  0  0  0
 17 10  1  0  0  0
 10  9  1  0  0  0
 10 11  1  0  0  0
 10 12  1  0  0  0
 12 14  2  0  0  0
 12 13  1  0  0  0
  9  3  1  0  0  0
  3  6  2  0  0  0
  3  4  1  0  0  0
  4  5  2  0  0  0
  5  8  1  0  0  0
  6  7  1  0  0  0
  7  8  2  0  0  0
  8  2  1  0  0  0
  2  1  1  0  0  0
  1 18  1  0  0  0
 18 19  1  0  0  0
 18 28  1  0  0  0
 28 29  1  0  0  0
 29 30  1  0  0  0
 30 31  1  0  0  0
 31 32  1  0  0  0
 32 33  1  0  0  0
 33 34  1  0  0  0
 19 27  2  0  0  0
 19 20  1  0  0  0
 20 21  1  0  0  0
 21 26  2  0  0  0
 21 22  1  0  0  0
 22 23  2  0  0  0
 23 24  1  0  0  0
 24 25  2  0  0  0
 25 26  1  0  0  0
 26 27  1  0  0  0
 13 15  1  0  0  0
M  END
> <minimizedAffinity>
-8.96915

$$$$
2I4J_DRJ_A_999


 34 36  0  0  0  0  0  0  0  0999 V2000
   15.2651   15.8181   14.8542 C   0  0  0  0  0  0  0  0  0  0  0  0
   16.5428   14.9760   14.7903 C   0  0  0  0  0  0  0  0  0  0  0  0
   19.4789   17.0928   17.1311 C   0  0  0  0  0  0  0  0  0  0  0  0
   18.7339   16.0642   17.7088 C   0  0  0  0  0  0  0  0  0  0  0  0
   17.8185   15.3465   16.9488 C   0  0  0  0  0  0  0  0  0  0  0  0
   19.3147   17.3845   15.7813 C   0  0  0  0  0  0  0  0  0  0  0  0
   18.3970   16.6679   15.0159 C   0  0  0  0  0  0  0  0  0  0  0  0
   17.6425   15.6578   15.6015 C   0  0  0  0  0  0  0  0  0  0  0  0
   20.3642   17.8342   17.8557 O   0  0  0  0  0  0  0  0  0  0  0  0
   19.9012   18.8094   18.8007 C   0  0  0  0  0  0  0  0  0  0  0  0
   18.9680   19.8074   18.1066 C   0  0  0  0  0  0  0  0  0  0  0  0
   19.1760   18.1158   19.9587 C   0  0  0  0  0  0  0  0  0  0  0  0
   19.8787   17.4101   20.7152 O   0  0  0  0  0  0  0  0  0  0  0  0
   17.9447   18.2991   20.0654 O   0  0  0  0  0  0  0  0  0  0  0  0
   20.7991   17.3291   20.5593 H   0  0  0  0  0  0  0  0  0  0  0  0
   20.8439   20.9438   19.8542 C   0  0  0  0  0  0  0  0  0  0  0  0
   21.1355   19.5247   19.3575 C   0  0  0  0  0  0  0  0  0  0  0  0
   14.5001   15.6429   13.6155 N   0  0  0  0  0  0  0  0  0  0  0  0
   13.3356   15.0119   13.7066 C   0  0  0  0  0  0  0  0  0  0  0  0
   12.7420   14.7411   14.9054 O   0  0  0  0  0  0  0  0  0  0  0  0
   11.5537   14.1332   14.6228 C   0  0  0  0  0  0  0  0  0  0  0  0
   10.5397   13.6389   15.4271 C   0  0  0  0  0  0  0  0  0  0  0  0
    9.4144   13.0485   14.8461 C   0  0  0  0  0  0  0  0  0  0  0  0
    9.3217   12.9618   13.4656 C   0  0  0  0  0  0  0  0  0  0  0  0
   10.3476   13.4629   12.6584 C   0  0  0  0  0  0  0  0  0  0  0  0
   11.4632   14.0489   13.2321 C   0  0  0  0  0  0  0  0  0  0  0  0
   12.5638   14.5935   12.7110 N   0  0  0  0  0  0  0  0  0  0  0  0
   15.0037   16.1954   12.3437 C   0  0  0  0  0  0  0  0  0  0  0  0
   15.7123   17.5305   12.5861 C   0  0  0  0  0  0  0  0  0  0  0  0
   16.3518   18.1036   11.3177 C   0  0  0  0  0  0  0  0  0  0  0  0
   15.4360   19.1794   10.7223 C   0  0  0  0  0  0  0  0  0  0  0  0
   14.6612   18.6510    9.5097 C   0  0  0  0  0  0  0  0  0  0  0  0
   13.1565   18.8226    9.7457 C   0  0  0  0  0  0  0  0  0  0  0  0
   12.4147   17.4957    9.5685 C   0  0  0  0  0  0  0  0  0  0  0  0
 16 17  1  0  0  0
 17 10  1  0  0  0
 10  9  1  0  0  0
 10 11  1  0  0  0
 10 12  1  0  0  0
 12 14  2  0  0  0
 12 13  1  0  0  0
  9  3  1  0  0  0
  3  6  2  0  0  0
  3  4  1  0  0  0
  4  5  2  0  0  0
  5  8  1  0  0  0
  6  7  1  0  0  0
  7  8  2  0  0  0
  8  2  1  0  0  0
  2  1  1  0  0  0
  1 18  1  0  0  0
 18 19  1  0  0  0
 18 28  1  0  0  0
 28 29  1  0  0  0
 29 30  1  0  0  0
 30 31  1  0  0  0
 31 32  1  0  0  0
 32 33  1  0  0  0
 33 34  1  0  0  0
 19 27  2  0  0  0
 19 20  1  0  0  0
 20 21  1  0  0  0
 21 26  2  0  0  0
 21 22  1  0  0  0
 22 23  2  0  0  0
 23 24  1  0  0  0
 24 25  2  0  0  0
 25 26  1  0  0  0
 26 27  1  0  0  0
 13 15  1  0  0  0
M  END
> <minimizedAffinity>
-8.83850

$$$$
2I4J_DRJ_A_999


 34 36  0  0  0  0  0  0  0  0999 V2000
   18.6695   15.7356   16.2822 C   0  0  0  0  0  0  0  0  0  0  0  0
   18.5103   15.0184   14.9383 C   0  0  0  0  0  0  0  0  0  0  0  0
   15.2287   16.5802   12.6203 C   0  0  0  0  0  0  0  0  0  0  0  0
   15.0274   16.1966   13.9466 C   0  0  0  0  0  0  0  0  0  0  0  0
   16.0897   15.7356   14.7144 C   0  0  0  0  0  0  0  0  0  0  0  0
   16.5062   16.5173   12.0742 C   0  0  0  0  0  0  0  0  0  0  0  0
   17.5741   16.0546   12.8404 C   0  0  0  0  0  0  0  0  0  0  0  0
   17.3639   15.6543   14.1550 C   0  0  0  0  0  0  0  0  0  0  0  0
   14.2028   17.0099   11.8322 O   0  0  0  0  0  0  0  0  0  0  0  0
   13.3898   16.0718   11.1130 C   0  0  0  0  0  0  0  0  0  0  0  0
   14.2674   15.2208   10.1888 C   0  0  0  0  0  0  0  0  0  0  0  0
   12.6245   15.1787   12.0952 C   0  0  0  0  0  0  0  0  0  0  0  0
   12.9747   13.9792   12.1487 O   0  0  0  0  0  0  0  0  0  0  0  0
   11.7112   15.7039   12.7668 O   0  0  0  0  0  0  0  0  0  0  0  0
   13.6733   13.6704   11.6060 H   0  0  0  0  0  0  0  0  0  0  0  0
   12.9624   18.1596    9.6942 C   0  0  0  0  0  0  0  0  0  0  0  0
   12.3760   16.8800   10.2980 C   0  0  0  0  0  0  0  0  0  0  0  0
   19.6197   16.8430   16.1373 N   0  0  0  0  0  0  0  0  0  0  0  0
   19.7494   17.6691   17.1684 C   0  0  0  0  0  0  0  0  0  0  0  0
   19.3739   17.3238   18.4343 O   0  0  0  0  0  0  0  0  0  0  0  0
   19.6886   18.3819   19.2359 C   0  0  0  0  0  0  0  0  0  0  0  0
   19.5406   18.6038   20.5955 C   0  0  0  0  0  0  0  0  0  0  0  0
   19.9580   19.8150   21.1535 C   0  0  0  0  0  0  0  0  0  0  0  0
   20.5181   20.7876   20.3397 C   0  0  0  0  0  0  0  0  0  0  0  0
   20.6657   20.5582   18.9683 C   0  0  0  0  0  0  0  0  0  0  0  0
   20.2535   19.3586   18.4135 C   0  0  0  0  0  0  0  0  0  0  0  0
   20.2738   18.8885   17.1652 N   0  0  0  0  0  0  0  0  0  0  0  0
   20.4194   16.9828   14.9055 C   0  0  0  0  0  0  0  0  0  0  0  0
   21.9057   16.7773   15.2089 C   0  0  0  0  0  0  0  0  0  0  0  0
   22.8160   17.2478   14.0702 C   0  0  0  0  0  0  0  0  0  0  0  0
   22.8340   18.7802   14.0274 C   0  0  0  0  0  0  0  0  0  0  0  0
   23.1751   19.3002   12.6262 C   0  0  0  0  0  0  0  0  0  0  0  0
   24.6192   19.8132   12.6050 C   0  0  0  0  0  0  0  0  0  0  0  0
   24.7680   21.0057   11.6572 C   0  0  0  0  0  0  0  0  0  0  0  0
 16 17  1  0  0  0
 17 10  1  0  0  0
 10  9  1  0  0  0
 10 11  1  0  0  0
 10 12  1  0  0  0
 12 14  2  0  0  0
 12 13  1  0  0  0
  9  3  1  0  0  0
  3  6  2  0  0  0
  3  4  1  0  0  0
  4  5  2  0  0  0
  5  8  1  0  0  0
  6  7  1  0  0  0
  7  8  2  0  0  0
  8  2  1  0  0  0
  2  1  1  0  0  0
  1 18  1  0  0  0
 18 19  1  0  0  0
 18 28  1  0  0  0
 28 29  1  0  0  0
 29 30  1  0  0  0
 30 31  1  0  0  0
 31 32  1  0  0  0
 32 33  1  0  0  0
 33 34  1  0  0  0
 19 27  2  0  0  0
 19 20  1  0  0  0
 20 21  1  0  0  0
 21 26  2  0  0  0
 21 22  1  0  0  0
 22 23  2  0  0  0
 23 24  1  0  0  0
 24 25  2  0  0  0
 25 26  1  0  0  0
 26 27  1  0  0  0
 13 15  1  0  0  0
M  END
> <minimizedAffinity>
-8.81062

$$$$
2I4J_DRJ_A_999


 34 36  0  0  0  0  0  0  0  0999 V2000
   16.3332   18.1711   10.0688 C   0  0  0  0  0  0  0  0  0  0  0  0
   16.4286   16.7081   10.5116 C   0  0  0  0  0  0  0  0  0  0  0  0
   17.3518   16.4187   14.7122 C   0  0  0  0  0  0  0  0  0  0  0  0
   17.8421   15.4633   13.8214 C   0  0  0  0  0  0  0  0  0  0  0  0
   17.5876   15.5748   12.4600 C   0  0  0  0  0  0  0  0  0  0  0  0
   16.6211   17.4980   14.2271 C   0  0  0  0  0  0  0  0  0  0  0  0
   16.3627   17.6131   12.8628 C   0  0  0  0  0  0  0  0  0  0  0  0
   16.8361   16.6472   11.9821 C   0  0  0  0  0  0  0  0  0  0  0  0
   17.5599   16.3230   16.0560 O   0  0  0  0  0  0  0  0  0  0  0  0
   18.8906   16.3218   16.5924 C   0  0  0  0  0  0  0  0  0  0  0  0
   19.7340   15.2492   15.8948 C   0  0  0  0  0  0  0  0  0  0  0  0
   19.5296   17.7032   16.4152 C   0  0  0  0  0  0  0  0  0  0  0  0
   20.5244   17.7657   15.6598 O   0  0  0  0  0  0  0  0  0  0  0  0
   19.0196   18.6622   17.0327 O   0  0  0  0  0  0  0  0  0  0  0  0
   20.8400   16.9921   15.2358 H   0  0  0  0  0  0  0  0  0  0  0  0
   17.3765   15.5746   18.5169 C   0  0  0  0  0  0  0  0  0  0  0  0
   18.7765   16.0264   18.0907 C   0  0  0  0  0  0  0  0  0  0  0  0
   14.9413   18.4937    9.7388 N   0  0  0  0  0  0  0  0  0  0  0  0
   14.6317   19.7779    9.6070 C   0  0  0  0  0  0  0  0  0  0  0  0
   15.5642   20.7694    9.7080 O   0  0  0  0  0  0  0  0  0  0  0  0
   14.9100   21.9440    9.4762 C   0  0  0  0  0  0  0  0  0  0  0  0
   15.3338   23.2627    9.4485 C   0  0  0  0  0  0  0  0  0  0  0  0
   14.4175   24.2839    9.1841 C   0  0  0  0  0  0  0  0  0  0  0  0
   13.0878   23.9682    8.9512 C   0  0  0  0  0  0  0  0  0  0  0  0
   12.6655   22.6355    8.9796 C   0  0  0  0  0  0  0  0  0  0  0  0
   13.5719   21.6222    9.2407 C   0  0  0  0  0  0  0  0  0  0  0  0
   13.4424   20.2974    9.3281 N   0  0  0  0  0  0  0  0  0  0  0  0
   13.9576   17.4159    9.5217 C   0  0  0  0  0  0  0  0  0  0  0  0
   13.2665   17.0520   10.8382 C   0  0  0  0  0  0  0  0  0  0  0  0
   13.2487   15.5435   11.1038 C   0  0  0  0  0  0  0  0  0  0  0  0
   12.6256   15.2716   12.4779 C   0  0  0  0  0  0  0  0  0  0  0  0
   13.6888   15.2400   13.5818 C   0  0  0  0  0  0  0  0  0  0  0  0
   13.0085   15.3073   14.9537 C   0  0  0  0  0  0  0  0  0  0  0  0
   13.7575   16.2525   15.8959 C   0  0  0  0  0  0  0  0  0  0  0  0
 16 17  1  0  0  0
 17 10  1  0  0  0
 10  9  1  0  0  0
 10 11  1  0  0  0
 10 12  1  0  0  0
 12 14  2  0  0  0
 12 13  1  0  0  0
  9  3  1  0  0  0
  3  6  2  0  0  0
  3  4  1  0  0  0
  4  5  2  0  0  0
  5  8  1  0  0  0
  6  7  1  0  0  0
  7  8  2  0  0  0
  8  2  1  0  0  0
  2  1  1  0  0  0
  1 18  1  0  0  0
 18 19  1  0  0  0
 18 28  1  0  0  0
 28 29  1  0  0  0
 29 30  1  0  0  0
 30 31  1  0  0  0
 31 32  1  0  0  0
 32 33  1  0  0  0
 33 34  1  0  0  0
 19 27  2  0  0  0
 19 20  1  0  0  0
 20 21  1  0  0  0
 21 26  2  0  0  0
 21 22  1  0  0  0
 22 23  2  0  0  0
 23 24  1  0  0  0
 24 25  2  0  0  0
 25 26  1  0  0  0
 26 27  1  0  0  0
 13 15  1  0  0  0
M  END
> <minimizedAffinity>
-8.78208

$$$$
2I4J_DRJ_A_999


 34 36  0  0  0  0  0  0  0  0999 V2000
   17.3314   15.1797   15.1381 C   0  0  0  0  0  0  0  0  0  0  0  0
   16.2819   15.9519   15.9432 C   0  0  0  0  0  0  0  0  0  0  0  0
   12.3624   15.1554   14.3356 C   0  0  0  0  0  0  0  0  0  0  0  0
   12.5271   16.1199   15.3303 C   0  0  0  0  0  0  0  0  0  0  0  0
   13.7931   16.4151   15.8210 C   0  0  0  0  0  0  0  0  0  0  0  0
   13.4776   14.5025   13.8216 C   0  0  0  0  0  0  0  0  0  0  0  0
   14.7488   14.7948   14.3116 C   0  0  0  0  0  0  0  0  0  0  0  0
   14.9049   15.7419   15.3172 C   0  0  0  0  0  0  0  0  0  0  0  0
   11.1316   14.8227   13.8531 O   0  0  0  0  0  0  0  0  0  0  0  0
   10.4765   13.6215   14.2847 C   0  0  0  0  0  0  0  0  0  0  0  0
    9.1294   13.9641   14.9301 C   0  0  0  0  0  0  0  0  0  0  0  0
   10.2745   12.6768   13.0953 C   0  0  0  0  0  0  0  0  0  0  0  0
   11.3093   12.2066   12.5734 O   0  0  0  0  0  0  0  0  0  0  0  0
    9.1022   12.4452   12.7306 O   0  0  0  0  0  0  0  0  0  0  0  0
   12.1515   12.4359   12.9140 H   0  0  0  0  0  0  0  0  0  0  0  0
   10.7828   12.8096   16.6934 C   0  0  0  0  0  0  0  0  0  0  0  0
   11.4002   12.9388   15.2976 C   0  0  0  0  0  0  0  0  0  0  0  0
   18.0692   16.1087   14.2762 N   0  0  0  0  0  0  0  0  0  0  0  0
   17.4689   16.5079   13.1615 C   0  0  0  0  0  0  0  0  0  0  0  0
   16.8289   17.7095   13.0650 O   0  0  0  0  0  0  0  0  0  0  0  0
   16.3747   17.8067   11.7823 C   0  0  0  0  0  0  0  0  0  0  0  0
   15.6638   18.7890   11.1121 C   0  0  0  0  0  0  0  0  0  0  0  0
   15.3235   18.6093    9.7688 C   0  0  0  0  0  0  0  0  0  0  0  0
   15.7011   17.4462    9.1158 C   0  0  0  0  0  0  0  0  0  0  0  0
   16.4193   16.4583    9.7967 C   0  0  0  0  0  0  0  0  0  0  0  0
   16.7579   16.6346   11.1275 C   0  0  0  0  0  0  0  0  0  0  0  0
   17.4207   15.8711   11.9978 N   0  0  0  0  0  0  0  0  0  0  0  0
   19.4011   16.6000   14.6776 C   0  0  0  0  0  0  0  0  0  0  0  0
   19.4954   16.6990   16.2023 C   0  0  0  0  0  0  0  0  0  0  0  0
   19.1924   18.1059   16.7271 C   0  0  0  0  0  0  0  0  0  0  0  0
   20.4282   18.6641   17.4423 C   0  0  0  0  0  0  0  0  0  0  0  0
   20.4895   20.1931   17.3499 C   0  0  0  0  0  0  0  0  0  0  0  0
   20.4847   20.7945   18.7597 C   0  0  0  0  0  0  0  0  0  0  0  0
   20.9972   19.7872   19.7917 C   0  0  0  0  0  0  0  0  0  0  0  0
 16 17  1  0  0  0
 17 10  1  0  0  0
 10  9  1  0  0  0
 10 11  1  0  0  0
 10 12  1  0  0  0
 12 14  2  0  0  0
 12 13  1  0  0  0
  9  3  1  0  0  0
  3  6  2  0  0  0
  3  4  1  0  0  0
  4  5  2  0  0  0
  5  8  1  0  0  0
  6  7  1  0  0  0
  7  8  2  0  0  0
  8  2  1  0  0  0
  2  1  1  0  0  0
  1 18  1  0  0  0
 18 19  1  0  0  0
 18 28  1  0  0  0
 28 29  1  0  0  0
 29 30  1  0  0  0
 30 31  1  0  0  0
 31 32  1  0  0  0
 32 33  1  0  0  0
 33 34  1  0  0  0
 19 27  2  0  0  0
 19 20  1  0  0  0
 20 21  1  0  0  0
 21 26  2  0  0  0
 21 22  1  0  0  0
 22 23  2  0  0  0
 23 24  1  0  0  0
 24 25  2  0  0  0
 25 26  1  0  0  0
 26 27  1  0  0  0
 13 15  1  0  0  0
M  END
> <minimizedAffinity>
-8.74949

$$$$
