2DRI_RIP_A_272


 14 14  0  0  0  0  0  0  0  0999 V2000
   50.3037   33.7132   44.2052 C   0  0  0  0  0  0  0  0  0  0  0  0
   49.5594   33.1837   45.4273 C   0  0  0  0  0  0  0  0  0  0  0  0
   49.1615   34.3458   46.3464 C   0  0  0  0  0  0  0  0  0  0  0  0
   50.4123   35.1661   46.6963 C   0  0  0  0  0  0  0  0  0  0  0  0
   51.1116   35.6055   45.4183 C   0  0  0  0  0  0  0  0  0  0  0  0
   50.7329   32.6667   43.3720 O   0  0  0  0  0  0  0  0  0  0  0  0
   48.4075   32.4812   45.0250 O   0  0  0  0  0  0  0  0  0  0  0  0
   48.1965   35.1592   45.6818 O   0  0  0  0  0  0  0  0  0  0  0  0
   50.0769   36.2947   47.4701 O   0  0  0  0  0  0  0  0  0  0  0  0
   51.4376   34.4585   44.6237 O   0  0  0  0  0  0  0  0  0  0  0  0
   51.3463   32.0955   43.8602 H   0  0  0  0  0  0  0  0  0  0  0  0
   47.8175   33.0788   44.5396 H   0  0  0  0  0  0  0  0  0  0  0  0
   48.5765   35.5045   44.8588 H   0  0  0  0  0  0  0  0  0  0  0  0
   49.4794   36.8675   46.9643 H   0  0  0  0  0  0  0  0  0  0  0  0
  1  2  1  0  0  0
  1  6  1  0  0  0
  1 10  1  0  0  0
  2  3  1  0  0  0
  2  7  1  0  0  0
  3  4  1  0  0  0
  3  8  1  0  0  0
  4  5  1  0  0  0
  4  9  1  0  0  0
  5 10  1  0  0  0
  6 11  1  0  0  0
  7 12  1  0  0  0
  8 13  1  0  0  0
  9 14  1  0  0  0
M  END
> <minimizedAffinity>
-7.96878

$$$$
2DRI_RIP_A_272


 14 14  0  0  0  0  0  0  0  0999 V2000
   49.1106   33.1021   45.6155 C   0  0  0  0  0  0  0  0  0  0  0  0
   49.5344   33.7683   44.3099 C   0  0  0  0  0  0  0  0  0  0  0  0
   50.6947   34.7387   44.5659 C   0  0  0  0  0  0  0  0  0  0  0  0
   50.2885   35.7362   45.6613 C   0  0  0  0  0  0  0  0  0  0  0  0
   49.8356   34.9798   46.9014 C   0  0  0  0  0  0  0  0  0  0  0  0
   48.0103   32.2500   45.4237 O   0  0  0  0  0  0  0  0  0  0  0  0
   49.9296   32.7924   43.3752 O   0  0  0  0  0  0  0  0  0  0  0  0
   51.8465   33.9972   44.9633 O   0  0  0  0  0  0  0  0  0  0  0  0
   51.3588   36.5924   45.9877 O   0  0  0  0  0  0  0  0  0  0  0  0
   48.7582   34.0967   46.5656 O   0  0  0  0  0  0  0  0  0  0  0  0
   47.2541   32.7657   45.1024 H   0  0  0  0  0  0  0  0  0  0  0  0
   50.6845   32.2950   43.7268 H   0  0  0  0  0  0  0  0  0  0  0  0
   51.6477   33.4998   45.7720 H   0  0  0  0  0  0  0  0  0  0  0  0
   52.1010   36.0676   46.3261 H   0  0  0  0  0  0  0  0  0  0  0  0
  1  2  1  0  0  0
  1  6  1  0  0  0
  1 10  1  0  0  0
  2  3  1  0  0  0
  2  7  1  0  0  0
  3  4  1  0  0  0
  3  8  1  0  0  0
  4  5  1  0  0  0
  4  9  1  0  0  0
  5 10  1  0  0  0
  6 11  1  0  0  0
  7 12  1  0  0  0
  8 13  1  0  0  0
  9 14  1  0  0  0
M  END
> <minimizedAffinity>
-5.16753

$$$$
2DRI_RIP_A_272


 14 14  0  0  0  0  0  0  0  0999 V2000
   49.4791   33.3178   44.1452 C   0  0  0  0  0  0  0  0  0  0  0  0
   49.2010   33.3382   45.6452 C   0  0  0  0  0  0  0  0  0  0  0  0
   49.6306   34.6844   46.2426 C   0  0  0  0  0  0  0  0  0  0  0  0
   51.1011   34.9505   45.8863 C   0  0  0  0  0  0  0  0  0  0  0  0
   51.2882   34.8596   44.3790 C   0  0  0  0  0  0  0  0  0  0  0  0
   49.1498   32.0752   43.5786 O   0  0  0  0  0  0  0  0  0  0  0  0
   47.8298   33.1285   45.8857 O   0  0  0  0  0  0  0  0  0  0  0  0
   48.7931   35.7157   45.7235 O   0  0  0  0  0  0  0  0  0  0  0  0
   51.5107   36.2186   46.3435 O   0  0  0  0  0  0  0  0  0  0  0  0
   50.8558   33.5758   43.9121 O   0  0  0  0  0  0  0  0  0  0  0  0
   49.6928   31.3810   43.9838 H   0  0  0  0  0  0  0  0  0  0  0  0
   47.3161   33.8370   45.4672 H   0  0  0  0  0  0  0  0  0  0  0  0
   48.8742   35.7424   44.7573 H   0  0  0  0  0  0  0  0  0  0  0  0
   50.9742   36.9049   45.9169 H   0  0  0  0  0  0  0  0  0  0  0  0
  1  2  1  0  0  0
  1  6  1  0  0  0
  1 10  1  0  0  0
  2  3  1  0  0  0
  2  7  1  0  0  0
  3  4  1  0  0  0
  3  8  1  0  0  0
  4  5  1  0  0  0
  4  9  1  0  0  0
  5 10  1  0  0  0
  6 11  1  0  0  0
  7 12  1  0  0  0
  8 13  1  0  0  0
  9 14  1  0  0  0
M  END
> <minimizedAffinity>
-5.02230

$$$$
2DRI_RIP_A_272


 14 14  0  0  0  0  0  0  0  0999 V2000
   51.1341   35.2554   45.7302 C   0  0  0  0  0  0  0  0  0  0  0  0
   49.6830   35.6432   45.4620 C   0  0  0  0  0  0  0  0  0  0  0  0
   48.8291   34.3842   45.2636 C   0  0  0  0  0  0  0  0  0  0  0  0
   49.4497   33.5208   44.1548 C   0  0  0  0  0  0  0  0  0  0  0  0
   50.9059   33.2294   44.4861 C   0  0  0  0  0  0  0  0  0  0  0  0
   51.9534   36.3894   45.8587 O   0  0  0  0  0  0  0  0  0  0  0  0
   49.1764   36.3950   46.5391 O   0  0  0  0  0  0  0  0  0  0  0  0
   48.7703   33.6600   46.4910 O   0  0  0  0  0  0  0  0  0  0  0  0
   48.7432   32.3117   44.0002 O   0  0  0  0  0  0  0  0  0  0  0  0
   51.6204   34.4592   44.6597 O   0  0  0  0  0  0  0  0  0  0  0  0
   51.9366   36.8958   45.0316 H   0  0  0  0  0  0  0  0  0  0  0  0
   49.2085   35.8620   47.3489 H   0  0  0  0  0  0  0  0  0  0  0  0
   49.6675   33.4109   46.7627 H   0  0  0  0  0  0  0  0  0  0  0  0
   48.7837   31.8056   44.8267 H   0  0  0  0  0  0  0  0  0  0  0  0
  1  2  1  0  0  0
  1  6  1  0  0  0
  1 10  1  0  0  0
  2  3  1  0  0  0
  2  7  1  0  0  0
  3  4  1  0  0  0
  3  8  1  0  0  0
  4  5  1  0  0  0
  4  9  1  0  0  0
  5 10  1  0  0  0
  6 11  1  0  0  0
  7 12  1  0  0  0
  8 13  1  0  0  0
  9 14  1  0  0  0
M  END
> <minimizedAffinity>
-4.97076

$$$$
