2OGY_C2F_A_3000


 41 43  0  0  0  0  0  0  0  0999 V2000
   -8.9486   69.4037  116.9314 C   0  0  0  0  0  0  0  0  0  0  0  0
   -8.4901   70.7531  117.0074 C   0  0  0  0  0  0  0  0  0  0  0  0
   -8.5471   71.4572  118.2291 C   0  0  0  0  0  0  0  0  0  0  0  0
   -9.0614   70.8229  119.3885 C   0  0  0  0  0  0  0  0  0  0  0  0
   -9.5232   69.4582  119.3058 C   0  0  0  0  0  0  0  0  0  0  0  0
   -9.4633   68.7580  118.0836 C   0  0  0  0  0  0  0  0  0  0  0  0
   -8.8805   68.6760  115.6238 C   0  0  0  0  0  0  0  0  0  0  0  0
   -9.1879   69.2618  114.5989 O   0  0  0  0  0  0  0  0  0  0  0  0
   -8.4789   67.4003  115.6676 N   0  0  0  0  0  0  0  0  0  0  0  0
   -8.2648   67.0589  116.5658 H   0  0  0  0  0  0  0  0  0  0  0  0
   -8.3115   66.4417  114.5831 C   0  0  0  0  0  0  0  0  0  0  0  0
   -9.6552   66.0755  113.9705 C   0  0  0  0  0  0  0  0  0  0  0  0
  -10.3253   65.1455  114.4751 O   0  0  0  0  0  0  0  0  0  0  0  0
  -10.0657   66.7161  112.9820 O   0  0  0  0  0  0  0  0  0  0  0  0
   -9.5454   67.4077  112.6229 H   0  0  0  0  0  0  0  0  0  0  0  0
   -7.5401   65.1960  115.0672 C   0  0  0  0  0  0  0  0  0  0  0  0
   -6.5060   64.7914  114.0089 C   0  0  0  0  0  0  0  0  0  0  0  0
   -5.2683   65.6883  114.0821 C   0  0  0  0  0  0  0  0  0  0  0  0
   -5.0828   66.4175  113.0653 O   0  0  0  0  0  0  0  0  0  0  0  0
   -4.4950   65.7028  115.0755 O   0  0  0  0  0  0  0  0  0  0  0  0
   -4.6661   65.1475  115.8106 H   0  0  0  0  0  0  0  0  0  0  0  0
   -9.0917   71.5516  120.5460 N   0  0  0  0  0  0  0  0  0  0  0  0
   -8.8574   71.0911  121.3840 H   0  0  0  0  0  0  0  0  0  0  0  0
   -9.4461   72.9593  120.6235 C   0  0  0  0  0  0  0  0  0  0  0  0
  -12.4484   76.3306  121.6575 N   0  0  0  0  0  0  0  0  0  0  0  0
  -11.9069   77.5693  121.8464 C   0  0  0  0  0  0  0  0  0  0  0  0
  -12.5194   78.4206  122.7091 N   0  0  0  0  0  0  0  0  0  0  0  0
  -10.7710   77.9671  121.1925 N   0  0  0  0  0  0  0  0  0  0  0  0
  -10.1051   77.1692  120.3151 C   0  0  0  0  0  0  0  0  0  0  0  0
   -9.0784   77.5705  119.7484 O   0  0  0  0  0  0  0  0  0  0  0  0
  -10.6301   75.7956  120.0469 C   0  0  0  0  0  0  0  0  0  0  0  0
   -9.9860   74.8748  119.1272 N   0  0  0  0  0  0  0  0  0  0  0  0
  -10.3078   73.4352  119.4254 C   0  0  0  0  0  0  0  0  0  0  0  0
  -11.8309   73.1938  119.7239 C   0  0  0  0  0  0  0  0  0  0  0  0
  -12.4228   74.1922  120.6262 N   0  0  0  0  0  0  0  0  0  0  0  0
  -11.8833   75.4248  120.8037 C   0  0  0  0  0  0  0  0  0  0  0  0
  -10.3568   75.2198  117.7353 C   0  0  0  0  0  0  0  0  0  0  0  0
  -13.3361   78.1394  123.1815 H   0  0  0  0  0  0  0  0  0  0  0  0
  -12.1468   79.3189  122.8621 H   0  0  0  0  0  0  0  0  0  0  0  0
  -10.4209   78.8709  121.3653 H   0  0  0  0  0  0  0  0  0  0  0  0
  -13.2414   73.9578  121.1204 H   0  0  0  0  0  0  0  0  0  0  0  0
 25 26  2  0  0  0
 25 36  1  0  0  0
 26 27  1  0  0  0
 26 28  1  0  0  0
 28 29  1  0  0  0
 29 30  2  0  0  0
 29 31  1  0  0  0
 31 32  1  0  0  0
 31 36  2  0  0  0
 32 33  1  0  0  0
 32 37  1  0  0  0
 33 34  1  0  0  0
 33 24  1  0  0  0
 34 35  1  0  0  0
 35 36  1  0  0  0
 24 22  1  0  0  0
 22  4  1  0  0  0
  1  2  2  0  0  0
  1  6  1  0  0  0
  1  7  1  0  0  0
  2  3  1  0  0  0
  3  4  2  0  0  0
  4  5  1  0  0  0
  5  6  2  0  0  0
  7  8  2  0  0  0
  7  9  1  0  0  0
  9 11  1  0  0  0
 11 16  1  0  0  0
 11 12  1  0  0  0
 16 17  1  0  0  0
 17 18  1  0  0  0
 18 19  2  0  0  0
 18 20  1  0  0  0
 12 13  2  0  0  0
 12 14  1  0  0  0
 27 38  1  0  0  0
 27 39  1  0  0  0
 28 40  1  0  0  0
 35 41  1  0  0  0
 22 23  1  0  0  0
  9 10  1  0  0  0
 20 21  1  0  0  0
 14 15  1  0  0  0
M  END
> <minimizedAffinity>
-8.88010

$$$$
2OGY_C2F_A_3000


 41 43  0  0  0  0  0  0  0  0999 V2000
   -8.8737   68.0647  115.9403 C   0  0  0  0  0  0  0  0  0  0  0  0
   -9.0764   67.5738  117.2649 C   0  0  0  0  0  0  0  0  0  0  0  0
   -9.4038   68.4621  118.3115 C   0  0  0  0  0  0  0  0  0  0  0  0
   -9.5331   69.8495  118.0482 C   0  0  0  0  0  0  0  0  0  0  0  0
   -9.3274   70.3401  116.7068 C   0  0  0  0  0  0  0  0  0  0  0  0
   -9.0018   69.4491  115.6638 C   0  0  0  0  0  0  0  0  0  0  0  0
   -8.5252   67.1040  114.8449 C   0  0  0  0  0  0  0  0  0  0  0  0
   -9.0387   67.2403  113.7468 O   0  0  0  0  0  0  0  0  0  0  0  0
   -7.6540   66.1357  115.1512 N   0  0  0  0  0  0  0  0  0  0  0  0
   -7.3226   66.1478  116.0782 H   0  0  0  0  0  0  0  0  0  0  0  0
   -7.1233   65.0659  114.3164 C   0  0  0  0  0  0  0  0  0  0  0  0
   -8.1991   64.0358  114.0056 C   0  0  0  0  0  0  0  0  0  0  0  0
   -8.1034   62.8850  114.4904 O   0  0  0  0  0  0  0  0  0  0  0  0
   -9.1598   64.3624  113.2801 O   0  0  0  0  0  0  0  0  0  0  0  0
   -9.2083   65.2300  112.9295 H   0  0  0  0  0  0  0  0  0  0  0  0
   -5.8826   64.4237  114.9717 C   0  0  0  0  0  0  0  0  0  0  0  0
   -4.6119   64.9864  114.3221 C   0  0  0  0  0  0  0  0  0  0  0  0
   -4.9220   65.6010  112.9555 C   0  0  0  0  0  0  0  0  0  0  0  0
   -5.1955   64.7628  112.0485 O   0  0  0  0  0  0  0  0  0  0  0  0
   -4.9088   66.8426  112.7478 O   0  0  0  0  0  0  0  0  0  0  0  0
   -4.7012   67.4322  113.4458 H   0  0  0  0  0  0  0  0  0  0  0  0
   -9.8536   70.6645  119.0994 N   0  0  0  0  0  0  0  0  0  0  0  0
  -10.2442   70.2469  119.9008 H   0  0  0  0  0  0  0  0  0  0  0  0
   -9.6569   72.1048  119.1142 C   0  0  0  0  0  0  0  0  0  0  0  0
   -9.9683   76.2977  121.0559 N   0  0  0  0  0  0  0  0  0  0  0  0
   -9.1377   77.2518  120.5429 C   0  0  0  0  0  0  0  0  0  0  0  0
   -8.6984   78.2396  121.3646 N   0  0  0  0  0  0  0  0  0  0  0  0
   -8.7414   77.2336  119.2319 N   0  0  0  0  0  0  0  0  0  0  0  0
   -9.1412   76.2768  118.3519 C   0  0  0  0  0  0  0  0  0  0  0  0
   -8.7545   76.2985  117.1745 O   0  0  0  0  0  0  0  0  0  0  0  0
  -10.0540   75.1934  118.8289 C   0  0  0  0  0  0  0  0  0  0  0  0
  -10.5318   74.1311  117.9619 N   0  0  0  0  0  0  0  0  0  0  0  0
  -10.9318   72.8956  118.7225 C   0  0  0  0  0  0  0  0  0  0  0  0
  -11.7884   73.2100  120.0010 C   0  0  0  0  0  0  0  0  0  0  0  0
  -11.2671   74.3264  120.8031 N   0  0  0  0  0  0  0  0  0  0  0  0
  -10.4475   75.2759  120.2846 C   0  0  0  0  0  0  0  0  0  0  0  0
  -11.6569   74.6290  117.1372 C   0  0  0  0  0  0  0  0  0  0  0  0
   -8.9804   78.2572  122.3077 H   0  0  0  0  0  0  0  0  0  0  0  0
   -8.0980   78.9383  121.0173 H   0  0  0  0  0  0  0  0  0  0  0  0
   -8.1404   77.9448  118.9123 H   0  0  0  0  0  0  0  0  0  0  0  0
  -11.5221   74.3876  121.7520 H   0  0  0  0  0  0  0  0  0  0  0  0
 25 26  2  0  0  0
 25 36  1  0  0  0
 26 27  1  0  0  0
 26 28  1  0  0  0
 28 29  1  0  0  0
 29 30  2  0  0  0
 29 31  1  0  0  0
 31 32  1  0  0  0
 31 36  2  0  0  0
 32 33  1  0  0  0
 32 37  1  0  0  0
 33 34  1  0  0  0
 33 24  1  0  0  0
 34 35  1  0  0  0
 35 36  1  0  0  0
 24 22  1  0  0  0
 22  4  1  0  0  0
  1  2  2  0  0  0
  1  6  1  0  0  0
  1  7  1  0  0  0
  2  3  1  0  0  0
  3  4  2  0  0  0
  4  5  1  0  0  0
  5  6  2  0  0  0
  7  8  2  0  0  0
  7  9  1  0  0  0
  9 11  1  0  0  0
 11 16  1  0  0  0
 11 12  1  0  0  0
 16 17  1  0  0  0
 17 18  1  0  0  0
 18 19  2  0  0  0
 18 20  1  0  0  0
 12 13  2  0  0  0
 12 14  1  0  0  0
 27 38  1  0  0  0
 27 39  1  0  0  0
 28 40  1  0  0  0
 35 41  1  0  0  0
 22 23  1  0  0  0
  9 10  1  0  0  0
 20 21  1  0  0  0
 14 15  1  0  0  0
M  END
> <minimizedAffinity>
-8.74978

$$$$
2OGY_C2F_A_3000


 41 43  0  0  0  0  0  0  0  0999 V2000
   -9.0408   69.0242  116.4553 C   0  0  0  0  0  0  0  0  0  0  0  0
   -8.8927   70.4404  116.3590 C   0  0  0  0  0  0  0  0  0  0  0  0
   -8.9843   71.2465  117.5138 C   0  0  0  0  0  0  0  0  0  0  0  0
   -9.2241   70.6487  118.7772 C   0  0  0  0  0  0  0  0  0  0  0  0
   -9.3726   69.2162  118.8685 C   0  0  0  0  0  0  0  0  0  0  0  0
   -9.2790   68.4146  117.7126 C   0  0  0  0  0  0  0  0  0  0  0  0
   -8.9415   68.1881  115.2162 C   0  0  0  0  0  0  0  0  0  0  0  0
   -9.0795   68.7187  114.1266 O   0  0  0  0  0  0  0  0  0  0  0  0
   -8.7041   66.8829  115.3910 N   0  0  0  0  0  0  0  0  0  0  0  0
   -8.6170   66.5944  116.3282 H   0  0  0  0  0  0  0  0  0  0  0  0
   -8.5555   65.8253  114.3998 C   0  0  0  0  0  0  0  0  0  0  0  0
   -9.8998   65.1884  114.0803 C   0  0  0  0  0  0  0  0  0  0  0  0
   -9.9948   64.4195  113.0963 O   0  0  0  0  0  0  0  0  0  0  0  0
  -10.8787   65.4392  114.8116 O   0  0  0  0  0  0  0  0  0  0  0  0
  -10.7817   66.0180  115.5421 H   0  0  0  0  0  0  0  0  0  0  0  0
   -7.5188   64.7809  114.8642 C   0  0  0  0  0  0  0  0  0  0  0  0
   -6.4152   64.6503  113.8068 C   0  0  0  0  0  0  0  0  0  0  0  0
   -5.3009   65.6705  114.0498 C   0  0  0  0  0  0  0  0  0  0  0  0
   -5.1306   66.5012  113.1111 O   0  0  0  0  0  0  0  0  0  0  0  0
   -4.6080   65.6856  115.1008 O   0  0  0  0  0  0  0  0  0  0  0  0
   -4.7644   65.0531  115.7742 H   0  0  0  0  0  0  0  0  0  0  0  0
   -9.3019   71.4774  119.8632 N   0  0  0  0  0  0  0  0  0  0  0  0
   -9.5775   71.0829  120.7220 H   0  0  0  0  0  0  0  0  0  0  0  0
   -9.0055   72.9003  119.8358 C   0  0  0  0  0  0  0  0  0  0  0  0
   -8.3659   77.2588  118.4069 N   0  0  0  0  0  0  0  0  0  0  0  0
   -8.2388   77.4281  117.0585 C   0  0  0  0  0  0  0  0  0  0  0  0
   -7.4706   78.4508  116.6023 N   0  0  0  0  0  0  0  0  0  0  0  0
   -8.8616   76.5968  116.1655 N   0  0  0  0  0  0  0  0  0  0  0  0
   -9.6455   75.5538  116.5492 C   0  0  0  0  0  0  0  0  0  0  0  0
  -10.1872   74.8253  115.7052 O   0  0  0  0  0  0  0  0  0  0  0  0
   -9.8411   75.2964  118.0086 C   0  0  0  0  0  0  0  0  0  0  0  0
  -10.6596   74.2071  118.5108 N   0  0  0  0  0  0  0  0  0  0  0  0
  -10.2760   73.7864  119.9040 C   0  0  0  0  0  0  0  0  0  0  0  0
  -10.0378   75.0015  120.8704 C   0  0  0  0  0  0  0  0  0  0  0  0
   -9.2396   76.0834  120.2756 N   0  0  0  0  0  0  0  0  0  0  0  0
   -9.1236   76.2503  118.9337 C   0  0  0  0  0  0  0  0  0  0  0  0
  -12.0893   74.5893  118.4510 C   0  0  0  0  0  0  0  0  0  0  0  0
   -7.0209   79.0510  117.2401 H   0  0  0  0  0  0  0  0  0  0  0  0
   -7.3635   78.5921  115.6339 H   0  0  0  0  0  0  0  0  0  0  0  0
   -8.7363   76.7619  115.2031 H   0  0  0  0  0  0  0  0  0  0  0  0
   -8.7717   76.7104  120.8732 H   0  0  0  0  0  0  0  0  0  0  0  0
 25 26  2  0  0  0
 25 36  1  0  0  0
 26 27  1  0  0  0
 26 28  1  0  0  0
 28 29  1  0  0  0
 29 30  2  0  0  0
 29 31  1  0  0  0
 31 32  1  0  0  0
 31 36  2  0  0  0
 32 33  1  0  0  0
 32 37  1  0  0  0
 33 34  1  0  0  0
 33 24  1  0  0  0
 34 35  1  0  0  0
 35 36  1  0  0  0
 24 22  1  0  0  0
 22  4  1  0  0  0
  1  2  2  0  0  0
  1  6  1  0  0  0
  1  7  1  0  0  0
  2  3  1  0  0  0
  3  4  2  0  0  0
  4  5  1  0  0  0
  5  6  2  0  0  0
  7  8  2  0  0  0
  7  9  1  0  0  0
  9 11  1  0  0  0
 11 16  1  0  0  0
 11 12  1  0  0  0
 16 17  1  0  0  0
 17 18  1  0  0  0
 18 19  2  0  0  0
 18 20  1  0  0  0
 12 13  2  0  0  0
 12 14  1  0  0  0
 27 38  1  0  0  0
 27 39  1  0  0  0
 28 40  1  0  0  0
 35 41  1  0  0  0
 22 23  1  0  0  0
  9 10  1  0  0  0
 20 21  1  0  0  0
 14 15  1  0  0  0
M  END
> <minimizedAffinity>
-8.68637

$$$$
2OGY_C2F_A_3000


 41 43  0  0  0  0  0  0  0  0999 V2000
   -9.0749   73.6496  117.0319 C   0  0  0  0  0  0  0  0  0  0  0  0
   -8.8729   74.1096  118.3678 C   0  0  0  0  0  0  0  0  0  0  0  0
   -9.2972   75.4005  118.7485 C   0  0  0  0  0  0  0  0  0  0  0  0
   -9.9281   76.2465  117.8012 C   0  0  0  0  0  0  0  0  0  0  0  0
  -10.1301   75.7758  116.4521 C   0  0  0  0  0  0  0  0  0  0  0  0
   -9.7058   74.4849  116.0762 C   0  0  0  0  0  0  0  0  0  0  0  0
   -8.6149   72.2762  116.6492 C   0  0  0  0  0  0  0  0  0  0  0  0
   -7.5726   72.1481  116.0287 O   0  0  0  0  0  0  0  0  0  0  0  0
   -9.3975   71.2564  117.0207 N   0  0  0  0  0  0  0  0  0  0  0  0
  -10.2101   71.5101  117.5153 H   0  0  0  0  0  0  0  0  0  0  0  0
   -9.2255   69.8262  116.8019 C   0  0  0  0  0  0  0  0  0  0  0  0
  -10.0748   69.3502  115.6326 C   0  0  0  0  0  0  0  0  0  0  0  0
  -10.8086   70.1704  115.0348 O   0  0  0  0  0  0  0  0  0  0  0  0
  -10.0157   68.1528  115.2880 O   0  0  0  0  0  0  0  0  0  0  0  0
   -9.4587   67.5588  115.7516 H   0  0  0  0  0  0  0  0  0  0  0  0
   -9.5254   69.0345  118.0919 C   0  0  0  0  0  0  0  0  0  0  0  0
   -8.6589   69.5745  119.2368 C   0  0  0  0  0  0  0  0  0  0  0  0
   -9.5269   70.1871  120.3381 C   0  0  0  0  0  0  0  0  0  0  0  0
  -10.3933   71.0136  119.9303 O   0  0  0  0  0  0  0  0  0  0  0  0
   -9.3929   69.8920  121.5547 O   0  0  0  0  0  0  0  0  0  0  0  0
   -8.7390   69.2747  121.8178 H   0  0  0  0  0  0  0  0  0  0  0  0
  -10.3206   77.4868  118.2250 N   0  0  0  0  0  0  0  0  0  0  0  0
  -10.1625   78.2487  117.6219 H   0  0  0  0  0  0  0  0  0  0  0  0
  -10.9550   77.7568  119.5048 C   0  0  0  0  0  0  0  0  0  0  0  0
  -13.5378   78.9314  123.1650 N   0  0  0  0  0  0  0  0  0  0  0  0
  -14.4485   79.9260  122.9534 C   0  0  0  0  0  0  0  0  0  0  0  0
  -14.7764   80.7373  123.9919 N   0  0  0  0  0  0  0  0  0  0  0  0
  -15.0312   80.1216  121.7294 N   0  0  0  0  0  0  0  0  0  0  0  0
  -14.7519   79.3490  120.6456 C   0  0  0  0  0  0  0  0  0  0  0  0
  -15.3015   79.5650  119.5558 O   0  0  0  0  0  0  0  0  0  0  0  0
  -13.7662   78.2343  120.7884 C   0  0  0  0  0  0  0  0  0  0  0  0
  -13.4061   77.3589  119.6873 N   0  0  0  0  0  0  0  0  0  0  0  0
  -12.0534   76.7243  119.8677 C   0  0  0  0  0  0  0  0  0  0  0  0
  -11.8205   76.1734  121.3200 C   0  0  0  0  0  0  0  0  0  0  0  0
  -12.2513   77.0970  122.3797 N   0  0  0  0  0  0  0  0  0  0  0  0
  -13.1629   78.0791  122.1642 C   0  0  0  0  0  0  0  0  0  0  0  0
  -14.4527   76.3261  119.5089 C   0  0  0  0  0  0  0  0  0  0  0  0
  -14.3603   80.6008  124.8736 H   0  0  0  0  0  0  0  0  0  0  0  0
  -15.4301   81.4620  123.8629 H   0  0  0  0  0  0  0  0  0  0  0  0
  -15.6812   80.8543  121.6297 H   0  0  0  0  0  0  0  0  0  0  0  0
  -11.8639   76.9993  123.2795 H   0  0  0  0  0  0  0  0  0  0  0  0
 25 26  2  0  0  0
 25 36  1  0  0  0
 26 27  1  0  0  0
 26 28  1  0  0  0
 28 29  1  0  0  0
 29 30  2  0  0  0
 29 31  1  0  0  0
 31 32  1  0  0  0
 31 36  2  0  0  0
 32 33  1  0  0  0
 32 37  1  0  0  0
 33 34  1  0  0  0
 33 24  1  0  0  0
 34 35  1  0  0  0
 35 36  1  0  0  0
 24 22  1  0  0  0
 22  4  1  0  0  0
  1  2  2  0  0  0
  1  6  1  0  0  0
  1  7  1  0  0  0
  2  3  1  0  0  0
  3  4  2  0  0  0
  4  5  1  0  0  0
  5  6  2  0  0  0
  7  8  2  0  0  0
  7  9  1  0  0  0
  9 11  1  0  0  0
 11 16  1  0  0  0
 11 12  1  0  0  0
 16 17  1  0  0  0
 17 18  1  0  0  0
 18 19  2  0  0  0
 18 20  1  0  0  0
 12 13  2  0  0  0
 12 14  1  0  0  0
 27 38  1  0  0  0
 27 39  1  0  0  0
 28 40  1  0  0  0
 35 41  1  0  0  0
 22 23  1  0  0  0
  9 10  1  0  0  0
 20 21  1  0  0  0
 14 15  1  0  0  0
M  END
> <minimizedAffinity>
-8.52670

$$$$
2OGY_C2F_A_3000


 41 43  0  0  0  0  0  0  0  0999 V2000
   -9.0154   69.7606  116.5865 C   0  0  0  0  0  0  0  0  0  0  0  0
   -8.5805   70.4966  117.7293 C   0  0  0  0  0  0  0  0  0  0  0  0
   -8.5305   71.9064  117.6919 C   0  0  0  0  0  0  0  0  0  0  0  0
   -8.9141   72.5975  116.5146 C   0  0  0  0  0  0  0  0  0  0  0  0
   -9.3534   71.8481  115.3623 C   0  0  0  0  0  0  0  0  0  0  0  0
   -9.4032   70.4398  115.4043 C   0  0  0  0  0  0  0  0  0  0  0  0
   -9.0591   68.2644  116.6478 C   0  0  0  0  0  0  0  0  0  0  0  0
   -9.2996   67.7183  117.7116 O   0  0  0  0  0  0  0  0  0  0  0  0
   -8.8238   67.6103  115.5044 N   0  0  0  0  0  0  0  0  0  0  0  0
   -8.6422   68.1822  114.7239 H   0  0  0  0  0  0  0  0  0  0  0  0
   -8.7967   66.1771  115.2432 C   0  0  0  0  0  0  0  0  0  0  0  0
   -7.5705   65.7977  114.4261 C   0  0  0  0  0  0  0  0  0  0  0  0
   -7.5968   64.7574  113.7293 O   0  0  0  0  0  0  0  0  0  0  0  0
   -6.5663   66.5368  114.4609 O   0  0  0  0  0  0  0  0  0  0  0  0
   -6.5716   67.3099  114.9903 H   0  0  0  0  0  0  0  0  0  0  0  0
  -10.1051   65.7187  114.5658 C   0  0  0  0  0  0  0  0  0  0  0  0
  -10.4809   66.7089  113.4561 C   0  0  0  0  0  0  0  0  0  0  0  0
  -11.9968   66.9079  113.3905 C   0  0  0  0  0  0  0  0  0  0  0  0
  -12.6762   65.8547  113.5613 O   0  0  0  0  0  0  0  0  0  0  0  0
  -12.5285   68.0304  113.1850 O   0  0  0  0  0  0  0  0  0  0  0  0
  -11.9910   68.7882  113.0631 H   0  0  0  0  0  0  0  0  0  0  0  0
   -8.8476   73.9640  116.5345 N   0  0  0  0  0  0  0  0  0  0  0  0
   -7.9671   74.3780  116.6843 H   0  0  0  0  0  0  0  0  0  0  0  0
   -9.9880   74.8465  116.3498 C   0  0  0  0  0  0  0  0  0  0  0  0
  -11.4781   77.9475  119.4500 N   0  0  0  0  0  0  0  0  0  0  0  0
  -10.8227   77.9508  120.6474 C   0  0  0  0  0  0  0  0  0  0  0  0
  -11.5090   78.3130  121.7618 N   0  0  0  0  0  0  0  0  0  0  0  0
   -9.5027   77.5993  120.7479 N   0  0  0  0  0  0  0  0  0  0  0  0
   -8.7532   77.2265  119.6760 C   0  0  0  0  0  0  0  0  0  0  0  0
   -7.5620   76.9133  119.8149 O   0  0  0  0  0  0  0  0  0  0  0  0
   -9.3911   77.1966  118.3245 C   0  0  0  0  0  0  0  0  0  0  0  0
   -8.6698   76.8117  117.1244 N   0  0  0  0  0  0  0  0  0  0  0  0
   -9.5793   76.3089  116.0358 C   0  0  0  0  0  0  0  0  0  0  0  0
  -10.8587   77.1992  115.8422 C   0  0  0  0  0  0  0  0  0  0  0  0
  -11.5073   77.5858  117.1036 N   0  0  0  0  0  0  0  0  0  0  0  0
  -10.8476   77.5940  118.2897 C   0  0  0  0  0  0  0  0  0  0  0  0
   -7.8553   77.9521  116.6451 C   0  0  0  0  0  0  0  0  0  0  0  0
  -12.4580   78.5665  121.6948 H   0  0  0  0  0  0  0  0  0  0  0  0
  -11.0576   78.3222  122.6366 H   0  0  0  0  0  0  0  0  0  0  0  0
   -9.0775   77.6174  121.6356 H   0  0  0  0  0  0  0  0  0  0  0  0
  -12.4560   77.8487  117.0874 H   0  0  0  0  0  0  0  0  0  0  0  0
 25 26  2  0  0  0
 25 36  1  0  0  0
 26 27  1  0  0  0
 26 28  1  0  0  0
 28 29  1  0  0  0
 29 30  2  0  0  0
 29 31  1  0  0  0
 31 32  1  0  0  0
 31 36  2  0  0  0
 32 33  1  0  0  0
 32 37  1  0  0  0
 33 34  1  0  0  0
 33 24  1  0  0  0
 34 35  1  0  0  0
 35 36  1  0  0  0
 24 22  1  0  0  0
 22  4  1  0  0  0
  1  2  2  0  0  0
  1  6  1  0  0  0
  1  7  1  0  0  0
  2  3  1  0  0  0
  3  4  2  0  0  0
  4  5  1  0  0  0
  5  6  2  0  0  0
  7  8  2  0  0  0
  7  9  1  0  0  0
  9 11  1  0  0  0
 11 16  1  0  0  0
 11 12  1  0  0  0
 16 17  1  0  0  0
 17 18  1  0  0  0
 18 19  2  0  0  0
 18 20  1  0  0  0
 12 13  2  0  0  0
 12 14  1  0  0  0
 27 38  1  0  0  0
 27 39  1  0  0  0
 28 40  1  0  0  0
 35 41  1  0  0  0
 22 23  1  0  0  0
  9 10  1  0  0  0
 20 21  1  0  0  0
 14 15  1  0  0  0
M  END
> <minimizedAffinity>
-8.39797

$$$$
2OGY_C2F_A_3000


 41 43  0  0  0  0  0  0  0  0999 V2000
   -8.9768   68.0753  116.0887 C   0  0  0  0  0  0  0  0  0  0  0  0
   -9.1737   67.6832  117.4468 C   0  0  0  0  0  0  0  0  0  0  0  0
   -9.5400   68.6391  118.4182 C   0  0  0  0  0  0  0  0  0  0  0  0
   -9.7145   69.9962  118.0456 C   0  0  0  0  0  0  0  0  0  0  0  0
   -9.5144   70.3867  116.6709 C   0  0  0  0  0  0  0  0  0  0  0  0
   -9.1498   69.4284  115.7033 C   0  0  0  0  0  0  0  0  0  0  0  0
   -8.5865   67.0442  115.0744 C   0  0  0  0  0  0  0  0  0  0  0  0
   -8.9320   67.1893  113.9136 O   0  0  0  0  0  0  0  0  0  0  0  0
   -7.8689   66.0064  115.5199 N   0  0  0  0  0  0  0  0  0  0  0  0
   -7.6646   66.0205  116.4828 H   0  0  0  0  0  0  0  0  0  0  0  0
   -7.3450   64.8586  114.7911 C   0  0  0  0  0  0  0  0  0  0  0  0
   -6.1048   65.2403  113.9967 C   0  0  0  0  0  0  0  0  0  0  0  0
   -5.9661   64.8045  112.8308 O   0  0  0  0  0  0  0  0  0  0  0  0
   -5.2548   65.9876  114.5214 O   0  0  0  0  0  0  0  0  0  0  0  0
   -5.3818   66.3003  115.3954 H   0  0  0  0  0  0  0  0  0  0  0  0
   -8.4348   64.2351  113.8940 C   0  0  0  0  0  0  0  0  0  0  0  0
   -8.3638   62.7058  113.9905 C   0  0  0  0  0  0  0  0  0  0  0  0
   -7.9393   62.0922  112.6545 C   0  0  0  0  0  0  0  0  0  0  0  0
   -7.7475   60.8423  112.6839 O   0  0  0  0  0  0  0  0  0  0  0  0
   -7.7938   62.7748  111.6067 O   0  0  0  0  0  0  0  0  0  0  0  0
   -7.9454   63.6993  111.6250 H   0  0  0  0  0  0  0  0  0  0  0  0
  -10.0714   70.8796  119.0275 N   0  0  0  0  0  0  0  0  0  0  0  0
  -10.5489   70.5249  119.8120 H   0  0  0  0  0  0  0  0  0  0  0  0
   -9.7939   72.3062  118.9920 C   0  0  0  0  0  0  0  0  0  0  0  0
   -9.8729   76.4260  121.1060 N   0  0  0  0  0  0  0  0  0  0  0  0
   -9.0223   77.3672  120.6023 C   0  0  0  0  0  0  0  0  0  0  0  0
   -8.5169   78.3032  121.4464 N   0  0  0  0  0  0  0  0  0  0  0  0
   -8.6707   77.3868  119.2786 N   0  0  0  0  0  0  0  0  0  0  0  0
   -9.1373   76.4826  118.3763 C   0  0  0  0  0  0  0  0  0  0  0  0
   -8.7892   76.5370  117.1879 O   0  0  0  0  0  0  0  0  0  0  0  0
  -10.0764   75.4168  118.8418 C   0  0  0  0  0  0  0  0  0  0  0  0
  -10.6248   74.4098  117.9509 N   0  0  0  0  0  0  0  0  0  0  0  0
  -11.0485   73.1609  118.6760 C   0  0  0  0  0  0  0  0  0  0  0  0
  -11.8490   73.4562  119.9948 C   0  0  0  0  0  0  0  0  0  0  0  0
  -11.2572   74.5181  120.8214 N   0  0  0  0  0  0  0  0  0  0  0  0
  -10.4179   75.4555  120.3124 C   0  0  0  0  0  0  0  0  0  0  0  0
  -11.7558   74.9838  117.1859 C   0  0  0  0  0  0  0  0  0  0  0  0
   -8.7665   78.2934  122.3986 H   0  0  0  0  0  0  0  0  0  0  0  0
   -7.9008   78.9916  121.1060 H   0  0  0  0  0  0  0  0  0  0  0  0
   -8.0526   78.0866  118.9665 H   0  0  0  0  0  0  0  0  0  0  0  0
  -11.4780   74.5506  121.7802 H   0  0  0  0  0  0  0  0  0  0  0  0
 25 26  2  0  0  0
 25 36  1  0  0  0
 26 27  1  0  0  0
 26 28  1  0  0  0
 28 29  1  0  0  0
 29 30  2  0  0  0
 29 31  1  0  0  0
 31 32  1  0  0  0
 31 36  2  0  0  0
 32 33  1  0  0  0
 32 37  1  0  0  0
 33 34  1  0  0  0
 33 24  1  0  0  0
 34 35  1  0  0  0
 35 36  1  0  0  0
 24 22  1  0  0  0
 22  4  1  0  0  0
  1  2  2  0  0  0
  1  6  1  0  0  0
  1  7  1  0  0  0
  2  3  1  0  0  0
  3  4  2  0  0  0
  4  5  1  0  0  0
  5  6  2  0  0  0
  7  8  2  0  0  0
  7  9  1  0  0  0
  9 11  1  0  0  0
 11 16  1  0  0  0
 11 12  1  0  0  0
 16 17  1  0  0  0
 17 18  1  0  0  0
 18 19  2  0  0  0
 18 20  1  0  0  0
 12 13  2  0  0  0
 12 14  1  0  0  0
 27 38  1  0  0  0
 27 39  1  0  0  0
 28 40  1  0  0  0
 35 41  1  0  0  0
 22 23  1  0  0  0
  9 10  1  0  0  0
 20 21  1  0  0  0
 14 15  1  0  0  0
M  END
> <minimizedAffinity>
-8.36697

$$$$
2OGY_C2F_A_3000


 41 43  0  0  0  0  0  0  0  0999 V2000
  -11.0331   74.6648  120.4949 C   0  0  0  0  0  0  0  0  0  0  0  0
  -11.8665   73.6244  119.9853 C   0  0  0  0  0  0  0  0  0  0  0  0
  -11.3567   72.3186  119.8225 C   0  0  0  0  0  0  0  0  0  0  0  0
  -10.0103   72.0362  120.1666 C   0  0  0  0  0  0  0  0  0  0  0  0
   -9.1724   73.0921  120.6818 C   0  0  0  0  0  0  0  0  0  0  0  0
   -9.6861   74.3949  120.8441 C   0  0  0  0  0  0  0  0  0  0  0  0
  -11.5946   76.0441  120.6579 C   0  0  0  0  0  0  0  0  0  0  0  0
  -10.9224   77.0049  120.3219 O   0  0  0  0  0  0  0  0  0  0  0  0
  -12.8254   76.1332  121.1753 N   0  0  0  0  0  0  0  0  0  0  0  0
  -13.2481   75.2734  121.4021 H   0  0  0  0  0  0  0  0  0  0  0  0
  -13.6328   77.3139  121.4529 C   0  0  0  0  0  0  0  0  0  0  0  0
  -13.5123   77.7224  122.9136 C   0  0  0  0  0  0  0  0  0  0  0  0
  -14.4204   77.4044  123.7153 O   0  0  0  0  0  0  0  0  0  0  0  0
  -12.5057   78.3592  123.2840 O   0  0  0  0  0  0  0  0  0  0  0  0
  -11.8401   78.5851  122.6645 H   0  0  0  0  0  0  0  0  0  0  0  0
  -15.1011   77.0835  121.0381 C   0  0  0  0  0  0  0  0  0  0  0  0
  -15.2874   75.6238  120.6048 C   0  0  0  0  0  0  0  0  0  0  0  0
  -15.8934   74.7902  121.7360 C   0  0  0  0  0  0  0  0  0  0  0  0
  -16.9380   74.1504  121.4202 O   0  0  0  0  0  0  0  0  0  0  0  0
  -15.3930   74.7414  122.8902 O   0  0  0  0  0  0  0  0  0  0  0  0
  -14.6177   75.2300  123.0857 H   0  0  0  0  0  0  0  0  0  0  0  0
   -9.5693   70.7531  119.9901 N   0  0  0  0  0  0  0  0  0  0  0  0
   -9.0216   70.3541  120.7044 H   0  0  0  0  0  0  0  0  0  0  0  0
   -9.8538   69.9384  118.8202 C   0  0  0  0  0  0  0  0  0  0  0  0
  -11.3732   71.9061  114.9128 N   0  0  0  0  0  0  0  0  0  0  0  0
  -11.5770   73.2546  114.9684 C   0  0  0  0  0  0  0  0  0  0  0  0
  -12.5437   73.7977  114.1844 N   0  0  0  0  0  0  0  0  0  0  0  0
  -10.8362   74.0625  115.7898 N   0  0  0  0  0  0  0  0  0  0  0  0
   -9.8527   73.5893  116.6012 C   0  0  0  0  0  0  0  0  0  0  0  0
   -9.2097   74.3578  117.3308 O   0  0  0  0  0  0  0  0  0  0  0  0
   -9.5608   72.1233  116.6023 C   0  0  0  0  0  0  0  0  0  0  0  0
   -8.5304   71.5286  117.4348 N   0  0  0  0  0  0  0  0  0  0  0  0
   -8.7771   70.0702  117.7122 C   0  0  0  0  0  0  0  0  0  0  0  0
   -9.2124   69.2656  116.4354 C   0  0  0  0  0  0  0  0  0  0  0  0
  -10.2248   69.9520  115.6197 N   0  0  0  0  0  0  0  0  0  0  0  0
  -10.4170   71.2945  115.6746 C   0  0  0  0  0  0  0  0  0  0  0  0
   -7.2045   71.7280  116.8055 C   0  0  0  0  0  0  0  0  0  0  0  0
  -13.0788   73.2213  113.5923 H   0  0  0  0  0  0  0  0  0  0  0  0
  -12.7093   74.7679  114.2082 H   0  0  0  0  0  0  0  0  0  0  0  0
  -11.0242   75.0289  115.7930 H   0  0  0  0  0  0  0  0  0  0  0  0
  -10.7843   69.4178  115.0108 H   0  0  0  0  0  0  0  0  0  0  0  0
 25 26  2  0  0  0
 25 36  1  0  0  0
 26 27  1  0  0  0
 26 28  1  0  0  0
 28 29  1  0  0  0
 29 30  2  0  0  0
 29 31  1  0  0  0
 31 32  1  0  0  0
 31 36  2  0  0  0
 32 33  1  0  0  0
 32 37  1  0  0  0
 33 34  1  0  0  0
 33 24  1  0  0  0
 34 35  1  0  0  0
 35 36  1  0  0  0
 24 22  1  0  0  0
 22  4  1  0  0  0
  1  2  2  0  0  0
  1  6  1  0  0  0
  1  7  1  0  0  0
  2  3  1  0  0  0
  3  4  2  0  0  0
  4  5  1  0  0  0
  5  6  2  0  0  0
  7  8  2  0  0  0
  7  9  1  0  0  0
  9 11  1  0  0  0
 11 16  1  0  0  0
 11 12  1  0  0  0
 16 17  1  0  0  0
 17 18  1  0  0  0
 18 19  2  0  0  0
 18 20  1  0  0  0
 12 13  2  0  0  0
 12 14  1  0  0  0
 27 38  1  0  0  0
 27 39  1  0  0  0
 28 40  1  0  0  0
 35 41  1  0  0  0
 22 23  1  0  0  0
  9 10  1  0  0  0
 20 21  1  0  0  0
 14 15  1  0  0  0
M  END
> <minimizedAffinity>
-8.26065

$$$$
2OGY_C2F_A_3000


 41 43  0  0  0  0  0  0  0  0999 V2000
  -10.5158   72.1828  116.3540 C   0  0  0  0  0  0  0  0  0  0  0  0
  -10.0261   72.3857  117.6791 C   0  0  0  0  0  0  0  0  0  0  0  0
  -10.6479   73.3218  118.5328 C   0  0  0  0  0  0  0  0  0  0  0  0
  -11.7650   74.0653  118.0743 C   0  0  0  0  0  0  0  0  0  0  0  0
  -12.2560   73.8556  116.7336 C   0  0  0  0  0  0  0  0  0  0  0  0
  -11.6327   72.9185  115.8845 C   0  0  0  0  0  0  0  0  0  0  0  0
   -9.8393   71.1853  115.4644 C   0  0  0  0  0  0  0  0  0  0  0  0
   -9.3801   71.5542  114.3962 O   0  0  0  0  0  0  0  0  0  0  0  0
   -9.7836   69.9249  115.9102 N   0  0  0  0  0  0  0  0  0  0  0  0
  -10.1980   69.7728  116.7902 H   0  0  0  0  0  0  0  0  0  0  0  0
   -9.2007   68.7441  115.2864 C   0  0  0  0  0  0  0  0  0  0  0  0
  -10.1562   68.1414  114.2672 C   0  0  0  0  0  0  0  0  0  0  0  0
  -11.3628   68.4764  114.2860 O   0  0  0  0  0  0  0  0  0  0  0  0
   -9.7151   67.3313  113.4274 O   0  0  0  0  0  0  0  0  0  0  0  0
   -8.8079   67.0968  113.4343 H   0  0  0  0  0  0  0  0  0  0  0  0
   -8.7727   67.7153  116.3538 C   0  0  0  0  0  0  0  0  0  0  0  0
   -9.7591   67.7556  117.5279 C   0  0  0  0  0  0  0  0  0  0  0  0
   -9.2651   68.7003  118.6256 C   0  0  0  0  0  0  0  0  0  0  0  0
   -9.8516   68.5700  119.7388 O   0  0  0  0  0  0  0  0  0  0  0  0
   -8.3462   69.5405  118.4391 O   0  0  0  0  0  0  0  0  0  0  0  0
   -7.9356   69.6070  117.5995 H   0  0  0  0  0  0  0  0  0  0  0  0
  -12.3297   74.9577  118.9443 N   0  0  0  0  0  0  0  0  0  0  0  0
  -13.2852   75.1662  118.8312 H   0  0  0  0  0  0  0  0  0  0  0  0
  -11.6156   75.6190  120.0241 C   0  0  0  0  0  0  0  0  0  0  0  0
   -8.2628   77.5859  117.5066 N   0  0  0  0  0  0  0  0  0  0  0  0
   -8.3784   77.4472  116.1536 C   0  0  0  0  0  0  0  0  0  0  0  0
   -7.2453   77.4067  115.4063 N   0  0  0  0  0  0  0  0  0  0  0  0
   -9.5993   77.3480  115.5406 N   0  0  0  0  0  0  0  0  0  0  0  0
  -10.7746   77.3812  116.2241 C   0  0  0  0  0  0  0  0  0  0  0  0
  -11.8567   77.2847  115.6273 O   0  0  0  0  0  0  0  0  0  0  0  0
  -10.7410   77.5328  117.7108 C   0  0  0  0  0  0  0  0  0  0  0  0
  -11.9442   77.5779  118.5226 N   0  0  0  0  0  0  0  0  0  0  0  0
  -11.6986   77.1655  119.9491 C   0  0  0  0  0  0  0  0  0  0  0  0
  -10.4027   77.8079  120.5613 C   0  0  0  0  0  0  0  0  0  0  0  0
   -9.2395   77.7648  119.6633 N   0  0  0  0  0  0  0  0  0  0  0  0
   -9.3620   77.6342  118.3179 C   0  0  0  0  0  0  0  0  0  0  0  0
  -12.5364   78.9341  118.4611 C   0  0  0  0  0  0  0  0  0  0  0  0
   -6.3654   77.4776  115.8421 H   0  0  0  0  0  0  0  0  0  0  0  0
   -7.3038   77.3064  114.4286 H   0  0  0  0  0  0  0  0  0  0  0  0
   -9.6273   77.2482  114.5616 H   0  0  0  0  0  0  0  0  0  0  0  0
   -8.3377   77.8332  120.0524 H   0  0  0  0  0  0  0  0  0  0  0  0
 25 26  2  0  0  0
 25 36  1  0  0  0
 26 27  1  0  0  0
 26 28  1  0  0  0
 28 29  1  0  0  0
 29 30  2  0  0  0
 29 31  1  0  0  0
 31 32  1  0  0  0
 31 36  2  0  0  0
 32 33  1  0  0  0
 32 37  1  0  0  0
 33 34  1  0  0  0
 33 24  1  0  0  0
 34 35  1  0  0  0
 35 36  1  0  0  0
 24 22  1  0  0  0
 22  4  1  0  0  0
  1  2  2  0  0  0
  1  6  1  0  0  0
  1  7  1  0  0  0
  2  3  1  0  0  0
  3  4  2  0  0  0
  4  5  1  0  0  0
  5  6  2  0  0  0
  7  8  2  0  0  0
  7  9  1  0  0  0
  9 11  1  0  0  0
 11 16  1  0  0  0
 11 12  1  0  0  0
 16 17  1  0  0  0
 17 18  1  0  0  0
 18 19  2  0  0  0
 18 20  1  0  0  0
 12 13  2  0  0  0
 12 14  1  0  0  0
 27 38  1  0  0  0
 27 39  1  0  0  0
 28 40  1  0  0  0
 35 41  1  0  0  0
 22 23  1  0  0  0
  9 10  1  0  0  0
 20 21  1  0  0  0
 14 15  1  0  0  0
M  END
> <minimizedAffinity>
-8.03091

$$$$
2OGY_C2F_A_3000


 41 43  0  0  0  0  0  0  0  0999 V2000
   -9.2807   67.9974  115.7327 C   0  0  0  0  0  0  0  0  0  0  0  0
   -9.3155   67.5529  117.0884 C   0  0  0  0  0  0  0  0  0  0  0  0
   -9.2988   68.4879  118.1453 C   0  0  0  0  0  0  0  0  0  0  0  0
   -9.2479   69.8764  117.8615 C   0  0  0  0  0  0  0  0  0  0  0  0
   -9.2134   70.3199  116.4887 C   0  0  0  0  0  0  0  0  0  0  0  0
   -9.2315   69.3825  115.4359 C   0  0  0  0  0  0  0  0  0  0  0  0
   -9.2974   66.9872  114.6265 C   0  0  0  0  0  0  0  0  0  0  0  0
   -8.2484   66.6767  114.0871 O   0  0  0  0  0  0  0  0  0  0  0  0
  -10.4908   66.4814  114.2943 N   0  0  0  0  0  0  0  0  0  0  0  0
  -11.2520   66.8265  114.8147 H   0  0  0  0  0  0  0  0  0  0  0  0
  -10.8309   65.4958  113.2764 C   0  0  0  0  0  0  0  0  0  0  0  0
  -12.1593   65.8342  112.6160 C   0  0  0  0  0  0  0  0  0  0  0  0
  -13.2117   65.3192  113.0582 O   0  0  0  0  0  0  0  0  0  0  0  0
  -12.1729   66.6254  111.6518 O   0  0  0  0  0  0  0  0  0  0  0  0
  -11.3715   66.9973  111.3395 H   0  0  0  0  0  0  0  0  0  0  0  0
  -10.8288   64.0717  113.8704 C   0  0  0  0  0  0  0  0  0  0  0  0
   -9.9473   63.1591  113.0082 C   0  0  0  0  0  0  0  0  0  0  0  0
   -8.4653   63.3708  113.3256 C   0  0  0  0  0  0  0  0  0  0  0  0
   -7.6916   63.2689  112.3301 O   0  0  0  0  0  0  0  0  0  0  0  0
   -8.0466   63.6282  114.4847 O   0  0  0  0  0  0  0  0  0  0  0  0
   -8.6515   63.6957  115.1971 H   0  0  0  0  0  0  0  0  0  0  0  0
   -9.2356   70.7381  118.9242 N   0  0  0  0  0  0  0  0  0  0  0  0
   -9.3016   70.3526  119.8277 H   0  0  0  0  0  0  0  0  0  0  0  0
   -9.1316   72.1836  118.8108 C   0  0  0  0  0  0  0  0  0  0  0  0
   -9.6283   76.1911  121.0782 N   0  0  0  0  0  0  0  0  0  0  0  0
   -8.9356   77.2508  120.5678 C   0  0  0  0  0  0  0  0  0  0  0  0
   -8.5104   78.2191  121.4198 N   0  0  0  0  0  0  0  0  0  0  0  0
   -8.6623   77.3567  119.2298 N   0  0  0  0  0  0  0  0  0  0  0  0
   -9.0564   76.4268  118.3190 C   0  0  0  0  0  0  0  0  0  0  0  0
   -8.7837   76.5626  117.1175 O   0  0  0  0  0  0  0  0  0  0  0  0
   -9.8226   75.2333  118.7910 C   0  0  0  0  0  0  0  0  0  0  0  0
  -10.2837   74.1905  117.8919 N   0  0  0  0  0  0  0  0  0  0  0  0
  -10.5017   72.8753  118.5903 C   0  0  0  0  0  0  0  0  0  0  0  0
  -11.2605   73.0226  119.9576 C   0  0  0  0  0  0  0  0  0  0  0  0
  -10.7671   74.1275  120.7925 N   0  0  0  0  0  0  0  0  0  0  0  0
  -10.0854   75.1820  120.2773 C   0  0  0  0  0  0  0  0  0  0  0  0
  -11.5196   74.6339  117.2065 C   0  0  0  0  0  0  0  0  0  0  0  0
   -8.7043   78.1476  122.3824 H   0  0  0  0  0  0  0  0  0  0  0  0
   -8.0083   78.9925  121.0749 H   0  0  0  0  0  0  0  0  0  0  0  0
   -8.1581   78.1408  118.9134 H   0  0  0  0  0  0  0  0  0  0  0  0
  -10.9376   74.1016  121.7618 H   0  0  0  0  0  0  0  0  0  0  0  0
 25 26  2  0  0  0
 25 36  1  0  0  0
 26 27  1  0  0  0
 26 28  1  0  0  0
 28 29  1  0  0  0
 29 30  2  0  0  0
 29 31  1  0  0  0
 31 32  1  0  0  0
 31 36  2  0  0  0
 32 33  1  0  0  0
 32 37  1  0  0  0
 33 34  1  0  0  0
 33 24  1  0  0  0
 34 35  1  0  0  0
 35 36  1  0  0  0
 24 22  1  0  0  0
 22  4  1  0  0  0
  1  2  2  0  0  0
  1  6  1  0  0  0
  1  7  1  0  0  0
  2  3  1  0  0  0
  3  4  2  0  0  0
  4  5  1  0  0  0
  5  6  2  0  0  0
  7  8  2  0  0  0
  7  9  1  0  0  0
  9 11  1  0  0  0
 11 16  1  0  0  0
 11 12  1  0  0  0
 16 17  1  0  0  0
 17 18  1  0  0  0
 18 19  2  0  0  0
 18 20  1  0  0  0
 12 13  2  0  0  0
 12 14  1  0  0  0
 27 38  1  0  0  0
 27 39  1  0  0  0
 28 40  1  0  0  0
 35 41  1  0  0  0
 22 23  1  0  0  0
  9 10  1  0  0  0
 20 21  1  0  0  0
 14 15  1  0  0  0
M  END
> <minimizedAffinity>
-8.02080

$$$$
2OGY_C2F_A_3000


 41 43  0  0  0  0  0  0  0  0999 V2000
   -9.4543   67.8042  115.4587 C   0  0  0  0  0  0  0  0  0  0  0  0
   -9.2896   67.4565  116.8330 C   0  0  0  0  0  0  0  0  0  0  0  0
   -9.2532   68.4617  117.8228 C   0  0  0  0  0  0  0  0  0  0  0  0
   -9.3811   69.8247  117.4526 C   0  0  0  0  0  0  0  0  0  0  0  0
   -9.5477   70.1703  116.0615 C   0  0  0  0  0  0  0  0  0  0  0  0
   -9.5849   69.1628  115.0760 C   0  0  0  0  0  0  0  0  0  0  0  0
   -9.4884   66.7208  114.4246 C   0  0  0  0  0  0  0  0  0  0  0  0
   -8.4402   66.3205  113.9460 O   0  0  0  0  0  0  0  0  0  0  0  0
  -10.6954   66.2539  114.0848 N   0  0  0  0  0  0  0  0  0  0  0  0
  -11.4538   66.6728  114.5524 H   0  0  0  0  0  0  0  0  0  0  0  0
  -11.0539   65.2176  113.1253 C   0  0  0  0  0  0  0  0  0  0  0  0
  -12.0440   65.7476  112.0988 C   0  0  0  0  0  0  0  0  0  0  0  0
  -12.5494   64.9564  111.2700 O   0  0  0  0  0  0  0  0  0  0  0  0
  -12.3386   66.9597  112.1101 O   0  0  0  0  0  0  0  0  0  0  0  0
  -11.9465   67.5313  112.7406 H   0  0  0  0  0  0  0  0  0  0  0  0
  -11.5886   63.9633  113.8477 C   0  0  0  0  0  0  0  0  0  0  0  0
  -12.4714   64.3897  115.0275 C   0  0  0  0  0  0  0  0  0  0  0  0
  -13.8263   63.6800  114.9819 C   0  0  0  0  0  0  0  0  0  0  0  0
  -14.5383   63.9639  113.9756 O   0  0  0  0  0  0  0  0  0  0  0  0
  -14.2043   62.8749  115.8729 O   0  0  0  0  0  0  0  0  0  0  0  0
  -13.6480   62.6901  116.6039 H   0  0  0  0  0  0  0  0  0  0  0  0
   -9.3405   70.7571  118.4531 N   0  0  0  0  0  0  0  0  0  0  0  0
   -9.4005   70.4360  119.3818 H   0  0  0  0  0  0  0  0  0  0  0  0
   -9.2148   72.1895  118.2388 C   0  0  0  0  0  0  0  0  0  0  0  0
   -9.4375   75.9034  120.9966 N   0  0  0  0  0  0  0  0  0  0  0  0
   -8.7624   77.0068  120.5607 C   0  0  0  0  0  0  0  0  0  0  0  0
   -8.2489   77.8601  121.4839 N   0  0  0  0  0  0  0  0  0  0  0  0
   -8.5928   77.2682  119.2269 N   0  0  0  0  0  0  0  0  0  0  0  0
   -9.0790   76.4596  118.2474 C   0  0  0  0  0  0  0  0  0  0  0  0
   -8.8985   76.7343  117.0522 O   0  0  0  0  0  0  0  0  0  0  0  0
   -9.8335   75.2290  118.6355 C   0  0  0  0  0  0  0  0  0  0  0  0
  -10.3882   74.3078  117.6597 N   0  0  0  0  0  0  0  0  0  0  0  0
  -10.5814   72.9216  118.2131 C   0  0  0  0  0  0  0  0  0  0  0  0
  -11.2267   72.9148  119.6451 C   0  0  0  0  0  0  0  0  0  0  0  0
  -10.6434   73.9049  120.5620 N   0  0  0  0  0  0  0  0  0  0  0  0
   -9.9797   75.0039  120.1216 C   0  0  0  0  0  0  0  0  0  0  0  0
  -11.6634   74.8472  117.1337 C   0  0  0  0  0  0  0  0  0  0  0  0
   -8.3682   77.6767  122.4438 H   0  0  0  0  0  0  0  0  0  0  0  0
   -7.7575   78.6622  121.1933 H   0  0  0  0  0  0  0  0  0  0  0  0
   -8.0967   78.0774  118.9656 H   0  0  0  0  0  0  0  0  0  0  0  0
  -10.7377   73.7655  121.5320 H   0  0  0  0  0  0  0  0  0  0  0  0
 25 26  2  0  0  0
 25 36  1  0  0  0
 26 27  1  0  0  0
 26 28  1  0  0  0
 28 29  1  0  0  0
 29 30  2  0  0  0
 29 31  1  0  0  0
 31 32  1  0  0  0
 31 36  2  0  0  0
 32 33  1  0  0  0
 32 37  1  0  0  0
 33 34  1  0  0  0
 33 24  1  0  0  0
 34 35  1  0  0  0
 35 36  1  0  0  0
 24 22  1  0  0  0
 22  4  1  0  0  0
  1  2  2  0  0  0
  1  6  1  0  0  0
  1  7  1  0  0  0
  2  3  1  0  0  0
  3  4  2  0  0  0
  4  5  1  0  0  0
  5  6  2  0  0  0
  7  8  2  0  0  0
  7  9  1  0  0  0
  9 11  1  0  0  0
 11 16  1  0  0  0
 11 12  1  0  0  0
 16 17  1  0  0  0
 17 18  1  0  0  0
 18 19  2  0  0  0
 18 20  1  0  0  0
 12 13  2  0  0  0
 12 14  1  0  0  0
 27 38  1  0  0  0
 27 39  1  0  0  0
 28 40  1  0  0  0
 35 41  1  0  0  0
 22 23  1  0  0  0
  9 10  1  0  0  0
 20 21  1  0  0  0
 14 15  1  0  0  0
M  END
> <minimizedAffinity>
-7.91276

$$$$
