1T4V_14A_H_1411


 31 32  0  0  0  0  0  0  0  0999 V2000
   16.8295  -13.5146   21.6409 C   0  0  0  0  0  0  0  0  0  0  0  0
   17.7792  -12.9919   20.7484 C   0  0  0  0  0  0  0  0  0  0  0  0
   19.0761  -13.5623   20.7081 C   0  0  0  0  0  0  0  0  0  0  0  0
   19.3877  -14.6072   21.5211 C   0  0  0  0  0  0  0  0  0  0  0  0
   18.4709  -15.1043   22.3945 C   0  0  0  0  0  0  0  0  0  0  0  0
   17.1947  -14.5864   22.4644 C   0  0  0  0  0  0  0  0  0  0  0  0
   20.2646  -12.9577   19.6612 Cl  0  0  0  0  0  0  0  0  0  0  0  0
   18.8591  -16.2525   23.2457 C   0  0  0  0  0  0  0  0  0  0  0  0
   18.4053  -17.3393   22.8847 O   0  0  0  0  0  0  0  0  0  0  0  0
   19.5924  -16.1848   24.3815 N   0  0  0  0  0  0  0  0  0  0  0  0
   19.6174  -14.8103   24.9433 C   0  0  0  0  0  0  0  0  0  0  0  0
   21.0730  -14.3566   24.7810 C   0  0  0  0  0  0  0  0  0  0  0  0
   21.5616  -13.7160   26.0220 C   0  0  0  0  0  0  0  0  0  0  0  0
   20.6122  -14.1646   27.1203 C   0  0  0  0  0  0  0  0  0  0  0  0
   19.5455  -15.0016   26.4598 C   0  0  0  0  0  0  0  0  0  0  0  0
   19.7294  -17.4020   25.2527 C   0  0  0  0  0  0  0  0  0  0  0  0
   21.0913  -18.1080   25.3324 C   0  0  0  0  0  0  0  0  0  0  0  0
   22.1116  -17.7043   26.0666 C   0  0  0  0  0  0  0  0  0  0  0  0
   15.5446  -13.0027   21.7358 O   0  0  0  0  0  0  0  0  0  0  0  0
   15.1347  -12.1758   20.6519 C   0  0  0  0  0  0  0  0  0  0  0  0
   13.7192  -11.7293   20.9509 C   0  0  0  0  0  0  0  0  0  0  0  0
   13.6533  -10.3783   21.6988 C   0  0  0  0  0  0  0  0  0  0  0  0
   12.8316  -10.4925   22.8827 O   0  0  0  0  0  0  0  0  0  0  0  0
   12.0294  -11.5637   22.9154 N   0  0  0  0  0  0  0  0  0  0  0  0
   12.0868  -12.2124   22.1771 H   0  0  0  0  0  0  0  0  0  0  0  0
   10.3666  -12.8417   23.8027 N   0  0  0  0  0  0  0  0  0  0  0  0
   11.1716  -11.7938   23.8793 C   0  0  0  0  0  0  0  0  0  0  0  0
   11.0718  -10.9284   24.8814 N   0  0  0  0  0  0  0  0  0  0  0  0
    9.7202  -13.0196   24.5236 H   0  0  0  0  0  0  0  0  0  0  0  0
   10.4307  -11.0915   25.6106 H   0  0  0  0  0  0  0  0  0  0  0  0
   11.6388  -10.1238   24.8953 H   0  0  0  0  0  0  0  0  0  0  0  0
 26 27  2  0  0  0
 27 28  1  0  0  0
 27 24  1  0  0  0
 24 23  1  0  0  0
 23 22  1  0  0  0
 22 21  1  0  0  0
 21 20  1  0  0  0
 20 19  1  0  0  0
 19  1  1  0  0  0
  1  2  2  0  0  0
  1  6  1  0  0  0
  2  3  1  0  0  0
  3  4  2  0  0  0
  3  7  1  0  0  0
  4  5  1  0  0  0
  5  6  2  0  0  0
  5  8  1  0  0  0
  8  9  2  0  0  0
  8 10  1  0  0  0
 10 16  1  0  0  0
 10 11  1  0  0  0
 16 17  1  0  0  0
 17 18  2  0  0  0
 11 12  1  0  0  0
 11 15  1  0  0  0
 12 13  1  0  0  0
 13 14  1  0  0  0
 14 15  1  0  0  0
 26 29  1  0  0  0
 28 30  1  0  0  0
 28 31  1  0  0  0
 24 25  1  0  0  0
M  END
> <minimizedAffinity>
-8.24410

$$$$
1T4V_14A_H_1411


 31 32  0  0  0  0  0  0  0  0999 V2000
   15.3088  -14.2286   22.1920 C   0  0  0  0  0  0  0  0  0  0  0  0
   15.0645  -15.3364   21.3644 C   0  0  0  0  0  0  0  0  0  0  0  0
   16.1376  -16.2011   21.0336 C   0  0  0  0  0  0  0  0  0  0  0  0
   17.3841  -15.9594   21.5211 C   0  0  0  0  0  0  0  0  0  0  0  0
   17.6223  -14.8787   22.3122 C   0  0  0  0  0  0  0  0  0  0  0  0
   16.6085  -14.0136   22.6663 C   0  0  0  0  0  0  0  0  0  0  0  0
   15.8999  -17.5425   20.0245 Cl  0  0  0  0  0  0  0  0  0  0  0  0
   18.9954  -14.6718   22.8274 C   0  0  0  0  0  0  0  0  0  0  0  0
   19.7504  -14.0743   22.0590 O   0  0  0  0  0  0  0  0  0  0  0  0
   19.4772  -15.1313   24.0059 N   0  0  0  0  0  0  0  0  0  0  0  0
   18.6431  -16.2310   24.5541 C   0  0  0  0  0  0  0  0  0  0  0  0
   18.2105  -15.7307   25.9373 C   0  0  0  0  0  0  0  0  0  0  0  0
   18.3743  -16.7948   26.9523 C   0  0  0  0  0  0  0  0  0  0  0  0
   19.3322  -17.8041   26.3420 C   0  0  0  0  0  0  0  0  0  0  0  0
   19.6388  -17.3252   24.9451 C   0  0  0  0  0  0  0  0  0  0  0  0
   20.9473  -15.0260   24.3008 C   0  0  0  0  0  0  0  0  0  0  0  0
   21.4213  -14.0209   25.3614 C   0  0  0  0  0  0  0  0  0  0  0  0
   21.3765  -14.2189   26.6658 C   0  0  0  0  0  0  0  0  0  0  0  0
   14.3073  -13.3401   22.5518 O   0  0  0  0  0  0  0  0  0  0  0  0
   13.7374  -12.5954   21.4808 C   0  0  0  0  0  0  0  0  0  0  0  0
   13.5868  -11.1698   21.9683 C   0  0  0  0  0  0  0  0  0  0  0  0
   12.1530  -10.6179   21.7988 C   0  0  0  0  0  0  0  0  0  0  0  0
   11.3943  -10.7922   23.0169 O   0  0  0  0  0  0  0  0  0  0  0  0
   12.0285  -10.4265   24.1376 N   0  0  0  0  0  0  0  0  0  0  0  0
   12.6309  -11.0767   24.5662 H   0  0  0  0  0  0  0  0  0  0  0  0
   12.9535   -8.4849   24.8860 N   0  0  0  0  0  0  0  0  0  0  0  0
   11.8892   -9.2480   24.6941 C   0  0  0  0  0  0  0  0  0  0  0  0
   10.6917   -8.8700   25.1257 N   0  0  0  0  0  0  0  0  0  0  0  0
   12.8550   -7.5988   25.3035 H   0  0  0  0  0  0  0  0  0  0  0  0
   10.5758   -7.9870   25.5452 H   0  0  0  0  0  0  0  0  0  0  0  0
    9.9197   -9.4729   25.0262 H   0  0  0  0  0  0  0  0  0  0  0  0
 26 27  2  0  0  0
 27 28  1  0  0  0
 27 24  1  0  0  0
 24 23  1  0  0  0
 23 22  1  0  0  0
 22 21  1  0  0  0
 21 20  1  0  0  0
 20 19  1  0  0  0
 19  1  1  0  0  0
  1  2  2  0  0  0
  1  6  1  0  0  0
  2  3  1  0  0  0
  3  4  2  0  0  0
  3  7  1  0  0  0
  4  5  1  0  0  0
  5  6  2  0  0  0
  5  8  1  0  0  0
  8  9  2  0  0  0
  8 10  1  0  0  0
 10 16  1  0  0  0
 10 11  1  0  0  0
 16 17  1  0  0  0
 17 18  2  0  0  0
 11 12  1  0  0  0
 11 15  1  0  0  0
 12 13  1  0  0  0
 13 14  1  0  0  0
 14 15  1  0  0  0
 26 29  1  0  0  0
 28 30  1  0  0  0
 28 31  1  0  0  0
 24 25  1  0  0  0
M  END
> <minimizedAffinity>
-7.70941

$$$$
1T4V_14A_H_1411


 31 32  0  0  0  0  0  0  0  0999 V2000
   16.9583  -14.4140   21.2549 C   0  0  0  0  0  0  0  0  0  0  0  0
   17.8364  -13.5825   20.5410 C   0  0  0  0  0  0  0  0  0  0  0  0
   19.2341  -13.7592   20.6962 C   0  0  0  0  0  0  0  0  0  0  0  0
   19.7119  -14.7286   21.5220 C   0  0  0  0  0  0  0  0  0  0  0  0
   18.8604  -15.5249   22.2229 C   0  0  0  0  0  0  0  0  0  0  0  0
   17.4932  -15.3947   22.0990 C   0  0  0  0  0  0  0  0  0  0  0  0
   20.3369  -12.7711   19.8707 Cl  0  0  0  0  0  0  0  0  0  0  0  0
   19.4351  -16.5742   23.0961 C   0  0  0  0  0  0  0  0  0  0  0  0
   19.2439  -17.7284   22.7104 O   0  0  0  0  0  0  0  0  0  0  0  0
   20.0717  -16.3653   24.2722 N   0  0  0  0  0  0  0  0  0  0  0  0
   19.7720  -15.0233   24.8333 C   0  0  0  0  0  0  0  0  0  0  0  0
   21.1261  -14.3044   24.8507 C   0  0  0  0  0  0  0  0  0  0  0  0
   21.3338  -13.6133   26.1424 C   0  0  0  0  0  0  0  0  0  0  0  0
   20.3598  -14.2552   27.1160 C   0  0  0  0  0  0  0  0  0  0  0  0
   19.5553  -15.2597   26.3296 C   0  0  0  0  0  0  0  0  0  0  0  0
   20.4148  -17.5356   25.1510 C   0  0  0  0  0  0  0  0  0  0  0  0
   21.8908  -17.9222   25.3291 C   0  0  0  0  0  0  0  0  0  0  0  0
   22.6799  -17.4758   26.2886 C   0  0  0  0  0  0  0  0  0  0  0  0
   15.5809  -14.2937   21.1540 O   0  0  0  0  0  0  0  0  0  0  0  0
   14.8474  -15.5004   21.3331 C   0  0  0  0  0  0  0  0  0  0  0  0
   13.5737  -15.1356   22.0660 C   0  0  0  0  0  0  0  0  0  0  0  0
   12.4694  -14.5914   21.1314 C   0  0  0  0  0  0  0  0  0  0  0  0
   12.3304  -13.1611   21.2883 O   0  0  0  0  0  0  0  0  0  0  0  0
   12.9971  -12.4244   20.3912 N   0  0  0  0  0  0  0  0  0  0  0  0
   13.0170  -12.7328   19.4564 H   0  0  0  0  0  0  0  0  0  0  0  0
   14.8235  -11.3708   21.2511 N   0  0  0  0  0  0  0  0  0  0  0  0
   13.6249  -11.3141   20.6926 C   0  0  0  0  0  0  0  0  0  0  0  0
   13.0153  -10.1499   20.5019 N   0  0  0  0  0  0  0  0  0  0  0  0
   15.2999  -10.5400   21.4797 H   0  0  0  0  0  0  0  0  0  0  0  0
   13.4776   -9.3098   20.7249 H   0  0  0  0  0  0  0  0  0  0  0  0
   12.1009  -10.1269   20.1376 H   0  0  0  0  0  0  0  0  0  0  0  0
 26 27  2  0  0  0
 27 28  1  0  0  0
 27 24  1  0  0  0
 24 23  1  0  0  0
 23 22  1  0  0  0
 22 21  1  0  0  0
 21 20  1  0  0  0
 20 19  1  0  0  0
 19  1  1  0  0  0
  1  2  2  0  0  0
  1  6  1  0  0  0
  2  3  1  0  0  0
  3  4  2  0  0  0
  3  7  1  0  0  0
  4  5  1  0  0  0
  5  6  2  0  0  0
  5  8  1  0  0  0
  8  9  2  0  0  0
  8 10  1  0  0  0
 10 16  1  0  0  0
 10 11  1  0  0  0
 16 17  1  0  0  0
 17 18  2  0  0  0
 11 12  1  0  0  0
 11 15  1  0  0  0
 12 13  1  0  0  0
 13 14  1  0  0  0
 14 15  1  0  0  0
 26 29  1  0  0  0
 28 30  1  0  0  0
 28 31  1  0  0  0
 24 25  1  0  0  0
M  END
> <minimizedAffinity>
-7.62686

$$$$
1T4V_14A_H_1411


 31 32  0  0  0  0  0  0  0  0999 V2000
   16.6815  -13.6704   21.1415 C   0  0  0  0  0  0  0  0  0  0  0  0
   16.1706  -14.9324   20.7976 C   0  0  0  0  0  0  0  0  0  0  0  0
   16.8954  -16.0939   21.1643 C   0  0  0  0  0  0  0  0  0  0  0  0
   18.0663  -15.9806   21.8470 C   0  0  0  0  0  0  0  0  0  0  0  0
   18.5666  -14.7571   22.1684 C   0  0  0  0  0  0  0  0  0  0  0  0
   17.8936  -13.5995   21.8387 C   0  0  0  0  0  0  0  0  0  0  0  0
   16.3315  -17.6403   20.7585 Cl  0  0  0  0  0  0  0  0  0  0  0  0
   19.8380  -14.6926   22.9254 C   0  0  0  0  0  0  0  0  0  0  0  0
   20.7847  -14.2079   22.3039 O   0  0  0  0  0  0  0  0  0  0  0  0
   20.0405  -15.1688   24.1761 N   0  0  0  0  0  0  0  0  0  0  0  0
   18.9977  -16.1498   24.5708 C   0  0  0  0  0  0  0  0  0  0  0  0
   18.3322  -15.5264   25.8034 C   0  0  0  0  0  0  0  0  0  0  0  0
   18.1615  -16.5361   26.8714 C   0  0  0  0  0  0  0  0  0  0  0  0
   19.1173  -17.6663   26.5283 C   0  0  0  0  0  0  0  0  0  0  0  0
   19.7658  -17.3058   25.2152 C   0  0  0  0  0  0  0  0  0  0  0  0
   21.4348  -15.2229   24.7353 C   0  0  0  0  0  0  0  0  0  0  0  0
   21.8602  -14.1712   25.7709 C   0  0  0  0  0  0  0  0  0  0  0  0
   21.0312  -13.4599   26.5122 C   0  0  0  0  0  0  0  0  0  0  0  0
   16.0274  -12.4936   20.8109 O   0  0  0  0  0  0  0  0  0  0  0  0
   14.9797  -12.6242   19.8561 C   0  0  0  0  0  0  0  0  0  0  0  0
   13.6778  -12.4205   20.6019 C   0  0  0  0  0  0  0  0  0  0  0  0
   13.6512  -11.1179   21.4334 C   0  0  0  0  0  0  0  0  0  0  0  0
   13.1233  -11.3697   22.7553 O   0  0  0  0  0  0  0  0  0  0  0  0
   11.7979  -11.5493   22.8123 N   0  0  0  0  0  0  0  0  0  0  0  0
   11.2908  -11.5533   21.9685 H   0  0  0  0  0  0  0  0  0  0  0  0
   10.2268  -12.6743   24.0172 N   0  0  0  0  0  0  0  0  0  0  0  0
   11.1402  -11.7200   23.9331 C   0  0  0  0  0  0  0  0  0  0  0  0
   11.3475  -10.8830   24.9429 N   0  0  0  0  0  0  0  0  0  0  0  0
    9.7296  -12.8072   24.8564 H   0  0  0  0  0  0  0  0  0  0  0  0
   10.8589  -11.0020   25.7892 H   0  0  0  0  0  0  0  0  0  0  0  0
   11.9899  -10.1434   24.8452 H   0  0  0  0  0  0  0  0  0  0  0  0
 26 27  2  0  0  0
 27 28  1  0  0  0
 27 24  1  0  0  0
 24 23  1  0  0  0
 23 22  1  0  0  0
 22 21  1  0  0  0
 21 20  1  0  0  0
 20 19  1  0  0  0
 19  1  1  0  0  0
  1  2  2  0  0  0
  1  6  1  0  0  0
  2  3  1  0  0  0
  3  4  2  0  0  0
  3  7  1  0  0  0
  4  5  1  0  0  0
  5  6  2  0  0  0
  5  8  1  0  0  0
  8  9  2  0  0  0
  8 10  1  0  0  0
 10 16  1  0  0  0
 10 11  1  0  0  0
 16 17  1  0  0  0
 17 18  2  0  0  0
 11 12  1  0  0  0
 11 15  1  0  0  0
 12 13  1  0  0  0
 13 14  1  0  0  0
 14 15  1  0  0  0
 26 29  1  0  0  0
 28 30  1  0  0  0
 28 31  1  0  0  0
 24 25  1  0  0  0
M  END
> <minimizedAffinity>
-7.48612

$$$$
1T4V_14A_H_1411


 31 32  0  0  0  0  0  0  0  0999 V2000
   15.6136  -14.5293   22.1564 C   0  0  0  0  0  0  0  0  0  0  0  0
   15.3992  -15.6889   21.3941 C   0  0  0  0  0  0  0  0  0  0  0  0
   16.4694  -16.5987   21.2053 C   0  0  0  0  0  0  0  0  0  0  0  0
   17.6839  -16.3494   21.7645 C   0  0  0  0  0  0  0  0  0  0  0  0
   17.8940  -15.2193   22.4921 C   0  0  0  0  0  0  0  0  0  0  0  0
   16.8813  -14.3087   22.7084 C   0  0  0  0  0  0  0  0  0  0  0  0
   16.2683  -18.0046   20.2795 Cl  0  0  0  0  0  0  0  0  0  0  0  0
   19.2318  -15.0055   23.0907 C   0  0  0  0  0  0  0  0  0  0  0  0
   20.0210  -14.3806   22.3807 O   0  0  0  0  0  0  0  0  0  0  0  0
   19.6514  -15.4850   24.2849 N   0  0  0  0  0  0  0  0  0  0  0  0
   18.8035  -16.6081   24.7595 C   0  0  0  0  0  0  0  0  0  0  0  0
   18.2545  -16.1298   26.1088 C   0  0  0  0  0  0  0  0  0  0  0  0
   18.3645  -17.1989   27.1259 C   0  0  0  0  0  0  0  0  0  0  0  0
   19.3896  -18.1809   26.5840 C   0  0  0  0  0  0  0  0  0  0  0  0
   19.7914  -17.6829   25.2183 C   0  0  0  0  0  0  0  0  0  0  0  0
   21.1003  -15.3665   24.6670 C   0  0  0  0  0  0  0  0  0  0  0  0
   21.4760  -14.5378   25.9047 C   0  0  0  0  0  0  0  0  0  0  0  0
   20.8707  -13.4280   26.2851 C   0  0  0  0  0  0  0  0  0  0  0  0
   14.6135  -13.5951   22.3776 O   0  0  0  0  0  0  0  0  0  0  0  0
   13.2827  -14.0943   22.2981 C   0  0  0  0  0  0  0  0  0  0  0  0
   12.5324  -13.1943   21.3391 C   0  0  0  0  0  0  0  0  0  0  0  0
   13.0783  -11.7485   21.3094 C   0  0  0  0  0  0  0  0  0  0  0  0
   13.5629  -11.4156   19.9888 O   0  0  0  0  0  0  0  0  0  0  0  0
   14.2708  -12.3780   19.3848 N   0  0  0  0  0  0  0  0  0  0  0  0
   13.7817  -13.1028   18.9323 H   0  0  0  0  0  0  0  0  0  0  0  0
   16.2062  -13.1388   18.4570 N   0  0  0  0  0  0  0  0  0  0  0  0
   15.5810  -12.4054   19.3643 C   0  0  0  0  0  0  0  0  0  0  0  0
   16.2599  -11.7563   20.3029 N   0  0  0  0  0  0  0  0  0  0  0  0
   17.1902  -13.1633   18.4367 H   0  0  0  0  0  0  0  0  0  0  0  0
   17.2442  -11.7704   20.2970 H   0  0  0  0  0  0  0  0  0  0  0  0
   15.7788  -11.2610   21.0047 H   0  0  0  0  0  0  0  0  0  0  0  0
 26 27  2  0  0  0
 27 28  1  0  0  0
 27 24  1  0  0  0
 24 23  1  0  0  0
 23 22  1  0  0  0
 22 21  1  0  0  0
 21 20  1  0  0  0
 20 19  1  0  0  0
 19  1  1  0  0  0
  1  2  2  0  0  0
  1  6  1  0  0  0
  2  3  1  0  0  0
  3  4  2  0  0  0
  3  7  1  0  0  0
  4  5  1  0  0  0
  5  6  2  0  0  0
  5  8  1  0  0  0
  8  9  2  0  0  0
  8 10  1  0  0  0
 10 16  1  0  0  0
 10 11  1  0  0  0
 16 17  1  0  0  0
 17 18  2  0  0  0
 11 12  1  0  0  0
 11 15  1  0  0  0
 12 13  1  0  0  0
 13 14  1  0  0  0
 14 15  1  0  0  0
 26 29  1  0  0  0
 28 30  1  0  0  0
 28 31  1  0  0  0
 24 25  1  0  0  0
M  END
> <minimizedAffinity>
-7.03805

$$$$
1T4V_14A_H_1411


 31 32  0  0  0  0  0  0  0  0999 V2000
   18.0526  -14.7472   23.2989 C   0  0  0  0  0  0  0  0  0  0  0  0
   19.1039  -14.1174   22.6134 C   0  0  0  0  0  0  0  0  0  0  0  0
   18.9196  -13.7454   21.2582 C   0  0  0  0  0  0  0  0  0  0  0  0
   17.7345  -13.9915   20.6380 C   0  0  0  0  0  0  0  0  0  0  0  0
   16.7212  -14.6134   21.2992 C   0  0  0  0  0  0  0  0  0  0  0  0
   16.8519  -14.9874   22.6201 C   0  0  0  0  0  0  0  0  0  0  0  0
   20.1625  -12.9980   20.3804 Cl  0  0  0  0  0  0  0  0  0  0  0  0
   15.4471  -14.8432   20.5799 C   0  0  0  0  0  0  0  0  0  0  0  0
   15.5413  -15.5523   19.5770 O   0  0  0  0  0  0  0  0  0  0  0  0
   14.2491  -14.2982   20.8961 N   0  0  0  0  0  0  0  0  0  0  0  0
   14.3962  -13.1070   21.7707 C   0  0  0  0  0  0  0  0  0  0  0  0
   13.0368  -12.9728   22.4669 C   0  0  0  0  0  0  0  0  0  0  0  0
   12.5766  -11.5667   22.4472 C   0  0  0  0  0  0  0  0  0  0  0  0
   13.3818  -10.8836   21.3546 C   0  0  0  0  0  0  0  0  0  0  0  0
   14.3489  -11.9095   20.8192 C   0  0  0  0  0  0  0  0  0  0  0  0
   13.0886  -14.4536   19.9535 C   0  0  0  0  0  0  0  0  0  0  0  0
   12.0422  -15.5416   20.2378 C   0  0  0  0  0  0  0  0  0  0  0  0
   12.2782  -16.6690   20.8828 C   0  0  0  0  0  0  0  0  0  0  0  0
   18.1655  -15.1415   24.6231 O   0  0  0  0  0  0  0  0  0  0  0  0
   19.4187  -15.7107   24.9865 C   0  0  0  0  0  0  0  0  0  0  0  0
   19.9626  -14.8815   26.1307 C   0  0  0  0  0  0  0  0  0  0  0  0
   20.9748  -13.8062   25.6743 C   0  0  0  0  0  0  0  0  0  0  0  0
   22.3178  -14.1763   26.0604 O   0  0  0  0  0  0  0  0  0  0  0  0
   22.8683  -15.1551   25.3318 N   0  0  0  0  0  0  0  0  0  0  0  0
   22.4913  -16.0614   25.4071 H   0  0  0  0  0  0  0  0  0  0  0  0
   24.9396  -15.7627   24.6064 N   0  0  0  0  0  0  0  0  0  0  0  0
   23.8832  -14.9695   24.5233 C   0  0  0  0  0  0  0  0  0  0  0  0
   23.8667  -13.9404   23.6844 N   0  0  0  0  0  0  0  0  0  0  0  0
   25.7049  -15.6281   24.0018 H   0  0  0  0  0  0  0  0  0  0  0  0
   24.6238  -13.7918   23.0728 H   0  0  0  0  0  0  0  0  0  0  0  0
   23.0975  -13.3261   23.6739 H   0  0  0  0  0  0  0  0  0  0  0  0
 26 27  2  0  0  0
 27 28  1  0  0  0
 27 24  1  0  0  0
 24 23  1  0  0  0
 23 22  1  0  0  0
 22 21  1  0  0  0
 21 20  1  0  0  0
 20 19  1  0  0  0
 19  1  1  0  0  0
  1  2  2  0  0  0
  1  6  1  0  0  0
  2  3  1  0  0  0
  3  4  2  0  0  0
  3  7  1  0  0  0
  4  5  1  0  0  0
  5  6  2  0  0  0
  5  8  1  0  0  0
  8  9  2  0  0  0
  8 10  1  0  0  0
 10 16  1  0  0  0
 10 11  1  0  0  0
 16 17  1  0  0  0
 17 18  2  0  0  0
 11 12  1  0  0  0
 11 15  1  0  0  0
 12 13  1  0  0  0
 13 14  1  0  0  0
 14 15  1  0  0  0
 26 29  1  0  0  0
 28 30  1  0  0  0
 28 31  1  0  0  0
 24 25  1  0  0  0
M  END
> <minimizedAffinity>
-6.94683

$$$$
1T4V_14A_H_1411


 31 32  0  0  0  0  0  0  0  0999 V2000
   18.4642  -14.5172   22.7275 C   0  0  0  0  0  0  0  0  0  0  0  0
   19.4584  -14.1494   21.8065 C   0  0  0  0  0  0  0  0  0  0  0  0
   19.0867  -13.4460   20.6336 C   0  0  0  0  0  0  0  0  0  0  0  0
   17.7829  -13.1278   20.4128 C   0  0  0  0  0  0  0  0  0  0  0  0
   16.8191  -13.4958   21.2993 C   0  0  0  0  0  0  0  0  0  0  0  0
   17.1336  -14.1752   22.4574 C   0  0  0  0  0  0  0  0  0  0  0  0
   20.2455  -12.9937   19.4817 Cl  0  0  0  0  0  0  0  0  0  0  0  0
   15.4173  -13.1103   21.0163 C   0  0  0  0  0  0  0  0  0  0  0  0
   15.0157  -12.1282   21.6422 O   0  0  0  0  0  0  0  0  0  0  0  0
   14.5623  -13.7724   20.2022 N   0  0  0  0  0  0  0  0  0  0  0  0
   15.0089  -15.1653   19.9454 C   0  0  0  0  0  0  0  0  0  0  0  0
   15.1606  -15.2441   18.4217 C   0  0  0  0  0  0  0  0  0  0  0  0
   14.5482  -16.4857   17.8995 C   0  0  0  0  0  0  0  0  0  0  0  0
   13.6063  -16.9716   18.9883 C   0  0  0  0  0  0  0  0  0  0  0  0
   13.7604  -16.0254   20.1526 C   0  0  0  0  0  0  0  0  0  0  0  0
   13.1100  -13.3858   20.1756 C   0  0  0  0  0  0  0  0  0  0  0  0
   12.2232  -13.7490   21.3762 C   0  0  0  0  0  0  0  0  0  0  0  0
   11.8415  -12.9062   22.3179 C   0  0  0  0  0  0  0  0  0  0  0  0
   18.7561  -15.2097   23.8924 O   0  0  0  0  0  0  0  0  0  0  0  0
   19.1329  -14.4043   25.0041 C   0  0  0  0  0  0  0  0  0  0  0  0
   19.6680  -15.3427   26.0651 C   0  0  0  0  0  0  0  0  0  0  0  0
   20.6310  -14.6520   27.0573 C   0  0  0  0  0  0  0  0  0  0  0  0
   21.5753  -13.8163   26.3505 O   0  0  0  0  0  0  0  0  0  0  0  0
   22.6767  -14.4436   25.9199 N   0  0  0  0  0  0  0  0  0  0  0  0
   23.0885  -15.1190   26.5060 H   0  0  0  0  0  0  0  0  0  0  0  0
   24.4252  -13.6273   24.7107 N   0  0  0  0  0  0  0  0  0  0  0  0
   23.2355  -14.2054   24.7584 C   0  0  0  0  0  0  0  0  0  0  0  0
   22.5648  -14.4794   23.6456 N   0  0  0  0  0  0  0  0  0  0  0  0
   24.8499  -13.4459   23.8413 H   0  0  0  0  0  0  0  0  0  0  0  0
   22.9751  -14.3044   22.7679 H   0  0  0  0  0  0  0  0  0  0  0  0
   21.6574  -14.8575   23.6982 H   0  0  0  0  0  0  0  0  0  0  0  0
 26 27  2  0  0  0
 27 28  1  0  0  0
 27 24  1  0  0  0
 24 23  1  0  0  0
 23 22  1  0  0  0
 22 21  1  0  0  0
 21 20  1  0  0  0
 20 19  1  0  0  0
 19  1  1  0  0  0
  1  2  2  0  0  0
  1  6  1  0  0  0
  2  3  1  0  0  0
  3  4  2  0  0  0
  3  7  1  0  0  0
  4  5  1  0  0  0
  5  6  2  0  0  0
  5  8  1  0  0  0
  8  9  2  0  0  0
  8 10  1  0  0  0
 10 16  1  0  0  0
 10 11  1  0  0  0
 16 17  1  0  0  0
 17 18  2  0  0  0
 11 12  1  0  0  0
 11 15  1  0  0  0
 12 13  1  0  0  0
 13 14  1  0  0  0
 14 15  1  0  0  0
 26 29  1  0  0  0
 28 30  1  0  0  0
 28 31  1  0  0  0
 24 25  1  0  0  0
M  END
> <minimizedAffinity>
-6.91575

$$$$
1T4V_14A_H_1411


 31 32  0  0  0  0  0  0  0  0999 V2000
   16.8779  -13.2546   21.5616 C   0  0  0  0  0  0  0  0  0  0  0  0
   17.8531  -12.8220   20.6485 C   0  0  0  0  0  0  0  0  0  0  0  0
   19.1078  -13.4802   20.6150 C   0  0  0  0  0  0  0  0  0  0  0  0
   19.3549  -14.5217   21.4542 C   0  0  0  0  0  0  0  0  0  0  0  0
   18.4141  -14.9316   22.3472 C   0  0  0  0  0  0  0  0  0  0  0  0
   17.1767  -14.3263   22.4117 C   0  0  0  0  0  0  0  0  0  0  0  0
   20.3254  -12.9864   19.5437 Cl  0  0  0  0  0  0  0  0  0  0  0  0
   18.7310  -16.0802   23.2268 C   0  0  0  0  0  0  0  0  0  0  0  0
   18.1004  -17.1091   22.9795 O   0  0  0  0  0  0  0  0  0  0  0  0
   19.5807  -16.0608   24.2803 N   0  0  0  0  0  0  0  0  0  0  0  0
   19.8482  -14.6777   24.7505 C   0  0  0  0  0  0  0  0  0  0  0  0
   21.3662  -14.5129   24.6116 C   0  0  0  0  0  0  0  0  0  0  0  0
   21.9365  -13.8859   25.8244 C   0  0  0  0  0  0  0  0  0  0  0  0
   20.8948  -14.0719   26.9147 C   0  0  0  0  0  0  0  0  0  0  0  0
   19.7065  -14.7432   26.2728 C   0  0  0  0  0  0  0  0  0  0  0  0
   19.6428  -17.2416   25.2084 C   0  0  0  0  0  0  0  0  0  0  0  0
   20.8403  -18.1989   25.1121 C   0  0  0  0  0  0  0  0  0  0  0  0
   20.9260  -19.3678   25.7197 C   0  0  0  0  0  0  0  0  0  0  0  0
   15.6316  -12.6541   21.6513 O   0  0  0  0  0  0  0  0  0  0  0  0
   14.5501  -13.5317   21.9456 C   0  0  0  0  0  0  0  0  0  0  0  0
   13.6512  -13.5451   20.7273 C   0  0  0  0  0  0  0  0  0  0  0  0
   12.2411  -14.1070   21.0186 C   0  0  0  0  0  0  0  0  0  0  0  0
   11.8831  -15.1118   20.0430 O   0  0  0  0  0  0  0  0  0  0  0  0
   12.5848  -16.2495   20.1165 N   0  0  0  0  0  0  0  0  0  0  0  0
   13.3302  -16.3795   19.4866 H   0  0  0  0  0  0  0  0  0  0  0  0
   13.1526  -17.3906   22.0036 N   0  0  0  0  0  0  0  0  0  0  0  0
   12.3312  -17.1992   20.9835 C   0  0  0  0  0  0  0  0  0  0  0  0
   11.2943  -18.0038   20.7820 N   0  0  0  0  0  0  0  0  0  0  0  0
   12.9673  -18.1024   22.6579 H   0  0  0  0  0  0  0  0  0  0  0  0
   11.0947  -18.7204   21.4269 H   0  0  0  0  0  0  0  0  0  0  0  0
   10.7251  -17.8837   19.9878 H   0  0  0  0  0  0  0  0  0  0  0  0
 26 27  2  0  0  0
 27 28  1  0  0  0
 27 24  1  0  0  0
 24 23  1  0  0  0
 23 22  1  0  0  0
 22 21  1  0  0  0
 21 20  1  0  0  0
 20 19  1  0  0  0
 19  1  1  0  0  0
  1  2  2  0  0  0
  1  6  1  0  0  0
  2  3  1  0  0  0
  3  4  2  0  0  0
  3  7  1  0  0  0
  4  5  1  0  0  0
  5  6  2  0  0  0
  5  8  1  0  0  0
  8  9  2  0  0  0
  8 10  1  0  0  0
 10 16  1  0  0  0
 10 11  1  0  0  0
 16 17  1  0  0  0
 17 18  2  0  0  0
 11 12  1  0  0  0
 11 15  1  0  0  0
 12 13  1  0  0  0
 13 14  1  0  0  0
 14 15  1  0  0  0
 26 29  1  0  0  0
 28 30  1  0  0  0
 28 31  1  0  0  0
 24 25  1  0  0  0
M  END
> <minimizedAffinity>
-6.88295

$$$$
1T4V_14A_H_1411


 31 32  0  0  0  0  0  0  0  0999 V2000
   16.9557  -14.8410   21.3871 C   0  0  0  0  0  0  0  0  0  0  0  0
   15.7774  -15.5987   21.4857 C   0  0  0  0  0  0  0  0  0  0  0  0
   15.8305  -16.8831   22.0826 C   0  0  0  0  0  0  0  0  0  0  0  0
   17.0094  -17.3663   22.5586 C   0  0  0  0  0  0  0  0  0  0  0  0
   18.1525  -16.6369   22.4509 C   0  0  0  0  0  0  0  0  0  0  0  0
   18.1486  -15.3798   21.8841 C   0  0  0  0  0  0  0  0  0  0  0  0
   14.4406  -17.8452   22.2108 Cl  0  0  0  0  0  0  0  0  0  0  0  0
   19.4052  -17.2055   22.9995 C   0  0  0  0  0  0  0  0  0  0  0  0
   19.6876  -18.3298   22.5828 O   0  0  0  0  0  0  0  0  0  0  0  0
   20.1937  -16.6286   23.9364 N   0  0  0  0  0  0  0  0  0  0  0  0
   19.4750  -15.5686   24.6885 C   0  0  0  0  0  0  0  0  0  0  0  0
   20.3369  -14.3145   24.5008 C   0  0  0  0  0  0  0  0  0  0  0  0
   20.5155  -13.6064   25.7877 C   0  0  0  0  0  0  0  0  0  0  0  0
   20.1815  -14.6214   26.8678 C   0  0  0  0  0  0  0  0  0  0  0  0
   19.7416  -15.8800   26.1628 C   0  0  0  0  0  0  0  0  0  0  0  0
   21.3180  -17.4152   24.5500 C   0  0  0  0  0  0  0  0  0  0  0  0
   22.7656  -17.0251   24.2155 C   0  0  0  0  0  0  0  0  0  0  0  0
   23.5073  -16.1912   24.9208 C   0  0  0  0  0  0  0  0  0  0  0  0
   16.9771  -13.5800   20.8116 O   0  0  0  0  0  0  0  0  0  0  0  0
   15.7660  -13.1746   20.1828 C   0  0  0  0  0  0  0  0  0  0  0  0
   15.1256  -12.1427   21.0870 C   0  0  0  0  0  0  0  0  0  0  0  0
   13.7431  -12.5789   21.6232 C   0  0  0  0  0  0  0  0  0  0  0  0
   13.2601  -11.6374   22.6080 O   0  0  0  0  0  0  0  0  0  0  0  0
   11.9285  -11.5138   22.6697 N   0  0  0  0  0  0  0  0  0  0  0  0
   11.4482  -11.2302   21.8585 H   0  0  0  0  0  0  0  0  0  0  0  0
   10.4655  -12.8288   23.8169 N   0  0  0  0  0  0  0  0  0  0  0  0
   11.2311  -11.7509   23.7538 C   0  0  0  0  0  0  0  0  0  0  0  0
   11.2454  -10.8652   24.7430 N   0  0  0  0  0  0  0  0  0  0  0  0
    9.9394  -13.0121   24.6286 H   0  0  0  0  0  0  0  0  0  0  0  0
   10.7252  -11.0332   25.5618 H   0  0  0  0  0  0  0  0  0  0  0  0
   11.7762  -10.0405   24.6577 H   0  0  0  0  0  0  0  0  0  0  0  0
 26 27  2  0  0  0
 27 28  1  0  0  0
 27 24  1  0  0  0
 24 23  1  0  0  0
 23 22  1  0  0  0
 22 21  1  0  0  0
 21 20  1  0  0  0
 20 19  1  0  0  0
 19  1  1  0  0  0
  1  2  2  0  0  0
  1  6  1  0  0  0
  2  3  1  0  0  0
  3  4  2  0  0  0
  3  7  1  0  0  0
  4  5  1  0  0  0
  5  6  2  0  0  0
  5  8  1  0  0  0
  8  9  2  0  0  0
  8 10  1  0  0  0
 10 16  1  0  0  0
 10 11  1  0  0  0
 16 17  1  0  0  0
 17 18  2  0  0  0
 11 12  1  0  0  0
 11 15  1  0  0  0
 12 13  1  0  0  0
 13 14  1  0  0  0
 14 15  1  0  0  0
 26 29  1  0  0  0
 28 30  1  0  0  0
 28 31  1  0  0  0
 24 25  1  0  0  0
M  END
> <minimizedAffinity>
-6.80944

$$$$
1T4V_14A_H_1411


 31 32  0  0  0  0  0  0  0  0999 V2000
   18.5809  -14.9815   22.9808 C   0  0  0  0  0  0  0  0  0  0  0  0
   18.6518  -16.3579   22.7114 C   0  0  0  0  0  0  0  0  0  0  0  0
   17.5392  -17.0030   22.1160 C   0  0  0  0  0  0  0  0  0  0  0  0
   16.4230  -16.2907   21.8051 C   0  0  0  0  0  0  0  0  0  0  0  0
   16.3506  -14.9600   22.0783 C   0  0  0  0  0  0  0  0  0  0  0  0
   17.4102  -14.2882   22.6506 C   0  0  0  0  0  0  0  0  0  0  0  0
   17.5668  -18.6656   21.7858 Cl  0  0  0  0  0  0  0  0  0  0  0  0
   15.1169  -14.2304   21.7051 C   0  0  0  0  0  0  0  0  0  0  0  0
   14.1970  -14.3216   22.5194 O   0  0  0  0  0  0  0  0  0  0  0  0
   14.9151  -13.5536   20.5504 N   0  0  0  0  0  0  0  0  0  0  0  0
   15.8781  -13.9594   19.4952 C   0  0  0  0  0  0  0  0  0  0  0  0
   16.4124  -12.6361   18.9347 C   0  0  0  0  0  0  0  0  0  0  0  0
   16.4304  -12.6650   17.4555 C   0  0  0  0  0  0  0  0  0  0  0  0
   15.4908  -13.7889   17.0525 C   0  0  0  0  0  0  0  0  0  0  0  0
   15.0093  -14.4335   18.3281 C   0  0  0  0  0  0  0  0  0  0  0  0
   13.5417  -13.0410   20.2183 C   0  0  0  0  0  0  0  0  0  0  0  0
   13.1187  -11.6598   20.7411 C   0  0  0  0  0  0  0  0  0  0  0  0
   13.8487  -10.8924   21.5291 C   0  0  0  0  0  0  0  0  0  0  0  0
   19.6295  -14.2882   23.5652 O   0  0  0  0  0  0  0  0  0  0  0  0
   20.7933  -15.0597   23.8420 C   0  0  0  0  0  0  0  0  0  0  0  0
   21.2980  -14.6216   25.2006 C   0  0  0  0  0  0  0  0  0  0  0  0
   22.7801  -14.1832   25.1859 C   0  0  0  0  0  0  0  0  0  0  0  0
   23.3643  -14.4107   23.8834 O   0  0  0  0  0  0  0  0  0  0  0  0
   24.4937  -15.1294   23.8857 N   0  0  0  0  0  0  0  0  0  0  0  0
   25.3236  -14.6954   23.5821 H   0  0  0  0  0  0  0  0  0  0  0  0
   25.3888  -16.7302   25.2354 N   0  0  0  0  0  0  0  0  0  0  0  0
   24.5521  -16.3807   24.2712 C   0  0  0  0  0  0  0  0  0  0  0  0
   23.8247  -17.2918   23.6354 N   0  0  0  0  0  0  0  0  0  0  0  0
   25.4371  -17.6686   25.5292 H   0  0  0  0  0  0  0  0  0  0  0  0
   23.8611  -18.2345   23.9167 H   0  0  0  0  0  0  0  0  0  0  0  0
   23.2491  -17.0245   22.8828 H   0  0  0  0  0  0  0  0  0  0  0  0
 26 27  2  0  0  0
 27 28  1  0  0  0
 27 24  1  0  0  0
 24 23  1  0  0  0
 23 22  1  0  0  0
 22 21  1  0  0  0
 21 20  1  0  0  0
 20 19  1  0  0  0
 19  1  1  0  0  0
  1  2  2  0  0  0
  1  6  1  0  0  0
  2  3  1  0  0  0
  3  4  2  0  0  0
  3  7  1  0  0  0
  4  5  1  0  0  0
  5  6  2  0  0  0
  5  8  1  0  0  0
  8  9  2  0  0  0
  8 10  1  0  0  0
 10 16  1  0  0  0
 10 11  1  0  0  0
 16 17  1  0  0  0
 17 18  2  0  0  0
 11 12  1  0  0  0
 11 15  1  0  0  0
 12 13  1  0  0  0
 13 14  1  0  0  0
 14 15  1  0  0  0
 26 29  1  0  0  0
 28 30  1  0  0  0
 28 31  1  0  0  0
 24 25  1  0  0  0
M  END
> <minimizedAffinity>
-6.66837

$$$$
