1O36_607_A_246


 41 44  0  0  0  0  0  0  0  0999 V2000
   41.7348   -1.6355   31.2415 C   0  0  0  0  0  0  0  0  0  0  0  0
   42.2595   -2.1658   32.4275 C   0  0  0  0  0  0  0  0  0  0  0  0
   41.6066   -2.0353   33.6450 C   0  0  0  0  0  0  0  0  0  0  0  0
   40.4205   -1.3578   33.6757 C   0  0  0  0  0  0  0  0  0  0  0  0
   39.8373   -0.8011   32.5499 C   0  0  0  0  0  0  0  0  0  0  0  0
   40.5147   -0.9521   31.3439 C   0  0  0  0  0  0  0  0  0  0  0  0
   39.9732   -0.4249   30.1963 O   0  0  0  0  0  0  0  0  0  0  0  0
   44.1758   -2.8460   26.1383 C   0  0  0  0  0  0  0  0  0  0  0  0
   44.6126   -1.5008   26.2630 C   0  0  0  0  0  0  0  0  0  0  0  0
   44.2813   -0.6998   27.3693 C   0  0  0  0  0  0  0  0  0  0  0  0
   43.5108   -1.2817   28.3343 C   0  0  0  0  0  0  0  0  0  0  0  0
   43.0822   -2.5341   28.2645 C   0  0  0  0  0  0  0  0  0  0  0  0
   43.3792   -3.3628   27.1927 C   0  0  0  0  0  0  0  0  0  0  0  0
   43.0612   -0.8081   29.4437 N   0  0  0  0  0  0  0  0  0  0  0  0
   42.3556   -2.8853   29.3164 N   0  0  0  0  0  0  0  0  0  0  0  0
   42.3882   -1.7671   29.9984 C   0  0  0  0  0  0  0  0  0  0  0  0
   43.2004    0.0994   29.7992 H   0  0  0  0  0  0  0  0  0  0  0  0
   44.5329   -3.6198   25.0014 C   0  0  0  0  0  0  0  0  0  0  0  0
   44.8742   -3.0549   23.8635 N   0  0  0  0  0  0  0  0  0  0  0  0
   44.5202   -4.9277   25.1008 N   0  0  0  0  0  0  0  0  0  0  0  0
   44.8850   -2.0736   23.7848 H   0  0  0  0  0  0  0  0  0  0  0  0
   45.1189   -3.6135   23.0906 H   0  0  0  0  0  0  0  0  0  0  0  0
   44.2654   -5.3543   25.9506 H   0  0  0  0  0  0  0  0  0  0  0  0
   44.7655   -5.4827   24.3255 H   0  0  0  0  0  0  0  0  0  0  0  0
   38.6219   -0.1124   32.6939 C   0  0  0  0  0  0  0  0  0  0  0  0
   37.4204   -0.6087   32.1809 C   0  0  0  0  0  0  0  0  0  0  0  0
   36.2175    0.0769   32.2776 C   0  0  0  0  0  0  0  0  0  0  0  0
   36.1710    1.2992   32.9068 C   0  0  0  0  0  0  0  0  0  0  0  0
   37.3312    1.8351   33.4404 C   0  0  0  0  0  0  0  0  0  0  0  0
   38.5398    1.1377   33.3352 C   0  0  0  0  0  0  0  0  0  0  0  0
   37.2811   -1.7625   31.5822 N   0  0  0  0  0  0  0  0  0  0  0  0
   38.0627   -2.3465   31.4509 H   0  0  0  0  0  0  0  0  0  0  0  0
   36.3945   -2.0473   31.2626 H   0  0  0  0  0  0  0  0  0  0  0  0
   42.2102   -2.6633   34.9262 C   0  0  0  0  0  0  0  0  0  0  0  0
   41.1679   -3.7003   35.3701 C   0  0  0  0  0  0  0  0  0  0  0  0
   40.9812   -4.6616   34.6500 O   0  0  0  0  0  0  0  0  0  0  0  0
   40.5761   -3.4996   36.4109 O   0  0  0  0  0  0  0  0  0  0  0  0
   42.4907   -1.6142   36.1028 C   0  0  0  0  0  0  0  0  0  0  0  0
   43.3828   -0.3805   35.7039 C   0  0  0  0  0  0  0  0  0  0  0  0
   42.9197    0.7458   35.8119 O   0  0  0  0  0  0  0  0  0  0  0  0
   44.5214   -0.6042   35.2900 O   0  0  0  0  0  0  0  0  0  0  0  0
  8  9  2  0  0  0
  8 13  1  0  0  0
  8 18  1  0  0  0
  9 10  1  0  0  0
 10 11  2  0  0  0
 11 12  1  0  0  0
 11 14  1  0  0  0
 12 13  2  0  0  0
 12 15  1  0  0  0
 18 19  1  0  0  0
 18 20  2  0  0  0
 14 16  1  0  0  0
 15 16  2  0  0  0
 16  1  1  0  0  0
  1  2  2  0  0  0
  1  6  1  0  0  0
  2  3  1  0  0  0
  3 34  1  0  0  0
  3  4  2  0  0  0
 34 35  1  0  0  0
 34 38  1  0  0  0
 35 36  2  0  0  0
 35 37  1  0  0  0
 38 39  1  0  0  0
 39 40  2  0  0  0
 39 41  1  0  0  0
  4  5  1  0  0  0
  5  6  2  0  0  0
  5 25  1  0  0  0
  6  7  1  0  0  0
 25 26  2  0  0  0
 25 30  1  0  0  0
 26 27  1  0  0  0
 26 31  1  0  0  0
 27 28  2  0  0  0
 28 29  1  0  0  0
 29 30  2  0  0  0
 19 21  1  0  0  0
 19 22  1  0  0  0
 20 23  1  0  0  0
 20 24  1  0  0  0
 14 17  1  0  0  0
 31 32  1  0  0  0
 31 33  1  0  0  0
M  CHG 1   7  -1
M  CHG 1  20   1
M  CHG 1  37  -1
M  CHG 1  41  -1
M  END
> <minimizedAffinity>
-8.47734

$$$$
1O36_607_A_246


 41 44  0  0  0  0  0  0  0  0999 V2000
   43.1996   -2.1743   31.9103 C   0  0  0  0  0  0  0  0  0  0  0  0
   42.4852   -3.2016   32.5406 C   0  0  0  0  0  0  0  0  0  0  0  0
   42.2126   -3.1821   33.9010 C   0  0  0  0  0  0  0  0  0  0  0  0
   42.6692   -2.1269   34.6391 C   0  0  0  0  0  0  0  0  0  0  0  0
   43.3852   -1.0747   34.0932 C   0  0  0  0  0  0  0  0  0  0  0  0
   43.6392   -1.1219   32.7260 C   0  0  0  0  0  0  0  0  0  0  0  0
   44.3387   -0.0975   32.1349 O   0  0  0  0  0  0  0  0  0  0  0  0
   44.3046   -2.9176   26.2807 C   0  0  0  0  0  0  0  0  0  0  0  0
   44.3683   -1.4997   26.3188 C   0  0  0  0  0  0  0  0  0  0  0  0
   44.1609   -0.7671   27.5001 C   0  0  0  0  0  0  0  0  0  0  0  0
   43.8934   -1.4899   28.6268 C   0  0  0  0  0  0  0  0  0  0  0  0
   43.8273   -2.8137   28.6419 C   0  0  0  0  0  0  0  0  0  0  0  0
   44.0208   -3.5808   27.5025 C   0  0  0  0  0  0  0  0  0  0  0  0
   43.6692   -1.1040   29.8343 N   0  0  0  0  0  0  0  0  0  0  0  0
   43.5612   -3.2987   29.8468 N   0  0  0  0  0  0  0  0  0  0  0  0
   43.4775   -2.1824   30.5274 C   0  0  0  0  0  0  0  0  0  0  0  0
   43.6476   -0.1768   30.1646 H   0  0  0  0  0  0  0  0  0  0  0  0
   44.5192   -3.6186   25.0635 C   0  0  0  0  0  0  0  0  0  0  0  0
   44.7688   -2.9844   23.9384 N   0  0  0  0  0  0  0  0  0  0  0  0
   44.4667   -4.9292   25.0741 N   0  0  0  0  0  0  0  0  0  0  0  0
   44.8090   -2.0008   23.9262 H   0  0  0  0  0  0  0  0  0  0  0  0
   44.9154   -3.4934   23.1085 H   0  0  0  0  0  0  0  0  0  0  0  0
   44.2802   -5.4075   25.9141 H   0  0  0  0  0  0  0  0  0  0  0  0
   44.6139   -5.4345   24.2421 H   0  0  0  0  0  0  0  0  0  0  0  0
   43.8204   -0.0456   34.9439 C   0  0  0  0  0  0  0  0  0  0  0  0
   42.9908    1.0179   35.3098 C   0  0  0  0  0  0  0  0  0  0  0  0
   43.4161    2.0647   36.1158 C   0  0  0  0  0  0  0  0  0  0  0  0
   44.7041    2.0822   36.5982 C   0  0  0  0  0  0  0  0  0  0  0  0
   45.5672    1.0490   36.2730 C   0  0  0  0  0  0  0  0  0  0  0  0
   45.1301   -0.0004   35.4571 C   0  0  0  0  0  0  0  0  0  0  0  0
   41.7359    1.1422   34.9651 N   0  0  0  0  0  0  0  0  0  0  0  0
   41.3131    0.4623   34.3922 H   0  0  0  0  0  0  0  0  0  0  0  0
   41.2136    1.9156   35.2786 H   0  0  0  0  0  0  0  0  0  0  0  0
   41.3937   -4.3261   34.5500 C   0  0  0  0  0  0  0  0  0  0  0  0
   42.4450   -5.3791   34.9306 C   0  0  0  0  0  0  0  0  0  0  0  0
   42.6497   -6.2857   34.1472 O   0  0  0  0  0  0  0  0  0  0  0  0
   43.0079   -5.2577   35.9992 O   0  0  0  0  0  0  0  0  0  0  0  0
   40.2838   -4.9662   33.5899 C   0  0  0  0  0  0  0  0  0  0  0  0
   39.0086   -4.0755   33.3502 C   0  0  0  0  0  0  0  0  0  0  0  0
   38.9086   -3.4526   32.3030 O   0  0  0  0  0  0  0  0  0  0  0  0
   38.1575   -4.0388   34.2401 O   0  0  0  0  0  0  0  0  0  0  0  0
  8  9  2  0  0  0
  8 13  1  0  0  0
  8 18  1  0  0  0
  9 10  1  0  0  0
 10 11  2  0  0  0
 11 12  1  0  0  0
 11 14  1  0  0  0
 12 13  2  0  0  0
 12 15  1  0  0  0
 18 19  1  0  0  0
 18 20  2  0  0  0
 14 16  1  0  0  0
 15 16  2  0  0  0
 16  1  1  0  0  0
  1  2  2  0  0  0
  1  6  1  0  0  0
  2  3  1  0  0  0
  3 34  1  0  0  0
  3  4  2  0  0  0
 34 35  1  0  0  0
 34 38  1  0  0  0
 35 36  2  0  0  0
 35 37  1  0  0  0
 38 39  1  0  0  0
 39 40  2  0  0  0
 39 41  1  0  0  0
  4  5  1  0  0  0
  5  6  2  0  0  0
  5 25  1  0  0  0
  6  7  1  0  0  0
 25 26  2  0  0  0
 25 30  1  0  0  0
 26 27  1  0  0  0
 26 31  1  0  0  0
 27 28  2  0  0  0
 28 29  1  0  0  0
 29 30  2  0  0  0
 19 21  1  0  0  0
 19 22  1  0  0  0
 20 23  1  0  0  0
 20 24  1  0  0  0
 14 17  1  0  0  0
 31 32  1  0  0  0
 31 33  1  0  0  0
M  CHG 1   7  -1
M  CHG 1  20   1
M  CHG 1  37  -1
M  CHG 1  41  -1
M  END
> <minimizedAffinity>
-8.22632

$$$$
1O36_607_A_246


 41 44  0  0  0  0  0  0  0  0999 V2000
   43.1876   -2.0187   31.9273 C   0  0  0  0  0  0  0  0  0  0  0  0
   42.3578   -2.9587   32.5525 C   0  0  0  0  0  0  0  0  0  0  0  0
   42.0812   -2.9089   33.9113 C   0  0  0  0  0  0  0  0  0  0  0  0
   42.6501   -1.9124   34.6531 C   0  0  0  0  0  0  0  0  0  0  0  0
   43.4837   -0.9479   34.1123 C   0  0  0  0  0  0  0  0  0  0  0  0
   43.7387   -1.0230   32.7465 C   0  0  0  0  0  0  0  0  0  0  0  0
   44.5531   -0.0842   32.1605 O   0  0  0  0  0  0  0  0  0  0  0  0
   44.3201   -2.8881   26.3212 C   0  0  0  0  0  0  0  0  0  0  0  0
   44.3719   -1.4692   26.3255 C   0  0  0  0  0  0  0  0  0  0  0  0
   44.1540   -0.7101   27.4879 C   0  0  0  0  0  0  0  0  0  0  0  0
   43.8882   -1.4078   28.6308 C   0  0  0  0  0  0  0  0  0  0  0  0
   43.8330   -2.7313   28.6775 C   0  0  0  0  0  0  0  0  0  0  0  0
   44.0372   -3.5240   27.5577 C   0  0  0  0  0  0  0  0  0  0  0  0
   43.6562   -0.9948   29.8278 N   0  0  0  0  0  0  0  0  0  0  0  0
   43.5663   -3.1894   29.8928 N   0  0  0  0  0  0  0  0  0  0  0  0
   43.4708   -2.0578   30.5460 C   0  0  0  0  0  0  0  0  0  0  0  0
   43.6257   -0.0601   30.1356 H   0  0  0  0  0  0  0  0  0  0  0  0
   44.5452   -3.6163   25.1221 C   0  0  0  0  0  0  0  0  0  0  0  0
   44.4812   -4.9298   25.0918 N   0  0  0  0  0  0  0  0  0  0  0  0
   44.8207   -2.9526   24.0248 N   0  0  0  0  0  0  0  0  0  0  0  0
   44.2746   -5.4317   25.9132 H   0  0  0  0  0  0  0  0  0  0  0  0
   44.6398   -5.4110   24.2477 H   0  0  0  0  0  0  0  0  0  0  0  0
   44.8696   -1.9695   24.0433 H   0  0  0  0  0  0  0  0  0  0  0  0
   44.9788   -3.4375   23.1827 H   0  0  0  0  0  0  0  0  0  0  0  0
   44.0277    0.0251   34.9665 C   0  0  0  0  0  0  0  0  0  0  0  0
   43.3151    1.1669   35.3427 C   0  0  0  0  0  0  0  0  0  0  0  0
   43.8508    2.1588   36.1523 C   0  0  0  0  0  0  0  0  0  0  0  0
   45.1359    2.0391   36.6280 C   0  0  0  0  0  0  0  0  0  0  0  0
   45.8852    0.9238   36.2925 C   0  0  0  0  0  0  0  0  0  0  0  0
   45.3374   -0.0695   35.4730 C   0  0  0  0  0  0  0  0  0  0  0  0
   42.0783    1.4233   35.0054 N   0  0  0  0  0  0  0  0  0  0  0  0
   41.5844    0.7946   34.4309 H   0  0  0  0  0  0  0  0  0  0  0  0
   41.6409    2.2449   35.3259 H   0  0  0  0  0  0  0  0  0  0  0  0
   41.1344   -3.9530   34.5545 C   0  0  0  0  0  0  0  0  0  0  0  0
   39.8250   -3.1858   34.7909 C   0  0  0  0  0  0  0  0  0  0  0  0
   39.1953   -2.8239   33.8162 O   0  0  0  0  0  0  0  0  0  0  0  0
   39.4935   -2.9703   35.9386 O   0  0  0  0  0  0  0  0  0  0  0  0
   41.6752   -4.5718   35.9286 C   0  0  0  0  0  0  0  0  0  0  0  0
   42.8089   -5.6530   35.7781 C   0  0  0  0  0  0  0  0  0  0  0  0
   43.5970   -5.8180   36.6980 O   0  0  0  0  0  0  0  0  0  0  0  0
   42.8585   -6.2913   34.7255 O   0  0  0  0  0  0  0  0  0  0  0  0
  8  9  2  0  0  0
  8 13  1  0  0  0
  8 18  1  0  0  0
  9 10  1  0  0  0
 10 11  2  0  0  0
 11 12  1  0  0  0
 11 14  1  0  0  0
 12 13  2  0  0  0
 12 15  1  0  0  0
 18 19  1  0  0  0
 18 20  2  0  0  0
 14 16  1  0  0  0
 15 16  2  0  0  0
 16  1  1  0  0  0
  1  2  2  0  0  0
  1  6  1  0  0  0
  2  3  1  0  0  0
  3 34  1  0  0  0
  3  4  2  0  0  0
 34 35  1  0  0  0
 34 38  1  0  0  0
 35 36  2  0  0  0
 35 37  1  0  0  0
 38 39  1  0  0  0
 39 40  2  0  0  0
 39 41  1  0  0  0
  4  5  1  0  0  0
  5  6  2  0  0  0
  5 25  1  0  0  0
  6  7  1  0  0  0
 25 26  2  0  0  0
 25 30  1  0  0  0
 26 27  1  0  0  0
 26 31  1  0  0  0
 27 28  2  0  0  0
 28 29  1  0  0  0
 29 30  2  0  0  0
 19 21  1  0  0  0
 19 22  1  0  0  0
 20 23  1  0  0  0
 20 24  1  0  0  0
 14 17  1  0  0  0
 31 32  1  0  0  0
 31 33  1  0  0  0
M  CHG 1   7  -1
M  CHG 1  20   1
M  CHG 1  37  -1
M  CHG 1  41  -1
M  END
> <minimizedAffinity>
-8.15701

$$$$
1O36_607_A_246


 41 44  0  0  0  0  0  0  0  0999 V2000
   42.4621   -0.8125   31.9461 C   0  0  0  0  0  0  0  0  0  0  0  0
   41.1068   -0.7222   32.2897 C   0  0  0  0  0  0  0  0  0  0  0  0
   40.6861   -0.1596   33.4864 C   0  0  0  0  0  0  0  0  0  0  0  0
   41.6340    0.3086   34.3518 C   0  0  0  0  0  0  0  0  0  0  0  0
   42.9925    0.2534   34.0889 C   0  0  0  0  0  0  0  0  0  0  0  0
   43.3820   -0.3133   32.8792 C   0  0  0  0  0  0  0  0  0  0  0  0
   44.7185   -0.3840   32.5677 O   0  0  0  0  0  0  0  0  0  0  0  0
   44.1629   -2.4856   26.6760 C   0  0  0  0  0  0  0  0  0  0  0  0
   44.2940   -3.7328   27.3417 C   0  0  0  0  0  0  0  0  0  0  0  0
   43.9993   -3.8939   28.7063 C   0  0  0  0  0  0  0  0  0  0  0  0
   43.5730   -2.7817   29.3734 C   0  0  0  0  0  0  0  0  0  0  0  0
   43.4315   -1.5975   28.7950 C   0  0  0  0  0  0  0  0  0  0  0  0
   43.7126   -1.3871   27.4531 C   0  0  0  0  0  0  0  0  0  0  0  0
   43.2299   -2.6251   30.6042 N   0  0  0  0  0  0  0  0  0  0  0  0
   43.0000   -0.6666   29.6347 N   0  0  0  0  0  0  0  0  0  0  0  0
   42.8995   -1.3780   30.7302 C   0  0  0  0  0  0  0  0  0  0  0  0
   43.2204   -3.3136   31.3079 H   0  0  0  0  0  0  0  0  0  0  0  0
   44.4736   -2.3670   25.2945 C   0  0  0  0  0  0  0  0  0  0  0  0
   44.8382   -3.4087   24.5789 N   0  0  0  0  0  0  0  0  0  0  0  0
   44.3896   -1.1863   24.7295 N   0  0  0  0  0  0  0  0  0  0  0  0
   44.9024   -4.2967   24.9992 H   0  0  0  0  0  0  0  0  0  0  0  0
   45.0468   -3.3005   23.6228 H   0  0  0  0  0  0  0  0  0  0  0  0
   44.1171   -0.4041   25.2617 H   0  0  0  0  0  0  0  0  0  0  0  0
   44.5991   -1.0822   23.7732 H   0  0  0  0  0  0  0  0  0  0  0  0
   43.8840    0.7507   35.0532 C   0  0  0  0  0  0  0  0  0  0  0  0
   44.0278    2.1191   35.2978 C   0  0  0  0  0  0  0  0  0  0  0  0
   44.9328    2.6310   36.2172 C   0  0  0  0  0  0  0  0  0  0  0  0
   45.7339    1.7790   36.9415 C   0  0  0  0  0  0  0  0  0  0  0  0
   45.6277    0.4122   36.7447 C   0  0  0  0  0  0  0  0  0  0  0  0
   44.7145   -0.0941   35.8131 C   0  0  0  0  0  0  0  0  0  0  0  0
   43.3280    3.0609   34.7213 N   0  0  0  0  0  0  0  0  0  0  0  0
   42.6496    2.8275   34.0472 H   0  0  0  0  0  0  0  0  0  0  0  0
   43.4793    4.0037   34.9614 H   0  0  0  0  0  0  0  0  0  0  0  0
   39.1749   -0.0547   33.8115 C   0  0  0  0  0  0  0  0  0  0  0  0
   38.6014   -1.4198   33.4033 C   0  0  0  0  0  0  0  0  0  0  0  0
   38.8800   -2.3816   34.0924 O   0  0  0  0  0  0  0  0  0  0  0  0
   37.9098   -1.4691   32.4069 O   0  0  0  0  0  0  0  0  0  0  0  0
   38.4165    1.1239   33.0375 C   0  0  0  0  0  0  0  0  0  0  0  0
   37.1815    1.7389   33.7947 C   0  0  0  0  0  0  0  0  0  0  0  0
   36.6752    1.1097   34.7125 O   0  0  0  0  0  0  0  0  0  0  0  0
   36.7686    2.8386   33.4232 O   0  0  0  0  0  0  0  0  0  0  0  0
  8  9  2  0  0  0
  8 13  1  0  0  0
  8 18  1  0  0  0
  9 10  1  0  0  0
 10 11  2  0  0  0
 11 12  1  0  0  0
 11 14  1  0  0  0
 12 13  2  0  0  0
 12 15  1  0  0  0
 18 19  1  0  0  0
 18 20  2  0  0  0
 14 16  1  0  0  0
 15 16  2  0  0  0
 16  1  1  0  0  0
  1  2  2  0  0  0
  1  6  1  0  0  0
  2  3  1  0  0  0
  3 34  1  0  0  0
  3  4  2  0  0  0
 34 35  1  0  0  0
 34 38  1  0  0  0
 35 36  2  0  0  0
 35 37  1  0  0  0
 38 39  1  0  0  0
 39 40  2  0  0  0
 39 41  1  0  0  0
  4  5  1  0  0  0
  5  6  2  0  0  0
  5 25  1  0  0  0
  6  7  1  0  0  0
 25 26  2  0  0  0
 25 30  1  0  0  0
 26 27  1  0  0  0
 26 31  1  0  0  0
 27 28  2  0  0  0
 28 29  1  0  0  0
 29 30  2  0  0  0
 19 21  1  0  0  0
 19 22  1  0  0  0
 20 23  1  0  0  0
 20 24  1  0  0  0
 14 17  1  0  0  0
 31 32  1  0  0  0
 31 33  1  0  0  0
M  CHG 1   7  -1
M  CHG 1  20   1
M  CHG 1  37  -1
M  CHG 1  41  -1
M  END
> <minimizedAffinity>
-8.11118

$$$$
1O36_607_A_246


 41 44  0  0  0  0  0  0  0  0999 V2000
   42.2931   -0.7699   31.8513 C   0  0  0  0  0  0  0  0  0  0  0  0
   43.1900   -0.2188   32.7759 C   0  0  0  0  0  0  0  0  0  0  0  0
   42.7594    0.4022   33.9397 C   0  0  0  0  0  0  0  0  0  0  0  0
   41.4157    0.4804   34.1745 C   0  0  0  0  0  0  0  0  0  0  0  0
   40.4649   -0.0353   33.3098 C   0  0  0  0  0  0  0  0  0  0  0  0
   40.9286   -0.6550   32.1534 C   0  0  0  0  0  0  0  0  0  0  0  0
   40.0252   -1.1902   31.2672 O   0  0  0  0  0  0  0  0  0  0  0  0
   44.0642   -2.7357   26.7069 C   0  0  0  0  0  0  0  0  0  0  0  0
   43.9769   -3.9800   27.3853 C   0  0  0  0  0  0  0  0  0  0  0  0
   43.5785   -4.0798   28.7293 C   0  0  0  0  0  0  0  0  0  0  0  0
   43.2726   -2.9099   29.3630 C   0  0  0  0  0  0  0  0  0  0  0  0
   43.3353   -1.7254   28.7714 C   0  0  0  0  0  0  0  0  0  0  0  0
   43.7258   -1.5746   27.4490 C   0  0  0  0  0  0  0  0  0  0  0  0
   42.8795   -2.6902   30.5690 N   0  0  0  0  0  0  0  0  0  0  0  0
   42.9881   -0.7320   29.5778 N   0  0  0  0  0  0  0  0  0  0  0  0
   42.7209   -1.4075   30.6681 C   0  0  0  0  0  0  0  0  0  0  0  0
   42.7296   -3.3610   31.2738 H   0  0  0  0  0  0  0  0  0  0  0  0
   44.4733   -2.6805   25.3473 C   0  0  0  0  0  0  0  0  0  0  0  0
   44.7652   -3.7705   24.6712 N   0  0  0  0  0  0  0  0  0  0  0  0
   44.5566   -1.5096   24.7620 N   0  0  0  0  0  0  0  0  0  0  0  0
   44.7039   -4.6512   25.1069 H   0  0  0  0  0  0  0  0  0  0  0  0
   45.0450   -3.7055   23.7295 H   0  0  0  0  0  0  0  0  0  0  0  0
   44.3390   -0.6915   25.2646 H   0  0  0  0  0  0  0  0  0  0  0  0
   44.8368   -1.4489   23.8202 H   0  0  0  0  0  0  0  0  0  0  0  0
   39.1077    0.1109   33.6393 C   0  0  0  0  0  0  0  0  0  0  0  0
   38.4203   -0.8389   34.3999 C   0  0  0  0  0  0  0  0  0  0  0  0
   37.0696   -0.7318   34.7006 C   0  0  0  0  0  0  0  0  0  0  0  0
   36.3482    0.3494   34.2505 C   0  0  0  0  0  0  0  0  0  0  0  0
   36.9811    1.3250   33.4985 C   0  0  0  0  0  0  0  0  0  0  0  0
   38.3427    1.2066   33.1978 C   0  0  0  0  0  0  0  0  0  0  0  0
   38.9578   -1.9071   34.9284 N   0  0  0  0  0  0  0  0  0  0  0  0
   39.9134   -2.0980   34.7884 H   0  0  0  0  0  0  0  0  0  0  0  0
   38.4069   -2.5206   35.4664 H   0  0  0  0  0  0  0  0  0  0  0  0
   43.7888    0.9720   34.9478 C   0  0  0  0  0  0  0  0  0  0  0  0
   44.3869   -0.2700   35.6250 C   0  0  0  0  0  0  0  0  0  0  0  0
   45.5954   -0.3995   35.6075 O   0  0  0  0  0  0  0  0  0  0  0  0
   43.6208   -1.0636   36.1319 O   0  0  0  0  0  0  0  0  0  0  0  0
   43.1604    1.9571   36.0424 C   0  0  0  0  0  0  0  0  0  0  0  0
   44.0722    3.1717   36.4551 C   0  0  0  0  0  0  0  0  0  0  0  0
   43.5475    4.1848   36.8945 O   0  0  0  0  0  0  0  0  0  0  0  0
   45.2899    3.0514   36.3114 O   0  0  0  0  0  0  0  0  0  0  0  0
  8  9  2  0  0  0
  8 13  1  0  0  0
  8 18  1  0  0  0
  9 10  1  0  0  0
 10 11  2  0  0  0
 11 12  1  0  0  0
 11 14  1  0  0  0
 12 13  2  0  0  0
 12 15  1  0  0  0
 18 19  1  0  0  0
 18 20  2  0  0  0
 14 16  1  0  0  0
 15 16  2  0  0  0
 16  1  1  0  0  0
  1  2  2  0  0  0
  1  6  1  0  0  0
  2  3  1  0  0  0
  3 34  1  0  0  0
  3  4  2  0  0  0
 34 35  1  0  0  0
 34 38  1  0  0  0
 35 36  2  0  0  0
 35 37  1  0  0  0
 38 39  1  0  0  0
 39 40  2  0  0  0
 39 41  1  0  0  0
  4  5  1  0  0  0
  5  6  2  0  0  0
  5 25  1  0  0  0
  6  7  1  0  0  0
 25 26  2  0  0  0
 25 30  1  0  0  0
 26 27  1  0  0  0
 26 31  1  0  0  0
 27 28  2  0  0  0
 28 29  1  0  0  0
 29 30  2  0  0  0
 19 21  1  0  0  0
 19 22  1  0  0  0
 20 23  1  0  0  0
 20 24  1  0  0  0
 14 17  1  0  0  0
 31 32  1  0  0  0
 31 33  1  0  0  0
M  CHG 1   7  -1
M  CHG 1  20   1
M  CHG 1  37  -1
M  CHG 1  41  -1
M  END
> <minimizedAffinity>
-8.09728

$$$$
1O36_607_A_246


 41 44  0  0  0  0  0  0  0  0999 V2000
   42.3789   -0.9458   31.8212 C   0  0  0  0  0  0  0  0  0  0  0  0
   43.2806   -0.5571   32.8206 C   0  0  0  0  0  0  0  0  0  0  0  0
   42.8563   -0.0139   34.0249 C   0  0  0  0  0  0  0  0  0  0  0  0
   41.5149    0.1505   34.2257 C   0  0  0  0  0  0  0  0  0  0  0  0
   40.5600   -0.2042   33.2876 C   0  0  0  0  0  0  0  0  0  0  0  0
   41.0172   -0.7494   32.0918 C   0  0  0  0  0  0  0  0  0  0  0  0
   40.1087   -1.1254   31.1319 O   0  0  0  0  0  0  0  0  0  0  0  0
   44.1038   -2.5674   26.5428 C   0  0  0  0  0  0  0  0  0  0  0  0
   44.0539   -3.8509   27.1478 C   0  0  0  0  0  0  0  0  0  0  0  0
   43.6804   -4.0380   28.4897 C   0  0  0  0  0  0  0  0  0  0  0  0
   43.3609   -2.9143   29.1960 C   0  0  0  0  0  0  0  0  0  0  0  0
   43.3889   -1.6960   28.6744 C   0  0  0  0  0  0  0  0  0  0  0  0
   43.7538   -1.4595   27.3573 C   0  0  0  0  0  0  0  0  0  0  0  0
   42.9836   -2.7743   30.4188 N   0  0  0  0  0  0  0  0  0  0  0  0
   43.0347   -0.7594   29.5434 N   0  0  0  0  0  0  0  0  0  0  0  0
   42.8000   -1.5034   30.5959 C   0  0  0  0  0  0  0  0  0  0  0  0
   42.8596   -3.4884   31.0850 H   0  0  0  0  0  0  0  0  0  0  0  0
   44.4888   -2.4236   25.1826 C   0  0  0  0  0  0  0  0  0  0  0  0
   44.3998   -1.2682   24.5602 N   0  0  0  0  0  0  0  0  0  0  0  0
   44.9440   -3.4743   24.5428 N   0  0  0  0  0  0  0  0  0  0  0  0
   44.0587   -0.4773   25.0368 H   0  0  0  0  0  0  0  0  0  0  0  0
   44.6744   -1.1945   23.6176 H   0  0  0  0  0  0  0  0  0  0  0  0
   45.0122   -4.3409   25.0051 H   0  0  0  0  0  0  0  0  0  0  0  0
   45.2176   -3.3964   23.6003 H   0  0  0  0  0  0  0  0  0  0  0  0
   39.2069    0.0200   33.5887 C   0  0  0  0  0  0  0  0  0  0  0  0
   38.4181   -0.9399   34.2287 C   0  0  0  0  0  0  0  0  0  0  0  0
   37.0695   -0.7522   34.4974 C   0  0  0  0  0  0  0  0  0  0  0  0
   36.4532    0.4234   34.1367 C   0  0  0  0  0  0  0  0  0  0  0  0
   37.1894    1.4127   33.5062 C   0  0  0  0  0  0  0  0  0  0  0  0
   38.5480    1.2128   33.2366 C   0  0  0  0  0  0  0  0  0  0  0  0
   38.8491   -2.0952   34.6631 N   0  0  0  0  0  0  0  0  0  0  0  0
   39.7914   -2.3494   34.5338 H   0  0  0  0  0  0  0  0  0  0  0  0
   38.2314   -2.7110   35.1196 H   0  0  0  0  0  0  0  0  0  0  0  0
   43.8883    0.3748   35.1132 C   0  0  0  0  0  0  0  0  0  0  0  0
   43.4454    1.7702   35.5776 C   0  0  0  0  0  0  0  0  0  0  0  0
   42.9557    1.8708   36.6855 O   0  0  0  0  0  0  0  0  0  0  0  0
   43.5965    2.6978   34.8092 O   0  0  0  0  0  0  0  0  0  0  0  0
   45.4038    0.4123   34.5981 C   0  0  0  0  0  0  0  0  0  0  0  0
   46.4756   -0.1095   35.6257 C   0  0  0  0  0  0  0  0  0  0  0  0
   46.1096   -0.4569   36.7393 O   0  0  0  0  0  0  0  0  0  0  0  0
   47.6524   -0.1415   35.2626 O   0  0  0  0  0  0  0  0  0  0  0  0
  8  9  2  0  0  0
  8 13  1  0  0  0
  8 18  1  0  0  0
  9 10  1  0  0  0
 10 11  2  0  0  0
 11 12  1  0  0  0
 11 14  1  0  0  0
 12 13  2  0  0  0
 12 15  1  0  0  0
 18 19  1  0  0  0
 18 20  2  0  0  0
 14 16  1  0  0  0
 15 16  2  0  0  0
 16  1  1  0  0  0
  1  2  2  0  0  0
  1  6  1  0  0  0
  2  3  1  0  0  0
  3 34  1  0  0  0
  3  4  2  0  0  0
 34 35  1  0  0  0
 34 38  1  0  0  0
 35 36  2  0  0  0
 35 37  1  0  0  0
 38 39  1  0  0  0
 39 40  2  0  0  0
 39 41  1  0  0  0
  4  5  1  0  0  0
  5  6  2  0  0  0
  5 25  1  0  0  0
  6  7  1  0  0  0
 25 26  2  0  0  0
 25 30  1  0  0  0
 26 27  1  0  0  0
 26 31  1  0  0  0
 27 28  2  0  0  0
 28 29  1  0  0  0
 29 30  2  0  0  0
 19 21  1  0  0  0
 19 22  1  0  0  0
 20 23  1  0  0  0
 20 24  1  0  0  0
 14 17  1  0  0  0
 31 32  1  0  0  0
 31 33  1  0  0  0
M  CHG 1   7  -1
M  CHG 1  20   1
M  CHG 1  37  -1
M  CHG 1  41  -1
M  END
> <minimizedAffinity>
-8.06602

$$$$
1O36_607_A_246


 41 44  0  0  0  0  0  0  0  0999 V2000
   43.1651   -2.4490   31.8097 C   0  0  0  0  0  0  0  0  0  0  0  0
   42.8638   -3.6412   32.4813 C   0  0  0  0  0  0  0  0  0  0  0  0
   42.5269   -3.6636   33.8272 C   0  0  0  0  0  0  0  0  0  0  0  0
   42.5012   -2.4801   34.5094 C   0  0  0  0  0  0  0  0  0  0  0  0
   42.7895   -1.2604   33.9204 C   0  0  0  0  0  0  0  0  0  0  0  0
   43.1202   -1.2710   32.5689 C   0  0  0  0  0  0  0  0  0  0  0  0
   43.4066   -0.0854   31.9361 O   0  0  0  0  0  0  0  0  0  0  0  0
   44.2978   -2.9734   26.1610 C   0  0  0  0  0  0  0  0  0  0  0  0
   44.7977   -1.6582   26.3513 C   0  0  0  0  0  0  0  0  0  0  0  0
   44.7629   -1.0113   27.5985 C   0  0  0  0  0  0  0  0  0  0  0  0
   44.2207   -1.7148   28.6352 C   0  0  0  0  0  0  0  0  0  0  0  0
   43.7448   -2.9454   28.5078 C   0  0  0  0  0  0  0  0  0  0  0  0
   43.7534   -3.6242   27.2982 C   0  0  0  0  0  0  0  0  0  0  0  0
   44.0604   -1.3925   29.8712 N   0  0  0  0  0  0  0  0  0  0  0  0
   43.2736   -3.4320   29.6475 N   0  0  0  0  0  0  0  0  0  0  0  0
   43.5037   -2.4151   30.4409 C   0  0  0  0  0  0  0  0  0  0  0  0
   44.3103   -0.5411   30.2977 H   0  0  0  0  0  0  0  0  0  0  0  0
   44.3513   -3.5892   24.8816 C   0  0  0  0  0  0  0  0  0  0  0  0
   43.9085   -4.8125   24.6871 N   0  0  0  0  0  0  0  0  0  0  0  0
   44.8547   -2.9118   23.8775 N   0  0  0  0  0  0  0  0  0  0  0  0
   43.5300   -5.3242   25.4381 H   0  0  0  0  0  0  0  0  0  0  0  0
   43.9556   -5.2163   23.7904 H   0  0  0  0  0  0  0  0  0  0  0  0
   45.1872   -1.9960   24.0189 H   0  0  0  0  0  0  0  0  0  0  0  0
   44.9000   -3.3192   22.9823 H   0  0  0  0  0  0  0  0  0  0  0  0
   42.7476   -0.1039   34.7158 C   0  0  0  0  0  0  0  0  0  0  0  0
   41.5919    0.6720   34.8402 C   0  0  0  0  0  0  0  0  0  0  0  0
   41.5433    1.8399   35.5884 C   0  0  0  0  0  0  0  0  0  0  0  0
   42.6642    2.2770   36.2553 C   0  0  0  0  0  0  0  0  0  0  0  0
   43.8354    1.5424   36.1728 C   0  0  0  0  0  0  0  0  0  0  0  0
   43.8754    0.3678   35.4133 C   0  0  0  0  0  0  0  0  0  0  0  0
   40.4364    0.3871   34.2992 N   0  0  0  0  0  0  0  0  0  0  0  0
   40.3388   -0.4191   33.7426 H   0  0  0  0  0  0  0  0  0  0  0  0
   39.6637    0.9786   34.4485 H   0  0  0  0  0  0  0  0  0  0  0  0
   42.1730   -5.0027   34.5216 C   0  0  0  0  0  0  0  0  0  0  0  0
   40.7297   -5.2904   34.0821 C   0  0  0  0  0  0  0  0  0  0  0  0
   39.8376   -4.6604   34.6157 O   0  0  0  0  0  0  0  0  0  0  0  0
   40.5544   -6.1405   33.2335 O   0  0  0  0  0  0  0  0  0  0  0  0
   42.2728   -4.9609   36.1190 C   0  0  0  0  0  0  0  0  0  0  0  0
   43.3641   -5.9040   36.7487 C   0  0  0  0  0  0  0  0  0  0  0  0
   44.1516   -5.4404   37.5607 O   0  0  0  0  0  0  0  0  0  0  0  0
   43.3825   -7.0822   36.3889 O   0  0  0  0  0  0  0  0  0  0  0  0
  8  9  2  0  0  0
  8 13  1  0  0  0
  8 18  1  0  0  0
  9 10  1  0  0  0
 10 11  2  0  0  0
 11 12  1  0  0  0
 11 14  1  0  0  0
 12 13  2  0  0  0
 12 15  1  0  0  0
 18 19  1  0  0  0
 18 20  2  0  0  0
 14 16  1  0  0  0
 15 16  2  0  0  0
 16  1  1  0  0  0
  1  2  2  0  0  0
  1  6  1  0  0  0
  2  3  1  0  0  0
  3 34  1  0  0  0
  3  4  2  0  0  0
 34 35  1  0  0  0
 34 38  1  0  0  0
 35 36  2  0  0  0
 35 37  1  0  0  0
 38 39  1  0  0  0
 39 40  2  0  0  0
 39 41  1  0  0  0
  4  5  1  0  0  0
  5  6  2  0  0  0
  5 25  1  0  0  0
  6  7  1  0  0  0
 25 26  2  0  0  0
 25 30  1  0  0  0
 26 27  1  0  0  0
 26 31  1  0  0  0
 27 28  2  0  0  0
 28 29  1  0  0  0
 29 30  2  0  0  0
 19 21  1  0  0  0
 19 22  1  0  0  0
 20 23  1  0  0  0
 20 24  1  0  0  0
 14 17  1  0  0  0
 31 32  1  0  0  0
 31 33  1  0  0  0
M  CHG 1   7  -1
M  CHG 1  20   1
M  CHG 1  37  -1
M  CHG 1  41  -1
M  END
> <minimizedAffinity>
-7.94042

$$$$
1O36_607_A_246


 41 44  0  0  0  0  0  0  0  0999 V2000
   42.4621   -1.5622   31.4963 C   0  0  0  0  0  0  0  0  0  0  0  0
   41.1396   -2.0246   31.5051 C   0  0  0  0  0  0  0  0  0  0  0  0
   40.5643   -2.6328   30.3984 C   0  0  0  0  0  0  0  0  0  0  0  0
   41.3194   -2.7701   29.2680 C   0  0  0  0  0  0  0  0  0  0  0  0
   42.6314   -2.3368   29.1767 C   0  0  0  0  0  0  0  0  0  0  0  0
   43.1805   -1.7343   30.3044 C   0  0  0  0  0  0  0  0  0  0  0  0
   44.4818   -1.2947   30.2673 O   0  0  0  0  0  0  0  0  0  0  0  0
   44.6285    0.4267   36.4779 C   0  0  0  0  0  0  0  0  0  0  0  0
   45.1115    1.4490   35.6191 C   0  0  0  0  0  0  0  0  0  0  0  0
   44.8634    1.4516   34.2359 C   0  0  0  0  0  0  0  0  0  0  0  0
   44.1245    0.4129   33.7471 C   0  0  0  0  0  0  0  0  0  0  0  0
   43.6490   -0.5620   34.5089 C   0  0  0  0  0  0  0  0  0  0  0  0
   43.8695   -0.6109   35.8775 C   0  0  0  0  0  0  0  0  0  0  0  0
   43.7387    0.1533   32.5467 N   0  0  0  0  0  0  0  0  0  0  0  0
   42.9565   -1.4581   33.8196 N   0  0  0  0  0  0  0  0  0  0  0  0
   43.0574   -0.9473   32.6174 C   0  0  0  0  0  0  0  0  0  0  0  0
   43.9238    0.6835   31.7381 H   0  0  0  0  0  0  0  0  0  0  0  0
   44.9044    0.4626   37.8713 C   0  0  0  0  0  0  0  0  0  0  0  0
   44.3883    1.3870   38.6520 N   0  0  0  0  0  0  0  0  0  0  0  0
   45.6923   -0.4541   38.3808 N   0  0  0  0  0  0  0  0  0  0  0  0
   43.7965    2.0767   38.2735 H   0  0  0  0  0  0  0  0  0  0  0  0
   44.5940    1.3891   39.6148 H   0  0  0  0  0  0  0  0  0  0  0  0
   46.0806   -1.1476   37.7999 H   0  0  0  0  0  0  0  0  0  0  0  0
   45.8955   -0.4484   39.3441 H   0  0  0  0  0  0  0  0  0  0  0  0
   43.3143   -2.5140   27.9625 C   0  0  0  0  0  0  0  0  0  0  0  0
   43.9123   -1.4492   27.2830 C   0  0  0  0  0  0  0  0  0  0  0  0
   44.5555   -1.5981   26.0623 C   0  0  0  0  0  0  0  0  0  0  0  0
   44.6314   -2.8380   25.4714 C   0  0  0  0  0  0  0  0  0  0  0  0
   44.0623   -3.9302   26.1048 C   0  0  0  0  0  0  0  0  0  0  0  0
   43.4131   -3.7694   27.3340 C   0  0  0  0  0  0  0  0  0  0  0  0
   43.9582   -0.2160   27.7149 N   0  0  0  0  0  0  0  0  0  0  0  0
   43.5370    0.0212   28.5725 H   0  0  0  0  0  0  0  0  0  0  0  0
   44.4141    0.4753   27.1825 H   0  0  0  0  0  0  0  0  0  0  0  0
   39.1071   -3.1549   30.4634 C   0  0  0  0  0  0  0  0  0  0  0  0
   39.2523   -4.6544   30.7621 C   0  0  0  0  0  0  0  0  0  0  0  0
   39.5656   -4.9807   31.8903 O   0  0  0  0  0  0  0  0  0  0  0  0
   39.0585   -5.4349   29.8528 O   0  0  0  0  0  0  0  0  0  0  0  0
   38.2687   -2.9319   29.1177 C   0  0  0  0  0  0  0  0  0  0  0  0
   36.9032   -2.1699   29.2957 C   0  0  0  0  0  0  0  0  0  0  0  0
   36.5680   -1.8068   30.4140 O   0  0  0  0  0  0  0  0  0  0  0  0
   36.2190   -1.9736   28.2901 O   0  0  0  0  0  0  0  0  0  0  0  0
  8  9  2  0  0  0
  8 13  1  0  0  0
  8 18  1  0  0  0
  9 10  1  0  0  0
 10 11  2  0  0  0
 11 12  1  0  0  0
 11 14  1  0  0  0
 12 13  2  0  0  0
 12 15  1  0  0  0
 18 19  1  0  0  0
 18 20  2  0  0  0
 14 16  1  0  0  0
 15 16  2  0  0  0
 16  1  1  0  0  0
  1  2  2  0  0  0
  1  6  1  0  0  0
  2  3  1  0  0  0
  3 34  1  0  0  0
  3  4  2  0  0  0
 34 35  1  0  0  0
 34 38  1  0  0  0
 35 36  2  0  0  0
 35 37  1  0  0  0
 38 39  1  0  0  0
 39 40  2  0  0  0
 39 41  1  0  0  0
  4  5  1  0  0  0
  5  6  2  0  0  0
  5 25  1  0  0  0
  6  7  1  0  0  0
 25 26  2  0  0  0
 25 30  1  0  0  0
 26 27  1  0  0  0
 26 31  1  0  0  0
 27 28  2  0  0  0
 28 29  1  0  0  0
 29 30  2  0  0  0
 19 21  1  0  0  0
 19 22  1  0  0  0
 20 23  1  0  0  0
 20 24  1  0  0  0
 14 17  1  0  0  0
 31 32  1  0  0  0
 31 33  1  0  0  0
M  CHG 1   7  -1
M  CHG 1  20   1
M  CHG 1  37  -1
M  CHG 1  41  -1
M  END
> <minimizedAffinity>
-7.72446

$$$$
1O36_607_A_246


 41 44  0  0  0  0  0  0  0  0999 V2000
   41.7814   -1.8141   31.3315 C   0  0  0  0  0  0  0  0  0  0  0  0
   42.1931   -2.5723   32.4355 C   0  0  0  0  0  0  0  0  0  0  0  0
   41.5641   -2.4795   33.6688 C   0  0  0  0  0  0  0  0  0  0  0  0
   40.5178   -1.6105   33.7998 C   0  0  0  0  0  0  0  0  0  0  0  0
   40.0527   -0.8236   32.7596 C   0  0  0  0  0  0  0  0  0  0  0  0
   40.7021   -0.9423   31.5347 C   0  0  0  0  0  0  0  0  0  0  0  0
   40.2730   -0.1889   30.4687 O   0  0  0  0  0  0  0  0  0  0  0  0
   44.1471   -2.8650   26.1580 C   0  0  0  0  0  0  0  0  0  0  0  0
   44.5413   -1.5078   26.2943 C   0  0  0  0  0  0  0  0  0  0  0  0
   44.2081   -0.7351   27.4199 C   0  0  0  0  0  0  0  0  0  0  0  0
   43.4792   -1.3571   28.3923 C   0  0  0  0  0  0  0  0  0  0  0  0
   43.0913   -2.6220   28.3121 C   0  0  0  0  0  0  0  0  0  0  0  0
   43.3920   -3.4242   27.2212 C   0  0  0  0  0  0  0  0  0  0  0  0
   43.0389   -0.9156   29.5185 N   0  0  0  0  0  0  0  0  0  0  0  0
   42.4006   -3.0133   29.3740 N   0  0  0  0  0  0  0  0  0  0  0  0
   42.4109   -1.9050   30.0726 C   0  0  0  0  0  0  0  0  0  0  0  0
   43.1555   -0.0093   29.8850 H   0  0  0  0  0  0  0  0  0  0  0  0
   44.5044   -3.6092   25.0016 C   0  0  0  0  0  0  0  0  0  0  0  0
   44.8725   -3.0154   23.8870 N   0  0  0  0  0  0  0  0  0  0  0  0
   44.4644   -4.9191   25.0587 N   0  0  0  0  0  0  0  0  0  0  0  0
   44.9038   -2.0325   23.8401 H   0  0  0  0  0  0  0  0  0  0  0  0
   45.1167   -3.5538   23.0998 H   0  0  0  0  0  0  0  0  0  0  0  0
   44.1895   -5.3673   25.8909 H   0  0  0  0  0  0  0  0  0  0  0  0
   44.7094   -5.4539   24.2692 H   0  0  0  0  0  0  0  0  0  0  0  0
   38.9788    0.0474   33.0047 C   0  0  0  0  0  0  0  0  0  0  0  0
   39.0609    1.0858   33.9364 C   0  0  0  0  0  0  0  0  0  0  0  0
   37.9971    1.9305   34.2216 C   0  0  0  0  0  0  0  0  0  0  0  0
   36.7965    1.7689   33.5699 C   0  0  0  0  0  0  0  0  0  0  0  0
   36.6617    0.7600   32.6308 C   0  0  0  0  0  0  0  0  0  0  0  0
   37.7391   -0.0885   32.3524 C   0  0  0  0  0  0  0  0  0  0  0  0
   40.1311    1.3962   34.6200 N   0  0  0  0  0  0  0  0  0  0  0  0
   40.9564    0.8713   34.5077 H   0  0  0  0  0  0  0  0  0  0  0  0
   40.1118    2.1550   35.2471 H   0  0  0  0  0  0  0  0  0  0  0  0
   42.0353   -3.3589   34.8542 C   0  0  0  0  0  0  0  0  0  0  0  0
   41.7131   -4.7950   34.4152 C   0  0  0  0  0  0  0  0  0  0  0  0
   40.5436   -5.1005   34.2872 O   0  0  0  0  0  0  0  0  0  0  0  0
   42.6428   -5.5534   34.2308 O   0  0  0  0  0  0  0  0  0  0  0  0
   41.3171   -3.0255   36.2458 C   0  0  0  0  0  0  0  0  0  0  0  0
   42.1239   -3.4360   37.5332 C   0  0  0  0  0  0  0  0  0  0  0  0
   43.3060   -3.1345   37.6136 O   0  0  0  0  0  0  0  0  0  0  0  0
   41.5251   -4.0557   38.4137 O   0  0  0  0  0  0  0  0  0  0  0  0
  8  9  2  0  0  0
  8 13  1  0  0  0
  8 18  1  0  0  0
  9 10  1  0  0  0
 10 11  2  0  0  0
 11 12  1  0  0  0
 11 14  1  0  0  0
 12 13  2  0  0  0
 12 15  1  0  0  0
 18 19  1  0  0  0
 18 20  2  0  0  0
 14 16  1  0  0  0
 15 16  2  0  0  0
 16  1  1  0  0  0
  1  2  2  0  0  0
  1  6  1  0  0  0
  2  3  1  0  0  0
  3 34  1  0  0  0
  3  4  2  0  0  0
 34 35  1  0  0  0
 34 38  1  0  0  0
 35 36  2  0  0  0
 35 37  1  0  0  0
 38 39  1  0  0  0
 39 40  2  0  0  0
 39 41  1  0  0  0
  4  5  1  0  0  0
  5  6  2  0  0  0
  5 25  1  0  0  0
  6  7  1  0  0  0
 25 26  2  0  0  0
 25 30  1  0  0  0
 26 27  1  0  0  0
 26 31  1  0  0  0
 27 28  2  0  0  0
 28 29  1  0  0  0
 29 30  2  0  0  0
 19 21  1  0  0  0
 19 22  1  0  0  0
 20 23  1  0  0  0
 20 24  1  0  0  0
 14 17  1  0  0  0
 31 32  1  0  0  0
 31 33  1  0  0  0
M  CHG 1   7  -1
M  CHG 1  20   1
M  CHG 1  37  -1
M  CHG 1  41  -1
M  END
> <minimizedAffinity>
-7.68149

$$$$
1O36_607_A_246


 41 44  0  0  0  0  0  0  0  0999 V2000
   42.6571   -1.6155   31.3850 C   0  0  0  0  0  0  0  0  0  0  0  0
   43.5496   -1.6842   30.3071 C   0  0  0  0  0  0  0  0  0  0  0  0
   43.2338   -2.3485   29.1304 C   0  0  0  0  0  0  0  0  0  0  0  0
   42.0148   -2.9584   29.0368 C   0  0  0  0  0  0  0  0  0  0  0  0
   41.0788   -2.9400   30.0572 C   0  0  0  0  0  0  0  0  0  0  0  0
   41.4240   -2.2629   31.2227 C   0  0  0  0  0  0  0  0  0  0  0  0
   40.5261   -2.2087   32.2615 O   0  0  0  0  0  0  0  0  0  0  0  0
   43.9866    1.7474   35.9005 C   0  0  0  0  0  0  0  0  0  0  0  0
   43.8591    0.5136   36.5914 C   0  0  0  0  0  0  0  0  0  0  0  0
   43.5272   -0.6857   35.9383 C   0  0  0  0  0  0  0  0  0  0  0  0
   43.3318   -0.6114   34.5893 C   0  0  0  0  0  0  0  0  0  0  0  0
   43.4431    0.5155   33.9002 C   0  0  0  0  0  0  0  0  0  0  0  0
   43.7649    1.7245   34.4992 C   0  0  0  0  0  0  0  0  0  0  0  0
   43.0290   -1.5270   33.7365 N   0  0  0  0  0  0  0  0  0  0  0  0
   43.2154    0.3475   32.6050 N   0  0  0  0  0  0  0  0  0  0  0  0
   42.9667   -0.9386   32.5831 C   0  0  0  0  0  0  0  0  0  0  0  0
   42.8756   -2.4814   33.9228 H   0  0  0  0  0  0  0  0  0  0  0  0
   44.3223    2.9372   36.6010 C   0  0  0  0  0  0  0  0  0  0  0  0
   43.7849    4.0960   36.2872 N   0  0  0  0  0  0  0  0  0  0  0  0
   45.1886    2.8661   37.5834 N   0  0  0  0  0  0  0  0  0  0  0  0
   43.1343    4.1535   35.5505 H   0  0  0  0  0  0  0  0  0  0  0  0
   44.0332    4.9058   36.7890 H   0  0  0  0  0  0  0  0  0  0  0  0
   45.5932    2.0007   37.8213 H   0  0  0  0  0  0  0  0  0  0  0  0
   45.4343    3.6782   38.0827 H   0  0  0  0  0  0  0  0  0  0  0  0
   39.8605   -3.6111   29.8632 C   0  0  0  0  0  0  0  0  0  0  0  0
   39.6824   -4.9491   30.2253 C   0  0  0  0  0  0  0  0  0  0  0  0
   38.4994   -5.6404   30.0038 C   0  0  0  0  0  0  0  0  0  0  0  0
   37.4331   -5.0065   29.4095 C   0  0  0  0  0  0  0  0  0  0  0  0
   37.5520   -3.6779   29.0369 C   0  0  0  0  0  0  0  0  0  0  0  0
   38.7499   -2.9903   29.2615 C   0  0  0  0  0  0  0  0  0  0  0  0
   40.5787   -5.6890   30.8239 N   0  0  0  0  0  0  0  0  0  0  0  0
   41.4634   -5.3139   31.0379 H   0  0  0  0  0  0  0  0  0  0  0  0
   40.3689   -6.6213   31.0607 H   0  0  0  0  0  0  0  0  0  0  0  0
   44.2410   -2.3740   27.9534 C   0  0  0  0  0  0  0  0  0  0  0  0
   44.5056   -0.8926   27.6459 C   0  0  0  0  0  0  0  0  0  0  0  0
   43.7221   -0.3153   26.9177 O   0  0  0  0  0  0  0  0  0  0  0  0
   45.4901   -0.3790   28.1363 O   0  0  0  0  0  0  0  0  0  0  0  0
   43.7056   -3.1288   26.6468 C   0  0  0  0  0  0  0  0  0  0  0  0
   44.6092   -2.9789   25.3670 C   0  0  0  0  0  0  0  0  0  0  0  0
   44.3786   -3.6805   24.3927 O   0  0  0  0  0  0  0  0  0  0  0  0
   45.5247   -2.1553   25.4029 O   0  0  0  0  0  0  0  0  0  0  0  0
  8  9  2  0  0  0
  8 13  1  0  0  0
  8 18  1  0  0  0
  9 10  1  0  0  0
 10 11  2  0  0  0
 11 12  1  0  0  0
 11 14  1  0  0  0
 12 13  2  0  0  0
 12 15  1  0  0  0
 18 19  1  0  0  0
 18 20  2  0  0  0
 14 16  1  0  0  0
 15 16  2  0  0  0
 16  1  1  0  0  0
  1  2  2  0  0  0
  1  6  1  0  0  0
  2  3  1  0  0  0
  3 34  1  0  0  0
  3  4  2  0  0  0
 34 35  1  0  0  0
 34 38  1  0  0  0
 35 36  2  0  0  0
 35 37  1  0  0  0
 38 39  1  0  0  0
 39 40  2  0  0  0
 39 41  1  0  0  0
  4  5  1  0  0  0
  5  6  2  0  0  0
  5 25  1  0  0  0
  6  7  1  0  0  0
 25 26  2  0  0  0
 25 30  1  0  0  0
 26 27  1  0  0  0
 26 31  1  0  0  0
 27 28  2  0  0  0
 28 29  1  0  0  0
 29 30  2  0  0  0
 19 21  1  0  0  0
 19 22  1  0  0  0
 20 23  1  0  0  0
 20 24  1  0  0  0
 14 17  1  0  0  0
 31 32  1  0  0  0
 31 33  1  0  0  0
M  CHG 1   7  -1
M  CHG 1  20   1
M  CHG 1  37  -1
M  CHG 1  41  -1
M  END
> <minimizedAffinity>
-7.46426

$$$$
