1F0R_815_A_401


 34 38  0  0  0  0  0  0  0  0999 V2000
    6.5651    7.8562   23.0438 N   0  0  0  0  0  0  0  0  0  0  0  0
    5.8214    6.7558   23.2938 C   0  0  0  0  0  0  0  0  0  0  0  0
    5.7414    5.9327   22.0201 C   0  0  0  0  0  0  0  0  0  0  0  0
    6.1599    6.9359   20.9380 C   0  0  0  0  0  0  0  0  0  0  0  0
    7.0477    7.9300   21.6599 C   0  0  0  0  0  0  0  0  0  0  0  0
    5.2956    6.4434   24.3560 O   0  0  0  0  0  0  0  0  0  0  0  0
    4.3995    5.4376   21.8104 N   0  0  0  0  0  0  0  0  0  0  0  0
    4.1172    5.7126   20.8696 H   0  0  0  0  0  0  0  0  0  0  0  0
    4.1373    3.7280   21.9505 S   0  0  0  0  0  0  0  0  0  0  0  0
    2.8047    3.6280   21.3943 O   0  0  0  0  0  0  0  0  0  0  0  0
    4.3682    3.4547   23.3447 O   0  0  0  0  0  0  0  0  0  0  0  0
    7.1700    1.6270   19.8875 C   0  0  0  0  0  0  0  0  0  0  0  0
    8.2584    0.9002   19.4252 C   0  0  0  0  0  0  0  0  0  0  0  0
    8.4558    0.6593   18.0383 C   0  0  0  0  0  0  0  0  0  0  0  0
    7.5113    1.1833   17.1213 C   0  0  0  0  0  0  0  0  0  0  0  0
    6.4339    1.8982   17.5561 N   0  0  0  0  0  0  0  0  0  0  0  0
    6.2419    2.1321   18.9058 C   0  0  0  0  0  0  0  0  0  0  0  0
    5.1650    2.8665   19.5705 C   0  0  0  0  0  0  0  0  0  0  0  0
    5.3167    2.8907   20.9658 C   0  0  0  0  0  0  0  0  0  0  0  0
    6.7248    2.0420   21.4655 S   0  0  0  0  0  0  0  0  0  0  0  0
    6.8950    8.8990   24.0290 C   0  0  0  0  0  0  0  0  0  0  0  0
    9.3983    9.4771   23.8372 C   0  0  0  0  0  0  0  0  0  0  0  0
   10.7355    9.3236   24.2855 C   0  0  0  0  0  0  0  0  0  0  0  0
   11.0388    8.4741   25.4011 C   0  0  0  0  0  0  0  0  0  0  0  0
    9.9835    7.7474   26.1027 C   0  0  0  0  0  0  0  0  0  0  0  0
    8.6473    7.8829   25.6784 C   0  0  0  0  0  0  0  0  0  0  0  0
    8.3235    8.7921   24.4850 C   0  0  0  0  0  0  0  0  0  0  0  0
   12.3881    8.3292   25.8324 C   0  0  0  0  0  0  0  0  0  0  0  0
   12.6351    7.4809   26.9290 C   0  0  0  0  0  0  0  0  0  0  0  0
   11.6469    6.7929   27.5953 N   0  0  0  0  0  0  0  0  0  0  0  0
   10.3344    6.9159   27.1992 C   0  0  0  0  0  0  0  0  0  0  0  0
    9.4342    6.2102   27.9043 N   0  0  0  0  0  0  0  0  0  0  0  0
    8.4792    6.2565   27.6694 H   0  0  0  0  0  0  0  0  0  0  0  0
    9.7296    5.6468   28.6557 H   0  0  0  0  0  0  0  0  0  0  0  0
 22 23  2  0  0  0
 22 27  1  0  0  0
 23 24  1  0  0  0
 24 25  2  0  0  0
 24 28  1  0  0  0
 25 26  1  0  0  0
 25 31  1  0  0  0
 26 27  2  0  0  0
 27 21  1  0  0  0
 28 29  2  0  0  0
 29 30  1  0  0  0
 30 31  2  0  0  0
 31 32  1  0  0  0
 12 13  1  0  0  0
 12 17  2  0  0  0
 12 20  1  0  0  0
 13 14  2  0  0  0
 14 15  1  0  0  0
 15 16  2  0  0  0
 16 17  1  0  0  0
 17 18  1  0  0  0
 18 19  2  0  0  0
 19 20  1  0  0  0
 19  9  1  0  0  0
  1  2  1  0  0  0
  1  5  1  0  0  0
  1 21  1  0  0  0
  2  3  1  0  0  0
  2  6  2  0  0  0
  3  4  1  0  0  0
  3  7  1  0  0  0
  4  5  1  0  0  0
  7  9  1  0  0  0
  9 10  2  0  0  0
  9 11  2  0  0  0
  7  8  1  0  0  0
 32 33  1  0  0  0
 32 34  1  0  0  0
M  END
> <minimizedAffinity>
-10.56493

$$$$
1F0R_815_A_401


 34 38  0  0  0  0  0  0  0  0999 V2000
    4.7189    3.8169   21.2018 N   0  0  0  0  0  0  0  0  0  0  0  0
    4.5178    4.2402   22.4693 C   0  0  0  0  0  0  0  0  0  0  0  0
    4.7976    5.7317   22.5259 C   0  0  0  0  0  0  0  0  0  0  0  0
    5.5972    5.9785   21.2405 C   0  0  0  0  0  0  0  0  0  0  0  0
    5.1438    4.8868   20.2917 C   0  0  0  0  0  0  0  0  0  0  0  0
    4.1631    3.5639   23.4281 O   0  0  0  0  0  0  0  0  0  0  0  0
    5.5562    6.0689   23.7093 N   0  0  0  0  0  0  0  0  0  0  0  0
    6.4914    5.6785   23.5928 H   0  0  0  0  0  0  0  0  0  0  0  0
    5.7417    7.7495   24.0994 S   0  0  0  0  0  0  0  0  0  0  0  0
    4.8834    7.8377   25.2616 O   0  0  0  0  0  0  0  0  0  0  0  0
    5.3909    8.4294   22.8803 O   0  0  0  0  0  0  0  0  0  0  0  0
    9.7934    8.7347   24.7931 C   0  0  0  0  0  0  0  0  0  0  0  0
   11.0976    9.2076   24.8387 C   0  0  0  0  0  0  0  0  0  0  0  0
   12.0321    8.7186   25.7915 C   0  0  0  0  0  0  0  0  0  0  0  0
   11.6058    7.7238   26.7059 C   0  0  0  0  0  0  0  0  0  0  0  0
   10.3276    7.2479   26.6785 N   0  0  0  0  0  0  0  0  0  0  0  0
    9.4182    7.7242   25.7515 C   0  0  0  0  0  0  0  0  0  0  0  0
    8.0172    7.3495   25.5571 C   0  0  0  0  0  0  0  0  0  0  0  0
    7.4162    8.0564   24.5038 C   0  0  0  0  0  0  0  0  0  0  0  0
    8.5154    9.1526   23.7670 S   0  0  0  0  0  0  0  0  0  0  0  0
    4.5335    2.4350   20.7293 C   0  0  0  0  0  0  0  0  0  0  0  0
    7.0735    2.0047   20.7525 C   0  0  0  0  0  0  0  0  0  0  0  0
    8.2422    1.4973   20.1287 C   0  0  0  0  0  0  0  0  0  0  0  0
    8.1666    0.8552   18.8480 C   0  0  0  0  0  0  0  0  0  0  0  0
    6.8893    0.7069   18.1547 C   0  0  0  0  0  0  0  0  0  0  0  0
    5.7136    1.2010   18.7524 C   0  0  0  0  0  0  0  0  0  0  0  0
    5.7953    1.8876   20.1227 C   0  0  0  0  0  0  0  0  0  0  0  0
    9.3520    0.3575   18.2361 C   0  0  0  0  0  0  0  0  0  0  0  0
    9.2264   -0.2609   16.9771 C   0  0  0  0  0  0  0  0  0  0  0  0
    8.0271   -0.4046   16.3173 N   0  0  0  0  0  0  0  0  0  0  0  0
    6.8663    0.0671   16.8870 C   0  0  0  0  0  0  0  0  0  0  0  0
    5.7409   -0.1148   16.1757 N   0  0  0  0  0  0  0  0  0  0  0  0
    4.8783    0.2008   16.5299 H   0  0  0  0  0  0  0  0  0  0  0  0
    5.7790   -0.5636   15.3003 H   0  0  0  0  0  0  0  0  0  0  0  0
 22 23  2  0  0  0
 22 27  1  0  0  0
 23 24  1  0  0  0
 24 25  2  0  0  0
 24 28  1  0  0  0
 25 26  1  0  0  0
 25 31  1  0  0  0
 26 27  2  0  0  0
 27 21  1  0  0  0
 28 29  2  0  0  0
 29 30  1  0  0  0
 30 31  2  0  0  0
 31 32  1  0  0  0
 12 13  1  0  0  0
 12 17  2  0  0  0
 12 20  1  0  0  0
 13 14  2  0  0  0
 14 15  1  0  0  0
 15 16  2  0  0  0
 16 17  1  0  0  0
 17 18  1  0  0  0
 18 19  2  0  0  0
 19 20  1  0  0  0
 19  9  1  0  0  0
  1  2  1  0  0  0
  1  5  1  0  0  0
  1 21  1  0  0  0
  2  3  1  0  0  0
  2  6  2  0  0  0
  3  4  1  0  0  0
  3  7  1  0  0  0
  4  5  1  0  0  0
  7  9  1  0  0  0
  9 10  2  0  0  0
  9 11  2  0  0  0
  7  8  1  0  0  0
 32 33  1  0  0  0
 32 34  1  0  0  0
M  END
> <minimizedAffinity>
-9.53880

$$$$
1F0R_815_A_401


 34 38  0  0  0  0  0  0  0  0999 V2000
    4.6707    4.4285   19.5359 N   0  0  0  0  0  0  0  0  0  0  0  0
    5.0376    5.2944   20.5065 C   0  0  0  0  0  0  0  0  0  0  0  0
    4.9808    6.7018   19.9389 C   0  0  0  0  0  0  0  0  0  0  0  0
    4.9651    6.4592   18.4245 C   0  0  0  0  0  0  0  0  0  0  0  0
    4.3484    5.0840   18.2631 C   0  0  0  0  0  0  0  0  0  0  0  0
    5.3585    5.0230   21.6580 O   0  0  0  0  0  0  0  0  0  0  0  0
    6.1327    7.4709   20.3529 N   0  0  0  0  0  0  0  0  0  0  0  0
    6.5098    7.9255   19.5213 H   0  0  0  0  0  0  0  0  0  0  0  0
    5.8946    8.7016   21.5528 S   0  0  0  0  0  0  0  0  0  0  0  0
    4.5867    8.3265   22.0466 O   0  0  0  0  0  0  0  0  0  0  0  0
    6.0753    9.9321   20.8283 O   0  0  0  0  0  0  0  0  0  0  0  0
    8.6225    8.1048   24.7262 C   0  0  0  0  0  0  0  0  0  0  0  0
    9.3435    7.7833   25.8678 C   0  0  0  0  0  0  0  0  0  0  0  0
   10.6742    8.2442   26.0603 C   0  0  0  0  0  0  0  0  0  0  0  0
   11.2609    9.0515   25.0545 C   0  0  0  0  0  0  0  0  0  0  0  0
   10.5694    9.3765   23.9243 N   0  0  0  0  0  0  0  0  0  0  0  0
    9.2745    8.9276   23.7372 C   0  0  0  0  0  0  0  0  0  0  0  0
    8.3712    9.1614   22.6101 C   0  0  0  0  0  0  0  0  0  0  0  0
    7.1258    8.5378   22.7852 C   0  0  0  0  0  0  0  0  0  0  0  0
    7.0477    7.6842   24.2745 S   0  0  0  0  0  0  0  0  0  0  0  0
    4.5776    2.9678   19.6928 C   0  0  0  0  0  0  0  0  0  0  0  0
    7.0314    2.4641   20.2953 C   0  0  0  0  0  0  0  0  0  0  0  0
    8.2692    1.8386   19.9969 C   0  0  0  0  0  0  0  0  0  0  0  0
    8.4136    1.0285   18.8217 C   0  0  0  0  0  0  0  0  0  0  0  0
    7.2946    0.8265   17.9045 C   0  0  0  0  0  0  0  0  0  0  0  0
    6.0544    1.4356   18.1779 C   0  0  0  0  0  0  0  0  0  0  0  0
    5.9006    2.3019   19.4355 C   0  0  0  0  0  0  0  0  0  0  0  0
    9.6659    0.4135   18.5370 C   0  0  0  0  0  0  0  0  0  0  0  0
    9.7585   -0.3685   17.3696 C   0  0  0  0  0  0  0  0  0  0  0  0
    8.7094   -0.5637   16.5005 N   0  0  0  0  0  0  0  0  0  0  0  0
    7.4881    0.0188   16.7525 C   0  0  0  0  0  0  0  0  0  0  0  0
    6.5192   -0.2237   15.8536 N   0  0  0  0  0  0  0  0  0  0  0  0
    5.6234    0.1651   15.9784 H   0  0  0  0  0  0  0  0  0  0  0  0
    6.7052   -0.7901   15.0701 H   0  0  0  0  0  0  0  0  0  0  0  0
 22 23  2  0  0  0
 22 27  1  0  0  0
 23 24  1  0  0  0
 24 25  2  0  0  0
 24 28  1  0  0  0
 25 26  1  0  0  0
 25 31  1  0  0  0
 26 27  2  0  0  0
 27 21  1  0  0  0
 28 29  2  0  0  0
 29 30  1  0  0  0
 30 31  2  0  0  0
 31 32  1  0  0  0
 12 13  1  0  0  0
 12 17  2  0  0  0
 12 20  1  0  0  0
 13 14  2  0  0  0
 14 15  1  0  0  0
 15 16  2  0  0  0
 16 17  1  0  0  0
 17 18  1  0  0  0
 18 19  2  0  0  0
 19 20  1  0  0  0
 19  9  1  0  0  0
  1  2  1  0  0  0
  1  5  1  0  0  0
  1 21  1  0  0  0
  2  3  1  0  0  0
  2  6  2  0  0  0
  3  4  1  0  0  0
  3  7  1  0  0  0
  4  5  1  0  0  0
  7  9  1  0  0  0
  9 10  2  0  0  0
  9 11  2  0  0  0
  7  8  1  0  0  0
 32 33  1  0  0  0
 32 34  1  0  0  0
M  END
> <minimizedAffinity>
-9.28941

$$$$
1F0R_815_A_401


 34 38  0  0  0  0  0  0  0  0999 V2000
    5.7352    3.6819   21.8508 N   0  0  0  0  0  0  0  0  0  0  0  0
    4.8835    4.4190   22.5976 C   0  0  0  0  0  0  0  0  0  0  0  0
    5.1069    5.8852   22.2713 C   0  0  0  0  0  0  0  0  0  0  0  0
    6.4794    5.8777   21.5868 C   0  0  0  0  0  0  0  0  0  0  0  0
    6.5999    4.4918   20.9849 C   0  0  0  0  0  0  0  0  0  0  0  0
    4.0563    4.0053   23.4020 O   0  0  0  0  0  0  0  0  0  0  0  0
    5.1056    6.6865   23.4745 N   0  0  0  0  0  0  0  0  0  0  0  0
    5.7342    6.2369   24.1402 H   0  0  0  0  0  0  0  0  0  0  0  0
    5.5938    8.3463   23.3412 S   0  0  0  0  0  0  0  0  0  0  0  0
    4.6564    8.9620   24.2563 O   0  0  0  0  0  0  0  0  0  0  0  0
    5.5200    8.6174   21.9295 O   0  0  0  0  0  0  0  0  0  0  0  0
    9.6403    8.9445   24.4068 C   0  0  0  0  0  0  0  0  0  0  0  0
   10.9763    9.2845   24.5682 C   0  0  0  0  0  0  0  0  0  0  0  0
   11.7581    8.7436   25.6248 C   0  0  0  0  0  0  0  0  0  0  0  0
   11.1435    7.8359   26.5226 C   0  0  0  0  0  0  0  0  0  0  0  0
    9.8311    7.4911   26.3821 N   0  0  0  0  0  0  0  0  0  0  0  0
    9.0705    8.0179   25.3539 C   0  0  0  0  0  0  0  0  0  0  0  0
    7.6633    7.7791   25.0318 C   0  0  0  0  0  0  0  0  0  0  0  0
    7.2443    8.4988   23.9018 C   0  0  0  0  0  0  0  0  0  0  0  0
    8.5183    9.4466   23.2450 S   0  0  0  0  0  0  0  0  0  0  0  0
    5.8183    2.2121   21.8609 C   0  0  0  0  0  0  0  0  0  0  0  0
    4.8186    1.4105   19.6258 C   0  0  0  0  0  0  0  0  0  0  0  0
    4.9858    0.8609   18.3287 C   0  0  0  0  0  0  0  0  0  0  0  0
    6.2939    0.5408   17.8342 C   0  0  0  0  0  0  0  0  0  0  0  0
    7.4840    0.7713   18.6493 C   0  0  0  0  0  0  0  0  0  0  0  0
    7.3460    1.3168   19.9405 C   0  0  0  0  0  0  0  0  0  0  0  0
    5.9463    1.6593   20.4688 C   0  0  0  0  0  0  0  0  0  0  0  0
    6.4402   -0.0152   16.5315 C   0  0  0  0  0  0  0  0  0  0  0  0
    7.7441   -0.3163   16.0930 C   0  0  0  0  0  0  0  0  0  0  0  0
    8.8703   -0.1023   16.8546 N   0  0  0  0  0  0  0  0  0  0  0  0
    8.7569    0.4346   18.1169 C   0  0  0  0  0  0  0  0  0  0  0  0
    9.9057    0.6105   18.7913 N   0  0  0  0  0  0  0  0  0  0  0  0
    9.8902    0.9907   19.6993 H   0  0  0  0  0  0  0  0  0  0  0  0
   10.7629    0.3593   18.3773 H   0  0  0  0  0  0  0  0  0  0  0  0
 22 23  2  0  0  0
 22 27  1  0  0  0
 23 24  1  0  0  0
 24 25  2  0  0  0
 24 28  1  0  0  0
 25 26  1  0  0  0
 25 31  1  0  0  0
 26 27  2  0  0  0
 27 21  1  0  0  0
 28 29  2  0  0  0
 29 30  1  0  0  0
 30 31  2  0  0  0
 31 32  1  0  0  0
 12 13  1  0  0  0
 12 17  2  0  0  0
 12 20  1  0  0  0
 13 14  2  0  0  0
 14 15  1  0  0  0
 15 16  2  0  0  0
 16 17  1  0  0  0
 17 18  1  0  0  0
 18 19  2  0  0  0
 19 20  1  0  0  0
 19  9  1  0  0  0
  1  2  1  0  0  0
  1  5  1  0  0  0
  1 21  1  0  0  0
  2  3  1  0  0  0
  2  6  2  0  0  0
  3  4  1  0  0  0
  3  7  1  0  0  0
  4  5  1  0  0  0
  7  9  1  0  0  0
  9 10  2  0  0  0
  9 11  2  0  0  0
  7  8  1  0  0  0
 32 33  1  0  0  0
 32 34  1  0  0  0
M  END
> <minimizedAffinity>
-9.18040

$$$$
1F0R_815_A_401


 34 38  0  0  0  0  0  0  0  0999 V2000
    5.5574    3.8563   21.5589 N   0  0  0  0  0  0  0  0  0  0  0  0
    6.4431    4.8481   21.3177 C   0  0  0  0  0  0  0  0  0  0  0  0
    5.6916    6.1677   21.3027 C   0  0  0  0  0  0  0  0  0  0  0  0
    4.2327    5.7282   21.1268 C   0  0  0  0  0  0  0  0  0  0  0  0
    4.1788    4.3335   21.7180 C   0  0  0  0  0  0  0  0  0  0  0  0
    7.6514    4.7356   21.1448 O   0  0  0  0  0  0  0  0  0  0  0  0
    6.1411    7.0038   20.2125 N   0  0  0  0  0  0  0  0  0  0  0  0
    5.3516    7.1278   19.5786 H   0  0  0  0  0  0  0  0  0  0  0  0
    6.7461    8.5831   20.6009 S   0  0  0  0  0  0  0  0  0  0  0  0
    5.4998    9.2897   20.8078 O   0  0  0  0  0  0  0  0  0  0  0  0
    7.5953    8.9131   19.4867 O   0  0  0  0  0  0  0  0  0  0  0  0
    8.7336    8.1610   24.3075 C   0  0  0  0  0  0  0  0  0  0  0  0
    9.1904    7.9078   25.5935 C   0  0  0  0  0  0  0  0  0  0  0  0
   10.4674    8.3545   26.0296 C   0  0  0  0  0  0  0  0  0  0  0  0
   11.2775    9.0758   25.1180 C   0  0  0  0  0  0  0  0  0  0  0  0
   10.8473    9.3327   23.8492 N   0  0  0  0  0  0  0  0  0  0  0  0
    9.6048    8.8975   23.4250 C   0  0  0  0  0  0  0  0  0  0  0  0
    8.9637    9.0679   22.1208 C   0  0  0  0  0  0  0  0  0  0  0  0
    7.6883    8.4836   22.0720 C   0  0  0  0  0  0  0  0  0  0  0  0
    7.2733    7.7407   23.5649 S   0  0  0  0  0  0  0  0  0  0  0  0
    5.8933    2.4274   21.6707 C   0  0  0  0  0  0  0  0  0  0  0  0
    4.9161    1.4897   19.4790 C   0  0  0  0  0  0  0  0  0  0  0  0
    5.0961    0.8599   18.2207 C   0  0  0  0  0  0  0  0  0  0  0  0
    6.4087    0.5070   17.7616 C   0  0  0  0  0  0  0  0  0  0  0  0
    7.5905    0.7858   18.5740 C   0  0  0  0  0  0  0  0  0  0  0  0
    7.4396    1.4111   19.8271 C   0  0  0  0  0  0  0  0  0  0  0  0
    6.0351    1.7885   20.3174 C   0  0  0  0  0  0  0  0  0  0  0  0
    6.5679   -0.1294   16.4979 C   0  0  0  0  0  0  0  0  0  0  0  0
    7.8758   -0.4597   16.0936 C   0  0  0  0  0  0  0  0  0  0  0  0
    8.9941   -0.2007   16.8528 N   0  0  0  0  0  0  0  0  0  0  0  0
    8.8682    0.4141   18.0778 C   0  0  0  0  0  0  0  0  0  0  0  0
   10.0100    0.6297   18.7526 N   0  0  0  0  0  0  0  0  0  0  0  0
    9.9856    1.0658   19.6349 H   0  0  0  0  0  0  0  0  0  0  0  0
   10.8711    0.3515   18.3647 H   0  0  0  0  0  0  0  0  0  0  0  0
 22 23  2  0  0  0
 22 27  1  0  0  0
 23 24  1  0  0  0
 24 25  2  0  0  0
 24 28  1  0  0  0
 25 26  1  0  0  0
 25 31  1  0  0  0
 26 27  2  0  0  0
 27 21  1  0  0  0
 28 29  2  0  0  0
 29 30  1  0  0  0
 30 31  2  0  0  0
 31 32  1  0  0  0
 12 13  1  0  0  0
 12 17  2  0  0  0
 12 20  1  0  0  0
 13 14  2  0  0  0
 14 15  1  0  0  0
 15 16  2  0  0  0
 16 17  1  0  0  0
 17 18  1  0  0  0
 18 19  2  0  0  0
 19 20  1  0  0  0
 19  9  1  0  0  0
  1  2  1  0  0  0
  1  5  1  0  0  0
  1 21  1  0  0  0
  2  3  1  0  0  0
  2  6  2  0  0  0
  3  4  1  0  0  0
  3  7  1  0  0  0
  4  5  1  0  0  0
  7  9  1  0  0  0
  9 10  2  0  0  0
  9 11  2  0  0  0
  7  8  1  0  0  0
 32 33  1  0  0  0
 32 34  1  0  0  0
M  END
> <minimizedAffinity>
-9.15298

$$$$
1F0R_815_A_401


 34 38  0  0  0  0  0  0  0  0999 V2000
    6.5668    7.8385   23.2545 N   0  0  0  0  0  0  0  0  0  0  0  0
    7.0654    7.3315   22.1053 C   0  0  0  0  0  0  0  0  0  0  0  0
    6.2747    6.0847   21.7495 C   0  0  0  0  0  0  0  0  0  0  0  0
    5.5802    5.7318   23.0707 C   0  0  0  0  0  0  0  0  0  0  0  0
    5.4548    7.0533   23.8025 C   0  0  0  0  0  0  0  0  0  0  0  0
    7.9898    7.7811   21.4375 O   0  0  0  0  0  0  0  0  0  0  0  0
    7.1534    5.0286   21.2999 N   0  0  0  0  0  0  0  0  0  0  0  0
    7.4452    4.5039   22.1245 H   0  0  0  0  0  0  0  0  0  0  0  0
    6.5248    3.8861   20.1550 S   0  0  0  0  0  0  0  0  0  0  0  0
    7.6745    3.0202   20.0015 O   0  0  0  0  0  0  0  0  0  0  0  0
    6.0762    4.7042   19.0591 O   0  0  0  0  0  0  0  0  0  0  0  0
    3.0310    2.1059   21.7337 C   0  0  0  0  0  0  0  0  0  0  0  0
    1.7681    1.6904   22.1327 C   0  0  0  0  0  0  0  0  0  0  0  0
    1.5916    0.5790   23.0009 C   0  0  0  0  0  0  0  0  0  0  0  0
    2.7427   -0.1066   23.4619 C   0  0  0  0  0  0  0  0  0  0  0  0
    3.9922    0.2850   23.0794 N   0  0  0  0  0  0  0  0  0  0  0  0
    4.1636    1.3664   22.2341 C   0  0  0  0  0  0  0  0  0  0  0  0
    5.4037    1.9411   21.7116 C   0  0  0  0  0  0  0  0  0  0  0  0
    5.1706    3.0458   20.8775 C   0  0  0  0  0  0  0  0  0  0  0  0
    3.4924    3.3811   20.7230 S   0  0  0  0  0  0  0  0  0  0  0  0
    7.0485    9.0584   23.9230 C   0  0  0  0  0  0  0  0  0  0  0  0
    9.5809    9.5015   23.7550 C   0  0  0  0  0  0  0  0  0  0  0  0
   10.9009    9.2983   24.2332 C   0  0  0  0  0  0  0  0  0  0  0  0
   11.1422    8.4787   25.3857 C   0  0  0  0  0  0  0  0  0  0  0  0
   10.0398    7.8341   26.0951 C   0  0  0  0  0  0  0  0  0  0  0  0
    8.7194    8.0202   25.6416 C   0  0  0  0  0  0  0  0  0  0  0  0
    8.4620    8.8974   24.4087 C   0  0  0  0  0  0  0  0  0  0  0  0
   12.4750    8.2827   25.8467 C   0  0  0  0  0  0  0  0  0  0  0  0
   12.6605    7.4665   26.9792 C   0  0  0  0  0  0  0  0  0  0  0  0
   11.6276    6.8557   27.6531 N   0  0  0  0  0  0  0  0  0  0  0  0
   10.3298    7.0292   27.2287 C   0  0  0  0  0  0  0  0  0  0  0  0
    9.3833    6.3979   27.9436 N   0  0  0  0  0  0  0  0  0  0  0  0
    8.4359    6.4832   27.6897 H   0  0  0  0  0  0  0  0  0  0  0  0
    9.6371    5.8501   28.7212 H   0  0  0  0  0  0  0  0  0  0  0  0
 22 23  2  0  0  0
 22 27  1  0  0  0
 23 24  1  0  0  0
 24 25  2  0  0  0
 24 28  1  0  0  0
 25 26  1  0  0  0
 25 31  1  0  0  0
 26 27  2  0  0  0
 27 21  1  0  0  0
 28 29  2  0  0  0
 29 30  1  0  0  0
 30 31  2  0  0  0
 31 32  1  0  0  0
 12 13  1  0  0  0
 12 17  2  0  0  0
 12 20  1  0  0  0
 13 14  2  0  0  0
 14 15  1  0  0  0
 15 16  2  0  0  0
 16 17  1  0  0  0
 17 18  1  0  0  0
 18 19  2  0  0  0
 19 20  1  0  0  0
 19  9  1  0  0  0
  1  2  1  0  0  0
  1  5  1  0  0  0
  1 21  1  0  0  0
  2  3  1  0  0  0
  2  6  2  0  0  0
  3  4  1  0  0  0
  3  7  1  0  0  0
  4  5  1  0  0  0
  7  9  1  0  0  0
  9 10  2  0  0  0
  9 11  2  0  0  0
  7  8  1  0  0  0
 32 33  1  0  0  0
 32 34  1  0  0  0
M  END
> <minimizedAffinity>
-9.07460

$$$$
1F0R_815_A_401


 34 38  0  0  0  0  0  0  0  0999 V2000
    6.2644    3.1679   21.4166 N   0  0  0  0  0  0  0  0  0  0  0  0
    6.9267    4.3074   21.1178 C   0  0  0  0  0  0  0  0  0  0  0  0
    5.9751    5.4764   21.3022 C   0  0  0  0  0  0  0  0  0  0  0  0
    4.5990    4.7990   21.3103 C   0  0  0  0  0  0  0  0  0  0  0  0
    4.8675    3.3921   21.8063 C   0  0  0  0  0  0  0  0  0  0  0  0
    8.0955    4.4132   20.7641 O   0  0  0  0  0  0  0  0  0  0  0  0
    6.1067    6.4235   20.2180 N   0  0  0  0  0  0  0  0  0  0  0  0
    5.2810    6.3262   19.6271 H   0  0  0  0  0  0  0  0  0  0  0  0
    6.2565    8.1035   20.6256 S   0  0  0  0  0  0  0  0  0  0  0  0
    4.9293    8.3594   21.1437 O   0  0  0  0  0  0  0  0  0  0  0  0
    6.6926    8.7203   19.4004 O   0  0  0  0  0  0  0  0  0  0  0  0
    9.4071    8.7411   23.3706 C   0  0  0  0  0  0  0  0  0  0  0  0
   10.5379    9.0820   24.0997 C   0  0  0  0  0  0  0  0  0  0  0  0
   10.7413    8.6029   25.4223 C   0  0  0  0  0  0  0  0  0  0  0  0
    9.7580    7.7567   25.9922 C   0  0  0  0  0  0  0  0  0  0  0  0
    8.6387    7.4122   25.2926 N   0  0  0  0  0  0  0  0  0  0  0  0
    8.4409    7.8789   24.0056 C   0  0  0  0  0  0  0  0  0  0  0  0
    7.3224    7.6294   23.0958 C   0  0  0  0  0  0  0  0  0  0  0  0
    7.4818    8.2801   21.8622 C   0  0  0  0  0  0  0  0  0  0  0  0
    8.9462    9.1771   21.8027 S   0  0  0  0  0  0  0  0  0  0  0  0
    6.8442    1.8152   21.3806 C   0  0  0  0  0  0  0  0  0  0  0  0
    8.1793    1.0004   19.3333 C   0  0  0  0  0  0  0  0  0  0  0  0
    8.2175    0.5364   17.9933 C   0  0  0  0  0  0  0  0  0  0  0  0
    7.0048    0.3519   17.2493 C   0  0  0  0  0  0  0  0  0  0  0  0
    5.7033    0.6355   17.8491 C   0  0  0  0  0  0  0  0  0  0  0  0
    5.6372    1.0965   19.1783 C   0  0  0  0  0  0  0  0  0  0  0  0
    6.9350    1.2934   19.9737 C   0  0  0  0  0  0  0  0  0  0  0  0
    7.0648   -0.1096   15.9036 C   0  0  0  0  0  0  0  0  0  0  0  0
    5.8475   -0.2708   15.2141 C   0  0  0  0  0  0  0  0  0  0  0  0
    4.6175   -0.0059   15.7717 N   0  0  0  0  0  0  0  0  0  0  0  0
    4.5314    0.4407   17.0708 C   0  0  0  0  0  0  0  0  0  0  0  0
    3.2927    0.6744   17.5361 N   0  0  0  0  0  0  0  0  0  0  0  0
    3.1656    0.9953   18.4581 H   0  0  0  0  0  0  0  0  0  0  0  0
    2.5122    0.5246   16.9550 H   0  0  0  0  0  0  0  0  0  0  0  0
 22 23  2  0  0  0
 22 27  1  0  0  0
 23 24  1  0  0  0
 24 25  2  0  0  0
 24 28  1  0  0  0
 25 26  1  0  0  0
 25 31  1  0  0  0
 26 27  2  0  0  0
 27 21  1  0  0  0
 28 29  2  0  0  0
 29 30  1  0  0  0
 30 31  2  0  0  0
 31 32  1  0  0  0
 12 13  1  0  0  0
 12 17  2  0  0  0
 12 20  1  0  0  0
 13 14  2  0  0  0
 14 15  1  0  0  0
 15 16  2  0  0  0
 16 17  1  0  0  0
 17 18  1  0  0  0
 18 19  2  0  0  0
 19 20  1  0  0  0
 19  9  1  0  0  0
  1  2  1  0  0  0
  1  5  1  0  0  0
  1 21  1  0  0  0
  2  3  1  0  0  0
  2  6  2  0  0  0
  3  4  1  0  0  0
  3  7  1  0  0  0
  4  5  1  0  0  0
  7  9  1  0  0  0
  9 10  2  0  0  0
  9 11  2  0  0  0
  7  8  1  0  0  0
 32 33  1  0  0  0
 32 34  1  0  0  0
M  END
> <minimizedAffinity>
-8.88133

$$$$
1F0R_815_A_401


 34 38  0  0  0  0  0  0  0  0999 V2000
    4.4731    4.5694   19.7771 N   0  0  0  0  0  0  0  0  0  0  0  0
    5.0814    5.6338   19.2085 C   0  0  0  0  0  0  0  0  0  0  0  0
    4.9770    6.8107   20.1626 C   0  0  0  0  0  0  0  0  0  0  0  0
    3.8599    6.3767   21.1198 C   0  0  0  0  0  0  0  0  0  0  0  0
    3.9032    4.8617   21.0974 C   0  0  0  0  0  0  0  0  0  0  0  0
    5.6373    5.6728   18.1168 O   0  0  0  0  0  0  0  0  0  0  0  0
    4.6402    8.0227   19.4504 N   0  0  0  0  0  0  0  0  0  0  0  0
    3.7811    8.3883   19.8612 H   0  0  0  0  0  0  0  0  0  0  0  0
    5.8031    9.3106   19.4509 S   0  0  0  0  0  0  0  0  0  0  0  0
    4.9244   10.4475   19.6253 O   0  0  0  0  0  0  0  0  0  0  0  0
    6.5235    9.1280   18.2183 O   0  0  0  0  0  0  0  0  0  0  0  0
    8.6757    8.7674   22.5039 C   0  0  0  0  0  0  0  0  0  0  0  0
    9.7743    8.5678   23.3285 C   0  0  0  0  0  0  0  0  0  0  0  0
    9.6454    8.5399   24.7437 C   0  0  0  0  0  0  0  0  0  0  0  0
    8.3581    8.7190   25.3078 C   0  0  0  0  0  0  0  0  0  0  0  0
    7.2665    8.9188   24.5143 N   0  0  0  0  0  0  0  0  0  0  0  0
    7.3923    8.9462   23.1371 C   0  0  0  0  0  0  0  0  0  0  0  0
    6.3587    9.1440   22.1204 C   0  0  0  0  0  0  0  0  0  0  0  0
    6.8774    9.1043   20.8166 C   0  0  0  0  0  0  0  0  0  0  0  0
    8.5751    8.8391   20.8170 S   0  0  0  0  0  0  0  0  0  0  0  0
    4.3750    3.2283   19.1780 C   0  0  0  0  0  0  0  0  0  0  0  0
    6.7310    2.7603   20.1094 C   0  0  0  0  0  0  0  0  0  0  0  0
    7.9927    2.1205   20.0026 C   0  0  0  0  0  0  0  0  0  0  0  0
    8.2783    1.2480   18.9002 C   0  0  0  0  0  0  0  0  0  0  0  0
    7.2817    0.9956   17.8623 C   0  0  0  0  0  0  0  0  0  0  0  0
    6.0207    1.6175   17.9449 C   0  0  0  0  0  0  0  0  0  0  0  0
    5.7158    2.5506   19.1247 C   0  0  0  0  0  0  0  0  0  0  0  0
    9.5527    0.6197   18.8083 C   0  0  0  0  0  0  0  0  0  0  0  0
    9.7861   -0.2244   17.7055 C   0  0  0  0  0  0  0  0  0  0  0  0
    8.8529   -0.4675   16.7236 N   0  0  0  0  0  0  0  0  0  0  0  0
    7.6131    0.1268   16.7889 C   0  0  0  0  0  0  0  0  0  0  0  0
    6.7630   -0.1650   15.7900 N   0  0  0  0  0  0  0  0  0  0  0  0
    5.8609    0.2292   15.7805 H   0  0  0  0  0  0  0  0  0  0  0  0
    7.0422   -0.7729   15.0677 H   0  0  0  0  0  0  0  0  0  0  0  0
 22 23  2  0  0  0
 22 27  1  0  0  0
 23 24  1  0  0  0
 24 25  2  0  0  0
 24 28  1  0  0  0
 25 26  1  0  0  0
 25 31  1  0  0  0
 26 27  2  0  0  0
 27 21  1  0  0  0
 28 29  2  0  0  0
 29 30  1  0  0  0
 30 31  2  0  0  0
 31 32  1  0  0  0
 12 13  1  0  0  0
 12 17  2  0  0  0
 12 20  1  0  0  0
 13 14  2  0  0  0
 14 15  1  0  0  0
 15 16  2  0  0  0
 16 17  1  0  0  0
 17 18  1  0  0  0
 18 19  2  0  0  0
 19 20  1  0  0  0
 19  9  1  0  0  0
  1  2  1  0  0  0
  1  5  1  0  0  0
  1 21  1  0  0  0
  2  3  1  0  0  0
  2  6  2  0  0  0
  3  4  1  0  0  0
  3  7  1  0  0  0
  4  5  1  0  0  0
  7  9  1  0  0  0
  9 10  2  0  0  0
  9 11  2  0  0  0
  7  8  1  0  0  0
 32 33  1  0  0  0
 32 34  1  0  0  0
M  END
> <minimizedAffinity>
-8.39497

$$$$
1F0R_815_A_401


 34 38  0  0  0  0  0  0  0  0999 V2000
    6.3991    7.8474   23.3399 N   0  0  0  0  0  0  0  0  0  0  0  0
    6.7518    7.2967   22.1572 C   0  0  0  0  0  0  0  0  0  0  0  0
    5.9326    6.0344   21.9537 C   0  0  0  0  0  0  0  0  0  0  0  0
    5.4144    5.7319   23.3653 C   0  0  0  0  0  0  0  0  0  0  0  0
    5.3722    7.0809   24.0551 C   0  0  0  0  0  0  0  0  0  0  0  0
    7.5802    7.7224   21.3603 O   0  0  0  0  0  0  0  0  0  0  0  0
    6.7556    4.9640   21.4375 N   0  0  0  0  0  0  0  0  0  0  0  0
    7.4273    4.7187   22.1649 H   0  0  0  0  0  0  0  0  0  0  0  0
    5.9642    3.4992   20.9484 S   0  0  0  0  0  0  0  0  0  0  0  0
    4.6392    3.7352   21.4813 O   0  0  0  0  0  0  0  0  0  0  0  0
    6.7946    2.4575   21.4934 O   0  0  0  0  0  0  0  0  0  0  0  0
    6.0678    2.9453   16.7591 C   0  0  0  0  0  0  0  0  0  0  0  0
    6.1762    2.5442   15.4348 C   0  0  0  0  0  0  0  0  0  0  0  0
    5.8755    3.4289   14.3637 C   0  0  0  0  0  0  0  0  0  0  0  0
    5.4600    4.7474   14.6740 C   0  0  0  0  0  0  0  0  0  0  0  0
    5.3451    5.1599   15.9692 N   0  0  0  0  0  0  0  0  0  0  0  0
    5.6374    4.2986   17.0113 C   0  0  0  0  0  0  0  0  0  0  0  0
    5.5796    4.5421   18.4530 C   0  0  0  0  0  0  0  0  0  0  0  0
    5.9560    3.4153   19.2007 C   0  0  0  0  0  0  0  0  0  0  0  0
    6.3659    2.0895   18.1873 S   0  0  0  0  0  0  0  0  0  0  0  0
    6.9518    9.0943   23.8937 C   0  0  0  0  0  0  0  0  0  0  0  0
    9.4907    9.4408   23.6264 C   0  0  0  0  0  0  0  0  0  0  0  0
   10.8178    9.2193   24.0760 C   0  0  0  0  0  0  0  0  0  0  0  0
   11.0685    8.4566   25.2649 C   0  0  0  0  0  0  0  0  0  0  0  0
    9.9686    7.8900   26.0416 C   0  0  0  0  0  0  0  0  0  0  0  0
    8.6413    8.0958   25.6176 C   0  0  0  0  0  0  0  0  0  0  0  0
    8.3739    8.9121   24.3457 C   0  0  0  0  0  0  0  0  0  0  0  0
   12.4081    8.2409   25.6966 C   0  0  0  0  0  0  0  0  0  0  0  0
   12.6025    7.4823   26.8671 C   0  0  0  0  0  0  0  0  0  0  0  0
   11.5720    6.9451   27.6043 N   0  0  0  0  0  0  0  0  0  0  0  0
   10.2678    7.1392   27.2094 C   0  0  0  0  0  0  0  0  0  0  0  0
    9.3243    6.5808   27.9862 N   0  0  0  0  0  0  0  0  0  0  0  0
    8.3726    6.6842   27.7561 H   0  0  0  0  0  0  0  0  0  0  0  0
    9.5846    6.0682   28.7854 H   0  0  0  0  0  0  0  0  0  0  0  0
 22 23  2  0  0  0
 22 27  1  0  0  0
 23 24  1  0  0  0
 24 25  2  0  0  0
 24 28  1  0  0  0
 25 26  1  0  0  0
 25 31  1  0  0  0
 26 27  2  0  0  0
 27 21  1  0  0  0
 28 29  2  0  0  0
 29 30  1  0  0  0
 30 31  2  0  0  0
 31 32  1  0  0  0
 12 13  1  0  0  0
 12 17  2  0  0  0
 12 20  1  0  0  0
 13 14  2  0  0  0
 14 15  1  0  0  0
 15 16  2  0  0  0
 16 17  1  0  0  0
 17 18  1  0  0  0
 18 19  2  0  0  0
 19 20  1  0  0  0
 19  9  1  0  0  0
  1  2  1  0  0  0
  1  5  1  0  0  0
  1 21  1  0  0  0
  2  3  1  0  0  0
  2  6  2  0  0  0
  3  4  1  0  0  0
  3  7  1  0  0  0
  4  5  1  0  0  0
  7  9  1  0  0  0
  9 10  2  0  0  0
  9 11  2  0  0  0
  7  8  1  0  0  0
 32 33  1  0  0  0
 32 34  1  0  0  0
M  END
> <minimizedAffinity>
-8.34186

$$$$
1F0R_815_A_401


 34 38  0  0  0  0  0  0  0  0999 V2000
    7.2421    2.4735   20.5462 N   0  0  0  0  0  0  0  0  0  0  0  0
    6.5900    3.6427   20.7305 C   0  0  0  0  0  0  0  0  0  0  0  0
    5.5170    3.4313   21.7843 C   0  0  0  0  0  0  0  0  0  0  0  0
    5.3769    1.9045   21.8279 C   0  0  0  0  0  0  0  0  0  0  0  0
    6.7288    1.3829   21.3832 C   0  0  0  0  0  0  0  0  0  0  0  0
    6.8080    4.7088   20.1664 O   0  0  0  0  0  0  0  0  0  0  0  0
    4.2828    4.0781   21.3995 N   0  0  0  0  0  0  0  0  0  0  0  0
    3.5630    3.3570   21.3531 H   0  0  0  0  0  0  0  0  0  0  0  0
    3.6812    5.3451   22.4212 S   0  0  0  0  0  0  0  0  0  0  0  0
    3.7135    4.6752   23.7040 O   0  0  0  0  0  0  0  0  0  0  0  0
    2.4252    5.7089   21.8198 O   0  0  0  0  0  0  0  0  0  0  0  0
    6.4751    8.5102   22.6307 C   0  0  0  0  0  0  0  0  0  0  0  0
    7.4426    9.4640   22.9149 C   0  0  0  0  0  0  0  0  0  0  0  0
    7.7648   10.4939   21.9898 C   0  0  0  0  0  0  0  0  0  0  0  0
    7.0701   10.5337   20.7555 C   0  0  0  0  0  0  0  0  0  0  0  0
    6.1175    9.6041   20.4567 N   0  0  0  0  0  0  0  0  0  0  0  0
    5.8045    8.6018   21.3571 C   0  0  0  0  0  0  0  0  0  0  0  0
    4.8258    7.5214   21.2310 C   0  0  0  0  0  0  0  0  0  0  0  0
    4.7931    6.6950   22.3653 C   0  0  0  0  0  0  0  0  0  0  0  0
    5.9215    7.2070   23.5558 S   0  0  0  0  0  0  0  0  0  0  0  0
    8.3670    2.2663   19.6194 C   0  0  0  0  0  0  0  0  0  0  0  0
    6.7043    1.2624   17.9268 C   0  0  0  0  0  0  0  0  0  0  0  0
    6.3991    0.3200   16.9113 C   0  0  0  0  0  0  0  0  0  0  0  0
    7.3909   -0.6122   16.4579 C   0  0  0  0  0  0  0  0  0  0  0  0
    8.7363   -0.6161   17.0271 C   0  0  0  0  0  0  0  0  0  0  0  0
    9.0657    0.3097   18.0362 C   0  0  0  0  0  0  0  0  0  0  0  0
    8.0042    1.3069   18.5205 C   0  0  0  0  0  0  0  0  0  0  0  0
    7.0631   -1.5538   15.4414 C   0  0  0  0  0  0  0  0  0  0  0  0
    8.0694   -2.4505   15.0334 C   0  0  0  0  0  0  0  0  0  0  0  0
    9.3390   -2.4608   15.5644 N   0  0  0  0  0  0  0  0  0  0  0  0
    9.6821   -1.5609   16.5477 C   0  0  0  0  0  0  0  0  0  0  0  0
   10.9413   -1.6398   17.0099 N   0  0  0  0  0  0  0  0  0  0  0  0
   11.2469   -1.0230   17.7138 H   0  0  0  0  0  0  0  0  0  0  0  0
   11.5584   -2.3144   16.6447 H   0  0  0  0  0  0  0  0  0  0  0  0
 22 23  2  0  0  0
 22 27  1  0  0  0
 23 24  1  0  0  0
 24 25  2  0  0  0
 24 28  1  0  0  0
 25 26  1  0  0  0
 25 31  1  0  0  0
 26 27  2  0  0  0
 27 21  1  0  0  0
 28 29  2  0  0  0
 29 30  1  0  0  0
 30 31  2  0  0  0
 31 32  1  0  0  0
 12 13  1  0  0  0
 12 17  2  0  0  0
 12 20  1  0  0  0
 13 14  2  0  0  0
 14 15  1  0  0  0
 15 16  2  0  0  0
 16 17  1  0  0  0
 17 18  1  0  0  0
 18 19  2  0  0  0
 19 20  1  0  0  0
 19  9  1  0  0  0
  1  2  1  0  0  0
  1  5  1  0  0  0
  1 21  1  0  0  0
  2  3  1  0  0  0
  2  6  2  0  0  0
  3  4  1  0  0  0
  3  7  1  0  0  0
  4  5  1  0  0  0
  7  9  1  0  0  0
  9 10  2  0  0  0
  9 11  2  0  0  0
  7  8  1  0  0  0
 32 33  1  0  0  0
 32 34  1  0  0  0
M  END
> <minimizedAffinity>
-7.74943

$$$$
