1J14_BEN_A_1


 12 12  0  0  0  0  0  0  0  0999 V2000
    7.9196   50.4900   55.5679 C   0  0  0  0  0  0  0  0  0  0  0  0
    7.9232   50.3318   56.9669 C   0  0  0  0  0  0  0  0  0  0  0  0
    8.1292   49.0642   57.5418 C   0  0  0  0  0  0  0  0  0  0  0  0
    8.3423   47.9467   56.7150 C   0  0  0  0  0  0  0  0  0  0  0  0
    8.3452   48.1002   55.3172 C   0  0  0  0  0  0  0  0  0  0  0  0
    8.1299   49.3669   54.7490 C   0  0  0  0  0  0  0  0  0  0  0  0
    7.6937   51.8572   54.9497 C   0  0  0  0  0  0  0  0  0  0  0  0
    7.5428   52.9020   55.7250 N   0  0  0  0  0  0  0  0  0  0  0  0
    7.6645   51.9698   53.6531 N   0  0  0  0  0  0  0  0  0  0  0  0
    7.5680   52.7966   56.7035 H   0  0  0  0  0  0  0  0  0  0  0  0
    7.7799   51.1726   53.0871 H   0  0  0  0  0  0  0  0  0  0  0  0
    7.5270   52.8521   53.2386 H   0  0  0  0  0  0  0  0  0  0  0  0
  1  2  2  0  0  0
  1  6  1  0  0  0
  1  7  1  0  0  0
  2  3  1  0  0  0
  3  4  2  0  0  0
  4  5  1  0  0  0
  5  6  2  0  0  0
  7  8  2  0  0  0
  7  9  1  0  0  0
  8 10  1  0  0  0
  9 11  1  0  0  0
  9 12  1  0  0  0
M  END
> <minimizedAffinity>
-5.82315

$$$$
1J14_BEN_A_1


 12 12  0  0  0  0  0  0  0  0999 V2000
    7.9206   50.4932   55.5680 C   0  0  0  0  0  0  0  0  0  0  0  0
    8.1283   49.3654   54.7510 C   0  0  0  0  0  0  0  0  0  0  0  0
    8.3417   48.0981   55.3239 C   0  0  0  0  0  0  0  0  0  0  0  0
    8.3388   47.9526   56.7227 C   0  0  0  0  0  0  0  0  0  0  0  0
    8.1263   49.0748   57.5430 C   0  0  0  0  0  0  0  0  0  0  0  0
    7.9229   50.3391   56.9652 C   0  0  0  0  0  0  0  0  0  0  0  0
    7.6942   51.8597   54.9484 C   0  0  0  0  0  0  0  0  0  0  0  0
    7.5454   52.9055   55.7225 N   0  0  0  0  0  0  0  0  0  0  0  0
    7.6624   51.9705   53.6517 N   0  0  0  0  0  0  0  0  0  0  0  0
    7.5724   52.8015   56.7011 H   0  0  0  0  0  0  0  0  0  0  0  0
    7.7763   51.1725   53.0865 H   0  0  0  0  0  0  0  0  0  0  0  0
    7.5245   52.8523   53.2362 H   0  0  0  0  0  0  0  0  0  0  0  0
  1  2  2  0  0  0
  1  6  1  0  0  0
  1  7  1  0  0  0
  2  3  1  0  0  0
  3  4  2  0  0  0
  4  5  1  0  0  0
  5  6  2  0  0  0
  7  8  2  0  0  0
  7  9  1  0  0  0
  8 10  1  0  0  0
  9 11  1  0  0  0
  9 12  1  0  0  0
M  END
> <minimizedAffinity>
-5.81513

$$$$
1J14_BEN_A_1


 12 12  0  0  0  0  0  0  0  0999 V2000
    8.5281   48.3209   56.9398 C   0  0  0  0  0  0  0  0  0  0  0  0
    8.2106   49.5856   57.4708 C   0  0  0  0  0  0  0  0  0  0  0  0
    7.7316   50.6113   56.6351 C   0  0  0  0  0  0  0  0  0  0  0  0
    7.5592   50.3711   55.2602 C   0  0  0  0  0  0  0  0  0  0  0  0
    7.8695   49.1079   54.7258 C   0  0  0  0  0  0  0  0  0  0  0  0
    8.3561   48.0907   55.5638 C   0  0  0  0  0  0  0  0  0  0  0  0
    9.0479   47.2172   57.8420 C   0  0  0  0  0  0  0  0  0  0  0  0
    9.2255   47.4529   59.1180 N   0  0  0  0  0  0  0  0  0  0  0  0
    9.2993   46.0464   57.3312 N   0  0  0  0  0  0  0  0  0  0  0  0
    9.0298   48.3450   59.4856 H   0  0  0  0  0  0  0  0  0  0  0  0
    9.1595   45.8886   56.3695 H   0  0  0  0  0  0  0  0  0  0  0  0
    9.6292   45.3188   57.9066 H   0  0  0  0  0  0  0  0  0  0  0  0
  1  2  2  0  0  0
  1  6  1  0  0  0
  1  7  1  0  0  0
  2  3  1  0  0  0
  3  4  2  0  0  0
  4  5  1  0  0  0
  5  6  2  0  0  0
  7  8  2  0  0  0
  7  9  1  0  0  0
  8 10  1  0  0  0
  9 11  1  0  0  0
  9 12  1  0  0  0
M  END
> <minimizedAffinity>
-5.22821

$$$$
1J14_BEN_A_1


 12 12  0  0  0  0  0  0  0  0999 V2000
    8.5199   48.3145   56.9541 C   0  0  0  0  0  0  0  0  0  0  0  0
    8.3343   48.0815   55.5780 C   0  0  0  0  0  0  0  0  0  0  0  0
    7.8439   49.1007   54.7409 C   0  0  0  0  0  0  0  0  0  0  0  0
    7.5448   50.3653   55.2788 C   0  0  0  0  0  0  0  0  0  0  0  0
    7.7338   50.6048   56.6515 C   0  0  0  0  0  0  0  0  0  0  0  0
    8.2151   49.5804   57.4838 C   0  0  0  0  0  0  0  0  0  0  0  0
    9.0454   47.2131   57.8559 C   0  0  0  0  0  0  0  0  0  0  0  0
    9.2130   47.4465   59.1336 N   0  0  0  0  0  0  0  0  0  0  0  0
    9.3117   46.0466   57.3429 N   0  0  0  0  0  0  0  0  0  0  0  0
    9.0061   48.3354   59.5029 H   0  0  0  0  0  0  0  0  0  0  0  0
    9.1792   45.8905   56.3799 H   0  0  0  0  0  0  0  0  0  0  0  0
    9.6455   45.3206   57.9179 H   0  0  0  0  0  0  0  0  0  0  0  0
  1  2  2  0  0  0
  1  6  1  0  0  0
  1  7  1  0  0  0
  2  3  1  0  0  0
  3  4  2  0  0  0
  4  5  1  0  0  0
  5  6  2  0  0  0
  7  8  2  0  0  0
  7  9  1  0  0  0
  8 10  1  0  0  0
  9 11  1  0  0  0
  9 12  1  0  0  0
M  END
> <minimizedAffinity>
-5.22642

$$$$
1J14_BEN_A_1


 12 12  0  0  0  0  0  0  0  0999 V2000
    8.0783   49.9653   54.9083 C   0  0  0  0  0  0  0  0  0  0  0  0
    7.3390   50.3390   56.0466 C   0  0  0  0  0  0  0  0  0  0  0  0
    7.0871   49.4087   57.0718 C   0  0  0  0  0  0  0  0  0  0  0  0
    7.5844   48.0975   56.9651 C   0  0  0  0  0  0  0  0  0  0  0  0
    8.3282   47.7208   55.8328 C   0  0  0  0  0  0  0  0  0  0  0  0
    8.5686   48.6516   54.8083 C   0  0  0  0  0  0  0  0  0  0  0  0
    8.3459   50.9689   53.8021 C   0  0  0  0  0  0  0  0  0  0  0  0
    9.2800   50.7244   52.9173 N   0  0  0  0  0  0  0  0  0  0  0  0
    7.6315   52.0558   53.7457 N   0  0  0  0  0  0  0  0  0  0  0  0
    9.8099   49.8968   52.9768 H   0  0  0  0  0  0  0  0  0  0  0  0
    6.9338   52.2218   54.4202 H   0  0  0  0  0  0  0  0  0  0  0  0
    7.7890   52.7116   53.0286 H   0  0  0  0  0  0  0  0  0  0  0  0
  1  2  2  0  0  0
  1  6  1  0  0  0
  1  7  1  0  0  0
  2  3  1  0  0  0
  3  4  2  0  0  0
  4  5  1  0  0  0
  5  6  2  0  0  0
  7  8  2  0  0  0
  7  9  1  0  0  0
  8 10  1  0  0  0
  9 11  1  0  0  0
  9 12  1  0  0  0
M  END
> <minimizedAffinity>
-5.20481

$$$$
1J14_BEN_A_1


 12 12  0  0  0  0  0  0  0  0999 V2000
    8.6097   48.2828   57.0127 C   0  0  0  0  0  0  0  0  0  0  0  0
    8.2765   49.5367   57.5594 C   0  0  0  0  0  0  0  0  0  0  0  0
    7.7138   50.5416   56.7510 C   0  0  0  0  0  0  0  0  0  0  0  0
    7.4729   50.2908   55.3883 C   0  0  0  0  0  0  0  0  0  0  0  0
    7.7987   49.0382   54.8386 C   0  0  0  0  0  0  0  0  0  0  0  0
    8.3688   48.0420   55.6488 C   0  0  0  0  0  0  0  0  0  0  0  0
    9.2197   47.2016   57.8852 C   0  0  0  0  0  0  0  0  0  0  0  0
    9.2163   45.9582   57.4739 N   0  0  0  0  0  0  0  0  0  0  0  0
    9.7480   47.5323   59.0282 N   0  0  0  0  0  0  0  0  0  0  0  0
    8.8119   45.7279   56.6063 H   0  0  0  0  0  0  0  0  0  0  0  0
    9.7408   48.4725   59.3202 H   0  0  0  0  0  0  0  0  0  0  0  0
   10.1545   46.8422   59.6006 H   0  0  0  0  0  0  0  0  0  0  0  0
  1  2  2  0  0  0
  1  6  1  0  0  0
  1  7  1  0  0  0
  2  3  1  0  0  0
  3  4  2  0  0  0
  4  5  1  0  0  0
  5  6  2  0  0  0
  7  8  2  0  0  0
  7  9  1  0  0  0
  8 10  1  0  0  0
  9 11  1  0  0  0
  9 12  1  0  0  0
M  END
> <minimizedAffinity>
-4.99510

$$$$
1J14_BEN_A_1


 12 12  0  0  0  0  0  0  0  0999 V2000
    9.1566   47.4336   57.9648 C   0  0  0  0  0  0  0  0  0  0  0  0
    9.4020   46.0735   58.2331 C   0  0  0  0  0  0  0  0  0  0  0  0
   10.2063   45.6945   59.3237 C   0  0  0  0  0  0  0  0  0  0  0  0
   10.7628   46.6795   60.1590 C   0  0  0  0  0  0  0  0  0  0  0  0
   10.5161   48.0392   59.8988 C   0  0  0  0  0  0  0  0  0  0  0  0
    9.7198   48.4117   58.8029 C   0  0  0  0  0  0  0  0  0  0  0  0
    8.2919   47.8406   56.7862 C   0  0  0  0  0  0  0  0  0  0  0  0
    7.1880   48.5139   56.9942 N   0  0  0  0  0  0  0  0  0  0  0  0
    8.6701   47.5209   55.5822 N   0  0  0  0  0  0  0  0  0  0  0  0
    6.9188   48.7463   57.9123 H   0  0  0  0  0  0  0  0  0  0  0  0
    9.5032   47.0144   55.4461 H   0  0  0  0  0  0  0  0  0  0  0  0
    8.1229   47.7857   54.8078 H   0  0  0  0  0  0  0  0  0  0  0  0
  1  2  2  0  0  0
  1  6  1  0  0  0
  1  7  1  0  0  0
  2  3  1  0  0  0
  3  4  2  0  0  0
  4  5  1  0  0  0
  5  6  2  0  0  0
  7  8  2  0  0  0
  7  9  1  0  0  0
  8 10  1  0  0  0
  9 11  1  0  0  0
  9 12  1  0  0  0
M  END
> <minimizedAffinity>
-4.63579

$$$$
1J14_BEN_A_1


 12 12  0  0  0  0  0  0  0  0999 V2000
    9.1574   47.4283   57.9680 C   0  0  0  0  0  0  0  0  0  0  0  0
    9.7294   48.4067   58.8034 C   0  0  0  0  0  0  0  0  0  0  0  0
   10.5274   48.0316   59.8999 C   0  0  0  0  0  0  0  0  0  0  0  0
   10.7646   46.6700   60.1600 C   0  0  0  0  0  0  0  0  0  0  0  0
   10.2003   45.6890   59.3254 C   0  0  0  0  0  0  0  0  0  0  0  0
    9.3968   46.0695   58.2375 C   0  0  0  0  0  0  0  0  0  0  0  0
    8.2941   47.8345   56.7881 C   0  0  0  0  0  0  0  0  0  0  0  0
    7.1853   48.5000   56.9952 N   0  0  0  0  0  0  0  0  0  0  0  0
    8.6783   47.5222   55.5841 N   0  0  0  0  0  0  0  0  0  0  0  0
    6.9115   48.7269   57.9132 H   0  0  0  0  0  0  0  0  0  0  0  0
    9.5151   47.0215   55.4487 H   0  0  0  0  0  0  0  0  0  0  0  0
    8.1320   47.7866   54.8089 H   0  0  0  0  0  0  0  0  0  0  0  0
  1  2  2  0  0  0
  1  6  1  0  0  0
  1  7  1  0  0  0
  2  3  1  0  0  0
  3  4  2  0  0  0
  4  5  1  0  0  0
  5  6  2  0  0  0
  7  8  2  0  0  0
  7  9  1  0  0  0
  8 10  1  0  0  0
  9 11  1  0  0  0
  9 12  1  0  0  0
M  END
> <minimizedAffinity>
-4.63298

$$$$
1J14_BEN_A_1


 12 12  0  0  0  0  0  0  0  0999 V2000
    8.0798   49.1585   56.5287 C   0  0  0  0  0  0  0  0  0  0  0  0
    8.1946   47.7781   56.2765 C   0  0  0  0  0  0  0  0  0  0  0  0
    8.7946   46.9268   57.2225 C   0  0  0  0  0  0  0  0  0  0  0  0
    9.2759   47.4548   58.4339 C   0  0  0  0  0  0  0  0  0  0  0  0
    9.1586   48.8319   58.6931 C   0  0  0  0  0  0  0  0  0  0  0  0
    8.5668   49.6783   57.7406 C   0  0  0  0  0  0  0  0  0  0  0  0
    7.4357   50.0756   55.5057 C   0  0  0  0  0  0  0  0  0  0  0  0
    7.3433   49.6905   54.2573 N   0  0  0  0  0  0  0  0  0  0  0  0
    6.9744   51.2304   55.8910 N   0  0  0  0  0  0  0  0  0  0  0  0
    7.6982   48.8134   53.9853 H   0  0  0  0  0  0  0  0  0  0  0  0
    7.0532   51.5022   56.8340 H   0  0  0  0  0  0  0  0  0  0  0  0
    6.5467   51.8319   55.2395 H   0  0  0  0  0  0  0  0  0  0  0  0
  1  2  2  0  0  0
  1  6  1  0  0  0
  1  7  1  0  0  0
  2  3  1  0  0  0
  3  4  2  0  0  0
  4  5  1  0  0  0
  5  6  2  0  0  0
  7  8  2  0  0  0
  7  9  1  0  0  0
  8 10  1  0  0  0
  9 11  1  0  0  0
  9 12  1  0  0  0
M  END
> <minimizedAffinity>
-4.46983

$$$$
1J14_BEN_A_1


 12 12  0  0  0  0  0  0  0  0999 V2000
    8.8649   48.5017   58.0079 C   0  0  0  0  0  0  0  0  0  0  0  0
    8.6471   47.1918   57.5400 C   0  0  0  0  0  0  0  0  0  0  0  0
    9.3550   46.1089   58.0932 C   0  0  0  0  0  0  0  0  0  0  0  0
   10.2810   46.3329   59.1277 C   0  0  0  0  0  0  0  0  0  0  0  0
   10.4981   47.6386   59.6025 C   0  0  0  0  0  0  0  0  0  0  0  0
    9.7949   48.7169   59.0399 C   0  0  0  0  0  0  0  0  0  0  0  0
    8.1031   49.6687   57.4077 C   0  0  0  0  0  0  0  0  0  0  0  0
    7.5548   50.5590   58.1964 N   0  0  0  0  0  0  0  0  0  0  0  0
    8.0166   49.7706   56.1128 N   0  0  0  0  0  0  0  0  0  0  0  0
    7.6311   50.4647   59.1734 H   0  0  0  0  0  0  0  0  0  0  0  0
    8.4354   49.0911   55.5365 H   0  0  0  0  0  0  0  0  0  0  0  0
    7.5323   50.5271   55.7098 H   0  0  0  0  0  0  0  0  0  0  0  0
  1  2  2  0  0  0
  1  6  1  0  0  0
  1  7  1  0  0  0
  2  3  1  0  0  0
  3  4  2  0  0  0
  4  5  1  0  0  0
  5  6  2  0  0  0
  7  8  2  0  0  0
  7  9  1  0  0  0
  8 10  1  0  0  0
  9 11  1  0  0  0
  9 12  1  0  0  0
M  END
> <minimizedAffinity>
-4.46540

$$$$
