4C9X_VHS_A_1157


 33 36  0  0  0  0  0  0  0  0999 V2000
  -15.3816  -15.9634   11.3637 C   0  0  0  0  0  0  0  0  0  0  0  0
  -16.6446  -15.5324   10.9281 C   0  0  0  0  0  0  0  0  0  0  0  0
  -15.0980  -17.3233   11.4332 C   0  0  0  0  0  0  0  0  0  0  0  0
  -13.8845  -17.7139   11.8654 N   0  0  0  0  0  0  0  0  0  0  0  0
  -16.0408  -18.1898   11.0920 N   0  0  0  0  0  0  0  0  0  0  0  0
  -17.3136  -17.7908   10.6415 C   0  0  0  0  0  0  0  0  0  0  0  0
  -17.6453  -16.4323   10.5587 C   0  0  0  0  0  0  0  0  0  0  0  0
  -13.2089  -17.0409   12.1101 H   0  0  0  0  0  0  0  0  0  0  0  0
  -13.6725  -18.6727   11.9368 H   0  0  0  0  0  0  0  0  0  0  0  0
  -18.8696  -15.9882   10.1433 C   0  0  0  0  0  0  0  0  0  0  0  0
  -19.1538  -14.8703    9.4662 C   0  0  0  0  0  0  0  0  0  0  0  0
  -20.0344  -16.5890   10.3537 C   0  0  0  0  0  0  0  0  0  0  0  0
  -20.9917  -15.8344    9.8043 N   0  0  0  0  0  0  0  0  0  0  0  0
  -20.4864  -14.8349    9.2834 N   0  0  0  0  0  0  0  0  0  0  0  0
  -21.3601  -13.8284    8.5892 C   0  0  0  0  0  0  0  0  0  0  0  0
  -21.2320  -12.5300    9.2543 C   0  0  0  0  0  0  0  0  0  0  0  0
  -22.0279  -11.5635    8.4153 C   0  0  0  0  0  0  0  0  0  0  0  0
  -23.4565  -11.8825    8.4972 N   0  0  0  0  0  0  0  0  0  0  0  0
  -23.6789  -13.2014    7.8862 C   0  0  0  0  0  0  0  0  0  0  0  0
  -22.8200  -14.2598    8.5802 C   0  0  0  0  0  0  0  0  0  0  0  0
  -23.9954  -11.1763    7.9959 H   0  0  0  0  0  0  0  0  0  0  0  0
  -14.3493  -15.1611   11.7428 O   0  0  0  0  0  0  0  0  0  0  0  0
  -14.5687  -14.1111   12.7175 C   0  0  0  0  0  0  0  0  0  0  0  0
  -13.4061  -14.1925   13.7119 C   0  0  0  0  0  0  0  0  0  0  0  0
  -12.3305  -13.1323   10.8183 Cl  0  0  0  0  0  0  0  0  0  0  0  0
  -13.7239  -12.2773   11.2495 C   0  0  0  0  0  0  0  0  0  0  0  0
  -13.8733  -11.0051   10.6995 C   0  0  0  0  0  0  0  0  0  0  0  0
  -12.9529  -10.5456    9.8745 F   0  0  0  0  0  0  0  0  0  0  0  0
  -14.9743  -10.2206   11.0030 C   0  0  0  0  0  0  0  0  0  0  0  0
  -15.9359  -10.7064   11.8642 C   0  0  0  0  0  0  0  0  0  0  0  0
  -15.7897  -11.9706   12.4242 C   0  0  0  0  0  0  0  0  0  0  0  0
  -16.9984  -12.4458   13.4533 Cl  0  0  0  0  0  0  0  0  0  0  0  0
  -14.6841  -12.7974   12.1300 C   0  0  0  0  0  0  0  0  0  0  0  0
 25 26  1  0  0  0
 26 27  1  0  0  0
 26 33  2  0  0  0
 27 28  1  0  0  0
 27 29  2  0  0  0
 29 30  1  0  0  0
 30 31  2  0  0  0
 31 32  1  0  0  0
 31 33  1  0  0  0
 33 23  1  0  0  0
 23 24  1  0  0  0
 23 22  1  0  0  0
 22  1  1  0  0  0
  1  2  2  0  0  0
  1  3  1  0  0  0
  2  7  1  0  0  0
  3  4  1  0  0  0
  3  5  2  0  0  0
  5  6  1  0  0  0
  6  7  2  0  0  0
  7 10  1  0  0  0
 10 11  2  0  0  0
 10 12  1  0  0  0
 11 14  1  0  0  0
 12 13  2  0  0  0
 13 14  1  0  0  0
 14 15  1  0  0  0
 15 16  1  0  0  0
 15 20  1  0  0  0
 16 17  1  0  0  0
 17 18  1  0  0  0
 18 19  1  0  0  0
 19 20  1  0  0  0
  4  8  1  0  0  0
  4  9  1  0  0  0
 18 21  1  0  0  0
M  END
> <minimizedAffinity>
-9.72381

$$$$
4C9X_VHS_A_1157


 33 36  0  0  0  0  0  0  0  0999 V2000
  -15.3876  -15.9350   11.3421 C   0  0  0  0  0  0  0  0  0  0  0  0
  -16.6528  -15.5086   10.9083 C   0  0  0  0  0  0  0  0  0  0  0  0
  -15.1030  -17.2941   11.4230 C   0  0  0  0  0  0  0  0  0  0  0  0
  -13.8874  -17.6802   11.8532 N   0  0  0  0  0  0  0  0  0  0  0  0
  -16.0470  -18.1642   11.0942 N   0  0  0  0  0  0  0  0  0  0  0  0
  -17.3220  -17.7699   10.6459 C   0  0  0  0  0  0  0  0  0  0  0  0
  -17.6547  -16.4124   10.5519 C   0  0  0  0  0  0  0  0  0  0  0  0
  -13.2110  -17.0046   12.0885 H   0  0  0  0  0  0  0  0  0  0  0  0
  -13.6746  -18.6382   11.9326 H   0  0  0  0  0  0  0  0  0  0  0  0
  -18.8812  -15.9726   10.1380 C   0  0  0  0  0  0  0  0  0  0  0  0
  -19.1715  -14.8498    9.4719 C   0  0  0  0  0  0  0  0  0  0  0  0
  -20.0422  -16.5839   10.3392 C   0  0  0  0  0  0  0  0  0  0  0  0
  -21.0034  -15.8304    9.7952 N   0  0  0  0  0  0  0  0  0  0  0  0
  -20.5040  -14.8219    9.2861 N   0  0  0  0  0  0  0  0  0  0  0  0
  -21.3831  -13.8145    8.6001 C   0  0  0  0  0  0  0  0  0  0  0  0
  -21.2352  -12.5125    9.2540 C   0  0  0  0  0  0  0  0  0  0  0  0
  -22.0392  -11.5466    8.4222 C   0  0  0  0  0  0  0  0  0  0  0  0
  -23.4682  -11.8556    8.5308 N   0  0  0  0  0  0  0  0  0  0  0  0
  -23.7096  -13.1771    7.9329 C   0  0  0  0  0  0  0  0  0  0  0  0
  -22.8457  -14.2365    8.6192 C   0  0  0  0  0  0  0  0  0  0  0  0
  -24.0112  -11.1494    8.0341 H   0  0  0  0  0  0  0  0  0  0  0  0
  -14.3539  -15.1289   11.7090 O   0  0  0  0  0  0  0  0  0  0  0  0
  -14.5865  -14.0193   12.6119 C   0  0  0  0  0  0  0  0  0  0  0  0
  -13.6177  -14.2037   13.7843 C   0  0  0  0  0  0  0  0  0  0  0  0
  -16.6431  -11.8012   13.2635 Cl  0  0  0  0  0  0  0  0  0  0  0  0
  -15.3115  -11.6611   12.2313 C   0  0  0  0  0  0  0  0  0  0  0  0
  -15.1282  -10.4269   11.6094 C   0  0  0  0  0  0  0  0  0  0  0  0
  -15.9705   -9.4444   11.8626 F   0  0  0  0  0  0  0  0  0  0  0  0
  -14.0739  -10.2173   10.7351 C   0  0  0  0  0  0  0  0  0  0  0  0
  -13.1938  -11.2469   10.4755 C   0  0  0  0  0  0  0  0  0  0  0  0
  -13.3750  -12.4836   11.0845 C   0  0  0  0  0  0  0  0  0  0  0  0
  -12.2655  -13.6494   10.6898 Cl  0  0  0  0  0  0  0  0  0  0  0  0
  -14.4341  -12.7275   11.9853 C   0  0  0  0  0  0  0  0  0  0  0  0
 25 26  1  0  0  0
 26 27  1  0  0  0
 26 33  2  0  0  0
 27 28  1  0  0  0
 27 29  2  0  0  0
 29 30  1  0  0  0
 30 31  2  0  0  0
 31 32  1  0  0  0
 31 33  1  0  0  0
 33 23  1  0  0  0
 23 24  1  0  0  0
 23 22  1  0  0  0
 22  1  1  0  0  0
  1  2  2  0  0  0
  1  3  1  0  0  0
  2  7  1  0  0  0
  3  4  1  0  0  0
  3  5  2  0  0  0
  5  6  1  0  0  0
  6  7  2  0  0  0
  7 10  1  0  0  0
 10 11  2  0  0  0
 10 12  1  0  0  0
 11 14  1  0  0  0
 12 13  2  0  0  0
 13 14  1  0  0  0
 14 15  1  0  0  0
 15 16  1  0  0  0
 15 20  1  0  0  0
 16 17  1  0  0  0
 17 18  1  0  0  0
 18 19  1  0  0  0
 19 20  1  0  0  0
  4  8  1  0  0  0
  4  9  1  0  0  0
 18 21  1  0  0  0
M  END
> <minimizedAffinity>
-9.59032

$$$$
4C9X_VHS_A_1157


 33 36  0  0  0  0  0  0  0  0999 V2000
  -14.9320  -15.4704   11.5408 C   0  0  0  0  0  0  0  0  0  0  0  0
  -16.2875  -15.4304   11.1781 C   0  0  0  0  0  0  0  0  0  0  0  0
  -14.2724  -16.6919   11.6282 C   0  0  0  0  0  0  0  0  0  0  0  0
  -12.9759  -16.7072   11.9898 N   0  0  0  0  0  0  0  0  0  0  0  0
  -14.9495  -17.8021   11.3735 N   0  0  0  0  0  0  0  0  0  0  0  0
  -16.3063  -17.7963   10.9974 C   0  0  0  0  0  0  0  0  0  0  0  0
  -17.0122  -16.5903   10.8999 C   0  0  0  0  0  0  0  0  0  0  0  0
  -12.5054  -15.8616   12.1711 H   0  0  0  0  0  0  0  0  0  0  0  0
  -12.4981  -17.5639   12.0729 H   0  0  0  0  0  0  0  0  0  0  0  0
  -18.3334  -16.5259   10.5544 C   0  0  0  0  0  0  0  0  0  0  0  0
  -19.0175  -15.4661   10.1100 C   0  0  0  0  0  0  0  0  0  0  0  0
  -19.2084  -17.5224   10.6125 C   0  0  0  0  0  0  0  0  0  0  0  0
  -20.3925  -17.0543   10.2045 N   0  0  0  0  0  0  0  0  0  0  0  0
  -20.2882  -15.8600    9.9074 N   0  0  0  0  0  0  0  0  0  0  0  0
  -21.4877  -15.1034    9.4101 C   0  0  0  0  0  0  0  0  0  0  0  0
  -22.5732  -16.0437    9.1238 C   0  0  0  0  0  0  0  0  0  0  0  0
  -23.7644  -15.1924    8.7664 C   0  0  0  0  0  0  0  0  0  0  0  0
  -23.5273  -14.5018    7.4951 N   0  0  0  0  0  0  0  0  0  0  0  0
  -22.4148  -13.5571    7.6742 C   0  0  0  0  0  0  0  0  0  0  0  0
  -21.1660  -14.2936    8.1618 C   0  0  0  0  0  0  0  0  0  0  0  0
  -24.3676  -13.9943    7.2180 H   0  0  0  0  0  0  0  0  0  0  0  0
  -14.1489  -14.3950   11.8292 O   0  0  0  0  0  0  0  0  0  0  0  0
  -14.6154  -13.3893   12.7628 C   0  0  0  0  0  0  0  0  0  0  0  0
  -13.6303  -13.3965   13.9361 C   0  0  0  0  0  0  0  0  0  0  0  0
  -12.3090  -12.3182   10.9999 Cl  0  0  0  0  0  0  0  0  0  0  0  0
  -13.7548  -11.5166   11.3543 C   0  0  0  0  0  0  0  0  0  0  0  0
  -13.9184  -10.2469   10.8025 C   0  0  0  0  0  0  0  0  0  0  0  0
  -12.9695   -9.7493   10.0338 F   0  0  0  0  0  0  0  0  0  0  0  0
  -15.0627   -9.5045   11.0458 C   0  0  0  0  0  0  0  0  0  0  0  0
  -16.0538  -10.0302   11.8481 C   0  0  0  0  0  0  0  0  0  0  0  0
  -15.8942  -11.2920   12.4098 C   0  0  0  0  0  0  0  0  0  0  0  0
  -17.1418  -11.8172   13.3655 Cl  0  0  0  0  0  0  0  0  0  0  0  0
  -14.7444  -12.0767   12.1757 C   0  0  0  0  0  0  0  0  0  0  0  0
 25 26  1  0  0  0
 26 27  1  0  0  0
 26 33  2  0  0  0
 27 28  1  0  0  0
 27 29  2  0  0  0
 29 30  1  0  0  0
 30 31  2  0  0  0
 31 32  1  0  0  0
 31 33  1  0  0  0
 33 23  1  0  0  0
 23 24  1  0  0  0
 23 22  1  0  0  0
 22  1  1  0  0  0
  1  2  2  0  0  0
  1  3  1  0  0  0
  2  7  1  0  0  0
  3  4  1  0  0  0
  3  5  2  0  0  0
  5  6  1  0  0  0
  6  7  2  0  0  0
  7 10  1  0  0  0
 10 11  2  0  0  0
 10 12  1  0  0  0
 11 14  1  0  0  0
 12 13  2  0  0  0
 13 14  1  0  0  0
 14 15  1  0  0  0
 15 16  1  0  0  0
 15 20  1  0  0  0
 16 17  1  0  0  0
 17 18  1  0  0  0
 18 19  1  0  0  0
 19 20  1  0  0  0
  4  8  1  0  0  0
  4  9  1  0  0  0
 18 21  1  0  0  0
M  END
> <minimizedAffinity>
-9.58812

$$$$
4C9X_VHS_A_1157


 33 36  0  0  0  0  0  0  0  0999 V2000
  -15.5943  -15.8435   11.1139 C   0  0  0  0  0  0  0  0  0  0  0  0
  -16.6002  -14.9521   10.7085 C   0  0  0  0  0  0  0  0  0  0  0  0
  -15.8477  -17.2109   11.1401 C   0  0  0  0  0  0  0  0  0  0  0  0
  -14.8723  -18.0461   11.5440 N   0  0  0  0  0  0  0  0  0  0  0  0
  -17.0494  -17.6439   10.7871 N   0  0  0  0  0  0  0  0  0  0  0  0
  -18.0765  -16.7779   10.3660 C   0  0  0  0  0  0  0  0  0  0  0  0
  -17.8681  -15.3932   10.3271 C   0  0  0  0  0  0  0  0  0  0  0  0
  -13.9915  -17.6876   11.7987 H   0  0  0  0  0  0  0  0  0  0  0  0
  -15.0398  -19.0154   11.5848 H   0  0  0  0  0  0  0  0  0  0  0  0
  -18.8332  -14.5049    9.9417 C   0  0  0  0  0  0  0  0  0  0  0  0
  -18.8503  -13.1794   10.1189 C   0  0  0  0  0  0  0  0  0  0  0  0
  -19.9680  -14.8009    9.3199 C   0  0  0  0  0  0  0  0  0  0  0  0
  -20.6429  -13.6622    9.1314 N   0  0  0  0  0  0  0  0  0  0  0  0
  -19.9973  -12.7146    9.5906 N   0  0  0  0  0  0  0  0  0  0  0  0
  -20.5440  -11.3181    9.4945 C   0  0  0  0  0  0  0  0  0  0  0  0
  -19.8785  -10.4647   10.4811 C   0  0  0  0  0  0  0  0  0  0  0  0
  -20.3866   -9.0700   10.2203 C   0  0  0  0  0  0  0  0  0  0  0  0
  -21.8113   -8.9816   10.5547 N   0  0  0  0  0  0  0  0  0  0  0  0
  -22.5642   -9.8473    9.6350 C   0  0  0  0  0  0  0  0  0  0  0  0
  -22.0495  -11.2853    9.7181 C   0  0  0  0  0  0  0  0  0  0  0  0
  -22.1282   -8.0172   10.4556 H   0  0  0  0  0  0  0  0  0  0  0  0
  -14.3341  -15.5051   11.5018 O   0  0  0  0  0  0  0  0  0  0  0  0
  -14.1386  -14.5906   12.6090 C   0  0  0  0  0  0  0  0  0  0  0  0
  -13.0390  -15.1992   13.4852 C   0  0  0  0  0  0  0  0  0  0  0  0
  -15.3688  -12.2165   14.1660 Cl  0  0  0  0  0  0  0  0  0  0  0  0
  -14.3158  -12.1120   12.8474 C   0  0  0  0  0  0  0  0  0  0  0  0
  -13.9754  -10.8302   12.4178 C   0  0  0  0  0  0  0  0  0  0  0  0
  -14.4638   -9.7842   13.0551 F   0  0  0  0  0  0  0  0  0  0  0  0
  -13.1299  -10.6404   11.3366 C   0  0  0  0  0  0  0  0  0  0  0  0
  -12.6192  -11.7374   10.6749 C   0  0  0  0  0  0  0  0  0  0  0  0
  -12.9613  -13.0191   11.0913 C   0  0  0  0  0  0  0  0  0  0  0  0
  -12.2997  -14.2606   10.2158 Cl  0  0  0  0  0  0  0  0  0  0  0  0
  -13.8138  -13.2467   12.1931 C   0  0  0  0  0  0  0  0  0  0  0  0
 25 26  1  0  0  0
 26 27  1  0  0  0
 26 33  2  0  0  0
 27 28  1  0  0  0
 27 29  2  0  0  0
 29 30  1  0  0  0
 30 31  2  0  0  0
 31 32  1  0  0  0
 31 33  1  0  0  0
 33 23  1  0  0  0
 23 24  1  0  0  0
 23 22  1  0  0  0
 22  1  1  0  0  0
  1  2  2  0  0  0
  1  3  1  0  0  0
  2  7  1  0  0  0
  3  4  1  0  0  0
  3  5  2  0  0  0
  5  6  1  0  0  0
  6  7  2  0  0  0
  7 10  1  0  0  0
 10 11  2  0  0  0
 10 12  1  0  0  0
 11 14  1  0  0  0
 12 13  2  0  0  0
 13 14  1  0  0  0
 14 15  1  0  0  0
 15 16  1  0  0  0
 15 20  1  0  0  0
 16 17  1  0  0  0
 17 18  1  0  0  0
 18 19  1  0  0  0
 19 20  1  0  0  0
  4  8  1  0  0  0
  4  9  1  0  0  0
 18 21  1  0  0  0
M  END
> <minimizedAffinity>
-8.87907

$$$$
4C9X_VHS_A_1157


 33 36  0  0  0  0  0  0  0  0999 V2000
  -15.6390  -13.2009   12.8627 C   0  0  0  0  0  0  0  0  0  0  0  0
  -16.7082  -12.3484   12.5453 C   0  0  0  0  0  0  0  0  0  0  0  0
  -14.7152  -12.8248   13.8322 C   0  0  0  0  0  0  0  0  0  0  0  0
  -13.6911  -13.6525   14.1114 N   0  0  0  0  0  0  0  0  0  0  0  0
  -14.8626  -11.6529   14.4331 N   0  0  0  0  0  0  0  0  0  0  0  0
  -15.9288  -10.7795   14.1457 C   0  0  0  0  0  0  0  0  0  0  0  0
  -16.8809  -11.1147   13.1744 C   0  0  0  0  0  0  0  0  0  0  0  0
  -13.6143  -14.5157   13.6443 H   0  0  0  0  0  0  0  0  0  0  0  0
  -13.0187  -13.3946   14.7828 H   0  0  0  0  0  0  0  0  0  0  0  0
  -17.9272  -10.2992   12.8438 C   0  0  0  0  0  0  0  0  0  0  0  0
  -18.3880  -10.0049   11.6233 C   0  0  0  0  0  0  0  0  0  0  0  0
  -18.6886   -9.6181   13.6914 C   0  0  0  0  0  0  0  0  0  0  0  0
  -19.5881   -8.9335   12.9774 N   0  0  0  0  0  0  0  0  0  0  0  0
  -19.4214   -9.1563   11.7740 N   0  0  0  0  0  0  0  0  0  0  0  0
  -20.3185   -8.5049   10.7594 C   0  0  0  0  0  0  0  0  0  0  0  0
  -21.5836   -9.2386   10.6843 C   0  0  0  0  0  0  0  0  0  0  0  0
  -22.4608   -8.4415    9.7535 C   0  0  0  0  0  0  0  0  0  0  0  0
  -21.9235   -8.4887    8.3902 N   0  0  0  0  0  0  0  0  0  0  0  0
  -20.6208   -7.8068    8.3750 C   0  0  0  0  0  0  0  0  0  0  0  0
  -19.6702   -8.4550    9.3829 C   0  0  0  0  0  0  0  0  0  0  0  0
  -22.5649   -8.0183    7.7517 H   0  0  0  0  0  0  0  0  0  0  0  0
  -15.3918  -14.4169   12.3028 O   0  0  0  0  0  0  0  0  0  0  0  0
  -15.8233  -14.6906   10.9466 C   0  0  0  0  0  0  0  0  0  0  0  0
  -14.5543  -14.7427   10.0899 C   0  0  0  0  0  0  0  0  0  0  0  0
  -18.8344  -14.4494   10.2760 Cl  0  0  0  0  0  0  0  0  0  0  0  0
  -17.9723  -15.8844   10.5127 C   0  0  0  0  0  0  0  0  0  0  0  0
  -18.6920  -17.0730   10.4005 C   0  0  0  0  0  0  0  0  0  0  0  0
  -19.9761  -17.0254   10.1046 F   0  0  0  0  0  0  0  0  0  0  0  0
  -18.0778  -18.3004   10.5906 C   0  0  0  0  0  0  0  0  0  0  0  0
  -16.7338  -18.3455   10.8972 C   0  0  0  0  0  0  0  0  0  0  0  0
  -16.0111  -17.1641   11.0200 C   0  0  0  0  0  0  0  0  0  0  0  0
  -14.4083  -17.3377   11.4030 Cl  0  0  0  0  0  0  0  0  0  0  0  0
  -16.6050  -15.8984   10.8255 C   0  0  0  0  0  0  0  0  0  0  0  0
 25 26  1  0  0  0
 26 27  1  0  0  0
 26 33  2  0  0  0
 27 28  1  0  0  0
 27 29  2  0  0  0
 29 30  1  0  0  0
 30 31  2  0  0  0
 31 32  1  0  0  0
 31 33  1  0  0  0
 33 23  1  0  0  0
 23 24  1  0  0  0
 23 22  1  0  0  0
 22  1  1  0  0  0
  1  2  2  0  0  0
  1  3  1  0  0  0
  2  7  1  0  0  0
  3  4  1  0  0  0
  3  5  2  0  0  0
  5  6  1  0  0  0
  6  7  2  0  0  0
  7 10  1  0  0  0
 10 11  2  0  0  0
 10 12  1  0  0  0
 11 14  1  0  0  0
 12 13  2  0  0  0
 13 14  1  0  0  0
 14 15  1  0  0  0
 15 16  1  0  0  0
 15 20  1  0  0  0
 16 17  1  0  0  0
 17 18  1  0  0  0
 18 19  1  0  0  0
 19 20  1  0  0  0
  4  8  1  0  0  0
  4  9  1  0  0  0
 18 21  1  0  0  0
M  END
> <minimizedAffinity>
-8.63440

$$$$
4C9X_VHS_A_1157


 33 36  0  0  0  0  0  0  0  0999 V2000
  -16.1182  -11.3283   10.8007 C   0  0  0  0  0  0  0  0  0  0  0  0
  -17.5065  -11.4272   10.6174 C   0  0  0  0  0  0  0  0  0  0  0  0
  -15.5131  -10.0773   10.8603 C   0  0  0  0  0  0  0  0  0  0  0  0
  -14.1789  -10.0067   11.0242 N   0  0  0  0  0  0  0  0  0  0  0  0
  -16.2689   -8.9964   10.7314 N   0  0  0  0  0  0  0  0  0  0  0  0
  -17.6644   -9.0604   10.5568 C   0  0  0  0  0  0  0  0  0  0  0  0
  -18.3166  -10.2982   10.4873 C   0  0  0  0  0  0  0  0  0  0  0  0
  -13.6499  -10.8318   11.1166 H   0  0  0  0  0  0  0  0  0  0  0  0
  -13.7321   -9.1299   11.0518 H   0  0  0  0  0  0  0  0  0  0  0  0
  -19.6658  -10.4204   10.3037 C   0  0  0  0  0  0  0  0  0  0  0  0
  -20.3310  -11.4312    9.7339 C   0  0  0  0  0  0  0  0  0  0  0  0
  -20.5879   -9.5305   10.6496 C   0  0  0  0  0  0  0  0  0  0  0  0
  -21.7815  -10.0138   10.2898 N   0  0  0  0  0  0  0  0  0  0  0  0
  -21.6400  -11.1204    9.7596 N   0  0  0  0  0  0  0  0  0  0  0  0
  -22.8430  -11.8777    9.2722 C   0  0  0  0  0  0  0  0  0  0  0  0
  -22.4251  -13.1909    8.7769 C   0  0  0  0  0  0  0  0  0  0  0  0
  -23.6992  -13.9226    8.4409 C   0  0  0  0  0  0  0  0  0  0  0  0
  -24.3585  -13.2873    7.2960 N   0  0  0  0  0  0  0  0  0  0  0  0
  -24.7798  -11.9342    7.6880 C   0  0  0  0  0  0  0  0  0  0  0  0
  -23.5770  -11.1230    8.1726 C   0  0  0  0  0  0  0  0  0  0  0  0
  -25.1741  -13.8352    7.0218 H   0  0  0  0  0  0  0  0  0  0  0  0
  -15.2528  -12.3703   10.9359 O   0  0  0  0  0  0  0  0  0  0  0  0
  -15.2922  -13.4710    9.9940 C   0  0  0  0  0  0  0  0  0  0  0  0
  -14.3708  -13.0820    8.8335 C   0  0  0  0  0  0  0  0  0  0  0  0
  -17.3882  -15.7463   10.0638 Cl  0  0  0  0  0  0  0  0  0  0  0  0
  -15.8006  -15.8283   10.6395 C   0  0  0  0  0  0  0  0  0  0  0  0
  -15.4016  -17.0379   11.2061 C   0  0  0  0  0  0  0  0  0  0  0  0
  -16.2538  -18.0432   11.2497 F   0  0  0  0  0  0  0  0  0  0  0  0
  -14.1245  -17.1996   11.7186 C   0  0  0  0  0  0  0  0  0  0  0  0
  -13.2356  -16.1462   11.6683 C   0  0  0  0  0  0  0  0  0  0  0  0
  -13.6288  -14.9336   11.1132 C   0  0  0  0  0  0  0  0  0  0  0  0
  -12.4841  -13.7356   11.1173 Cl  0  0  0  0  0  0  0  0  0  0  0  0
  -14.9196  -14.7386   10.5761 C   0  0  0  0  0  0  0  0  0  0  0  0
 25 26  1  0  0  0
 26 27  1  0  0  0
 26 33  2  0  0  0
 27 28  1  0  0  0
 27 29  2  0  0  0
 29 30  1  0  0  0
 30 31  2  0  0  0
 31 32  1  0  0  0
 31 33  1  0  0  0
 33 23  1  0  0  0
 23 24  1  0  0  0
 23 22  1  0  0  0
 22  1  1  0  0  0
  1  2  2  0  0  0
  1  3  1  0  0  0
  2  7  1  0  0  0
  3  4  1  0  0  0
  3  5  2  0  0  0
  5  6  1  0  0  0
  6  7  2  0  0  0
  7 10  1  0  0  0
 10 11  2  0  0  0
 10 12  1  0  0  0
 11 14  1  0  0  0
 12 13  2  0  0  0
 13 14  1  0  0  0
 14 15  1  0  0  0
 15 16  1  0  0  0
 15 20  1  0  0  0
 16 17  1  0  0  0
 17 18  1  0  0  0
 18 19  1  0  0  0
 19 20  1  0  0  0
  4  8  1  0  0  0
  4  9  1  0  0  0
 18 21  1  0  0  0
M  END
> <minimizedAffinity>
-8.60635

$$$$
4C9X_VHS_A_1157


 33 36  0  0  0  0  0  0  0  0999 V2000
  -16.3380  -11.3676   10.9726 C   0  0  0  0  0  0  0  0  0  0  0  0
  -17.6046  -11.6362   10.4302 C   0  0  0  0  0  0  0  0  0  0  0  0
  -16.1507  -10.2495   11.7785 C   0  0  0  0  0  0  0  0  0  0  0  0
  -14.9247  -10.0049   12.2778 N   0  0  0  0  0  0  0  0  0  0  0  0
  -17.1818   -9.4500   12.0098 N   0  0  0  0  0  0  0  0  0  0  0  0
  -18.4668   -9.6961   11.4899 C   0  0  0  0  0  0  0  0  0  0  0  0
  -18.7017  -10.8077   10.6705 C   0  0  0  0  0  0  0  0  0  0  0  0
  -14.1824  -10.6220   12.0844 H   0  0  0  0  0  0  0  0  0  0  0  0
  -14.7705   -9.2089   12.8362 H   0  0  0  0  0  0  0  0  0  0  0  0
  -19.9242  -11.0872   10.1260 C   0  0  0  0  0  0  0  0  0  0  0  0
  -20.3362  -12.2324    9.5716 C   0  0  0  0  0  0  0  0  0  0  0  0
  -20.9491  -10.2493   10.0286 C   0  0  0  0  0  0  0  0  0  0  0  0
  -21.9528  -10.8955    9.4264 N   0  0  0  0  0  0  0  0  0  0  0  0
  -21.6046  -12.0504    9.1608 N   0  0  0  0  0  0  0  0  0  0  0  0
  -22.5656  -12.9863    8.4832 C   0  0  0  0  0  0  0  0  0  0  0  0
  -23.8743  -12.8973    9.1343 C   0  0  0  0  0  0  0  0  0  0  0  0
  -24.7974  -13.7576    8.3102 C   0  0  0  0  0  0  0  0  0  0  0  0
  -24.4169  -15.1680    8.4343 N   0  0  0  0  0  0  0  0  0  0  0  0
  -23.0841  -15.3489    7.8401 C   0  0  0  0  0  0  0  0  0  0  0  0
  -22.0706  -14.4255    8.5181 C   0  0  0  0  0  0  0  0  0  0  0  0
  -25.0943  -15.7510    7.9427 H   0  0  0  0  0  0  0  0  0  0  0  0
  -15.2154  -12.1162   10.7925 O   0  0  0  0  0  0  0  0  0  0  0  0
  -15.2063  -13.1830    9.8116 C   0  0  0  0  0  0  0  0  0  0  0  0
  -14.1418  -12.8099    8.7748 C   0  0  0  0  0  0  0  0  0  0  0  0
  -12.4036  -13.8079   10.9643 Cl  0  0  0  0  0  0  0  0  0  0  0  0
  -13.7325  -14.8528   10.9391 C   0  0  0  0  0  0  0  0  0  0  0  0
  -13.5424  -16.1210   11.4858 C   0  0  0  0  0  0  0  0  0  0  0  0
  -12.3694  -16.4334   12.0009 F   0  0  0  0  0  0  0  0  0  0  0  0
  -14.5671  -17.0536   11.4997 C   0  0  0  0  0  0  0  0  0  0  0  0
  -15.7931  -16.7215   10.9623 C   0  0  0  0  0  0  0  0  0  0  0  0
  -15.9880  -15.4619   10.4068 C   0  0  0  0  0  0  0  0  0  0  0  0
  -17.4953  -15.1774    9.7801 Cl  0  0  0  0  0  0  0  0  0  0  0  0
  -14.9675  -14.4869   10.3836 C   0  0  0  0  0  0  0  0  0  0  0  0
 25 26  1  0  0  0
 26 27  1  0  0  0
 26 33  2  0  0  0
 27 28  1  0  0  0
 27 29  2  0  0  0
 29 30  1  0  0  0
 30 31  2  0  0  0
 31 32  1  0  0  0
 31 33  1  0  0  0
 33 23  1  0  0  0
 23 24  1  0  0  0
 23 22  1  0  0  0
 22  1  1  0  0  0
  1  2  2  0  0  0
  1  3  1  0  0  0
  2  7  1  0  0  0
  3  4  1  0  0  0
  3  5  2  0  0  0
  5  6  1  0  0  0
  6  7  2  0  0  0
  7 10  1  0  0  0
 10 11  2  0  0  0
 10 12  1  0  0  0
 11 14  1  0  0  0
 12 13  2  0  0  0
 13 14  1  0  0  0
 14 15  1  0  0  0
 15 16  1  0  0  0
 15 20  1  0  0  0
 16 17  1  0  0  0
 17 18  1  0  0  0
 18 19  1  0  0  0
 19 20  1  0  0  0
  4  8  1  0  0  0
  4  9  1  0  0  0
 18 21  1  0  0  0
M  END
> <minimizedAffinity>
-8.59900

$$$$
4C9X_VHS_A_1157


 33 36  0  0  0  0  0  0  0  0999 V2000
  -14.9115  -13.3684   12.7754 C   0  0  0  0  0  0  0  0  0  0  0  0
  -15.7156  -12.2630   12.4560 C   0  0  0  0  0  0  0  0  0  0  0  0
  -13.9614  -13.2669   13.7862 C   0  0  0  0  0  0  0  0  0  0  0  0
  -13.1930  -14.3359   14.0671 N   0  0  0  0  0  0  0  0  0  0  0  0
  -13.8297  -12.1130   14.4243 N   0  0  0  0  0  0  0  0  0  0  0  0
  -14.6267  -10.9889   14.1357 C   0  0  0  0  0  0  0  0  0  0  0  0
  -15.5938  -11.0435   13.1237 C   0  0  0  0  0  0  0  0  0  0  0  0
  -13.3199  -15.1772   13.5716 H   0  0  0  0  0  0  0  0  0  0  0  0
  -12.5042  -14.2765   14.7679 H   0  0  0  0  0  0  0  0  0  0  0  0
  -16.3846   -9.9793   12.7904 C   0  0  0  0  0  0  0  0  0  0  0  0
  -17.5297   -9.9889   12.0995 C   0  0  0  0  0  0  0  0  0  0  0  0
  -16.1497   -8.7060   13.0828 C   0  0  0  0  0  0  0  0  0  0  0  0
  -17.1466   -7.9760   12.5719 N   0  0  0  0  0  0  0  0  0  0  0  0
  -17.9546   -8.7159   12.0016 N   0  0  0  0  0  0  0  0  0  0  0  0
  -19.1752   -8.1311   11.3484 C   0  0  0  0  0  0  0  0  0  0  0  0
  -20.3587   -8.8900   11.7582 C   0  0  0  0  0  0  0  0  0  0  0  0
  -21.5359   -8.1554   11.1703 C   0  0  0  0  0  0  0  0  0  0  0  0
  -21.5166   -8.2600    9.7081 N   0  0  0  0  0  0  0  0  0  0  0  0
  -20.3284   -7.5567    9.2026 C   0  0  0  0  0  0  0  0  0  0  0  0
  -19.0602   -8.1376    9.8303 C   0  0  0  0  0  0  0  0  0  0  0  0
  -22.3587   -7.8332    9.3220 H   0  0  0  0  0  0  0  0  0  0  0  0
  -14.9597  -14.5916   12.1799 O   0  0  0  0  0  0  0  0  0  0  0  0
  -15.5209  -14.7279   10.8506 C   0  0  0  0  0  0  0  0  0  0  0  0
  -14.3380  -14.9360    9.8996 C   0  0  0  0  0  0  0  0  0  0  0  0
  -14.6262  -17.6235   11.4746 Cl  0  0  0  0  0  0  0  0  0  0  0  0
  -16.1778  -17.1304   11.0187 C   0  0  0  0  0  0  0  0  0  0  0  0
  -17.1447  -18.1284   10.9077 C   0  0  0  0  0  0  0  0  0  0  0  0
  -16.8175  -19.3777   11.1742 F   0  0  0  0  0  0  0  0  0  0  0  0
  -18.4423  -17.8265   10.5268 C   0  0  0  0  0  0  0  0  0  0  0  0
  -18.7808  -16.5180   10.2518 C   0  0  0  0  0  0  0  0  0  0  0  0
  -17.8198  -15.5181   10.3512 C   0  0  0  0  0  0  0  0  0  0  0  0
  -18.3351  -13.9862    9.9857 Cl  0  0  0  0  0  0  0  0  0  0  0  0
  -16.4917  -15.7912   10.7436 C   0  0  0  0  0  0  0  0  0  0  0  0
 25 26  1  0  0  0
 26 27  1  0  0  0
 26 33  2  0  0  0
 27 28  1  0  0  0
 27 29  2  0  0  0
 29 30  1  0  0  0
 30 31  2  0  0  0
 31 32  1  0  0  0
 31 33  1  0  0  0
 33 23  1  0  0  0
 23 24  1  0  0  0
 23 22  1  0  0  0
 22  1  1  0  0  0
  1  2  2  0  0  0
  1  3  1  0  0  0
  2  7  1  0  0  0
  3  4  1  0  0  0
  3  5  2  0  0  0
  5  6  1  0  0  0
  6  7  2  0  0  0
  7 10  1  0  0  0
 10 11  2  0  0  0
 10 12  1  0  0  0
 11 14  1  0  0  0
 12 13  2  0  0  0
 13 14  1  0  0  0
 14 15  1  0  0  0
 15 16  1  0  0  0
 15 20  1  0  0  0
 16 17  1  0  0  0
 17 18  1  0  0  0
 18 19  1  0  0  0
 19 20  1  0  0  0
  4  8  1  0  0  0
  4  9  1  0  0  0
 18 21  1  0  0  0
M  END
> <minimizedAffinity>
-8.23583

$$$$
4C9X_VHS_A_1157


 33 36  0  0  0  0  0  0  0  0999 V2000
  -20.9261  -16.1019    9.8549 C   0  0  0  0  0  0  0  0  0  0  0  0
  -19.5690  -15.9265   10.1678 C   0  0  0  0  0  0  0  0  0  0  0  0
  -21.4890  -17.3732    9.8940 C   0  0  0  0  0  0  0  0  0  0  0  0
  -22.7893  -17.5194    9.5782 N   0  0  0  0  0  0  0  0  0  0  0  0
  -20.7196  -18.4017   10.2199 N   0  0  0  0  0  0  0  0  0  0  0  0
  -19.3581  -18.2590   10.5491 C   0  0  0  0  0  0  0  0  0  0  0  0
  -18.7476  -16.9985   10.5198 C   0  0  0  0  0  0  0  0  0  0  0  0
  -23.3299  -16.7315    9.3410 H   0  0  0  0  0  0  0  0  0  0  0  0
  -23.1998  -18.4143    9.5843 H   0  0  0  0  0  0  0  0  0  0  0  0
  -17.4271  -16.8031   10.8147 C   0  0  0  0  0  0  0  0  0  0  0  0
  -16.8021  -15.6481   11.0675 C   0  0  0  0  0  0  0  0  0  0  0  0
  -16.4932  -17.7434   10.8905 C   0  0  0  0  0  0  0  0  0  0  0  0
  -15.3333  -17.1481   11.1872 N   0  0  0  0  0  0  0  0  0  0  0  0
  -15.5061  -15.9299   11.2949 N   0  0  0  0  0  0  0  0  0  0  0  0
  -14.3471  -15.0352   11.6337 C   0  0  0  0  0  0  0  0  0  0  0  0
  -14.8400  -13.8328   12.3088 C   0  0  0  0  0  0  0  0  0  0  0  0
  -13.6101  -13.0692   12.7278 C   0  0  0  0  0  0  0  0  0  0  0  0
  -12.9017  -12.5669   11.5467 N   0  0  0  0  0  0  0  0  0  0  0  0
  -12.4019  -13.7147   10.7754 C   0  0  0  0  0  0  0  0  0  0  0  0
  -13.5573  -14.6414   10.3932 C   0  0  0  0  0  0  0  0  0  0  0  0
  -12.1187  -11.9820   11.8386 H   0  0  0  0  0  0  0  0  0  0  0  0
  -21.7993  -15.1190    9.5019 O   0  0  0  0  0  0  0  0  0  0  0  0
  -21.3466  -14.0046    8.6934 C   0  0  0  0  0  0  0  0  0  0  0  0
  -21.7261  -14.3361    7.2466 C   0  0  0  0  0  0  0  0  0  0  0  0
  -19.4182  -11.8874    9.8651 Cl  0  0  0  0  0  0  0  0  0  0  0  0
  -21.0852  -11.7116    9.6449 C   0  0  0  0  0  0  0  0  0  0  0  0
  -21.6439  -10.4958   10.0362 C   0  0  0  0  0  0  0  0  0  0  0  0
  -20.8630   -9.5554   10.5309 F   0  0  0  0  0  0  0  0  0  0  0  0
  -23.0034  -10.2605    9.9087 C   0  0  0  0  0  0  0  0  0  0  0  0
  -23.8158  -11.2460    9.3881 C   0  0  0  0  0  0  0  0  0  0  0  0
  -23.2679  -12.4648    9.0042 C   0  0  0  0  0  0  0  0  0  0  0  0
  -24.3387  -13.5780    8.4044 Cl  0  0  0  0  0  0  0  0  0  0  0  0
  -21.8864  -12.7334    9.1141 C   0  0  0  0  0  0  0  0  0  0  0  0
 25 26  1  0  0  0
 26 27  1  0  0  0
 26 33  2  0  0  0
 27 28  1  0  0  0
 27 29  2  0  0  0
 29 30  1  0  0  0
 30 31  2  0  0  0
 31 32  1  0  0  0
 31 33  1  0  0  0
 33 23  1  0  0  0
 23 24  1  0  0  0
 23 22  1  0  0  0
 22  1  1  0  0  0
  1  2  2  0  0  0
  1  3  1  0  0  0
  2  7  1  0  0  0
  3  4  1  0  0  0
  3  5  2  0  0  0
  5  6  1  0  0  0
  6  7  2  0  0  0
  7 10  1  0  0  0
 10 11  2  0  0  0
 10 12  1  0  0  0
 11 14  1  0  0  0
 12 13  2  0  0  0
 13 14  1  0  0  0
 14 15  1  0  0  0
 15 16  1  0  0  0
 15 20  1  0  0  0
 16 17  1  0  0  0
 17 18  1  0  0  0
 18 19  1  0  0  0
 19 20  1  0  0  0
  4  8  1  0  0  0
  4  9  1  0  0  0
 18 21  1  0  0  0
M  END
> <minimizedAffinity>
-8.23402

$$$$
4C9X_VHS_A_1157


 33 36  0  0  0  0  0  0  0  0999 V2000
  -14.8768  -11.2391   10.9524 C   0  0  0  0  0  0  0  0  0  0  0  0
  -16.2590  -11.0071   10.8730 C   0  0  0  0  0  0  0  0  0  0  0  0
  -14.0208  -10.2103   11.3312 C   0  0  0  0  0  0  0  0  0  0  0  0
  -12.6978  -10.4521   11.3887 N   0  0  0  0  0  0  0  0  0  0  0  0
  -14.5353   -9.0194   11.6017 N   0  0  0  0  0  0  0  0  0  0  0  0
  -15.9171   -8.7563   11.5417 C   0  0  0  0  0  0  0  0  0  0  0  0
  -16.8166   -9.7607   11.1616 C   0  0  0  0  0  0  0  0  0  0  0  0
  -12.3521  -11.3501   11.1808 H   0  0  0  0  0  0  0  0  0  0  0  0
  -12.0760   -9.7309   11.6386 H   0  0  0  0  0  0  0  0  0  0  0  0
  -18.1655   -9.5579   11.0713 C   0  0  0  0  0  0  0  0  0  0  0  0
  -19.0209  -10.0890   10.1911 C   0  0  0  0  0  0  0  0  0  0  0  0
  -18.8928   -8.7643   11.8481 C   0  0  0  0  0  0  0  0  0  0  0  0
  -20.1613   -8.8305   11.4309 N   0  0  0  0  0  0  0  0  0  0  0  0
  -20.2438   -9.6017   10.4696 N   0  0  0  0  0  0  0  0  0  0  0  0
  -21.5765   -9.8527    9.8219 C   0  0  0  0  0  0  0  0  0  0  0  0
  -22.6267   -9.1817   10.5909 C   0  0  0  0  0  0  0  0  0  0  0  0
  -23.8947   -9.3723    9.7990 C   0  0  0  0  0  0  0  0  0  0  0  0
  -24.2815  -10.7864    9.7990 N   0  0  0  0  0  0  0  0  0  0  0  0
  -23.2548  -11.5541    9.0787 C   0  0  0  0  0  0  0  0  0  0  0  0
  -21.8834  -11.3404    9.7214 C   0  0  0  0  0  0  0  0  0  0  0  0
  -25.1823  -10.8962    9.3334 H   0  0  0  0  0  0  0  0  0  0  0  0
  -14.2468  -12.4169   10.6899 O   0  0  0  0  0  0  0  0  0  0  0  0
  -14.8913  -13.4127    9.8572 C   0  0  0  0  0  0  0  0  0  0  0  0
  -14.2025  -13.3467    8.4903 C   0  0  0  0  0  0  0  0  0  0  0  0
  -12.1802  -14.5219   10.8541 Cl  0  0  0  0  0  0  0  0  0  0  0  0
  -13.6692  -15.3211   10.9042 C   0  0  0  0  0  0  0  0  0  0  0  0
  -13.6718  -16.6074   11.4416 C   0  0  0  0  0  0  0  0  0  0  0  0
  -12.5442  -17.1220   11.8915 F   0  0  0  0  0  0  0  0  0  0  0  0
  -14.8401  -17.3490   11.5135 C   0  0  0  0  0  0  0  0  0  0  0  0
  -16.0177  -16.8056   11.0442 C   0  0  0  0  0  0  0  0  0  0  0  0
  -16.0218  -15.5269   10.4983 C   0  0  0  0  0  0  0  0  0  0  0  0
  -17.4891  -14.9810    9.9554 Cl  0  0  0  0  0  0  0  0  0  0  0  0
  -14.8508  -14.7428   10.4172 C   0  0  0  0  0  0  0  0  0  0  0  0
 25 26  1  0  0  0
 26 27  1  0  0  0
 26 33  2  0  0  0
 27 28  1  0  0  0
 27 29  2  0  0  0
 29 30  1  0  0  0
 30 31  2  0  0  0
 31 32  1  0  0  0
 31 33  1  0  0  0
 33 23  1  0  0  0
 23 24  1  0  0  0
 23 22  1  0  0  0
 22  1  1  0  0  0
  1  2  2  0  0  0
  1  3  1  0  0  0
  2  7  1  0  0  0
  3  4  1  0  0  0
  3  5  2  0  0  0
  5  6  1  0  0  0
  6  7  2  0  0  0
  7 10  1  0  0  0
 10 11  2  0  0  0
 10 12  1  0  0  0
 11 14  1  0  0  0
 12 13  2  0  0  0
 13 14  1  0  0  0
 14 15  1  0  0  0
 15 16  1  0  0  0
 15 20  1  0  0  0
 16 17  1  0  0  0
 17 18  1  0  0  0
 18 19  1  0  0  0
 19 20  1  0  0  0
  4  8  1  0  0  0
  4  9  1  0  0  0
 18 21  1  0  0  0
M  END
> <minimizedAffinity>
-8.20910

$$$$
