4B7R_G39_A_801


 24 24  0  0  0  0  0  0  0  0999 V2000
   21.6789   20.3250  -41.3592 C   0  0  0  0  0  0  0  0  0  0  0  0
   22.5211   19.8436  -40.1908 C   0  0  0  0  0  0  0  0  0  0  0  0
   23.9231   19.5798  -40.7376 C   0  0  0  0  0  0  0  0  0  0  0  0
   24.4989   20.8729  -41.2984 C   0  0  0  0  0  0  0  0  0  0  0  0
   23.6046   21.4846  -42.3751 C   0  0  0  0  0  0  0  0  0  0  0  0
   22.1275   21.6015  -42.0013 C   0  0  0  0  0  0  0  0  0  0  0  0
   24.7764   18.9076  -39.7799 N   0  0  0  0  0  0  0  0  0  0  0  0
   24.8977   19.4998  -38.9582 H   0  0  0  0  0  0  0  0  0  0  0  0
   25.6857   18.7246  -40.2043 H   0  0  0  0  0  0  0  0  0  0  0  0
   25.8350   20.6534  -41.8667 N   0  0  0  0  0  0  0  0  0  0  0  0
   27.0329   20.9751  -41.1297 C   0  0  0  0  0  0  0  0  0  0  0  0
   26.9629   21.4418  -40.0091 O   0  0  0  0  0  0  0  0  0  0  0  0
   28.3807   20.7258  -41.7772 C   0  0  0  0  0  0  0  0  0  0  0  0
   25.9153   20.2774  -42.7731 H   0  0  0  0  0  0  0  0  0  0  0  0
   20.1695   20.2662  -41.1781 C   0  0  0  0  0  0  0  0  0  0  0  0
   19.4194   21.1530  -41.6562 O   0  0  0  0  0  0  0  0  0  0  0  0
   19.6961   19.3317  -40.4826 O   0  0  0  0  0  0  0  0  0  0  0  0
   20.2645   18.6752  -40.1306 H   0  0  0  0  0  0  0  0  0  0  0  0
   24.0686   22.7344  -42.7752 O   0  0  0  0  0  0  0  0  0  0  0  0
   23.1236   23.6989  -43.1669 C   0  0  0  0  0  0  0  0  0  0  0  0
   23.0895   23.8628  -44.6878 C   0  0  0  0  0  0  0  0  0  0  0  0
   21.7495   24.2905  -45.2564 C   0  0  0  0  0  0  0  0  0  0  0  0
   23.1178   25.0181  -42.3597 C   0  0  0  0  0  0  0  0  0  0  0  0
   23.8192   25.0008  -40.9966 C   0  0  0  0  0  0  0  0  0  0  0  0
 15 16  2  0  0  0
 15 17  1  0  0  0
 15  1  1  0  0  0
  1  2  1  0  0  0
  1  6  2  0  0  0
  2  3  1  0  0  0
  3  4  1  0  0  0
  3  7  1  0  0  0
  4 10  1  0  0  0
  4  5  1  0  0  0
 10 11  1  0  0  0
 11 12  2  0  0  0
 11 13  1  0  0  0
  5  6  1  0  0  0
  5 19  1  0  0  0
 19 20  1  0  0  0
 20 21  1  0  0  0
 20 23  1  0  0  0
 21 22  1  0  0  0
 23 24  1  0  0  0
 17 18  1  0  0  0
 10 14  1  0  0  0
  7  8  1  0  0  0
  7  9  1  0  0  0
M  END
> <minimizedAffinity>
-7.14934

$$$$
4B7R_G39_A_801


 24 24  0  0  0  0  0  0  0  0999 V2000
   21.6353   20.1951  -41.3404 C   0  0  0  0  0  0  0  0  0  0  0  0
   22.5139   19.7803  -40.1732 C   0  0  0  0  0  0  0  0  0  0  0  0
   23.9184   19.5643  -40.7341 C   0  0  0  0  0  0  0  0  0  0  0  0
   24.4291   20.8669  -41.3347 C   0  0  0  0  0  0  0  0  0  0  0  0
   23.4941   21.4118  -42.4127 C   0  0  0  0  0  0  0  0  0  0  0  0
   22.0186   21.4736  -42.0201 C   0  0  0  0  0  0  0  0  0  0  0  0
   24.8135   18.9542  -39.7729 N   0  0  0  0  0  0  0  0  0  0  0  0
   24.9199   19.5714  -38.9679 H   0  0  0  0  0  0  0  0  0  0  0  0
   25.7241   18.8004  -40.2062 H   0  0  0  0  0  0  0  0  0  0  0  0
   25.7656   20.6917  -41.9172 N   0  0  0  0  0  0  0  0  0  0  0  0
   26.9608   21.0342  -41.1852 C   0  0  0  0  0  0  0  0  0  0  0  0
   26.8880   21.4820  -40.0570 O   0  0  0  0  0  0  0  0  0  0  0  0
   28.3092   20.8308  -41.8474 C   0  0  0  0  0  0  0  0  0  0  0  0
   25.8482   20.3316  -42.8297 H   0  0  0  0  0  0  0  0  0  0  0  0
   20.1327   20.0752  -41.1357 C   0  0  0  0  0  0  0  0  0  0  0  0
   19.3354   20.8963  -41.6532 O   0  0  0  0  0  0  0  0  0  0  0  0
   19.7125   19.1607  -40.3817 O   0  0  0  0  0  0  0  0  0  0  0  0
   20.3158   18.5533  -40.0008 H   0  0  0  0  0  0  0  0  0  0  0  0
   23.8972   22.6703  -42.8500 O   0  0  0  0  0  0  0  0  0  0  0  0
   23.9628   22.9019  -44.2351 C   0  0  0  0  0  0  0  0  0  0  0  0
   25.4105   22.9275  -44.7298 C   0  0  0  0  0  0  0  0  0  0  0  0
   26.3232   23.8884  -43.9913 C   0  0  0  0  0  0  0  0  0  0  0  0
   23.0569   24.0291  -44.7838 C   0  0  0  0  0  0  0  0  0  0  0  0
   21.5717   23.6973  -44.9696 C   0  0  0  0  0  0  0  0  0  0  0  0
 15 16  2  0  0  0
 15 17  1  0  0  0
 15  1  1  0  0  0
  1  2  1  0  0  0
  1  6  2  0  0  0
  2  3  1  0  0  0
  3  4  1  0  0  0
  3  7  1  0  0  0
  4 10  1  0  0  0
  4  5  1  0  0  0
 10 11  1  0  0  0
 11 12  2  0  0  0
 11 13  1  0  0  0
  5  6  1  0  0  0
  5 19  1  0  0  0
 19 20  1  0  0  0
 20 21  1  0  0  0
 20 23  1  0  0  0
 21 22  1  0  0  0
 23 24  1  0  0  0
 17 18  1  0  0  0
 10 14  1  0  0  0
  7  8  1  0  0  0
  7  9  1  0  0  0
M  END
> <minimizedAffinity>
-6.68608

$$$$
4B7R_G39_A_801


 24 24  0  0  0  0  0  0  0  0999 V2000
   25.4708   20.7925  -40.7453 C   0  0  0  0  0  0  0  0  0  0  0  0
   24.7641   19.4600  -40.9235 C   0  0  0  0  0  0  0  0  0  0  0  0
   23.2662   19.7369  -40.8065 C   0  0  0  0  0  0  0  0  0  0  0  0
   22.8431   20.7031  -41.9045 C   0  0  0  0  0  0  0  0  0  0  0  0
   23.6386   22.0065  -41.8654 C   0  0  0  0  0  0  0  0  0  0  0  0
   25.1544   21.8380  -41.7700 C   0  0  0  0  0  0  0  0  0  0  0  0
   22.4798   18.5227  -40.7386 N   0  0  0  0  0  0  0  0  0  0  0  0
   22.6046   17.9882  -41.5983 H   0  0  0  0  0  0  0  0  0  0  0  0
   21.4945   18.7616  -40.6268 H   0  0  0  0  0  0  0  0  0  0  0  0
   21.4133   21.0225  -41.8048 N   0  0  0  0  0  0  0  0  0  0  0  0
   20.4715   20.5995  -42.8126 C   0  0  0  0  0  0  0  0  0  0  0  0
   20.8443   19.9628  -43.7791 O   0  0  0  0  0  0  0  0  0  0  0  0
   19.0095   20.9658  -42.6491 C   0  0  0  0  0  0  0  0  0  0  0  0
   21.0894   21.5380  -41.0311 H   0  0  0  0  0  0  0  0  0  0  0  0
   26.9545   20.7353  -40.4141 C   0  0  0  0  0  0  0  0  0  0  0  0
   27.7786   21.4998  -40.9745 O   0  0  0  0  0  0  0  0  0  0  0  0
   27.3431   19.8569  -39.6025 O   0  0  0  0  0  0  0  0  0  0  0  0
   26.7199   19.2917  -39.1900 H   0  0  0  0  0  0  0  0  0  0  0  0
   23.3432   22.8182  -42.9568 O   0  0  0  0  0  0  0  0  0  0  0  0
   24.2525   23.8368  -43.2916 C   0  0  0  0  0  0  0  0  0  0  0  0
   23.8013   25.1919  -42.7426 C   0  0  0  0  0  0  0  0  0  0  0  0
   24.5356   25.6561  -41.4988 C   0  0  0  0  0  0  0  0  0  0  0  0
   24.7560   23.8508  -44.7539 C   0  0  0  0  0  0  0  0  0  0  0  0
   23.7383   23.4887  -45.8418 C   0  0  0  0  0  0  0  0  0  0  0  0
 15 16  2  0  0  0
 15 17  1  0  0  0
 15  1  1  0  0  0
  1  2  1  0  0  0
  1  6  2  0  0  0
  2  3  1  0  0  0
  3  4  1  0  0  0
  3  7  1  0  0  0
  4 10  1  0  0  0
  4  5  1  0  0  0
 10 11  1  0  0  0
 11 12  2  0  0  0
 11 13  1  0  0  0
  5  6  1  0  0  0
  5 19  1  0  0  0
 19 20  1  0  0  0
 20 21  1  0  0  0
 20 23  1  0  0  0
 21 22  1  0  0  0
 23 24  1  0  0  0
 17 18  1  0  0  0
 10 14  1  0  0  0
  7  8  1  0  0  0
  7  9  1  0  0  0
M  END
> <minimizedAffinity>
-6.61790

$$$$
4B7R_G39_A_801


 24 24  0  0  0  0  0  0  0  0999 V2000
   25.4558   20.7741  -40.7456 C   0  0  0  0  0  0  0  0  0  0  0  0
   24.6819   19.4706  -40.8363 C   0  0  0  0  0  0  0  0  0  0  0  0
   23.1988   19.8370  -40.8194 C   0  0  0  0  0  0  0  0  0  0  0  0
   22.8814   20.7171  -42.0205 C   0  0  0  0  0  0  0  0  0  0  0  0
   23.7485   21.9740  -42.0612 C   0  0  0  0  0  0  0  0  0  0  0  0
   25.2463   21.7342  -41.8759 C   0  0  0  0  0  0  0  0  0  0  0  0
   22.3411   18.6784  -40.6800 N   0  0  0  0  0  0  0  0  0  0  0  0
   22.4728   18.0597  -41.4802 H   0  0  0  0  0  0  0  0  0  0  0  0
   21.3673   18.9792  -40.6394 H   0  0  0  0  0  0  0  0  0  0  0  0
   21.4695   21.1206  -42.0213 N   0  0  0  0  0  0  0  0  0  0  0  0
   20.4985   20.4747  -42.8708 C   0  0  0  0  0  0  0  0  0  0  0  0
   20.8309   19.5722  -43.6148 O   0  0  0  0  0  0  0  0  0  0  0  0
   19.0573   20.9427  -42.8239 C   0  0  0  0  0  0  0  0  0  0  0  0
   21.1782   21.8499  -41.4275 H   0  0  0  0  0  0  0  0  0  0  0  0
   26.9176   20.6690  -40.3375 C   0  0  0  0  0  0  0  0  0  0  0  0
   27.3195   19.7522  -39.5788 O   0  0  0  0  0  0  0  0  0  0  0  0
   27.7057   21.5644  -40.7357 O   0  0  0  0  0  0  0  0  0  0  0  0
   27.3956   22.2438  -41.3015 H   0  0  0  0  0  0  0  0  0  0  0  0
   23.5493   22.6943  -43.2354 O   0  0  0  0  0  0  0  0  0  0  0  0
   22.6207   23.7498  -43.2169 C   0  0  0  0  0  0  0  0  0  0  0  0
   21.8451   23.8352  -44.5331 C   0  0  0  0  0  0  0  0  0  0  0  0
   22.7043   23.8509  -45.7834 C   0  0  0  0  0  0  0  0  0  0  0  0
   23.1308   25.1002  -42.6616 C   0  0  0  0  0  0  0  0  0  0  0  0
   24.6498   25.2759  -42.5517 C   0  0  0  0  0  0  0  0  0  0  0  0
 15 16  2  0  0  0
 15 17  1  0  0  0
 15  1  1  0  0  0
  1  2  1  0  0  0
  1  6  2  0  0  0
  2  3  1  0  0  0
  3  4  1  0  0  0
  3  7  1  0  0  0
  4 10  1  0  0  0
  4  5  1  0  0  0
 10 11  1  0  0  0
 11 12  2  0  0  0
 11 13  1  0  0  0
  5  6  1  0  0  0
  5 19  1  0  0  0
 19 20  1  0  0  0
 20 21  1  0  0  0
 20 23  1  0  0  0
 21 22  1  0  0  0
 23 24  1  0  0  0
 17 18  1  0  0  0
 10 14  1  0  0  0
  7  8  1  0  0  0
  7  9  1  0  0  0
M  END
> <minimizedAffinity>
-6.52973

$$$$
4B7R_G39_A_801


 24 24  0  0  0  0  0  0  0  0999 V2000
   25.5135   20.1969  -41.7087 C   0  0  0  0  0  0  0  0  0  0  0  0
   25.9919   21.6238  -41.9122 C   0  0  0  0  0  0  0  0  0  0  0  0
   25.2521   22.1663  -43.1339 C   0  0  0  0  0  0  0  0  0  0  0  0
   23.7535   22.1514  -42.8656 C   0  0  0  0  0  0  0  0  0  0  0  0
   23.2456   20.7579  -42.5005 C   0  0  0  0  0  0  0  0  0  0  0  0
   24.0523   20.0360  -41.4220 C   0  0  0  0  0  0  0  0  0  0  0  0
   25.7708   23.4440  -43.5762 N   0  0  0  0  0  0  0  0  0  0  0  0
   25.6462   24.1358  -42.8371 H   0  0  0  0  0  0  0  0  0  0  0  0
   25.2680   23.7444  -44.4113 H   0  0  0  0  0  0  0  0  0  0  0  0
   23.0033   22.6339  -44.0321 N   0  0  0  0  0  0  0  0  0  0  0  0
   22.3586   23.9247  -44.0360 C   0  0  0  0  0  0  0  0  0  0  0  0
   22.4212   24.6502  -43.0622 O   0  0  0  0  0  0  0  0  0  0  0  0
   21.5978   24.3600  -45.2729 C   0  0  0  0  0  0  0  0  0  0  0  0
   22.9386   22.0626  -44.8312 H   0  0  0  0  0  0  0  0  0  0  0  0
   26.3786   19.3099  -40.8261 C   0  0  0  0  0  0  0  0  0  0  0  0
   26.9342   19.7595  -39.7932 O   0  0  0  0  0  0  0  0  0  0  0  0
   26.5710   18.1226  -41.1931 O   0  0  0  0  0  0  0  0  0  0  0  0
   26.1516   17.7972  -41.9653 H   0  0  0  0  0  0  0  0  0  0  0  0
   21.9071   20.7856  -42.1195 O   0  0  0  0  0  0  0  0  0  0  0  0
   21.0658   19.7558  -42.5757 C   0  0  0  0  0  0  0  0  0  0  0  0
   19.7834   20.3148  -43.1957 C   0  0  0  0  0  0  0  0  0  0  0  0
   19.4081   21.7126  -42.7406 C   0  0  0  0  0  0  0  0  0  0  0  0
   20.8688   18.5581  -41.6172 C   0  0  0  0  0  0  0  0  0  0  0  0
   20.6635   18.8834  -40.1332 C   0  0  0  0  0  0  0  0  0  0  0  0
 15 16  2  0  0  0
 15 17  1  0  0  0
 15  1  1  0  0  0
  1  2  1  0  0  0
  1  6  2  0  0  0
  2  3  1  0  0  0
  3  4  1  0  0  0
  3  7  1  0  0  0
  4 10  1  0  0  0
  4  5  1  0  0  0
 10 11  1  0  0  0
 11 12  2  0  0  0
 11 13  1  0  0  0
  5  6  1  0  0  0
  5 19  1  0  0  0
 19 20  1  0  0  0
 20 21  1  0  0  0
 20 23  1  0  0  0
 21 22  1  0  0  0
 23 24  1  0  0  0
 17 18  1  0  0  0
 10 14  1  0  0  0
  7  8  1  0  0  0
  7  9  1  0  0  0
M  END
> <minimizedAffinity>
-6.49141

$$$$
4B7R_G39_A_801


 24 24  0  0  0  0  0  0  0  0999 V2000
   26.8709   21.1247  -41.6953 C   0  0  0  0  0  0  0  0  0  0  0  0
   26.4824   19.6566  -41.6839 C   0  0  0  0  0  0  0  0  0  0  0  0
   25.2771   19.5272  -40.7541 C   0  0  0  0  0  0  0  0  0  0  0  0
   24.1282   20.3670  -41.2954 C   0  0  0  0  0  0  0  0  0  0  0  0
   24.5183   21.8330  -41.4744 C   0  0  0  0  0  0  0  0  0  0  0  0
   25.8319   22.0678  -42.2190 C   0  0  0  0  0  0  0  0  0  0  0  0
   24.9343   18.1478  -40.4764 N   0  0  0  0  0  0  0  0  0  0  0  0
   24.6756   17.6802  -41.3452 H   0  0  0  0  0  0  0  0  0  0  0  0
   24.1486   18.1170  -39.8266 H   0  0  0  0  0  0  0  0  0  0  0  0
   22.9595   20.2970  -40.4091 N   0  0  0  0  0  0  0  0  0  0  0  0
   21.8987   19.3444  -40.6297 C   0  0  0  0  0  0  0  0  0  0  0  0
   21.9479   18.5698  -41.5658 O   0  0  0  0  0  0  0  0  0  0  0  0
   20.7190   19.3278  -39.6777 C   0  0  0  0  0  0  0  0  0  0  0  0
   22.8983   20.9154  -39.6455 H   0  0  0  0  0  0  0  0  0  0  0  0
   28.2647   21.4544  -42.2083 C   0  0  0  0  0  0  0  0  0  0  0  0
   29.0709   22.1291  -41.5210 O   0  0  0  0  0  0  0  0  0  0  0  0
   28.5679   21.0807  -43.3701 O   0  0  0  0  0  0  0  0  0  0  0  0
   27.9590   20.5778  -43.8744 H   0  0  0  0  0  0  0  0  0  0  0  0
   23.5089   22.5573  -42.1018 O   0  0  0  0  0  0  0  0  0  0  0  0
   23.0222   23.7099  -41.4605 C   0  0  0  0  0  0  0  0  0  0  0  0
   21.5563   23.5464  -41.0534 C   0  0  0  0  0  0  0  0  0  0  0  0
   20.7571   22.5823  -41.9098 C   0  0  0  0  0  0  0  0  0  0  0  0
   23.3777   25.0622  -42.1214 C   0  0  0  0  0  0  0  0  0  0  0  0
   24.6445   25.7668  -41.6224 C   0  0  0  0  0  0  0  0  0  0  0  0
 15 16  2  0  0  0
 15 17  1  0  0  0
 15  1  1  0  0  0
  1  2  1  0  0  0
  1  6  2  0  0  0
  2  3  1  0  0  0
  3  4  1  0  0  0
  3  7  1  0  0  0
  4 10  1  0  0  0
  4  5  1  0  0  0
 10 11  1  0  0  0
 11 12  2  0  0  0
 11 13  1  0  0  0
  5  6  1  0  0  0
  5 19  1  0  0  0
 19 20  1  0  0  0
 20 21  1  0  0  0
 20 23  1  0  0  0
 21 22  1  0  0  0
 23 24  1  0  0  0
 17 18  1  0  0  0
 10 14  1  0  0  0
  7  8  1  0  0  0
  7  9  1  0  0  0
M  END
> <minimizedAffinity>
-6.32629

$$$$
4B7R_G39_A_801


 24 24  0  0  0  0  0  0  0  0999 V2000
   23.4494   23.4590  -41.5910 C   0  0  0  0  0  0  0  0  0  0  0  0
   24.7989   23.5544  -42.2811 C   0  0  0  0  0  0  0  0  0  0  0  0
   25.6116   22.3426  -41.8283 C   0  0  0  0  0  0  0  0  0  0  0  0
   24.8972   21.0670  -42.2530 C   0  0  0  0  0  0  0  0  0  0  0  0
   23.4712   20.9951  -41.7102 C   0  0  0  0  0  0  0  0  0  0  0  0
   22.6301   22.2519  -41.9300 C   0  0  0  0  0  0  0  0  0  0  0  0
   26.9989   22.4190  -42.2371 N   0  0  0  0  0  0  0  0  0  0  0  0
   27.0529   22.4340  -43.2555 H   0  0  0  0  0  0  0  0  0  0  0  0
   27.5032   21.6067  -41.8818 H   0  0  0  0  0  0  0  0  0  0  0  0
   25.6307   19.8764  -41.8047 N   0  0  0  0  0  0  0  0  0  0  0  0
   26.7052   19.3116  -42.5844 C   0  0  0  0  0  0  0  0  0  0  0  0
   27.0309   19.8132  -43.6432 O   0  0  0  0  0  0  0  0  0  0  0  0
   27.4189   18.0795  -42.0642 C   0  0  0  0  0  0  0  0  0  0  0  0
   25.3832   19.4533  -40.9510 H   0  0  0  0  0  0  0  0  0  0  0  0
   22.6168   24.7316  -41.5486 C   0  0  0  0  0  0  0  0  0  0  0  0
   21.9268   25.0273  -40.5416 O   0  0  0  0  0  0  0  0  0  0  0  0
   22.5923   25.4535  -42.5779 O   0  0  0  0  0  0  0  0  0  0  0  0
   23.1110   25.2238  -43.3238 H   0  0  0  0  0  0  0  0  0  0  0  0
   22.7844   19.8980  -42.2220 O   0  0  0  0  0  0  0  0  0  0  0  0
   21.4446   19.7152  -41.8370 C   0  0  0  0  0  0  0  0  0  0  0  0
   21.3195   18.6695  -40.7270 C   0  0  0  0  0  0  0  0  0  0  0  0
   20.7907   17.3199  -41.1747 C   0  0  0  0  0  0  0  0  0  0  0  0
   20.4146   19.5882  -42.9837 C   0  0  0  0  0  0  0  0  0  0  0  0
   19.4322   20.7509  -43.1661 C   0  0  0  0  0  0  0  0  0  0  0  0
 15 16  2  0  0  0
 15 17  1  0  0  0
 15  1  1  0  0  0
  1  2  1  0  0  0
  1  6  2  0  0  0
  2  3  1  0  0  0
  3  4  1  0  0  0
  3  7  1  0  0  0
  4 10  1  0  0  0
  4  5  1  0  0  0
 10 11  1  0  0  0
 11 12  2  0  0  0
 11 13  1  0  0  0
  5  6  1  0  0  0
  5 19  1  0  0  0
 19 20  1  0  0  0
 20 21  1  0  0  0
 20 23  1  0  0  0
 21 22  1  0  0  0
 23 24  1  0  0  0
 17 18  1  0  0  0
 10 14  1  0  0  0
  7  8  1  0  0  0
  7  9  1  0  0  0
M  END
> <minimizedAffinity>
-6.28899

$$$$
4B7R_G39_A_801


 24 24  0  0  0  0  0  0  0  0999 V2000
   26.0320   23.0249  -43.7847 C   0  0  0  0  0  0  0  0  0  0  0  0
   26.7530   22.1969  -42.7354 C   0  0  0  0  0  0  0  0  0  0  0  0
   25.8026   22.0693  -41.5460 C   0  0  0  0  0  0  0  0  0  0  0  0
   24.5309   21.3586  -41.9885 C   0  0  0  0  0  0  0  0  0  0  0  0
   23.8465   22.0709  -43.1536 C   0  0  0  0  0  0  0  0  0  0  0  0
   24.7641   22.4342  -44.3202 C   0  0  0  0  0  0  0  0  0  0  0  0
   26.4417   21.4890  -40.3831 N   0  0  0  0  0  0  0  0  0  0  0  0
   26.7523   20.5426  -40.6027 H   0  0  0  0  0  0  0  0  0  0  0  0
   25.7772   21.4580  -39.6099 H   0  0  0  0  0  0  0  0  0  0  0  0
   23.5749   21.2472  -40.8795 N   0  0  0  0  0  0  0  0  0  0  0  0
   22.9617   19.9880  -40.5329 C   0  0  0  0  0  0  0  0  0  0  0  0
   23.2243   18.9792  -41.1589 O   0  0  0  0  0  0  0  0  0  0  0  0
   21.9808   19.9441  -39.3778 C   0  0  0  0  0  0  0  0  0  0  0  0
   23.3468   22.0515  -40.3596 H   0  0  0  0  0  0  0  0  0  0  0  0
   26.8950   23.6349  -44.8791 C   0  0  0  0  0  0  0  0  0  0  0  0
   27.7900   22.9667  -45.4536 O   0  0  0  0  0  0  0  0  0  0  0  0
   26.7259   24.8505  -45.1531 O   0  0  0  0  0  0  0  0  0  0  0  0
   26.0553   25.3398  -44.7187 H   0  0  0  0  0  0  0  0  0  0  0  0
   22.7690   21.3360  -43.6396 O   0  0  0  0  0  0  0  0  0  0  0  0
   21.5232   21.9783  -43.7493 C   0  0  0  0  0  0  0  0  0  0  0  0
   21.6829   23.4977  -43.8329 C   0  0  0  0  0  0  0  0  0  0  0  0
   21.5408   24.0814  -45.2260 C   0  0  0  0  0  0  0  0  0  0  0  0
   20.4114   21.4821  -42.7955 C   0  0  0  0  0  0  0  0  0  0  0  0
   19.9779   20.0184  -42.9368 C   0  0  0  0  0  0  0  0  0  0  0  0
 15 16  2  0  0  0
 15 17  1  0  0  0
 15  1  1  0  0  0
  1  2  1  0  0  0
  1  6  2  0  0  0
  2  3  1  0  0  0
  3  4  1  0  0  0
  3  7  1  0  0  0
  4 10  1  0  0  0
  4  5  1  0  0  0
 10 11  1  0  0  0
 11 12  2  0  0  0
 11 13  1  0  0  0
  5  6  1  0  0  0
  5 19  1  0  0  0
 19 20  1  0  0  0
 20 21  1  0  0  0
 20 23  1  0  0  0
 21 22  1  0  0  0
 23 24  1  0  0  0
 17 18  1  0  0  0
 10 14  1  0  0  0
  7  8  1  0  0  0
  7  9  1  0  0  0
M  END
> <minimizedAffinity>
-6.07252

$$$$
4B7R_G39_A_801


 24 24  0  0  0  0  0  0  0  0999 V2000
   24.3431   20.1036  -41.2614 C   0  0  0  0  0  0  0  0  0  0  0  0
   25.6489   19.4100  -40.9145 C   0  0  0  0  0  0  0  0  0  0  0  0
   26.6599   19.8129  -41.9867 C   0  0  0  0  0  0  0  0  0  0  0  0
   26.8485   21.3235  -41.9621 C   0  0  0  0  0  0  0  0  0  0  0  0
   25.5314   22.0735  -42.1516 C   0  0  0  0  0  0  0  0  0  0  0  0
   24.3826   21.6008  -41.2617 C   0  0  0  0  0  0  0  0  0  0  0  0
   27.8896   19.0523  -41.9055 N   0  0  0  0  0  0  0  0  0  0  0  0
   28.3403   19.2295  -41.0078 H   0  0  0  0  0  0  0  0  0  0  0  0
   28.5142   19.3342  -42.6611 H   0  0  0  0  0  0  0  0  0  0  0  0
   27.7889   21.7554  -43.0039 N   0  0  0  0  0  0  0  0  0  0  0  0
   29.1067   22.2441  -42.6783 C   0  0  0  0  0  0  0  0  0  0  0  0
   29.4727   22.3115  -41.5206 O   0  0  0  0  0  0  0  0  0  0  0  0
   30.0266   22.6765  -43.8030 C   0  0  0  0  0  0  0  0  0  0  0  0
   27.5133   21.7104  -43.9480 H   0  0  0  0  0  0  0  0  0  0  0  0
   23.0871   19.5568  -40.5997 C   0  0  0  0  0  0  0  0  0  0  0  0
   22.2133   18.9446  -41.2626 O   0  0  0  0  0  0  0  0  0  0  0  0
   22.9190   19.7873  -39.3750 O   0  0  0  0  0  0  0  0  0  0  0  0
   23.5771   20.2448  -38.8898 H   0  0  0  0  0  0  0  0  0  0  0  0
   25.6961   23.4455  -41.9842 O   0  0  0  0  0  0  0  0  0  0  0  0
   25.1561   24.3025  -42.9591 C   0  0  0  0  0  0  0  0  0  0  0  0
   24.0094   25.1421  -42.3922 C   0  0  0  0  0  0  0  0  0  0  0  0
   23.9953   25.2700  -40.8805 C   0  0  0  0  0  0  0  0  0  0  0  0
   24.8932   23.6777  -44.3492 C   0  0  0  0  0  0  0  0  0  0  0  0
   23.4528   23.7288  -44.8718 C   0  0  0  0  0  0  0  0  0  0  0  0
 15 16  2  0  0  0
 15 17  1  0  0  0
 15  1  1  0  0  0
  1  2  1  0  0  0
  1  6  2  0  0  0
  2  3  1  0  0  0
  3  4  1  0  0  0
  3  7  1  0  0  0
  4 10  1  0  0  0
  4  5  1  0  0  0
 10 11  1  0  0  0
 11 12  2  0  0  0
 11 13  1  0  0  0
  5  6  1  0  0  0
  5 19  1  0  0  0
 19 20  1  0  0  0
 20 21  1  0  0  0
 20 23  1  0  0  0
 21 22  1  0  0  0
 23 24  1  0  0  0
 17 18  1  0  0  0
 10 14  1  0  0  0
  7  8  1  0  0  0
  7  9  1  0  0  0
M  END
> <minimizedAffinity>
-6.05593

$$$$
4B7R_G39_A_801


 24 24  0  0  0  0  0  0  0  0999 V2000
   23.4155   23.7742  -41.9949 C   0  0  0  0  0  0  0  0  0  0  0  0
   24.0196   24.3702  -43.2544 C   0  0  0  0  0  0  0  0  0  0  0  0
   24.6366   23.2124  -44.0372 C   0  0  0  0  0  0  0  0  0  0  0  0
   23.5486   22.2122  -44.4029 C   0  0  0  0  0  0  0  0  0  0  0  0
   22.8009   21.6968  -43.1746 C   0  0  0  0  0  0  0  0  0  0  0  0
   22.3176   22.7782  -42.2091 C   0  0  0  0  0  0  0  0  0  0  0  0
   25.4397   23.6623  -45.1552 N   0  0  0  0  0  0  0  0  0  0  0  0
   24.8501   24.1701  -45.8147 H   0  0  0  0  0  0  0  0  0  0  0  0
   25.8552   22.8560  -45.6217 H   0  0  0  0  0  0  0  0  0  0  0  0
   24.1083   21.0643  -45.1277 N   0  0  0  0  0  0  0  0  0  0  0  0
   24.0552   20.9793  -46.5670 C   0  0  0  0  0  0  0  0  0  0  0  0
   23.5388   21.8655  -47.2202 O   0  0  0  0  0  0  0  0  0  0  0  0
   24.6499   19.7646  -47.2518 C   0  0  0  0  0  0  0  0  0  0  0  0
   24.5303   20.3346  -44.6190 H   0  0  0  0  0  0  0  0  0  0  0  0
   23.1053   24.7450  -40.8654 C   0  0  0  0  0  0  0  0  0  0  0  0
   21.9262   25.0943  -40.6098 O   0  0  0  0  0  0  0  0  0  0  0  0
   24.0724   25.2363  -40.2292 O   0  0  0  0  0  0  0  0  0  0  0  0
   24.9482   24.9688  -40.4279 H   0  0  0  0  0  0  0  0  0  0  0  0
   21.7197   20.8968  -43.5331 O   0  0  0  0  0  0  0  0  0  0  0  0
   21.3698   19.8338  -42.6821 C   0  0  0  0  0  0  0  0  0  0  0  0
   19.8691   19.8276  -42.3832 C   0  0  0  0  0  0  0  0  0  0  0  0
   19.1026   21.0188  -42.9264 C   0  0  0  0  0  0  0  0  0  0  0  0
   22.2882   19.6061  -41.4587 C   0  0  0  0  0  0  0  0  0  0  0  0
   21.6404   19.7200  -40.0739 C   0  0  0  0  0  0  0  0  0  0  0  0
 15 16  2  0  0  0
 15 17  1  0  0  0
 15  1  1  0  0  0
  1  2  1  0  0  0
  1  6  2  0  0  0
  2  3  1  0  0  0
  3  4  1  0  0  0
  3  7  1  0  0  0
  4 10  1  0  0  0
  4  5  1  0  0  0
 10 11  1  0  0  0
 11 12  2  0  0  0
 11 13  1  0  0  0
  5  6  1  0  0  0
  5 19  1  0  0  0
 19 20  1  0  0  0
 20 21  1  0  0  0
 20 23  1  0  0  0
 21 22  1  0  0  0
 23 24  1  0  0  0
 17 18  1  0  0  0
 10 14  1  0  0  0
  7  8  1  0  0  0
  7  9  1  0  0  0
M  END
> <minimizedAffinity>
-5.99166

$$$$
