3BKK_KAF_A_704


 41 43  0  0  0  0  0  0  0  0999 V2000
   45.4531   45.7427   46.9362 C   0  0  0  0  0  0  0  0  0  0  0  0
   45.3140   44.6149   46.0645 O   0  0  0  0  0  0  0  0  0  0  0  0
   44.1570   46.3000   47.1788 O   0  0  0  0  0  0  0  0  0  0  0  0
   46.0713   44.1296   45.8019 H   0  0  0  0  0  0  0  0  0  0  0  0
   44.0657   47.0499   47.7331 H   0  0  0  0  0  0  0  0  0  0  0  0
   46.3174   46.8209   46.2763 C   0  0  0  0  0  0  0  0  0  0  0  0
   45.4605   47.8300   45.4896 C   0  0  0  0  0  0  0  0  0  0  0  0
   46.2731   48.5341   43.3077 N   0  0  0  0  0  0  0  0  0  0  0  0
   45.6638   47.5757   43.9993 C   0  0  0  0  0  0  0  0  0  0  0  0
   45.2918   46.5173   43.4933 O   0  0  0  0  0  0  0  0  0  0  0  0
   46.5596   49.3564   43.7670 H   0  0  0  0  0  0  0  0  0  0  0  0
   46.5231   48.3850   41.8787 C   0  0  0  0  0  0  0  0  0  0  0  0
   47.9214   48.8800   41.5259 C   0  0  0  0  0  0  0  0  0  0  0  0
   48.7588   48.0252   41.1673 O   0  0  0  0  0  0  0  0  0  0  0  0
   48.1576   50.1058   41.5866 O   0  0  0  0  0  0  0  0  0  0  0  0
   48.5219   47.1190   41.1421 H   0  0  0  0  0  0  0  0  0  0  0  0
   45.4671   49.1306   41.0577 C   0  0  0  0  0  0  0  0  0  0  0  0
   43.0119   48.6920   40.8048 C   0  0  0  0  0  0  0  0  0  0  0  0
   41.9424   47.9144   40.3981 C   0  0  0  0  0  0  0  0  0  0  0  0
   42.1758   46.7070   39.7642 C   0  0  0  0  0  0  0  0  0  0  0  0
   43.4752   46.2862   39.5429 C   0  0  0  0  0  0  0  0  0  0  0  0
   44.5363   47.0723   39.9544 C   0  0  0  0  0  0  0  0  0  0  0  0
   44.3176   48.2828   40.5907 C   0  0  0  0  0  0  0  0  0  0  0  0
   46.0521   45.3160   48.2806 C   0  0  0  0  0  0  0  0  0  0  0  0
   45.7144   43.9366   48.6169 N   0  0  0  0  0  0  0  0  0  0  0  0
   44.6230   43.6275   49.3109 C   0  0  0  0  0  0  0  0  0  0  0  0
   43.8012   44.4569   49.7054 O   0  0  0  0  0  0  0  0  0  0  0  0
   46.3128   43.2130   48.3211 H   0  0  0  0  0  0  0  0  0  0  0  0
   44.4256   42.1357   49.5759 C   0  0  0  0  0  0  0  0  0  0  0  0
   45.2451   41.2033   48.9634 C   0  0  0  0  0  0  0  0  0  0  0  0
   45.0669   39.8522   49.1966 C   0  0  0  0  0  0  0  0  0  0  0  0
   44.0649   39.4180   50.0450 C   0  0  0  0  0  0  0  0  0  0  0  0
   43.2415   40.3444   50.6567 C   0  0  0  0  0  0  0  0  0  0  0  0
   43.4219   41.6947   50.4216 C   0  0  0  0  0  0  0  0  0  0  0  0
   47.5838   45.4817   48.3084 C   0  0  0  0  0  0  0  0  0  0  0  0
   48.1186   45.5975   49.7086 C   0  0  0  0  0  0  0  0  0  0  0  0
   48.0461   46.7959   50.3981 C   0  0  0  0  0  0  0  0  0  0  0  0
   48.5180   46.9023   51.6934 C   0  0  0  0  0  0  0  0  0  0  0  0
   49.0720   45.7974   52.3151 C   0  0  0  0  0  0  0  0  0  0  0  0
   49.1522   44.5946   51.6385 C   0  0  0  0  0  0  0  0  0  0  0  0
   48.6767   44.5001   50.3435 C   0  0  0  0  0  0  0  0  0  0  0  0
 19 18  2  0  0  0
 23 18  1  0  0  0
 20 19  1  0  0  0
 21 20  2  0  0  0
 21 22  1  0  0  0
 22 23  2  0  0  0
 23 17  1  0  0  0
 17 12  1  0  0  0
 13 12  1  0  0  0
 12  8  1  0  0  0
 15 13  2  0  0  0
 13 14  1  0  0  0
  8  9  1  0  0  0
  9 10  2  0  0  0
  9  7  1  0  0  0
  7  6  1  0  0  0
  6  1  1  0  0  0
  2  1  1  0  0  0
  1  3  1  0  0  0
  1 24  1  0  0  0
 35 24  1  0  0  0
 24 25  1  0  0  0
 35 36  1  0  0  0
 36 41  2  0  0  0
 36 37  1  0  0  0
 37 38  2  0  0  0
 38 39  1  0  0  0
 40 39  2  0  0  0
 41 40  1  0  0  0
 25 26  1  0  0  0
 26 27  2  0  0  0
 26 29  1  0  0  0
 30 29  2  0  0  0
 29 34  1  0  0  0
 30 31  1  0  0  0
 31 32  2  0  0  0
 32 33  1  0  0  0
 34 33  2  0  0  0
 14 16  1  0  0  0
  8 11  1  0  0  0
  2  4  1  0  0  0
  3  5  1  0  0  0
 25 28  1  0  0  0
M  END
> <minimizedAffinity>
-10.28232

$$$$
3BKK_KAF_A_704


 41 43  0  0  0  0  0  0  0  0999 V2000
   44.8095   49.0794   44.3763 C   0  0  0  0  0  0  0  0  0  0  0  0
   43.5246   48.5559   44.7316 O   0  0  0  0  0  0  0  0  0  0  0  0
   45.3285   49.8193   45.4866 O   0  0  0  0  0  0  0  0  0  0  0  0
   43.0410   48.0425   44.1148 H   0  0  0  0  0  0  0  0  0  0  0  0
   46.1673   50.2322   45.4234 H   0  0  0  0  0  0  0  0  0  0  0  0
   44.6834   50.0349   43.1864 C   0  0  0  0  0  0  0  0  0  0  0  0
   46.0641   50.4617   42.6546 C   0  0  0  0  0  0  0  0  0  0  0  0
   44.8189   50.8175   40.5955 N   0  0  0  0  0  0  0  0  0  0  0  0
   45.9978   50.5159   41.1315 C   0  0  0  0  0  0  0  0  0  0  0  0
   47.0067   50.3080   40.4580 O   0  0  0  0  0  0  0  0  0  0  0  0
   44.0474   50.9854   41.1836 H   0  0  0  0  0  0  0  0  0  0  0  0
   44.6521   50.9033   39.1494 C   0  0  0  0  0  0  0  0  0  0  0  0
   45.3940   52.1152   38.5964 C   0  0  0  0  0  0  0  0  0  0  0  0
   46.3787   51.8975   37.8593 O   0  0  0  0  0  0  0  0  0  0  0  0
   44.9745   53.2576   38.8814 O   0  0  0  0  0  0  0  0  0  0  0  0
   46.6458   51.0170   37.6821 H   0  0  0  0  0  0  0  0  0  0  0  0
   43.1691   50.9642   38.7722 C   0  0  0  0  0  0  0  0  0  0  0  0
   42.6648   48.9526   37.3639 C   0  0  0  0  0  0  0  0  0  0  0  0
   42.0549   47.7295   37.1496 C   0  0  0  0  0  0  0  0  0  0  0  0
   41.2838   47.1645   38.1498 C   0  0  0  0  0  0  0  0  0  0  0  0
   41.1275   47.8265   39.3547 C   0  0  0  0  0  0  0  0  0  0  0  0
   41.7421   49.0491   39.5570 C   0  0  0  0  0  0  0  0  0  0  0  0
   42.5163   49.6268   38.5645 C   0  0  0  0  0  0  0  0  0  0  0  0
   45.7867   47.9429   44.0574 C   0  0  0  0  0  0  0  0  0  0  0  0
   46.3974   47.3918   45.2629 N   0  0  0  0  0  0  0  0  0  0  0  0
   45.7388   46.5685   46.0732 C   0  0  0  0  0  0  0  0  0  0  0  0
   44.5850   46.1842   45.8733 O   0  0  0  0  0  0  0  0  0  0  0  0
   47.3251   47.6370   45.4828 H   0  0  0  0  0  0  0  0  0  0  0  0
   46.5287   46.0892   47.2902 C   0  0  0  0  0  0  0  0  0  0  0  0
   47.9030   46.2477   47.3372 C   0  0  0  0  0  0  0  0  0  0  0  0
   48.6222   45.8111   48.4344 C   0  0  0  0  0  0  0  0  0  0  0  0
   47.9742   45.2091   49.4973 C   0  0  0  0  0  0  0  0  0  0  0  0
   46.6025   45.0452   49.4544 C   0  0  0  0  0  0  0  0  0  0  0  0
   45.8859   45.4826   48.3560 C   0  0  0  0  0  0  0  0  0  0  0  0
   45.1103   46.8048   43.2688 C   0  0  0  0  0  0  0  0  0  0  0  0
   45.4441   46.8508   41.8037 C   0  0  0  0  0  0  0  0  0  0  0  0
   46.7604   46.9062   41.3780 C   0  0  0  0  0  0  0  0  0  0  0  0
   47.0734   46.9280   40.0314 C   0  0  0  0  0  0  0  0  0  0  0  0
   46.0598   46.8940   39.0904 C   0  0  0  0  0  0  0  0  0  0  0  0
   44.7407   46.8398   39.5006 C   0  0  0  0  0  0  0  0  0  0  0  0
   44.4399   46.8182   40.8502 C   0  0  0  0  0  0  0  0  0  0  0  0
 19 18  2  0  0  0
 23 18  1  0  0  0
 20 19  1  0  0  0
 21 20  2  0  0  0
 21 22  1  0  0  0
 22 23  2  0  0  0
 23 17  1  0  0  0
 17 12  1  0  0  0
 13 12  1  0  0  0
 12  8  1  0  0  0
 15 13  2  0  0  0
 13 14  1  0  0  0
  8  9  1  0  0  0
  9 10  2  0  0  0
  9  7  1  0  0  0
  7  6  1  0  0  0
  6  1  1  0  0  0
  2  1  1  0  0  0
  1  3  1  0  0  0
  1 24  1  0  0  0
 35 24  1  0  0  0
 24 25  1  0  0  0
 35 36  1  0  0  0
 36 41  2  0  0  0
 36 37  1  0  0  0
 37 38  2  0  0  0
 38 39  1  0  0  0
 40 39  2  0  0  0
 41 40  1  0  0  0
 25 26  1  0  0  0
 26 27  2  0  0  0
 26 29  1  0  0  0
 30 29  2  0  0  0
 29 34  1  0  0  0
 30 31  1  0  0  0
 31 32  2  0  0  0
 32 33  1  0  0  0
 34 33  2  0  0  0
 14 16  1  0  0  0
  8 11  1  0  0  0
  2  4  1  0  0  0
  3  5  1  0  0  0
 25 28  1  0  0  0
M  END
> <minimizedAffinity>
-10.14284

$$$$
3BKK_KAF_A_704


 41 43  0  0  0  0  0  0  0  0999 V2000
   46.4827   44.3699   47.9034 C   0  0  0  0  0  0  0  0  0  0  0  0
   47.8792   44.2950   47.5945 O   0  0  0  0  0  0  0  0  0  0  0  0
   45.7577   43.5838   46.9517 O   0  0  0  0  0  0  0  0  0  0  0  0
   48.5012   44.7555   48.1227 H   0  0  0  0  0  0  0  0  0  0  0  0
   44.8244   43.5228   47.0084 H   0  0  0  0  0  0  0  0  0  0  0  0
   45.9918   45.8164   47.7967 C   0  0  0  0  0  0  0  0  0  0  0  0
   44.8592   45.9548   46.7626 C   0  0  0  0  0  0  0  0  0  0  0  0
   44.5103   47.5907   44.9966 N   0  0  0  0  0  0  0  0  0  0  0  0
   45.3790   46.7744   45.5857 C   0  0  0  0  0  0  0  0  0  0  0  0
   46.5549   46.6809   45.2348 O   0  0  0  0  0  0  0  0  0  0  0  0
   43.5838   47.6332   45.3268 H   0  0  0  0  0  0  0  0  0  0  0  0
   44.9099   48.4238   43.8683 C   0  0  0  0  0  0  0  0  0  0  0  0
   44.9383   49.8937   44.2726 C   0  0  0  0  0  0  0  0  0  0  0  0
   45.3396   50.1640   45.4243 O   0  0  0  0  0  0  0  0  0  0  0  0
   44.5870   50.7535   43.4362 O   0  0  0  0  0  0  0  0  0  0  0  0
   45.5896   49.4744   46.0073 H   0  0  0  0  0  0  0  0  0  0  0  0
   43.9740   48.2139   42.6745 C   0  0  0  0  0  0  0  0  0  0  0  0
   45.9129   47.4326   41.2908 C   0  0  0  0  0  0  0  0  0  0  0  0
   46.4600   46.7003   40.2524 C   0  0  0  0  0  0  0  0  0  0  0  0
   45.6399   45.9142   39.4626 C   0  0  0  0  0  0  0  0  0  0  0  0
   44.2805   45.8671   39.7161 C   0  0  0  0  0  0  0  0  0  0  0  0
   43.7451   46.6041   40.7572 C   0  0  0  0  0  0  0  0  0  0  0  0
   44.5539   47.3958   41.5553 C   0  0  0  0  0  0  0  0  0  0  0  0
   46.2075   43.8060   49.3015 C   0  0  0  0  0  0  0  0  0  0  0  0
   46.6228   44.7271   50.3546 N   0  0  0  0  0  0  0  0  0  0  0  0
   47.8246   44.6561   50.9193 C   0  0  0  0  0  0  0  0  0  0  0  0
   48.6887   43.8388   50.5965 O   0  0  0  0  0  0  0  0  0  0  0  0
   45.9941   45.4222   50.6560 H   0  0  0  0  0  0  0  0  0  0  0  0
   48.0911   45.6960   52.0066 C   0  0  0  0  0  0  0  0  0  0  0  0
   47.9591   45.3588   53.3426 C   0  0  0  0  0  0  0  0  0  0  0  0
   48.1947   46.2981   54.3296 C   0  0  0  0  0  0  0  0  0  0  0  0
   48.5638   47.5869   53.9907 C   0  0  0  0  0  0  0  0  0  0  0  0
   48.6938   47.9301   52.6581 C   0  0  0  0  0  0  0  0  0  0  0  0
   48.4576   46.9890   51.6734 C   0  0  0  0  0  0  0  0  0  0  0  0
   44.7209   43.4517   49.4983 C   0  0  0  0  0  0  0  0  0  0  0  0
   44.5124   41.9818   49.7347 C   0  0  0  0  0  0  0  0  0  0  0  0
   45.4554   41.0565   49.3207 C   0  0  0  0  0  0  0  0  0  0  0  0
   45.2780   39.7052   49.5540 C   0  0  0  0  0  0  0  0  0  0  0  0
   44.1426   39.2653   50.2109 C   0  0  0  0  0  0  0  0  0  0  0  0
   43.1918   40.1775   50.6289 C   0  0  0  0  0  0  0  0  0  0  0  0
   43.3803   41.5265   50.3903 C   0  0  0  0  0  0  0  0  0  0  0  0
 19 18  2  0  0  0
 23 18  1  0  0  0
 20 19  1  0  0  0
 21 20  2  0  0  0
 21 22  1  0  0  0
 22 23  2  0  0  0
 23 17  1  0  0  0
 17 12  1  0  0  0
 13 12  1  0  0  0
 12  8  1  0  0  0
 15 13  2  0  0  0
 13 14  1  0  0  0
  8  9  1  0  0  0
  9 10  2  0  0  0
  9  7  1  0  0  0
  7  6  1  0  0  0
  6  1  1  0  0  0
  2  1  1  0  0  0
  1  3  1  0  0  0
  1 24  1  0  0  0
 35 24  1  0  0  0
 24 25  1  0  0  0
 35 36  1  0  0  0
 36 41  2  0  0  0
 36 37  1  0  0  0
 37 38  2  0  0  0
 38 39  1  0  0  0
 40 39  2  0  0  0
 41 40  1  0  0  0
 25 26  1  0  0  0
 26 27  2  0  0  0
 26 29  1  0  0  0
 30 29  2  0  0  0
 29 34  1  0  0  0
 30 31  1  0  0  0
 31 32  2  0  0  0
 32 33  1  0  0  0
 34 33  2  0  0  0
 14 16  1  0  0  0
  8 11  1  0  0  0
  2  4  1  0  0  0
  3  5  1  0  0  0
 25 28  1  0  0  0
M  END
> <minimizedAffinity>
-10.04962

$$$$
3BKK_KAF_A_704


 41 43  0  0  0  0  0  0  0  0999 V2000
   46.4678   44.3396   47.8548 C   0  0  0  0  0  0  0  0  0  0  0  0
   47.8721   44.3328   47.5736 O   0  0  0  0  0  0  0  0  0  0  0  0
   45.8019   43.5116   46.8954 O   0  0  0  0  0  0  0  0  0  0  0  0
   48.4597   44.8275   48.1101 H   0  0  0  0  0  0  0  0  0  0  0  0
   44.8719   43.4042   46.9344 H   0  0  0  0  0  0  0  0  0  0  0  0
   45.9073   45.7589   47.7273 C   0  0  0  0  0  0  0  0  0  0  0  0
   46.7870   46.6350   46.8161 C   0  0  0  0  0  0  0  0  0  0  0  0
   46.8785   47.2579   44.4666 N   0  0  0  0  0  0  0  0  0  0  0  0
   46.2164   46.5840   45.4023 C   0  0  0  0  0  0  0  0  0  0  0  0
   45.2043   45.9255   45.1643 O   0  0  0  0  0  0  0  0  0  0  0  0
   47.6897   47.7589   44.7121 H   0  0  0  0  0  0  0  0  0  0  0  0
   46.4205   47.2659   43.0821 C   0  0  0  0  0  0  0  0  0  0  0  0
   47.5735   47.5925   42.1394 C   0  0  0  0  0  0  0  0  0  0  0  0
   48.0605   46.6494   41.4807 O   0  0  0  0  0  0  0  0  0  0  0  0
   47.9589   48.7782   42.0502 O   0  0  0  0  0  0  0  0  0  0  0  0
   47.7286   45.7802   41.5914 H   0  0  0  0  0  0  0  0  0  0  0  0
   45.2729   48.2616   42.8910 C   0  0  0  0  0  0  0  0  0  0  0  0
   44.3717   46.6570   41.1889 C   0  0  0  0  0  0  0  0  0  0  0  0
   43.4179   46.2517   40.2724 C   0  0  0  0  0  0  0  0  0  0  0  0
   42.2864   47.0233   40.0754 C   0  0  0  0  0  0  0  0  0  0  0  0
   42.1180   48.1934   40.7945 C   0  0  0  0  0  0  0  0  0  0  0  0
   43.0789   48.5883   41.7079 C   0  0  0  0  0  0  0  0  0  0  0  0
   44.2167   47.8262   41.9148 C   0  0  0  0  0  0  0  0  0  0  0  0
   46.1936   43.7723   49.2516 C   0  0  0  0  0  0  0  0  0  0  0  0
   46.5966   44.6966   50.3066 N   0  0  0  0  0  0  0  0  0  0  0  0
   47.8052   44.6514   50.8593 C   0  0  0  0  0  0  0  0  0  0  0  0
   48.6858   43.8575   50.5229 O   0  0  0  0  0  0  0  0  0  0  0  0
   45.9542   45.3743   50.6185 H   0  0  0  0  0  0  0  0  0  0  0  0
   48.0570   45.6908   51.9506 C   0  0  0  0  0  0  0  0  0  0  0  0
   47.8981   45.3554   53.2842 C   0  0  0  0  0  0  0  0  0  0  0  0
   48.1202   46.2942   54.2747 C   0  0  0  0  0  0  0  0  0  0  0  0
   48.5027   47.5807   53.9419 C   0  0  0  0  0  0  0  0  0  0  0  0
   48.6596   47.9221   52.6118 C   0  0  0  0  0  0  0  0  0  0  0  0
   48.4368   46.9814   51.6235 C   0  0  0  0  0  0  0  0  0  0  0  0
   44.7098   43.4035   49.4435 C   0  0  0  0  0  0  0  0  0  0  0  0
   44.5176   41.9366   49.7105 C   0  0  0  0  0  0  0  0  0  0  0  0
   43.4425   41.4872   50.4581 C   0  0  0  0  0  0  0  0  0  0  0  0
   43.2500   40.1376   50.6893 C   0  0  0  0  0  0  0  0  0  0  0  0
   44.1421   39.2176   50.1678 C   0  0  0  0  0  0  0  0  0  0  0  0
   45.2209   39.6518   49.4204 C   0  0  0  0  0  0  0  0  0  0  0  0
   45.4031   41.0040   49.1956 C   0  0  0  0  0  0  0  0  0  0  0  0
 19 18  2  0  0  0
 23 18  1  0  0  0
 20 19  1  0  0  0
 21 20  2  0  0  0
 21 22  1  0  0  0
 22 23  2  0  0  0
 23 17  1  0  0  0
 17 12  1  0  0  0
 13 12  1  0  0  0
 12  8  1  0  0  0
 15 13  2  0  0  0
 13 14  1  0  0  0
  8  9  1  0  0  0
  9 10  2  0  0  0
  9  7  1  0  0  0
  7  6  1  0  0  0
  6  1  1  0  0  0
  2  1  1  0  0  0
  1  3  1  0  0  0
  1 24  1  0  0  0
 35 24  1  0  0  0
 24 25  1  0  0  0
 35 36  1  0  0  0
 36 41  2  0  0  0
 36 37  1  0  0  0
 37 38  2  0  0  0
 38 39  1  0  0  0
 40 39  2  0  0  0
 41 40  1  0  0  0
 25 26  1  0  0  0
 26 27  2  0  0  0
 26 29  1  0  0  0
 30 29  2  0  0  0
 29 34  1  0  0  0
 30 31  1  0  0  0
 31 32  2  0  0  0
 32 33  1  0  0  0
 34 33  2  0  0  0
 14 16  1  0  0  0
  8 11  1  0  0  0
  2  4  1  0  0  0
  3  5  1  0  0  0
 25 28  1  0  0  0
M  END
> <minimizedAffinity>
-9.80553

$$$$
3BKK_KAF_A_704


 41 43  0  0  0  0  0  0  0  0999 V2000
   46.8596   44.8071   48.0594 C   0  0  0  0  0  0  0  0  0  0  0  0
   48.1374   44.3564   47.5954 O   0  0  0  0  0  0  0  0  0  0  0  0
   45.8484   43.9347   47.5437 O   0  0  0  0  0  0  0  0  0  0  0  0
   48.9147   44.8180   47.8417 H   0  0  0  0  0  0  0  0  0  0  0  0
   44.9476   44.0870   47.7519 H   0  0  0  0  0  0  0  0  0  0  0  0
   46.5754   46.2206   47.5435 C   0  0  0  0  0  0  0  0  0  0  0  0
   45.2969   46.2636   46.6861 C   0  0  0  0  0  0  0  0  0  0  0  0
   44.7094   47.7893   44.8851 N   0  0  0  0  0  0  0  0  0  0  0  0
   45.6253   46.9540   45.3660 C   0  0  0  0  0  0  0  0  0  0  0  0
   46.7019   46.7459   44.8072 O   0  0  0  0  0  0  0  0  0  0  0  0
   43.8698   47.9261   45.3806 H   0  0  0  0  0  0  0  0  0  0  0  0
   44.9304   48.5058   43.6343 C   0  0  0  0  0  0  0  0  0  0  0  0
   44.8759   50.0121   43.8640 C   0  0  0  0  0  0  0  0  0  0  0  0
   45.3498   50.4464   44.9351 O   0  0  0  0  0  0  0  0  0  0  0  0
   44.3884   50.7385   42.9713 O   0  0  0  0  0  0  0  0  0  0  0  0
   45.7019   49.8509   45.5671 H   0  0  0  0  0  0  0  0  0  0  0  0
   43.9062   48.0872   42.5755 C   0  0  0  0  0  0  0  0  0  0  0  0
   43.6509   46.5796   40.5890 C   0  0  0  0  0  0  0  0  0  0  0  0
   44.1630   45.8580   39.5255 C   0  0  0  0  0  0  0  0  0  0  0  0
   45.5234   45.8808   39.2746 C   0  0  0  0  0  0  0  0  0  0  0  0
   46.3607   46.6231   40.0886 C   0  0  0  0  0  0  0  0  0  0  0  0
   45.8369   47.3403   41.1491 C   0  0  0  0  0  0  0  0  0  0  0  0
   44.4772   47.3261   41.4124 C   0  0  0  0  0  0  0  0  0  0  0  0
   46.7950   44.7657   49.5898 C   0  0  0  0  0  0  0  0  0  0  0  0
   46.2275   43.5138   50.0800 N   0  0  0  0  0  0  0  0  0  0  0  0
   44.9419   43.4006   50.4005 C   0  0  0  0  0  0  0  0  0  0  0  0
   44.1234   44.3157   50.2931 O   0  0  0  0  0  0  0  0  0  0  0  0
   46.8143   42.7291   50.1764 H   0  0  0  0  0  0  0  0  0  0  0  0
   44.5184   42.0197   50.8989 C   0  0  0  0  0  0  0  0  0  0  0  0
   44.8988   41.5845   52.1567 C   0  0  0  0  0  0  0  0  0  0  0  0
   44.5218   40.3338   52.6098 C   0  0  0  0  0  0  0  0  0  0  0  0
   43.7605   39.5029   51.8084 C   0  0  0  0  0  0  0  0  0  0  0  0
   43.3807   39.9309   50.5502 C   0  0  0  0  0  0  0  0  0  0  0  0
   43.7591   41.1819   50.0997 C   0  0  0  0  0  0  0  0  0  0  0  0
   48.1798   44.9775   50.2316 C   0  0  0  0  0  0  0  0  0  0  0  0
   48.1147   45.8575   51.4487 C   0  0  0  0  0  0  0  0  0  0  0  0
   47.7158   45.3467   52.6721 C   0  0  0  0  0  0  0  0  0  0  0  0
   47.6738   46.1470   53.7989 C   0  0  0  0  0  0  0  0  0  0  0  0
   48.0350   47.4795   53.7084 C   0  0  0  0  0  0  0  0  0  0  0  0
   48.4343   48.0037   52.4931 C   0  0  0  0  0  0  0  0  0  0  0  0
   48.4726   47.1936   51.3731 C   0  0  0  0  0  0  0  0  0  0  0  0
 19 18  2  0  0  0
 23 18  1  0  0  0
 20 19  1  0  0  0
 21 20  2  0  0  0
 21 22  1  0  0  0
 22 23  2  0  0  0
 23 17  1  0  0  0
 17 12  1  0  0  0
 13 12  1  0  0  0
 12  8  1  0  0  0
 15 13  2  0  0  0
 13 14  1  0  0  0
  8  9  1  0  0  0
  9 10  2  0  0  0
  9  7  1  0  0  0
  7  6  1  0  0  0
  6  1  1  0  0  0
  2  1  1  0  0  0
  1  3  1  0  0  0
  1 24  1  0  0  0
 35 24  1  0  0  0
 24 25  1  0  0  0
 35 36  1  0  0  0
 36 41  2  0  0  0
 36 37  1  0  0  0
 37 38  2  0  0  0
 38 39  1  0  0  0
 40 39  2  0  0  0
 41 40  1  0  0  0
 25 26  1  0  0  0
 26 27  2  0  0  0
 26 29  1  0  0  0
 30 29  2  0  0  0
 29 34  1  0  0  0
 30 31  1  0  0  0
 31 32  2  0  0  0
 32 33  1  0  0  0
 34 33  2  0  0  0
 14 16  1  0  0  0
  8 11  1  0  0  0
  2  4  1  0  0  0
  3  5  1  0  0  0
 25 28  1  0  0  0
M  END
> <minimizedAffinity>
-9.61129

$$$$
3BKK_KAF_A_704


 41 43  0  0  0  0  0  0  0  0999 V2000
   47.3063   44.6847   48.2035 C   0  0  0  0  0  0  0  0  0  0  0  0
   48.5811   45.1948   47.7962 O   0  0  0  0  0  0  0  0  0  0  0  0
   47.0975   43.4140   47.5780 O   0  0  0  0  0  0  0  0  0  0  0  0
   48.8777   46.0242   48.1159 H   0  0  0  0  0  0  0  0  0  0  0  0
   46.3066   42.9376   47.7375 H   0  0  0  0  0  0  0  0  0  0  0  0
   46.1875   45.6266   47.7499 C   0  0  0  0  0  0  0  0  0  0  0  0
   46.7318   46.7727   46.8770 C   0  0  0  0  0  0  0  0  0  0  0  0
   46.8043   47.2722   44.4975 N   0  0  0  0  0  0  0  0  0  0  0  0
   46.1807   46.6056   45.4644 C   0  0  0  0  0  0  0  0  0  0  0  0
   45.2190   45.8665   45.2562 O   0  0  0  0  0  0  0  0  0  0  0  0
   47.5764   47.8409   44.7205 H   0  0  0  0  0  0  0  0  0  0  0  0
   46.3612   47.1733   43.1117 C   0  0  0  0  0  0  0  0  0  0  0  0
   47.4908   47.5531   42.1607 C   0  0  0  0  0  0  0  0  0  0  0  0
   47.7862   48.7639   42.0755 O   0  0  0  0  0  0  0  0  0  0  0  0
   48.0800   46.6454   41.5352 O   0  0  0  0  0  0  0  0  0  0  0  0
   47.3068   49.3990   42.5703 H   0  0  0  0  0  0  0  0  0  0  0  0
   45.1335   48.0550   42.8655 C   0  0  0  0  0  0  0  0  0  0  0  0
   43.0420   48.2485   41.4971 C   0  0  0  0  0  0  0  0  0  0  0  0
   42.1656   47.7923   40.5288 C   0  0  0  0  0  0  0  0  0  0  0  0
   42.4506   46.6252   39.8426 C   0  0  0  0  0  0  0  0  0  0  0  0
   43.6078   45.9233   40.1303 C   0  0  0  0  0  0  0  0  0  0  0  0
   44.4762   46.3893   41.1009 C   0  0  0  0  0  0  0  0  0  0  0  0
   44.2033   47.5557   41.7961 C   0  0  0  0  0  0  0  0  0  0  0  0
   47.2642   44.4853   49.7223 C   0  0  0  0  0  0  0  0  0  0  0  0
   46.5409   43.2739   50.0954 N   0  0  0  0  0  0  0  0  0  0  0  0
   45.3026   43.3131   50.5784 C   0  0  0  0  0  0  0  0  0  0  0  0
   44.6564   44.3516   50.7303 O   0  0  0  0  0  0  0  0  0  0  0  0
   46.9832   42.4012   49.9862 H   0  0  0  0  0  0  0  0  0  0  0  0
   44.6975   41.9521   50.9193 C   0  0  0  0  0  0  0  0  0  0  0  0
   44.8778   41.4032   52.1771 C   0  0  0  0  0  0  0  0  0  0  0  0
   44.3361   40.1697   52.4883 C   0  0  0  0  0  0  0  0  0  0  0  0
   43.6085   39.4701   51.5431 C   0  0  0  0  0  0  0  0  0  0  0  0
   43.4281   40.0119   50.2844 C   0  0  0  0  0  0  0  0  0  0  0  0
   43.9710   41.2453   49.9760 C   0  0  0  0  0  0  0  0  0  0  0  0
   48.6763   44.4396   50.3375 C   0  0  0  0  0  0  0  0  0  0  0  0
   48.9412   45.6104   51.2424 C   0  0  0  0  0  0  0  0  0  0  0  0
   48.1938   46.7710   51.1372 C   0  0  0  0  0  0  0  0  0  0  0  0
   48.4198   47.8431   51.9806 C   0  0  0  0  0  0  0  0  0  0  0  0
   49.4067   47.7603   52.9467 C   0  0  0  0  0  0  0  0  0  0  0  0
   50.1618   46.6081   53.0628 C   0  0  0  0  0  0  0  0  0  0  0  0
   49.9265   45.5423   52.2138 C   0  0  0  0  0  0  0  0  0  0  0  0
 19 18  2  0  0  0
 23 18  1  0  0  0
 20 19  1  0  0  0
 21 20  2  0  0  0
 21 22  1  0  0  0
 22 23  2  0  0  0
 23 17  1  0  0  0
 17 12  1  0  0  0
 13 12  1  0  0  0
 12  8  1  0  0  0
 15 13  2  0  0  0
 13 14  1  0  0  0
  8  9  1  0  0  0
  9 10  2  0  0  0
  9  7  1  0  0  0
  7  6  1  0  0  0
  6  1  1  0  0  0
  2  1  1  0  0  0
  1  3  1  0  0  0
  1 24  1  0  0  0
 35 24  1  0  0  0
 24 25  1  0  0  0
 35 36  1  0  0  0
 36 41  2  0  0  0
 36 37  1  0  0  0
 37 38  2  0  0  0
 38 39  1  0  0  0
 40 39  2  0  0  0
 41 40  1  0  0  0
 25 26  1  0  0  0
 26 27  2  0  0  0
 26 29  1  0  0  0
 30 29  2  0  0  0
 29 34  1  0  0  0
 30 31  1  0  0  0
 31 32  2  0  0  0
 32 33  1  0  0  0
 34 33  2  0  0  0
 14 16  1  0  0  0
  8 11  1  0  0  0
  2  4  1  0  0  0
  3  5  1  0  0  0
 25 28  1  0  0  0
M  END
> <minimizedAffinity>
-9.53058

$$$$
3BKK_KAF_A_704


 41 43  0  0  0  0  0  0  0  0999 V2000
   45.2091   45.6415   46.9441 C   0  0  0  0  0  0  0  0  0  0  0  0
   45.4092   44.6230   45.9573 O   0  0  0  0  0  0  0  0  0  0  0  0
   43.8032   45.8053   47.1584 O   0  0  0  0  0  0  0  0  0  0  0  0
   46.2779   44.3878   45.6962 H   0  0  0  0  0  0  0  0  0  0  0  0
   43.4941   46.4368   47.7777 H   0  0  0  0  0  0  0  0  0  0  0  0
   45.7729   46.9771   46.4510 C   0  0  0  0  0  0  0  0  0  0  0  0
   46.8109   46.7744   45.3316 C   0  0  0  0  0  0  0  0  0  0  0  0
   45.3712   48.4070   44.2460 N   0  0  0  0  0  0  0  0  0  0  0  0
   46.3084   47.4793   44.0756 C   0  0  0  0  0  0  0  0  0  0  0  0
   46.7809   47.1983   42.9744 O   0  0  0  0  0  0  0  0  0  0  0  0
   45.0376   48.5987   45.1521 H   0  0  0  0  0  0  0  0  0  0  0  0
   44.8305   49.1448   43.1102 C   0  0  0  0  0  0  0  0  0  0  0  0
   45.0087   50.6453   43.3134 C   0  0  0  0  0  0  0  0  0  0  0  0
   45.2247   51.0448   44.4771 O   0  0  0  0  0  0  0  0  0  0  0  0
   44.9560   51.3968   42.3160 O   0  0  0  0  0  0  0  0  0  0  0  0
   45.2525   50.4319   45.1853 H   0  0  0  0  0  0  0  0  0  0  0  0
   43.3536   48.8050   42.8900 C   0  0  0  0  0  0  0  0  0  0  0  0
   43.8860   46.9345   41.3082 C   0  0  0  0  0  0  0  0  0  0  0  0
   43.6498   46.1939   40.1638 C   0  0  0  0  0  0  0  0  0  0  0  0
   42.5797   46.5165   39.3483 C   0  0  0  0  0  0  0  0  0  0  0  0
   41.7555   47.5765   39.6822 C   0  0  0  0  0  0  0  0  0  0  0  0
   42.0019   48.3098   40.8290 C   0  0  0  0  0  0  0  0  0  0  0  0
   43.0699   47.9986   41.6542 C   0  0  0  0  0  0  0  0  0  0  0  0
   45.8543   45.2391   48.2745 C   0  0  0  0  0  0  0  0  0  0  0  0
   45.5664   43.8519   48.6249 N   0  0  0  0  0  0  0  0  0  0  0  0
   44.5446   43.5205   49.4086 C   0  0  0  0  0  0  0  0  0  0  0  0
   43.7492   44.3342   49.8822 O   0  0  0  0  0  0  0  0  0  0  0  0
   46.1464   43.1398   48.2702 H   0  0  0  0  0  0  0  0  0  0  0  0
   44.3918   42.0237   49.6744 C   0  0  0  0  0  0  0  0  0  0  0  0
   43.3633   41.5583   50.4755 C   0  0  0  0  0  0  0  0  0  0  0  0
   43.2243   40.2049   50.7226 C   0  0  0  0  0  0  0  0  0  0  0  0
   44.1143   39.3013   50.1717 C   0  0  0  0  0  0  0  0  0  0  0  0
   45.1451   39.7607   49.3737 C   0  0  0  0  0  0  0  0  0  0  0  0
   45.2818   41.1143   49.1285 C   0  0  0  0  0  0  0  0  0  0  0  0
   47.3806   45.4503   48.2627 C   0  0  0  0  0  0  0  0  0  0  0  0
   47.9727   45.4022   49.6437 C   0  0  0  0  0  0  0  0  0  0  0  0
   48.4236   44.2083   50.1804 C   0  0  0  0  0  0  0  0  0  0  0  0
   48.9877   44.1622   51.4419 C   0  0  0  0  0  0  0  0  0  0  0  0
   49.1060   45.3239   52.1839 C   0  0  0  0  0  0  0  0  0  0  0  0
   48.6589   46.5232   51.6615 C   0  0  0  0  0  0  0  0  0  0  0  0
   48.0968   46.5571   50.3985 C   0  0  0  0  0  0  0  0  0  0  0  0
 19 18  2  0  0  0
 23 18  1  0  0  0
 20 19  1  0  0  0
 21 20  2  0  0  0
 21 22  1  0  0  0
 22 23  2  0  0  0
 23 17  1  0  0  0
 17 12  1  0  0  0
 13 12  1  0  0  0
 12  8  1  0  0  0
 15 13  2  0  0  0
 13 14  1  0  0  0
  8  9  1  0  0  0
  9 10  2  0  0  0
  9  7  1  0  0  0
  7  6  1  0  0  0
  6  1  1  0  0  0
  2  1  1  0  0  0
  1  3  1  0  0  0
  1 24  1  0  0  0
 35 24  1  0  0  0
 24 25  1  0  0  0
 35 36  1  0  0  0
 36 41  2  0  0  0
 36 37  1  0  0  0
 37 38  2  0  0  0
 38 39  1  0  0  0
 40 39  2  0  0  0
 41 40  1  0  0  0
 25 26  1  0  0  0
 26 27  2  0  0  0
 26 29  1  0  0  0
 30 29  2  0  0  0
 29 34  1  0  0  0
 30 31  1  0  0  0
 31 32  2  0  0  0
 32 33  1  0  0  0
 34 33  2  0  0  0
 14 16  1  0  0  0
  8 11  1  0  0  0
  2  4  1  0  0  0
  3  5  1  0  0  0
 25 28  1  0  0  0
M  END
> <minimizedAffinity>
-9.41053

$$$$
3BKK_KAF_A_704


 41 43  0  0  0  0  0  0  0  0999 V2000
   47.5889   47.6545   41.2117 C   0  0  0  0  0  0  0  0  0  0  0  0
   48.6998   48.4630   40.8074 O   0  0  0  0  0  0  0  0  0  0  0  0
   48.0868   46.4721   41.8469 O   0  0  0  0  0  0  0  0  0  0  0  0
   48.5512   49.2797   40.3727 H   0  0  0  0  0  0  0  0  0  0  0  0
   47.4891   45.8291   42.1744 H   0  0  0  0  0  0  0  0  0  0  0  0
   46.7697   47.2281   39.9902 C   0  0  0  0  0  0  0  0  0  0  0  0
   45.5357   46.4014   40.3970 C   0  0  0  0  0  0  0  0  0  0  0  0
   43.9647   47.2255   38.7328 N   0  0  0  0  0  0  0  0  0  0  0  0
   44.2839   47.1889   40.0231 C   0  0  0  0  0  0  0  0  0  0  0  0
   43.6097   47.7349   40.8959 O   0  0  0  0  0  0  0  0  0  0  0  0
   44.5350   46.7606   38.0787 H   0  0  0  0  0  0  0  0  0  0  0  0
   42.7823   47.9442   38.2724 C   0  0  0  0  0  0  0  0  0  0  0  0
   41.5614   47.0310   38.2888 C   0  0  0  0  0  0  0  0  0  0  0  0
   41.4349   46.2256   37.3423 O   0  0  0  0  0  0  0  0  0  0  0  0
   40.7647   47.1106   39.2485 O   0  0  0  0  0  0  0  0  0  0  0  0
   42.0663   46.2134   36.6500 H   0  0  0  0  0  0  0  0  0  0  0  0
   43.0029   48.5198   36.8706 C   0  0  0  0  0  0  0  0  0  0  0  0
   41.7930   50.7105   37.0163 C   0  0  0  0  0  0  0  0  0  0  0  0
   40.8074   51.5941   36.6143 C   0  0  0  0  0  0  0  0  0  0  0  0
   39.9520   51.2435   35.5849 C   0  0  0  0  0  0  0  0  0  0  0  0
   40.0878   50.0131   34.9667 C   0  0  0  0  0  0  0  0  0  0  0  0
   41.0771   49.1380   35.3776 C   0  0  0  0  0  0  0  0  0  0  0  0
   41.9398   49.4754   36.4072 C   0  0  0  0  0  0  0  0  0  0  0  0
   46.7107   48.4067   42.2173 C   0  0  0  0  0  0  0  0  0  0  0  0
   46.7492   47.7956   43.5420 N   0  0  0  0  0  0  0  0  0  0  0  0
   45.6405   47.4800   44.2050 C   0  0  0  0  0  0  0  0  0  0  0  0
   44.5029   47.6489   43.7619 O   0  0  0  0  0  0  0  0  0  0  0  0
   47.6225   47.6114   43.9575 H   0  0  0  0  0  0  0  0  0  0  0  0
   45.8652   46.8508   45.5791 C   0  0  0  0  0  0  0  0  0  0  0  0
   47.1232   46.8650   46.1562 C   0  0  0  0  0  0  0  0  0  0  0  0
   47.3320   46.2925   47.3974 C   0  0  0  0  0  0  0  0  0  0  0  0
   46.2837   45.6977   48.0752 C   0  0  0  0  0  0  0  0  0  0  0  0
   45.0260   45.6777   47.5023 C   0  0  0  0  0  0  0  0  0  0  0  0
   44.8202   46.2507   46.2611 C   0  0  0  0  0  0  0  0  0  0  0  0
   47.1091   49.8906   42.3344 C   0  0  0  0  0  0  0  0  0  0  0  0
   46.1311   50.7990   41.6427 C   0  0  0  0  0  0  0  0  0  0  0  0
   45.6176   51.9108   42.2884 C   0  0  0  0  0  0  0  0  0  0  0  0
   44.7336   52.7607   41.6496 C   0  0  0  0  0  0  0  0  0  0  0  0
   44.3529   52.5011   40.3451 C   0  0  0  0  0  0  0  0  0  0  0  0
   44.8565   51.3939   39.6880 C   0  0  0  0  0  0  0  0  0  0  0  0
   45.7402   50.5512   40.3370 C   0  0  0  0  0  0  0  0  0  0  0  0
 19 18  2  0  0  0
 23 18  1  0  0  0
 20 19  1  0  0  0
 21 20  2  0  0  0
 21 22  1  0  0  0
 22 23  2  0  0  0
 23 17  1  0  0  0
 17 12  1  0  0  0
 13 12  1  0  0  0
 12  8  1  0  0  0
 15 13  2  0  0  0
 13 14  1  0  0  0
  8  9  1  0  0  0
  9 10  2  0  0  0
  9  7  1  0  0  0
  7  6  1  0  0  0
  6  1  1  0  0  0
  2  1  1  0  0  0
  1  3  1  0  0  0
  1 24  1  0  0  0
 35 24  1  0  0  0
 24 25  1  0  0  0
 35 36  1  0  0  0
 36 41  2  0  0  0
 36 37  1  0  0  0
 37 38  2  0  0  0
 38 39  1  0  0  0
 40 39  2  0  0  0
 41 40  1  0  0  0
 25 26  1  0  0  0
 26 27  2  0  0  0
 26 29  1  0  0  0
 30 29  2  0  0  0
 29 34  1  0  0  0
 30 31  1  0  0  0
 31 32  2  0  0  0
 32 33  1  0  0  0
 34 33  2  0  0  0
 14 16  1  0  0  0
  8 11  1  0  0  0
  2  4  1  0  0  0
  3  5  1  0  0  0
 25 28  1  0  0  0
M  END
> <minimizedAffinity>
-9.35364

$$$$
3BKK_KAF_A_704


 41 43  0  0  0  0  0  0  0  0999 V2000
   45.2163   45.6803   46.8714 C   0  0  0  0  0  0  0  0  0  0  0  0
   45.3968   44.6312   45.9132 O   0  0  0  0  0  0  0  0  0  0  0  0
   43.8137   45.8774   47.0798 O   0  0  0  0  0  0  0  0  0  0  0  0
   46.2607   44.3720   45.6595 H   0  0  0  0  0  0  0  0  0  0  0  0
   43.5169   46.5317   47.6812 H   0  0  0  0  0  0  0  0  0  0  0  0
   45.8064   46.9904   46.3423 C   0  0  0  0  0  0  0  0  0  0  0  0
   46.0002   46.9478   44.8152 C   0  0  0  0  0  0  0  0  0  0  0  0
   44.7318   47.7803   42.9139 N   0  0  0  0  0  0  0  0  0  0  0  0
   45.0735   47.9815   44.1831 C   0  0  0  0  0  0  0  0  0  0  0  0
   44.6602   48.9328   44.8456 O   0  0  0  0  0  0  0  0  0  0  0  0
   45.0838   46.9952   42.4355 H   0  0  0  0  0  0  0  0  0  0  0  0
   43.8434   48.7056   42.2203 C   0  0  0  0  0  0  0  0  0  0  0  0
   42.7811   47.9416   41.4375 C   0  0  0  0  0  0  0  0  0  0  0  0
   43.0385   46.7600   41.1244 O   0  0  0  0  0  0  0  0  0  0  0  0
   41.7041   48.5160   41.1687 O   0  0  0  0  0  0  0  0  0  0  0  0
   43.8654   46.3839   41.3542 H   0  0  0  0  0  0  0  0  0  0  0  0
   44.6341   49.6299   41.2900 C   0  0  0  0  0  0  0  0  0  0  0  0
   44.2356   49.5805   38.8155 C   0  0  0  0  0  0  0  0  0  0  0  0
   44.4520   49.0643   37.5504 C   0  0  0  0  0  0  0  0  0  0  0  0
   45.3455   48.0217   37.3801 C   0  0  0  0  0  0  0  0  0  0  0  0
   46.0141   47.5031   38.4748 C   0  0  0  0  0  0  0  0  0  0  0  0
   45.7891   48.0275   39.7349 C   0  0  0  0  0  0  0  0  0  0  0  0
   44.8970   49.0706   39.9203 C   0  0  0  0  0  0  0  0  0  0  0  0
   45.8529   45.3020   48.2130 C   0  0  0  0  0  0  0  0  0  0  0  0
   45.5765   43.9165   48.5787 N   0  0  0  0  0  0  0  0  0  0  0  0
   44.5665   43.5868   49.3785 C   0  0  0  0  0  0  0  0  0  0  0  0
   43.7734   44.4006   49.8555 O   0  0  0  0  0  0  0  0  0  0  0  0
   46.1553   43.2043   48.2225 H   0  0  0  0  0  0  0  0  0  0  0  0
   44.4246   42.0915   49.6587 C   0  0  0  0  0  0  0  0  0  0  0  0
   45.3761   41.2005   49.1933 C   0  0  0  0  0  0  0  0  0  0  0  0
   45.2490   39.8461   49.4405 C   0  0  0  0  0  0  0  0  0  0  0  0
   44.1667   39.3672   50.1556 C   0  0  0  0  0  0  0  0  0  0  0  0
   43.2117   40.2519   50.6199 C   0  0  0  0  0  0  0  0  0  0  0  0
   43.3413   41.6056   50.3712 C   0  0  0  0  0  0  0  0  0  0  0  0
   47.3769   45.5295   48.2130 C   0  0  0  0  0  0  0  0  0  0  0  0
   47.9613   45.4715   49.5968 C   0  0  0  0  0  0  0  0  0  0  0  0
   48.3678   44.2668   50.1447 C   0  0  0  0  0  0  0  0  0  0  0  0
   48.9246   44.2108   51.4090 C   0  0  0  0  0  0  0  0  0  0  0  0
   49.0807   45.3735   52.1425 C   0  0  0  0  0  0  0  0  0  0  0  0
   48.6782   46.5836   51.6089 C   0  0  0  0  0  0  0  0  0  0  0  0
   48.1228   46.6272   50.3433 C   0  0  0  0  0  0  0  0  0  0  0  0
 19 18  2  0  0  0
 23 18  1  0  0  0
 20 19  1  0  0  0
 21 20  2  0  0  0
 21 22  1  0  0  0
 22 23  2  0  0  0
 23 17  1  0  0  0
 17 12  1  0  0  0
 13 12  1  0  0  0
 12  8  1  0  0  0
 15 13  2  0  0  0
 13 14  1  0  0  0
  8  9  1  0  0  0
  9 10  2  0  0  0
  9  7  1  0  0  0
  7  6  1  0  0  0
  6  1  1  0  0  0
  2  1  1  0  0  0
  1  3  1  0  0  0
  1 24  1  0  0  0
 35 24  1  0  0  0
 24 25  1  0  0  0
 35 36  1  0  0  0
 36 41  2  0  0  0
 36 37  1  0  0  0
 37 38  2  0  0  0
 38 39  1  0  0  0
 40 39  2  0  0  0
 41 40  1  0  0  0
 25 26  1  0  0  0
 26 27  2  0  0  0
 26 29  1  0  0  0
 30 29  2  0  0  0
 29 34  1  0  0  0
 30 31  1  0  0  0
 31 32  2  0  0  0
 32 33  1  0  0  0
 34 33  2  0  0  0
 14 16  1  0  0  0
  8 11  1  0  0  0
  2  4  1  0  0  0
  3  5  1  0  0  0
 25 28  1  0  0  0
M  END
> <minimizedAffinity>
-9.31721

$$$$
3BKK_KAF_A_704


 41 43  0  0  0  0  0  0  0  0999 V2000
   44.0815   42.7115   50.6362 C   0  0  0  0  0  0  0  0  0  0  0  0
   42.6987   42.3633   50.7697 O   0  0  0  0  0  0  0  0  0  0  0  0
   44.2523   44.0777   51.0283 O   0  0  0  0  0  0  0  0  0  0  0  0
   42.4103   41.4985   50.5529 H   0  0  0  0  0  0  0  0  0  0  0  0
   45.1028   44.4700   51.0012 H   0  0  0  0  0  0  0  0  0  0  0  0
   44.5246   42.5775   49.1766 C   0  0  0  0  0  0  0  0  0  0  0  0
   45.9385   41.9771   49.0673 C   0  0  0  0  0  0  0  0  0  0  0  0
   46.6235   44.2806   49.4431 N   0  0  0  0  0  0  0  0  0  0  0  0
   46.9328   43.1181   48.8766 C   0  0  0  0  0  0  0  0  0  0  0  0
   47.9724   42.9368   48.2434 O   0  0  0  0  0  0  0  0  0  0  0  0
   45.7827   44.3655   49.9482 H   0  0  0  0  0  0  0  0  0  0  0  0
   47.5115   45.4315   49.3273 C   0  0  0  0  0  0  0  0  0  0  0  0
   47.7810   45.7537   47.8616 C   0  0  0  0  0  0  0  0  0  0  0  0
   48.9361   45.5487   47.4323 O   0  0  0  0  0  0  0  0  0  0  0  0
   46.8402   46.1798   47.1576 O   0  0  0  0  0  0  0  0  0  0  0  0
   49.6005   45.2280   48.0100 H   0  0  0  0  0  0  0  0  0  0  0  0
   48.8263   45.1856   50.0730 C   0  0  0  0  0  0  0  0  0  0  0  0
   50.3766   46.1986   51.7625 C   0  0  0  0  0  0  0  0  0  0  0  0
   50.6666   47.0939   52.7765 C   0  0  0  0  0  0  0  0  0  0  0  0
   49.6989   47.9887   53.1972 C   0  0  0  0  0  0  0  0  0  0  0  0
   48.4496   47.9808   52.6024 C   0  0  0  0  0  0  0  0  0  0  0  0
   48.1715   47.0806   51.5896 C   0  0  0  0  0  0  0  0  0  0  0  0
   49.1303   46.1788   51.1588 C   0  0  0  0  0  0  0  0  0  0  0  0
   44.9492   41.8377   51.5483 C   0  0  0  0  0  0  0  0  0  0  0  0
   45.8046   42.6370   52.4197 N   0  0  0  0  0  0  0  0  0  0  0  0
   47.1006   42.3776   52.5655 C   0  0  0  0  0  0  0  0  0  0  0  0
   47.6916   41.4727   51.9732 O   0  0  0  0  0  0  0  0  0  0  0  0
   45.4101   43.3911   52.9146 H   0  0  0  0  0  0  0  0  0  0  0  0
   47.8443   43.3122   53.5185 C   0  0  0  0  0  0  0  0  0  0  0  0
   49.1910   43.1203   53.7750 C   0  0  0  0  0  0  0  0  0  0  0  0
   49.8667   43.9607   54.6404 C   0  0  0  0  0  0  0  0  0  0  0  0
   49.2019   45.0026   55.2606 C   0  0  0  0  0  0  0  0  0  0  0  0
   47.8564   45.1968   55.0107 C   0  0  0  0  0  0  0  0  0  0  0  0
   47.1833   44.3550   54.1451 C   0  0  0  0  0  0  0  0  0  0  0  0
   44.1006   40.8838   52.4110 C   0  0  0  0  0  0  0  0  0  0  0  0
   44.3016   39.4429   52.0325 C   0  0  0  0  0  0  0  0  0  0  0  0
   43.7725   38.4257   52.8085 C   0  0  0  0  0  0  0  0  0  0  0  0
   43.9372   37.0995   52.4536 C   0  0  0  0  0  0  0  0  0  0  0  0
   44.6405   36.7782   51.3063 C   0  0  0  0  0  0  0  0  0  0  0  0
   45.1756   37.7832   50.5223 C   0  0  0  0  0  0  0  0  0  0  0  0
   45.0042   39.1059   50.8872 C   0  0  0  0  0  0  0  0  0  0  0  0
 19 18  2  0  0  0
 23 18  1  0  0  0
 20 19  1  0  0  0
 21 20  2  0  0  0
 21 22  1  0  0  0
 22 23  2  0  0  0
 23 17  1  0  0  0
 17 12  1  0  0  0
 13 12  1  0  0  0
 12  8  1  0  0  0
 15 13  2  0  0  0
 13 14  1  0  0  0
  8  9  1  0  0  0
  9 10  2  0  0  0
  9  7  1  0  0  0
  7  6  1  0  0  0
  6  1  1  0  0  0
  2  1  1  0  0  0
  1  3  1  0  0  0
  1 24  1  0  0  0
 35 24  1  0  0  0
 24 25  1  0  0  0
 35 36  1  0  0  0
 36 41  2  0  0  0
 36 37  1  0  0  0
 37 38  2  0  0  0
 38 39  1  0  0  0
 40 39  2  0  0  0
 41 40  1  0  0  0
 25 26  1  0  0  0
 26 27  2  0  0  0
 26 29  1  0  0  0
 30 29  2  0  0  0
 29 34  1  0  0  0
 30 31  1  0  0  0
 31 32  2  0  0  0
 32 33  1  0  0  0
 34 33  2  0  0  0
 14 16  1  0  0  0
  8 11  1  0  0  0
  2  4  1  0  0  0
  3  5  1  0  0  0
 25 28  1  0  0  0
M  END
> <minimizedAffinity>
-9.29382

$$$$
