5J2X_6DL_A_301


 25 27  0  0  0  0  0  0  0  0999 V2000
    1.6284    9.5617   23.9659 C   0  0  0  0  0  0  0  0  0  0  0  0
    1.5741    7.7256   22.7240 C   0  0  0  0  0  0  0  0  0  0  0  0
    2.3529    9.8112   22.9128 N   0  0  0  0  0  0  0  0  0  0  0  0
    2.3133    8.6658   22.1136 N   0  0  0  0  0  0  0  0  0  0  0  0
    1.1385    8.2535   23.8888 N   0  0  0  0  0  0  0  0  0  0  0  0
    1.3558    6.5964   22.3133 O   0  0  0  0  0  0  0  0  0  0  0  0
    2.7572    8.5642   21.2408 H   0  0  0  0  0  0  0  0  0  0  0  0
    1.2048   12.1790   27.2627 C   0  0  0  0  0  0  0  0  0  0  0  0
    2.4799   11.7263   26.9454 C   0  0  0  0  0  0  0  0  0  0  0  0
    2.5989   10.8737   25.8567 C   0  0  0  0  0  0  0  0  0  0  0  0
    1.4782   10.5124   25.0797 C   0  0  0  0  0  0  0  0  0  0  0  0
    0.2040   10.9385   25.4571 C   0  0  0  0  0  0  0  0  0  0  0  0
    0.1007   11.8021   26.5220 C   0  0  0  0  0  0  0  0  0  0  0  0
    0.9867   12.9766   28.3280 O   0  0  0  0  0  0  0  0  0  0  0  0
    3.8295   10.4527   25.4925 O   0  0  0  0  0  0  0  0  0  0  0  0
   -1.5527   12.5942   26.9108 Br  0  0  0  0  0  0  0  0  0  0  0  0
    0.1187   13.2702   28.5235 H   0  0  0  0  0  0  0  0  0  0  0  0
    3.9300    9.8769   24.7601 H   0  0  0  0  0  0  0  0  0  0  0  0
    0.2965    7.5701   24.7995 C   0  0  0  0  0  0  0  0  0  0  0  0
   -1.0878    7.4907   24.5642 C   0  0  0  0  0  0  0  0  0  0  0  0
   -1.9251    6.7944   25.4260 C   0  0  0  0  0  0  0  0  0  0  0  0
    0.8428    6.8948   25.8919 C   0  0  0  0  0  0  0  0  0  0  0  0
   -1.3579    6.1540   26.5214 C   0  0  0  0  0  0  0  0  0  0  0  0
    0.0136    6.2030   26.7627 C   0  0  0  0  0  0  0  0  0  0  0  0
   -1.6375    8.1046   23.5010 F   0  0  0  0  0  0  0  0  0  0  0  0
  4  2  1  0  0  0
  4  3  1  0  0  0
  6  2  2  0  0  0
  2  5  1  0  0  0
  3  1  2  0  0  0
 25 20  1  0  0  0
  5  1  1  0  0  0
  5 19  1  0  0  0
  1 11  1  0  0  0
 20 19  2  0  0  0
 20 21  1  0  0  0
 19 22  1  0  0  0
 11 12  2  0  0  0
 11 10  1  0  0  0
 21 23  2  0  0  0
 15 10  1  0  0  0
 12 13  1  0  0  0
 10  9  2  0  0  0
 22 24  2  0  0  0
 23 24  1  0  0  0
 13 16  1  0  0  0
 13  8  2  0  0  0
  9  8  1  0  0  0
  8 14  1  0  0  0
 14 17  1  0  0  0
 15 18  1  0  0  0
  4  7  1  0  0  0
M  END
> <minimizedAffinity>
-9.33061

$$$$
5J2X_6DL_A_301


 25 27  0  0  0  0  0  0  0  0999 V2000
    1.2708    9.7006   24.3226 C   0  0  0  0  0  0  0  0  0  0  0  0
    1.4561    7.8772   23.0747 C   0  0  0  0  0  0  0  0  0  0  0  0
    1.9745   10.0407   23.2808 N   0  0  0  0  0  0  0  0  0  0  0  0
    2.0846    8.9026   22.4778 N   0  0  0  0  0  0  0  0  0  0  0  0
    0.9437    8.3431   24.2347 N   0  0  0  0  0  0  0  0  0  0  0  0
    1.3815    6.7318   22.6576 O   0  0  0  0  0  0  0  0  0  0  0  0
    2.5497    8.8594   21.6111 H   0  0  0  0  0  0  0  0  0  0  0  0
    0.4475   12.4562   27.4255 C   0  0  0  0  0  0  0  0  0  0  0  0
   -0.6261   11.9149   26.7282 C   0  0  0  0  0  0  0  0  0  0  0  0
   -0.3356   11.0080   25.7185 C   0  0  0  0  0  0  0  0  0  0  0  0
    0.9914   10.6211   25.4370 C   0  0  0  0  0  0  0  0  0  0  0  0
    2.0506   11.2242   26.1168 C   0  0  0  0  0  0  0  0  0  0  0  0
    1.7505   12.1024   27.1312 C   0  0  0  0  0  0  0  0  0  0  0  0
    0.2645   13.3761   28.3944 O   0  0  0  0  0  0  0  0  0  0  0  0
   -1.3574   10.4277   25.0527 O   0  0  0  0  0  0  0  0  0  0  0  0
    3.1243   12.7449   28.2322 Br  0  0  0  0  0  0  0  0  0  0  0  0
    1.0028   13.7278   28.8519 H   0  0  0  0  0  0  0  0  0  0  0  0
   -1.1813    9.8129   24.3678 H   0  0  0  0  0  0  0  0  0  0  0  0
    0.1778    7.5589   25.1311 C   0  0  0  0  0  0  0  0  0  0  0  0
   -1.1384    7.1874   24.8034 C   0  0  0  0  0  0  0  0  0  0  0  0
   -1.8929    6.3885   25.6526 C   0  0  0  0  0  0  0  0  0  0  0  0
    0.7508    7.0740   26.3078 C   0  0  0  0  0  0  0  0  0  0  0  0
   -1.3067    5.9421   26.8310 C   0  0  0  0  0  0  0  0  0  0  0  0
    0.0025    6.2817   27.1662 C   0  0  0  0  0  0  0  0  0  0  0  0
   -1.7050    7.6134   23.6602 F   0  0  0  0  0  0  0  0  0  0  0  0
  4  2  1  0  0  0
  4  3  1  0  0  0
  6  2  2  0  0  0
  2  5  1  0  0  0
  3  1  2  0  0  0
 25 20  1  0  0  0
  5  1  1  0  0  0
  5 19  1  0  0  0
  1 11  1  0  0  0
 20 19  2  0  0  0
 20 21  1  0  0  0
 19 22  1  0  0  0
 11 12  2  0  0  0
 11 10  1  0  0  0
 21 23  2  0  0  0
 15 10  1  0  0  0
 12 13  1  0  0  0
 10  9  2  0  0  0
 22 24  2  0  0  0
 23 24  1  0  0  0
 13 16  1  0  0  0
 13  8  2  0  0  0
  9  8  1  0  0  0
  8 14  1  0  0  0
 14 17  1  0  0  0
 15 18  1  0  0  0
  4  7  1  0  0  0
M  END
> <minimizedAffinity>
-8.46200

$$$$
5J2X_6DL_A_301


 25 27  0  0  0  0  0  0  0  0999 V2000
    0.9298    8.2216   24.4294 C   0  0  0  0  0  0  0  0  0  0  0  0
    2.0185    9.6329   23.1106 C   0  0  0  0  0  0  0  0  0  0  0  0
    1.1302    7.5922   23.3070 N   0  0  0  0  0  0  0  0  0  0  0  0
    1.8306    8.4667   22.4721 N   0  0  0  0  0  0  0  0  0  0  0  0
    1.4590    9.5132   24.3345 N   0  0  0  0  0  0  0  0  0  0  0  0
    2.5716   10.6242   22.6603 O   0  0  0  0  0  0  0  0  0  0  0  0
    2.1378    8.2604   21.5598 H   0  0  0  0  0  0  0  0  0  0  0  0
   -1.3350    6.4670   27.5425 C   0  0  0  0  0  0  0  0  0  0  0  0
   -0.1666    5.8293   27.1429 C   0  0  0  0  0  0  0  0  0  0  0  0
    0.5656    6.4239   26.1248 C   0  0  0  0  0  0  0  0  0  0  0  0
    0.1625    7.6455   25.5459 C   0  0  0  0  0  0  0  0  0  0  0  0
   -1.0443    8.2321   25.9299 C   0  0  0  0  0  0  0  0  0  0  0  0
   -1.7489    7.6478   26.9558 C   0  0  0  0  0  0  0  0  0  0  0  0
   -2.1324    5.9417   28.4947 O   0  0  0  0  0  0  0  0  0  0  0  0
    1.7304    5.8555   25.7447 O   0  0  0  0  0  0  0  0  0  0  0  0
   -3.2396    8.5300   27.6713 Br  0  0  0  0  0  0  0  0  0  0  0  0
   -2.9157    6.3887   28.7489 H   0  0  0  0  0  0  0  0  0  0  0  0
    2.2387    6.2423   25.0592 H   0  0  0  0  0  0  0  0  0  0  0  0
    1.4840   10.5323   25.3173 C   0  0  0  0  0  0  0  0  0  0  0  0
    2.6448   10.7556   26.0793 C   0  0  0  0  0  0  0  0  0  0  0  0
    2.7014   11.7734   27.0224 C   0  0  0  0  0  0  0  0  0  0  0  0
    0.3881   11.3814   25.4785 C   0  0  0  0  0  0  0  0  0  0  0  0
    1.5858   12.5869   27.1817 C   0  0  0  0  0  0  0  0  0  0  0  0
    0.4323   12.3961   26.4235 C   0  0  0  0  0  0  0  0  0  0  0  0
    3.7277    9.9732   25.9219 F   0  0  0  0  0  0  0  0  0  0  0  0
  4  2  1  0  0  0
  4  3  1  0  0  0
  6  2  2  0  0  0
  2  5  1  0  0  0
  3  1  2  0  0  0
 25 20  1  0  0  0
  5  1  1  0  0  0
  5 19  1  0  0  0
  1 11  1  0  0  0
 20 19  2  0  0  0
 20 21  1  0  0  0
 19 22  1  0  0  0
 11 12  2  0  0  0
 11 10  1  0  0  0
 21 23  2  0  0  0
 15 10  1  0  0  0
 12 13  1  0  0  0
 10  9  2  0  0  0
 22 24  2  0  0  0
 23 24  1  0  0  0
 13 16  1  0  0  0
 13  8  2  0  0  0
  9  8  1  0  0  0
  8 14  1  0  0  0
 14 17  1  0  0  0
 15 18  1  0  0  0
  4  7  1  0  0  0
M  END
> <minimizedAffinity>
-8.09203

$$$$
5J2X_6DL_A_301


 25 27  0  0  0  0  0  0  0  0999 V2000
   -1.5243    8.2067   26.4725 C   0  0  0  0  0  0  0  0  0  0  0  0
   -2.0122    6.1250   25.8852 C   0  0  0  0  0  0  0  0  0  0  0  0
   -2.2972    7.7346   27.4084 N   0  0  0  0  0  0  0  0  0  0  0  0
   -2.5988    6.4162   27.0574 N   0  0  0  0  0  0  0  0  0  0  0  0
   -1.3393    7.2279   25.4901 N   0  0  0  0  0  0  0  0  0  0  0  0
   -2.0914    5.0680   25.2787 O   0  0  0  0  0  0  0  0  0  0  0  0
   -3.1538    5.7984   27.5861 H   0  0  0  0  0  0  0  0  0  0  0  0
   -0.1940   12.2184   26.2834 C   0  0  0  0  0  0  0  0  0  0  0  0
   -1.5415   11.9861   26.5322 C   0  0  0  0  0  0  0  0  0  0  0  0
   -1.9570   10.6634   26.5969 C   0  0  0  0  0  0  0  0  0  0  0  0
   -1.0434    9.5979   26.4554 C   0  0  0  0  0  0  0  0  0  0  0  0
    0.2925    9.8633   26.1509 C   0  0  0  0  0  0  0  0  0  0  0  0
    0.6979   11.1766   26.1134 C   0  0  0  0  0  0  0  0  0  0  0  0
    0.2930   13.4700   26.1618 O   0  0  0  0  0  0  0  0  0  0  0  0
   -3.2507   10.4021   26.8838 O   0  0  0  0  0  0  0  0  0  0  0  0
    2.5223   11.5751   25.9555 Br  0  0  0  0  0  0  0  0  0  0  0  0
    1.2051   13.6036   25.9940 H   0  0  0  0  0  0  0  0  0  0  0  0
   -3.5500    9.5155   26.9319 H   0  0  0  0  0  0  0  0  0  0  0  0
   -0.5625    7.2978   24.3082 C   0  0  0  0  0  0  0  0  0  0  0  0
    0.8221    7.0553   24.3531 C   0  0  0  0  0  0  0  0  0  0  0  0
    1.5950    7.0834   23.1997 C   0  0  0  0  0  0  0  0  0  0  0  0
   -1.1764    7.5214   23.0749 C   0  0  0  0  0  0  0  0  0  0  0  0
    0.9621    7.3355   21.9883 C   0  0  0  0  0  0  0  0  0  0  0  0
   -0.4116    7.5590   21.9182 C   0  0  0  0  0  0  0  0  0  0  0  0
    1.4352    6.8047   25.5239 F   0  0  0  0  0  0  0  0  0  0  0  0
  4  2  1  0  0  0
  4  3  1  0  0  0
  6  2  2  0  0  0
  2  5  1  0  0  0
  3  1  2  0  0  0
 25 20  1  0  0  0
  5  1  1  0  0  0
  5 19  1  0  0  0
  1 11  1  0  0  0
 20 19  2  0  0  0
 20 21  1  0  0  0
 19 22  1  0  0  0
 11 12  2  0  0  0
 11 10  1  0  0  0
 21 23  2  0  0  0
 15 10  1  0  0  0
 12 13  1  0  0  0
 10  9  2  0  0  0
 22 24  2  0  0  0
 23 24  1  0  0  0
 13 16  1  0  0  0
 13  8  2  0  0  0
  9  8  1  0  0  0
  8 14  1  0  0  0
 14 17  1  0  0  0
 15 18  1  0  0  0
  4  7  1  0  0  0
M  END
> <minimizedAffinity>
-7.74853

$$$$
5J2X_6DL_A_301


 25 27  0  0  0  0  0  0  0  0999 V2000
    0.4099    8.6049   25.4987 C   0  0  0  0  0  0  0  0  0  0  0  0
    1.6311    9.7564   24.0498 C   0  0  0  0  0  0  0  0  0  0  0  0
    1.1086    9.4507   26.2006 N   0  0  0  0  0  0  0  0  0  0  0  0
    1.8713   10.1942   25.2962 N   0  0  0  0  0  0  0  0  0  0  0  0
    0.7270    8.7569   24.1445 N   0  0  0  0  0  0  0  0  0  0  0  0
    2.1504   10.1693   23.0245 O   0  0  0  0  0  0  0  0  0  0  0  0
    2.4876   10.9238   25.5352 H   0  0  0  0  0  0  0  0  0  0  0  0
   -2.0824    5.7494   27.3784 C   0  0  0  0  0  0  0  0  0  0  0  0
   -2.4847    7.0797   27.3915 C   0  0  0  0  0  0  0  0  0  0  0  0
   -1.6568    8.0001   26.7640 C   0  0  0  0  0  0  0  0  0  0  0  0
   -0.4757    7.5979   26.1058 C   0  0  0  0  0  0  0  0  0  0  0  0
   -0.0705    6.2634   26.1584 C   0  0  0  0  0  0  0  0  0  0  0  0
   -0.9100    5.3567   26.7612 C   0  0  0  0  0  0  0  0  0  0  0  0
   -2.8011    4.7914   27.9983 O   0  0  0  0  0  0  0  0  0  0  0  0
   -2.0414    9.2940   26.7174 O   0  0  0  0  0  0  0  0  0  0  0  0
   -0.5308    3.5254   26.6395 Br  0  0  0  0  0  0  0  0  0  0  0  0
   -2.5112    3.9006   27.9768 H   0  0  0  0  0  0  0  0  0  0  0  0
   -1.4959    9.9301   26.2982 H   0  0  0  0  0  0  0  0  0  0  0  0
    0.1970    8.0633   23.0296 C   0  0  0  0  0  0  0  0  0  0  0  0
    1.0401    7.3013   22.2010 C   0  0  0  0  0  0  0  0  0  0  0  0
    0.5341    6.5847   21.1244 C   0  0  0  0  0  0  0  0  0  0  0  0
   -1.1785    8.0577   22.7933 C   0  0  0  0  0  0  0  0  0  0  0  0
   -0.8364    6.6189   20.8957 C   0  0  0  0  0  0  0  0  0  0  0  0
   -1.6925    7.3513   21.7157 C   0  0  0  0  0  0  0  0  0  0  0  0
    2.3659    7.2620   22.4248 F   0  0  0  0  0  0  0  0  0  0  0  0
  4  2  1  0  0  0
  4  3  1  0  0  0
  6  2  2  0  0  0
  2  5  1  0  0  0
  3  1  2  0  0  0
 25 20  1  0  0  0
  5  1  1  0  0  0
  5 19  1  0  0  0
  1 11  1  0  0  0
 20 19  2  0  0  0
 20 21  1  0  0  0
 19 22  1  0  0  0
 11 12  2  0  0  0
 11 10  1  0  0  0
 21 23  2  0  0  0
 15 10  1  0  0  0
 12 13  1  0  0  0
 10  9  2  0  0  0
 22 24  2  0  0  0
 23 24  1  0  0  0
 13 16  1  0  0  0
 13  8  2  0  0  0
  9  8  1  0  0  0
  8 14  1  0  0  0
 14 17  1  0  0  0
 15 18  1  0  0  0
  4  7  1  0  0  0
M  END
> <minimizedAffinity>
-6.78196

$$$$
5J2X_6DL_A_301


 25 27  0  0  0  0  0  0  0  0999 V2000
    0.8057    7.9758   24.1113 C   0  0  0  0  0  0  0  0  0  0  0  0
    2.2354    9.3617   23.1358 C   0  0  0  0  0  0  0  0  0  0  0  0
    1.2195    7.3744   23.0327 N   0  0  0  0  0  0  0  0  0  0  0  0
    2.1344    8.2322   22.4168 N   0  0  0  0  0  0  0  0  0  0  0  0
    1.4100    9.2346   24.1978 N   0  0  0  0  0  0  0  0  0  0  0  0
    2.9269   10.3317   22.8672 O   0  0  0  0  0  0  0  0  0  0  0  0
    2.6273    8.0389   21.5867 H   0  0  0  0  0  0  0  0  0  0  0  0
   -2.1809    6.4891   26.7130 C   0  0  0  0  0  0  0  0  0  0  0  0
   -2.5805    7.0191   25.4919 C   0  0  0  0  0  0  0  0  0  0  0  0
   -1.5855    7.4956   24.6499 C   0  0  0  0  0  0  0  0  0  0  0  0
   -0.2218    7.4101   25.0008 C   0  0  0  0  0  0  0  0  0  0  0  0
    0.1436    6.9240   26.2570 C   0  0  0  0  0  0  0  0  0  0  0  0
   -0.8479    6.4323   27.0728 C   0  0  0  0  0  0  0  0  0  0  0  0
   -3.0797    6.0408   27.6128 O   0  0  0  0  0  0  0  0  0  0  0  0
   -1.9354    7.9741   23.4362 O   0  0  0  0  0  0  0  0  0  0  0  0
   -0.3840    5.5460   28.6576 Br  0  0  0  0  0  0  0  0  0  0  0  0
   -2.7881    5.6872   28.4301 H   0  0  0  0  0  0  0  0  0  0  0  0
   -1.2778    8.3001   22.8538 H   0  0  0  0  0  0  0  0  0  0  0  0
    1.2675   10.2156   25.2090 C   0  0  0  0  0  0  0  0  0  0  0  0
    2.3745   10.5998   25.9867 C   0  0  0  0  0  0  0  0  0  0  0  0
    2.2635   11.5857   26.9584 C   0  0  0  0  0  0  0  0  0  0  0  0
    0.0490   10.8731   25.3847 C   0  0  0  0  0  0  0  0  0  0  0  0
    1.0313   12.2050   27.1310 C   0  0  0  0  0  0  0  0  0  0  0  0
   -0.0737   11.8539   26.3581 C   0  0  0  0  0  0  0  0  0  0  0  0
    3.5694   10.0059   25.8165 F   0  0  0  0  0  0  0  0  0  0  0  0
  4  2  1  0  0  0
  4  3  1  0  0  0
  6  2  2  0  0  0
  2  5  1  0  0  0
  3  1  2  0  0  0
 25 20  1  0  0  0
  5  1  1  0  0  0
  5 19  1  0  0  0
  1 11  1  0  0  0
 20 19  2  0  0  0
 20 21  1  0  0  0
 19 22  1  0  0  0
 11 12  2  0  0  0
 11 10  1  0  0  0
 21 23  2  0  0  0
 15 10  1  0  0  0
 12 13  1  0  0  0
 10  9  2  0  0  0
 22 24  2  0  0  0
 23 24  1  0  0  0
 13 16  1  0  0  0
 13  8  2  0  0  0
  9  8  1  0  0  0
  8 14  1  0  0  0
 14 17  1  0  0  0
 15 18  1  0  0  0
  4  7  1  0  0  0
M  END
> <minimizedAffinity>
-6.69826

$$$$
5J2X_6DL_A_301


 25 27  0  0  0  0  0  0  0  0999 V2000
    0.7929    8.5357   25.4497 C   0  0  0  0  0  0  0  0  0  0  0  0
    1.7013    9.8650   23.9252 C   0  0  0  0  0  0  0  0  0  0  0  0
    1.5020    9.4106   26.1037 N   0  0  0  0  0  0  0  0  0  0  0  0
    2.0673   10.2651   25.1536 N   0  0  0  0  0  0  0  0  0  0  0  0
    0.9102    8.7804   24.0772 N   0  0  0  0  0  0  0  0  0  0  0  0
    2.0394   10.3732   22.8674 O   0  0  0  0  0  0  0  0  0  0  0  0
    2.6431   11.0383   25.3533 H   0  0  0  0  0  0  0  0  0  0  0  0
   -1.2916    5.2992   27.2044 C   0  0  0  0  0  0  0  0  0  0  0  0
   -0.1385    5.0202   26.4804 C   0  0  0  0  0  0  0  0  0  0  0  0
    0.5346    6.0959   25.9181 C   0  0  0  0  0  0  0  0  0  0  0  0
    0.0897    7.4214   26.1061 C   0  0  0  0  0  0  0  0  0  0  0  0
   -1.1020    7.6642   26.7908 C   0  0  0  0  0  0  0  0  0  0  0  0
   -1.7471    6.5940   27.3642 C   0  0  0  0  0  0  0  0  0  0  0  0
   -2.0338    4.3149   27.7512 O   0  0  0  0  0  0  0  0  0  0  0  0
    1.6842    5.8647   25.2480 O   0  0  0  0  0  0  0  0  0  0  0  0
   -3.2084    6.8968   28.4979 Br  0  0  0  0  0  0  0  0  0  0  0  0
   -2.8077    4.5257   28.2355 H   0  0  0  0  0  0  0  0  0  0  0  0
    2.1528    6.5781   24.8614 H   0  0  0  0  0  0  0  0  0  0  0  0
    0.2985    8.0922   23.0014 C   0  0  0  0  0  0  0  0  0  0  0  0
    1.0818    7.3699   22.0834 C   0  0  0  0  0  0  0  0  0  0  0  0
    0.4982    6.6588   21.0431 C   0  0  0  0  0  0  0  0  0  0  0  0
   -1.0923    8.0515   22.8922 C   0  0  0  0  0  0  0  0  0  0  0  0
   -0.8880    6.6577   20.9418 C   0  0  0  0  0  0  0  0  0  0  0  0
   -1.6842    7.3502   21.8519 C   0  0  0  0  0  0  0  0  0  0  0  0
    2.4232    7.3646   22.1839 F   0  0  0  0  0  0  0  0  0  0  0  0
  4  2  1  0  0  0
  4  3  1  0  0  0
  6  2  2  0  0  0
  2  5  1  0  0  0
  3  1  2  0  0  0
 25 20  1  0  0  0
  5  1  1  0  0  0
  5 19  1  0  0  0
  1 11  1  0  0  0
 20 19  2  0  0  0
 20 21  1  0  0  0
 19 22  1  0  0  0
 11 12  2  0  0  0
 11 10  1  0  0  0
 21 23  2  0  0  0
 15 10  1  0  0  0
 12 13  1  0  0  0
 10  9  2  0  0  0
 22 24  2  0  0  0
 23 24  1  0  0  0
 13 16  1  0  0  0
 13  8  2  0  0  0
  9  8  1  0  0  0
  8 14  1  0  0  0
 14 17  1  0  0  0
 15 18  1  0  0  0
  4  7  1  0  0  0
M  END
> <minimizedAffinity>
-6.50462

$$$$
5J2X_6DL_A_301


 25 27  0  0  0  0  0  0  0  0999 V2000
    2.1771   10.3555   25.6959 C   0  0  0  0  0  0  0  0  0  0  0  0
    2.4963   12.0395   27.1025 C   0  0  0  0  0  0  0  0  0  0  0  0
    3.4590   10.4064   25.9200 N   0  0  0  0  0  0  0  0  0  0  0  0
    3.6713   11.4549   26.8189 N   0  0  0  0  0  0  0  0  0  0  0  0
    1.5435   11.3791   26.4088 N   0  0  0  0  0  0  0  0  0  0  0  0
    2.3244   13.0027   27.8333 O   0  0  0  0  0  0  0  0  0  0  0  0
    4.5446   11.7227   27.1862 H   0  0  0  0  0  0  0  0  0  0  0  0
    0.3396    7.7598   22.9057 C   0  0  0  0  0  0  0  0  0  0  0  0
    1.3741    8.5741   22.4602 C   0  0  0  0  0  0  0  0  0  0  0  0
    1.9682    9.4137   23.3920 C   0  0  0  0  0  0  0  0  0  0  0  0
    1.5662    9.4131   24.7442 C   0  0  0  0  0  0  0  0  0  0  0  0
    0.4876    8.6250   25.1485 C   0  0  0  0  0  0  0  0  0  0  0  0
   -0.0773    7.7795   24.2231 C   0  0  0  0  0  0  0  0  0  0  0  0
   -0.3245    6.9425   22.0633 O   0  0  0  0  0  0  0  0  0  0  0  0
    3.0075   10.1838   23.0032 O   0  0  0  0  0  0  0  0  0  0  0  0
   -1.3576    6.5280   24.7770 Br  0  0  0  0  0  0  0  0  0  0  0  0
   -1.0189    6.4020   22.3852 H   0  0  0  0  0  0  0  0  0  0  0  0
    3.4216   10.7570   23.6180 H   0  0  0  0  0  0  0  0  0  0  0  0
    0.1626   11.6853   26.4760 C   0  0  0  0  0  0  0  0  0  0  0  0
   -0.3003   12.9620   26.1101 C   0  0  0  0  0  0  0  0  0  0  0  0
   -1.6541   13.2704   26.1344 C   0  0  0  0  0  0  0  0  0  0  0  0
   -0.7611   10.6978   26.8216 C   0  0  0  0  0  0  0  0  0  0  0  0
   -2.5499   12.2760   26.5090 C   0  0  0  0  0  0  0  0  0  0  0  0
   -2.1149   10.9985   26.8563 C   0  0  0  0  0  0  0  0  0  0  0  0
    0.5649   13.9237   25.7412 F   0  0  0  0  0  0  0  0  0  0  0  0
  4  2  1  0  0  0
  4  3  1  0  0  0
  6  2  2  0  0  0
  2  5  1  0  0  0
  3  1  2  0  0  0
 25 20  1  0  0  0
  5  1  1  0  0  0
  5 19  1  0  0  0
  1 11  1  0  0  0
 20 19  2  0  0  0
 20 21  1  0  0  0
 19 22  1  0  0  0
 11 12  2  0  0  0
 11 10  1  0  0  0
 21 23  2  0  0  0
 15 10  1  0  0  0
 12 13  1  0  0  0
 10  9  2  0  0  0
 22 24  2  0  0  0
 23 24  1  0  0  0
 13 16  1  0  0  0
 13  8  2  0  0  0
  9  8  1  0  0  0
  8 14  1  0  0  0
 14 17  1  0  0  0
 15 18  1  0  0  0
  4  7  1  0  0  0
M  END
> <minimizedAffinity>
-6.43245

$$$$
5J2X_6DL_A_301


 25 27  0  0  0  0  0  0  0  0999 V2000
   -1.6231    7.6199   26.2686 C   0  0  0  0  0  0  0  0  0  0  0  0
   -2.8160    7.0347   28.0437 C   0  0  0  0  0  0  0  0  0  0  0  0
   -2.0156    8.7292   26.8270 N   0  0  0  0  0  0  0  0  0  0  0  0
   -2.7558    8.3734   27.9574 N   0  0  0  0  0  0  0  0  0  0  0  0
   -2.1235    6.5352   26.9968 N   0  0  0  0  0  0  0  0  0  0  0  0
   -3.4061    6.3899   28.8966 O   0  0  0  0  0  0  0  0  0  0  0  0
   -3.1680    9.0045   28.5907 H   0  0  0  0  0  0  0  0  0  0  0  0
    0.5466    7.6591   22.6369 C   0  0  0  0  0  0  0  0  0  0  0  0
    1.2278    7.9610   23.8102 C   0  0  0  0  0  0  0  0  0  0  0  0
    0.5000    7.9365   24.9917 C   0  0  0  0  0  0  0  0  0  0  0  0
   -0.8652    7.5815   25.0072 C   0  0  0  0  0  0  0  0  0  0  0  0
   -1.5340    7.3383   23.8067 C   0  0  0  0  0  0  0  0  0  0  0  0
   -0.7982    7.3413   22.6452 C   0  0  0  0  0  0  0  0  0  0  0  0
    1.1611    7.6986   21.4371 O   0  0  0  0  0  0  0  0  0  0  0  0
    1.1417    8.1788   26.1552 O   0  0  0  0  0  0  0  0  0  0  0  0
   -1.5965    6.7789   21.0456 Br  0  0  0  0  0  0  0  0  0  0  0  0
    0.6826    7.4913   20.6586 H   0  0  0  0  0  0  0  0  0  0  0  0
    0.6673    8.1666   26.9632 H   0  0  0  0  0  0  0  0  0  0  0  0
   -1.9324    5.1514   26.7645 C   0  0  0  0  0  0  0  0  0  0  0  0
   -3.0023    4.3503   26.3272 C   0  0  0  0  0  0  0  0  0  0  0  0
   -2.8264    2.9991   26.0591 C   0  0  0  0  0  0  0  0  0  0  0  0
   -0.6613    4.5872   26.8828 C   0  0  0  0  0  0  0  0  0  0  0  0
   -1.5558    2.4570   26.2116 C   0  0  0  0  0  0  0  0  0  0  0  0
   -0.4773    3.2366   26.6247 C   0  0  0  0  0  0  0  0  0  0  0  0
   -4.2314    4.8748   26.1730 F   0  0  0  0  0  0  0  0  0  0  0  0
  4  2  1  0  0  0
  4  3  1  0  0  0
  6  2  2  0  0  0
  2  5  1  0  0  0
  3  1  2  0  0  0
 25 20  1  0  0  0
  5  1  1  0  0  0
  5 19  1  0  0  0
  1 11  1  0  0  0
 20 19  2  0  0  0
 20 21  1  0  0  0
 19 22  1  0  0  0
 11 12  2  0  0  0
 11 10  1  0  0  0
 21 23  2  0  0  0
 15 10  1  0  0  0
 12 13  1  0  0  0
 10  9  2  0  0  0
 22 24  2  0  0  0
 23 24  1  0  0  0
 13 16  1  0  0  0
 13  8  2  0  0  0
  9  8  1  0  0  0
  8 14  1  0  0  0
 14 17  1  0  0  0
 15 18  1  0  0  0
  4  7  1  0  0  0
M  END
> <minimizedAffinity>
-6.33606

$$$$
