5NXO_9HK_A_302


 22 23  0  0  0  0  0  0  0  0999 V2000
   -4.8742    6.4405   14.5068 C   0  0  0  0  0  0  0  0  0  0  0  0
   -6.1623    6.4721   15.0381 C   0  0  0  0  0  0  0  0  0  0  0  0
   -6.6117    5.4736   15.8934 C   0  0  0  0  0  0  0  0  0  0  0  0
   -5.7759    4.3922   16.2072 C   0  0  0  0  0  0  0  0  0  0  0  0
   -4.4636    4.3375   15.7140 C   0  0  0  0  0  0  0  0  0  0  0  0
   -4.0453    5.3688   14.8634 C   0  0  0  0  0  0  0  0  0  0  0  0
   -6.4305    3.0734   17.2367 S   0  0  0  0  0  0  0  0  0  0  0  0
   -6.2594    3.5366   18.6426 O   0  0  0  0  0  0  0  0  0  0  0  0
   -7.8041    2.8515   16.7912 O   0  0  0  0  0  0  0  0  0  0  0  0
   -5.5376    1.8037   16.9530 N   0  0  0  0  0  0  0  0  0  0  0  0
   -5.6698    1.5040   15.9871 H   0  0  0  0  0  0  0  0  0  0  0  0
   -5.8093    1.0492   17.5834 H   0  0  0  0  0  0  0  0  0  0  0  0
   -4.4672    7.4417   13.5540 C   0  0  0  0  0  0  0  0  0  0  0  0
   -3.2133    8.9818   14.9759 C   0  0  0  0  0  0  0  0  0  0  0  0
   -2.1683    9.8647   15.1937 C   0  0  0  0  0  0  0  0  0  0  0  0
   -1.2059   10.0706   14.2100 C   0  0  0  0  0  0  0  0  0  0  0  0
   -1.2856    9.3383   13.0274 C   0  0  0  0  0  0  0  0  0  0  0  0
   -2.3535    8.4673   12.8118 C   0  0  0  0  0  0  0  0  0  0  0  0
   -3.3221    8.2724   13.7939 C   0  0  0  0  0  0  0  0  0  0  0  0
   -0.2005   10.9274   14.4359 N   0  0  0  0  0  0  0  0  0  0  0  0
    0.8266   10.9083   13.6208 O   0  0  0  0  0  0  0  0  0  0  0  0
   -0.2525   11.6882   15.5356 O   0  0  0  0  0  0  0  0  0  0  0  0
 18 17  2  0  0  0
 18 19  1  0  0  0
 17 16  1  0  0  0
 13 19  1  0  0  0
 13  1  1  0  0  0
 22 20  1  0  0  0
 19 14  2  0  0  0
 16 20  1  0  0  0
 16 15  2  0  0  0
  1  2  2  0  0  0
  1  6  1  0  0  0
 20 21  2  0  0  0
  2  3  1  0  0  0
  6  5  2  0  0  0
 14 15  1  0  0  0
  3  4  2  0  0  0
  5  4  1  0  0  0
  4  7  1  0  0  0
 10  7  1  0  0  0
  9  7  2  0  0  0
  7  8  2  0  0  0
 10 11  1  0  0  0
 10 12  1  0  0  0
M  CHG 1  20   1
M  CHG 1  22  -1
M  END
> <minimizedAffinity>
-7.59704

$$$$
5NXO_9HK_A_302


 22 23  0  0  0  0  0  0  0  0999 V2000
   -3.9046    7.9497   13.8385 C   0  0  0  0  0  0  0  0  0  0  0  0
   -3.2268    8.2518   12.6587 C   0  0  0  0  0  0  0  0  0  0  0  0
   -2.1642    9.1470   12.6494 C   0  0  0  0  0  0  0  0  0  0  0  0
   -1.7803    9.7902   13.8349 C   0  0  0  0  0  0  0  0  0  0  0  0
   -2.4201    9.4932   15.0477 C   0  0  0  0  0  0  0  0  0  0  0  0
   -3.4797    8.5775   15.0166 C   0  0  0  0  0  0  0  0  0  0  0  0
   -0.4669   11.0137   13.7597 S   0  0  0  0  0  0  0  0  0  0  0  0
   -0.2735   11.4842   15.1602 O   0  0  0  0  0  0  0  0  0  0  0  0
    0.6751   10.3488   13.1369 O   0  0  0  0  0  0  0  0  0  0  0  0
   -1.0015   12.1833   12.8451 N   0  0  0  0  0  0  0  0  0  0  0  0
   -1.1266   11.8401   11.8928 H   0  0  0  0  0  0  0  0  0  0  0  0
   -0.3281   12.9494   12.8447 H   0  0  0  0  0  0  0  0  0  0  0  0
   -5.0575    7.0864   13.8016 C   0  0  0  0  0  0  0  0  0  0  0  0
   -4.1841    5.1254   14.9668 C   0  0  0  0  0  0  0  0  0  0  0  0
   -4.3427    4.0310   15.8012 C   0  0  0  0  0  0  0  0  0  0  0  0
   -5.5623    3.7971   16.4292 C   0  0  0  0  0  0  0  0  0  0  0  0
   -6.6002    4.7076   16.2427 C   0  0  0  0  0  0  0  0  0  0  0  0
   -6.4347    5.7946   15.3844 C   0  0  0  0  0  0  0  0  0  0  0  0
   -5.2161    6.0193   14.7477 C   0  0  0  0  0  0  0  0  0  0  0  0
   -5.6998    2.7346   17.2341 N   0  0  0  0  0  0  0  0  0  0  0  0
   -5.7903    2.9418   18.5258 O   0  0  0  0  0  0  0  0  0  0  0  0
   -5.6395    1.5145   16.6875 O   0  0  0  0  0  0  0  0  0  0  0  0
 18 17  2  0  0  0
 18 19  1  0  0  0
 17 16  1  0  0  0
 13 19  1  0  0  0
 13  1  1  0  0  0
 22 20  1  0  0  0
 19 14  2  0  0  0
 16 20  1  0  0  0
 16 15  2  0  0  0
  1  2  2  0  0  0
  1  6  1  0  0  0
 20 21  2  0  0  0
  2  3  1  0  0  0
  6  5  2  0  0  0
 14 15  1  0  0  0
  3  4  2  0  0  0
  5  4  1  0  0  0
  4  7  1  0  0  0
 10  7  1  0  0  0
  9  7  2  0  0  0
  7  8  2  0  0  0
 10 11  1  0  0  0
 10 12  1  0  0  0
M  CHG 1  20   1
M  CHG 1  22  -1
M  END
> <minimizedAffinity>
-7.05678

$$$$
5NXO_9HK_A_302


 22 23  0  0  0  0  0  0  0  0999 V2000
   -4.7841    6.3737   14.5320 C   0  0  0  0  0  0  0  0  0  0  0  0
   -4.0314    5.2494   14.8664 C   0  0  0  0  0  0  0  0  0  0  0  0
   -4.5588    4.2436   15.6670 C   0  0  0  0  0  0  0  0  0  0  0  0
   -5.8573    4.3671   16.1818 C   0  0  0  0  0  0  0  0  0  0  0  0
   -6.6562    5.4708   15.8467 C   0  0  0  0  0  0  0  0  0  0  0  0
   -6.0913    6.4577   15.0287 C   0  0  0  0  0  0  0  0  0  0  0  0
   -6.4640    3.0921   17.2926 S   0  0  0  0  0  0  0  0  0  0  0  0
   -6.3095    3.6474   18.6667 O   0  0  0  0  0  0  0  0  0  0  0  0
   -7.8287    2.7938   16.8649 O   0  0  0  0  0  0  0  0  0  0  0  0
   -5.5259    1.8402   17.0861 N   0  0  0  0  0  0  0  0  0  0  0  0
   -5.6473    1.4766   16.1409 H   0  0  0  0  0  0  0  0  0  0  0  0
   -5.7702    1.1170   17.7626 H   0  0  0  0  0  0  0  0  0  0  0  0
   -4.1809    7.4404   13.7742 C   0  0  0  0  0  0  0  0  0  0  0  0
   -4.0303    6.7587   11.4336 C   0  0  0  0  0  0  0  0  0  0  0  0
   -3.3008    6.3972   10.3127 C   0  0  0  0  0  0  0  0  0  0  0  0
   -1.9097    6.4232   10.3412 C   0  0  0  0  0  0  0  0  0  0  0  0
   -1.2689    6.8652   11.4967 C   0  0  0  0  0  0  0  0  0  0  0  0
   -2.0138    7.2073   12.6253 C   0  0  0  0  0  0  0  0  0  0  0  0
   -3.4061    7.1686   12.5974 C   0  0  0  0  0  0  0  0  0  0  0  0
   -1.2182    6.0715    9.2486 N   0  0  0  0  0  0  0  0  0  0  0  0
   -1.4639    4.9023    8.7079 O   0  0  0  0  0  0  0  0  0  0  0  0
   -0.2464    6.8881    8.8246 O   0  0  0  0  0  0  0  0  0  0  0  0
 18 17  2  0  0  0
 18 19  1  0  0  0
 17 16  1  0  0  0
 13 19  1  0  0  0
 13  1  1  0  0  0
 22 20  1  0  0  0
 19 14  2  0  0  0
 16 20  1  0  0  0
 16 15  2  0  0  0
  1  2  2  0  0  0
  1  6  1  0  0  0
 20 21  2  0  0  0
  2  3  1  0  0  0
  6  5  2  0  0  0
 14 15  1  0  0  0
  3  4  2  0  0  0
  5  4  1  0  0  0
  4  7  1  0  0  0
 10  7  1  0  0  0
  9  7  2  0  0  0
  7  8  2  0  0  0
 10 11  1  0  0  0
 10 12  1  0  0  0
M  CHG 1  20   1
M  CHG 1  22  -1
M  END
> <minimizedAffinity>
-7.00327

$$$$
5NXO_9HK_A_302


 22 23  0  0  0  0  0  0  0  0999 V2000
   -4.1808    7.8078   13.4619 C   0  0  0  0  0  0  0  0  0  0  0  0
   -3.6763    8.1474   14.7159 C   0  0  0  0  0  0  0  0  0  0  0  0
   -2.7061    9.1320   14.8578 C   0  0  0  0  0  0  0  0  0  0  0  0
   -2.1930    9.7777   13.7237 C   0  0  0  0  0  0  0  0  0  0  0  0
   -2.6937    9.4831   12.4466 C   0  0  0  0  0  0  0  0  0  0  0  0
   -3.6786    8.4919   12.3472 C   0  0  0  0  0  0  0  0  0  0  0  0
   -0.8699   10.9731   13.9430 S   0  0  0  0  0  0  0  0  0  0  0  0
    0.3543   10.3249   13.3940 O   0  0  0  0  0  0  0  0  0  0  0  0
   -1.3097   12.1957   13.2750 O   0  0  0  0  0  0  0  0  0  0  0  0
   -0.7323   11.2028   15.4980 N   0  0  0  0  0  0  0  0  0  0  0  0
   -1.5795   11.6466   15.8525 H   0  0  0  0  0  0  0  0  0  0  0  0
    0.0699   11.8050   15.6831 H   0  0  0  0  0  0  0  0  0  0  0  0
   -5.1206    6.7229   13.3374 C   0  0  0  0  0  0  0  0  0  0  0  0
   -6.4646    5.8412   15.1764 C   0  0  0  0  0  0  0  0  0  0  0  0
   -6.6375    5.0127   16.2732 C   0  0  0  0  0  0  0  0  0  0  0  0
   -5.6425    4.1098   16.6355 C   0  0  0  0  0  0  0  0  0  0  0  0
   -4.4962    4.0209   15.8487 C   0  0  0  0  0  0  0  0  0  0  0  0
   -4.3249    4.8744   14.7587 C   0  0  0  0  0  0  0  0  0  0  0  0
   -5.3178    5.7856   14.4058 C   0  0  0  0  0  0  0  0  0  0  0  0
   -5.8249    3.3145   17.6985 N   0  0  0  0  0  0  0  0  0  0  0  0
   -5.5284    2.0425   17.5804 O   0  0  0  0  0  0  0  0  0  0  0  0
   -6.3907    3.8392   18.7918 O   0  0  0  0  0  0  0  0  0  0  0  0
 18 17  2  0  0  0
 18 19  1  0  0  0
 17 16  1  0  0  0
 13 19  1  0  0  0
 13  1  1  0  0  0
 22 20  1  0  0  0
 19 14  2  0  0  0
 16 20  1  0  0  0
 16 15  2  0  0  0
  1  2  2  0  0  0
  1  6  1  0  0  0
 20 21  2  0  0  0
  2  3  1  0  0  0
  6  5  2  0  0  0
 14 15  1  0  0  0
  3  4  2  0  0  0
  5  4  1  0  0  0
  4  7  1  0  0  0
 10  7  1  0  0  0
  9  7  2  0  0  0
  7  8  2  0  0  0
 10 11  1  0  0  0
 10 12  1  0  0  0
M  CHG 1  20   1
M  CHG 1  22  -1
M  END
> <minimizedAffinity>
-6.95575

$$$$
5NXO_9HK_A_302


 22 23  0  0  0  0  0  0  0  0999 V2000
   -3.2081    6.8396   13.2242 C   0  0  0  0  0  0  0  0  0  0  0  0
   -3.2828    6.1922   11.9923 C   0  0  0  0  0  0  0  0  0  0  0  0
   -2.1605    6.0511   11.1852 C   0  0  0  0  0  0  0  0  0  0  0  0
   -0.9337    6.5959   11.5908 C   0  0  0  0  0  0  0  0  0  0  0  0
   -0.8114    7.2315   12.8357 C   0  0  0  0  0  0  0  0  0  0  0  0
   -1.9637    7.3439   13.6241 C   0  0  0  0  0  0  0  0  0  0  0  0
    0.4681    6.4777   10.4733 S   0  0  0  0  0  0  0  0  0  0  0  0
    0.2411    5.2428    9.6709 O   0  0  0  0  0  0  0  0  0  0  0  0
    0.5045    7.7349    9.7300 O   0  0  0  0  0  0  0  0  0  0  0  0
    1.7491    6.3271   11.3823 N   0  0  0  0  0  0  0  0  0  0  0  0
    1.8856    7.1819   11.9218 H   0  0  0  0  0  0  0  0  0  0  0  0
    2.5660    6.1623   10.7940 H   0  0  0  0  0  0  0  0  0  0  0  0
   -4.4054    7.0480   13.9980 C   0  0  0  0  0  0  0  0  0  0  0  0
   -4.1049    4.9791   15.2609 C   0  0  0  0  0  0  0  0  0  0  0  0
   -4.5993    3.9271   16.0146 C   0  0  0  0  0  0  0  0  0  0  0  0
   -5.9430    3.8913   16.3747 C   0  0  0  0  0  0  0  0  0  0  0  0
   -6.7664    4.9532   16.0067 C   0  0  0  0  0  0  0  0  0  0  0  0
   -6.2616    5.9967   15.2308 C   0  0  0  0  0  0  0  0  0  0  0  0
   -4.9185    6.0236   14.8618 C   0  0  0  0  0  0  0  0  0  0  0  0
   -6.4060    2.8673   17.1048 N   0  0  0  0  0  0  0  0  0  0  0  0
   -5.5370    2.0867   17.7007 O   0  0  0  0  0  0  0  0  0  0  0  0
   -7.7243    2.6373   17.1077 O   0  0  0  0  0  0  0  0  0  0  0  0
 18 17  2  0  0  0
 18 19  1  0  0  0
 17 16  1  0  0  0
 13 19  1  0  0  0
 13  1  1  0  0  0
 22 20  1  0  0  0
 19 14  2  0  0  0
 16 20  1  0  0  0
 16 15  2  0  0  0
  1  2  2  0  0  0
  1  6  1  0  0  0
 20 21  2  0  0  0
  2  3  1  0  0  0
  6  5  2  0  0  0
 14 15  1  0  0  0
  3  4  2  0  0  0
  5  4  1  0  0  0
  4  7  1  0  0  0
 10  7  1  0  0  0
  9  7  2  0  0  0
  7  8  2  0  0  0
 10 11  1  0  0  0
 10 12  1  0  0  0
M  CHG 1  20   1
M  CHG 1  22  -1
M  END
> <minimizedAffinity>
-6.86730

$$$$
5NXO_9HK_A_302


 22 23  0  0  0  0  0  0  0  0999 V2000
   -2.7624    8.9936   13.7562 C   0  0  0  0  0  0  0  0  0  0  0  0
   -1.8036    9.1776   12.7615 C   0  0  0  0  0  0  0  0  0  0  0  0
   -0.7275   10.0360   12.9505 C   0  0  0  0  0  0  0  0  0  0  0  0
   -0.6121   10.7615   14.1449 C   0  0  0  0  0  0  0  0  0  0  0  0
   -1.5419   10.5842   15.1806 C   0  0  0  0  0  0  0  0  0  0  0  0
   -2.6063    9.7021   14.9547 C   0  0  0  0  0  0  0  0  0  0  0  0
    0.7393   11.9340   14.3087 S   0  0  0  0  0  0  0  0  0  0  0  0
    1.9768   11.1710   13.9821 O   0  0  0  0  0  0  0  0  0  0  0  0
    0.4175   13.0533   13.4267 O   0  0  0  0  0  0  0  0  0  0  0  0
    0.7474   12.3943   15.8180 N   0  0  0  0  0  0  0  0  0  0  0  0
   -0.1070   12.9137   16.0196 H   0  0  0  0  0  0  0  0  0  0  0  0
    1.5565   12.9920   15.9868 H   0  0  0  0  0  0  0  0  0  0  0  0
   -3.9131    8.1660   13.4981 C   0  0  0  0  0  0  0  0  0  0  0  0
   -5.3654    6.5030   14.5426 C   0  0  0  0  0  0  0  0  0  0  0  0
   -5.5632    5.3505   15.2853 C   0  0  0  0  0  0  0  0  0  0  0  0
   -4.4764    4.5868   15.7004 C   0  0  0  0  0  0  0  0  0  0  0  0
   -3.1952    4.9749   15.3142 C   0  0  0  0  0  0  0  0  0  0  0  0
   -3.0074    6.1481   14.5836 C   0  0  0  0  0  0  0  0  0  0  0  0
   -4.0968    6.9169   14.1799 C   0  0  0  0  0  0  0  0  0  0  0  0
   -4.6840    3.4740   16.4175 N   0  0  0  0  0  0  0  0  0  0  0  0
   -5.6667    3.4693   17.2859 O   0  0  0  0  0  0  0  0  0  0  0  0
   -3.8191    2.4621   16.2804 O   0  0  0  0  0  0  0  0  0  0  0  0
 18 17  2  0  0  0
 18 19  1  0  0  0
 17 16  1  0  0  0
 13 19  1  0  0  0
 13  1  1  0  0  0
 22 20  1  0  0  0
 19 14  2  0  0  0
 16 20  1  0  0  0
 16 15  2  0  0  0
  1  2  2  0  0  0
  1  6  1  0  0  0
 20 21  2  0  0  0
  2  3  1  0  0  0
  6  5  2  0  0  0
 14 15  1  0  0  0
  3  4  2  0  0  0
  5  4  1  0  0  0
  4  7  1  0  0  0
 10  7  1  0  0  0
  9  7  2  0  0  0
  7  8  2  0  0  0
 10 11  1  0  0  0
 10 12  1  0  0  0
M  CHG 1  20   1
M  CHG 1  22  -1
M  END
> <minimizedAffinity>
-6.55469

$$$$
5NXO_9HK_A_302


 22 23  0  0  0  0  0  0  0  0999 V2000
   -3.3793    4.5976   11.5578 C   0  0  0  0  0  0  0  0  0  0  0  0
   -3.1014    5.9618   11.6220 C   0  0  0  0  0  0  0  0  0  0  0  0
   -1.8590    6.4606   11.2500 C   0  0  0  0  0  0  0  0  0  0  0  0
   -0.8480    5.5822   10.8343 C   0  0  0  0  0  0  0  0  0  0  0  0
   -1.0965    4.2053   10.7307 C   0  0  0  0  0  0  0  0  0  0  0  0
   -2.3650    3.7437   11.1051 C   0  0  0  0  0  0  0  0  0  0  0  0
    0.7733    6.2583   10.4574 S   0  0  0  0  0  0  0  0  0  0  0  0
    1.5211    5.1603    9.7824 O   0  0  0  0  0  0  0  0  0  0  0  0
    0.5389    7.4635    9.6657 O   0  0  0  0  0  0  0  0  0  0  0  0
    1.4372    6.6184   11.8428 N   0  0  0  0  0  0  0  0  0  0  0  0
    0.9106    7.3706   12.2869 H   0  0  0  0  0  0  0  0  0  0  0  0
    2.3993    6.9209   11.6904 H   0  0  0  0  0  0  0  0  0  0  0  0
   -4.6454    4.1010   12.0333 C   0  0  0  0  0  0  0  0  0  0  0  0
   -4.4764    2.7005   14.0273 C   0  0  0  0  0  0  0  0  0  0  0  0
   -4.7738    2.4222   15.3514 C   0  0  0  0  0  0  0  0  0  0  0  0
   -5.5061    3.3282   16.1125 C   0  0  0  0  0  0  0  0  0  0  0  0
   -5.8896    4.5365   15.5347 C   0  0  0  0  0  0  0  0  0  0  0  0
   -5.6016    4.7966   14.1948 C   0  0  0  0  0  0  0  0  0  0  0  0
   -4.8787    3.8821   13.4321 C   0  0  0  0  0  0  0  0  0  0  0  0
   -5.7851    3.0450   17.3923 N   0  0  0  0  0  0  0  0  0  0  0  0
   -5.6646    1.8024   17.7937 O   0  0  0  0  0  0  0  0  0  0  0  0
   -6.2650    4.0248   18.1672 O   0  0  0  0  0  0  0  0  0  0  0  0
 18 17  2  0  0  0
 18 19  1  0  0  0
 17 16  1  0  0  0
 13 19  1  0  0  0
 13  1  1  0  0  0
 22 20  1  0  0  0
 19 14  2  0  0  0
 16 20  1  0  0  0
 16 15  2  0  0  0
  1  2  2  0  0  0
  1  6  1  0  0  0
 20 21  2  0  0  0
  2  3  1  0  0  0
  6  5  2  0  0  0
 14 15  1  0  0  0
  3  4  2  0  0  0
  5  4  1  0  0  0
  4  7  1  0  0  0
 10  7  1  0  0  0
  9  7  2  0  0  0
  7  8  2  0  0  0
 10 11  1  0  0  0
 10 12  1  0  0  0
M  CHG 1  20   1
M  CHG 1  22  -1
M  END
> <minimizedAffinity>
-6.54937

$$$$
5NXO_9HK_A_302


 22 23  0  0  0  0  0  0  0  0999 V2000
   -3.5580    7.6426   14.0287 C   0  0  0  0  0  0  0  0  0  0  0  0
   -4.8822    7.2308   14.1677 C   0  0  0  0  0  0  0  0  0  0  0  0
   -5.1946    5.9644   14.6465 C   0  0  0  0  0  0  0  0  0  0  0  0
   -4.1681    5.0639   14.9658 C   0  0  0  0  0  0  0  0  0  0  0  0
   -2.8229    5.4497   14.8649 C   0  0  0  0  0  0  0  0  0  0  0  0
   -2.5502    6.7383   14.3881 C   0  0  0  0  0  0  0  0  0  0  0  0
   -4.6155    3.4037   15.4868 S   0  0  0  0  0  0  0  0  0  0  0  0
   -3.5981    3.0119   16.5025 O   0  0  0  0  0  0  0  0  0  0  0  0
   -5.9982    3.4808   15.9522 O   0  0  0  0  0  0  0  0  0  0  0  0
   -4.5061    2.4912   14.2041 N   0  0  0  0  0  0  0  0  0  0  0  0
   -5.2101    2.7760   13.5232 H   0  0  0  0  0  0  0  0  0  0  0  0
   -4.6603    1.5174   14.4655 H   0  0  0  0  0  0  0  0  0  0  0  0
   -3.2645    8.9276   13.4470 C   0  0  0  0  0  0  0  0  0  0  0  0
   -2.0234   10.3481   14.9987 C   0  0  0  0  0  0  0  0  0  0  0  0
   -0.9296   11.1326   15.3260 C   0  0  0  0  0  0  0  0  0  0  0  0
    0.1400   11.2501   14.4436 C   0  0  0  0  0  0  0  0  0  0  0  0
    0.1118   10.5277   13.2527 C   0  0  0  0  0  0  0  0  0  0  0  0
   -1.0039    9.7571   12.9254 C   0  0  0  0  0  0  0  0  0  0  0  0
   -2.0784    9.6511   13.8057 C   0  0  0  0  0  0  0  0  0  0  0  0
    1.1914   12.0122   14.7749 N   0  0  0  0  0  0  0  0  0  0  0  0
    1.3367   12.3571   16.0317 O   0  0  0  0  0  0  0  0  0  0  0  0
    1.9817   12.4616   13.7929 O   0  0  0  0  0  0  0  0  0  0  0  0
 18 17  2  0  0  0
 18 19  1  0  0  0
 17 16  1  0  0  0
 13 19  1  0  0  0
 13  1  1  0  0  0
 22 20  1  0  0  0
 19 14  2  0  0  0
 16 20  1  0  0  0
 16 15  2  0  0  0
  1  2  2  0  0  0
  1  6  1  0  0  0
 20 21  2  0  0  0
  2  3  1  0  0  0
  6  5  2  0  0  0
 14 15  1  0  0  0
  3  4  2  0  0  0
  5  4  1  0  0  0
  4  7  1  0  0  0
 10  7  1  0  0  0
  9  7  2  0  0  0
  7  8  2  0  0  0
 10 11  1  0  0  0
 10 12  1  0  0  0
M  CHG 1  20   1
M  CHG 1  22  -1
M  END
> <minimizedAffinity>
-6.43652

$$$$
5NXO_9HK_A_302


 22 23  0  0  0  0  0  0  0  0999 V2000
   -3.5846    7.3152   13.8975 C   0  0  0  0  0  0  0  0  0  0  0  0
   -3.6815    6.0790   14.5336 C   0  0  0  0  0  0  0  0  0  0  0  0
   -3.9308    4.9174   13.8130 C   0  0  0  0  0  0  0  0  0  0  0  0
   -4.1244    4.9823   12.4256 C   0  0  0  0  0  0  0  0  0  0  0  0
   -4.0084    6.2036   11.7449 C   0  0  0  0  0  0  0  0  0  0  0  0
   -3.7459    7.3498   12.5063 C   0  0  0  0  0  0  0  0  0  0  0  0
   -4.5422    3.4721   11.5468 S   0  0  0  0  0  0  0  0  0  0  0  0
   -3.5352    3.3488   10.4555 O   0  0  0  0  0  0  0  0  0  0  0  0
   -4.5471    2.4064   12.5462 O   0  0  0  0  0  0  0  0  0  0  0  0
   -5.9878    3.6896   10.9527 N   0  0  0  0  0  0  0  0  0  0  0  0
   -6.6601    3.7712   11.7154 H   0  0  0  0  0  0  0  0  0  0  0  0
   -6.2365    2.8947   10.3639 H   0  0  0  0  0  0  0  0  0  0  0  0
   -3.4137    8.5126   14.6804 C   0  0  0  0  0  0  0  0  0  0  0  0
   -1.9520   10.2874   15.5045 C   0  0  0  0  0  0  0  0  0  0  0  0
   -0.8678   11.1383   15.3647 C   0  0  0  0  0  0  0  0  0  0  0  0
   -0.0361   11.0399   14.2534 C   0  0  0  0  0  0  0  0  0  0  0  0
   -0.2845   10.0416   13.3138 C   0  0  0  0  0  0  0  0  0  0  0  0
   -1.3909    9.2040   13.4554 C   0  0  0  0  0  0  0  0  0  0  0  0
   -2.2286    9.3130   14.5631 C   0  0  0  0  0  0  0  0  0  0  0  0
    1.0093   11.8697   14.1328 N   0  0  0  0  0  0  0  0  0  0  0  0
    1.4814   12.4353   15.2177 O   0  0  0  0  0  0  0  0  0  0  0  0
    1.4537   12.1532   12.9028 O   0  0  0  0  0  0  0  0  0  0  0  0
 18 17  2  0  0  0
 18 19  1  0  0  0
 17 16  1  0  0  0
 13 19  1  0  0  0
 13  1  1  0  0  0
 22 20  1  0  0  0
 19 14  2  0  0  0
 16 20  1  0  0  0
 16 15  2  0  0  0
  1  2  2  0  0  0
  1  6  1  0  0  0
 20 21  2  0  0  0
  2  3  1  0  0  0
  6  5  2  0  0  0
 14 15  1  0  0  0
  3  4  2  0  0  0
  5  4  1  0  0  0
  4  7  1  0  0  0
 10  7  1  0  0  0
  9  7  2  0  0  0
  7  8  2  0  0  0
 10 11  1  0  0  0
 10 12  1  0  0  0
M  CHG 1  20   1
M  CHG 1  22  -1
M  END
> <minimizedAffinity>
-6.22231

$$$$
5NXO_9HK_A_302


 22 23  0  0  0  0  0  0  0  0999 V2000
   -2.6771    6.7197   13.7041 C   0  0  0  0  0  0  0  0  0  0  0  0
   -1.9721    6.0922   12.6787 C   0  0  0  0  0  0  0  0  0  0  0  0
   -2.5295    5.0404   11.9621 C   0  0  0  0  0  0  0  0  0  0  0  0
   -3.8094    4.5704   12.2903 C   0  0  0  0  0  0  0  0  0  0  0  0
   -4.5616    5.1925   13.2981 C   0  0  0  0  0  0  0  0  0  0  0  0
   -3.9679    6.2561   13.9898 C   0  0  0  0  0  0  0  0  0  0  0  0
   -4.4523    3.1453   11.4053 S   0  0  0  0  0  0  0  0  0  0  0  0
   -3.5126    2.9170   10.2716 O   0  0  0  0  0  0  0  0  0  0  0  0
   -4.5559    2.0681   12.3868 O   0  0  0  0  0  0  0  0  0  0  0  0
   -5.8796    3.5589   10.8747 N   0  0  0  0  0  0  0  0  0  0  0  0
   -6.5057    3.7099   11.6656 H   0  0  0  0  0  0  0  0  0  0  0  0
   -6.2514    2.8152   10.2839 H   0  0  0  0  0  0  0  0  0  0  0  0
   -2.0401    7.7479   14.4869 C   0  0  0  0  0  0  0  0  0  0  0  0
   -2.4153    9.4677   12.7937 C   0  0  0  0  0  0  0  0  0  0  0  0
   -2.3969   10.7861   12.3689 C   0  0  0  0  0  0  0  0  0  0  0  0
   -2.0521   11.8043   13.2527 C   0  0  0  0  0  0  0  0  0  0  0  0
   -1.7756   11.4787   14.5788 C   0  0  0  0  0  0  0  0  0  0  0  0
   -1.7779   10.1456   14.9895 C   0  0  0  0  0  0  0  0  0  0  0  0
   -2.1118    9.1275   14.0991 C   0  0  0  0  0  0  0  0  0  0  0  0
   -2.0396   13.0749   12.8270 N   0  0  0  0  0  0  0  0  0  0  0  0
   -1.9825   13.2965   11.5357 O   0  0  0  0  0  0  0  0  0  0  0  0
   -1.9875   14.0488   13.7433 O   0  0  0  0  0  0  0  0  0  0  0  0
 18 17  2  0  0  0
 18 19  1  0  0  0
 17 16  1  0  0  0
 13 19  1  0  0  0
 13  1  1  0  0  0
 22 20  1  0  0  0
 19 14  2  0  0  0
 16 20  1  0  0  0
 16 15  2  0  0  0
  1  2  2  0  0  0
  1  6  1  0  0  0
 20 21  2  0  0  0
  2  3  1  0  0  0
  6  5  2  0  0  0
 14 15  1  0  0  0
  3  4  2  0  0  0
  5  4  1  0  0  0
  4  7  1  0  0  0
 10  7  1  0  0  0
  9  7  2  0  0  0
  7  8  2  0  0  0
 10 11  1  0  0  0
 10 12  1  0  0  0
M  CHG 1  20   1
M  CHG 1  22  -1
M  END
> <minimizedAffinity>
-5.99980

$$$$
