2IKO_7IG_A_601


 31 33  0  0  0  0  0  0  0  0999 V2000
  -13.2934   24.1469  -36.5341 C   0  0  0  0  0  0  0  0  0  0  0  0
  -12.4261   24.9040  -35.7628 C   0  0  0  0  0  0  0  0  0  0  0  0
  -12.8703   25.9861  -35.0140 C   0  0  0  0  0  0  0  0  0  0  0  0
  -14.2207   26.3409  -35.0309 C   0  0  0  0  0  0  0  0  0  0  0  0
  -15.1038   25.5843  -35.8114 C   0  0  0  0  0  0  0  0  0  0  0  0
  -14.6441   24.4837  -36.5611 C   0  0  0  0  0  0  0  0  0  0  0  0
  -10.9078   27.7036  -34.8780 C   0  0  0  0  0  0  0  0  0  0  0  0
   -9.8783   28.2317  -34.1708 N   0  0  0  0  0  0  0  0  0  0  0  0
   -9.6153   27.8082  -32.9039 C   0  0  0  0  0  0  0  0  0  0  0  0
  -10.3620   26.8634  -32.2912 N   0  0  0  0  0  0  0  0  0  0  0  0
  -11.4112   26.2451  -32.8837 C   0  0  0  0  0  0  0  0  0  0  0  0
  -11.7678   26.6495  -34.2571 C   0  0  0  0  0  0  0  0  0  0  0  0
  -11.1454   28.1385  -36.1340 N   0  0  0  0  0  0  0  0  0  0  0  0
   -8.5913   28.3677  -32.2179 N   0  0  0  0  0  0  0  0  0  0  0  0
  -10.5716   28.8331  -36.5311 H   0  0  0  0  0  0  0  0  0  0  0  0
  -11.8923   27.7611  -36.6526 H   0  0  0  0  0  0  0  0  0  0  0  0
   -8.0330   29.0583  -32.6430 H   0  0  0  0  0  0  0  0  0  0  0  0
   -8.4047   28.0841  -31.2937 H   0  0  0  0  0  0  0  0  0  0  0  0
  -12.1638   25.1836  -32.1189 C   0  0  0  0  0  0  0  0  0  0  0  0
  -11.5839   23.8228  -32.4143 C   0  0  0  0  0  0  0  0  0  0  0  0
  -15.5052   23.7486  -37.3152 N   0  0  0  0  0  0  0  0  0  0  0  0
  -16.3466   24.1654  -37.6112 H   0  0  0  0  0  0  0  0  0  0  0  0
  -15.2335   22.3633  -37.7055 C   0  0  0  0  0  0  0  0  0  0  0  0
  -14.7277   22.5889  -41.4235 C   0  0  0  0  0  0  0  0  0  0  0  0
  -15.2858   22.6533  -40.1582 C   0  0  0  0  0  0  0  0  0  0  0  0
  -14.5537   22.2460  -39.0554 C   0  0  0  0  0  0  0  0  0  0  0  0
  -13.2355   21.7762  -39.2262 C   0  0  0  0  0  0  0  0  0  0  0  0
  -12.6661   21.7252  -40.4976 C   0  0  0  0  0  0  0  0  0  0  0  0
  -13.4203   22.1294  -41.5952 C   0  0  0  0  0  0  0  0  0  0  0  0
  -15.4596   22.9861  -42.4831 F   0  0  0  0  0  0  0  0  0  0  0  0
  -11.4000   21.2705  -40.6678 F   0  0  0  0  0  0  0  0  0  0  0  0
  7  8  2  0  0  0
  7 12  1  0  0  0
  7 13  1  0  0  0
  8  9  1  0  0  0
  9 10  2  0  0  0
  9 14  1  0  0  0
 10 11  1  0  0  0
 11 12  2  0  0  0
 11 19  1  0  0  0
 12  3  1  0  0  0
 19 20  1  0  0  0
  1  2  1  0  0  0
  1  6  2  0  0  0
  2  3  2  0  0  0
  3  4  1  0  0  0
  4  5  2  0  0  0
  5  6  1  0  0  0
  6 21  1  0  0  0
 21 23  1  0  0  0
 24 25  1  0  0  0
 24 29  2  0  0  0
 24 30  1  0  0  0
 25 26  2  0  0  0
 26 27  1  0  0  0
 26 23  1  0  0  0
 27 28  2  0  0  0
 28 29  1  0  0  0
 28 31  1  0  0  0
 13 15  1  0  0  0
 13 16  1  0  0  0
 14 17  1  0  0  0
 14 18  1  0  0  0
 21 22  1  0  0  0
M  END
> <minimizedAffinity>
-9.82116

$$$$
2IKO_7IG_A_601


 31 33  0  0  0  0  0  0  0  0999 V2000
  -13.3029   24.1643  -36.5067 C   0  0  0  0  0  0  0  0  0  0  0  0
  -12.4303   24.9250  -35.7450 C   0  0  0  0  0  0  0  0  0  0  0  0
  -12.8657   26.0231  -35.0146 C   0  0  0  0  0  0  0  0  0  0  0  0
  -14.2125   26.3908  -35.0408 C   0  0  0  0  0  0  0  0  0  0  0  0
  -15.1010   25.6307  -35.8118 C   0  0  0  0  0  0  0  0  0  0  0  0
  -14.6502   24.5139  -36.5428 C   0  0  0  0  0  0  0  0  0  0  0  0
  -10.8734   27.7078  -34.9064 C   0  0  0  0  0  0  0  0  0  0  0  0
   -9.8413   28.2369  -34.2036 N   0  0  0  0  0  0  0  0  0  0  0  0
   -9.5987   27.8447  -32.9227 C   0  0  0  0  0  0  0  0  0  0  0  0
  -10.3687   26.9312  -32.2915 N   0  0  0  0  0  0  0  0  0  0  0  0
  -11.4232   26.3156  -32.8773 C   0  0  0  0  0  0  0  0  0  0  0  0
  -11.7587   26.6875  -34.2651 C   0  0  0  0  0  0  0  0  0  0  0  0
  -11.0904   28.1114  -36.1765 N   0  0  0  0  0  0  0  0  0  0  0  0
   -8.5714   28.4046  -32.2420 N   0  0  0  0  0  0  0  0  0  0  0  0
  -10.5001   28.7839  -36.5870 H   0  0  0  0  0  0  0  0  0  0  0  0
  -11.8390   27.7331  -36.6920 H   0  0  0  0  0  0  0  0  0  0  0  0
   -7.9963   29.0726  -32.6805 H   0  0  0  0  0  0  0  0  0  0  0  0
   -8.3992   28.1439  -31.3084 H   0  0  0  0  0  0  0  0  0  0  0  0
  -12.2028   25.2899  -32.0909 C   0  0  0  0  0  0  0  0  0  0  0  0
  -11.4719   23.9704  -32.0928 C   0  0  0  0  0  0  0  0  0  0  0  0
  -15.5166   23.7756  -37.2876 N   0  0  0  0  0  0  0  0  0  0  0  0
  -16.3541   24.1952  -37.5906 H   0  0  0  0  0  0  0  0  0  0  0  0
  -15.2560   22.3827  -37.6580 C   0  0  0  0  0  0  0  0  0  0  0  0
  -12.6009   21.5631  -40.1896 C   0  0  0  0  0  0  0  0  0  0  0  0
  -13.2845   21.7345  -38.9979 C   0  0  0  0  0  0  0  0  0  0  0  0
  -14.5736   22.2407  -39.0042 C   0  0  0  0  0  0  0  0  0  0  0  0
  -15.1893   22.5700  -40.2289 C   0  0  0  0  0  0  0  0  0  0  0  0
  -14.5086   22.3835  -41.4310 C   0  0  0  0  0  0  0  0  0  0  0  0
  -13.2102   21.8829  -41.4046 C   0  0  0  0  0  0  0  0  0  0  0  0
  -11.3457   21.0733  -40.1599 F   0  0  0  0  0  0  0  0  0  0  0  0
  -15.0947   22.7023  -42.6115 F   0  0  0  0  0  0  0  0  0  0  0  0
  7  8  2  0  0  0
  7 12  1  0  0  0
  7 13  1  0  0  0
  8  9  1  0  0  0
  9 10  2  0  0  0
  9 14  1  0  0  0
 10 11  1  0  0  0
 11 12  2  0  0  0
 11 19  1  0  0  0
 12  3  1  0  0  0
 19 20  1  0  0  0
  1  2  1  0  0  0
  1  6  2  0  0  0
  2  3  2  0  0  0
  3  4  1  0  0  0
  4  5  2  0  0  0
  5  6  1  0  0  0
  6 21  1  0  0  0
 21 23  1  0  0  0
 24 25  1  0  0  0
 24 29  2  0  0  0
 24 30  1  0  0  0
 25 26  2  0  0  0
 26 27  1  0  0  0
 26 23  1  0  0  0
 27 28  2  0  0  0
 28 29  1  0  0  0
 28 31  1  0  0  0
 13 15  1  0  0  0
 13 16  1  0  0  0
 14 17  1  0  0  0
 14 18  1  0  0  0
 21 22  1  0  0  0
M  END
> <minimizedAffinity>
-9.79841

$$$$
2IKO_7IG_A_601


 31 33  0  0  0  0  0  0  0  0999 V2000
  -10.8599   25.0620  -38.1666 C   0  0  0  0  0  0  0  0  0  0  0  0
  -11.4629   24.0744  -38.9291 C   0  0  0  0  0  0  0  0  0  0  0  0
  -11.9254   22.8942  -38.3615 C   0  0  0  0  0  0  0  0  0  0  0  0
  -11.7821   22.6749  -36.9900 C   0  0  0  0  0  0  0  0  0  0  0  0
  -11.1695   23.6655  -36.2121 C   0  0  0  0  0  0  0  0  0  0  0  0
  -10.7110   24.8624  -36.7967 C   0  0  0  0  0  0  0  0  0  0  0  0
  -11.7299   20.9936  -40.1417 C   0  0  0  0  0  0  0  0  0  0  0  0
  -12.3270   20.2286  -41.0889 N   0  0  0  0  0  0  0  0  0  0  0  0
  -13.6581   20.3528  -41.3459 C   0  0  0  0  0  0  0  0  0  0  0  0
  -14.4430   21.2227  -40.6729 N   0  0  0  0  0  0  0  0  0  0  0  0
  -13.9766   22.0539  -39.7107 C   0  0  0  0  0  0  0  0  0  0  0  0
  -12.5439   21.9797  -39.3663 C   0  0  0  0  0  0  0  0  0  0  0  0
  -10.4074   20.8534  -39.9085 N   0  0  0  0  0  0  0  0  0  0  0  0
  -14.2278   19.5621  -42.2854 N   0  0  0  0  0  0  0  0  0  0  0  0
   -9.8829   20.2005  -40.4260 H   0  0  0  0  0  0  0  0  0  0  0  0
   -9.9677   21.4040  -39.2210 H   0  0  0  0  0  0  0  0  0  0  0  0
  -13.6764   18.9205  -42.7889 H   0  0  0  0  0  0  0  0  0  0  0  0
  -15.1934   19.6287  -42.4651 H   0  0  0  0  0  0  0  0  0  0  0  0
  -14.9345   23.0066  -39.0377 C   0  0  0  0  0  0  0  0  0  0  0  0
  -15.5130   22.3705  -37.7983 C   0  0  0  0  0  0  0  0  0  0  0  0
  -10.1198   25.8241  -36.0376 N   0  0  0  0  0  0  0  0  0  0  0  0
   -9.1494   25.7702  -35.8801 H   0  0  0  0  0  0  0  0  0  0  0  0
  -10.8658   26.9364  -35.4448 C   0  0  0  0  0  0  0  0  0  0  0  0
  -12.2677   25.5518  -32.2435 C   0  0  0  0  0  0  0  0  0  0  0  0
  -11.3954   25.9691  -33.2342 C   0  0  0  0  0  0  0  0  0  0  0  0
  -11.8888   26.4894  -34.4191 C   0  0  0  0  0  0  0  0  0  0  0  0
  -13.2814   26.6018  -34.6068 C   0  0  0  0  0  0  0  0  0  0  0  0
  -14.1613   26.1968  -33.6044 C   0  0  0  0  0  0  0  0  0  0  0  0
  -13.6476   25.6673  -32.4243 C   0  0  0  0  0  0  0  0  0  0  0  0
  -11.7660   25.0445  -31.1003 F   0  0  0  0  0  0  0  0  0  0  0  0
  -15.5018   26.2992  -33.7814 F   0  0  0  0  0  0  0  0  0  0  0  0
  7  8  2  0  0  0
  7 12  1  0  0  0
  7 13  1  0  0  0
  8  9  1  0  0  0
  9 10  2  0  0  0
  9 14  1  0  0  0
 10 11  1  0  0  0
 11 12  2  0  0  0
 11 19  1  0  0  0
 12  3  1  0  0  0
 19 20  1  0  0  0
  1  2  1  0  0  0
  1  6  2  0  0  0
  2  3  2  0  0  0
  3  4  1  0  0  0
  4  5  2  0  0  0
  5  6  1  0  0  0
  6 21  1  0  0  0
 21 23  1  0  0  0
 24 25  1  0  0  0
 24 29  2  0  0  0
 24 30  1  0  0  0
 25 26  2  0  0  0
 26 27  1  0  0  0
 26 23  1  0  0  0
 27 28  2  0  0  0
 28 29  1  0  0  0
 28 31  1  0  0  0
 13 15  1  0  0  0
 13 16  1  0  0  0
 14 17  1  0  0  0
 14 18  1  0  0  0
 21 22  1  0  0  0
M  END
> <minimizedAffinity>
-9.35062

$$$$
2IKO_7IG_A_601


 31 33  0  0  0  0  0  0  0  0999 V2000
  -15.1355   24.4428  -37.1553 C   0  0  0  0  0  0  0  0  0  0  0  0
  -14.2610   25.1249  -36.3244 C   0  0  0  0  0  0  0  0  0  0  0  0
  -13.0145   24.6086  -35.9949 C   0  0  0  0  0  0  0  0  0  0  0  0
  -12.6162   23.3684  -36.4979 C   0  0  0  0  0  0  0  0  0  0  0  0
  -13.4954   22.6695  -37.3346 C   0  0  0  0  0  0  0  0  0  0  0  0
  -14.7545   23.2060  -37.6689 C   0  0  0  0  0  0  0  0  0  0  0  0
  -11.0861   26.3234  -35.5946 C   0  0  0  0  0  0  0  0  0  0  0  0
  -10.3734   27.0824  -34.7256 N   0  0  0  0  0  0  0  0  0  0  0  0
  -10.6930   27.1102  -33.4025 C   0  0  0  0  0  0  0  0  0  0  0  0
  -11.7277   26.4035  -32.8969 N   0  0  0  0  0  0  0  0  0  0  0  0
  -12.5149   25.5971  -33.6481 C   0  0  0  0  0  0  0  0  0  0  0  0
  -12.2398   25.5135  -35.0952 C   0  0  0  0  0  0  0  0  0  0  0  0
  -10.7464   26.3106  -36.9013 N   0  0  0  0  0  0  0  0  0  0  0  0
   -9.9732   27.8916  -32.5638 N   0  0  0  0  0  0  0  0  0  0  0  0
   -9.9846   26.8484  -37.2172 H   0  0  0  0  0  0  0  0  0  0  0  0
  -11.2605   25.7636  -37.5382 H   0  0  0  0  0  0  0  0  0  0  0  0
   -9.2147   28.4159  -32.9087 H   0  0  0  0  0  0  0  0  0  0  0  0
  -10.2081   27.9357  -31.6087 H   0  0  0  0  0  0  0  0  0  0  0  0
  -13.6297   24.8307  -32.9788 C   0  0  0  0  0  0  0  0  0  0  0  0
  -14.8330   25.7214  -32.7944 C   0  0  0  0  0  0  0  0  0  0  0  0
  -15.6046   22.5262  -38.4849 N   0  0  0  0  0  0  0  0  0  0  0  0
  -16.5604   22.4973  -38.2510 H   0  0  0  0  0  0  0  0  0  0  0  0
  -15.1577   21.8354  -39.6967 C   0  0  0  0  0  0  0  0  0  0  0  0
  -15.3874   24.1291  -42.6659 C   0  0  0  0  0  0  0  0  0  0  0  0
  -15.7081   23.2500  -41.6456 C   0  0  0  0  0  0  0  0  0  0  0  0
  -14.7192   22.7825  -40.7962 C   0  0  0  0  0  0  0  0  0  0  0  0
  -13.3882   23.2138  -40.9686 C   0  0  0  0  0  0  0  0  0  0  0  0
  -13.0657   24.1111  -41.9856 C   0  0  0  0  0  0  0  0  0  0  0  0
  -14.0709   24.5626  -42.8356 C   0  0  0  0  0  0  0  0  0  0  0  0
  -16.3646   24.5679  -43.4836 F   0  0  0  0  0  0  0  0  0  0  0  0
  -11.7863   24.5261  -42.1583 F   0  0  0  0  0  0  0  0  0  0  0  0
  7  8  2  0  0  0
  7 12  1  0  0  0
  7 13  1  0  0  0
  8  9  1  0  0  0
  9 10  2  0  0  0
  9 14  1  0  0  0
 10 11  1  0  0  0
 11 12  2  0  0  0
 11 19  1  0  0  0
 12  3  1  0  0  0
 19 20  1  0  0  0
  1  2  1  0  0  0
  1  6  2  0  0  0
  2  3  2  0  0  0
  3  4  1  0  0  0
  4  5  2  0  0  0
  5  6  1  0  0  0
  6 21  1  0  0  0
 21 23  1  0  0  0
 24 25  1  0  0  0
 24 29  2  0  0  0
 24 30  1  0  0  0
 25 26  2  0  0  0
 26 27  1  0  0  0
 26 23  1  0  0  0
 27 28  2  0  0  0
 28 29  1  0  0  0
 28 31  1  0  0  0
 13 15  1  0  0  0
 13 16  1  0  0  0
 14 17  1  0  0  0
 14 18  1  0  0  0
 21 22  1  0  0  0
M  END
> <minimizedAffinity>
-8.70852

$$$$
2IKO_7IG_A_601


 31 33  0  0  0  0  0  0  0  0999 V2000
  -13.4582   24.3292  -37.9184 C   0  0  0  0  0  0  0  0  0  0  0  0
  -12.9601   23.6192  -38.9993 C   0  0  0  0  0  0  0  0  0  0  0  0
  -13.4728   22.3789  -39.3568 C   0  0  0  0  0  0  0  0  0  0  0  0
  -14.5123   21.8123  -38.6165 C   0  0  0  0  0  0  0  0  0  0  0  0
  -15.0188   22.5205  -37.5195 C   0  0  0  0  0  0  0  0  0  0  0  0
  -14.4968   23.7815  -37.1702 C   0  0  0  0  0  0  0  0  0  0  0  0
  -11.4438   21.1609  -40.4609 C   0  0  0  0  0  0  0  0  0  0  0  0
  -10.8382   20.7075  -41.5864 N   0  0  0  0  0  0  0  0  0  0  0  0
  -11.4415   20.8346  -42.8002 C   0  0  0  0  0  0  0  0  0  0  0  0
  -12.6606   21.3995  -42.9424 N   0  0  0  0  0  0  0  0  0  0  0  0
  -13.3719   21.9037  -41.9059 C   0  0  0  0  0  0  0  0  0  0  0  0
  -12.7919   21.8014  -40.5532 C   0  0  0  0  0  0  0  0  0  0  0  0
  -10.8225   21.0257  -39.2697 N   0  0  0  0  0  0  0  0  0  0  0  0
  -10.8187   20.3560  -43.9025 N   0  0  0  0  0  0  0  0  0  0  0  0
   -9.9351   20.6022  -39.2226 H   0  0  0  0  0  0  0  0  0  0  0  0
  -11.2570   21.3507  -38.4482 H   0  0  0  0  0  0  0  0  0  0  0  0
   -9.9298   19.9400  -43.8242 H   0  0  0  0  0  0  0  0  0  0  0  0
  -11.2546   20.4238  -44.7827 H   0  0  0  0  0  0  0  0  0  0  0  0
  -14.7145   22.5375  -42.1778 C   0  0  0  0  0  0  0  0  0  0  0  0
  -14.5343   23.9785  -42.5854 C   0  0  0  0  0  0  0  0  0  0  0  0
  -14.9937   24.4683  -36.1062 N   0  0  0  0  0  0  0  0  0  0  0  0
  -15.8649   24.1982  -35.7358 H   0  0  0  0  0  0  0  0  0  0  0  0
  -14.2871   25.5928  -35.4884 C   0  0  0  0  0  0  0  0  0  0  0  0
  -11.7377   23.6708  -33.5042 C   0  0  0  0  0  0  0  0  0  0  0  0
  -12.5738   24.0989  -34.5213 C   0  0  0  0  0  0  0  0  0  0  0  0
  -13.4156   25.1799  -34.3188 C   0  0  0  0  0  0  0  0  0  0  0  0
  -13.4091   25.8479  -33.0774 C   0  0  0  0  0  0  0  0  0  0  0  0
  -12.5568   25.4284  -32.0572 C   0  0  0  0  0  0  0  0  0  0  0  0
  -11.7249   24.3342  -32.2755 C   0  0  0  0  0  0  0  0  0  0  0  0
  -10.9302   22.6140  -33.7214 F   0  0  0  0  0  0  0  0  0  0  0  0
  -12.5494   26.0650  -30.8600 F   0  0  0  0  0  0  0  0  0  0  0  0
  7  8  2  0  0  0
  7 12  1  0  0  0
  7 13  1  0  0  0
  8  9  1  0  0  0
  9 10  2  0  0  0
  9 14  1  0  0  0
 10 11  1  0  0  0
 11 12  2  0  0  0
 11 19  1  0  0  0
 12  3  1  0  0  0
 19 20  1  0  0  0
  1  2  1  0  0  0
  1  6  2  0  0  0
  2  3  2  0  0  0
  3  4  1  0  0  0
  4  5  2  0  0  0
  5  6  1  0  0  0
  6 21  1  0  0  0
 21 23  1  0  0  0
 24 25  1  0  0  0
 24 29  2  0  0  0
 24 30  1  0  0  0
 25 26  2  0  0  0
 26 27  1  0  0  0
 26 23  1  0  0  0
 27 28  2  0  0  0
 28 29  1  0  0  0
 28 31  1  0  0  0
 13 15  1  0  0  0
 13 16  1  0  0  0
 14 17  1  0  0  0
 14 18  1  0  0  0
 21 22  1  0  0  0
M  END
> <minimizedAffinity>
-8.64794

$$$$
2IKO_7IG_A_601


 31 33  0  0  0  0  0  0  0  0999 V2000
  -11.2553   24.9288  -37.8023 C   0  0  0  0  0  0  0  0  0  0  0  0
  -11.3438   24.4861  -39.1125 C   0  0  0  0  0  0  0  0  0  0  0  0
  -10.2859   24.6218  -40.0020 C   0  0  0  0  0  0  0  0  0  0  0  0
   -9.0962   25.2235  -39.5868 C   0  0  0  0  0  0  0  0  0  0  0  0
   -8.9993   25.6783  -38.2657 C   0  0  0  0  0  0  0  0  0  0  0  0
  -10.0758   25.5286  -37.3693 C   0  0  0  0  0  0  0  0  0  0  0  0
  -10.6585   22.5984  -41.6102 C   0  0  0  0  0  0  0  0  0  0  0  0
  -10.8848   22.1458  -42.8684 N   0  0  0  0  0  0  0  0  0  0  0  0
  -11.0531   23.0168  -43.9011 C   0  0  0  0  0  0  0  0  0  0  0  0
  -11.0156   24.3561  -43.7265 N   0  0  0  0  0  0  0  0  0  0  0  0
  -10.7876   24.9435  -42.5276 C   0  0  0  0  0  0  0  0  0  0  0  0
  -10.5998   24.0704  -41.3532 C   0  0  0  0  0  0  0  0  0  0  0  0
  -10.4916   21.7136  -40.6041 N   0  0  0  0  0  0  0  0  0  0  0  0
  -11.2950   22.5336  -45.1421 N   0  0  0  0  0  0  0  0  0  0  0  0
  -10.5325   20.7471  -40.7867 H   0  0  0  0  0  0  0  0  0  0  0  0
  -10.3289   22.0350  -39.6878 H   0  0  0  0  0  0  0  0  0  0  0  0
  -11.3271   21.5614  -45.2942 H   0  0  0  0  0  0  0  0  0  0  0  0
  -11.4388   23.1543  -45.8927 H   0  0  0  0  0  0  0  0  0  0  0  0
  -10.7402   26.4499  -42.4467 C   0  0  0  0  0  0  0  0  0  0  0  0
   -9.4261   26.9569  -42.9863 C   0  0  0  0  0  0  0  0  0  0  0  0
   -9.9770   25.9681  -36.0857 N   0  0  0  0  0  0  0  0  0  0  0  0
   -9.3136   25.5467  -35.4928 H   0  0  0  0  0  0  0  0  0  0  0  0
  -10.8158   27.0419  -35.5486 C   0  0  0  0  0  0  0  0  0  0  0  0
  -12.1942   25.5447  -32.3881 C   0  0  0  0  0  0  0  0  0  0  0  0
  -11.3290   25.9997  -33.3684 C   0  0  0  0  0  0  0  0  0  0  0  0
  -11.8312   26.5550  -34.5336 C   0  0  0  0  0  0  0  0  0  0  0  0
  -13.2254   26.6643  -34.7115 C   0  0  0  0  0  0  0  0  0  0  0  0
  -14.0981   26.2211  -33.7189 C   0  0  0  0  0  0  0  0  0  0  0  0
  -13.5755   25.6569  -32.5590 C   0  0  0  0  0  0  0  0  0  0  0  0
  -11.6839   25.0037  -31.2642 F   0  0  0  0  0  0  0  0  0  0  0  0
  -15.4400   26.3203  -33.8867 F   0  0  0  0  0  0  0  0  0  0  0  0
  7  8  2  0  0  0
  7 12  1  0  0  0
  7 13  1  0  0  0
  8  9  1  0  0  0
  9 10  2  0  0  0
  9 14  1  0  0  0
 10 11  1  0  0  0
 11 12  2  0  0  0
 11 19  1  0  0  0
 12  3  1  0  0  0
 19 20  1  0  0  0
  1  2  1  0  0  0
  1  6  2  0  0  0
  2  3  2  0  0  0
  3  4  1  0  0  0
  4  5  2  0  0  0
  5  6  1  0  0  0
  6 21  1  0  0  0
 21 23  1  0  0  0
 24 25  1  0  0  0
 24 29  2  0  0  0
 24 30  1  0  0  0
 25 26  2  0  0  0
 26 27  1  0  0  0
 26 23  1  0  0  0
 27 28  2  0  0  0
 28 29  1  0  0  0
 28 31  1  0  0  0
 13 15  1  0  0  0
 13 16  1  0  0  0
 14 17  1  0  0  0
 14 18  1  0  0  0
 21 22  1  0  0  0
M  END
> <minimizedAffinity>
-8.57301

$$$$
2IKO_7IG_A_601


 31 33  0  0  0  0  0  0  0  0999 V2000
  -10.6252   24.8824  -38.8401 C   0  0  0  0  0  0  0  0  0  0  0  0
  -10.7560   24.8083  -37.4625 C   0  0  0  0  0  0  0  0  0  0  0  0
  -11.9608   24.4687  -36.8608 C   0  0  0  0  0  0  0  0  0  0  0  0
  -13.0830   24.1982  -37.6466 C   0  0  0  0  0  0  0  0  0  0  0  0
  -12.9614   24.2754  -39.0397 C   0  0  0  0  0  0  0  0  0  0  0  0
  -11.7325   24.6131  -39.6401 C   0  0  0  0  0  0  0  0  0  0  0  0
  -12.1192   25.6645  -34.5447 C   0  0  0  0  0  0  0  0  0  0  0  0
  -11.9621   25.6073  -33.1990 N   0  0  0  0  0  0  0  0  0  0  0  0
  -11.5736   24.4520  -32.5927 C   0  0  0  0  0  0  0  0  0  0  0  0
  -11.3396   23.3175  -33.2882 N   0  0  0  0  0  0  0  0  0  0  0  0
  -11.4474   23.2359  -34.6358 C   0  0  0  0  0  0  0  0  0  0  0  0
  -11.8695   24.4434  -35.3710 C   0  0  0  0  0  0  0  0  0  0  0  0
  -12.5021   26.8236  -35.1219 N   0  0  0  0  0  0  0  0  0  0  0  0
  -11.4428   24.4226  -31.2457 N   0  0  0  0  0  0  0  0  0  0  0  0
  -12.6633   27.6203  -34.5665 H   0  0  0  0  0  0  0  0  0  0  0  0
  -12.6201   26.8720  -36.0981 H   0  0  0  0  0  0  0  0  0  0  0  0
  -11.6080   25.2366  -30.7172 H   0  0  0  0  0  0  0  0  0  0  0  0
  -11.1825   23.5871  -30.7945 H   0  0  0  0  0  0  0  0  0  0  0  0
  -11.1380   21.9256  -35.3180 C   0  0  0  0  0  0  0  0  0  0  0  0
   -9.8481   21.3549  -34.7835 C   0  0  0  0  0  0  0  0  0  0  0  0
  -11.6170   24.6835  -40.9937 N   0  0  0  0  0  0  0  0  0  0  0  0
  -12.3974   24.4495  -41.5463 H   0  0  0  0  0  0  0  0  0  0  0  0
  -10.3805   25.0928  -41.6637 C   0  0  0  0  0  0  0  0  0  0  0  0
  -12.1463   26.9274  -44.4289 C   0  0  0  0  0  0  0  0  0  0  0  0
  -11.8557   26.0486  -43.3994 C   0  0  0  0  0  0  0  0  0  0  0  0
  -10.6113   26.0782  -42.7923 C   0  0  0  0  0  0  0  0  0  0  0  0
   -9.6471   27.0135  -43.2199 C   0  0  0  0  0  0  0  0  0  0  0  0
   -9.9429   27.9098  -44.2458 C   0  0  0  0  0  0  0  0  0  0  0  0
  -11.1953   27.8589  -44.8507 C   0  0  0  0  0  0  0  0  0  0  0  0
  -13.3620   26.8781  -45.0085 F   0  0  0  0  0  0  0  0  0  0  0  0
   -9.0178   28.8089  -44.6635 F   0  0  0  0  0  0  0  0  0  0  0  0
  7  8  2  0  0  0
  7 12  1  0  0  0
  7 13  1  0  0  0
  8  9  1  0  0  0
  9 10  2  0  0  0
  9 14  1  0  0  0
 10 11  1  0  0  0
 11 12  2  0  0  0
 11 19  1  0  0  0
 12  3  1  0  0  0
 19 20  1  0  0  0
  1  2  1  0  0  0
  1  6  2  0  0  0
  2  3  2  0  0  0
  3  4  1  0  0  0
  4  5  2  0  0  0
  5  6  1  0  0  0
  6 21  1  0  0  0
 21 23  1  0  0  0
 24 25  1  0  0  0
 24 29  2  0  0  0
 24 30  1  0  0  0
 25 26  2  0  0  0
 26 27  1  0  0  0
 26 23  1  0  0  0
 27 28  2  0  0  0
 28 29  1  0  0  0
 28 31  1  0  0  0
 13 15  1  0  0  0
 13 16  1  0  0  0
 14 17  1  0  0  0
 14 18  1  0  0  0
 21 22  1  0  0  0
M  END
> <minimizedAffinity>
-8.55300

$$$$
2IKO_7IG_A_601


 31 33  0  0  0  0  0  0  0  0999 V2000
  -14.5627   24.5387  -40.8200 C   0  0  0  0  0  0  0  0  0  0  0  0
  -13.6119   25.2403  -41.5440 C   0  0  0  0  0  0  0  0  0  0  0  0
  -12.6420   24.5911  -42.2969 C   0  0  0  0  0  0  0  0  0  0  0  0
  -12.6027   23.1957  -42.3327 C   0  0  0  0  0  0  0  0  0  0  0  0
  -13.5567   22.4782  -41.6001 C   0  0  0  0  0  0  0  0  0  0  0  0
  -14.5411   23.1468  -40.8460 C   0  0  0  0  0  0  0  0  0  0  0  0
  -10.4824   26.0581  -42.3540 C   0  0  0  0  0  0  0  0  0  0  0  0
   -9.7187   26.9696  -43.0059 N   0  0  0  0  0  0  0  0  0  0  0  0
  -10.0785   27.4248  -44.2375 C   0  0  0  0  0  0  0  0  0  0  0  0
  -11.1911   26.9899  -44.8689 N   0  0  0  0  0  0  0  0  0  0  0  0
  -12.0486   26.0908  -44.3298 C   0  0  0  0  0  0  0  0  0  0  0  0
  -11.7297   25.5422  -42.9978 C   0  0  0  0  0  0  0  0  0  0  0  0
  -10.1052   25.6253  -41.1319 N   0  0  0  0  0  0  0  0  0  0  0  0
   -9.2856   28.3214  -44.8696 N   0  0  0  0  0  0  0  0  0  0  0  0
   -9.2818   25.9728  -40.7191 H   0  0  0  0  0  0  0  0  0  0  0  0
  -10.6536   24.9622  -40.6536 H   0  0  0  0  0  0  0  0  0  0  0  0
   -8.4696   28.6530  -44.4298 H   0  0  0  0  0  0  0  0  0  0  0  0
   -9.5249   28.6419  -45.7692 H   0  0  0  0  0  0  0  0  0  0  0  0
  -13.2776   25.6912  -45.1095 C   0  0  0  0  0  0  0  0  0  0  0  0
  -14.3951   26.6714  -44.8536 C   0  0  0  0  0  0  0  0  0  0  0  0
  -15.4685   22.4468  -40.1386 N   0  0  0  0  0  0  0  0  0  0  0  0
  -16.3767   22.3597  -40.5087 H   0  0  0  0  0  0  0  0  0  0  0  0
  -15.1731   21.8172  -38.8496 C   0  0  0  0  0  0  0  0  0  0  0  0
  -12.6943   23.4698  -36.5571 C   0  0  0  0  0  0  0  0  0  0  0  0
  -13.2826   22.6161  -37.4747 C   0  0  0  0  0  0  0  0  0  0  0  0
  -14.6111   22.7854  -37.8274 C   0  0  0  0  0  0  0  0  0  0  0  0
  -15.3574   23.8364  -37.2565 C   0  0  0  0  0  0  0  0  0  0  0  0
  -14.7627   24.7068  -36.3443 C   0  0  0  0  0  0  0  0  0  0  0  0
  -13.4294   24.5152  -35.9944 C   0  0  0  0  0  0  0  0  0  0  0  0
  -11.4016   23.2839  -36.2250 F   0  0  0  0  0  0  0  0  0  0  0  0
  -15.4771   25.7169  -35.7893 F   0  0  0  0  0  0  0  0  0  0  0  0
  7  8  2  0  0  0
  7 12  1  0  0  0
  7 13  1  0  0  0
  8  9  1  0  0  0
  9 10  2  0  0  0
  9 14  1  0  0  0
 10 11  1  0  0  0
 11 12  2  0  0  0
 11 19  1  0  0  0
 12  3  1  0  0  0
 19 20  1  0  0  0
  1  2  1  0  0  0
  1  6  2  0  0  0
  2  3  2  0  0  0
  3  4  1  0  0  0
  4  5  2  0  0  0
  5  6  1  0  0  0
  6 21  1  0  0  0
 21 23  1  0  0  0
 24 25  1  0  0  0
 24 29  2  0  0  0
 24 30  1  0  0  0
 25 26  2  0  0  0
 26 27  1  0  0  0
 26 23  1  0  0  0
 27 28  2  0  0  0
 28 29  1  0  0  0
 28 31  1  0  0  0
 13 15  1  0  0  0
 13 16  1  0  0  0
 14 17  1  0  0  0
 14 18  1  0  0  0
 21 22  1  0  0  0
M  END
> <minimizedAffinity>
-8.50332

$$$$
2IKO_7IG_A_601


 31 33  0  0  0  0  0  0  0  0999 V2000
  -13.9436   23.9174  -40.0001 C   0  0  0  0  0  0  0  0  0  0  0  0
  -13.5066   24.2319  -38.7232 C   0  0  0  0  0  0  0  0  0  0  0  0
  -13.9496   23.5338  -37.6073 C   0  0  0  0  0  0  0  0  0  0  0  0
  -14.8646   22.4892  -37.7539 C   0  0  0  0  0  0  0  0  0  0  0  0
  -15.3156   22.1674  -39.0402 C   0  0  0  0  0  0  0  0  0  0  0  0
  -14.8537   22.8768  -40.1663 C   0  0  0  0  0  0  0  0  0  0  0  0
  -13.9141   25.2076  -35.6032 C   0  0  0  0  0  0  0  0  0  0  0  0
  -13.2915   25.6677  -34.4898 N   0  0  0  0  0  0  0  0  0  0  0  0
  -12.1495   25.0798  -34.0384 C   0  0  0  0  0  0  0  0  0  0  0  0
  -11.5929   24.0169  -34.6599 N   0  0  0  0  0  0  0  0  0  0  0  0
  -12.1026   23.4632  -35.7859 C   0  0  0  0  0  0  0  0  0  0  0  0
  -13.3439   24.0374  -36.3393 C   0  0  0  0  0  0  0  0  0  0  0  0
  -15.0436   25.8106  -36.0319 N   0  0  0  0  0  0  0  0  0  0  0  0
  -11.5617   25.5515  -32.9140 N   0  0  0  0  0  0  0  0  0  0  0  0
  -15.4086   26.5801  -35.5381 H   0  0  0  0  0  0  0  0  0  0  0  0
  -15.5021   25.4807  -36.8382 H   0  0  0  0  0  0  0  0  0  0  0  0
  -11.9487   26.3248  -32.4436 H   0  0  0  0  0  0  0  0  0  0  0  0
  -10.7471   25.1212  -32.5668 H   0  0  0  0  0  0  0  0  0  0  0  0
  -11.3876   22.2926  -36.4156 C   0  0  0  0  0  0  0  0  0  0  0  0
  -10.6391   21.5148  -35.3620 C   0  0  0  0  0  0  0  0  0  0  0  0
  -15.2910   22.5592  -41.4147 N   0  0  0  0  0  0  0  0  0  0  0  0
  -16.1438   22.0759  -41.5068 H   0  0  0  0  0  0  0  0  0  0  0  0
  -14.5467   22.9059  -42.6276 C   0  0  0  0  0  0  0  0  0  0  0  0
  -14.3087   26.1986  -44.4253 C   0  0  0  0  0  0  0  0  0  0  0  0
  -13.9894   24.9873  -43.8357 C   0  0  0  0  0  0  0  0  0  0  0  0
  -14.9785   24.2255  -43.2361 C   0  0  0  0  0  0  0  0  0  0  0  0
  -16.3116   24.6837  -43.2384 C   0  0  0  0  0  0  0  0  0  0  0  0
  -16.6379   25.8956  -43.8451 C   0  0  0  0  0  0  0  0  0  0  0  0
  -15.6293   26.6523  -44.4342 C   0  0  0  0  0  0  0  0  0  0  0  0
  -13.3299   26.9258  -44.9990 F   0  0  0  0  0  0  0  0  0  0  0  0
  -17.9180   26.3428  -43.8468 F   0  0  0  0  0  0  0  0  0  0  0  0
  7  8  2  0  0  0
  7 12  1  0  0  0
  7 13  1  0  0  0
  8  9  1  0  0  0
  9 10  2  0  0  0
  9 14  1  0  0  0
 10 11  1  0  0  0
 11 12  2  0  0  0
 11 19  1  0  0  0
 12  3  1  0  0  0
 19 20  1  0  0  0
  1  2  1  0  0  0
  1  6  2  0  0  0
  2  3  2  0  0  0
  3  4  1  0  0  0
  4  5  2  0  0  0
  5  6  1  0  0  0
  6 21  1  0  0  0
 21 23  1  0  0  0
 24 25  1  0  0  0
 24 29  2  0  0  0
 24 30  1  0  0  0
 25 26  2  0  0  0
 26 27  1  0  0  0
 26 23  1  0  0  0
 27 28  2  0  0  0
 28 29  1  0  0  0
 28 31  1  0  0  0
 13 15  1  0  0  0
 13 16  1  0  0  0
 14 17  1  0  0  0
 14 18  1  0  0  0
 21 22  1  0  0  0
M  END
> <minimizedAffinity>
-8.40863

$$$$
2IKO_7IG_A_601


 31 33  0  0  0  0  0  0  0  0999 V2000
  -10.6750   24.4216  -39.0551 C   0  0  0  0  0  0  0  0  0  0  0  0
  -10.5003   24.2912  -40.4236 C   0  0  0  0  0  0  0  0  0  0  0  0
  -11.5741   24.3292  -41.3035 C   0  0  0  0  0  0  0  0  0  0  0  0
  -12.8720   24.4950  -40.8160 C   0  0  0  0  0  0  0  0  0  0  0  0
  -13.0587   24.6228  -39.4338 C   0  0  0  0  0  0  0  0  0  0  0  0
  -11.9616   24.5908  -38.5506 C   0  0  0  0  0  0  0  0  0  0  0  0
  -11.1321   22.8432  -43.4050 C   0  0  0  0  0  0  0  0  0  0  0  0
  -10.6814   22.7460  -44.6803 N   0  0  0  0  0  0  0  0  0  0  0  0
  -10.2418   23.8478  -45.3484 C   0  0  0  0  0  0  0  0  0  0  0  0
  -10.2431   25.0774  -44.7883 N   0  0  0  0  0  0  0  0  0  0  0  0
  -10.6553   25.3165  -43.5205 C   0  0  0  0  0  0  0  0  0  0  0  0
  -11.1530   24.1762  -42.7275 C   0  0  0  0  0  0  0  0  0  0  0  0
  -11.5594   21.7347  -42.7634 N   0  0  0  0  0  0  0  0  0  0  0  0
   -9.8146   23.7205  -46.6265 N   0  0  0  0  0  0  0  0  0  0  0  0
  -11.5404   20.8631  -43.2207 H   0  0  0  0  0  0  0  0  0  0  0  0
  -11.8898   21.7980  -41.8381 H   0  0  0  0  0  0  0  0  0  0  0  0
   -9.8045   22.8348  -47.0563 H   0  0  0  0  0  0  0  0  0  0  0  0
   -9.5140   24.5137  -47.1263 H   0  0  0  0  0  0  0  0  0  0  0  0
  -10.5915   26.7252  -42.9824 C   0  0  0  0  0  0  0  0  0  0  0  0
   -9.1577   27.1185  -42.7284 C   0  0  0  0  0  0  0  0  0  0  0  0
  -12.1462   24.7189  -37.2089 N   0  0  0  0  0  0  0  0  0  0  0  0
  -11.3630   24.9000  -36.6404 H   0  0  0  0  0  0  0  0  0  0  0  0
  -13.4608   24.5987  -36.5744 C   0  0  0  0  0  0  0  0  0  0  0  0
  -12.1417   25.5853  -33.1955 C   0  0  0  0  0  0  0  0  0  0  0  0
  -12.2232   25.1908  -34.5200 C   0  0  0  0  0  0  0  0  0  0  0  0
  -13.4606   25.0170  -35.1173 C   0  0  0  0  0  0  0  0  0  0  0  0
  -14.6349   25.2538  -34.3741 C   0  0  0  0  0  0  0  0  0  0  0  0
  -14.5550   25.6662  -33.0449 C   0  0  0  0  0  0  0  0  0  0  0  0
  -13.3031   25.8262  -32.4585 C   0  0  0  0  0  0  0  0  0  0  0  0
  -10.9273   25.7440  -32.6330 F   0  0  0  0  0  0  0  0  0  0  0  0
  -15.6815   25.8915  -32.3244 F   0  0  0  0  0  0  0  0  0  0  0  0
  7  8  2  0  0  0
  7 12  1  0  0  0
  7 13  1  0  0  0
  8  9  1  0  0  0
  9 10  2  0  0  0
  9 14  1  0  0  0
 10 11  1  0  0  0
 11 12  2  0  0  0
 11 19  1  0  0  0
 12  3  1  0  0  0
 19 20  1  0  0  0
  1  2  1  0  0  0
  1  6  2  0  0  0
  2  3  2  0  0  0
  3  4  1  0  0  0
  4  5  2  0  0  0
  5  6  1  0  0  0
  6 21  1  0  0  0
 21 23  1  0  0  0
 24 25  1  0  0  0
 24 29  2  0  0  0
 24 30  1  0  0  0
 25 26  2  0  0  0
 26 27  1  0  0  0
 26 23  1  0  0  0
 27 28  2  0  0  0
 28 29  1  0  0  0
 28 31  1  0  0  0
 13 15  1  0  0  0
 13 16  1  0  0  0
 14 17  1  0  0  0
 14 18  1  0  0  0
 21 22  1  0  0  0
M  END
> <minimizedAffinity>
-8.36989

$$$$
