1ZVX_FIN_A_994


 29 30  0  0  0  0  0  0  0  0999 V2000
   -2.2013   23.8372   10.1684 S   0  0  0  0  0  0  0  0  0  0  0  0
   -3.4659   23.2211   10.5046 O   0  0  0  0  0  0  0  0  0  0  0  0
   -1.1023   23.4954   11.0224 O   0  0  0  0  0  0  0  0  0  0  0  0
   -1.0612   22.0967    5.9704 C   0  0  0  0  0  0  0  0  0  0  0  0
   -0.4008   21.5777    7.1778 C   0  0  0  0  0  0  0  0  0  0  0  0
   -0.7467   22.1200    8.4798 C   0  0  0  0  0  0  0  0  0  0  0  0
   -1.7657   23.1986    8.5892 C   0  0  0  0  0  0  0  0  0  0  0  0
   -2.4012   23.7216    7.4004 C   0  0  0  0  0  0  0  0  0  0  0  0
   -2.0672   23.1849    6.1022 C   0  0  0  0  0  0  0  0  0  0  0  0
   -0.7457   21.5278    4.6175 C   0  0  0  0  0  0  0  0  0  0  0  0
    0.1680   20.3941    4.4951 C   0  0  0  0  0  0  0  0  0  0  0  0
    0.4614   19.8131    3.1618 C   0  0  0  0  0  0  0  0  0  0  0  0
   -0.1727   20.3762    1.9611 C   0  0  0  0  0  0  0  0  0  0  0  0
   -1.0775   21.5015    2.0867 C   0  0  0  0  0  0  0  0  0  0  0  0
   -1.3704   22.0826    3.4129 C   0  0  0  0  0  0  0  0  0  0  0  0
    0.0894   19.8246    0.6345 O   0  0  0  0  0  0  0  0  0  0  0  0
   -0.3463   20.4867   -0.5622 C   0  0  0  0  0  0  0  0  0  0  0  0
   -2.4213   25.4681   10.2298 N   0  0  0  0  0  0  0  0  0  0  0  0
   -2.3909   25.7900    9.2624 H   0  0  0  0  0  0  0  0  0  0  0  0
   -3.5139   26.0580   10.7832 C   0  0  0  0  0  0  0  0  0  0  0  0
   -4.6676   26.2700    9.4949 P   0  0  0  0  0  0  0  0  0  0  0  0
   -5.3558   24.9646    9.1593 O   0  0  0  0  0  0  0  0  0  0  0  0
   -5.6992   27.2753    9.8806 O   0  0  0  0  0  0  0  0  0  0  0  0
   -3.9400   26.7533    8.3793 O   0  0  0  0  0  0  0  0  0  0  0  0
   -5.8478   24.6500    9.9338 H   0  0  0  0  0  0  0  0  0  0  0  0
   -3.2676   26.1020    8.1251 H   0  0  0  0  0  0  0  0  0  0  0  0
   -3.0787   27.4374   11.3904 C   0  0  0  0  0  0  0  0  0  0  0  0
   -3.3550   27.5625   12.8521 C   0  0  0  0  0  0  0  0  0  0  0  0
   -1.5981   27.8328   11.1972 C   0  0  0  0  0  0  0  0  0  0  0  0
 10 11  1  0  0  0
 10 15  2  0  0  0
 10  4  1  0  0  0
 11 12  2  0  0  0
 12 13  1  0  0  0
 13 14  2  0  0  0
 13 16  1  0  0  0
 14 15  1  0  0  0
 16 17  1  0  0  0
  4  5  1  0  0  0
  4  9  2  0  0  0
  5  6  2  0  0  0
  6  7  1  0  0  0
  7  8  2  0  0  0
  7  1  1  0  0  0
  8  9  1  0  0  0
  1  2  2  0  0  0
  1  3  2  0  0  0
  1 18  1  0  0  0
 18 20  1  0  0  0
 20 27  1  0  0  0
 20 21  1  0  0  0
 27 28  1  0  0  0
 27 29  1  0  0  0
 21 22  1  0  0  0
 21 23  2  0  0  0
 21 24  1  0  0  0
 18 19  1  0  0  0
 22 25  1  0  0  0
 24 26  1  0  0  0
M  END
> <minimizedAffinity>
-9.90560

$$$$
1ZVX_FIN_A_994


 29 30  0  0  0  0  0  0  0  0999 V2000
   -2.4637   24.1095   10.2380 S   0  0  0  0  0  0  0  0  0  0  0  0
   -1.7026   23.4033   11.2449 O   0  0  0  0  0  0  0  0  0  0  0  0
   -2.1893   25.5118   10.1281 O   0  0  0  0  0  0  0  0  0  0  0  0
   -1.1518   22.2506    6.1421 C   0  0  0  0  0  0  0  0  0  0  0  0
   -0.5520   21.7574    7.3912 C   0  0  0  0  0  0  0  0  0  0  0  0
   -0.9511   22.3363    8.6619 C   0  0  0  0  0  0  0  0  0  0  0  0
   -1.9633   23.4263    8.6972 C   0  0  0  0  0  0  0  0  0  0  0  0
   -2.5391   23.9237    7.4677 C   0  0  0  0  0  0  0  0  0  0  0  0
   -2.1520   23.3506    6.2002 C   0  0  0  0  0  0  0  0  0  0  0  0
   -0.7809   21.6440    4.8200 C   0  0  0  0  0  0  0  0  0  0  0  0
    0.1031   20.4817    4.7702 C   0  0  0  0  0  0  0  0  0  0  0  0
    0.4504   19.8640    3.4666 C   0  0  0  0  0  0  0  0  0  0  0  0
   -0.1003   20.4198    2.2221 C   0  0  0  0  0  0  0  0  0  0  0  0
   -0.9758   21.5736    2.2758 C   0  0  0  0  0  0  0  0  0  0  0  0
   -1.3223   22.1911    3.5724 C   0  0  0  0  0  0  0  0  0  0  0  0
    0.2163   19.8326    0.9229 O   0  0  0  0  0  0  0  0  0  0  0  0
   -0.3173   20.3626   -0.2995 C   0  0  0  0  0  0  0  0  0  0  0  0
   -4.0572   23.9175   10.6067 N   0  0  0  0  0  0  0  0  0  0  0  0
   -4.2897   24.6800   11.2430 H   0  0  0  0  0  0  0  0  0  0  0  0
   -5.0464   23.8971    9.6744 C   0  0  0  0  0  0  0  0  0  0  0  0
   -6.0758   25.2608   10.0154 P   0  0  0  0  0  0  0  0  0  0  0  0
   -6.7929   25.7279    8.7672 O   0  0  0  0  0  0  0  0  0  0  0  0
   -7.0886   24.9023   11.0494 O   0  0  0  0  0  0  0  0  0  0  0  0
   -5.2347   26.2827   10.5213 O   0  0  0  0  0  0  0  0  0  0  0  0
   -7.3628   25.0162    8.4362 H   0  0  0  0  0  0  0  0  0  0  0  0
   -4.5742   26.5190    9.8514 H   0  0  0  0  0  0  0  0  0  0  0  0
   -5.8290   22.5446    9.8112 C   0  0  0  0  0  0  0  0  0  0  0  0
   -7.0766   22.4888    8.9934 C   0  0  0  0  0  0  0  0  0  0  0  0
   -5.0383   21.2604    9.4776 C   0  0  0  0  0  0  0  0  0  0  0  0
 10 11  1  0  0  0
 10 15  2  0  0  0
 10  4  1  0  0  0
 11 12  2  0  0  0
 12 13  1  0  0  0
 13 14  2  0  0  0
 13 16  1  0  0  0
 14 15  1  0  0  0
 16 17  1  0  0  0
  4  5  1  0  0  0
  4  9  2  0  0  0
  5  6  2  0  0  0
  6  7  1  0  0  0
  7  8  2  0  0  0
  7  1  1  0  0  0
  8  9  1  0  0  0
  1  2  2  0  0  0
  1  3  2  0  0  0
  1 18  1  0  0  0
 18 20  1  0  0  0
 20 27  1  0  0  0
 20 21  1  0  0  0
 27 28  1  0  0  0
 27 29  1  0  0  0
 21 22  1  0  0  0
 21 23  2  0  0  0
 21 24  1  0  0  0
 18 19  1  0  0  0
 22 25  1  0  0  0
 24 26  1  0  0  0
M  END
> <minimizedAffinity>
-9.36012

$$$$
1ZVX_FIN_A_994


 29 30  0  0  0  0  0  0  0  0999 V2000
   -2.1260   23.8727    9.8696 S   0  0  0  0  0  0  0  0  0  0  0  0
   -1.1260   23.3436   10.7707 O   0  0  0  0  0  0  0  0  0  0  0  0
   -2.0855   25.2910    9.6675 O   0  0  0  0  0  0  0  0  0  0  0  0
   -1.1378   22.0612    5.6632 C   0  0  0  0  0  0  0  0  0  0  0  0
   -2.1354   23.1360    5.7772 C   0  0  0  0  0  0  0  0  0  0  0  0
   -2.4492   23.6948    7.0804 C   0  0  0  0  0  0  0  0  0  0  0  0
   -1.7631   23.1786    8.2955 C   0  0  0  0  0  0  0  0  0  0  0  0
   -0.7962   22.1093    8.1854 C   0  0  0  0  0  0  0  0  0  0  0  0
   -0.4741   21.5512    6.8932 C   0  0  0  0  0  0  0  0  0  0  0  0
   -0.7714   21.4922    4.3232 C   0  0  0  0  0  0  0  0  0  0  0  0
   -1.3816   22.0284    3.1086 C   0  0  0  0  0  0  0  0  0  0  0  0
   -1.0020   21.4857    1.7809 C   0  0  0  0  0  0  0  0  0  0  0  0
   -0.0055   20.4090    1.6867 C   0  0  0  0  0  0  0  0  0  0  0  0
    0.5965   19.8792    2.8939 C   0  0  0  0  0  0  0  0  0  0  0  0
    0.2194   20.4170    4.2172 C   0  0  0  0  0  0  0  0  0  0  0  0
    0.3953   19.8564    0.3956 O   0  0  0  0  0  0  0  0  0  0  0  0
    0.0034   20.4640   -0.8443 C   0  0  0  0  0  0  0  0  0  0  0  0
   -3.5997   23.4764   10.4887 N   0  0  0  0  0  0  0  0  0  0  0  0
   -3.6766   23.9826   11.3709 H   0  0  0  0  0  0  0  0  0  0  0  0
   -4.7715   23.6911    9.8340 C   0  0  0  0  0  0  0  0  0  0  0  0
   -5.6743   24.8294   10.7958 P   0  0  0  0  0  0  0  0  0  0  0  0
   -4.7493   25.7568   11.5537 O   0  0  0  0  0  0  0  0  0  0  0  0
   -6.5732   25.6447    9.9294 O   0  0  0  0  0  0  0  0  0  0  0  0
   -6.4599   24.0636   11.6925 O   0  0  0  0  0  0  0  0  0  0  0  0
   -4.2207   26.2717   10.9241 H   0  0  0  0  0  0  0  0  0  0  0  0
   -5.8787   23.5315   12.2582 H   0  0  0  0  0  0  0  0  0  0  0  0
   -5.5288   22.3229    9.7109 C   0  0  0  0  0  0  0  0  0  0  0  0
   -6.8181   22.4167    8.9645 C   0  0  0  0  0  0  0  0  0  0  0  0
   -4.7416   21.1614    9.0652 C   0  0  0  0  0  0  0  0  0  0  0  0
 10 11  1  0  0  0
 10 15  2  0  0  0
 10  4  1  0  0  0
 11 12  2  0  0  0
 12 13  1  0  0  0
 13 14  2  0  0  0
 13 16  1  0  0  0
 14 15  1  0  0  0
 16 17  1  0  0  0
  4  5  1  0  0  0
  4  9  2  0  0  0
  5  6  2  0  0  0
  6  7  1  0  0  0
  7  8  2  0  0  0
  7  1  1  0  0  0
  8  9  1  0  0  0
  1  2  2  0  0  0
  1  3  2  0  0  0
  1 18  1  0  0  0
 18 20  1  0  0  0
 20 27  1  0  0  0
 20 21  1  0  0  0
 27 28  1  0  0  0
 27 29  1  0  0  0
 21 22  1  0  0  0
 21 23  2  0  0  0
 21 24  1  0  0  0
 18 19  1  0  0  0
 22 25  1  0  0  0
 24 26  1  0  0  0
M  END
> <minimizedAffinity>
-8.93660

$$$$
1ZVX_FIN_A_994


 29 30  0  0  0  0  0  0  0  0999 V2000
   -3.0811   24.3559   11.0210 S   0  0  0  0  0  0  0  0  0  0  0  0
   -4.4801   24.0062   11.1316 O   0  0  0  0  0  0  0  0  0  0  0  0
   -2.2201   23.7743   12.0080 O   0  0  0  0  0  0  0  0  0  0  0  0
   -1.6221   22.5911    6.9332 C   0  0  0  0  0  0  0  0  0  0  0  0
   -2.6901   23.6023    6.9503 C   0  0  0  0  0  0  0  0  0  0  0  0
   -3.1496   24.1461    8.2161 C   0  0  0  0  0  0  0  0  0  0  0  0
   -2.5409   23.6789    9.4909 C   0  0  0  0  0  0  0  0  0  0  0  0
   -1.5042   22.6712    9.4750 C   0  0  0  0  0  0  0  0  0  0  0  0
   -1.0375   22.1287    8.2209 C   0  0  0  0  0  0  0  0  0  0  0  0
   -1.1067   22.0401    5.6355 C   0  0  0  0  0  0  0  0  0  0  0  0
   -0.0956   20.9852    5.6382 C   0  0  0  0  0  0  0  0  0  0  0  0
    0.3967   20.4205    4.3575 C   0  0  0  0  0  0  0  0  0  0  0  0
   -0.1378   20.9200    3.0825 C   0  0  0  0  0  0  0  0  0  0  0  0
   -1.1398   21.9672    3.0841 C   0  0  0  0  0  0  0  0  0  0  0  0
   -1.6308   22.5320    4.3578 C   0  0  0  0  0  0  0  0  0  0  0  0
    0.3203   20.3820    1.8043 O   0  0  0  0  0  0  0  0  0  0  0  0
   -0.2716   20.7786    0.5584 C   0  0  0  0  0  0  0  0  0  0  0  0
   -2.9768   25.9951   11.1391 N   0  0  0  0  0  0  0  0  0  0  0  0
   -2.0532   26.1883   11.5267 H   0  0  0  0  0  0  0  0  0  0  0  0
   -3.1178   26.8348   10.0794 C   0  0  0  0  0  0  0  0  0  0  0  0
   -1.7820   27.9510   10.1512 P   0  0  0  0  0  0  0  0  0  0  0  0
   -2.1906   29.3225    9.6589 O   0  0  0  0  0  0  0  0  0  0  0  0
   -1.2778   28.0695   11.5495 O   0  0  0  0  0  0  0  0  0  0  0  0
   -0.7609   27.4090    9.3319 O   0  0  0  0  0  0  0  0  0  0  0  0
   -2.8891   29.6766   10.2312 H   0  0  0  0  0  0  0  0  0  0  0  0
   -1.0849   27.3302    8.4210 H   0  0  0  0  0  0  0  0  0  0  0  0
   -4.4910   27.5806   10.2169 C   0  0  0  0  0  0  0  0  0  0  0  0
   -5.3347   27.5141    8.9873 C   0  0  0  0  0  0  0  0  0  0  0  0
   -5.3975   27.1341   11.3851 C   0  0  0  0  0  0  0  0  0  0  0  0
 10 11  1  0  0  0
 10 15  2  0  0  0
 10  4  1  0  0  0
 11 12  2  0  0  0
 12 13  1  0  0  0
 13 14  2  0  0  0
 13 16  1  0  0  0
 14 15  1  0  0  0
 16 17  1  0  0  0
  4  5  1  0  0  0
  4  9  2  0  0  0
  5  6  2  0  0  0
  6  7  1  0  0  0
  7  8  2  0  0  0
  7  1  1  0  0  0
  8  9  1  0  0  0
  1  2  2  0  0  0
  1  3  2  0  0  0
  1 18  1  0  0  0
 18 20  1  0  0  0
 20 27  1  0  0  0
 20 21  1  0  0  0
 27 28  1  0  0  0
 27 29  1  0  0  0
 21 22  1  0  0  0
 21 23  2  0  0  0
 21 24  1  0  0  0
 18 19  1  0  0  0
 22 25  1  0  0  0
 24 26  1  0  0  0
M  END
> <minimizedAffinity>
-8.65683

$$$$
1ZVX_FIN_A_994


 29 30  0  0  0  0  0  0  0  0999 V2000
   -2.4377   24.5209   10.3215 S   0  0  0  0  0  0  0  0  0  0  0  0
   -2.0966   23.5863   11.3713 O   0  0  0  0  0  0  0  0  0  0  0  0
   -1.7178   25.7600   10.3409 O   0  0  0  0  0  0  0  0  0  0  0  0
   -1.1882   22.4074    6.3309 C   0  0  0  0  0  0  0  0  0  0  0  0
   -0.4798   22.0847    7.5789 C   0  0  0  0  0  0  0  0  0  0  0  0
   -0.8598   22.7432    8.8162 C   0  0  0  0  0  0  0  0  0  0  0  0
   -1.9623   23.7424    8.8185 C   0  0  0  0  0  0  0  0  0  0  0  0
   -2.6461   24.0732    7.5882 C   0  0  0  0  0  0  0  0  0  0  0  0
   -2.2784   23.4197    6.3543 C   0  0  0  0  0  0  0  0  0  0  0  0
   -0.8366   21.7143    5.0467 C   0  0  0  0  0  0  0  0  0  0  0  0
   -1.4004   22.1841    3.7831 C   0  0  0  0  0  0  0  0  0  0  0  0
   -1.0342   21.5174    2.5092 C   0  0  0  0  0  0  0  0  0  0  0  0
   -0.0977   20.3843    2.5176 C   0  0  0  0  0  0  0  0  0  0  0  0
    0.4584   19.9207    3.7732 C   0  0  0  0  0  0  0  0  0  0  0  0
    0.0945   20.5820    5.0431 C   0  0  0  0  0  0  0  0  0  0  0  0
    0.2887   19.7095    1.2813 O   0  0  0  0  0  0  0  0  0  0  0  0
   -0.1872   20.1445   -0.0010 C   0  0  0  0  0  0  0  0  0  0  0  0
   -4.0451   24.8497   10.4640 N   0  0  0  0  0  0  0  0  0  0  0  0
   -4.2719   24.7098   11.4486 H   0  0  0  0  0  0  0  0  0  0  0  0
   -4.6009   26.0419   10.1206 C   0  0  0  0  0  0  0  0  0  0  0  0
   -4.2937   27.1309   11.4454 P   0  0  0  0  0  0  0  0  0  0  0  0
   -3.3583   26.5068   12.4582 O   0  0  0  0  0  0  0  0  0  0  0  0
   -3.6896   28.3996   10.9465 O   0  0  0  0  0  0  0  0  0  0  0  0
   -5.5515   27.4132   12.0335 O   0  0  0  0  0  0  0  0  0  0  0  0
   -2.5040   26.3211   12.0379 H   0  0  0  0  0  0  0  0  0  0  0  0
   -5.9481   26.5902   12.3594 H   0  0  0  0  0  0  0  0  0  0  0  0
   -6.1398   25.8277    9.9046 C   0  0  0  0  0  0  0  0  0  0  0  0
   -6.7150   26.6709    8.8153 C   0  0  0  0  0  0  0  0  0  0  0  0
   -6.5945   24.3805    9.6139 C   0  0  0  0  0  0  0  0  0  0  0  0
 10 11  1  0  0  0
 10 15  2  0  0  0
 10  4  1  0  0  0
 11 12  2  0  0  0
 12 13  1  0  0  0
 13 14  2  0  0  0
 13 16  1  0  0  0
 14 15  1  0  0  0
 16 17  1  0  0  0
  4  5  1  0  0  0
  4  9  2  0  0  0
  5  6  2  0  0  0
  6  7  1  0  0  0
  7  8  2  0  0  0
  7  1  1  0  0  0
  8  9  1  0  0  0
  1  2  2  0  0  0
  1  3  2  0  0  0
  1 18  1  0  0  0
 18 20  1  0  0  0
 20 27  1  0  0  0
 20 21  1  0  0  0
 27 28  1  0  0  0
 27 29  1  0  0  0
 21 22  1  0  0  0
 21 23  2  0  0  0
 21 24  1  0  0  0
 18 19  1  0  0  0
 22 25  1  0  0  0
 24 26  1  0  0  0
M  END
> <minimizedAffinity>
-8.50523

$$$$
1ZVX_FIN_A_994


 29 30  0  0  0  0  0  0  0  0999 V2000
    0.0630   20.8009    4.0832 S   0  0  0  0  0  0  0  0  0  0  0  0
    1.1258   21.6544    3.5998 O   0  0  0  0  0  0  0  0  0  0  0  0
    0.4827   19.5506    4.6441 O   0  0  0  0  0  0  0  0  0  0  0  0
   -1.8704   23.1452    7.6495 C   0  0  0  0  0  0  0  0  0  0  0  0
   -0.8726   22.0993    7.9211 C   0  0  0  0  0  0  0  0  0  0  0  0
   -0.2766   21.3659    6.8184 C   0  0  0  0  0  0  0  0  0  0  0  0
   -0.6772   21.6726    5.4187 C   0  0  0  0  0  0  0  0  0  0  0  0
   -1.6718   22.6879    5.1531 C   0  0  0  0  0  0  0  0  0  0  0  0
   -2.2658   23.4257    6.2429 C   0  0  0  0  0  0  0  0  0  0  0  0
   -2.4743   23.9404    8.7704 C   0  0  0  0  0  0  0  0  0  0  0  0
   -2.8610   23.2766   10.0133 C   0  0  0  0  0  0  0  0  0  0  0  0
   -3.4338   24.0642   11.1327 C   0  0  0  0  0  0  0  0  0  0  0  0
   -3.6082   25.5171   10.9928 C   0  0  0  0  0  0  0  0  0  0  0  0
   -3.2245   26.1715    9.7579 C   0  0  0  0  0  0  0  0  0  0  0  0
   -2.6549   25.3895    8.6415 C   0  0  0  0  0  0  0  0  0  0  0  0
   -4.1633   26.3230   12.0770 O   0  0  0  0  0  0  0  0  0  0  0  0
   -3.4999   27.4987   12.5647 C   0  0  0  0  0  0  0  0  0  0  0  0
   -0.9330   20.4921    2.8086 N   0  0  0  0  0  0  0  0  0  0  0  0
   -1.8590   20.8094    3.0953 H   0  0  0  0  0  0  0  0  0  0  0  0
   -0.7364   20.9981    1.5622 C   0  0  0  0  0  0  0  0  0  0  0  0
   -2.2977   21.5127    0.9852 P   0  0  0  0  0  0  0  0  0  0  0  0
   -2.3339   21.5520   -0.5273 O   0  0  0  0  0  0  0  0  0  0  0  0
   -3.3623   20.5882    1.4705 O   0  0  0  0  0  0  0  0  0  0  0  0
   -2.5201   22.8038    1.5247 O   0  0  0  0  0  0  0  0  0  0  0  0
   -2.1800   20.6607   -0.8777 H   0  0  0  0  0  0  0  0  0  0  0  0
   -1.8295   23.4086    1.2113 H   0  0  0  0  0  0  0  0  0  0  0  0
   -0.1391   19.8658    0.6557 C   0  0  0  0  0  0  0  0  0  0  0  0
    0.3795   20.3582   -0.6545 C   0  0  0  0  0  0  0  0  0  0  0  0
    0.9943   19.0197    1.2764 C   0  0  0  0  0  0  0  0  0  0  0  0
 10 11  1  0  0  0
 10 15  2  0  0  0
 10  4  1  0  0  0
 11 12  2  0  0  0
 12 13  1  0  0  0
 13 14  2  0  0  0
 13 16  1  0  0  0
 14 15  1  0  0  0
 16 17  1  0  0  0
  4  5  1  0  0  0
  4  9  2  0  0  0
  5  6  2  0  0  0
  6  7  1  0  0  0
  7  8  2  0  0  0
  7  1  1  0  0  0
  8  9  1  0  0  0
  1  2  2  0  0  0
  1  3  2  0  0  0
  1 18  1  0  0  0
 18 20  1  0  0  0
 20 27  1  0  0  0
 20 21  1  0  0  0
 27 28  1  0  0  0
 27 29  1  0  0  0
 21 22  1  0  0  0
 21 23  2  0  0  0
 21 24  1  0  0  0
 18 19  1  0  0  0
 22 25  1  0  0  0
 24 26  1  0  0  0
M  END
> <minimizedAffinity>
-8.16515

$$$$
1ZVX_FIN_A_994


 29 30  0  0  0  0  0  0  0  0999 V2000
   -5.5000   26.5842   10.7381 S   0  0  0  0  0  0  0  0  0  0  0  0
   -6.0331   27.6398    9.9054 O   0  0  0  0  0  0  0  0  0  0  0  0
   -6.4694   25.6817   11.2857 O   0  0  0  0  0  0  0  0  0  0  0  0
   -2.8213   23.9515    7.9371 C   0  0  0  0  0  0  0  0  0  0  0  0
   -2.5094   25.3781    8.1129 C   0  0  0  0  0  0  0  0  0  0  0  0
   -3.3419   26.1986    8.9747 C   0  0  0  0  0  0  0  0  0  0  0  0
   -4.5075   25.5955    9.6758 C   0  0  0  0  0  0  0  0  0  0  0  0
   -4.8249   24.1975    9.4882 C   0  0  0  0  0  0  0  0  0  0  0  0
   -3.9997   23.3730    8.6372 C   0  0  0  0  0  0  0  0  0  0  0  0
   -1.9549   23.0758    7.0791 C   0  0  0  0  0  0  0  0  0  0  0  0
   -1.0188   22.1403    7.6985 C   0  0  0  0  0  0  0  0  0  0  0  0
   -0.1801   21.2550    6.8534 C   0  0  0  0  0  0  0  0  0  0  0  0
   -0.2947   21.3156    5.3891 C   0  0  0  0  0  0  0  0  0  0  0  0
   -1.2237   22.2457    4.7787 C   0  0  0  0  0  0  0  0  0  0  0  0
   -2.0591   23.1291    5.6179 C   0  0  0  0  0  0  0  0  0  0  0  0
    0.5113   20.4541    4.5282 O   0  0  0  0  0  0  0  0  0  0  0  0
   -0.0611   19.7318    3.4279 C   0  0  0  0  0  0  0  0  0  0  0  0
   -4.6958   27.3030   11.9825 N   0  0  0  0  0  0  0  0  0  0  0  0
   -3.9115   26.6881   12.1995 H   0  0  0  0  0  0  0  0  0  0  0  0
   -4.1765   28.5576   11.9158 C   0  0  0  0  0  0  0  0  0  0  0  0
   -2.5423   28.4490   12.5101 P   0  0  0  0  0  0  0  0  0  0  0  0
   -1.6829   27.6084   11.5909 O   0  0  0  0  0  0  0  0  0  0  0  0
   -1.9399   29.8080   12.6268 O   0  0  0  0  0  0  0  0  0  0  0  0
   -2.6210   27.8619   13.7973 O   0  0  0  0  0  0  0  0  0  0  0  0
   -1.6410   28.0255   10.7162 H   0  0  0  0  0  0  0  0  0  0  0  0
   -3.0126   26.9773   13.7258 H   0  0  0  0  0  0  0  0  0  0  0  0
   -5.0476   29.5033   12.8145 C   0  0  0  0  0  0  0  0  0  0  0  0
   -5.8232   30.5176   12.0413 C   0  0  0  0  0  0  0  0  0  0  0  0
   -6.0604   28.8119   13.7537 C   0  0  0  0  0  0  0  0  0  0  0  0
 10 11  1  0  0  0
 10 15  2  0  0  0
 10  4  1  0  0  0
 11 12  2  0  0  0
 12 13  1  0  0  0
 13 14  2  0  0  0
 13 16  1  0  0  0
 14 15  1  0  0  0
 16 17  1  0  0  0
  4  5  1  0  0  0
  4  9  2  0  0  0
  5  6  2  0  0  0
  6  7  1  0  0  0
  7  8  2  0  0  0
  7  1  1  0  0  0
  8  9  1  0  0  0
  1  2  2  0  0  0
  1  3  2  0  0  0
  1 18  1  0  0  0
 18 20  1  0  0  0
 20 27  1  0  0  0
 20 21  1  0  0  0
 27 28  1  0  0  0
 27 29  1  0  0  0
 21 22  1  0  0  0
 21 23  2  0  0  0
 21 24  1  0  0  0
 18 19  1  0  0  0
 22 25  1  0  0  0
 24 26  1  0  0  0
M  END
> <minimizedAffinity>
-7.03768

$$$$
1ZVX_FIN_A_994


 29 30  0  0  0  0  0  0  0  0999 V2000
   -4.5763   25.7319   11.0706 S   0  0  0  0  0  0  0  0  0  0  0  0
   -4.8525   24.7987   12.1405 O   0  0  0  0  0  0  0  0  0  0  0  0
   -3.7020   26.8161   11.4083 O   0  0  0  0  0  0  0  0  0  0  0  0
   -2.2915   23.2975    7.7834 C   0  0  0  0  0  0  0  0  0  0  0  0
   -3.6628   22.9143    8.1521 C   0  0  0  0  0  0  0  0  0  0  0  0
   -4.3712   23.6623    9.1757 C   0  0  0  0  0  0  0  0  0  0  0  0
   -3.7088   24.8119    9.8490 C   0  0  0  0  0  0  0  0  0  0  0  0
   -2.3540   25.1767    9.4996 C   0  0  0  0  0  0  0  0  0  0  0  0
   -1.6439   24.4419    8.4795 C   0  0  0  0  0  0  0  0  0  0  0  0
   -1.5521   22.5614    6.7040 C   0  0  0  0  0  0  0  0  0  0  0  0
   -1.8238   22.8561    5.2989 C   0  0  0  0  0  0  0  0  0  0  0  0
   -1.0759   22.1489    4.2303 C   0  0  0  0  0  0  0  0  0  0  0  0
   -0.0553   21.1525    4.5861 C   0  0  0  0  0  0  0  0  0  0  0  0
    0.2102   20.8622    5.9810 C   0  0  0  0  0  0  0  0  0  0  0  0
   -0.5338   21.5642    7.0469 C   0  0  0  0  0  0  0  0  0  0  0  0
    0.7032   20.4427    3.5595 O   0  0  0  0  0  0  0  0  0  0  0  0
    0.1814   19.2806    2.8982 C   0  0  0  0  0  0  0  0  0  0  0  0
   -6.0196   26.3583   10.5843 N   0  0  0  0  0  0  0  0  0  0  0  0
   -5.8394   27.3389   10.3691 H   0  0  0  0  0  0  0  0  0  0  0  0
   -6.7332   25.8726    9.5342 C   0  0  0  0  0  0  0  0  0  0  0  0
   -7.0365   27.2226    8.4754 P   0  0  0  0  0  0  0  0  0  0  0  0
   -7.9121   26.8155    7.3101 O   0  0  0  0  0  0  0  0  0  0  0  0
   -7.7055   28.3277    9.2201 O   0  0  0  0  0  0  0  0  0  0  0  0
   -5.7710   27.6675    8.0189 O   0  0  0  0  0  0  0  0  0  0  0  0
   -8.7725   26.5145    7.6419 H   0  0  0  0  0  0  0  0  0  0  0  0
   -5.3323   26.9513    7.5337 H   0  0  0  0  0  0  0  0  0  0  0  0
   -8.0723   25.2668   10.0823 C   0  0  0  0  0  0  0  0  0  0  0  0
   -8.0631   23.7768   10.1729 C   0  0  0  0  0  0  0  0  0  0  0  0
   -8.5398   25.7787   11.4626 C   0  0  0  0  0  0  0  0  0  0  0  0
 10 11  1  0  0  0
 10 15  2  0  0  0
 10  4  1  0  0  0
 11 12  2  0  0  0
 12 13  1  0  0  0
 13 14  2  0  0  0
 13 16  1  0  0  0
 14 15  1  0  0  0
 16 17  1  0  0  0
  4  5  1  0  0  0
  4  9  2  0  0  0
  5  6  2  0  0  0
  6  7  1  0  0  0
  7  8  2  0  0  0
  7  1  1  0  0  0
  8  9  1  0  0  0
  1  2  2  0  0  0
  1  3  2  0  0  0
  1 18  1  0  0  0
 18 20  1  0  0  0
 20 27  1  0  0  0
 20 21  1  0  0  0
 27 28  1  0  0  0
 27 29  1  0  0  0
 21 22  1  0  0  0
 21 23  2  0  0  0
 21 24  1  0  0  0
 18 19  1  0  0  0
 22 25  1  0  0  0
 24 26  1  0  0  0
M  END
> <minimizedAffinity>
-7.00321

$$$$
