4GQR_MYC_A_504


 29 31  0  0  0  0  0  0  0  0999 V2000
   14.9904   16.0423   36.2841 C   0  0  0  0  0  0  0  0  0  0  0  0
   15.3046   15.5575   37.5471 C   0  0  0  0  0  0  0  0  0  0  0  0
   14.5510   15.9571   38.6472 C   0  0  0  0  0  0  0  0  0  0  0  0
   13.5000   16.8409   38.4953 C   0  0  0  0  0  0  0  0  0  0  0  0
   13.1820   17.3250   37.2232 C   0  0  0  0  0  0  0  0  0  0  0  0
   13.9232   16.9267   36.1266 C   0  0  0  0  0  0  0  0  0  0  0  0
   14.7923   15.4072   39.9065 C   0  0  0  0  0  0  0  0  0  0  0  0
   13.8233   15.6021   40.8908 C   0  0  0  0  0  0  0  0  0  0  0  0
   12.7531   16.4387   40.6159 C   0  0  0  0  0  0  0  0  0  0  0  0
   12.8012   17.3057   39.5694 O   0  0  0  0  0  0  0  0  0  0  0  0
   15.8169   14.7865   40.1472 O   0  0  0  0  0  0  0  0  0  0  0  0
   13.9440   14.9679   42.0868 O   0  0  0  0  0  0  0  0  0  0  0  0
   13.6069   17.3977   34.8887 O   0  0  0  0  0  0  0  0  0  0  0  0
   16.3493   14.7031   37.7038 O   0  0  0  0  0  0  0  0  0  0  0  0
   14.6773   14.4073   42.2479 H   0  0  0  0  0  0  0  0  0  0  0  0
   14.1076   17.1295   34.1435 H   0  0  0  0  0  0  0  0  0  0  0  0
   16.8530   14.4375   36.9596 H   0  0  0  0  0  0  0  0  0  0  0  0
   11.6204   16.4616   41.4327 C   0  0  0  0  0  0  0  0  0  0  0  0
   11.5427   17.3226   42.5186 C   0  0  0  0  0  0  0  0  0  0  0  0
   10.3927   17.3400   43.3044 C   0  0  0  0  0  0  0  0  0  0  0  0
    9.3350   16.5035   43.0037 C   0  0  0  0  0  0  0  0  0  0  0  0
    9.4125   15.6396   41.9246 C   0  0  0  0  0  0  0  0  0  0  0  0
   10.5586   15.6185   41.1350 C   0  0  0  0  0  0  0  0  0  0  0  0
    8.3732   14.8053   41.6343 O   0  0  0  0  0  0  0  0  0  0  0  0
    8.1984   16.5379   43.7639 O   0  0  0  0  0  0  0  0  0  0  0  0
   10.3202   18.1895   44.3702 O   0  0  0  0  0  0  0  0  0  0  0  0
    7.6006   14.8176   42.1643 H   0  0  0  0  0  0  0  0  0  0  0  0
    8.1414   17.1209   44.4952 H   0  0  0  0  0  0  0  0  0  0  0  0
   11.0409   18.7544   44.5689 H   0  0  0  0  0  0  0  0  0  0  0  0
  1  2  2  0  0  0
  1  6  1  0  0  0
  2  3  1  0  0  0
  2 14  1  0  0  0
  3  4  2  0  0  0
  3  7  1  0  0  0
  4  5  1  0  0  0
  4 10  1  0  0  0
  5  6  2  0  0  0
  6 13  1  0  0  0
  7  8  1  0  0  0
  7 11  2  0  0  0
  8  9  2  0  0  0
  8 12  1  0  0  0
  9 18  1  0  0  0
  9 10  1  0  0  0
 18 19  2  0  0  0
 18 23  1  0  0  0
 19 20  1  0  0  0
 20 21  2  0  0  0
 20 26  1  0  0  0
 21 22  1  0  0  0
 21 25  1  0  0  0
 22 23  2  0  0  0
 22 24  1  0  0  0
 24 27  1  0  0  0
 25 28  1  0  0  0
 26 29  1  0  0  0
 12 15  1  0  0  0
 13 16  1  0  0  0
 14 17  1  0  0  0
M  END
> <minimizedAffinity>
-9.14181

$$$$
4GQR_MYC_A_504


 29 31  0  0  0  0  0  0  0  0999 V2000
   15.0112   16.0556   36.2137 C   0  0  0  0  0  0  0  0  0  0  0  0
   15.3116   15.5814   37.4840 C   0  0  0  0  0  0  0  0  0  0  0  0
   14.5256   15.9636   38.5675 C   0  0  0  0  0  0  0  0  0  0  0  0
   13.4557   16.8199   38.3919 C   0  0  0  0  0  0  0  0  0  0  0  0
   13.1515   17.2931   37.1124 C   0  0  0  0  0  0  0  0  0  0  0  0
   13.9251   16.9120   36.0323 C   0  0  0  0  0  0  0  0  0  0  0  0
   14.7550   15.4224   39.8328 C   0  0  0  0  0  0  0  0  0  0  0  0
   13.7613   15.5942   40.7966 C   0  0  0  0  0  0  0  0  0  0  0  0
   12.6759   16.4025   40.4978 C   0  0  0  0  0  0  0  0  0  0  0  0
   12.7232   17.2685   39.4504 O   0  0  0  0  0  0  0  0  0  0  0  0
   15.7900   14.8287   40.0959 O   0  0  0  0  0  0  0  0  0  0  0  0
   13.8736   14.9655   41.9963 O   0  0  0  0  0  0  0  0  0  0  0  0
   13.6224   17.3724   34.7870 O   0  0  0  0  0  0  0  0  0  0  0  0
   16.3745   14.7544   37.6641 O   0  0  0  0  0  0  0  0  0  0  0  0
   14.6176   14.4243   42.1738 H   0  0  0  0  0  0  0  0  0  0  0  0
   14.1449   17.1158   34.0528 H   0  0  0  0  0  0  0  0  0  0  0  0
   16.9001   14.5004   36.9311 H   0  0  0  0  0  0  0  0  0  0  0  0
   11.5264   16.3979   41.2911 C   0  0  0  0  0  0  0  0  0  0  0  0
   10.4527   15.5734   40.9844 C   0  0  0  0  0  0  0  0  0  0  0  0
    9.3268   15.5732   41.8045 C   0  0  0  0  0  0  0  0  0  0  0  0
    9.2798   16.3903   42.9176 C   0  0  0  0  0  0  0  0  0  0  0  0
   10.3472   17.2178   43.2223 C   0  0  0  0  0  0  0  0  0  0  0  0
   11.4755   17.2217   42.4072 C   0  0  0  0  0  0  0  0  0  0  0  0
   10.2965   18.0332   44.3145 O   0  0  0  0  0  0  0  0  0  0  0  0
    8.1821   16.3723   43.7334 O   0  0  0  0  0  0  0  0  0  0  0  0
    8.2741   14.7596   41.4999 O   0  0  0  0  0  0  0  0  0  0  0  0
    9.5381   18.0325   44.8648 H   0  0  0  0  0  0  0  0  0  0  0  0
    7.4573   15.8139   43.5312 H   0  0  0  0  0  0  0  0  0  0  0  0
    8.3120   14.2078   40.7436 H   0  0  0  0  0  0  0  0  0  0  0  0
  1  2  2  0  0  0
  1  6  1  0  0  0
  2  3  1  0  0  0
  2 14  1  0  0  0
  3  4  2  0  0  0
  3  7  1  0  0  0
  4  5  1  0  0  0
  4 10  1  0  0  0
  5  6  2  0  0  0
  6 13  1  0  0  0
  7  8  1  0  0  0
  7 11  2  0  0  0
  8  9  2  0  0  0
  8 12  1  0  0  0
  9 18  1  0  0  0
  9 10  1  0  0  0
 18 19  2  0  0  0
 18 23  1  0  0  0
 19 20  1  0  0  0
 20 21  2  0  0  0
 20 26  1  0  0  0
 21 22  1  0  0  0
 21 25  1  0  0  0
 22 23  2  0  0  0
 22 24  1  0  0  0
 24 27  1  0  0  0
 25 28  1  0  0  0
 26 29  1  0  0  0
 12 15  1  0  0  0
 13 16  1  0  0  0
 14 17  1  0  0  0
M  END
> <minimizedAffinity>
-8.95395

$$$$
4GQR_MYC_A_504


 29 31  0  0  0  0  0  0  0  0999 V2000
   14.7384   15.8321   37.4260 C   0  0  0  0  0  0  0  0  0  0  0  0
   13.5904   16.6131   37.3954 C   0  0  0  0  0  0  0  0  0  0  0  0
   12.4844   16.2451   38.1565 C   0  0  0  0  0  0  0  0  0  0  0  0
   12.5148   15.1031   38.9335 C   0  0  0  0  0  0  0  0  0  0  0  0
   13.6721   14.3201   38.9669 C   0  0  0  0  0  0  0  0  0  0  0  0
   14.7752   14.6842   38.2177 C   0  0  0  0  0  0  0  0  0  0  0  0
   11.3589   17.0678   38.2115 C   0  0  0  0  0  0  0  0  0  0  0  0
   10.4245   16.8144   39.2158 C   0  0  0  0  0  0  0  0  0  0  0  0
   10.5862   15.6887   40.0078 C   0  0  0  0  0  0  0  0  0  0  0  0
   11.4165   14.6829   39.6228 O   0  0  0  0  0  0  0  0  0  0  0  0
   11.1874   17.9707   37.4065 O   0  0  0  0  0  0  0  0  0  0  0  0
    9.3871   17.6730   39.3997 O   0  0  0  0  0  0  0  0  0  0  0  0
   15.9019   13.9206   38.2568 O   0  0  0  0  0  0  0  0  0  0  0  0
   13.5494   17.7266   36.6178 O   0  0  0  0  0  0  0  0  0  0  0  0
    9.3001   18.4272   38.8506 H   0  0  0  0  0  0  0  0  0  0  0  0
   16.6512   14.1649   37.7500 H   0  0  0  0  0  0  0  0  0  0  0  0
   14.2969   17.9695   36.1077 H   0  0  0  0  0  0  0  0  0  0  0  0
    9.8631   15.5231   41.1912 C   0  0  0  0  0  0  0  0  0  0  0  0
   10.3891   15.9288   42.4100 C   0  0  0  0  0  0  0  0  0  0  0  0
    9.6379   15.7711   43.5723 C   0  0  0  0  0  0  0  0  0  0  0  0
    8.3755   15.2131   43.5115 C   0  0  0  0  0  0  0  0  0  0  0  0
    7.8510   14.8023   42.2978 C   0  0  0  0  0  0  0  0  0  0  0  0
    8.5964   14.9583   41.1327 C   0  0  0  0  0  0  0  0  0  0  0  0
    6.6096   14.2407   42.2388 O   0  0  0  0  0  0  0  0  0  0  0  0
    7.6313   15.0792   44.6513 O   0  0  0  0  0  0  0  0  0  0  0  0
   10.1586   16.1730   44.7682 O   0  0  0  0  0  0  0  0  0  0  0  0
    6.1057   14.1345   43.0217 H   0  0  0  0  0  0  0  0  0  0  0  0
    7.9820   15.3558   45.4750 H   0  0  0  0  0  0  0  0  0  0  0  0
   11.0154   16.5508   44.8030 H   0  0  0  0  0  0  0  0  0  0  0  0
  1  2  2  0  0  0
  1  6  1  0  0  0
  2  3  1  0  0  0
  2 14  1  0  0  0
  3  4  2  0  0  0
  3  7  1  0  0  0
  4  5  1  0  0  0
  4 10  1  0  0  0
  5  6  2  0  0  0
  6 13  1  0  0  0
  7  8  1  0  0  0
  7 11  2  0  0  0
  8  9  2  0  0  0
  8 12  1  0  0  0
  9 18  1  0  0  0
  9 10  1  0  0  0
 18 19  2  0  0  0
 18 23  1  0  0  0
 19 20  1  0  0  0
 20 21  2  0  0  0
 20 26  1  0  0  0
 21 22  1  0  0  0
 21 25  1  0  0  0
 22 23  2  0  0  0
 22 24  1  0  0  0
 24 27  1  0  0  0
 25 28  1  0  0  0
 26 29  1  0  0  0
 12 15  1  0  0  0
 13 16  1  0  0  0
 14 17  1  0  0  0
M  END
> <minimizedAffinity>
-8.73437

$$$$
4GQR_MYC_A_504


 29 31  0  0  0  0  0  0  0  0999 V2000
   10.1326   18.6649   43.5453 C   0  0  0  0  0  0  0  0  0  0  0  0
    9.6443   18.0928   42.3778 C   0  0  0  0  0  0  0  0  0  0  0  0
   10.4944   17.9092   41.2908 C   0  0  0  0  0  0  0  0  0  0  0  0
   11.8173   18.3016   41.3594 C   0  0  0  0  0  0  0  0  0  0  0  0
   12.3088   18.8734   42.5363 C   0  0  0  0  0  0  0  0  0  0  0  0
   11.4705   19.0525   43.6206 C   0  0  0  0  0  0  0  0  0  0  0  0
   10.0455   17.2503   40.1459 C   0  0  0  0  0  0  0  0  0  0  0  0
   11.0070   16.8220   39.2305 C   0  0  0  0  0  0  0  0  0  0  0  0
   12.3280   17.1908   39.4301 C   0  0  0  0  0  0  0  0  0  0  0  0
   12.6447   18.2036   40.2805 O   0  0  0  0  0  0  0  0  0  0  0  0
    8.8555   17.0624   39.9418 O   0  0  0  0  0  0  0  0  0  0  0  0
   10.6330   16.0529   38.1743 O   0  0  0  0  0  0  0  0  0  0  0  0
   11.9549   19.6062   44.7664 O   0  0  0  0  0  0  0  0  0  0  0  0
    8.3392   17.7229   42.2993 O   0  0  0  0  0  0  0  0  0  0  0  0
    9.7331   15.8172   38.0617 H   0  0  0  0  0  0  0  0  0  0  0  0
   11.3890   19.7288   45.5031 H   0  0  0  0  0  0  0  0  0  0  0  0
    7.7716   17.8489   43.0341 H   0  0  0  0  0  0  0  0  0  0  0  0
   13.3674   16.5788   38.7261 C   0  0  0  0  0  0  0  0  0  0  0  0
   14.2261   15.6881   39.3552 C   0  0  0  0  0  0  0  0  0  0  0  0
   15.2416   15.0758   38.6244 C   0  0  0  0  0  0  0  0  0  0  0  0
   15.3928   15.3547   37.2797 C   0  0  0  0  0  0  0  0  0  0  0  0
   14.5412   16.2472   36.6513 C   0  0  0  0  0  0  0  0  0  0  0  0
   13.5239   16.8614   37.3760 C   0  0  0  0  0  0  0  0  0  0  0  0
   14.6974   16.5317   35.3266 O   0  0  0  0  0  0  0  0  0  0  0  0
   16.3771   14.7357   36.5594 O   0  0  0  0  0  0  0  0  0  0  0  0
   16.0825   14.1994   39.2469 O   0  0  0  0  0  0  0  0  0  0  0  0
   15.3814   16.1197   34.8364 H   0  0  0  0  0  0  0  0  0  0  0  0
   16.9559   14.1309   36.9803 H   0  0  0  0  0  0  0  0  0  0  0  0
   15.9748   14.0144   40.1591 H   0  0  0  0  0  0  0  0  0  0  0  0
  1  2  2  0  0  0
  1  6  1  0  0  0
  2  3  1  0  0  0
  2 14  1  0  0  0
  3  4  2  0  0  0
  3  7  1  0  0  0
  4  5  1  0  0  0
  4 10  1  0  0  0
  5  6  2  0  0  0
  6 13  1  0  0  0
  7  8  1  0  0  0
  7 11  2  0  0  0
  8  9  2  0  0  0
  8 12  1  0  0  0
  9 18  1  0  0  0
  9 10  1  0  0  0
 18 19  2  0  0  0
 18 23  1  0  0  0
 19 20  1  0  0  0
 20 21  2  0  0  0
 20 26  1  0  0  0
 21 22  1  0  0  0
 21 25  1  0  0  0
 22 23  2  0  0  0
 22 24  1  0  0  0
 24 27  1  0  0  0
 25 28  1  0  0  0
 26 29  1  0  0  0
 12 15  1  0  0  0
 13 16  1  0  0  0
 14 17  1  0  0  0
M  END
> <minimizedAffinity>
-8.68455

$$$$
4GQR_MYC_A_504


 29 31  0  0  0  0  0  0  0  0999 V2000
    8.5805   15.2280   43.4448 C   0  0  0  0  0  0  0  0  0  0  0  0
    9.8647   15.7530   43.5083 C   0  0  0  0  0  0  0  0  0  0  0  0
   10.6226   15.8661   42.3461 C   0  0  0  0  0  0  0  0  0  0  0  0
   10.1125   15.4500   41.1314 C   0  0  0  0  0  0  0  0  0  0  0  0
    8.8184   14.9258   41.0679 C   0  0  0  0  0  0  0  0  0  0  0  0
    8.0594   14.8168   42.2179 C   0  0  0  0  0  0  0  0  0  0  0  0
   11.8761   16.4779   42.3766 C   0  0  0  0  0  0  0  0  0  0  0  0
   12.4452   16.8414   41.1559 C   0  0  0  0  0  0  0  0  0  0  0  0
   11.8129   16.4554   39.9847 C   0  0  0  0  0  0  0  0  0  0  0  0
   10.8669   15.4785   39.9964 O   0  0  0  0  0  0  0  0  0  0  0  0
   12.4630   16.6805   43.4289 O   0  0  0  0  0  0  0  0  0  0  0  0
   13.5949   17.5662   41.1404 O   0  0  0  0  0  0  0  0  0  0  0  0
    6.7976   14.3093   42.1505 O   0  0  0  0  0  0  0  0  0  0  0  0
   10.3774   16.1456   44.7037 O   0  0  0  0  0  0  0  0  0  0  0  0
   14.0029   17.8148   41.9465 H   0  0  0  0  0  0  0  0  0  0  0  0
    6.2807   14.2341   42.9283 H   0  0  0  0  0  0  0  0  0  0  0  0
    9.8627   16.0672   45.4827 H   0  0  0  0  0  0  0  0  0  0  0  0
   12.1642   17.0109   38.7523 C   0  0  0  0  0  0  0  0  0  0  0  0
   13.2131   16.4882   38.0086 C   0  0  0  0  0  0  0  0  0  0  0  0
   13.5289   17.0483   36.7729 C   0  0  0  0  0  0  0  0  0  0  0  0
   12.8011   18.1191   36.2908 C   0  0  0  0  0  0  0  0  0  0  0  0
   11.7581   18.6459   37.0335 C   0  0  0  0  0  0  0  0  0  0  0  0
   11.4371   18.0899   38.2685 C   0  0  0  0  0  0  0  0  0  0  0  0
   11.0469   19.7104   36.5633 O   0  0  0  0  0  0  0  0  0  0  0  0
   13.0993   18.6534   35.0675 O   0  0  0  0  0  0  0  0  0  0  0  0
   14.5602   16.5299   36.0444 O   0  0  0  0  0  0  0  0  0  0  0  0
   11.2609   20.0866   35.7322 H   0  0  0  0  0  0  0  0  0  0  0  0
   13.8043   18.3002   34.5613 H   0  0  0  0  0  0  0  0  0  0  0  0
   15.0500   15.8036   36.3768 H   0  0  0  0  0  0  0  0  0  0  0  0
  1  2  2  0  0  0
  1  6  1  0  0  0
  2  3  1  0  0  0
  2 14  1  0  0  0
  3  4  2  0  0  0
  3  7  1  0  0  0
  4  5  1  0  0  0
  4 10  1  0  0  0
  5  6  2  0  0  0
  6 13  1  0  0  0
  7  8  1  0  0  0
  7 11  2  0  0  0
  8  9  2  0  0  0
  8 12  1  0  0  0
  9 18  1  0  0  0
  9 10  1  0  0  0
 18 19  2  0  0  0
 18 23  1  0  0  0
 19 20  1  0  0  0
 20 21  2  0  0  0
 20 26  1  0  0  0
 21 22  1  0  0  0
 21 25  1  0  0  0
 22 23  2  0  0  0
 22 24  1  0  0  0
 24 27  1  0  0  0
 25 28  1  0  0  0
 26 29  1  0  0  0
 12 15  1  0  0  0
 13 16  1  0  0  0
 14 17  1  0  0  0
M  END
> <minimizedAffinity>
-8.32182

$$$$
4GQR_MYC_A_504


 29 31  0  0  0  0  0  0  0  0999 V2000
   15.5182   14.9551   35.8136 C   0  0  0  0  0  0  0  0  0  0  0  0
   14.5414   15.9216   36.0146 C   0  0  0  0  0  0  0  0  0  0  0  0
   13.6455   15.7884   37.0717 C   0  0  0  0  0  0  0  0  0  0  0  0
   13.7126   14.6970   37.9162 C   0  0  0  0  0  0  0  0  0  0  0  0
   14.6988   13.7270   37.7156 C   0  0  0  0  0  0  0  0  0  0  0  0
   15.5945   13.8575   36.6711 C   0  0  0  0  0  0  0  0  0  0  0  0
   12.7201   16.7960   37.3451 C   0  0  0  0  0  0  0  0  0  0  0  0
   12.0718   16.7575   38.5796 C   0  0  0  0  0  0  0  0  0  0  0  0
   12.2701   15.6600   39.4024 C   0  0  0  0  0  0  0  0  0  0  0  0
   12.7961   14.5078   38.9074 O   0  0  0  0  0  0  0  0  0  0  0  0
   12.4745   17.6756   36.5332 O   0  0  0  0  0  0  0  0  0  0  0  0
   11.2710   17.7913   38.9501 O   0  0  0  0  0  0  0  0  0  0  0  0
   16.5562   12.9121   36.4822 O   0  0  0  0  0  0  0  0  0  0  0  0
   14.4597   16.9867   35.1750 O   0  0  0  0  0  0  0  0  0  0  0  0
   11.1534   18.5220   38.3755 H   0  0  0  0  0  0  0  0  0  0  0  0
   17.1649   12.9978   35.7749 H   0  0  0  0  0  0  0  0  0  0  0  0
   15.0655   17.0712   34.4651 H   0  0  0  0  0  0  0  0  0  0  0  0
   11.8853   15.6795   40.7449 C   0  0  0  0  0  0  0  0  0  0  0  0
   12.8311   15.6045   41.7580 C   0  0  0  0  0  0  0  0  0  0  0  0
   12.4216   15.6471   43.0886 C   0  0  0  0  0  0  0  0  0  0  0  0
   11.0800   15.7633   43.3976 C   0  0  0  0  0  0  0  0  0  0  0  0
   10.1342   15.8325   42.3889 C   0  0  0  0  0  0  0  0  0  0  0  0
   10.5374   15.7914   41.0573 C   0  0  0  0  0  0  0  0  0  0  0  0
    8.8088   15.9355   42.6935 O   0  0  0  0  0  0  0  0  0  0  0  0
   10.6823   15.8269   44.7048 O   0  0  0  0  0  0  0  0  0  0  0  0
   13.3553   15.5747   44.0815 O   0  0  0  0  0  0  0  0  0  0  0  0
    8.5347   15.9633   43.5891 H   0  0  0  0  0  0  0  0  0  0  0  0
   11.3187   15.7805   45.3909 H   0  0  0  0  0  0  0  0  0  0  0  0
   14.2637   15.4960   43.8654 H   0  0  0  0  0  0  0  0  0  0  0  0
  1  2  2  0  0  0
  1  6  1  0  0  0
  2  3  1  0  0  0
  2 14  1  0  0  0
  3  4  2  0  0  0
  3  7  1  0  0  0
  4  5  1  0  0  0
  4 10  1  0  0  0
  5  6  2  0  0  0
  6 13  1  0  0  0
  7  8  1  0  0  0
  7 11  2  0  0  0
  8  9  2  0  0  0
  8 12  1  0  0  0
  9 18  1  0  0  0
  9 10  1  0  0  0
 18 19  2  0  0  0
 18 23  1  0  0  0
 19 20  1  0  0  0
 20 21  2  0  0  0
 20 26  1  0  0  0
 21 22  1  0  0  0
 21 25  1  0  0  0
 22 23  2  0  0  0
 22 24  1  0  0  0
 24 27  1  0  0  0
 25 28  1  0  0  0
 26 29  1  0  0  0
 12 15  1  0  0  0
 13 16  1  0  0  0
 14 17  1  0  0  0
M  END
> <minimizedAffinity>
-8.19747

$$$$
4GQR_MYC_A_504


 29 31  0  0  0  0  0  0  0  0999 V2000
   15.3425   15.1732   36.0133 C   0  0  0  0  0  0  0  0  0  0  0  0
   14.3588   16.1430   36.1564 C   0  0  0  0  0  0  0  0  0  0  0  0
   13.4304   16.0377   37.1884 C   0  0  0  0  0  0  0  0  0  0  0  0
   13.4722   14.9706   38.0649 C   0  0  0  0  0  0  0  0  0  0  0  0
   14.4653   13.9974   37.9226 C   0  0  0  0  0  0  0  0  0  0  0  0
   15.3932   14.1003   36.9033 C   0  0  0  0  0  0  0  0  0  0  0  0
   12.4958   17.0508   37.4043 C   0  0  0  0  0  0  0  0  0  0  0  0
   11.8092   17.0456   38.6186 C   0  0  0  0  0  0  0  0  0  0  0  0
   11.9829   15.9721   39.4777 C   0  0  0  0  0  0  0  0  0  0  0  0
   12.5254   14.8075   39.0319 O   0  0  0  0  0  0  0  0  0  0  0  0
   12.2747   17.9067   36.5608 O   0  0  0  0  0  0  0  0  0  0  0  0
   10.9961   18.0878   38.9346 O   0  0  0  0  0  0  0  0  0  0  0  0
   16.3614   13.1519   36.7711 O   0  0  0  0  0  0  0  0  0  0  0  0
   14.3022   17.1840   35.2851 O   0  0  0  0  0  0  0  0  0  0  0  0
   10.8957   18.8019   38.3363 H   0  0  0  0  0  0  0  0  0  0  0  0
   16.9917   13.2189   36.0811 H   0  0  0  0  0  0  0  0  0  0  0  0
   14.9298   17.2497   34.5924 H   0  0  0  0  0  0  0  0  0  0  0  0
   11.5563   16.0285   40.8064 C   0  0  0  0  0  0  0  0  0  0  0  0
   10.2978   16.5161   41.1302 C   0  0  0  0  0  0  0  0  0  0  0  0
    9.8895   16.5417   42.4617 C   0  0  0  0  0  0  0  0  0  0  0  0
   10.7340   16.0839   43.4547 C   0  0  0  0  0  0  0  0  0  0  0  0
   11.9921   15.6024   43.1347 C   0  0  0  0  0  0  0  0  0  0  0  0
   12.4053   15.5733   41.8059 C   0  0  0  0  0  0  0  0  0  0  0  0
   12.8306   15.1613   44.1158 O   0  0  0  0  0  0  0  0  0  0  0  0
   10.3225   16.0899   44.7591 O   0  0  0  0  0  0  0  0  0  0  0  0
    8.6504   17.0205   42.7752 O   0  0  0  0  0  0  0  0  0  0  0  0
   12.5549   15.1798   45.0111 H   0  0  0  0  0  0  0  0  0  0  0  0
    9.4719   16.4148   44.9805 H   0  0  0  0  0  0  0  0  0  0  0  0
    8.0822   17.3295   42.0973 H   0  0  0  0  0  0  0  0  0  0  0  0
  1  2  2  0  0  0
  1  6  1  0  0  0
  2  3  1  0  0  0
  2 14  1  0  0  0
  3  4  2  0  0  0
  3  7  1  0  0  0
  4  5  1  0  0  0
  4 10  1  0  0  0
  5  6  2  0  0  0
  6 13  1  0  0  0
  7  8  1  0  0  0
  7 11  2  0  0  0
  8  9  2  0  0  0
  8 12  1  0  0  0
  9 18  1  0  0  0
  9 10  1  0  0  0
 18 19  2  0  0  0
 18 23  1  0  0  0
 19 20  1  0  0  0
 20 21  2  0  0  0
 20 26  1  0  0  0
 21 22  1  0  0  0
 21 25  1  0  0  0
 22 23  2  0  0  0
 22 24  1  0  0  0
 24 27  1  0  0  0
 25 28  1  0  0  0
 26 29  1  0  0  0
 12 15  1  0  0  0
 13 16  1  0  0  0
 14 17  1  0  0  0
M  END
> <minimizedAffinity>
-8.18014

$$$$
4GQR_MYC_A_504


 29 31  0  0  0  0  0  0  0  0999 V2000
    8.6778   16.2293   43.1854 C   0  0  0  0  0  0  0  0  0  0  0  0
    9.9251   16.8387   43.2262 C   0  0  0  0  0  0  0  0  0  0  0  0
   10.7967   16.7003   42.1497 C   0  0  0  0  0  0  0  0  0  0  0  0
   10.4362   15.9523   41.0454 C   0  0  0  0  0  0  0  0  0  0  0  0
    9.1789   15.3430   41.0035 C   0  0  0  0  0  0  0  0  0  0  0  0
    8.3073   15.4822   42.0672 C   0  0  0  0  0  0  0  0  0  0  0  0
   12.0134   17.3828   42.1331 C   0  0  0  0  0  0  0  0  0  0  0  0
   12.6933   17.4579   40.9174 C   0  0  0  0  0  0  0  0  0  0  0  0
   12.2054   16.7418   39.8358 C   0  0  0  0  0  0  0  0  0  0  0  0
   11.3049   15.7390   40.0169 O   0  0  0  0  0  0  0  0  0  0  0  0
   12.4764   17.8884   43.1446 O   0  0  0  0  0  0  0  0  0  0  0  0
   13.8071   18.2304   40.8175 O   0  0  0  0  0  0  0  0  0  0  0  0
    7.0820   14.8902   42.0200 O   0  0  0  0  0  0  0  0  0  0  0  0
   10.2913   17.5593   44.3183 O   0  0  0  0  0  0  0  0  0  0  0  0
   14.1166   18.7049   41.5639 H   0  0  0  0  0  0  0  0  0  0  0  0
    6.4889   14.9828   42.7396 H   0  0  0  0  0  0  0  0  0  0  0  0
    9.7005   17.6491   45.0400 H   0  0  0  0  0  0  0  0  0  0  0  0
   12.6622   16.9842   38.5384 C   0  0  0  0  0  0  0  0  0  0  0  0
   12.1414   18.0256   37.7829 C   0  0  0  0  0  0  0  0  0  0  0  0
   12.6299   18.2583   36.4994 C   0  0  0  0  0  0  0  0  0  0  0  0
   13.6279   17.4555   35.9814 C   0  0  0  0  0  0  0  0  0  0  0  0
   14.1449   16.4125   36.7308 C   0  0  0  0  0  0  0  0  0  0  0  0
   13.6616   16.1757   38.0145 C   0  0  0  0  0  0  0  0  0  0  0  0
   15.1219   15.6124   36.2155 O   0  0  0  0  0  0  0  0  0  0  0  0
   14.1210   17.6995   34.7291 O   0  0  0  0  0  0  0  0  0  0  0  0
   12.1158   19.2845   35.7608 O   0  0  0  0  0  0  0  0  0  0  0  0
   15.4491   15.7697   35.3516 H   0  0  0  0  0  0  0  0  0  0  0  0
   13.7742   18.4042   34.2182 H   0  0  0  0  0  0  0  0  0  0  0  0
   11.4391   19.8255   36.1177 H   0  0  0  0  0  0  0  0  0  0  0  0
  1  2  2  0  0  0
  1  6  1  0  0  0
  2  3  1  0  0  0
  2 14  1  0  0  0
  3  4  2  0  0  0
  3  7  1  0  0  0
  4  5  1  0  0  0
  4 10  1  0  0  0
  5  6  2  0  0  0
  6 13  1  0  0  0
  7  8  1  0  0  0
  7 11  2  0  0  0
  8  9  2  0  0  0
  8 12  1  0  0  0
  9 18  1  0  0  0
  9 10  1  0  0  0
 18 19  2  0  0  0
 18 23  1  0  0  0
 19 20  1  0  0  0
 20 21  2  0  0  0
 20 26  1  0  0  0
 21 22  1  0  0  0
 21 25  1  0  0  0
 22 23  2  0  0  0
 22 24  1  0  0  0
 24 27  1  0  0  0
 25 28  1  0  0  0
 26 29  1  0  0  0
 12 15  1  0  0  0
 13 16  1  0  0  0
 14 17  1  0  0  0
M  END
> <minimizedAffinity>
-8.17390

$$$$
4GQR_MYC_A_504


 29 31  0  0  0  0  0  0  0  0999 V2000
   16.1300   13.3555   35.7591 C   0  0  0  0  0  0  0  0  0  0  0  0
   15.5727   14.6225   35.6455 C   0  0  0  0  0  0  0  0  0  0  0  0
   14.7034   15.0852   36.6294 C   0  0  0  0  0  0  0  0  0  0  0  0
   14.3814   14.2904   37.7126 C   0  0  0  0  0  0  0  0  0  0  0  0
   14.9461   13.0171   37.8282 C   0  0  0  0  0  0  0  0  0  0  0  0
   15.8145   12.5551   36.8571 C   0  0  0  0  0  0  0  0  0  0  0  0
   14.2099   16.3892   36.5801 C   0  0  0  0  0  0  0  0  0  0  0  0
   13.6080   16.8941   37.7328 C   0  0  0  0  0  0  0  0  0  0  0  0
   13.4057   16.0419   38.8068 C   0  0  0  0  0  0  0  0  0  0  0  0
   13.4717   14.6934   38.6445 O   0  0  0  0  0  0  0  0  0  0  0  0
   14.2892   17.0646   35.5649 O   0  0  0  0  0  0  0  0  0  0  0  0
   13.2414   18.2020   37.7810 O   0  0  0  0  0  0  0  0  0  0  0  0
   16.3655   11.3156   36.9762 O   0  0  0  0  0  0  0  0  0  0  0  0
   15.8717   15.4000   34.5721 O   0  0  0  0  0  0  0  0  0  0  0  0
   13.3891   18.7576   37.0411 H   0  0  0  0  0  0  0  0  0  0  0  0
   16.9544   10.9997   36.3195 H   0  0  0  0  0  0  0  0  0  0  0  0
   16.4575   15.0834   33.9129 H   0  0  0  0  0  0  0  0  0  0  0  0
   13.0719   16.5329   40.0710 C   0  0  0  0  0  0  0  0  0  0  0  0
   12.4536   17.7672   40.2151 C   0  0  0  0  0  0  0  0  0  0  0  0
   12.1124   18.2237   41.4861 C   0  0  0  0  0  0  0  0  0  0  0  0
   12.3889   17.4510   42.5975 C   0  0  0  0  0  0  0  0  0  0  0  0
   13.0108   16.2220   42.4568 C   0  0  0  0  0  0  0  0  0  0  0  0
   13.3531   15.7600   41.1892 C   0  0  0  0  0  0  0  0  0  0  0  0
   13.2944   15.4640   43.5546 O   0  0  0  0  0  0  0  0  0  0  0  0
   12.0333   17.8918   43.8426 O   0  0  0  0  0  0  0  0  0  0  0  0
   11.5032   19.4374   41.6228 O   0  0  0  0  0  0  0  0  0  0  0  0
   13.0650   15.7727   44.4090 H   0  0  0  0  0  0  0  0  0  0  0  0
   11.6123   18.7228   43.9428 H   0  0  0  0  0  0  0  0  0  0  0  0
   11.3183   19.9568   40.8652 H   0  0  0  0  0  0  0  0  0  0  0  0
  1  2  2  0  0  0
  1  6  1  0  0  0
  2  3  1  0  0  0
  2 14  1  0  0  0
  3  4  2  0  0  0
  3  7  1  0  0  0
  4  5  1  0  0  0
  4 10  1  0  0  0
  5  6  2  0  0  0
  6 13  1  0  0  0
  7  8  1  0  0  0
  7 11  2  0  0  0
  8  9  2  0  0  0
  8 12  1  0  0  0
  9 18  1  0  0  0
  9 10  1  0  0  0
 18 19  2  0  0  0
 18 23  1  0  0  0
 19 20  1  0  0  0
 20 21  2  0  0  0
 20 26  1  0  0  0
 21 22  1  0  0  0
 21 25  1  0  0  0
 22 23  2  0  0  0
 22 24  1  0  0  0
 24 27  1  0  0  0
 25 28  1  0  0  0
 26 29  1  0  0  0
 12 15  1  0  0  0
 13 16  1  0  0  0
 14 17  1  0  0  0
M  END
> <minimizedAffinity>
-8.00072

$$$$
4GQR_MYC_A_504


 29 31  0  0  0  0  0  0  0  0999 V2000
   15.6845   14.0668   38.0177 C   0  0  0  0  0  0  0  0  0  0  0  0
   15.6163   15.2242   38.7822 C   0  0  0  0  0  0  0  0  0  0  0  0
   14.3854   15.6638   39.2612 C   0  0  0  0  0  0  0  0  0  0  0  0
   13.2291   14.9646   38.9732 C   0  0  0  0  0  0  0  0  0  0  0  0
   13.2993   13.7975   38.2073 C   0  0  0  0  0  0  0  0  0  0  0  0
   14.5198   13.3534   37.7342 C   0  0  0  0  0  0  0  0  0  0  0  0
   14.3108   16.7696   40.1085 C   0  0  0  0  0  0  0  0  0  0  0  0
   13.1157   16.9728   40.7986 C   0  0  0  0  0  0  0  0  0  0  0  0
   12.0309   16.1614   40.5058 C   0  0  0  0  0  0  0  0  0  0  0  0
   12.0060   15.4213   39.3652 O   0  0  0  0  0  0  0  0  0  0  0  0
   15.2498   17.5408   40.2370 O   0  0  0  0  0  0  0  0  0  0  0  0
   13.0420   17.9496   41.7408 O   0  0  0  0  0  0  0  0  0  0  0  0
   14.5837   12.2136   36.9920 O   0  0  0  0  0  0  0  0  0  0  0  0
   16.7485   15.9254   39.0517 O   0  0  0  0  0  0  0  0  0  0  0  0
   13.7899   18.4848   41.9202 H   0  0  0  0  0  0  0  0  0  0  0  0
   15.4096   11.9100   36.6699 H   0  0  0  0  0  0  0  0  0  0  0  0
   17.5743   15.6247   38.7267 H   0  0  0  0  0  0  0  0  0  0  0  0
   10.9088   16.1209   41.3364 C   0  0  0  0  0  0  0  0  0  0  0  0
    9.6281   16.0900   40.8022 C   0  0  0  0  0  0  0  0  0  0  0  0
    8.5270   16.0286   41.6531 C   0  0  0  0  0  0  0  0  0  0  0  0
    8.7098   15.9989   43.0222 C   0  0  0  0  0  0  0  0  0  0  0  0
    9.9861   16.0355   43.5575 C   0  0  0  0  0  0  0  0  0  0  0  0
   11.0903   16.0958   42.7123 C   0  0  0  0  0  0  0  0  0  0  0  0
   10.1666   16.0180   44.9093 O   0  0  0  0  0  0  0  0  0  0  0  0
    7.6278   15.9167   43.8550 O   0  0  0  0  0  0  0  0  0  0  0  0
    7.2696   15.9967   41.1232 O   0  0  0  0  0  0  0  0  0  0  0  0
    9.4249   15.9774   45.4805 H   0  0  0  0  0  0  0  0  0  0  0  0
    6.7622   15.8917   43.4973 H   0  0  0  0  0  0  0  0  0  0  0  0
    7.1522   16.0171   40.1938 H   0  0  0  0  0  0  0  0  0  0  0  0
  1  2  2  0  0  0
  1  6  1  0  0  0
  2  3  1  0  0  0
  2 14  1  0  0  0
  3  4  2  0  0  0
  3  7  1  0  0  0
  4  5  1  0  0  0
  4 10  1  0  0  0
  5  6  2  0  0  0
  6 13  1  0  0  0
  7  8  1  0  0  0
  7 11  2  0  0  0
  8  9  2  0  0  0
  8 12  1  0  0  0
  9 18  1  0  0  0
  9 10  1  0  0  0
 18 19  2  0  0  0
 18 23  1  0  0  0
 19 20  1  0  0  0
 20 21  2  0  0  0
 20 26  1  0  0  0
 21 22  1  0  0  0
 21 25  1  0  0  0
 22 23  2  0  0  0
 22 24  1  0  0  0
 24 27  1  0  0  0
 25 28  1  0  0  0
 26 29  1  0  0  0
 12 15  1  0  0  0
 13 16  1  0  0  0
 14 17  1  0  0  0
M  END
> <minimizedAffinity>
-7.82823

$$$$
