3IOB_A4D_A_301


 24 26  0  0  0  0  0  0  0  0999 V2000
   13.3537    9.6806   -5.2533 N   0  0  0  0  0  0  0  0  0  0  0  0
   12.3720    9.3446   -4.4072 C   0  0  0  0  0  0  0  0  0  0  0  0
   12.5809    9.3082   -3.0875 N   0  0  0  0  0  0  0  0  0  0  0  0
   13.8023    9.6076   -2.5771 C   0  0  0  0  0  0  0  0  0  0  0  0
   14.8375    9.9644   -3.4348 C   0  0  0  0  0  0  0  0  0  0  0  0
   14.5892    9.9878   -4.7994 C   0  0  0  0  0  0  0  0  0  0  0  0
   15.5723   10.3070   -5.6292 N   0  0  0  0  0  0  0  0  0  0  0  0
   15.9186   10.2117   -2.6950 N   0  0  0  0  0  0  0  0  0  0  0  0
   15.5816   10.0296   -1.4142 C   0  0  0  0  0  0  0  0  0  0  0  0
   14.3017    9.6620   -1.3357 N   0  0  0  0  0  0  0  0  0  0  0  0
   15.4098   10.3275   -6.6000 H   0  0  0  0  0  0  0  0  0  0  0  0
   16.4648   10.5235   -5.2747 H   0  0  0  0  0  0  0  0  0  0  0  0
   12.4629    7.9272    2.0708 O   0  0  0  0  0  0  0  0  0  0  0  0
   14.3739    7.0774    0.2675 O   0  0  0  0  0  0  0  0  0  0  0  0
   13.4171   10.5594    0.7211 O   0  0  0  0  0  0  0  0  0  0  0  0
   13.7186    8.6035    2.1110 C   0  0  0  0  0  0  0  0  0  0  0  0
   14.4307    8.4345    0.7697 C   0  0  0  0  0  0  0  0  0  0  0  0
   13.4522   10.1236    2.1364 C   0  0  0  0  0  0  0  0  0  0  0  0
   13.5730    9.3674   -0.1023 C   0  0  0  0  0  0  0  0  0  0  0  0
   12.6122    6.9689    2.0544 H   0  0  0  0  0  0  0  0  0  0  0  0
   14.9190    6.5025    0.8272 H   0  0  0  0  0  0  0  0  0  0  0  0
   14.7946   10.3012    4.5998 S   0  0  0  0  0  0  0  0  0  0  0  0
   14.5583   10.9104    2.8917 C   0  0  0  0  0  0  0  0  0  0  0  0
   15.7717   11.0256    5.2083 H   0  0  0  0  0  0  0  0  0  0  0  0
  1  2  2  0  0  0
  1  6  1  0  0  0
  2  3  1  0  0  0
  3  4  2  0  0  0
  4  5  1  0  0  0
  4 10  1  0  0  0
  5  6  2  0  0  0
  5  8  1  0  0  0
  6  7  1  0  0  0
  8  9  2  0  0  0
  9 10  1  0  0  0
 10 19  1  0  0  0
 13 16  1  0  0  0
 14 17  1  0  0  0
 22 23  1  0  0  0
 23 18  1  0  0  0
 15 18  1  0  0  0
 15 19  1  0  0  0
 16 17  1  0  0  0
 16 18  1  0  0  0
 17 19  1  0  0  0
  7 11  1  0  0  0
  7 12  1  0  0  0
 13 20  1  0  0  0
 14 21  1  0  0  0
 22 24  1  0  0  0
M  END
> <minimizedAffinity>
-9.01276

$$$$
3IOB_A4D_A_301


 24 26  0  0  0  0  0  0  0  0999 V2000
   14.1703    9.7560   -5.4115 N   0  0  0  0  0  0  0  0  0  0  0  0
   15.3943    9.6750   -4.8751 C   0  0  0  0  0  0  0  0  0  0  0  0
   15.5647    9.6161   -3.5507 N   0  0  0  0  0  0  0  0  0  0  0  0
   14.4928    9.6432   -2.7186 C   0  0  0  0  0  0  0  0  0  0  0  0
   13.2104    9.7221   -3.2513 C   0  0  0  0  0  0  0  0  0  0  0  0
   13.0682    9.7867   -4.6296 C   0  0  0  0  0  0  0  0  0  0  0  0
   11.8527    9.8820   -5.1496 N   0  0  0  0  0  0  0  0  0  0  0  0
   12.3434    9.7286   -2.2386 N   0  0  0  0  0  0  0  0  0  0  0  0
   13.0466    9.6462   -1.1046 C   0  0  0  0  0  0  0  0  0  0  0  0
   14.3492    9.5959   -1.3879 N   0  0  0  0  0  0  0  0  0  0  0  0
   11.7374    9.9286   -6.1262 H   0  0  0  0  0  0  0  0  0  0  0  0
   11.0653    9.9062   -4.5592 H   0  0  0  0  0  0  0  0  0  0  0  0
   17.9369    9.9062    0.8541 O   0  0  0  0  0  0  0  0  0  0  0  0
   16.8551   11.3162   -1.2596 O   0  0  0  0  0  0  0  0  0  0  0  0
   14.9344    9.1040    0.8998 O   0  0  0  0  0  0  0  0  0  0  0  0
   16.7637   10.6684    1.1340 C   0  0  0  0  0  0  0  0  0  0  0  0
   15.9965   10.9166   -0.1640 C   0  0  0  0  0  0  0  0  0  0  0  0
   15.7778    9.7748    1.9162 C   0  0  0  0  0  0  0  0  0  0  0  0
   15.4323    9.5067   -0.4091 C   0  0  0  0  0  0  0  0  0  0  0  0
   18.5685   10.4537    0.3619 H   0  0  0  0  0  0  0  0  0  0  0  0
   17.2024   12.2059   -1.0902 H   0  0  0  0  0  0  0  0  0  0  0  0
   15.8235   11.8189    3.8453 S   0  0  0  0  0  0  0  0  0  0  0  0
   14.8734   10.5883    2.8824 C   0  0  0  0  0  0  0  0  0  0  0  0
   14.9814   12.4974    4.6700 H   0  0  0  0  0  0  0  0  0  0  0  0
  1  2  2  0  0  0
  1  6  1  0  0  0
  2  3  1  0  0  0
  3  4  2  0  0  0
  4  5  1  0  0  0
  4 10  1  0  0  0
  5  6  2  0  0  0
  5  8  1  0  0  0
  6  7  1  0  0  0
  8  9  2  0  0  0
  9 10  1  0  0  0
 10 19  1  0  0  0
 13 16  1  0  0  0
 14 17  1  0  0  0
 22 23  1  0  0  0
 23 18  1  0  0  0
 15 18  1  0  0  0
 15 19  1  0  0  0
 16 17  1  0  0  0
 16 18  1  0  0  0
 17 19  1  0  0  0
  7 11  1  0  0  0
  7 12  1  0  0  0
 13 20  1  0  0  0
 14 21  1  0  0  0
 22 24  1  0  0  0
M  END
> <minimizedAffinity>
-8.23258

$$$$
3IOB_A4D_A_301


 24 26  0  0  0  0  0  0  0  0999 V2000
   13.4851    9.8471   -3.7538 N   0  0  0  0  0  0  0  0  0  0  0  0
   12.6214    9.7032   -2.7410 C   0  0  0  0  0  0  0  0  0  0  0  0
   13.0149    9.8516   -1.4723 N   0  0  0  0  0  0  0  0  0  0  0  0
   14.3079   10.1474   -1.1845 C   0  0  0  0  0  0  0  0  0  0  0  0
   15.2237   10.3068   -2.2191 C   0  0  0  0  0  0  0  0  0  0  0  0
   14.7843   10.1413   -3.5244 C   0  0  0  0  0  0  0  0  0  0  0  0
   15.6510   10.2710   -4.5188 N   0  0  0  0  0  0  0  0  0  0  0  0
   16.4085   10.5942   -1.6798 N   0  0  0  0  0  0  0  0  0  0  0  0
   16.2507   10.6271   -0.3527 C   0  0  0  0  0  0  0  0  0  0  0  0
   14.9812   10.3557   -0.0457 N   0  0  0  0  0  0  0  0  0  0  0  0
   15.3526   10.1562   -5.4500 H   0  0  0  0  0  0  0  0  0  0  0  0
   16.5931   10.4822   -4.3263 H   0  0  0  0  0  0  0  0  0  0  0  0
   12.9202    9.4232    3.5428 O   0  0  0  0  0  0  0  0  0  0  0  0
   13.4293    8.0541    1.1992 O   0  0  0  0  0  0  0  0  0  0  0  0
   15.2582   11.0175    2.2572 O   0  0  0  0  0  0  0  0  0  0  0  0
   14.2800    9.0664    3.2989 C   0  0  0  0  0  0  0  0  0  0  0  0
   14.4859    8.8400    1.8018 C   0  0  0  0  0  0  0  0  0  0  0  0
   15.1620   10.3072    3.5536 C   0  0  0  0  0  0  0  0  0  0  0  0
   14.4246   10.2947    1.3054 C   0  0  0  0  0  0  0  0  0  0  0  0
   12.3510    8.6534    3.3871 H   0  0  0  0  0  0  0  0  0  0  0  0
   13.4815    7.1408    1.5218 H   0  0  0  0  0  0  0  0  0  0  0  0
   16.5779    9.2663    5.7476 S   0  0  0  0  0  0  0  0  0  0  0  0
   16.5877    9.9347    4.0454 C   0  0  0  0  0  0  0  0  0  0  0  0
   17.8490    8.9596    6.1215 H   0  0  0  0  0  0  0  0  0  0  0  0
  1  2  2  0  0  0
  1  6  1  0  0  0
  2  3  1  0  0  0
  3  4  2  0  0  0
  4  5  1  0  0  0
  4 10  1  0  0  0
  5  6  2  0  0  0
  5  8  1  0  0  0
  6  7  1  0  0  0
  8  9  2  0  0  0
  9 10  1  0  0  0
 10 19  1  0  0  0
 13 16  1  0  0  0
 14 17  1  0  0  0
 22 23  1  0  0  0
 23 18  1  0  0  0
 15 18  1  0  0  0
 15 19  1  0  0  0
 16 17  1  0  0  0
 16 18  1  0  0  0
 17 19  1  0  0  0
  7 11  1  0  0  0
  7 12  1  0  0  0
 13 20  1  0  0  0
 14 21  1  0  0  0
 22 24  1  0  0  0
M  END
> <minimizedAffinity>
-8.00416

$$$$
3IOB_A4D_A_301


 24 26  0  0  0  0  0  0  0  0999 V2000
   14.7455   10.7755   -1.8877 N   0  0  0  0  0  0  0  0  0  0  0  0
   15.8003   10.9863   -1.0905 C   0  0  0  0  0  0  0  0  0  0  0  0
   15.7782   10.6191    0.1946 N   0  0  0  0  0  0  0  0  0  0  0  0
   14.6762   10.0266    0.7205 C   0  0  0  0  0  0  0  0  0  0  0  0
   13.5691    9.7922   -0.0881 C   0  0  0  0  0  0  0  0  0  0  0  0
   13.6224   10.1897   -1.4161 C   0  0  0  0  0  0  0  0  0  0  0  0
   12.5670    9.9901   -2.1927 N   0  0  0  0  0  0  0  0  0  0  0  0
   12.6329    9.2030    0.6560 N   0  0  0  0  0  0  0  0  0  0  0  0
   13.1290    9.0582    1.8888 C   0  0  0  0  0  0  0  0  0  0  0  0
   14.3656    9.5564    1.9355 N   0  0  0  0  0  0  0  0  0  0  0  0
   12.5913   10.2674   -3.1370 H   0  0  0  0  0  0  0  0  0  0  0  0
   11.7589    9.5646   -1.8252 H   0  0  0  0  0  0  0  0  0  0  0  0
   17.0570   10.5122    5.0720 O   0  0  0  0  0  0  0  0  0  0  0  0
   15.6920   11.9936    3.1830 O   0  0  0  0  0  0  0  0  0  0  0  0
   14.8353    8.5741    4.0878 O   0  0  0  0  0  0  0  0  0  0  0  0
   15.6376   10.5613    5.2085 C   0  0  0  0  0  0  0  0  0  0  0  0
   15.0086   10.9115    3.8606 C   0  0  0  0  0  0  0  0  0  0  0  0
   15.1201    9.1245    5.4332 C   0  0  0  0  0  0  0  0  0  0  0  0
   15.2301    9.5844    3.1148 C   0  0  0  0  0  0  0  0  0  0  0  0
   17.3993   11.4085    4.9298 H   0  0  0  0  0  0  0  0  0  0  0  0
   15.5428   12.8222    3.6648 H   0  0  0  0  0  0  0  0  0  0  0  0
   13.9202   10.2049    7.7343 S   0  0  0  0  0  0  0  0  0  0  0  0
   13.8265    9.0841    6.2922 C   0  0  0  0  0  0  0  0  0  0  0  0
   12.7635   10.1264    8.4453 H   0  0  0  0  0  0  0  0  0  0  0  0
  1  2  2  0  0  0
  1  6  1  0  0  0
  2  3  1  0  0  0
  3  4  2  0  0  0
  4  5  1  0  0  0
  4 10  1  0  0  0
  5  6  2  0  0  0
  5  8  1  0  0  0
  6  7  1  0  0  0
  8  9  2  0  0  0
  9 10  1  0  0  0
 10 19  1  0  0  0
 13 16  1  0  0  0
 14 17  1  0  0  0
 22 23  1  0  0  0
 23 18  1  0  0  0
 15 18  1  0  0  0
 15 19  1  0  0  0
 16 17  1  0  0  0
 16 18  1  0  0  0
 17 19  1  0  0  0
  7 11  1  0  0  0
  7 12  1  0  0  0
 13 20  1  0  0  0
 14 21  1  0  0  0
 22 24  1  0  0  0
M  END
> <minimizedAffinity>
-7.82306

$$$$
3IOB_A4D_A_301


 24 26  0  0  0  0  0  0  0  0999 V2000
   17.6541   11.3727   -0.7404 N   0  0  0  0  0  0  0  0  0  0  0  0
   16.3826   11.0059   -0.5377 C   0  0  0  0  0  0  0  0  0  0  0  0
   15.9050   10.8257    0.6976 N   0  0  0  0  0  0  0  0  0  0  0  0
   16.7073   11.0071    1.7772 C   0  0  0  0  0  0  0  0  0  0  0  0
   18.0309   11.3929    1.5935 C   0  0  0  0  0  0  0  0  0  0  0  0
   18.4968   11.5667    0.2985 C   0  0  0  0  0  0  0  0  0  0  0  0
   19.7614   11.9152    0.1086 N   0  0  0  0  0  0  0  0  0  0  0  0
   18.5973   11.5068    2.7949 N   0  0  0  0  0  0  0  0  0  0  0  0
   17.6667   11.2149    3.7092 C   0  0  0  0  0  0  0  0  0  0  0  0
   16.5200   10.9097    3.0997 N   0  0  0  0  0  0  0  0  0  0  0  0
   20.1052   12.0419   -0.8052 H   0  0  0  0  0  0  0  0  0  0  0  0
   20.3570   12.0473    0.8813 H   0  0  0  0  0  0  0  0  0  0  0  0
   12.8564    9.1733    4.3478 O   0  0  0  0  0  0  0  0  0  0  0  0
   14.8560    8.4120    2.6018 O   0  0  0  0  0  0  0  0  0  0  0  0
   15.2568   10.9760    5.1535 O   0  0  0  0  0  0  0  0  0  0  0  0
   14.1193    8.8536    4.9298 C   0  0  0  0  0  0  0  0  0  0  0  0
   15.2164    8.9982    3.8760 C   0  0  0  0  0  0  0  0  0  0  0  0
   14.4923    9.9707    5.9275 C   0  0  0  0  0  0  0  0  0  0  0  0
   15.2742   10.5315    3.7659 C   0  0  0  0  0  0  0  0  0  0  0  0
   12.6064    8.4802    3.7169 H   0  0  0  0  0  0  0  0  0  0  0  0
   14.8238    7.4463    2.6877 H   0  0  0  0  0  0  0  0  0  0  0  0
   14.6889    7.9214    7.8416 S   0  0  0  0  0  0  0  0  0  0  0  0
   15.3641    9.4526    7.1042 C   0  0  0  0  0  0  0  0  0  0  0  0
   15.4916    7.5176    8.8625 H   0  0  0  0  0  0  0  0  0  0  0  0
  1  2  2  0  0  0
  1  6  1  0  0  0
  2  3  1  0  0  0
  3  4  2  0  0  0
  4  5  1  0  0  0
  4 10  1  0  0  0
  5  6  2  0  0  0
  5  8  1  0  0  0
  6  7  1  0  0  0
  8  9  2  0  0  0
  9 10  1  0  0  0
 10 19  1  0  0  0
 13 16  1  0  0  0
 14 17  1  0  0  0
 22 23  1  0  0  0
 23 18  1  0  0  0
 15 18  1  0  0  0
 15 19  1  0  0  0
 16 17  1  0  0  0
 16 18  1  0  0  0
 17 19  1  0  0  0
  7 11  1  0  0  0
  7 12  1  0  0  0
 13 20  1  0  0  0
 14 21  1  0  0  0
 22 24  1  0  0  0
M  END
> <minimizedAffinity>
-7.52583

$$$$
3IOB_A4D_A_301


 24 26  0  0  0  0  0  0  0  0999 V2000
   15.4633   11.0734    4.8608 N   0  0  0  0  0  0  0  0  0  0  0  0
   16.1282   11.6552    3.8549 C   0  0  0  0  0  0  0  0  0  0  0  0
   15.7882   11.4307    2.5819 N   0  0  0  0  0  0  0  0  0  0  0  0
   14.7588   10.5984    2.2827 C   0  0  0  0  0  0  0  0  0  0  0  0
   14.0490    9.9854    3.3098 C   0  0  0  0  0  0  0  0  0  0  0  0
   14.4303   10.2355    4.6199 C   0  0  0  0  0  0  0  0  0  0  0  0
   13.7749    9.6424    5.6076 N   0  0  0  0  0  0  0  0  0  0  0  0
   13.0973    9.2311    2.7597 N   0  0  0  0  0  0  0  0  0  0  0  0
   13.1909    9.3670    1.4331 C   0  0  0  0  0  0  0  0  0  0  0  0
   14.1962   10.1923    1.1372 N   0  0  0  0  0  0  0  0  0  0  0  0
   14.0350    9.8110    6.5420 H   0  0  0  0  0  0  0  0  0  0  0  0
   13.0280    9.0333    5.4068 H   0  0  0  0  0  0  0  0  0  0  0  0
   16.1844   10.8604   -2.5500 O   0  0  0  0  0  0  0  0  0  0  0  0
   16.5908    9.1480   -0.4219 O   0  0  0  0  0  0  0  0  0  0  0  0
   13.4629   10.8998   -1.0491 O   0  0  0  0  0  0  0  0  0  0  0  0
   15.2019    9.8440   -2.3568 C   0  0  0  0  0  0  0  0  0  0  0  0
   15.2435    9.3654   -0.9062 C   0  0  0  0  0  0  0  0  0  0  0  0
   13.8051   10.4965   -2.4328 C   0  0  0  0  0  0  0  0  0  0  0  0
   14.6111   10.5826   -0.2099 C   0  0  0  0  0  0  0  0  0  0  0  0
   17.0699   10.4668   -2.5052 H   0  0  0  0  0  0  0  0  0  0  0  0
   16.9752    8.3783   -0.8699 H   0  0  0  0  0  0  0  0  0  0  0  0
   13.3613    8.4403   -4.2975 S   0  0  0  0  0  0  0  0  0  0  0  0
   12.7205    9.5227   -2.9700 C   0  0  0  0  0  0  0  0  0  0  0  0
   12.3702    7.6133   -4.7260 H   0  0  0  0  0  0  0  0  0  0  0  0
  1  2  2  0  0  0
  1  6  1  0  0  0
  2  3  1  0  0  0
  3  4  2  0  0  0
  4  5  1  0  0  0
  4 10  1  0  0  0
  5  6  2  0  0  0
  5  8  1  0  0  0
  6  7  1  0  0  0
  8  9  2  0  0  0
  9 10  1  0  0  0
 10 19  1  0  0  0
 13 16  1  0  0  0
 14 17  1  0  0  0
 22 23  1  0  0  0
 23 18  1  0  0  0
 15 18  1  0  0  0
 15 19  1  0  0  0
 16 17  1  0  0  0
 16 18  1  0  0  0
 17 19  1  0  0  0
  7 11  1  0  0  0
  7 12  1  0  0  0
 13 20  1  0  0  0
 14 21  1  0  0  0
 22 24  1  0  0  0
M  END
> <minimizedAffinity>
-7.34826

$$$$
3IOB_A4D_A_301


 24 26  0  0  0  0  0  0  0  0999 V2000
   19.5023   11.0905    2.3300 N   0  0  0  0  0  0  0  0  0  0  0  0
   18.5728   10.6084    3.1643 C   0  0  0  0  0  0  0  0  0  0  0  0
   17.3241   10.3776    2.7471 N   0  0  0  0  0  0  0  0  0  0  0  0
   16.9709   10.6348    1.4621 C   0  0  0  0  0  0  0  0  0  0  0  0
   17.9194   11.1314    0.5743 C   0  0  0  0  0  0  0  0  0  0  0  0
   19.2051   11.3645    1.0401 C   0  0  0  0  0  0  0  0  0  0  0  0
   20.1136   11.8562    0.2096 N   0  0  0  0  0  0  0  0  0  0  0  0
   17.3300   11.2925   -0.6106 N   0  0  0  0  0  0  0  0  0  0  0  0
   16.0574   10.9032   -0.4846 C   0  0  0  0  0  0  0  0  0  0  0  0
   15.8326   10.5052    0.7686 N   0  0  0  0  0  0  0  0  0  0  0  0
   21.0298   12.0265    0.5271 H   0  0  0  0  0  0  0  0  0  0  0  0
   19.8721   12.0511   -0.7247 H   0  0  0  0  0  0  0  0  0  0  0  0
   12.2455    8.4139    1.6369 O   0  0  0  0  0  0  0  0  0  0  0  0
   14.5267    7.8171    0.1995 O   0  0  0  0  0  0  0  0  0  0  0  0
   14.3116   10.5078    2.6407 O   0  0  0  0  0  0  0  0  0  0  0  0
   13.4483    8.2628    2.3894 C   0  0  0  0  0  0  0  0  0  0  0  0
   14.6520    8.4898    1.4758 C   0  0  0  0  0  0  0  0  0  0  0  0
   13.5650    9.4532    3.3650 C   0  0  0  0  0  0  0  0  0  0  0  0
   14.5582   10.0142    1.2921 C   0  0  0  0  0  0  0  0  0  0  0  0
   12.1564    7.6727    1.0176 H   0  0  0  0  0  0  0  0  0  0  0  0
   14.5878    6.8581    0.3322 H   0  0  0  0  0  0  0  0  0  0  0  0
   15.0379   10.5534    5.4915 S   0  0  0  0  0  0  0  0  0  0  0  0
   14.3260    9.0839    4.6680 C   0  0  0  0  0  0  0  0  0  0  0  0
   15.6892   10.1686    6.6217 H   0  0  0  0  0  0  0  0  0  0  0  0
  1  2  2  0  0  0
  1  6  1  0  0  0
  2  3  1  0  0  0
  3  4  2  0  0  0
  4  5  1  0  0  0
  4 10  1  0  0  0
  5  6  2  0  0  0
  5  8  1  0  0  0
  6  7  1  0  0  0
  8  9  2  0  0  0
  9 10  1  0  0  0
 10 19  1  0  0  0
 13 16  1  0  0  0
 14 17  1  0  0  0
 22 23  1  0  0  0
 23 18  1  0  0  0
 15 18  1  0  0  0
 15 19  1  0  0  0
 16 17  1  0  0  0
 16 18  1  0  0  0
 17 19  1  0  0  0
  7 11  1  0  0  0
  7 12  1  0  0  0
 13 20  1  0  0  0
 14 21  1  0  0  0
 22 24  1  0  0  0
M  END
> <minimizedAffinity>
-7.18809

$$$$
3IOB_A4D_A_301


 24 26  0  0  0  0  0  0  0  0999 V2000
   16.7929    9.1851    6.2402 N   0  0  0  0  0  0  0  0  0  0  0  0
   17.4379    9.8996    5.3096 C   0  0  0  0  0  0  0  0  0  0  0  0
   16.8737   10.1606    4.1263 N   0  0  0  0  0  0  0  0  0  0  0  0
   15.6298    9.6982    3.8418 C   0  0  0  0  0  0  0  0  0  0  0  0
   14.9369    8.9576    4.7936 C   0  0  0  0  0  0  0  0  0  0  0  0
   15.5525    8.7001    6.0098 C   0  0  0  0  0  0  0  0  0  0  0  0
   14.9111    7.9789    6.9182 N   0  0  0  0  0  0  0  0  0  0  0  0
   13.7521    8.6296    4.2778 N   0  0  0  0  0  0  0  0  0  0  0  0
   13.6889    9.1507    3.0484 C   0  0  0  0  0  0  0  0  0  0  0  0
   14.8235    9.7977    2.7771 N   0  0  0  0  0  0  0  0  0  0  0  0
   15.3363    7.7886    7.7856 H   0  0  0  0  0  0  0  0  0  0  0  0
   14.0095    7.6335    6.7257 H   0  0  0  0  0  0  0  0  0  0  0  0
   16.5932   11.5427   -0.6606 O   0  0  0  0  0  0  0  0  0  0  0  0
   17.4209    9.6754    1.1979 O   0  0  0  0  0  0  0  0  0  0  0  0
   13.9464   10.6327    0.6911 O   0  0  0  0  0  0  0  0  0  0  0  0
   15.9125   10.2888   -0.6744 C   0  0  0  0  0  0  0  0  0  0  0  0
   16.0678    9.6106    0.6861 C   0  0  0  0  0  0  0  0  0  0  0  0
   14.3936   10.5599   -0.7192 C   0  0  0  0  0  0  0  0  0  0  0  0
   15.1310   10.4937    1.5281 C   0  0  0  0  0  0  0  0  0  0  0  0
   17.5507   11.3905   -0.6324 H   0  0  0  0  0  0  0  0  0  0  0  0
   17.9984    9.1142    0.6571 H   0  0  0  0  0  0  0  0  0  0  0  0
   13.6325    9.6523   -3.2685 S   0  0  0  0  0  0  0  0  0  0  0  0
   13.6090    9.4376   -1.4525 C   0  0  0  0  0  0  0  0  0  0  0  0
   12.9322    8.6438   -3.8533 H   0  0  0  0  0  0  0  0  0  0  0  0
  1  2  2  0  0  0
  1  6  1  0  0  0
  2  3  1  0  0  0
  3  4  2  0  0  0
  4  5  1  0  0  0
  4 10  1  0  0  0
  5  6  2  0  0  0
  5  8  1  0  0  0
  6  7  1  0  0  0
  8  9  2  0  0  0
  9 10  1  0  0  0
 10 19  1  0  0  0
 13 16  1  0  0  0
 14 17  1  0  0  0
 22 23  1  0  0  0
 23 18  1  0  0  0
 15 18  1  0  0  0
 15 19  1  0  0  0
 16 17  1  0  0  0
 16 18  1  0  0  0
 17 19  1  0  0  0
  7 11  1  0  0  0
  7 12  1  0  0  0
 13 20  1  0  0  0
 14 21  1  0  0  0
 22 24  1  0  0  0
M  END
> <minimizedAffinity>
-7.11291

$$$$
3IOB_A4D_A_301


 24 26  0  0  0  0  0  0  0  0999 V2000
   13.1507    9.5529   -0.8269 N   0  0  0  0  0  0  0  0  0  0  0  0
   13.3012    9.2760    0.4743 C   0  0  0  0  0  0  0  0  0  0  0  0
   14.4280    9.5905    1.1208 N   0  0  0  0  0  0  0  0  0  0  0  0
   15.4502   10.1957    0.4644 C   0  0  0  0  0  0  0  0  0  0  0  0
   15.3168   10.4985   -0.8866 C   0  0  0  0  0  0  0  0  0  0  0  0
   14.1366   10.1544   -1.5293 C   0  0  0  0  0  0  0  0  0  0  0  0
   14.0039   10.4194   -2.8212 N   0  0  0  0  0  0  0  0  0  0  0  0
   16.4433   11.0861   -1.2903 N   0  0  0  0  0  0  0  0  0  0  0  0
   17.2588   11.1641   -0.2339 C   0  0  0  0  0  0  0  0  0  0  0  0
   16.6644   10.6252    0.8318 N   0  0  0  0  0  0  0  0  0  0  0  0
   13.1717   10.1806   -3.2898 H   0  0  0  0  0  0  0  0  0  0  0  0
   14.7377   10.8551   -3.3122 H   0  0  0  0  0  0  0  0  0  0  0  0
   18.4107   11.2564    4.6458 O   0  0  0  0  0  0  0  0  0  0  0  0
   17.2027   12.8974    2.7818 O   0  0  0  0  0  0  0  0  0  0  0  0
   16.8622    9.2741    2.8201 O   0  0  0  0  0  0  0  0  0  0  0  0
   17.0120   11.0624    4.4412 C   0  0  0  0  0  0  0  0  0  0  0  0
   16.6189   11.6032    3.0672 C   0  0  0  0  0  0  0  0  0  0  0  0
   16.7501    9.5508    4.2710 C   0  0  0  0  0  0  0  0  0  0  0  0
   17.2443   10.5211    2.1704 C   0  0  0  0  0  0  0  0  0  0  0  0
   18.5933   12.2028    4.7548 H   0  0  0  0  0  0  0  0  0  0  0  0
   16.7985   13.5678    3.3546 H   0  0  0  0  0  0  0  0  0  0  0  0
   14.7494   10.1861    6.1407 S   0  0  0  0  0  0  0  0  0  0  0  0
   15.3403    9.1301    4.7696 C   0  0  0  0  0  0  0  0  0  0  0  0
   13.5152    9.7711    6.5332 H   0  0  0  0  0  0  0  0  0  0  0  0
  1  2  2  0  0  0
  1  6  1  0  0  0
  2  3  1  0  0  0
  3  4  2  0  0  0
  4  5  1  0  0  0
  4 10  1  0  0  0
  5  6  2  0  0  0
  5  8  1  0  0  0
  6  7  1  0  0  0
  8  9  2  0  0  0
  9 10  1  0  0  0
 10 19  1  0  0  0
 13 16  1  0  0  0
 14 17  1  0  0  0
 22 23  1  0  0  0
 23 18  1  0  0  0
 15 18  1  0  0  0
 15 19  1  0  0  0
 16 17  1  0  0  0
 16 18  1  0  0  0
 17 19  1  0  0  0
  7 11  1  0  0  0
  7 12  1  0  0  0
 13 20  1  0  0  0
 14 21  1  0  0  0
 22 24  1  0  0  0
M  END
> <minimizedAffinity>
-6.96973

$$$$
3IOB_A4D_A_301


 24 26  0  0  0  0  0  0  0  0999 V2000
   17.4180    8.7525    6.3601 N   0  0  0  0  0  0  0  0  0  0  0  0
   17.9663    8.3010    5.2252 C   0  0  0  0  0  0  0  0  0  0  0  0
   17.2721    8.2830    4.0830 N   0  0  0  0  0  0  0  0  0  0  0  0
   15.9875    8.7199    4.0534 C   0  0  0  0  0  0  0  0  0  0  0  0
   15.3966    9.1984    5.2180 C   0  0  0  0  0  0  0  0  0  0  0  0
   16.1425    9.1991    6.3876 C   0  0  0  0  0  0  0  0  0  0  0  0
   15.5852    9.6341    7.5087 N   0  0  0  0  0  0  0  0  0  0  0  0
   14.1489    9.5662    4.9258 N   0  0  0  0  0  0  0  0  0  0  0  0
   13.9563    9.3403    3.6224 C   0  0  0  0  0  0  0  0  0  0  0  0
   15.0652    8.8262    3.0881 N   0  0  0  0  0  0  0  0  0  0  0  0
   16.1032    9.6400    8.3459 H   0  0  0  0  0  0  0  0  0  0  0  0
   14.6531    9.9512    7.5042 H   0  0  0  0  0  0  0  0  0  0  0  0
   15.0154    6.9964   -0.7386 O   0  0  0  0  0  0  0  0  0  0  0  0
   13.5002    6.7167    1.5531 O   0  0  0  0  0  0  0  0  0  0  0  0
   15.6381    9.5818    0.8703 O   0  0  0  0  0  0  0  0  0  0  0  0
   14.1906    8.1053   -0.3840 C   0  0  0  0  0  0  0  0  0  0  0  0
   13.8705    8.0444    1.1089 C   0  0  0  0  0  0  0  0  0  0  0  0
   15.0398    9.3912   -0.4714 C   0  0  0  0  0  0  0  0  0  0  0  0
   15.2390    8.4433    1.6873 C   0  0  0  0  0  0  0  0  0  0  0  0
   14.4964    6.1784   -0.6889 H   0  0  0  0  0  0  0  0  0  0  0  0
   12.6364    6.4803    1.1804 H   0  0  0  0  0  0  0  0  0  0  0  0
   12.8826   10.2509   -2.0555 S   0  0  0  0  0  0  0  0  0  0  0  0
   14.1940   10.6404   -0.8419 C   0  0  0  0  0  0  0  0  0  0  0  0
   12.1784   11.3791   -2.3397 H   0  0  0  0  0  0  0  0  0  0  0  0
  1  2  2  0  0  0
  1  6  1  0  0  0
  2  3  1  0  0  0
  3  4  2  0  0  0
  4  5  1  0  0  0
  4 10  1  0  0  0
  5  6  2  0  0  0
  5  8  1  0  0  0
  6  7  1  0  0  0
  8  9  2  0  0  0
  9 10  1  0  0  0
 10 19  1  0  0  0
 13 16  1  0  0  0
 14 17  1  0  0  0
 22 23  1  0  0  0
 23 18  1  0  0  0
 15 18  1  0  0  0
 15 19  1  0  0  0
 16 17  1  0  0  0
 16 18  1  0  0  0
 17 19  1  0  0  0
  7 11  1  0  0  0
  7 12  1  0  0  0
 13 20  1  0  0  0
 14 21  1  0  0  0
 22 24  1  0  0  0
M  END
> <minimizedAffinity>
-6.86864

$$$$
