5LLO_5EF_A_303


 33 35  0  0  0  0  0  0  0  0999 V2000
   23.5710    3.8356   12.0180 C   0  0  0  0  0  0  0  0  0  0  0  0
   22.3474    3.3268   12.3643 F   0  0  0  0  0  0  0  0  0  0  0  0
   24.2481    3.4311   10.8687 C   0  0  0  0  0  0  0  0  0  0  0  0
   23.4018    5.1051   14.0337 F   0  0  0  0  0  0  0  0  0  0  0  0
   26.1889    3.6055    9.6414 F   0  0  0  0  0  0  0  0  0  0  0  0
   25.3187    5.3267   12.6663 C   0  0  0  0  0  0  0  0  0  0  0  0
   24.0589    4.7648   12.9150 C   0  0  0  0  0  0  0  0  0  0  0  0
   26.0451    4.9510   11.5373 C   0  0  0  0  0  0  0  0  0  0  0  0
   25.5070    4.0258   10.6728 C   0  0  0  0  0  0  0  0  0  0  0  0
   23.6229    2.1813    9.7637 S   0  0  0  0  0  0  0  0  0  0  0  0
   22.3034    1.6628   10.2445 O   0  0  0  0  0  0  0  0  0  0  0  0
   23.4376    2.7596    8.2298 N   0  0  0  0  0  0  0  0  0  0  0  0
   24.6108    1.0215    9.7214 O   0  0  0  0  0  0  0  0  0  0  0  0
   22.7786    3.5381    8.2373 H   0  0  0  0  0  0  0  0  0  0  0  0
   23.0808    2.0178    7.6276 H   0  0  0  0  0  0  0  0  0  0  0  0
   27.3580    7.0585   13.4973 O   0  0  0  0  0  0  0  0  0  0  0  0
   25.9052    6.5742   13.8223 S   0  0  0  0  0  0  0  0  0  0  0  0
   26.1122    5.8515   15.1511 O   0  0  0  0  0  0  0  0  0  0  0  0
   24.8888    8.0301   14.1216 C   0  0  0  0  0  0  0  0  0  0  0  0
   26.4523    8.6421   15.7366 O   0  0  0  0  0  0  0  0  0  0  0  0
   25.7723    9.1428   14.6227 C   0  0  0  0  0  0  0  0  0  0  0  0
   27.0366    9.3287   16.0943 H   0  0  0  0  0  0  0  0  0  0  0  0
   27.3160    5.5378   11.1812 N   0  0  0  0  0  0  0  0  0  0  0  0
   28.0969    5.3868   11.7614 H   0  0  0  0  0  0  0  0  0  0  0  0
   27.4678    6.3652    9.9555 C   0  0  0  0  0  0  0  0  0  0  0  0
   26.5241    7.5898    9.9958 C   0  0  0  0  0  0  0  0  0  0  0  0
   27.2882    8.7317    9.2623 C   0  0  0  0  0  0  0  0  0  0  0  0
   28.6509    8.3816    9.7093 C   0  0  0  0  0  0  0  0  0  0  0  0
   29.7759    9.2430    9.7798 C   0  0  0  0  0  0  0  0  0  0  0  0
   31.0224    8.7724   10.2710 C   0  0  0  0  0  0  0  0  0  0  0  0
   31.1367    7.4067   10.6865 C   0  0  0  0  0  0  0  0  0  0  0  0
   29.9862    6.5822   10.5834 C   0  0  0  0  0  0  0  0  0  0  0  0
   28.7748    7.0683   10.0784 C   0  0  0  0  0  0  0  0  0  0  0  0
 30 29  2  0  0  0
 30 31  1  0  0  0
 29 28  1  0  0  0
 31 32  2  0  0  0
 28 27  1  0  0  0
 28 33  2  0  0  0
 20 21  1  0  0  0
 27 26  1  0  0  0
 32 33  1  0  0  0
 21 19  1  0  0  0
 33 25  1  0  0  0
 26 25  1  0  0  0
 19 17  1  0  0  0
 25 23  1  0  0  0
 18 17  2  0  0  0
 17  6  1  0  0  0
 17 16  2  0  0  0
 23  8  1  0  0  0
  8  6  2  0  0  0
  8  9  1  0  0  0
  6  7  1  0  0  0
  7  4  1  0  0  0
  7  1  2  0  0  0
  5  9  1  0  0  0
  9  3  2  0  0  0
  1  3  1  0  0  0
  1  2  1  0  0  0
  3 10  1  0  0  0
 12 10  1  0  0  0
 10 11  2  0  0  0
 10 13  2  0  0  0
 20 22  1  0  0  0
 12 14  1  0  0  0
 12 15  1  0  0  0
 23 24  1  0  0  0
M  END
> <minimizedAffinity>
-9.08398

$$$$
5LLO_5EF_A_303


 33 35  0  0  0  0  0  0  0  0999 V2000
   24.1459    8.0767   15.2899 C   0  0  0  0  0  0  0  0  0  0  0  0
   23.4213    7.9386   16.4440 F   0  0  0  0  0  0  0  0  0  0  0  0
   24.7973    9.2631   14.9565 C   0  0  0  0  0  0  0  0  0  0  0  0
   23.4848    5.8284   14.8302 F   0  0  0  0  0  0  0  0  0  0  0  0
   26.0261   10.3763   13.3583 F   0  0  0  0  0  0  0  0  0  0  0  0
   24.8459    6.9894   13.2835 C   0  0  0  0  0  0  0  0  0  0  0  0
   24.1542    6.9433   14.5016 C   0  0  0  0  0  0  0  0  0  0  0  0
   25.5067    8.1536   12.8943 C   0  0  0  0  0  0  0  0  0  0  0  0
   25.4718    9.2515   13.7228 C   0  0  0  0  0  0  0  0  0  0  0  0
   24.7147   10.7311   15.9625 S   0  0  0  0  0  0  0  0  0  0  0  0
   25.7437   11.7279   15.5285 O   0  0  0  0  0  0  0  0  0  0  0  0
   23.2266   11.4393   15.8881 N   0  0  0  0  0  0  0  0  0  0  0  0
   24.9917   10.3515   17.4123 O   0  0  0  0  0  0  0  0  0  0  0  0
   23.0225   11.7011   14.9237 H   0  0  0  0  0  0  0  0  0  0  0  0
   23.2170   12.2728   16.4760 H   0  0  0  0  0  0  0  0  0  0  0  0
   26.2770    4.7668   12.3557 O   0  0  0  0  0  0  0  0  0  0  0  0
   24.8852    5.4816   12.3028 S   0  0  0  0  0  0  0  0  0  0  0  0
   24.8240    5.9275   10.8440 O   0  0  0  0  0  0  0  0  0  0  0  0
   23.6116    4.2368   12.5687 C   0  0  0  0  0  0  0  0  0  0  0  0
   22.2686    4.2401   10.6652 O   0  0  0  0  0  0  0  0  0  0  0  0
   23.3274    3.5475   11.2595 C   0  0  0  0  0  0  0  0  0  0  0  0
   22.0502    3.8286    9.8144 H   0  0  0  0  0  0  0  0  0  0  0  0
   26.2956    8.2517   11.6884 N   0  0  0  0  0  0  0  0  0  0  0  0
   25.8525    8.1655   10.8134 H   0  0  0  0  0  0  0  0  0  0  0  0
   27.7634    8.4804   11.7426 C   0  0  0  0  0  0  0  0  0  0  0  0
   28.4328    7.5307   12.7633 C   0  0  0  0  0  0  0  0  0  0  0  0
   29.8395    7.2099   12.1769 C   0  0  0  0  0  0  0  0  0  0  0  0
   29.4645    7.1976   10.7491 C   0  0  0  0  0  0  0  0  0  0  0  0
   30.1482    6.5460    9.6906 C   0  0  0  0  0  0  0  0  0  0  0  0
   29.6440    6.5893    8.3637 C   0  0  0  0  0  0  0  0  0  0  0  0
   28.4362    7.3124    8.1008 C   0  0  0  0  0  0  0  0  0  0  0  0
   27.7976    7.9583    9.1912 C   0  0  0  0  0  0  0  0  0  0  0  0
   28.3270    7.9139   10.4860 C   0  0  0  0  0  0  0  0  0  0  0  0
 30 29  2  0  0  0
 30 31  1  0  0  0
 29 28  1  0  0  0
 31 32  2  0  0  0
 28 27  1  0  0  0
 28 33  2  0  0  0
 20 21  1  0  0  0
 27 26  1  0  0  0
 32 33  1  0  0  0
 21 19  1  0  0  0
 33 25  1  0  0  0
 26 25  1  0  0  0
 19 17  1  0  0  0
 25 23  1  0  0  0
 18 17  2  0  0  0
 17  6  1  0  0  0
 17 16  2  0  0  0
 23  8  1  0  0  0
  8  6  2  0  0  0
  8  9  1  0  0  0
  6  7  1  0  0  0
  7  4  1  0  0  0
  7  1  2  0  0  0
  5  9  1  0  0  0
  9  3  2  0  0  0
  1  3  1  0  0  0
  1  2  1  0  0  0
  3 10  1  0  0  0
 12 10  1  0  0  0
 10 11  2  0  0  0
 10 13  2  0  0  0
 20 22  1  0  0  0
 12 14  1  0  0  0
 12 15  1  0  0  0
 23 24  1  0  0  0
M  END
> <minimizedAffinity>
-8.05840

$$$$
5LLO_5EF_A_303


 33 35  0  0  0  0  0  0  0  0999 V2000
   23.8337    7.7424   15.0118 C   0  0  0  0  0  0  0  0  0  0  0  0
   22.8687    7.5042   15.9540 F   0  0  0  0  0  0  0  0  0  0  0  0
   24.5390    6.7129   14.3907 C   0  0  0  0  0  0  0  0  0  0  0  0
   23.3713   10.0535   15.3972 F   0  0  0  0  0  0  0  0  0  0  0  0
   26.2396    6.1798   12.9322 F   0  0  0  0  0  0  0  0  0  0  0  0
   25.0256    9.4357   13.8241 C   0  0  0  0  0  0  0  0  0  0  0  0
   24.0384    9.0834   14.7546 C   0  0  0  0  0  0  0  0  0  0  0  0
   25.7692    8.4475   13.1805 C   0  0  0  0  0  0  0  0  0  0  0  0
   25.5177    7.1261   13.4696 C   0  0  0  0  0  0  0  0  0  0  0  0
   24.2989    4.9936   14.7907 S   0  0  0  0  0  0  0  0  0  0  0  0
   23.8780    4.2227   13.5785 O   0  0  0  0  0  0  0  0  0  0  0  0
   25.6708    4.3115   15.4023 N   0  0  0  0  0  0  0  0  0  0  0  0
   23.1997    4.8804   15.8404 O   0  0  0  0  0  0  0  0  0  0  0  0
   26.4197    4.3775   14.7130 H   0  0  0  0  0  0  0  0  0  0  0  0
   25.4948    3.3307   15.6203 H   0  0  0  0  0  0  0  0  0  0  0  0
   24.9754   11.5291   11.9631 O   0  0  0  0  0  0  0  0  0  0  0  0
   25.2330   11.1871   13.4689 S   0  0  0  0  0  0  0  0  0  0  0  0
   26.7283   11.4674   13.5962 O   0  0  0  0  0  0  0  0  0  0  0  0
   24.3437   12.3899   14.4712 C   0  0  0  0  0  0  0  0  0  0  0  0
   22.3748   12.1044   13.2594 O   0  0  0  0  0  0  0  0  0  0  0  0
   23.3176   13.0759   13.6075 C   0  0  0  0  0  0  0  0  0  0  0  0
   21.6906   12.5038   12.6996 H   0  0  0  0  0  0  0  0  0  0  0  0
   26.7524    8.7329   12.1617 N   0  0  0  0  0  0  0  0  0  0  0  0
   27.5862    9.1933   12.4111 H   0  0  0  0  0  0  0  0  0  0  0  0
   26.5301    8.3450   10.7440 C   0  0  0  0  0  0  0  0  0  0  0  0
   26.6024    9.5800    9.8159 C   0  0  0  0  0  0  0  0  0  0  0  0
   27.2125    9.0641    8.4790 C   0  0  0  0  0  0  0  0  0  0  0  0
   28.1378    8.0664    9.0516 C   0  0  0  0  0  0  0  0  0  0  0  0
   29.3099    7.5417    8.4490 C   0  0  0  0  0  0  0  0  0  0  0  0
   30.1290    6.6106    9.1411 C   0  0  0  0  0  0  0  0  0  0  0  0
   29.7509    6.1946   10.4582 C   0  0  0  0  0  0  0  0  0  0  0  0
   28.5623    6.7382   11.0113 C   0  0  0  0  0  0  0  0  0  0  0  0
   27.7644    7.6408   10.2989 C   0  0  0  0  0  0  0  0  0  0  0  0
 30 29  2  0  0  0
 30 31  1  0  0  0
 29 28  1  0  0  0
 31 32  2  0  0  0
 28 27  1  0  0  0
 28 33  2  0  0  0
 20 21  1  0  0  0
 27 26  1  0  0  0
 32 33  1  0  0  0
 21 19  1  0  0  0
 33 25  1  0  0  0
 26 25  1  0  0  0
 19 17  1  0  0  0
 25 23  1  0  0  0
 18 17  2  0  0  0
 17  6  1  0  0  0
 17 16  2  0  0  0
 23  8  1  0  0  0
  8  6  2  0  0  0
  8  9  1  0  0  0
  6  7  1  0  0  0
  7  4  1  0  0  0
  7  1  2  0  0  0
  5  9  1  0  0  0
  9  3  2  0  0  0
  1  3  1  0  0  0
  1  2  1  0  0  0
  3 10  1  0  0  0
 12 10  1  0  0  0
 10 11  2  0  0  0
 10 13  2  0  0  0
 20 22  1  0  0  0
 12 14  1  0  0  0
 12 15  1  0  0  0
 23 24  1  0  0  0
M  END
> <minimizedAffinity>
-7.91348

$$$$
5LLO_5EF_A_303


 33 35  0  0  0  0  0  0  0  0999 V2000
   23.9108    7.7246   15.1210 C   0  0  0  0  0  0  0  0  0  0  0  0
   23.1991    7.4478   16.2580 F   0  0  0  0  0  0  0  0  0  0  0  0
   24.4052    6.7216   14.2887 C   0  0  0  0  0  0  0  0  0  0  0  0
   23.6391   10.0160   15.7365 F   0  0  0  0  0  0  0  0  0  0  0  0
   25.6753    6.2459   12.4276 F   0  0  0  0  0  0  0  0  0  0  0  0
   24.8333    9.4639   13.7712 C   0  0  0  0  0  0  0  0  0  0  0  0
   24.0932    9.0745   14.8960 C   0  0  0  0  0  0  0  0  0  0  0  0
   25.3606    8.5028   12.9099 C   0  0  0  0  0  0  0  0  0  0  0  0
   25.1415    7.1714   13.1785 C   0  0  0  0  0  0  0  0  0  0  0  0
   24.2102    4.9859   14.6398 S   0  0  0  0  0  0  0  0  0  0  0  0
   23.7912    4.2418   13.4102 O   0  0  0  0  0  0  0  0  0  0  0  0
   25.6055    4.3183   15.2132 N   0  0  0  0  0  0  0  0  0  0  0  0
   23.1280    4.8156   15.6993 O   0  0  0  0  0  0  0  0  0  0  0  0
   26.3435    4.4225   14.5168 H   0  0  0  0  0  0  0  0  0  0  0  0
   25.4552    3.3276   15.4037 H   0  0  0  0  0  0  0  0  0  0  0  0
   24.8429   11.6030   11.9622 O   0  0  0  0  0  0  0  0  0  0  0  0
   25.0087   11.2294   13.4734 S   0  0  0  0  0  0  0  0  0  0  0  0
   26.4824   11.5510   13.7095 O   0  0  0  0  0  0  0  0  0  0  0  0
   24.0160   12.3784   14.4413 C   0  0  0  0  0  0  0  0  0  0  0  0
   22.1686   12.4852   13.0262 O   0  0  0  0  0  0  0  0  0  0  0  0
   23.2345   13.2561   13.4986 C   0  0  0  0  0  0  0  0  0  0  0  0
   21.6349   13.0132   12.4119 H   0  0  0  0  0  0  0  0  0  0  0  0
   26.0729    8.8310   11.6970 N   0  0  0  0  0  0  0  0  0  0  0  0
   25.5741    8.9165   10.8525 H   0  0  0  0  0  0  0  0  0  0  0  0
   27.5443    9.0423   11.6990 C   0  0  0  0  0  0  0  0  0  0  0  0
   28.2125    8.2621   12.8552 C   0  0  0  0  0  0  0  0  0  0  0  0
   29.6075    7.8274   12.3160 C   0  0  0  0  0  0  0  0  0  0  0  0
   29.2153    7.5873   10.9132 C   0  0  0  0  0  0  0  0  0  0  0  0
   29.8770    6.7604    9.9694 C   0  0  0  0  0  0  0  0  0  0  0  0
   29.3576    6.5937    8.6583 C   0  0  0  0  0  0  0  0  0  0  0  0
   28.1570    7.2829    8.2918 C   0  0  0  0  0  0  0  0  0  0  0  0
   27.5406    8.1088    9.2676 C   0  0  0  0  0  0  0  0  0  0  0  0
   28.0849    8.2687   10.5470 C   0  0  0  0  0  0  0  0  0  0  0  0
 30 29  2  0  0  0
 30 31  1  0  0  0
 29 28  1  0  0  0
 31 32  2  0  0  0
 28 27  1  0  0  0
 28 33  2  0  0  0
 20 21  1  0  0  0
 27 26  1  0  0  0
 32 33  1  0  0  0
 21 19  1  0  0  0
 33 25  1  0  0  0
 26 25  1  0  0  0
 19 17  1  0  0  0
 25 23  1  0  0  0
 18 17  2  0  0  0
 17  6  1  0  0  0
 17 16  2  0  0  0
 23  8  1  0  0  0
  8  6  2  0  0  0
  8  9  1  0  0  0
  6  7  1  0  0  0
  7  4  1  0  0  0
  7  1  2  0  0  0
  5  9  1  0  0  0
  9  3  2  0  0  0
  1  3  1  0  0  0
  1  2  1  0  0  0
  3 10  1  0  0  0
 12 10  1  0  0  0
 10 11  2  0  0  0
 10 13  2  0  0  0
 20 22  1  0  0  0
 12 14  1  0  0  0
 12 15  1  0  0  0
 23 24  1  0  0  0
M  END
> <minimizedAffinity>
-7.85306

$$$$
5LLO_5EF_A_303


 33 35  0  0  0  0  0  0  0  0999 V2000
   23.9703   10.0309   14.8917 C   0  0  0  0  0  0  0  0  0  0  0  0
   23.1268   10.7343   15.7099 F   0  0  0  0  0  0  0  0  0  0  0  0
   24.5025   10.5760   13.7243 C   0  0  0  0  0  0  0  0  0  0  0  0
   23.6661    8.2362   16.4376 F   0  0  0  0  0  0  0  0  0  0  0  0
   25.7747   10.1802   11.8460 F   0  0  0  0  0  0  0  0  0  0  0  0
   25.0557    7.9328   14.5481 C   0  0  0  0  0  0  0  0  0  0  0  0
   24.2245    8.7466   15.3300 C   0  0  0  0  0  0  0  0  0  0  0  0
   25.6071    8.4225   13.3650 C   0  0  0  0  0  0  0  0  0  0  0  0
   25.3261    9.7131   12.9799 C   0  0  0  0  0  0  0  0  0  0  0  0
   24.1045   12.2146   13.1496 S   0  0  0  0  0  0  0  0  0  0  0  0
   24.6764   12.4500   11.7864 O   0  0  0  0  0  0  0  0  0  0  0  0
   22.4745   12.4617   13.0901 N   0  0  0  0  0  0  0  0  0  0  0  0
   24.7079   13.2337   14.1088 O   0  0  0  0  0  0  0  0  0  0  0  0
   22.0515   11.7877   12.4519 H   0  0  0  0  0  0  0  0  0  0  0  0
   22.2859   13.4079   12.7593 H   0  0  0  0  0  0  0  0  0  0  0  0
   24.6834    5.9805   16.5226 O   0  0  0  0  0  0  0  0  0  0  0  0
   25.4130    6.2832   15.1710 S   0  0  0  0  0  0  0  0  0  0  0  0
   26.8751    6.3073   15.6097 O   0  0  0  0  0  0  0  0  0  0  0  0
   25.1715    4.8701   14.0814 C   0  0  0  0  0  0  0  0  0  0  0  0
   23.4103    3.8948   15.2535 O   0  0  0  0  0  0  0  0  0  0  0  0
   23.7039    4.5322   14.0446 C   0  0  0  0  0  0  0  0  0  0  0  0
   22.4700    3.6577   15.2740 H   0  0  0  0  0  0  0  0  0  0  0  0
   26.5256    7.6662   12.5462 N   0  0  0  0  0  0  0  0  0  0  0  0
   26.2363    6.8059   12.1648 H   0  0  0  0  0  0  0  0  0  0  0  0
   27.8994    8.1614   12.2681 C   0  0  0  0  0  0  0  0  0  0  0  0
   28.9514    7.3378   13.0472 C   0  0  0  0  0  0  0  0  0  0  0  0
   30.2093    7.2905   12.1302 C   0  0  0  0  0  0  0  0  0  0  0  0
   29.5098    7.2287   10.8317 C   0  0  0  0  0  0  0  0  0  0  0  0
   30.0222    6.7291    9.6068 C   0  0  0  0  0  0  0  0  0  0  0  0
   29.2137    6.6966    8.4397 C   0  0  0  0  0  0  0  0  0  0  0  0
   27.8702    7.1875    8.5091 C   0  0  0  0  0  0  0  0  0  0  0  0
   27.4095    7.6894    9.7540 C   0  0  0  0  0  0  0  0  0  0  0  0
   28.2345    7.7260   10.8840 C   0  0  0  0  0  0  0  0  0  0  0  0
 30 29  2  0  0  0
 30 31  1  0  0  0
 29 28  1  0  0  0
 31 32  2  0  0  0
 28 27  1  0  0  0
 28 33  2  0  0  0
 20 21  1  0  0  0
 27 26  1  0  0  0
 32 33  1  0  0  0
 21 19  1  0  0  0
 33 25  1  0  0  0
 26 25  1  0  0  0
 19 17  1  0  0  0
 25 23  1  0  0  0
 18 17  2  0  0  0
 17  6  1  0  0  0
 17 16  2  0  0  0
 23  8  1  0  0  0
  8  6  2  0  0  0
  8  9  1  0  0  0
  6  7  1  0  0  0
  7  4  1  0  0  0
  7  1  2  0  0  0
  5  9  1  0  0  0
  9  3  2  0  0  0
  1  3  1  0  0  0
  1  2  1  0  0  0
  3 10  1  0  0  0
 12 10  1  0  0  0
 10 11  2  0  0  0
 10 13  2  0  0  0
 20 22  1  0  0  0
 12 14  1  0  0  0
 12 15  1  0  0  0
 23 24  1  0  0  0
M  END
> <minimizedAffinity>
-7.82116

$$$$
5LLO_5EF_A_303


 33 35  0  0  0  0  0  0  0  0999 V2000
   27.1624    7.6895    9.5499 C   0  0  0  0  0  0  0  0  0  0  0  0
   28.0480    7.4480    8.5333 F   0  0  0  0  0  0  0  0  0  0  0  0
   26.8426    8.9801    9.9686 C   0  0  0  0  0  0  0  0  0  0  0  0
   26.9955    5.3129    9.7144 F   0  0  0  0  0  0  0  0  0  0  0  0
   25.6855   10.2531   11.4996 F   0  0  0  0  0  0  0  0  0  0  0  0
   25.7415    6.6803   11.1809 C   0  0  0  0  0  0  0  0  0  0  0  0
   26.6385    6.5429   10.1127 C   0  0  0  0  0  0  0  0  0  0  0  0
   25.3939    7.9470   11.6481 C   0  0  0  0  0  0  0  0  0  0  0  0
   25.9408    9.0559   11.0447 C   0  0  0  0  0  0  0  0  0  0  0  0
   27.5847   10.4396    9.2666 S   0  0  0  0  0  0  0  0  0  0  0  0
   28.9206   10.1195    8.6718 O   0  0  0  0  0  0  0  0  0  0  0  0
   26.6310   11.1079    8.0981 N   0  0  0  0  0  0  0  0  0  0  0  0
   27.7826   11.4718   10.3704 O   0  0  0  0  0  0  0  0  0  0  0  0
   26.4866   10.4310    7.3489 H   0  0  0  0  0  0  0  0  0  0  0  0
   27.0864   11.9394    7.7220 H   0  0  0  0  0  0  0  0  0  0  0  0
   23.8340    5.4529   12.8251 O   0  0  0  0  0  0  0  0  0  0  0  0
   25.0332    5.1719   11.8589 S   0  0  0  0  0  0  0  0  0  0  0  0
   26.0783    4.6124   12.8209 O   0  0  0  0  0  0  0  0  0  0  0  0
   24.5406    3.8578   10.7306 C   0  0  0  0  0  0  0  0  0  0  0  0
   22.2656    4.3048   10.5046 O   0  0  0  0  0  0  0  0  0  0  0  0
   23.1524    3.4007   11.0961 C   0  0  0  0  0  0  0  0  0  0  0  0
   21.3541    4.0481   10.7147 H   0  0  0  0  0  0  0  0  0  0  0  0
   24.4253    8.1666   12.6968 N   0  0  0  0  0  0  0  0  0  0  0  0
   23.4699    8.2256   12.4668 H   0  0  0  0  0  0  0  0  0  0  0  0
   24.8429    8.3053   14.1167 C   0  0  0  0  0  0  0  0  0  0  0  0
   26.3794    8.1939   14.2537 C   0  0  0  0  0  0  0  0  0  0  0  0
   26.7651    9.1417   15.4278 C   0  0  0  0  0  0  0  0  0  0  0  0
   25.7594   10.1929   15.1768 C   0  0  0  0  0  0  0  0  0  0  0  0
   25.8186   11.5492   15.5883 C   0  0  0  0  0  0  0  0  0  0  0  0
   24.7882   12.4612   15.2373 C   0  0  0  0  0  0  0  0  0  0  0  0
   23.6749   11.9920   14.4684 C   0  0  0  0  0  0  0  0  0  0  0  0
   23.6559   10.6235   14.0932 C   0  0  0  0  0  0  0  0  0  0  0  0
   24.6768    9.7428   14.4686 C   0  0  0  0  0  0  0  0  0  0  0  0
 30 29  2  0  0  0
 30 31  1  0  0  0
 29 28  1  0  0  0
 31 32  2  0  0  0
 28 27  1  0  0  0
 28 33  2  0  0  0
 20 21  1  0  0  0
 27 26  1  0  0  0
 32 33  1  0  0  0
 21 19  1  0  0  0
 33 25  1  0  0  0
 26 25  1  0  0  0
 19 17  1  0  0  0
 25 23  1  0  0  0
 18 17  2  0  0  0
 17  6  1  0  0  0
 17 16  2  0  0  0
 23  8  1  0  0  0
  8  6  2  0  0  0
  8  9  1  0  0  0
  6  7  1  0  0  0
  7  4  1  0  0  0
  7  1  2  0  0  0
  5  9  1  0  0  0
  9  3  2  0  0  0
  1  3  1  0  0  0
  1  2  1  0  0  0
  3 10  1  0  0  0
 12 10  1  0  0  0
 10 11  2  0  0  0
 10 13  2  0  0  0
 20 22  1  0  0  0
 12 14  1  0  0  0
 12 15  1  0  0  0
 23 24  1  0  0  0
M  END
> <minimizedAffinity>
-7.65143

$$$$
5LLO_5EF_A_303


 33 35  0  0  0  0  0  0  0  0999 V2000
   25.7925    4.4146   10.6471 C   0  0  0  0  0  0  0  0  0  0  0  0
   25.8868    3.5489    9.5899 F   0  0  0  0  0  0  0  0  0  0  0  0
   24.6586    4.4837   11.4549 C   0  0  0  0  0  0  0  0  0  0  0  0
   27.9733    5.1424   10.0006 F   0  0  0  0  0  0  0  0  0  0  0  0
   23.6275    5.5773   13.1996 F   0  0  0  0  0  0  0  0  0  0  0  0
   26.9060    6.1443   11.8580 C   0  0  0  0  0  0  0  0  0  0  0  0
   26.9121    5.2040   10.8187 C   0  0  0  0  0  0  0  0  0  0  0  0
   25.7941    6.2642   12.6905 C   0  0  0  0  0  0  0  0  0  0  0  0
   24.7084    5.4463   12.4785 C   0  0  0  0  0  0  0  0  0  0  0  0
   23.2025    3.4978   11.1692 S   0  0  0  0  0  0  0  0  0  0  0  0
   22.1755    4.2795   10.4107 O   0  0  0  0  0  0  0  0  0  0  0  0
   23.5513    2.1235   10.3260 N   0  0  0  0  0  0  0  0  0  0  0  0
   22.6074    3.0960   12.5135 O   0  0  0  0  0  0  0  0  0  0  0  0
   23.9514    2.3720    9.4213 H   0  0  0  0  0  0  0  0  0  0  0  0
   22.6963    1.5858   10.1835 H   0  0  0  0  0  0  0  0  0  0  0  0
   29.7024    6.3045   11.8018 O   0  0  0  0  0  0  0  0  0  0  0  0
   28.3986    7.1210   12.0919 S   0  0  0  0  0  0  0  0  0  0  0  0
   28.5135    7.3594   13.5955 O   0  0  0  0  0  0  0  0  0  0  0  0
   28.5402    8.7086   11.2541 C   0  0  0  0  0  0  0  0  0  0  0  0
   29.2532    7.8587    9.2056 O   0  0  0  0  0  0  0  0  0  0  0  0
   28.1791    8.5244    9.8031 C   0  0  0  0  0  0  0  0  0  0  0  0
   29.0633    7.7178    8.2649 H   0  0  0  0  0  0  0  0  0  0  0  0
   25.7442    7.1608   13.8219 N   0  0  0  0  0  0  0  0  0  0  0  0
   26.5247    7.2296   14.4180 H   0  0  0  0  0  0  0  0  0  0  0  0
   24.5373    7.9816   14.1036 C   0  0  0  0  0  0  0  0  0  0  0  0
   24.5421    8.4867   15.5653 C   0  0  0  0  0  0  0  0  0  0  0  0
   23.8618    9.8873   15.5268 C   0  0  0  0  0  0  0  0  0  0  0  0
   24.3750   10.3243   14.2134 C   0  0  0  0  0  0  0  0  0  0  0  0
   24.5132   11.6578   13.7495 C   0  0  0  0  0  0  0  0  0  0  0  0
   25.0632   11.9288   12.4686 C   0  0  0  0  0  0  0  0  0  0  0  0
   25.4689   10.8343   11.6390 C   0  0  0  0  0  0  0  0  0  0  0  0
   25.2973    9.5189   12.1433 C   0  0  0  0  0  0  0  0  0  0  0  0
   24.7355    9.2806   13.4028 C   0  0  0  0  0  0  0  0  0  0  0  0
 30 29  2  0  0  0
 30 31  1  0  0  0
 29 28  1  0  0  0
 31 32  2  0  0  0
 28 27  1  0  0  0
 28 33  2  0  0  0
 20 21  1  0  0  0
 27 26  1  0  0  0
 32 33  1  0  0  0
 21 19  1  0  0  0
 33 25  1  0  0  0
 26 25  1  0  0  0
 19 17  1  0  0  0
 25 23  1  0  0  0
 18 17  2  0  0  0
 17  6  1  0  0  0
 17 16  2  0  0  0
 23  8  1  0  0  0
  8  6  2  0  0  0
  8  9  1  0  0  0
  6  7  1  0  0  0
  7  4  1  0  0  0
  7  1  2  0  0  0
  5  9  1  0  0  0
  9  3  2  0  0  0
  1  3  1  0  0  0
  1  2  1  0  0  0
  3 10  1  0  0  0
 12 10  1  0  0  0
 10 11  2  0  0  0
 10 13  2  0  0  0
 20 22  1  0  0  0
 12 14  1  0  0  0
 12 15  1  0  0  0
 23 24  1  0  0  0
M  END
> <minimizedAffinity>
-7.51941

$$$$
5LLO_5EF_A_303


 33 35  0  0  0  0  0  0  0  0999 V2000
   26.1504    4.7696   10.7043 C   0  0  0  0  0  0  0  0  0  0  0  0
   26.2740    3.9698    9.5994 F   0  0  0  0  0  0  0  0  0  0  0  0
   25.0036    4.7736   11.4968 C   0  0  0  0  0  0  0  0  0  0  0  0
   28.3286    5.5671   10.1363 F   0  0  0  0  0  0  0  0  0  0  0  0
   23.9297    5.7462   13.2868 F   0  0  0  0  0  0  0  0  0  0  0  0
   27.2183    6.4408   12.0328 C   0  0  0  0  0  0  0  0  0  0  0  0
   27.2547    5.5641   10.9399 C   0  0  0  0  0  0  0  0  0  0  0  0
   26.0924    6.4944   12.8534 C   0  0  0  0  0  0  0  0  0  0  0  0
   25.0230    5.6744   12.5763 C   0  0  0  0  0  0  0  0  0  0  0  0
   23.5677    3.7849   11.1304 S   0  0  0  0  0  0  0  0  0  0  0  0
   23.9476    2.5764   10.3328 O   0  0  0  0  0  0  0  0  0  0  0  0
   22.7985    3.2925   12.5042 N   0  0  0  0  0  0  0  0  0  0  0  0
   22.5917    4.6184   10.3085 O   0  0  0  0  0  0  0  0  0  0  0  0
   23.4368    2.7320   13.0689 H   0  0  0  0  0  0  0  0  0  0  0  0
   21.9834    2.7322   12.2553 H   0  0  0  0  0  0  0  0  0  0  0  0
   29.1880    7.3056   13.8275 O   0  0  0  0  0  0  0  0  0  0  0  0
   28.6916    7.4241   12.3475 S   0  0  0  0  0  0  0  0  0  0  0  0
   28.2437    8.8824   12.2894 O   0  0  0  0  0  0  0  0  0  0  0  0
   30.1178    7.2259   11.2662 C   0  0  0  0  0  0  0  0  0  0  0  0
   31.9555    6.7606   12.6202 O   0  0  0  0  0  0  0  0  0  0  0  0
   31.3270    7.8122   11.9473 C   0  0  0  0  0  0  0  0  0  0  0  0
   32.7442    7.0939   13.0760 H   0  0  0  0  0  0  0  0  0  0  0  0
   26.0115    7.3213   14.0349 N   0  0  0  0  0  0  0  0  0  0  0  0
   26.3987    6.9955   14.8794 H   0  0  0  0  0  0  0  0  0  0  0  0
   25.3552    8.6546   14.0004 C   0  0  0  0  0  0  0  0  0  0  0  0
   23.8875    8.5600   14.4789 C   0  0  0  0  0  0  0  0  0  0  0  0
   23.5969    9.9055   15.2074 C   0  0  0  0  0  0  0  0  0  0  0  0
   24.9336   10.1059   15.8011 C   0  0  0  0  0  0  0  0  0  0  0  0
   25.2560   10.8919   16.9372 C   0  0  0  0  0  0  0  0  0  0  0  0
   26.5898   10.9593   17.4200 C   0  0  0  0  0  0  0  0  0  0  0  0
   27.6157   10.2303   16.7367 C   0  0  0  0  0  0  0  0  0  0  0  0
   27.2442    9.4701   15.5973 C   0  0  0  0  0  0  0  0  0  0  0  0
   25.9243    9.4363   15.1330 C   0  0  0  0  0  0  0  0  0  0  0  0
 30 29  2  0  0  0
 30 31  1  0  0  0
 29 28  1  0  0  0
 31 32  2  0  0  0
 28 27  1  0  0  0
 28 33  2  0  0  0
 20 21  1  0  0  0
 27 26  1  0  0  0
 32 33  1  0  0  0
 21 19  1  0  0  0
 33 25  1  0  0  0
 26 25  1  0  0  0
 19 17  1  0  0  0
 25 23  1  0  0  0
 18 17  2  0  0  0
 17  6  1  0  0  0
 17 16  2  0  0  0
 23  8  1  0  0  0
  8  6  2  0  0  0
  8  9  1  0  0  0
  6  7  1  0  0  0
  7  4  1  0  0  0
  7  1  2  0  0  0
  5  9  1  0  0  0
  9  3  2  0  0  0
  1  3  1  0  0  0
  1  2  1  0  0  0
  3 10  1  0  0  0
 12 10  1  0  0  0
 10 11  2  0  0  0
 10 13  2  0  0  0
 20 22  1  0  0  0
 12 14  1  0  0  0
 12 15  1  0  0  0
 23 24  1  0  0  0
M  END
> <minimizedAffinity>
-7.47787

$$$$
5LLO_5EF_A_303


 33 35  0  0  0  0  0  0  0  0999 V2000
   29.0956    6.4095   11.3595 C   0  0  0  0  0  0  0  0  0  0  0  0
   30.0401    5.8861   10.5170 F   0  0  0  0  0  0  0  0  0  0  0  0
   29.4241    7.2753   12.4015 C   0  0  0  0  0  0  0  0  0  0  0  0
   27.5296    5.1238   10.0953 F   0  0  0  0  0  0  0  0  0  0  0  0
   28.6391    8.4509   14.2194 F   0  0  0  0  0  0  0  0  0  0  0  0
   26.7715    6.4465   11.9033 C   0  0  0  0  0  0  0  0  0  0  0  0
   27.8103    5.9891   11.0810 C   0  0  0  0  0  0  0  0  0  0  0  0
   27.0438    7.3058   12.9669 C   0  0  0  0  0  0  0  0  0  0  0  0
   28.3426    7.6987   13.1939 C   0  0  0  0  0  0  0  0  0  0  0  0
   31.0999    7.7486   12.7775 S   0  0  0  0  0  0  0  0  0  0  0  0
   31.5720    7.0736   14.0275 O   0  0  0  0  0  0  0  0  0  0  0  0
   32.1323    7.3688   11.5482 N   0  0  0  0  0  0  0  0  0  0  0  0
   31.1495    9.2563   12.9950 O   0  0  0  0  0  0  0  0  0  0  0  0
   32.1132    6.3617   11.3871 H   0  0  0  0  0  0  0  0  0  0  0  0
   33.0787    7.6553   11.7982 H   0  0  0  0  0  0  0  0  0  0  0  0
   24.3417    6.9857   10.6174 O   0  0  0  0  0  0  0  0  0  0  0  0
   25.1012    5.9261   11.4841 S   0  0  0  0  0  0  0  0  0  0  0  0
   24.3079    5.9697   12.7877 O   0  0  0  0  0  0  0  0  0  0  0  0
   24.8570    4.3112   10.7259 C   0  0  0  0  0  0  0  0  0  0  0  0
   22.5840    4.6704   10.3635 O   0  0  0  0  0  0  0  0  0  0  0  0
   23.4663    3.8301   11.0486 C   0  0  0  0  0  0  0  0  0  0  0  0
   21.6711    4.3961   10.5431 H   0  0  0  0  0  0  0  0  0  0  0  0
   26.0176    7.8710   13.8117 N   0  0  0  0  0  0  0  0  0  0  0  0
   25.6442    7.3304   14.5450 H   0  0  0  0  0  0  0  0  0  0  0  0
   25.5143    9.2529   13.5956 C   0  0  0  0  0  0  0  0  0  0  0  0
   23.9711    9.2688   13.4938 C   0  0  0  0  0  0  0  0  0  0  0  0
   23.5239   10.6222   14.1216 C   0  0  0  0  0  0  0  0  0  0  0  0
   24.5548   10.7061   15.1749 C   0  0  0  0  0  0  0  0  0  0  0  0
   24.4853   11.4465   16.3830 C   0  0  0  0  0  0  0  0  0  0  0  0
   25.5455   11.3997   17.3265 C   0  0  0  0  0  0  0  0  0  0  0  0
   26.6991   10.6014   17.0391 C   0  0  0  0  0  0  0  0  0  0  0  0
   26.7262    9.8905   15.8110 C   0  0  0  0  0  0  0  0  0  0  0  0
   25.6742    9.9694   14.8912 C   0  0  0  0  0  0  0  0  0  0  0  0
 30 29  2  0  0  0
 30 31  1  0  0  0
 29 28  1  0  0  0
 31 32  2  0  0  0
 28 27  1  0  0  0
 28 33  2  0  0  0
 20 21  1  0  0  0
 27 26  1  0  0  0
 32 33  1  0  0  0
 21 19  1  0  0  0
 33 25  1  0  0  0
 26 25  1  0  0  0
 19 17  1  0  0  0
 25 23  1  0  0  0
 18 17  2  0  0  0
 17  6  1  0  0  0
 17 16  2  0  0  0
 23  8  1  0  0  0
  8  6  2  0  0  0
  8  9  1  0  0  0
  6  7  1  0  0  0
  7  4  1  0  0  0
  7  1  2  0  0  0
  5  9  1  0  0  0
  9  3  2  0  0  0
  1  3  1  0  0  0
  1  2  1  0  0  0
  3 10  1  0  0  0
 12 10  1  0  0  0
 10 11  2  0  0  0
 10 13  2  0  0  0
 20 22  1  0  0  0
 12 14  1  0  0  0
 12 15  1  0  0  0
 23 24  1  0  0  0
M  END
> <minimizedAffinity>
-7.15303

$$$$
5LLO_5EF_A_303


 33 35  0  0  0  0  0  0  0  0999 V2000
   24.0267    9.1913   15.1104 C   0  0  0  0  0  0  0  0  0  0  0  0
   23.0783    9.4764   16.0564 F   0  0  0  0  0  0  0  0  0  0  0  0
   24.8493   10.1731   14.5602 C   0  0  0  0  0  0  0  0  0  0  0  0
   23.2425    6.9416   15.2760 F   0  0  0  0  0  0  0  0  0  0  0  0
   26.4769   10.6377   12.9987 F   0  0  0  0  0  0  0  0  0  0  0  0
   24.9939    7.4649   13.7753 C   0  0  0  0  0  0  0  0  0  0  0  0
   24.0743    7.8573   14.7576 C   0  0  0  0  0  0  0  0  0  0  0  0
   25.8343    8.4065   13.1833 C   0  0  0  0  0  0  0  0  0  0  0  0
   25.7492    9.7215   13.5787 C   0  0  0  0  0  0  0  0  0  0  0  0
   24.7205   11.8978   14.9875 S   0  0  0  0  0  0  0  0  0  0  0  0
   24.7664   12.7516   13.7587 O   0  0  0  0  0  0  0  0  0  0  0  0
   23.3251   12.2216   15.8057 N   0  0  0  0  0  0  0  0  0  0  0  0
   25.8968   12.2737   15.8806 O   0  0  0  0  0  0  0  0  0  0  0  0
   22.5246   11.9762   15.2232 H   0  0  0  0  0  0  0  0  0  0  0  0
   23.2876   13.2150   16.0340 H   0  0  0  0  0  0  0  0  0  0  0  0
   26.4656    5.2882   12.8033 O   0  0  0  0  0  0  0  0  0  0  0  0
   25.0713    5.7127   13.3748 S   0  0  0  0  0  0  0  0  0  0  0  0
   24.1689    5.5194   12.1586 O   0  0  0  0  0  0  0  0  0  0  0  0
   24.5967    4.5111   14.6291 C   0  0  0  0  0  0  0  0  0  0  0  0
   22.6202    3.6272   15.4888 O   0  0  0  0  0  0  0  0  0  0  0  0
   23.2399    3.9570   14.2801 C   0  0  0  0  0  0  0  0  0  0  0  0
   21.7383    3.2642   15.3115 H   0  0  0  0  0  0  0  0  0  0  0  0
   26.8515    8.0643   12.2167 N   0  0  0  0  0  0  0  0  0  0  0  0
   27.7687    7.8827   12.5249 H   0  0  0  0  0  0  0  0  0  0  0  0
   26.5405    7.9808   10.7654 C   0  0  0  0  0  0  0  0  0  0  0  0
   26.5104    9.3884   10.1254 C   0  0  0  0  0  0  0  0  0  0  0  0
   27.0389    9.1993    8.6726 C   0  0  0  0  0  0  0  0  0  0  0  0
   28.0314    8.1436    8.9552 C   0  0  0  0  0  0  0  0  0  0  0  0
   29.1728    7.8129    8.1803 C   0  0  0  0  0  0  0  0  0  0  0  0
   30.0659    6.7919    8.6003 C   0  0  0  0  0  0  0  0  0  0  0  0
   29.7947    6.0862    9.8166 C   0  0  0  0  0  0  0  0  0  0  0  0
   28.6329    6.4452   10.5483 C   0  0  0  0  0  0  0  0  0  0  0  0
   27.7603    7.4438   10.1010 C   0  0  0  0  0  0  0  0  0  0  0  0
 30 29  2  0  0  0
 30 31  1  0  0  0
 29 28  1  0  0  0
 31 32  2  0  0  0
 28 27  1  0  0  0
 28 33  2  0  0  0
 20 21  1  0  0  0
 27 26  1  0  0  0
 32 33  1  0  0  0
 21 19  1  0  0  0
 33 25  1  0  0  0
 26 25  1  0  0  0
 19 17  1  0  0  0
 25 23  1  0  0  0
 18 17  2  0  0  0
 17  6  1  0  0  0
 17 16  2  0  0  0
 23  8  1  0  0  0
  8  6  2  0  0  0
  8  9  1  0  0  0
  6  7  1  0  0  0
  7  4  1  0  0  0
  7  1  2  0  0  0
  5  9  1  0  0  0
  9  3  2  0  0  0
  1  3  1  0  0  0
  1  2  1  0  0  0
  3 10  1  0  0  0
 12 10  1  0  0  0
 10 11  2  0  0  0
 10 13  2  0  0  0
 20 22  1  0  0  0
 12 14  1  0  0  0
 12 15  1  0  0  0
 23 24  1  0  0  0
M  END
> <minimizedAffinity>
-6.77123

$$$$
