2X91_LPR_A_1615


 34 35  0  0  0  0  0  0  0  0999 V2000
   27.8881   -6.1698   42.1675 C   0  0  0  0  0  0  0  0  0  0  0  0
   27.1730   -6.3329   40.7819 C   0  0  0  0  0  0  0  0  0  0  0  0
   26.2114   -5.5477   40.4963 O   0  0  0  0  0  0  0  0  0  0  0  0
   27.5381   -7.2785   39.8896 N   0  0  0  0  0  0  0  0  0  0  0  0
   26.7826   -7.3984   38.5833 C   0  0  0  0  0  0  0  0  0  0  0  0
   27.4418   -8.6424   37.9654 C   0  0  0  0  0  0  0  0  0  0  0  0
   28.6488   -8.8203   38.5817 C   0  0  0  0  0  0  0  0  0  0  0  0
   28.6084   -8.3119   39.9720 C   0  0  0  0  0  0  0  0  0  0  0  0
   24.4707   -6.7690   38.7309 O   0  0  0  0  0  0  0  0  0  0  0  0
   25.0293   -8.8473   39.1765 O   0  0  0  0  0  0  0  0  0  0  0  0
   25.2833   -7.6335   38.8548 C   0  0  0  0  0  0  0  0  0  0  0  0
   24.7398   -5.9038   38.4922 H   0  0  0  0  0  0  0  0  0  0  0  0
   27.9420   -4.6836   42.4020 N   0  0  0  0  0  0  0  0  0  0  0  0
   26.9801   -4.3450   42.3807 H   0  0  0  0  0  0  0  0  0  0  0  0
   28.5738   -4.1456   43.6848 C   0  0  0  0  0  0  0  0  0  0  0  0
   26.7797   -2.5621   43.9349 O   0  0  0  0  0  0  0  0  0  0  0  0
   28.8284   -1.8073   44.1274 O   0  0  0  0  0  0  0  0  0  0  0  0
   28.0063   -2.7434   43.9312 C   0  0  0  0  0  0  0  0  0  0  0  0
   26.1992   -3.2822   43.7852 H   0  0  0  0  0  0  0  0  0  0  0  0
   30.1328   -4.1793   43.6013 C   0  0  0  0  0  0  0  0  0  0  0  0
   30.7403   -4.5473   44.9471 C   0  0  0  0  0  0  0  0  0  0  0  0
   30.4704   -5.9090   45.5213 C   0  0  0  0  0  0  0  0  0  0  0  0
   31.1669   -7.0368   44.9882 C   0  0  0  0  0  0  0  0  0  0  0  0
   30.9383   -8.3412   45.5085 C   0  0  0  0  0  0  0  0  0  0  0  0
   29.9955   -8.5269   46.5735 C   0  0  0  0  0  0  0  0  0  0  0  0
   29.2899   -7.4050   47.1105 C   0  0  0  0  0  0  0  0  0  0  0  0
   29.5288   -6.1006   46.5873 C   0  0  0  0  0  0  0  0  0  0  0  0
   27.0801   -6.9549   43.1683 C   0  0  0  0  0  0  0  0  0  0  0  0
   27.6448   -8.1709   43.7307 C   0  0  0  0  0  0  0  0  0  0  0  0
   26.7878   -8.9544   44.8473 C   0  0  0  0  0  0  0  0  0  0  0  0
   26.4334  -10.9434   43.4399 N   0  0  0  0  0  0  0  0  0  0  0  0
   27.0006  -10.3756   44.7168 C   0  0  0  0  0  0  0  0  0  0  0  0
   26.6137  -11.9467   43.4044 H   0  0  0  0  0  0  0  0  0  0  0  0
   26.8755  -10.4900   42.6404 H   0  0  0  0  0  0  0  0  0  0  0  0
  3  2  2  0  0  0
 16 18  1  0  0  0
 17 18  2  0  0  0
  9 11  1  0  0  0
 10 11  2  0  0  0
 13  1  1  0  0  0
 13 15  1  0  0  0
  4  2  1  0  0  0
  4  5  1  0  0  0
  4  8  1  0  0  0
 31 32  1  0  0  0
  2  1  1  0  0  0
  1 28  1  0  0  0
 18 15  1  0  0  0
 15 20  1  0  0  0
  5  6  1  0  0  0
  5 11  1  0  0  0
  6  7  1  0  0  0
  7  8  1  0  0  0
 28 29  1  0  0  0
 29 30  1  0  0  0
 30 32  1  0  0  0
 20 21  1  0  0  0
 21 22  1  0  0  0
 22 23  2  0  0  0
 22 27  1  0  0  0
 23 24  1  0  0  0
 24 25  2  0  0  0
 25 26  1  0  0  0
 26 27  2  0  0  0
 16 19  1  0  0  0
 13 14  1  0  0  0
 31 33  1  0  0  0
 31 34  1  0  0  0
  9 12  1  0  0  0
M  END
> <minimizedAffinity>
-8.29143

$$$$
2X91_LPR_A_1615


 34 35  0  0  0  0  0  0  0  0999 V2000
   27.9130   -6.8025   41.9927 C   0  0  0  0  0  0  0  0  0  0  0  0
   27.3453   -7.3422   40.6347 C   0  0  0  0  0  0  0  0  0  0  0  0
   27.0505   -8.5784   40.5458 O   0  0  0  0  0  0  0  0  0  0  0  0
   27.1664   -6.5438   39.5603 N   0  0  0  0  0  0  0  0  0  0  0  0
   26.6428   -7.1395   38.2711 C   0  0  0  0  0  0  0  0  0  0  0  0
   26.7179   -5.9293   37.3259 C   0  0  0  0  0  0  0  0  0  0  0  0
   26.7714   -4.8032   38.0989 C   0  0  0  0  0  0  0  0  0  0  0  0
   27.4305   -5.0868   39.3944 C   0  0  0  0  0  0  0  0  0  0  0  0
   27.1980   -9.4132   37.7372 O   0  0  0  0  0  0  0  0  0  0  0  0
   28.7242   -7.8584   37.4488 O   0  0  0  0  0  0  0  0  0  0  0  0
   27.5659   -8.2800   37.7977 C   0  0  0  0  0  0  0  0  0  0  0  0
   26.3318   -9.6400   38.0133 H   0  0  0  0  0  0  0  0  0  0  0  0
   27.0419   -7.4257   43.0508 N   0  0  0  0  0  0  0  0  0  0  0  0
   26.3232   -7.9621   42.5649 H   0  0  0  0  0  0  0  0  0  0  0  0
   27.6662   -8.3575   44.0881 C   0  0  0  0  0  0  0  0  0  0  0  0
   27.5476  -10.3977   42.8182 O   0  0  0  0  0  0  0  0  0  0  0  0
   26.3214  -10.2619   44.6299 O   0  0  0  0  0  0  0  0  0  0  0  0
   27.1494   -9.7739   43.8131 C   0  0  0  0  0  0  0  0  0  0  0  0
   28.1636  -10.0025   42.2331 H   0  0  0  0  0  0  0  0  0  0  0  0
   27.3742   -7.8602   45.5393 C   0  0  0  0  0  0  0  0  0  0  0  0
   28.6687   -7.5609   46.2810 C   0  0  0  0  0  0  0  0  0  0  0  0
   29.5781   -6.4864   45.7566 C   0  0  0  0  0  0  0  0  0  0  0  0
   29.0049   -5.2831   45.2422 C   0  0  0  0  0  0  0  0  0  0  0  0
   29.8353   -4.2429   44.7392 C   0  0  0  0  0  0  0  0  0  0  0  0
   31.2604   -4.4061   44.7424 C   0  0  0  0  0  0  0  0  0  0  0  0
   31.8434   -5.6089   45.2508 C   0  0  0  0  0  0  0  0  0  0  0  0
   31.0046   -6.6440   45.7581 C   0  0  0  0  0  0  0  0  0  0  0  0
   29.3683   -7.1908   42.0401 C   0  0  0  0  0  0  0  0  0  0  0  0
   30.3509   -6.3170   41.4198 C   0  0  0  0  0  0  0  0  0  0  0  0
   30.9092   -6.7227   39.9642 C   0  0  0  0  0  0  0  0  0  0  0  0
   30.4670   -5.6888   37.7738 N   0  0  0  0  0  0  0  0  0  0  0  0
   31.0599   -5.5393   39.1524 C   0  0  0  0  0  0  0  0  0  0  0  0
   30.6035   -4.8246   37.2494 H   0  0  0  0  0  0  0  0  0  0  0  0
   29.4690   -5.8848   37.8523 H   0  0  0  0  0  0  0  0  0  0  0  0
  3  2  2  0  0  0
 16 18  1  0  0  0
 17 18  2  0  0  0
  9 11  1  0  0  0
 10 11  2  0  0  0
 13  1  1  0  0  0
 13 15  1  0  0  0
  4  2  1  0  0  0
  4  5  1  0  0  0
  4  8  1  0  0  0
 31 32  1  0  0  0
  2  1  1  0  0  0
  1 28  1  0  0  0
 18 15  1  0  0  0
 15 20  1  0  0  0
  5  6  1  0  0  0
  5 11  1  0  0  0
  6  7  1  0  0  0
  7  8  1  0  0  0
 28 29  1  0  0  0
 29 30  1  0  0  0
 30 32  1  0  0  0
 20 21  1  0  0  0
 21 22  1  0  0  0
 22 23  2  0  0  0
 22 27  1  0  0  0
 23 24  1  0  0  0
 24 25  2  0  0  0
 25 26  1  0  0  0
 26 27  2  0  0  0
 16 19  1  0  0  0
 13 14  1  0  0  0
 31 33  1  0  0  0
 31 34  1  0  0  0
  9 12  1  0  0  0
M  END
> <minimizedAffinity>
-8.13078

$$$$
2X91_LPR_A_1615


 34 35  0  0  0  0  0  0  0  0999 V2000
   27.5864   -5.8032   41.0889 C   0  0  0  0  0  0  0  0  0  0  0  0
   27.6870   -5.1219   42.4972 C   0  0  0  0  0  0  0  0  0  0  0  0
   26.6097   -4.8255   43.1092 O   0  0  0  0  0  0  0  0  0  0  0  0
   28.8730   -4.8350   43.0758 N   0  0  0  0  0  0  0  0  0  0  0  0
   28.8948   -4.1482   44.4245 C   0  0  0  0  0  0  0  0  0  0  0  0
   30.4020   -3.9185   44.6231 C   0  0  0  0  0  0  0  0  0  0  0  0
   31.0645   -4.7798   43.7939 C   0  0  0  0  0  0  0  0  0  0  0  0
   30.2604   -5.0666   42.5839 C   0  0  0  0  0  0  0  0  0  0  0  0
   27.0044   -2.7029   44.7418 O   0  0  0  0  0  0  0  0  0  0  0  0
   28.8445   -1.8612   43.8840 O   0  0  0  0  0  0  0  0  0  0  0  0
   28.1275   -2.8128   44.3547 C   0  0  0  0  0  0  0  0  0  0  0  0
   26.5476   -3.4510   45.0727 H   0  0  0  0  0  0  0  0  0  0  0  0
   27.2699   -7.2462   41.3793 N   0  0  0  0  0  0  0  0  0  0  0  0
   26.7145   -7.5913   40.5964 H   0  0  0  0  0  0  0  0  0  0  0  0
   28.4107   -8.2409   41.5869 C   0  0  0  0  0  0  0  0  0  0  0  0
   29.3279  -10.0142   40.2441 O   0  0  0  0  0  0  0  0  0  0  0  0
   28.0107   -8.5715   39.2504 O   0  0  0  0  0  0  0  0  0  0  0  0
   28.6066   -9.0061   40.2735 C   0  0  0  0  0  0  0  0  0  0  0  0
   29.7549  -10.3076   41.0248 H   0  0  0  0  0  0  0  0  0  0  0  0
   28.1322   -9.1691   42.8114 C   0  0  0  0  0  0  0  0  0  0  0  0
   27.8057   -8.3489   44.0508 C   0  0  0  0  0  0  0  0  0  0  0  0
   28.9235   -7.9263   44.9611 C   0  0  0  0  0  0  0  0  0  0  0  0
   28.6180   -7.1458   46.1181 C   0  0  0  0  0  0  0  0  0  0  0  0
   29.6506   -6.7293   47.0040 C   0  0  0  0  0  0  0  0  0  0  0  0
   31.0114   -7.0907   46.7299 C   0  0  0  0  0  0  0  0  0  0  0  0
   31.3278   -7.8677   45.5717 C   0  0  0  0  0  0  0  0  0  0  0  0
   30.2866   -8.2856   44.6922 C   0  0  0  0  0  0  0  0  0  0  0  0
   26.5330   -5.0514   40.3170 C   0  0  0  0  0  0  0  0  0  0  0  0
   26.6540   -4.9546   38.8713 C   0  0  0  0  0  0  0  0  0  0  0  0
   25.9605   -6.1016   37.9777 C   0  0  0  0  0  0  0  0  0  0  0  0
   25.0372   -8.1082   39.0656 N   0  0  0  0  0  0  0  0  0  0  0  0
   24.8370   -6.6615   38.6892 C   0  0  0  0  0  0  0  0  0  0  0  0
   24.2140   -8.4470   39.5636 H   0  0  0  0  0  0  0  0  0  0  0  0
   25.8570   -8.1928   39.6666 H   0  0  0  0  0  0  0  0  0  0  0  0
  3  2  2  0  0  0
 16 18  1  0  0  0
 17 18  2  0  0  0
  9 11  1  0  0  0
 10 11  2  0  0  0
 13  1  1  0  0  0
 13 15  1  0  0  0
  4  2  1  0  0  0
  4  5  1  0  0  0
  4  8  1  0  0  0
 31 32  1  0  0  0
  2  1  1  0  0  0
  1 28  1  0  0  0
 18 15  1  0  0  0
 15 20  1  0  0  0
  5  6  1  0  0  0
  5 11  1  0  0  0
  6  7  1  0  0  0
  7  8  1  0  0  0
 28 29  1  0  0  0
 29 30  1  0  0  0
 30 32  1  0  0  0
 20 21  1  0  0  0
 21 22  1  0  0  0
 22 23  2  0  0  0
 22 27  1  0  0  0
 23 24  1  0  0  0
 24 25  2  0  0  0
 25 26  1  0  0  0
 26 27  2  0  0  0
 16 19  1  0  0  0
 13 14  1  0  0  0
 31 33  1  0  0  0
 31 34  1  0  0  0
  9 12  1  0  0  0
M  END
> <minimizedAffinity>
-8.02649

$$$$
2X91_LPR_A_1615


 34 35  0  0  0  0  0  0  0  0999 V2000
   27.4240   -3.5962   44.3916 C   0  0  0  0  0  0  0  0  0  0  0  0
   28.9713   -3.8224   44.2797 C   0  0  0  0  0  0  0  0  0  0  0  0
   29.6327   -3.1130   43.4538 O   0  0  0  0  0  0  0  0  0  0  0  0
   29.6201   -4.7450   45.0224 N   0  0  0  0  0  0  0  0  0  0  0  0
   31.1112   -4.9306   44.8399 C   0  0  0  0  0  0  0  0  0  0  0  0
   31.3832   -6.1267   45.7666 C   0  0  0  0  0  0  0  0  0  0  0  0
   30.3441   -6.2097   46.6508 C   0  0  0  0  0  0  0  0  0  0  0  0
   29.0954   -5.6953   46.0431 C   0  0  0  0  0  0  0  0  0  0  0  0
   30.7234   -5.9770   42.7144 O   0  0  0  0  0  0  0  0  0  0  0  0
   32.4899   -4.6912   42.9511 O   0  0  0  0  0  0  0  0  0  0  0  0
   31.4293   -5.2744   43.3710 C   0  0  0  0  0  0  0  0  0  0  0  0
   29.9630   -6.3673   43.0983 H   0  0  0  0  0  0  0  0  0  0  0  0
   27.1853   -2.2444   43.7732 N   0  0  0  0  0  0  0  0  0  0  0  0
   26.1797   -2.1597   43.6247 H   0  0  0  0  0  0  0  0  0  0  0  0
   27.6318   -0.9864   44.5162 C   0  0  0  0  0  0  0  0  0  0  0  0
   25.4975   -0.9834   45.6268 O   0  0  0  0  0  0  0  0  0  0  0  0
   27.2658   -0.5149   46.8340 O   0  0  0  0  0  0  0  0  0  0  0  0
   26.7214   -0.8187   45.7376 C   0  0  0  0  0  0  0  0  0  0  0  0
   25.1285   -1.2088   44.7955 H   0  0  0  0  0  0  0  0  0  0  0  0
   27.6357    0.2551   43.5689 C   0  0  0  0  0  0  0  0  0  0  0  0
   28.6993    1.2575   43.9926 C   0  0  0  0  0  0  0  0  0  0  0  0
   28.2841    2.6593   44.3380 C   0  0  0  0  0  0  0  0  0  0  0  0
   28.1804    3.0327   45.7131 C   0  0  0  0  0  0  0  0  0  0  0  0
   27.7920    4.3521   46.0778 C   0  0  0  0  0  0  0  0  0  0  0  0
   27.4956    5.3142   45.0561 C   0  0  0  0  0  0  0  0  0  0  0  0
   27.5920    4.9486   43.6769 C   0  0  0  0  0  0  0  0  0  0  0  0
   27.9872    3.6262   43.3199 C   0  0  0  0  0  0  0  0  0  0  0  0
   26.7638   -4.7552   43.6905 C   0  0  0  0  0  0  0  0  0  0  0  0
   26.6309   -4.7197   42.2431 C   0  0  0  0  0  0  0  0  0  0  0  0
   27.2834   -5.9244   41.3958 C   0  0  0  0  0  0  0  0  0  0  0  0
   26.9313   -4.1998   39.6741 N   0  0  0  0  0  0  0  0  0  0  0  0
   27.6675   -5.4491   40.0886 C   0  0  0  0  0  0  0  0  0  0  0  0
   27.2435   -3.9132   38.7463 H   0  0  0  0  0  0  0  0  0  0  0  0
   27.1235   -3.4541   40.3429 H   0  0  0  0  0  0  0  0  0  0  0  0
  3  2  2  0  0  0
 16 18  1  0  0  0
 17 18  2  0  0  0
  9 11  1  0  0  0
 10 11  2  0  0  0
 13  1  1  0  0  0
 13 15  1  0  0  0
  4  2  1  0  0  0
  4  5  1  0  0  0
  4  8  1  0  0  0
 31 32  1  0  0  0
  2  1  1  0  0  0
  1 28  1  0  0  0
 18 15  1  0  0  0
 15 20  1  0  0  0
  5  6  1  0  0  0
  5 11  1  0  0  0
  6  7  1  0  0  0
  7  8  1  0  0  0
 28 29  1  0  0  0
 29 30  1  0  0  0
 30 32  1  0  0  0
 20 21  1  0  0  0
 21 22  1  0  0  0
 22 23  2  0  0  0
 22 27  1  0  0  0
 23 24  1  0  0  0
 24 25  2  0  0  0
 25 26  1  0  0  0
 26 27  2  0  0  0
 16 19  1  0  0  0
 13 14  1  0  0  0
 31 33  1  0  0  0
 31 34  1  0  0  0
  9 12  1  0  0  0
M  END
> <minimizedAffinity>
-8.00992

$$$$
2X91_LPR_A_1615


 34 35  0  0  0  0  0  0  0  0999 V2000
   29.5056   -7.0179   42.0236 C   0  0  0  0  0  0  0  0  0  0  0  0
   30.0289   -7.7677   43.2970 C   0  0  0  0  0  0  0  0  0  0  0  0
   29.9451   -9.0384   43.3335 O   0  0  0  0  0  0  0  0  0  0  0  0
   30.5567   -7.1121   44.3531 N   0  0  0  0  0  0  0  0  0  0  0  0
   31.0139   -7.8988   45.5629 C   0  0  0  0  0  0  0  0  0  0  0  0
   31.4111   -6.7686   46.5266 C   0  0  0  0  0  0  0  0  0  0  0  0
   31.6155   -5.6416   45.7806 C   0  0  0  0  0  0  0  0  0  0  0  0
   30.7642   -5.6525   44.5689 C   0  0  0  0  0  0  0  0  0  0  0  0
   29.8475   -9.9267   46.1014 O   0  0  0  0  0  0  0  0  0  0  0  0
   28.9316   -8.0052   46.6482 O   0  0  0  0  0  0  0  0  0  0  0  0
   29.8473   -8.7340   46.1272 C   0  0  0  0  0  0  0  0  0  0  0  0
   30.5580  -10.3866   45.6994 H   0  0  0  0  0  0  0  0  0  0  0  0
   30.5026   -7.3468   40.9444 N   0  0  0  0  0  0  0  0  0  0  0  0
   31.3356   -7.7068   41.4101 H   0  0  0  0  0  0  0  0  0  0  0  0
   30.1315   -8.3540   39.8573 C   0  0  0  0  0  0  0  0  0  0  0  0
   31.8951   -9.5973   40.9216 O   0  0  0  0  0  0  0  0  0  0  0  0
   30.8189  -10.5729   39.2802 O   0  0  0  0  0  0  0  0  0  0  0  0
   31.0195   -9.5891   40.0436 C   0  0  0  0  0  0  0  0  0  0  0  0
   32.0152   -8.8475   41.4705 H   0  0  0  0  0  0  0  0  0  0  0  0
   30.2447   -7.7158   38.4365 C   0  0  0  0  0  0  0  0  0  0  0  0
   30.2624   -6.1968   38.5240 C   0  0  0  0  0  0  0  0  0  0  0  0
   29.4098   -5.4017   37.5766 C   0  0  0  0  0  0  0  0  0  0  0  0
   30.0377   -4.4690   36.6950 C   0  0  0  0  0  0  0  0  0  0  0  0
   29.2624   -3.7001   35.7827 C   0  0  0  0  0  0  0  0  0  0  0  0
   27.8369   -3.8579   35.7520 C   0  0  0  0  0  0  0  0  0  0  0  0
   27.1988   -4.7854   36.6338 C   0  0  0  0  0  0  0  0  0  0  0  0
   27.9834   -5.5559   37.5410 C   0  0  0  0  0  0  0  0  0  0  0  0
   28.1011   -7.5060   41.7787 C   0  0  0  0  0  0  0  0  0  0  0  0
   27.2000   -6.6882   40.9830 C   0  0  0  0  0  0  0  0  0  0  0  0
   27.2420   -5.0922   41.1973 C   0  0  0  0  0  0  0  0  0  0  0  0
   26.5816   -3.2663   42.7115 N   0  0  0  0  0  0  0  0  0  0  0  0
   26.5746   -4.7479   42.4295 C   0  0  0  0  0  0  0  0  0  0  0  0
   26.0979   -3.0854   43.5910 H   0  0  0  0  0  0  0  0  0  0  0  0
   26.1069   -2.7739   41.9548 H   0  0  0  0  0  0  0  0  0  0  0  0
  3  2  2  0  0  0
 16 18  1  0  0  0
 17 18  2  0  0  0
  9 11  1  0  0  0
 10 11  2  0  0  0
 13  1  1  0  0  0
 13 15  1  0  0  0
  4  2  1  0  0  0
  4  5  1  0  0  0
  4  8  1  0  0  0
 31 32  1  0  0  0
  2  1  1  0  0  0
  1 28  1  0  0  0
 18 15  1  0  0  0
 15 20  1  0  0  0
  5  6  1  0  0  0
  5 11  1  0  0  0
  6  7  1  0  0  0
  7  8  1  0  0  0
 28 29  1  0  0  0
 29 30  1  0  0  0
 30 32  1  0  0  0
 20 21  1  0  0  0
 21 22  1  0  0  0
 22 23  2  0  0  0
 22 27  1  0  0  0
 23 24  1  0  0  0
 24 25  2  0  0  0
 25 26  1  0  0  0
 26 27  2  0  0  0
 16 19  1  0  0  0
 13 14  1  0  0  0
 31 33  1  0  0  0
 31 34  1  0  0  0
  9 12  1  0  0  0
M  END
> <minimizedAffinity>
-7.97925

$$$$
2X91_LPR_A_1615


 34 35  0  0  0  0  0  0  0  0999 V2000
   28.0602   -5.5095   40.6853 C   0  0  0  0  0  0  0  0  0  0  0  0
   28.0526   -5.0949   42.1972 C   0  0  0  0  0  0  0  0  0  0  0  0
   26.9318   -4.9758   42.7909 O   0  0  0  0  0  0  0  0  0  0  0  0
   29.1903   -4.8549   42.8842 N   0  0  0  0  0  0  0  0  0  0  0  0
   29.1065   -4.4282   44.3341 C   0  0  0  0  0  0  0  0  0  0  0  0
   30.5852   -4.1567   44.6557 C   0  0  0  0  0  0  0  0  0  0  0  0
   31.3388   -4.8128   43.7230 C   0  0  0  0  0  0  0  0  0  0  0  0
   30.6105   -4.9155   42.4376 C   0  0  0  0  0  0  0  0  0  0  0  0
   27.1437   -3.1615   44.8873 O   0  0  0  0  0  0  0  0  0  0  0  0
   28.9031   -2.0970   44.1120 O   0  0  0  0  0  0  0  0  0  0  0  0
   28.2590   -3.1469   44.4641 C   0  0  0  0  0  0  0  0  0  0  0  0
   26.7427   -3.9749   45.1231 H   0  0  0  0  0  0  0  0  0  0  0  0
   28.5397   -6.9367   40.6783 N   0  0  0  0  0  0  0  0  0  0  0  0
   27.7167   -7.5253   40.5497 H   0  0  0  0  0  0  0  0  0  0  0  0
   29.5696   -7.3805   39.6408 C   0  0  0  0  0  0  0  0  0  0  0  0
   30.6280   -8.2946   41.5986 O   0  0  0  0  0  0  0  0  0  0  0  0
   31.7825   -8.2875   39.7356 O   0  0  0  0  0  0  0  0  0  0  0  0
   30.7355   -8.0334   40.3913 C   0  0  0  0  0  0  0  0  0  0  0  0
   29.8342   -8.0912   42.0531 H   0  0  0  0  0  0  0  0  0  0  0  0
   30.0052   -6.1863   38.7338 C   0  0  0  0  0  0  0  0  0  0  0  0
   29.1855   -6.1512   37.4523 C   0  0  0  0  0  0  0  0  0  0  0  0
   29.0901   -4.8647   36.6825 C   0  0  0  0  0  0  0  0  0  0  0  0
   27.8624   -4.5368   36.0295 C   0  0  0  0  0  0  0  0  0  0  0  0
   27.7346   -3.3260   35.2932 C   0  0  0  0  0  0  0  0  0  0  0  0
   28.8503   -2.4292   35.2002 C   0  0  0  0  0  0  0  0  0  0  0  0
   30.0848   -2.7508   35.8464 C   0  0  0  0  0  0  0  0  0  0  0  0
   30.2027   -3.9633   36.5867 C   0  0  0  0  0  0  0  0  0  0  0  0
   26.6612   -5.2935   40.1687 C   0  0  0  0  0  0  0  0  0  0  0  0
   26.0362   -6.3360   39.3708 C   0  0  0  0  0  0  0  0  0  0  0  0
   25.1520   -5.8866   38.1015 C   0  0  0  0  0  0  0  0  0  0  0  0
   22.9529   -6.2096   37.0422 N   0  0  0  0  0  0  0  0  0  0  0  0
   23.7765   -6.2729   38.3040 C   0  0  0  0  0  0  0  0  0  0  0  0
   21.9945   -6.4923   37.2472 H   0  0  0  0  0  0  0  0  0  0  0  0
   23.3509   -6.8381   36.3445 H   0  0  0  0  0  0  0  0  0  0  0  0
  3  2  2  0  0  0
 16 18  1  0  0  0
 17 18  2  0  0  0
  9 11  1  0  0  0
 10 11  2  0  0  0
 13  1  1  0  0  0
 13 15  1  0  0  0
  4  2  1  0  0  0
  4  5  1  0  0  0
  4  8  1  0  0  0
 31 32  1  0  0  0
  2  1  1  0  0  0
  1 28  1  0  0  0
 18 15  1  0  0  0
 15 20  1  0  0  0
  5  6  1  0  0  0
  5 11  1  0  0  0
  6  7  1  0  0  0
  7  8  1  0  0  0
 28 29  1  0  0  0
 29 30  1  0  0  0
 30 32  1  0  0  0
 20 21  1  0  0  0
 21 22  1  0  0  0
 22 23  2  0  0  0
 22 27  1  0  0  0
 23 24  1  0  0  0
 24 25  2  0  0  0
 25 26  1  0  0  0
 26 27  2  0  0  0
 16 19  1  0  0  0
 13 14  1  0  0  0
 31 33  1  0  0  0
 31 34  1  0  0  0
  9 12  1  0  0  0
M  END
> <minimizedAffinity>
-7.97799

$$$$
2X91_LPR_A_1615


 34 35  0  0  0  0  0  0  0  0999 V2000
   27.8183   -5.2453   41.6202 C   0  0  0  0  0  0  0  0  0  0  0  0
   27.4638   -4.8683   40.1404 C   0  0  0  0  0  0  0  0  0  0  0  0
   26.3465   -4.3026   39.9066 O   0  0  0  0  0  0  0  0  0  0  0  0
   28.2979   -5.1288   39.1108 N   0  0  0  0  0  0  0  0  0  0  0  0
   27.8769   -4.7647   37.7032 C   0  0  0  0  0  0  0  0  0  0  0  0
   29.0416   -5.3394   36.8805 C   0  0  0  0  0  0  0  0  0  0  0  0
   30.1039   -5.5023   37.7251 C   0  0  0  0  0  0  0  0  0  0  0  0
   29.6405   -5.7751   39.1049 C   0  0  0  0  0  0  0  0  0  0  0  0
   25.5637   -4.8399   37.0654 O   0  0  0  0  0  0  0  0  0  0  0  0
   26.6398   -6.7336   37.3591 O   0  0  0  0  0  0  0  0  0  0  0  0
   26.5449   -5.4560   37.3499 C   0  0  0  0  0  0  0  0  0  0  0  0
   25.5770   -3.9032   37.0835 H   0  0  0  0  0  0  0  0  0  0  0  0
   27.3598   -4.0683   42.4394 N   0  0  0  0  0  0  0  0  0  0  0  0
   26.3731   -4.2196   42.6492 H   0  0  0  0  0  0  0  0  0  0  0  0
   28.0529   -3.7570   43.7648 C   0  0  0  0  0  0  0  0  0  0  0  0
   26.5632   -1.9937   44.4435 O   0  0  0  0  0  0  0  0  0  0  0  0
   28.6651   -1.4691   44.1103 O   0  0  0  0  0  0  0  0  0  0  0  0
   27.7224   -2.3067   44.1341 C   0  0  0  0  0  0  0  0  0  0  0  0
   25.8883   -2.6436   44.4500 H   0  0  0  0  0  0  0  0  0  0  0  0
   29.5858   -4.0426   43.6790 C   0  0  0  0  0  0  0  0  0  0  0  0
   30.1456   -4.4149   45.0441 C   0  0  0  0  0  0  0  0  0  0  0  0
   30.1337   -5.8557   45.4691 C   0  0  0  0  0  0  0  0  0  0  0  0
   28.9712   -6.3787   46.1142 C   0  0  0  0  0  0  0  0  0  0  0  0
   28.9233   -7.7390   46.5287 C   0  0  0  0  0  0  0  0  0  0  0  0
   30.0545   -8.5916   46.3026 C   0  0  0  0  0  0  0  0  0  0  0  0
   31.2245   -8.0761   45.6619 C   0  0  0  0  0  0  0  0  0  0  0  0
   31.2622   -6.7134   45.2448 C   0  0  0  0  0  0  0  0  0  0  0  0
   27.1235   -6.5497   41.9144 C   0  0  0  0  0  0  0  0  0  0  0  0
   27.7265   -7.4702   42.8647 C   0  0  0  0  0  0  0  0  0  0  0  0
   29.1559   -8.1118   42.4905 C   0  0  0  0  0  0  0  0  0  0  0  0
   27.7406  -10.0879   42.0973 N   0  0  0  0  0  0  0  0  0  0  0  0
   28.9636   -9.3016   41.6969 C   0  0  0  0  0  0  0  0  0  0  0  0
   27.6578  -10.9134   41.5039 H   0  0  0  0  0  0  0  0  0  0  0  0
   26.9106   -9.5053   41.9870 H   0  0  0  0  0  0  0  0  0  0  0  0
  3  2  2  0  0  0
 16 18  1  0  0  0
 17 18  2  0  0  0
  9 11  1  0  0  0
 10 11  2  0  0  0
 13  1  1  0  0  0
 13 15  1  0  0  0
  4  2  1  0  0  0
  4  5  1  0  0  0
  4  8  1  0  0  0
 31 32  1  0  0  0
  2  1  1  0  0  0
  1 28  1  0  0  0
 18 15  1  0  0  0
 15 20  1  0  0  0
  5  6  1  0  0  0
  5 11  1  0  0  0
  6  7  1  0  0  0
  7  8  1  0  0  0
 28 29  1  0  0  0
 29 30  1  0  0  0
 30 32  1  0  0  0
 20 21  1  0  0  0
 21 22  1  0  0  0
 22 23  2  0  0  0
 22 27  1  0  0  0
 23 24  1  0  0  0
 24 25  2  0  0  0
 25 26  1  0  0  0
 26 27  2  0  0  0
 16 19  1  0  0  0
 13 14  1  0  0  0
 31 33  1  0  0  0
 31 34  1  0  0  0
  9 12  1  0  0  0
M  END
> <minimizedAffinity>
-7.97575

$$$$
2X91_LPR_A_1615


 34 35  0  0  0  0  0  0  0  0999 V2000
   27.1478   -6.1769   41.2299 C   0  0  0  0  0  0  0  0  0  0  0  0
   26.7528   -5.7606   39.7710 C   0  0  0  0  0  0  0  0  0  0  0  0
   26.5002   -4.5345   39.5344 O   0  0  0  0  0  0  0  0  0  0  0  0
   26.6660   -6.6568   38.7645 N   0  0  0  0  0  0  0  0  0  0  0  0
   26.2488   -6.1885   37.3868 C   0  0  0  0  0  0  0  0  0  0  0  0
   26.1696   -7.5216   36.6250 C   0  0  0  0  0  0  0  0  0  0  0  0
   26.9048   -8.4401   37.3209 C   0  0  0  0  0  0  0  0  0  0  0  0
   26.9001   -8.1283   38.7686 C   0  0  0  0  0  0  0  0  0  0  0  0
   24.7312   -4.3360   37.2186 O   0  0  0  0  0  0  0  0  0  0  0  0
   23.9284   -6.3140   37.7407 O   0  0  0  0  0  0  0  0  0  0  0  0
   24.8724   -5.4970   37.4535 C   0  0  0  0  0  0  0  0  0  0  0  0
   25.4763   -3.8049   37.0165 H   0  0  0  0  0  0  0  0  0  0  0  0
   28.5679   -6.6650   41.1215 N   0  0  0  0  0  0  0  0  0  0  0  0
   28.6458   -7.1549   40.2302 H   0  0  0  0  0  0  0  0  0  0  0  0
   29.7166   -5.6594   41.1773 C   0  0  0  0  0  0  0  0  0  0  0  0
   30.0872   -5.7440   38.8015 O   0  0  0  0  0  0  0  0  0  0  0  0
   31.7948   -6.1732   40.1068 O   0  0  0  0  0  0  0  0  0  0  0  0
   30.5828   -5.8718   39.9308 C   0  0  0  0  0  0  0  0  0  0  0  0
   29.1822   -5.5191   38.7097 H   0  0  0  0  0  0  0  0  0  0  0  0
   30.5114   -5.7865   42.5154 C   0  0  0  0  0  0  0  0  0  0  0  0
   30.2052   -7.1081   43.2048 C   0  0  0  0  0  0  0  0  0  0  0  0
   30.0254   -7.1283   44.6961 C   0  0  0  0  0  0  0  0  0  0  0  0
   28.8785   -7.7778   45.2475 C   0  0  0  0  0  0  0  0  0  0  0  0
   28.6763   -7.8186   46.6553 C   0  0  0  0  0  0  0  0  0  0  0  0
   29.6291   -7.1966   47.5289 C   0  0  0  0  0  0  0  0  0  0  0  0
   30.7778   -6.5400   46.9863 C   0  0  0  0  0  0  0  0  0  0  0  0
   30.9757   -6.5084   45.5749 C   0  0  0  0  0  0  0  0  0  0  0  0
   26.9446   -4.9622   42.0983 C   0  0  0  0  0  0  0  0  0  0  0  0
   26.7732   -5.1413   43.5309 C   0  0  0  0  0  0  0  0  0  0  0  0
   27.7173   -4.2856   44.5165 C   0  0  0  0  0  0  0  0  0  0  0  0
   28.7886   -2.0977   44.1589 N   0  0  0  0  0  0  0  0  0  0  0  0
   27.5039   -2.8759   44.2941 C   0  0  0  0  0  0  0  0  0  0  0  0
   28.5746   -1.1125   44.0041 H   0  0  0  0  0  0  0  0  0  0  0  0
   29.3228   -2.4579   43.3682 H   0  0  0  0  0  0  0  0  0  0  0  0
  3  2  2  0  0  0
 16 18  1  0  0  0
 17 18  2  0  0  0
  9 11  1  0  0  0
 10 11  2  0  0  0
 13  1  1  0  0  0
 13 15  1  0  0  0
  4  2  1  0  0  0
  4  5  1  0  0  0
  4  8  1  0  0  0
 31 32  1  0  0  0
  2  1  1  0  0  0
  1 28  1  0  0  0
 18 15  1  0  0  0
 15 20  1  0  0  0
  5  6  1  0  0  0
  5 11  1  0  0  0
  6  7  1  0  0  0
  7  8  1  0  0  0
 28 29  1  0  0  0
 29 30  1  0  0  0
 30 32  1  0  0  0
 20 21  1  0  0  0
 21 22  1  0  0  0
 22 23  2  0  0  0
 22 27  1  0  0  0
 23 24  1  0  0  0
 24 25  2  0  0  0
 25 26  1  0  0  0
 26 27  2  0  0  0
 16 19  1  0  0  0
 13 14  1  0  0  0
 31 33  1  0  0  0
 31 34  1  0  0  0
  9 12  1  0  0  0
M  END
> <minimizedAffinity>
-7.88446

$$$$
2X91_LPR_A_1615


 34 35  0  0  0  0  0  0  0  0999 V2000
   27.7304   -3.4884   44.8117 C   0  0  0  0  0  0  0  0  0  0  0  0
   29.2442   -3.8612   44.6460 C   0  0  0  0  0  0  0  0  0  0  0  0
   29.9573   -3.1725   43.8460 O   0  0  0  0  0  0  0  0  0  0  0  0
   29.8109   -4.8877   45.3159 N   0  0  0  0  0  0  0  0  0  0  0  0
   31.2714   -5.2103   45.0836 C   0  0  0  0  0  0  0  0  0  0  0  0
   31.4392   -6.4820   45.9311 C   0  0  0  0  0  0  0  0  0  0  0  0
   30.4152   -6.5143   46.8359 C   0  0  0  0  0  0  0  0  0  0  0  0
   29.2132   -5.8412   46.2925 C   0  0  0  0  0  0  0  0  0  0  0  0
   32.2811   -4.8436   42.9367 O   0  0  0  0  0  0  0  0  0  0  0  0
   30.8679   -6.5108   43.1676 O   0  0  0  0  0  0  0  0  0  0  0  0
   31.5231   -5.4939   43.5892 C   0  0  0  0  0  0  0  0  0  0  0  0
   32.7224   -4.1122   43.3216 H   0  0  0  0  0  0  0  0  0  0  0  0
   27.7345   -2.0667   45.3072 N   0  0  0  0  0  0  0  0  0  0  0  0
   28.6667   -1.6932   45.1286 H   0  0  0  0  0  0  0  0  0  0  0  0
   26.7365   -1.0645   44.7295 C   0  0  0  0  0  0  0  0  0  0  0  0
   26.9380    0.9029   43.3593 O   0  0  0  0  0  0  0  0  0  0  0  0
   28.7881   -0.1213   43.9359 O   0  0  0  0  0  0  0  0  0  0  0  0
   27.5315   -0.0129   43.9480 C   0  0  0  0  0  0  0  0  0  0  0  0
   26.0028    0.9512   43.3906 H   0  0  0  0  0  0  0  0  0  0  0  0
   25.8365   -0.4563   45.8514 C   0  0  0  0  0  0  0  0  0  0  0  0
   26.6392    0.4801   46.7427 C   0  0  0  0  0  0  0  0  0  0  0  0
   26.0731    1.8303   47.0793 C   0  0  0  0  0  0  0  0  0  0  0  0
   26.5998    2.9858   46.4247 C   0  0  0  0  0  0  0  0  0  0  0  0
   26.0868    4.2804   46.7167 C   0  0  0  0  0  0  0  0  0  0  0  0
   25.0357    4.4279   47.6816 C   0  0  0  0  0  0  0  0  0  0  0  0
   24.5052    3.2778   48.3456 C   0  0  0  0  0  0  0  0  0  0  0  0
   25.0209    1.9836   48.0432 C   0  0  0  0  0  0  0  0  0  0  0  0
   27.0804   -3.7050   43.4695 C   0  0  0  0  0  0  0  0  0  0  0  0
   27.0229   -5.0514   42.9239 C   0  0  0  0  0  0  0  0  0  0  0  0
   27.7342   -5.3210   41.5039 C   0  0  0  0  0  0  0  0  0  0  0  0
   26.9456   -4.1698   39.4753 N   0  0  0  0  0  0  0  0  0  0  0  0
   26.7464   -5.3014   40.4522 C   0  0  0  0  0  0  0  0  0  0  0  0
   26.2209   -4.2079   38.7585 H   0  0  0  0  0  0  0  0  0  0  0  0
   27.8624   -4.2566   39.0367 H   0  0  0  0  0  0  0  0  0  0  0  0
  3  2  2  0  0  0
 16 18  1  0  0  0
 17 18  2  0  0  0
  9 11  1  0  0  0
 10 11  2  0  0  0
 13  1  1  0  0  0
 13 15  1  0  0  0
  4  2  1  0  0  0
  4  5  1  0  0  0
  4  8  1  0  0  0
 31 32  1  0  0  0
  2  1  1  0  0  0
  1 28  1  0  0  0
 18 15  1  0  0  0
 15 20  1  0  0  0
  5  6  1  0  0  0
  5 11  1  0  0  0
  6  7  1  0  0  0
  7  8  1  0  0  0
 28 29  1  0  0  0
 29 30  1  0  0  0
 30 32  1  0  0  0
 20 21  1  0  0  0
 21 22  1  0  0  0
 22 23  2  0  0  0
 22 27  1  0  0  0
 23 24  1  0  0  0
 24 25  2  0  0  0
 25 26  1  0  0  0
 26 27  2  0  0  0
 16 19  1  0  0  0
 13 14  1  0  0  0
 31 33  1  0  0  0
 31 34  1  0  0  0
  9 12  1  0  0  0
M  END
> <minimizedAffinity>
-7.83946

$$$$
2X91_LPR_A_1615


 34 35  0  0  0  0  0  0  0  0999 V2000
   28.4457   -7.7602   42.6856 C   0  0  0  0  0  0  0  0  0  0  0  0
   28.7662   -8.6997   41.4722 C   0  0  0  0  0  0  0  0  0  0  0  0
   28.2949   -9.8833   41.4769 O   0  0  0  0  0  0  0  0  0  0  0  0
   29.5273   -8.2983   40.4314 N   0  0  0  0  0  0  0  0  0  0  0  0
   29.8215   -9.2693   39.3081 C   0  0  0  0  0  0  0  0  0  0  0  0
   30.7888   -8.4462   38.4419 C   0  0  0  0  0  0  0  0  0  0  0  0
   30.6192   -7.1298   38.7689 C   0  0  0  0  0  0  0  0  0  0  0  0
   30.1955   -6.9902   40.1811 C   0  0  0  0  0  0  0  0  0  0  0  0
   30.0058  -11.6163   39.7781 O   0  0  0  0  0  0  0  0  0  0  0  0
   31.6537  -10.2885   40.3709 O   0  0  0  0  0  0  0  0  0  0  0  0
   30.5036  -10.5355   39.8635 C   0  0  0  0  0  0  0  0  0  0  0  0
   29.1574  -11.7121   39.3919 H   0  0  0  0  0  0  0  0  0  0  0  0
   27.1673   -7.0613   42.3061 N   0  0  0  0  0  0  0  0  0  0  0  0
   26.4950   -7.2485   43.0500 H   0  0  0  0  0  0  0  0  0  0  0  0
   27.1725   -5.5500   42.0825 C   0  0  0  0  0  0  0  0  0  0  0  0
   26.8222   -4.1379   40.1662 O   0  0  0  0  0  0  0  0  0  0  0  0
   26.5679   -6.2974   39.8906 O   0  0  0  0  0  0  0  0  0  0  0  0
   26.8309   -5.2956   40.6103 C   0  0  0  0  0  0  0  0  0  0  0  0
   27.0229   -3.4179   40.7312 H   0  0  0  0  0  0  0  0  0  0  0  0
   28.5322   -4.9207   42.5228 C   0  0  0  0  0  0  0  0  0  0  0  0
   28.5004   -4.5354   43.9946 C   0  0  0  0  0  0  0  0  0  0  0  0
   29.4622   -5.1944   44.9419 C   0  0  0  0  0  0  0  0  0  0  0  0
   30.8330   -5.3227   44.5604 C   0  0  0  0  0  0  0  0  0  0  0  0
   31.7728   -5.9394   45.4328 C   0  0  0  0  0  0  0  0  0  0  0  0
   31.3391   -6.4426   46.7042 C   0  0  0  0  0  0  0  0  0  0  0  0
   29.9681   -6.3231   47.0930 C   0  0  0  0  0  0  0  0  0  0  0  0
   29.0340   -5.6990   46.2154 C   0  0  0  0  0  0  0  0  0  0  0  0
   28.3655   -8.6397   43.9066 C   0  0  0  0  0  0  0  0  0  0  0  0
   29.5973   -9.0501   44.5611 C   0  0  0  0  0  0  0  0  0  0  0  0
   29.4999   -9.6141   46.0668 C   0  0  0  0  0  0  0  0  0  0  0  0
   27.4344   -8.9123   47.2087 N   0  0  0  0  0  0  0  0  0  0  0  0
   28.1315   -9.9556   46.3720 C   0  0  0  0  0  0  0  0  0  0  0  0
   26.4754   -9.2079   47.3911 H   0  0  0  0  0  0  0  0  0  0  0  0
   27.4268   -8.0239   46.7076 H   0  0  0  0  0  0  0  0  0  0  0  0
  3  2  2  0  0  0
 16 18  1  0  0  0
 17 18  2  0  0  0
  9 11  1  0  0  0
 10 11  2  0  0  0
 13  1  1  0  0  0
 13 15  1  0  0  0
  4  2  1  0  0  0
  4  5  1  0  0  0
  4  8  1  0  0  0
 31 32  1  0  0  0
  2  1  1  0  0  0
  1 28  1  0  0  0
 18 15  1  0  0  0
 15 20  1  0  0  0
  5  6  1  0  0  0
  5 11  1  0  0  0
  6  7  1  0  0  0
  7  8  1  0  0  0
 28 29  1  0  0  0
 29 30  1  0  0  0
 30 32  1  0  0  0
 20 21  1  0  0  0
 21 22  1  0  0  0
 22 23  2  0  0  0
 22 27  1  0  0  0
 23 24  1  0  0  0
 24 25  2  0  0  0
 25 26  1  0  0  0
 26 27  2  0  0  0
 16 19  1  0  0  0
 13 14  1  0  0  0
 31 33  1  0  0  0
 31 34  1  0  0  0
  9 12  1  0  0  0
M  END
> <minimizedAffinity>
-7.81312

$$$$
