4KZ4_4A1_B_401


 18 18  0  0  0  0  0  0  0  0999 V2000
   78.9280    6.8897   29.3363 C   0  0  0  0  0  0  0  0  0  0  0  0
   78.7725    7.1518   27.9778 C   0  0  0  0  0  0  0  0  0  0  0  0
   79.3274    8.2986   27.4524 C   0  0  0  0  0  0  0  0  0  0  0  0
   80.0211    9.1611   28.2479 C   0  0  0  0  0  0  0  0  0  0  0  0
   80.1887    8.9078   29.5921 C   0  0  0  0  0  0  0  0  0  0  0  0
   79.6410    7.7825   30.1190 C   0  0  0  0  0  0  0  0  0  0  0  0
   78.9260    4.5764   29.8764 O   0  0  0  0  0  0  0  0  0  0  0  0
   77.1841    5.8488   30.4681 O   0  0  0  0  0  0  0  0  0  0  0  0
   78.3497    5.6597   29.9076 C   0  0  0  0  0  0  0  0  0  0  0  0
   79.7617    4.5021   29.4593 H   0  0  0  0  0  0  0  0  0  0  0  0
   78.0262    6.2179   27.2495 N   0  0  0  0  0  0  0  0  0  0  0  0
   77.0545    6.2435   27.4057 H   0  0  0  0  0  0  0  0  0  0  0  0
   78.5282    5.0957   26.1825 S   0  0  0  0  0  0  0  0  0  0  0  0
   79.6315    5.7114   25.5590 O   0  0  0  0  0  0  0  0  0  0  0  0
   78.6542    3.9022   26.9303 O   0  0  0  0  0  0  0  0  0  0  0  0
   77.1959    4.9162   25.0735 C   0  0  0  0  0  0  0  0  0  0  0  0
   76.9763    6.2112   24.2686 C   0  0  0  0  0  0  0  0  0  0  0  0
   75.7762    6.0018   23.3313 C   0  0  0  0  0  0  0  0  0  0  0  0
  8  9  2  0  0  0
  6  5  2  0  0  0
  6  1  1  0  0  0
  9  1  1  0  0  0
  9  7  1  0  0  0
  5  4  1  0  0  0
  1  2  2  0  0  0
  4  3  2  0  0  0
  2  3  1  0  0  0
  2 11  1  0  0  0
 11 13  1  0  0  0
 14 13  2  0  0  0
 13 15  2  0  0  0
 13 16  1  0  0  0
 16 17  1  0  0  0
 17 18  1  0  0  0
 11 12  1  0  0  0
  7 10  1  0  0  0
M  END
> <minimizedAffinity>
-6.53884

$$$$
4KZ4_4A1_B_401


 18 18  0  0  0  0  0  0  0  0999 V2000
   78.5201    6.7477   28.5060 C   0  0  0  0  0  0  0  0  0  0  0  0
   79.5260    5.8685   28.8980 C   0  0  0  0  0  0  0  0  0  0  0  0
   80.4894    5.5066   27.9816 C   0  0  0  0  0  0  0  0  0  0  0  0
   80.4617    6.0039   26.7128 C   0  0  0  0  0  0  0  0  0  0  0  0
   79.4758    6.8814   26.3160 C   0  0  0  0  0  0  0  0  0  0  0  0
   78.5197    7.2394   27.2113 C   0  0  0  0  0  0  0  0  0  0  0  0
   76.4840    6.4856   29.7013 O   0  0  0  0  0  0  0  0  0  0  0  0
   77.7745    8.2689   30.0984 O   0  0  0  0  0  0  0  0  0  0  0  0
   77.4909    7.1521   29.4811 C   0  0  0  0  0  0  0  0  0  0  0  0
   76.3343    5.6920   29.2261 H   0  0  0  0  0  0  0  0  0  0  0  0
   79.4562    5.3965   30.2140 N   0  0  0  0  0  0  0  0  0  0  0  0
   78.9555    4.5572   30.3329 H   0  0  0  0  0  0  0  0  0  0  0  0
   80.0808    6.0308   31.5768 S   0  0  0  0  0  0  0  0  0  0  0  0
   80.7853    7.1605   31.1157 O   0  0  0  0  0  0  0  0  0  0  0  0
   78.9907    6.1356   32.4714 O   0  0  0  0  0  0  0  0  0  0  0  0
   81.1701    4.8076   32.1722 C   0  0  0  0  0  0  0  0  0  0  0  0
   80.5626    4.0782   33.3855 C   0  0  0  0  0  0  0  0  0  0  0  0
   81.3028    4.5417   34.6503 C   0  0  0  0  0  0  0  0  0  0  0  0
  8  9  2  0  0  0
  6  5  2  0  0  0
  6  1  1  0  0  0
  9  1  1  0  0  0
  9  7  1  0  0  0
  5  4  1  0  0  0
  1  2  2  0  0  0
  4  3  2  0  0  0
  2  3  1  0  0  0
  2 11  1  0  0  0
 11 13  1  0  0  0
 14 13  2  0  0  0
 13 15  2  0  0  0
 13 16  1  0  0  0
 16 17  1  0  0  0
 17 18  1  0  0  0
 11 12  1  0  0  0
  7 10  1  0  0  0
M  END
> <minimizedAffinity>
-6.46244

$$$$
4KZ4_4A1_B_401


 18 18  0  0  0  0  0  0  0  0999 V2000
   80.0834    5.4003   27.6858 C   0  0  0  0  0  0  0  0  0  0  0  0
   80.2469    5.3826   29.0683 C   0  0  0  0  0  0  0  0  0  0  0  0
   81.4622    5.7547   29.6006 C   0  0  0  0  0  0  0  0  0  0  0  0
   82.4874    6.1382   28.7883 C   0  0  0  0  0  0  0  0  0  0  0  0
   82.3346    6.1677   27.4189 C   0  0  0  0  0  0  0  0  0  0  0  0
   81.1417    5.7978   26.8857 C   0  0  0  0  0  0  0  0  0  0  0  0
   78.5583    3.8942   26.6618 O   0  0  0  0  0  0  0  0  0  0  0  0
   77.8996    5.9785   27.1362 O   0  0  0  0  0  0  0  0  0  0  0  0
   78.7839    5.0164   27.1049 C   0  0  0  0  0  0  0  0  0  0  0  0
   79.2334    3.2444   26.6659 H   0  0  0  0  0  0  0  0  0  0  0  0
   79.1436    4.9538   29.8157 N   0  0  0  0  0  0  0  0  0  0  0  0
   78.8377    4.0378   29.6246 H   0  0  0  0  0  0  0  0  0  0  0  0
   78.2921    5.7465   30.9541 S   0  0  0  0  0  0  0  0  0  0  0  0
   78.3186    7.0826   30.5077 O   0  0  0  0  0  0  0  0  0  0  0  0
   77.0861    5.0205   31.0888 O   0  0  0  0  0  0  0  0  0  0  0  0
   79.2221    5.5508   32.4150 C   0  0  0  0  0  0  0  0  0  0  0  0
   79.7157    4.0987   32.5585 C   0  0  0  0  0  0  0  0  0  0  0  0
   80.7922    4.0585   33.6548 C   0  0  0  0  0  0  0  0  0  0  0  0
  8  9  2  0  0  0
  6  5  2  0  0  0
  6  1  1  0  0  0
  9  1  1  0  0  0
  9  7  1  0  0  0
  5  4  1  0  0  0
  1  2  2  0  0  0
  4  3  2  0  0  0
  2  3  1  0  0  0
  2 11  1  0  0  0
 11 13  1  0  0  0
 14 13  2  0  0  0
 13 15  2  0  0  0
 13 16  1  0  0  0
 16 17  1  0  0  0
 17 18  1  0  0  0
 11 12  1  0  0  0
  7 10  1  0  0  0
M  END
> <minimizedAffinity>
-6.12925

$$$$
4KZ4_4A1_B_401


 18 18  0  0  0  0  0  0  0  0999 V2000
   80.5938    6.3350   28.4384 C   0  0  0  0  0  0  0  0  0  0  0  0
   79.2696    5.9446   28.6192 C   0  0  0  0  0  0  0  0  0  0  0  0
   78.3116    6.4125   27.7462 C   0  0  0  0  0  0  0  0  0  0  0  0
   78.6540    7.2409   26.7193 C   0  0  0  0  0  0  0  0  0  0  0  0
   79.9626    7.6272   26.5254 C   0  0  0  0  0  0  0  0  0  0  0  0
   80.9123    7.1746   27.3840 C   0  0  0  0  0  0  0  0  0  0  0  0
   82.2611    4.7994   29.1488 O   0  0  0  0  0  0  0  0  0  0  0  0
   81.8209    6.6042   30.3947 O   0  0  0  0  0  0  0  0  0  0  0  0
   81.6297    5.8309   29.3583 C   0  0  0  0  0  0  0  0  0  0  0  0
   82.0791    4.2851   28.3870 H   0  0  0  0  0  0  0  0  0  0  0  0
   79.0152    5.1101   29.7139 N   0  0  0  0  0  0  0  0  0  0  0  0
   79.2542    4.1638   29.5848 H   0  0  0  0  0  0  0  0  0  0  0  0
   78.3824    5.4737   31.1689 S   0  0  0  0  0  0  0  0  0  0  0  0
   78.6906    6.8397   31.3247 O   0  0  0  0  0  0  0  0  0  0  0  0
   77.0501    5.0020   31.1231 O   0  0  0  0  0  0  0  0  0  0  0  0
   79.2788    4.4922   32.2961 C   0  0  0  0  0  0  0  0  0  0  0  0
   80.0005    5.3724   33.3340 C   0  0  0  0  0  0  0  0  0  0  0  0
   80.9671    4.4849   34.1342 C   0  0  0  0  0  0  0  0  0  0  0  0
  8  9  2  0  0  0
  6  5  2  0  0  0
  6  1  1  0  0  0
  9  1  1  0  0  0
  9  7  1  0  0  0
  5  4  1  0  0  0
  1  2  2  0  0  0
  4  3  2  0  0  0
  2  3  1  0  0  0
  2 11  1  0  0  0
 11 13  1  0  0  0
 14 13  2  0  0  0
 13 15  2  0  0  0
 13 16  1  0  0  0
 16 17  1  0  0  0
 17 18  1  0  0  0
 11 12  1  0  0  0
  7 10  1  0  0  0
M  END
> <minimizedAffinity>
-6.05462

$$$$
4KZ4_4A1_B_401


 18 18  0  0  0  0  0  0  0  0999 V2000
   79.4269    5.8431   30.1853 C   0  0  0  0  0  0  0  0  0  0  0  0
   79.9978    5.2936   29.0405 C   0  0  0  0  0  0  0  0  0  0  0  0
   81.3591    5.4022   28.8565 C   0  0  0  0  0  0  0  0  0  0  0  0
   82.1361    6.0334   29.7816 C   0  0  0  0  0  0  0  0  0  0  0  0
   81.5835    6.5737   30.9226 C   0  0  0  0  0  0  0  0  0  0  0  0
   80.2420    6.4754   31.1095 C   0  0  0  0  0  0  0  0  0  0  0  0
   77.1684    6.5516   29.9858 O   0  0  0  0  0  0  0  0  0  0  0  0
   77.6346    4.6377   31.0456 O   0  0  0  0  0  0  0  0  0  0  0  0
   77.9733    5.7224   30.3995 C   0  0  0  0  0  0  0  0  0  0  0  0
   77.4714    7.3111   29.5284 H   0  0  0  0  0  0  0  0  0  0  0  0
   79.1148    4.6853   28.1405 N   0  0  0  0  0  0  0  0  0  0  0  0
   78.6031    3.9263   28.5028 H   0  0  0  0  0  0  0  0  0  0  0  0
   78.8095    5.0479   26.5833 S   0  0  0  0  0  0  0  0  0  0  0  0
   79.5393    4.0735   25.8740 O   0  0  0  0  0  0  0  0  0  0  0  0
   77.4018    5.1484   26.4943 O   0  0  0  0  0  0  0  0  0  0  0  0
   79.4931    6.6353   26.3591 C   0  0  0  0  0  0  0  0  0  0  0  0
   78.5791    7.7152   26.9686 C   0  0  0  0  0  0  0  0  0  0  0  0
   79.4446    8.6604   27.8171 C   0  0  0  0  0  0  0  0  0  0  0  0
  8  9  2  0  0  0
  6  5  2  0  0  0
  6  1  1  0  0  0
  9  1  1  0  0  0
  9  7  1  0  0  0
  5  4  1  0  0  0
  1  2  2  0  0  0
  4  3  2  0  0  0
  2  3  1  0  0  0
  2 11  1  0  0  0
 11 13  1  0  0  0
 14 13  2  0  0  0
 13 15  2  0  0  0
 13 16  1  0  0  0
 16 17  1  0  0  0
 17 18  1  0  0  0
 11 12  1  0  0  0
  7 10  1  0  0  0
M  END
> <minimizedAffinity>
-6.03778

$$$$
4KZ4_4A1_B_401


 18 18  0  0  0  0  0  0  0  0999 V2000
   79.2070    5.1949   31.7097 C   0  0  0  0  0  0  0  0  0  0  0  0
   79.9142    6.0076   30.8278 C   0  0  0  0  0  0  0  0  0  0  0  0
   81.1584    6.4694   31.1988 C   0  0  0  0  0  0  0  0  0  0  0  0
   81.6912    6.1333   32.4076 C   0  0  0  0  0  0  0  0  0  0  0  0
   81.0041    5.3226   33.2851 C   0  0  0  0  0  0  0  0  0  0  0  0
   79.7752    4.8671   32.9294 C   0  0  0  0  0  0  0  0  0  0  0  0
   76.8448    5.3203   31.4920 O   0  0  0  0  0  0  0  0  0  0  0  0
   77.9261    3.5079   30.7509 O   0  0  0  0  0  0  0  0  0  0  0  0
   77.8802    4.6843   31.3190 C   0  0  0  0  0  0  0  0  0  0  0  0
   76.8746    6.1604   31.9060 H   0  0  0  0  0  0  0  0  0  0  0  0
   79.2742    6.3139   29.6211 N   0  0  0  0  0  0  0  0  0  0  0  0
   79.4678    5.7004   28.8758 H   0  0  0  0  0  0  0  0  0  0  0  0
   78.2572    7.5349   29.2684 S   0  0  0  0  0  0  0  0  0  0  0  0
   77.0845    6.8717   28.8559 O   0  0  0  0  0  0  0  0  0  0  0  0
   78.2858    8.3812   30.4009 O   0  0  0  0  0  0  0  0  0  0  0  0
   79.0134    8.3665   27.9365 C   0  0  0  0  0  0  0  0  0  0  0  0
   79.9554    7.4219   27.1662 C   0  0  0  0  0  0  0  0  0  0  0  0
   79.1974    6.8677   25.9493 C   0  0  0  0  0  0  0  0  0  0  0  0
  8  9  2  0  0  0
  6  5  2  0  0  0
  6  1  1  0  0  0
  9  1  1  0  0  0
  9  7  1  0  0  0
  5  4  1  0  0  0
  1  2  2  0  0  0
  4  3  2  0  0  0
  2  3  1  0  0  0
  2 11  1  0  0  0
 11 13  1  0  0  0
 14 13  2  0  0  0
 13 15  2  0  0  0
 13 16  1  0  0  0
 16 17  1  0  0  0
 17 18  1  0  0  0
 11 12  1  0  0  0
  7 10  1  0  0  0
M  END
> <minimizedAffinity>
-6.01066

$$$$
4KZ4_4A1_B_401


 18 18  0  0  0  0  0  0  0  0999 V2000
   80.9341    5.4945   28.0465 C   0  0  0  0  0  0  0  0  0  0  0  0
   79.6256    5.0387   28.1823 C   0  0  0  0  0  0  0  0  0  0  0  0
   78.8988    4.7507   27.0475 C   0  0  0  0  0  0  0  0  0  0  0  0
   79.4522    4.9051   25.8114 C   0  0  0  0  0  0  0  0  0  0  0  0
   80.7492    5.3474   25.6649 C   0  0  0  0  0  0  0  0  0  0  0  0
   81.4708    5.6382   26.7778 C   0  0  0  0  0  0  0  0  0  0  0  0
   81.8589    4.9965   30.1771 O   0  0  0  0  0  0  0  0  0  0  0  0
   82.2869    6.9742   29.2237 O   0  0  0  0  0  0  0  0  0  0  0  0
   81.7260    5.7939   29.2535 C   0  0  0  0  0  0  0  0  0  0  0  0
   81.4314    4.1635   30.1421 H   0  0  0  0  0  0  0  0  0  0  0  0
   79.1404    4.9335   29.4912 N   0  0  0  0  0  0  0  0  0  0  0  0
   79.3071    4.0694   29.9325 H   0  0  0  0  0  0  0  0  0  0  0  0
   78.3413    6.0295   30.3912 S   0  0  0  0  0  0  0  0  0  0  0  0
   77.2010    5.3244   30.8244 O   0  0  0  0  0  0  0  0  0  0  0  0
   79.3016    6.5386   31.2958 O   0  0  0  0  0  0  0  0  0  0  0  0
   77.9136    7.2925   29.2690 C   0  0  0  0  0  0  0  0  0  0  0  0
   78.9717    8.4120   29.2766 C   0  0  0  0  0  0  0  0  0  0  0  0
   79.3782    8.7049   27.8235 C   0  0  0  0  0  0  0  0  0  0  0  0
  8  9  2  0  0  0
  6  5  2  0  0  0
  6  1  1  0  0  0
  9  1  1  0  0  0
  9  7  1  0  0  0
  5  4  1  0  0  0
  1  2  2  0  0  0
  4  3  2  0  0  0
  2  3  1  0  0  0
  2 11  1  0  0  0
 11 13  1  0  0  0
 14 13  2  0  0  0
 13 15  2  0  0  0
 13 16  1  0  0  0
 16 17  1  0  0  0
 17 18  1  0  0  0
 11 12  1  0  0  0
  7 10  1  0  0  0
M  END
> <minimizedAffinity>
-5.98980

$$$$
4KZ4_4A1_B_401


 18 18  0  0  0  0  0  0  0  0999 V2000
   79.4394    5.3747   31.1216 C   0  0  0  0  0  0  0  0  0  0  0  0
   79.9044    6.1456   30.0596 C   0  0  0  0  0  0  0  0  0  0  0  0
   81.0926    6.8289   30.2020 C   0  0  0  0  0  0  0  0  0  0  0  0
   81.8042    6.7490   31.3618 C   0  0  0  0  0  0  0  0  0  0  0  0
   81.3581    5.9825   32.4166 C   0  0  0  0  0  0  0  0  0  0  0  0
   80.1857    5.3097   32.2865 C   0  0  0  0  0  0  0  0  0  0  0  0
   78.1346    3.4464   30.6505 O   0  0  0  0  0  0  0  0  0  0  0  0
   77.1185    5.3450   31.2557 O   0  0  0  0  0  0  0  0  0  0  0  0
   78.1759    4.6290   30.9768 C   0  0  0  0  0  0  0  0  0  0  0  0
   78.9277    2.9843   30.4622 H   0  0  0  0  0  0  0  0  0  0  0  0
   79.0927    6.1812   28.9197 N   0  0  0  0  0  0  0  0  0  0  0  0
   78.2906    6.7475   28.9931 H   0  0  0  0  0  0  0  0  0  0  0  0
   79.2793    5.4245   27.4907 S   0  0  0  0  0  0  0  0  0  0  0  0
   80.5800    5.7943   27.0950 O   0  0  0  0  0  0  0  0  0  0  0  0
   78.9191    4.0787   27.7331 O   0  0  0  0  0  0  0  0  0  0  0  0
   78.0765    6.1412   26.4530 C   0  0  0  0  0  0  0  0  0  0  0  0
   77.4806    5.0889   25.4987 C   0  0  0  0  0  0  0  0  0  0  0  0
   76.8922    5.8176   24.2799 C   0  0  0  0  0  0  0  0  0  0  0  0
  8  9  2  0  0  0
  6  5  2  0  0  0
  6  1  1  0  0  0
  9  1  1  0  0  0
  9  7  1  0  0  0
  5  4  1  0  0  0
  1  2  2  0  0  0
  4  3  2  0  0  0
  2  3  1  0  0  0
  2 11  1  0  0  0
 11 13  1  0  0  0
 14 13  2  0  0  0
 13 15  2  0  0  0
 13 16  1  0  0  0
 16 17  1  0  0  0
 17 18  1  0  0  0
 11 12  1  0  0  0
  7 10  1  0  0  0
M  END
> <minimizedAffinity>
-5.97184

$$$$
4KZ4_4A1_B_401


 18 18  0  0  0  0  0  0  0  0999 V2000
   81.8565    5.2433   31.7442 C   0  0  0  0  0  0  0  0  0  0  0  0
   80.5376    4.8350   31.9236 C   0  0  0  0  0  0  0  0  0  0  0  0
   80.1599    4.3180   33.1438 C   0  0  0  0  0  0  0  0  0  0  0  0
   81.0609    4.2115   34.1611 C   0  0  0  0  0  0  0  0  0  0  0  0
   82.3669    4.6202   33.9979 C   0  0  0  0  0  0  0  0  0  0  0  0
   82.7487    5.1263   32.7971 C   0  0  0  0  0  0  0  0  0  0  0  0
   82.0814    6.9839   30.1434 O   0  0  0  0  0  0  0  0  0  0  0  0
   82.8746    4.9455   29.6753 O   0  0  0  0  0  0  0  0  0  0  0  0
   82.2696    5.8097   30.4473 C   0  0  0  0  0  0  0  0  0  0  0  0
   81.6407    7.5572   30.7394 H   0  0  0  0  0  0  0  0  0  0  0  0
   79.6942    4.9645   30.8139 N   0  0  0  0  0  0  0  0  0  0  0  0
   79.7840    4.2584   30.1337 H   0  0  0  0  0  0  0  0  0  0  0  0
   78.5867    6.1104   30.4823 S   0  0  0  0  0  0  0  0  0  0  0  0
   77.3676    5.4922   30.8238 O   0  0  0  0  0  0  0  0  0  0  0  0
   79.0503    7.2754   31.1361 O   0  0  0  0  0  0  0  0  0  0  0  0
   78.7093    6.3556   28.7612 C   0  0  0  0  0  0  0  0  0  0  0  0
   78.1676    7.7427   28.3666 C   0  0  0  0  0  0  0  0  0  0  0  0
   79.3338    8.5807   27.8186 C   0  0  0  0  0  0  0  0  0  0  0  0
  8  9  2  0  0  0
  6  5  2  0  0  0
  6  1  1  0  0  0
  9  1  1  0  0  0
  9  7  1  0  0  0
  5  4  1  0  0  0
  1  2  2  0  0  0
  4  3  2  0  0  0
  2  3  1  0  0  0
  2 11  1  0  0  0
 11 13  1  0  0  0
 14 13  2  0  0  0
 13 15  2  0  0  0
 13 16  1  0  0  0
 16 17  1  0  0  0
 17 18  1  0  0  0
 11 12  1  0  0  0
  7 10  1  0  0  0
M  END
> <minimizedAffinity>
-5.91502

$$$$
4KZ4_4A1_B_401


 18 18  0  0  0  0  0  0  0  0999 V2000
   81.1828    5.2319   31.7699 C   0  0  0  0  0  0  0  0  0  0  0  0
   80.8123    5.5357   30.4627 C   0  0  0  0  0  0  0  0  0  0  0  0
   81.7766    5.9740   29.5813 C   0  0  0  0  0  0  0  0  0  0  0  0
   83.0735    6.1046   29.9803 C   0  0  0  0  0  0  0  0  0  0  0  0
   83.4534    5.7988   31.2692 C   0  0  0  0  0  0  0  0  0  0  0  0
   82.5086    5.3707   32.1456 C   0  0  0  0  0  0  0  0  0  0  0  0
   79.8593    3.5653   32.8253 O   0  0  0  0  0  0  0  0  0  0  0  0
   79.6406    5.7035   33.4447 O   0  0  0  0  0  0  0  0  0  0  0  0
   80.1625    4.7499   32.7187 C   0  0  0  0  0  0  0  0  0  0  0  0
   80.2683    2.9258   32.2760 H   0  0  0  0  0  0  0  0  0  0  0  0
   79.4543    5.3902   30.1555 N   0  0  0  0  0  0  0  0  0  0  0  0
   79.1601    4.4671   29.9806 H   0  0  0  0  0  0  0  0  0  0  0  0
   78.2900    6.5223   30.0447 S   0  0  0  0  0  0  0  0  0  0  0  0
   77.1282    5.8334   30.4456 O   0  0  0  0  0  0  0  0  0  0  0  0
   78.7880    7.6383   30.7562 O   0  0  0  0  0  0  0  0  0  0  0  0
   78.2303    6.9276   28.3507 C   0  0  0  0  0  0  0  0  0  0  0  0
   79.0495    8.2003   28.0638 C   0  0  0  0  0  0  0  0  0  0  0  0
   80.0352    7.8958   26.9244 C   0  0  0  0  0  0  0  0  0  0  0  0
  8  9  2  0  0  0
  6  5  2  0  0  0
  6  1  1  0  0  0
  9  1  1  0  0  0
  9  7  1  0  0  0
  5  4  1  0  0  0
  1  2  2  0  0  0
  4  3  2  0  0  0
  2  3  1  0  0  0
  2 11  1  0  0  0
 11 13  1  0  0  0
 14 13  2  0  0  0
 13 15  2  0  0  0
 13 16  1  0  0  0
 16 17  1  0  0  0
 17 18  1  0  0  0
 11 12  1  0  0  0
  7 10  1  0  0  0
M  END
> <minimizedAffinity>
-5.61150

$$$$
