5L7E_6Q0_A_1106


 25 27  0  0  0  0  0  0  0  0999 V2000
    5.9773   17.7120   17.5333 C   0  0  0  0  0  0  0  0  0  0  0  0
    7.2182   17.8461   15.4823 C   0  0  0  0  0  0  0  0  0  0  0  0
    6.6413   18.8240   18.0177 C   0  0  0  0  0  0  0  0  0  0  0  0
    7.8824   18.9652   15.9619 C   0  0  0  0  0  0  0  0  0  0  0  0
    6.2558   17.2236   16.2680 C   0  0  0  0  0  0  0  0  0  0  0  0
    7.5769   19.4495   17.2170 C   0  0  0  0  0  0  0  0  0  0  0  0
    7.5257   17.3401   14.1614 C   0  0  0  0  0  0  0  0  0  0  0  0
    7.6476   18.0284   12.9289 C   0  0  0  0  0  0  0  0  0  0  0  0
    7.7647   16.0243   13.8199 C   0  0  0  0  0  0  0  0  0  0  0  0
    7.4903   19.4603   12.6370 C   0  0  0  0  0  0  0  0  0  0  0  0
    7.8321   14.7281   14.5265 C   0  0  0  0  0  0  0  0  0  0  0  0
    7.9308   17.2076   11.9161 N   0  0  0  0  0  0  0  0  0  0  0  0
    8.0116   15.9478   12.4896 O   0  0  0  0  0  0  0  0  0  0  0  0
    6.3550   19.3368   19.3972 C   0  0  0  0  0  0  0  0  0  0  0  0
    7.5884   19.6621   20.1694 N   0  0  0  0  0  0  0  0  0  0  0  0
    7.2872   20.1841   20.9923 H   0  0  0  0  0  0  0  0  0  0  0  0
    7.8522   17.4111   21.4259 O   0  0  0  0  0  0  0  0  0  0  0  0
    9.7611   19.0283   21.4134 O   0  0  0  0  0  0  0  0  0  0  0  0
    8.6369   18.4043   20.7384 S   0  0  0  0  0  0  0  0  0  0  0  0
   10.3447   16.2032   17.1580 C   0  0  0  0  0  0  0  0  0  0  0  0
   10.7925   17.4767   17.4623 C   0  0  0  0  0  0  0  0  0  0  0  0
    9.3906   15.5934   17.9532 C   0  0  0  0  0  0  0  0  0  0  0  0
   10.2908   18.1657   18.5542 C   0  0  0  0  0  0  0  0  0  0  0  0
    8.8777   16.2783   19.0391 C   0  0  0  0  0  0  0  0  0  0  0  0
    9.3249   17.5560   19.3262 C   0  0  0  0  0  0  0  0  0  0  0  0
 12 13  1  0  0  0
 12  8  2  0  0  0
 13  9  1  0  0  0
 10  8  1  0  0  0
  8  7  1  0  0  0
  9  7  2  0  0  0
  9 11  1  0  0  0
  7  2  1  0  0  0
  2  4  2  0  0  0
  2  5  1  0  0  0
  4  6  1  0  0  0
  5  1  2  0  0  0
 20 21  2  0  0  0
 20 22  1  0  0  0
  6  3  2  0  0  0
  1  3  1  0  0  0
 21 23  1  0  0  0
 22 24  2  0  0  0
  3 14  1  0  0  0
 23 25  2  0  0  0
 24 25  1  0  0  0
 25 19  1  0  0  0
 14 15  1  0  0  0
 15 19  1  0  0  0
 19 17  2  0  0  0
 19 18  2  0  0  0
 15 16  1  0  0  0
M  END
> <minimizedAffinity>
-9.91831

$$$$
5L7E_6Q0_A_1106


 25 27  0  0  0  0  0  0  0  0999 V2000
    5.9844   17.7018   17.5431 C   0  0  0  0  0  0  0  0  0  0  0  0
    7.2100   17.8481   15.4837 C   0  0  0  0  0  0  0  0  0  0  0  0
    6.6383   18.8221   18.0218 C   0  0  0  0  0  0  0  0  0  0  0  0
    7.8639   18.9757   15.9576 C   0  0  0  0  0  0  0  0  0  0  0  0
    6.2602   17.2152   16.2765 C   0  0  0  0  0  0  0  0  0  0  0  0
    7.5610   19.4578   17.2142 C   0  0  0  0  0  0  0  0  0  0  0  0
    7.5147   17.3443   14.1614 C   0  0  0  0  0  0  0  0  0  0  0  0
    7.7668   16.0189   13.7282 C   0  0  0  0  0  0  0  0  0  0  0  0
    7.6347   18.0887   13.0052 C   0  0  0  0  0  0  0  0  0  0  0  0
    7.7963   14.7706   14.5035 C   0  0  0  0  0  0  0  0  0  0  0  0
    7.5071   19.5118   12.6279 C   0  0  0  0  0  0  0  0  0  0  0  0
    8.0253   15.9536   12.4211 N   0  0  0  0  0  0  0  0  0  0  0  0
    7.9307   17.2623   11.9728 O   0  0  0  0  0  0  0  0  0  0  0  0
    6.3551   19.3332   19.4026 C   0  0  0  0  0  0  0  0  0  0  0  0
    7.5901   19.6589   20.1720 N   0  0  0  0  0  0  0  0  0  0  0  0
    7.2906   20.1804   20.9958 H   0  0  0  0  0  0  0  0  0  0  0  0
    7.8566   17.4010   21.4155 O   0  0  0  0  0  0  0  0  0  0  0  0
    9.7595   19.0255   21.4220 O   0  0  0  0  0  0  0  0  0  0  0  0
    8.6407   18.4015   20.7379 S   0  0  0  0  0  0  0  0  0  0  0  0
   10.3739   16.2290   17.1522 C   0  0  0  0  0  0  0  0  0  0  0  0
   10.8052   17.5078   17.4582 C   0  0  0  0  0  0  0  0  0  0  0  0
    9.4286   15.6054   17.9472 C   0  0  0  0  0  0  0  0  0  0  0  0
   10.2955   18.1883   18.5518 C   0  0  0  0  0  0  0  0  0  0  0  0
    8.9078   16.2816   19.0348 C   0  0  0  0  0  0  0  0  0  0  0  0
    9.3385   17.5647   19.3236 C   0  0  0  0  0  0  0  0  0  0  0  0
 12 13  1  0  0  0
 12  8  2  0  0  0
 13  9  1  0  0  0
 10  8  1  0  0  0
  8  7  1  0  0  0
  9  7  2  0  0  0
  9 11  1  0  0  0
  7  2  1  0  0  0
  2  4  2  0  0  0
  2  5  1  0  0  0
  4  6  1  0  0  0
  5  1  2  0  0  0
 20 21  2  0  0  0
 20 22  1  0  0  0
  6  3  2  0  0  0
  1  3  1  0  0  0
 21 23  1  0  0  0
 22 24  2  0  0  0
  3 14  1  0  0  0
 23 25  2  0  0  0
 24 25  1  0  0  0
 25 19  1  0  0  0
 14 15  1  0  0  0
 15 19  1  0  0  0
 19 17  2  0  0  0
 19 18  2  0  0  0
 15 16  1  0  0  0
M  END
> <minimizedAffinity>
-9.83522

$$$$
5L7E_6Q0_A_1106


 25 27  0  0  0  0  0  0  0  0999 V2000
    5.9016   17.5421   17.2294 C   0  0  0  0  0  0  0  0  0  0  0  0
    7.2918   17.7416   15.2821 C   0  0  0  0  0  0  0  0  0  0  0  0
    6.6712   18.4848   17.8859 C   0  0  0  0  0  0  0  0  0  0  0  0
    8.0628   18.6919   15.9348 C   0  0  0  0  0  0  0  0  0  0  0  0
    6.2019   17.1722   15.9294 C   0  0  0  0  0  0  0  0  0  0  0  0
    7.7360   19.0628   17.2227 C   0  0  0  0  0  0  0  0  0  0  0  0
    7.6224   17.3569   13.9264 C   0  0  0  0  0  0  0  0  0  0  0  0
    7.7548   18.1524   12.7613 C   0  0  0  0  0  0  0  0  0  0  0  0
    7.8789   16.0784   13.4737 C   0  0  0  0  0  0  0  0  0  0  0  0
    7.5877   19.6031   12.5946 C   0  0  0  0  0  0  0  0  0  0  0  0
    7.9489   14.7256   14.0641 C   0  0  0  0  0  0  0  0  0  0  0  0
    8.0599   17.4267   11.6843 N   0  0  0  0  0  0  0  0  0  0  0  0
    8.1449   16.1218   12.1456 O   0  0  0  0  0  0  0  0  0  0  0  0
    6.3582   18.8664   19.3017 C   0  0  0  0  0  0  0  0  0  0  0  0
    6.6414   17.7763   20.2790 N   0  0  0  0  0  0  0  0  0  0  0  0
    6.2275   16.9268   19.8951 H   0  0  0  0  0  0  0  0  0  0  0  0
    8.9402   16.8087   19.5760 O   0  0  0  0  0  0  0  0  0  0  0  0
    8.2320   16.6450   21.9700 O   0  0  0  0  0  0  0  0  0  0  0  0
    8.2706   17.3783   20.7171 S   0  0  0  0  0  0  0  0  0  0  0  0
   10.5320   21.2236   21.5419 C   0  0  0  0  0  0  0  0  0  0  0  0
    9.6524   20.7248   22.4866 C   0  0  0  0  0  0  0  0  0  0  0  0
   10.7361   20.5431   20.3546 C   0  0  0  0  0  0  0  0  0  0  0  0
    8.9558   19.5492   22.2601 C   0  0  0  0  0  0  0  0  0  0  0  0
   10.0374   19.3742   20.1167 C   0  0  0  0  0  0  0  0  0  0  0  0
    9.1516   18.8918   21.0642 C   0  0  0  0  0  0  0  0  0  0  0  0
 12 13  1  0  0  0
 12  8  2  0  0  0
 13  9  1  0  0  0
 10  8  1  0  0  0
  8  7  1  0  0  0
  9  7  2  0  0  0
  9 11  1  0  0  0
  7  2  1  0  0  0
  2  4  2  0  0  0
  2  5  1  0  0  0
  4  6  1  0  0  0
  5  1  2  0  0  0
 20 21  2  0  0  0
 20 22  1  0  0  0
  6  3  2  0  0  0
  1  3  1  0  0  0
 21 23  1  0  0  0
 22 24  2  0  0  0
  3 14  1  0  0  0
 23 25  2  0  0  0
 24 25  1  0  0  0
 25 19  1  0  0  0
 14 15  1  0  0  0
 15 19  1  0  0  0
 19 17  2  0  0  0
 19 18  2  0  0  0
 15 16  1  0  0  0
M  END
> <minimizedAffinity>
-7.79270

$$$$
5L7E_6Q0_A_1106


 25 27  0  0  0  0  0  0  0  0999 V2000
    7.8346   18.9543   17.2867 C   0  0  0  0  0  0  0  0  0  0  0  0
    7.3134   17.7127   15.2990 C   0  0  0  0  0  0  0  0  0  0  0  0
    6.7211   18.4297   17.9166 C   0  0  0  0  0  0  0  0  0  0  0  0
    6.1988   17.1795   15.9290 C   0  0  0  0  0  0  0  0  0  0  0  0
    8.1388   18.5959   15.9843 C   0  0  0  0  0  0  0  0  0  0  0  0
    5.9233   17.5325   17.2338 C   0  0  0  0  0  0  0  0  0  0  0  0
    7.6146   17.3369   13.9339 C   0  0  0  0  0  0  0  0  0  0  0  0
    7.8824   16.0608   13.3792 C   0  0  0  0  0  0  0  0  0  0  0  0
    7.7144   18.1859   12.8502 C   0  0  0  0  0  0  0  0  0  0  0  0
    7.9363   14.7472   14.0365 C   0  0  0  0  0  0  0  0  0  0  0  0
    7.5631   19.6354   12.6059 C   0  0  0  0  0  0  0  0  0  0  0  0
    8.1312   16.1195   12.0699 N   0  0  0  0  0  0  0  0  0  0  0  0
    8.0139   17.4622   11.7442 O   0  0  0  0  0  0  0  0  0  0  0  0
    6.3807   18.8375   19.3187 C   0  0  0  0  0  0  0  0  0  0  0  0
    6.6659   17.7741   20.3242 N   0  0  0  0  0  0  0  0  0  0  0  0
    6.2452   16.9161   19.9675 H   0  0  0  0  0  0  0  0  0  0  0  0
    8.9625   16.7988   19.6244 O   0  0  0  0  0  0  0  0  0  0  0  0
    8.2617   16.6604   22.0222 O   0  0  0  0  0  0  0  0  0  0  0  0
    8.2965   17.3805   20.7615 S   0  0  0  0  0  0  0  0  0  0  0  0
   10.5129   21.2373   21.6522 C   0  0  0  0  0  0  0  0  0  0  0  0
   10.7642   20.5535   20.4755 C   0  0  0  0  0  0  0  0  0  0  0  0
    9.5750   20.7565   22.5487 C   0  0  0  0  0  0  0  0  0  0  0  0
   10.0950   19.3776   20.1787 C   0  0  0  0  0  0  0  0  0  0  0  0
    8.9100   19.5783   22.2644 C   0  0  0  0  0  0  0  0  0  0  0  0
    9.1787   18.8974   21.0899 C   0  0  0  0  0  0  0  0  0  0  0  0
 12 13  1  0  0  0
 12  8  2  0  0  0
 13  9  1  0  0  0
 10  8  1  0  0  0
  8  7  1  0  0  0
  9  7  2  0  0  0
  9 11  1  0  0  0
  7  2  1  0  0  0
  2  4  2  0  0  0
  2  5  1  0  0  0
  4  6  1  0  0  0
  5  1  2  0  0  0
 20 21  2  0  0  0
 20 22  1  0  0  0
  6  3  2  0  0  0
  1  3  1  0  0  0
 21 23  1  0  0  0
 22 24  2  0  0  0
  3 14  1  0  0  0
 23 25  2  0  0  0
 24 25  1  0  0  0
 25 19  1  0  0  0
 14 15  1  0  0  0
 15 19  1  0  0  0
 19 17  2  0  0  0
 19 18  2  0  0  0
 15 16  1  0  0  0
M  END
> <minimizedAffinity>
-7.73264

$$$$
5L7E_6Q0_A_1106


 25 27  0  0  0  0  0  0  0  0999 V2000
    7.9377   19.0182   16.1422 C   0  0  0  0  0  0  0  0  0  0  0  0
    7.4074   18.9841   18.4836 C   0  0  0  0  0  0  0  0  0  0  0  0
    6.8127   18.2626   15.8676 C   0  0  0  0  0  0  0  0  0  0  0  0
    6.2747   18.2312   18.2120 C   0  0  0  0  0  0  0  0  0  0  0  0
    8.2361   19.3864   17.4432 C   0  0  0  0  0  0  0  0  0  0  0  0
    5.9827   17.8912   16.9073 C   0  0  0  0  0  0  0  0  0  0  0  0
    7.7129   19.3541   19.8492 C   0  0  0  0  0  0  0  0  0  0  0  0
    8.8982   19.1608   20.6011 C   0  0  0  0  0  0  0  0  0  0  0  0
    6.8694   19.9915   20.7368 C   0  0  0  0  0  0  0  0  0  0  0  0
   10.1616   18.5206   20.2084 C   0  0  0  0  0  0  0  0  0  0  0  0
    5.4933   20.5293   20.7107 C   0  0  0  0  0  0  0  0  0  0  0  0
    8.7920   19.6322   21.8446 N   0  0  0  0  0  0  0  0  0  0  0  0
    7.5127   20.1619   21.9174 O   0  0  0  0  0  0  0  0  0  0  0  0
    6.5045   17.8452   14.4610 C   0  0  0  0  0  0  0  0  0  0  0  0
    7.3897   16.7520   13.9665 N   0  0  0  0  0  0  0  0  0  0  0  0
    8.3327   17.1385   13.9229 H   0  0  0  0  0  0  0  0  0  0  0  0
    8.2296   14.3010   14.0152 O   0  0  0  0  0  0  0  0  0  0  0  0
    6.1900   14.9144   15.3280 O   0  0  0  0  0  0  0  0  0  0  0  0
    7.5101   15.2507   14.8247 S   0  0  0  0  0  0  0  0  0  0  0  0
   10.1486   15.9196   18.4540 C   0  0  0  0  0  0  0  0  0  0  0  0
    8.9324   15.2746   18.5951 C   0  0  0  0  0  0  0  0  0  0  0  0
   10.5690   16.3450   17.2062 C   0  0  0  0  0  0  0  0  0  0  0  0
    8.1129   15.0530   17.5006 C   0  0  0  0  0  0  0  0  0  0  0  0
    9.7524   16.1364   16.1104 C   0  0  0  0  0  0  0  0  0  0  0  0
    8.5331   15.5008   16.2663 C   0  0  0  0  0  0  0  0  0  0  0  0
 12 13  1  0  0  0
 12  8  2  0  0  0
 13  9  1  0  0  0
 10  8  1  0  0  0
  8  7  1  0  0  0
  9  7  2  0  0  0
  9 11  1  0  0  0
  7  2  1  0  0  0
  2  4  2  0  0  0
  2  5  1  0  0  0
  4  6  1  0  0  0
  5  1  2  0  0  0
 20 21  2  0  0  0
 20 22  1  0  0  0
  6  3  2  0  0  0
  1  3  1  0  0  0
 21 23  1  0  0  0
 22 24  2  0  0  0
  3 14  1  0  0  0
 23 25  2  0  0  0
 24 25  1  0  0  0
 25 19  1  0  0  0
 14 15  1  0  0  0
 15 19  1  0  0  0
 19 17  2  0  0  0
 19 18  2  0  0  0
 15 16  1  0  0  0
M  END
> <minimizedAffinity>
-6.93948

$$$$
