5D3L_57F_A_201


 33 34  0  0  0  0  0  0  0  0999 V2000
   19.0437   -1.0840  -10.0817 C   0  0  0  0  0  0  0  0  0  0  0  0
   17.1337   -4.8547   -9.2067 C   0  0  0  0  0  0  0  0  0  0  0  0
   17.0725   -3.8208   -8.2557 C   0  0  0  0  0  0  0  0  0  0  0  0
   17.6923   -2.5699   -8.5015 C   0  0  0  0  0  0  0  0  0  0  0  0
   18.3489   -2.3723   -9.7133 C   0  0  0  0  0  0  0  0  0  0  0  0
   18.3998   -3.3875  -10.6467 C   0  0  0  0  0  0  0  0  0  0  0  0
   17.8049   -4.6214  -10.3960 C   0  0  0  0  0  0  0  0  0  0  0  0
   17.8712   -5.6008  -11.3345 O   0  0  0  0  0  0  0  0  0  0  0  0
   17.4729   -6.4332  -11.1719 H   0  0  0  0  0  0  0  0  0  0  0  0
   15.9532   -6.6188   -8.0283 C   0  0  0  0  0  0  0  0  0  0  0  0
   16.6155   -6.1228   -9.0784 N   0  0  0  0  0  0  0  0  0  0  0  0
   15.7896   -6.0176   -6.9797 O   0  0  0  0  0  0  0  0  0  0  0  0
   16.7465   -6.7302   -9.8421 H   0  0  0  0  0  0  0  0  0  0  0  0
   15.7365   -9.1962   -7.3631 C   0  0  0  0  0  0  0  0  0  0  0  0
   14.8113  -10.1616   -7.7947 C   0  0  0  0  0  0  0  0  0  0  0  0
   13.8777   -9.4995   -8.7454 C   0  0  0  0  0  0  0  0  0  0  0  0
   15.3012   -7.9594   -8.0736 C   0  0  0  0  0  0  0  0  0  0  0  0
   12.7188  -10.0945   -9.5002 C   0  0  0  0  0  0  0  0  0  0  0  0
   14.2526   -8.2312   -8.8620 N   0  0  0  0  0  0  0  0  0  0  0  0
   13.8162   -7.5748   -9.4519 H   0  0  0  0  0  0  0  0  0  0  0  0
   14.6846  -11.6193   -7.4586 C   0  0  0  0  0  0  0  0  0  0  0  0
   15.7212  -12.5526   -7.9985 C   0  0  0  0  0  0  0  0  0  0  0  0
   13.7247  -12.0130   -6.7865 O   0  0  0  0  0  0  0  0  0  0  0  0
   16.3822   -8.9201   -5.0104 C   0  0  0  0  0  0  0  0  0  0  0  0
   16.8763   -9.3504   -6.3733 C   0  0  0  0  0  0  0  0  0  0  0  0
   18.8613   -0.6767   -7.3644 O   0  0  0  0  0  0  0  0  0  0  0  0
   17.2737   -1.9723   -6.1362 O   0  0  0  0  0  0  0  0  0  0  0  0
   17.6161   -1.4034   -7.3962 S   0  0  0  0  0  0  0  0  0  0  0  0
   16.4307   -0.4661   -7.6636 N   0  0  0  0  0  0  0  0  0  0  0  0
   15.6543    0.3958   -9.7068 C   0  0  0  0  0  0  0  0  0  0  0  0
   15.5033   -0.7602   -8.7551 C   0  0  0  0  0  0  0  0  0  0  0  0
   15.1395    0.9001   -6.0060 C   0  0  0  0  0  0  0  0  0  0  0  0
   16.3310    0.8080   -6.9304 C   0  0  0  0  0  0  0  0  0  0  0  0
 18 16  1  0  0  0
 16 19  1  0  0  0
 16 15  2  0  0  0
 19 17  1  0  0  0
 30 31  1  0  0  0
 27 28  2  0  0  0
 33 32  1  0  0  0
 33 29  1  0  0  0
 12 10  2  0  0  0
 23 21  2  0  0  0
 15 21  1  0  0  0
 15 14  1  0  0  0
 21 22  1  0  0  0
 17 10  1  0  0  0
 17 14  2  0  0  0
 29 31  1  0  0  0
 29 28  1  0  0  0
 10 11  1  0  0  0
 14 25  1  0  0  0
 28 26  2  0  0  0
 28  4  1  0  0  0
  3  4  2  0  0  0
  3  2  1  0  0  0
 25 24  1  0  0  0
 11  2  1  0  0  0
  4  5  1  0  0  0
  2  7  2  0  0  0
  5  1  1  0  0  0
  5  6  2  0  0  0
  7  6  1  0  0  0
  7  8  1  0  0  0
 19 20  1  0  0  0
 11 13  1  0  0  0
  8  9  1  0  0  0
M  END
> <minimizedAffinity>
-7.23385

$$$$
5D3L_57F_A_201


 33 34  0  0  0  0  0  0  0  0999 V2000
   15.0262  -11.0642   -6.6826 C   0  0  0  0  0  0  0  0  0  0  0  0
   15.7267   -6.9237   -7.6816 C   0  0  0  0  0  0  0  0  0  0  0  0
   15.8798   -7.3401   -6.3473 C   0  0  0  0  0  0  0  0  0  0  0  0
   15.6527   -8.6892   -5.9765 C   0  0  0  0  0  0  0  0  0  0  0  0
   15.2933   -9.6051   -6.9618 C   0  0  0  0  0  0  0  0  0  0  0  0
   15.1516   -9.1933   -8.2713 C   0  0  0  0  0  0  0  0  0  0  0  0
   15.3586   -7.8638   -8.6304 C   0  0  0  0  0  0  0  0  0  0  0  0
   15.2123   -7.4890   -9.9274 O   0  0  0  0  0  0  0  0  0  0  0  0
   15.3502   -6.5960  -10.1755 H   0  0  0  0  0  0  0  0  0  0  0  0
   16.8483   -4.7787   -7.8701 C   0  0  0  0  0  0  0  0  0  0  0  0
   15.8738   -5.6447   -8.1668 N   0  0  0  0  0  0  0  0  0  0  0  0
   17.7164   -4.9880   -7.0393 O   0  0  0  0  0  0  0  0  0  0  0  0
   15.1876   -5.3336   -8.8005 H   0  0  0  0  0  0  0  0  0  0  0  0
   17.9859   -3.1280   -9.6346 C   0  0  0  0  0  0  0  0  0  0  0  0
   17.7025   -1.7815   -9.9187 C   0  0  0  0  0  0  0  0  0  0  0  0
   16.5782   -1.3612   -9.0394 C   0  0  0  0  0  0  0  0  0  0  0  0
   16.9858   -3.4770   -8.5848 C   0  0  0  0  0  0  0  0  0  0  0  0
   15.9088   -0.0163   -8.9397 C   0  0  0  0  0  0  0  0  0  0  0  0
   16.2440   -2.4021   -8.2860 N   0  0  0  0  0  0  0  0  0  0  0  0
   15.5415   -2.3861   -7.5965 H   0  0  0  0  0  0  0  0  0  0  0  0
   18.3430   -0.8256  -10.8831 C   0  0  0  0  0  0  0  0  0  0  0  0
   19.7395   -0.3744  -10.5946 C   0  0  0  0  0  0  0  0  0  0  0  0
   17.7012   -0.4128  -11.8556 O   0  0  0  0  0  0  0  0  0  0  0  0
   20.2359   -4.0747   -9.3703 C   0  0  0  0  0  0  0  0  0  0  0  0
   19.0227   -4.0341  -10.2722 C   0  0  0  0  0  0  0  0  0  0  0  0
   14.6318   -9.8119   -3.9913 O   0  0  0  0  0  0  0  0  0  0  0  0
   16.1569   -8.0046   -3.6518 O   0  0  0  0  0  0  0  0  0  0  0  0
   15.8265   -9.1421   -4.4426 S   0  0  0  0  0  0  0  0  0  0  0  0
   17.0643  -10.0321   -4.2667 N   0  0  0  0  0  0  0  0  0  0  0  0
   17.1555  -12.3775   -4.1618 C   0  0  0  0  0  0  0  0  0  0  0  0
   17.0334  -11.1404   -3.3135 C   0  0  0  0  0  0  0  0  0  0  0  0
   19.5183   -9.5934   -4.0076 C   0  0  0  0  0  0  0  0  0  0  0  0
   18.3259   -9.6634   -4.9327 C   0  0  0  0  0  0  0  0  0  0  0  0
 18 16  1  0  0  0
 16 19  1  0  0  0
 16 15  2  0  0  0
 19 17  1  0  0  0
 30 31  1  0  0  0
 27 28  2  0  0  0
 33 32  1  0  0  0
 33 29  1  0  0  0
 12 10  2  0  0  0
 23 21  2  0  0  0
 15 21  1  0  0  0
 15 14  1  0  0  0
 21 22  1  0  0  0
 17 10  1  0  0  0
 17 14  2  0  0  0
 29 31  1  0  0  0
 29 28  1  0  0  0
 10 11  1  0  0  0
 14 25  1  0  0  0
 28 26  2  0  0  0
 28  4  1  0  0  0
  3  4  2  0  0  0
  3  2  1  0  0  0
 25 24  1  0  0  0
 11  2  1  0  0  0
  4  5  1  0  0  0
  2  7  2  0  0  0
  5  1  1  0  0  0
  5  6  2  0  0  0
  7  6  1  0  0  0
  7  8  1  0  0  0
 19 20  1  0  0  0
 11 13  1  0  0  0
  8  9  1  0  0  0
M  END
> <minimizedAffinity>
-7.07595

$$$$
5D3L_57F_A_201


 33 34  0  0  0  0  0  0  0  0999 V2000
   19.1632   -1.9606   -5.9516 C   0  0  0  0  0  0  0  0  0  0  0  0
   16.6924   -5.2858   -7.1642 C   0  0  0  0  0  0  0  0  0  0  0  0
   16.9624   -4.2620   -8.0894 C   0  0  0  0  0  0  0  0  0  0  0  0
   17.7636   -3.1496   -7.7289 C   0  0  0  0  0  0  0  0  0  0  0  0
   18.2985   -3.0953   -6.4445 C   0  0  0  0  0  0  0  0  0  0  0  0
   18.0370   -4.1064   -5.5423 C   0  0  0  0  0  0  0  0  0  0  0  0
   17.2356   -5.1898   -5.8933 C   0  0  0  0  0  0  0  0  0  0  0  0
   16.9969   -6.1696   -4.9838 O   0  0  0  0  0  0  0  0  0  0  0  0
   16.4585   -6.9013   -5.2138 H   0  0  0  0  0  0  0  0  0  0  0  0
   15.8436   -7.1479   -8.4705 C   0  0  0  0  0  0  0  0  0  0  0  0
   15.9011   -6.3925   -7.3688 N   0  0  0  0  0  0  0  0  0  0  0  0
   16.4445   -6.8962   -9.5016 O   0  0  0  0  0  0  0  0  0  0  0  0
   15.3140   -6.6566   -6.6240 H   0  0  0  0  0  0  0  0  0  0  0  0
   15.3649   -9.6847   -7.7867 C   0  0  0  0  0  0  0  0  0  0  0  0
   14.3525  -10.5572   -8.2201 C   0  0  0  0  0  0  0  0  0  0  0  0
   13.4987   -9.8143   -9.1859 C   0  0  0  0  0  0  0  0  0  0  0  0
   15.0618   -8.4174   -8.5117 C   0  0  0  0  0  0  0  0  0  0  0  0
   12.2937  -10.2980   -9.9480 C   0  0  0  0  0  0  0  0  0  0  0  0
   13.9991   -8.5907   -9.3090 N   0  0  0  0  0  0  0  0  0  0  0  0
   13.6360   -7.8996   -9.9088 H   0  0  0  0  0  0  0  0  0  0  0  0
   14.0780  -11.9920   -7.8735 C   0  0  0  0  0  0  0  0  0  0  0  0
   15.2338  -12.9413   -7.8648 C   0  0  0  0  0  0  0  0  0  0  0  0
   12.9196  -12.3569   -7.6431 O   0  0  0  0  0  0  0  0  0  0  0  0
   15.9779   -9.5379   -5.4136 C   0  0  0  0  0  0  0  0  0  0  0  0
   16.4741   -9.9425   -6.7836 C   0  0  0  0  0  0  0  0  0  0  0  0
   17.7121   -0.7035   -8.2366 O   0  0  0  0  0  0  0  0  0  0  0  0
   17.3450   -2.2686  -10.0039 O   0  0  0  0  0  0  0  0  0  0  0  0
   18.0535   -1.9858   -8.8012 S   0  0  0  0  0  0  0  0  0  0  0  0
   19.5149   -2.0175   -9.2685 N   0  0  0  0  0  0  0  0  0  0  0  0
   20.5330   -0.6224  -10.8615 C   0  0  0  0  0  0  0  0  0  0  0  0
   20.2674   -0.7695   -9.3874 C   0  0  0  0  0  0  0  0  0  0  0  0
   21.1815   -3.8456   -8.8661 C   0  0  0  0  0  0  0  0  0  0  0  0
   20.0964   -3.2816   -9.7532 C   0  0  0  0  0  0  0  0  0  0  0  0
 18 16  1  0  0  0
 16 19  1  0  0  0
 16 15  2  0  0  0
 19 17  1  0  0  0
 30 31  1  0  0  0
 27 28  2  0  0  0
 33 32  1  0  0  0
 33 29  1  0  0  0
 12 10  2  0  0  0
 23 21  2  0  0  0
 15 21  1  0  0  0
 15 14  1  0  0  0
 21 22  1  0  0  0
 17 10  1  0  0  0
 17 14  2  0  0  0
 29 31  1  0  0  0
 29 28  1  0  0  0
 10 11  1  0  0  0
 14 25  1  0  0  0
 28 26  2  0  0  0
 28  4  1  0  0  0
  3  4  2  0  0  0
  3  2  1  0  0  0
 25 24  1  0  0  0
 11  2  1  0  0  0
  4  5  1  0  0  0
  2  7  2  0  0  0
  5  1  1  0  0  0
  5  6  2  0  0  0
  7  6  1  0  0  0
  7  8  1  0  0  0
 19 20  1  0  0  0
 11 13  1  0  0  0
  8  9  1  0  0  0
M  END
> <minimizedAffinity>
-7.06908

$$$$
5D3L_57F_A_201


 33 34  0  0  0  0  0  0  0  0999 V2000
   19.0131   -1.5851   -6.1658 C   0  0  0  0  0  0  0  0  0  0  0  0
   16.5926   -4.9971   -7.2295 C   0  0  0  0  0  0  0  0  0  0  0  0
   16.6285   -3.8887   -8.0939 C   0  0  0  0  0  0  0  0  0  0  0  0
   17.4054   -2.7458   -7.7781 C   0  0  0  0  0  0  0  0  0  0  0  0
   18.1521   -2.7452   -6.6028 C   0  0  0  0  0  0  0  0  0  0  0  0
   18.1196   -3.8386   -5.7613 C   0  0  0  0  0  0  0  0  0  0  0  0
   17.3423   -4.9533   -6.0652 C   0  0  0  0  0  0  0  0  0  0  0  0
   17.3314   -6.0143   -5.2177 O   0  0  0  0  0  0  0  0  0  0  0  0
   16.8105   -6.7674   -5.4164 H   0  0  0  0  0  0  0  0  0  0  0  0
   15.8781   -6.9766   -8.4401 C   0  0  0  0  0  0  0  0  0  0  0  0
   15.8523   -6.1451   -7.3934 N   0  0  0  0  0  0  0  0  0  0  0  0
   16.5221   -6.7736   -9.4560 O   0  0  0  0  0  0  0  0  0  0  0  0
   15.2373   -6.3796   -6.6612 H   0  0  0  0  0  0  0  0  0  0  0  0
   15.5069   -9.5068   -7.6706 C   0  0  0  0  0  0  0  0  0  0  0  0
   14.5218  -10.4299   -8.0601 C   0  0  0  0  0  0  0  0  0  0  0  0
   13.6255   -9.7502   -9.0340 C   0  0  0  0  0  0  0  0  0  0  0  0
   15.1447   -8.2751   -8.4293 C   0  0  0  0  0  0  0  0  0  0  0  0
   12.4281  -10.3024   -9.7607 C   0  0  0  0  0  0  0  0  0  0  0  0
   14.0771   -8.5131   -9.2030 N   0  0  0  0  0  0  0  0  0  0  0  0
   13.6787   -7.8554   -9.8177 H   0  0  0  0  0  0  0  0  0  0  0  0
   14.3074  -11.8623   -7.6650 C   0  0  0  0  0  0  0  0  0  0  0  0
   15.4178  -12.8308   -7.9221 C   0  0  0  0  0  0  0  0  0  0  0  0
   13.2252  -12.2095   -7.1787 O   0  0  0  0  0  0  0  0  0  0  0  0
   16.0976   -9.4497   -5.2881 C   0  0  0  0  0  0  0  0  0  0  0  0
   16.6404   -9.6911   -6.6787 C   0  0  0  0  0  0  0  0  0  0  0  0
   17.2263   -1.9333  -10.1342 O   0  0  0  0  0  0  0  0  0  0  0  0
   18.6443   -0.7686   -8.6044 O   0  0  0  0  0  0  0  0  0  0  0  0
   17.4260   -1.4857   -8.7780 S   0  0  0  0  0  0  0  0  0  0  0  0
   16.3741   -0.4437   -8.3746 N   0  0  0  0  0  0  0  0  0  0  0  0
   15.9932    0.4563   -6.2379 C   0  0  0  0  0  0  0  0  0  0  0  0
   16.7537    0.6785   -7.5175 C   0  0  0  0  0  0  0  0  0  0  0  0
   14.3083    0.4705   -9.4602 C   0  0  0  0  0  0  0  0  0  0  0  0
   14.9582   -0.6707   -8.7132 C   0  0  0  0  0  0  0  0  0  0  0  0
 18 16  1  0  0  0
 16 19  1  0  0  0
 16 15  2  0  0  0
 19 17  1  0  0  0
 30 31  1  0  0  0
 27 28  2  0  0  0
 33 32  1  0  0  0
 33 29  1  0  0  0
 12 10  2  0  0  0
 23 21  2  0  0  0
 15 21  1  0  0  0
 15 14  1  0  0  0
 21 22  1  0  0  0
 17 10  1  0  0  0
 17 14  2  0  0  0
 29 31  1  0  0  0
 29 28  1  0  0  0
 10 11  1  0  0  0
 14 25  1  0  0  0
 28 26  2  0  0  0
 28  4  1  0  0  0
  3  4  2  0  0  0
  3  2  1  0  0  0
 25 24  1  0  0  0
 11  2  1  0  0  0
  4  5  1  0  0  0
  2  7  2  0  0  0
  5  1  1  0  0  0
  5  6  2  0  0  0
  7  6  1  0  0  0
  7  8  1  0  0  0
 19 20  1  0  0  0
 11 13  1  0  0  0
  8  9  1  0  0  0
M  END
> <minimizedAffinity>
-7.03133

$$$$
5D3L_57F_A_201


 33 34  0  0  0  0  0  0  0  0999 V2000
   17.2729   -5.1471  -10.6794 C   0  0  0  0  0  0  0  0  0  0  0  0
   15.9810   -6.7224   -6.8739 C   0  0  0  0  0  0  0  0  0  0  0  0
   16.9456   -5.6997   -6.8981 C   0  0  0  0  0  0  0  0  0  0  0  0
   17.4016   -5.1599   -8.1270 C   0  0  0  0  0  0  0  0  0  0  0  0
   16.8626   -5.6460   -9.3152 C   0  0  0  0  0  0  0  0  0  0  0  0
   15.9104   -6.6446   -9.2860 C   0  0  0  0  0  0  0  0  0  0  0  0
   15.4765   -7.1853   -8.0783 C   0  0  0  0  0  0  0  0  0  0  0  0
   14.5377   -8.1666   -8.0819 O   0  0  0  0  0  0  0  0  0  0  0  0
   14.2415   -8.5345   -7.2726 H   0  0  0  0  0  0  0  0  0  0  0  0
   16.0717   -8.3424   -5.0678 C   0  0  0  0  0  0  0  0  0  0  0  0
   15.4854   -7.3603   -5.7601 N   0  0  0  0  0  0  0  0  0  0  0  0
   17.1195   -8.8747   -5.3941 O   0  0  0  0  0  0  0  0  0  0  0  0
   14.6043   -7.0613   -5.4383 H   0  0  0  0  0  0  0  0  0  0  0  0
   15.0282  -10.2251   -3.4871 C   0  0  0  0  0  0  0  0  0  0  0  0
   14.5542  -10.1303   -2.1678 C   0  0  0  0  0  0  0  0  0  0  0  0
   14.7368   -8.7226   -1.7221 C   0  0  0  0  0  0  0  0  0  0  0  0
   15.5047   -8.8432   -3.7825 C   0  0  0  0  0  0  0  0  0  0  0  0
   14.3775   -8.0957   -0.4013 C   0  0  0  0  0  0  0  0  0  0  0  0
   15.2730   -8.0461   -2.7309 N   0  0  0  0  0  0  0  0  0  0  0  0
   15.4745   -7.0827   -2.7090 H   0  0  0  0  0  0  0  0  0  0  0  0
   13.9392  -11.1636   -1.2688 C   0  0  0  0  0  0  0  0  0  0  0  0
   14.7678  -12.3547   -0.9058 C   0  0  0  0  0  0  0  0  0  0  0  0
   12.7719  -11.0274   -0.8857 O   0  0  0  0  0  0  0  0  0  0  0  0
   16.4394  -12.1058   -4.1941 C   0  0  0  0  0  0  0  0  0  0  0  0
   15.0926  -11.4456   -4.3865 C   0  0  0  0  0  0  0  0  0  0  0  0
   19.6714   -4.4270   -8.8717 O   0  0  0  0  0  0  0  0  0  0  0  0
   18.8146   -3.6305   -6.7886 O   0  0  0  0  0  0  0  0  0  0  0  0
   18.5115   -3.9953   -8.1315 S   0  0  0  0  0  0  0  0  0  0  0  0
   17.9401   -2.6905   -8.7027 N   0  0  0  0  0  0  0  0  0  0  0  0
   18.2693   -1.7170  -10.8156 C   0  0  0  0  0  0  0  0  0  0  0  0
   18.8177   -1.7628   -9.4148 C   0  0  0  0  0  0  0  0  0  0  0  0
   16.4289   -0.9802   -7.6669 C   0  0  0  0  0  0  0  0  0  0  0  0
   16.5543   -2.3031   -8.3859 C   0  0  0  0  0  0  0  0  0  0  0  0
 18 16  1  0  0  0
 16 19  1  0  0  0
 16 15  2  0  0  0
 19 17  1  0  0  0
 30 31  1  0  0  0
 27 28  2  0  0  0
 33 32  1  0  0  0
 33 29  1  0  0  0
 12 10  2  0  0  0
 23 21  2  0  0  0
 15 21  1  0  0  0
 15 14  1  0  0  0
 21 22  1  0  0  0
 17 10  1  0  0  0
 17 14  2  0  0  0
 29 31  1  0  0  0
 29 28  1  0  0  0
 10 11  1  0  0  0
 14 25  1  0  0  0
 28 26  2  0  0  0
 28  4  1  0  0  0
  3  4  2  0  0  0
  3  2  1  0  0  0
 25 24  1  0  0  0
 11  2  1  0  0  0
  4  5  1  0  0  0
  2  7  2  0  0  0
  5  1  1  0  0  0
  5  6  2  0  0  0
  7  6  1  0  0  0
  7  8  1  0  0  0
 19 20  1  0  0  0
 11 13  1  0  0  0
  8  9  1  0  0  0
M  END
> <minimizedAffinity>
-6.93238

$$$$
5D3L_57F_A_201


 33 34  0  0  0  0  0  0  0  0999 V2000
   19.2213   -1.2580   -9.9157 C   0  0  0  0  0  0  0  0  0  0  0  0
   17.3492   -5.0280   -8.9594 C   0  0  0  0  0  0  0  0  0  0  0  0
   17.5908   -4.1039   -7.9276 C   0  0  0  0  0  0  0  0  0  0  0  0
   18.2095   -2.8577   -8.1985 C   0  0  0  0  0  0  0  0  0  0  0  0
   18.5581   -2.5522   -9.5114 C   0  0  0  0  0  0  0  0  0  0  0  0
   18.3120   -3.4593  -10.5220 C   0  0  0  0  0  0  0  0  0  0  0  0
   17.7196   -4.6901  -10.2510 C   0  0  0  0  0  0  0  0  0  0  0  0
   17.4894   -5.5616  -11.2667 O   0  0  0  0  0  0  0  0  0  0  0  0
   17.0912   -6.3914  -11.0909 H   0  0  0  0  0  0  0  0  0  0  0  0
   15.8253   -6.6502   -7.9895 C   0  0  0  0  0  0  0  0  0  0  0  0
   16.7986   -6.2821   -8.8290 N   0  0  0  0  0  0  0  0  0  0  0  0
   15.3407   -5.9164   -7.1442 O   0  0  0  0  0  0  0  0  0  0  0  0
   17.1602   -6.9840   -9.4171 H   0  0  0  0  0  0  0  0  0  0  0  0
   15.6605   -9.2390   -7.3549 C   0  0  0  0  0  0  0  0  0  0  0  0
   14.7597  -10.2194   -7.8038 C   0  0  0  0  0  0  0  0  0  0  0  0
   13.8183   -9.5670   -8.7535 C   0  0  0  0  0  0  0  0  0  0  0  0
   15.2031   -8.0040   -8.0544 C   0  0  0  0  0  0  0  0  0  0  0  0
   12.6778  -10.1785   -9.5231 C   0  0  0  0  0  0  0  0  0  0  0  0
   14.1661   -8.2896   -8.8532 N   0  0  0  0  0  0  0  0  0  0  0  0
   13.7195   -7.6362   -9.4388 H   0  0  0  0  0  0  0  0  0  0  0  0
   14.6625  -11.6833   -7.4851 C   0  0  0  0  0  0  0  0  0  0  0  0
   15.6564  -12.6031   -8.1200 C   0  0  0  0  0  0  0  0  0  0  0  0
   13.7583  -12.0922   -6.7479 O   0  0  0  0  0  0  0  0  0  0  0  0
   16.2736   -9.0131   -4.9881 C   0  0  0  0  0  0  0  0  0  0  0  0
   16.7966   -9.3796   -6.3588 C   0  0  0  0  0  0  0  0  0  0  0  0
   17.7874   -2.2459   -5.8128 O   0  0  0  0  0  0  0  0  0  0  0  0
   18.1106   -0.5095   -7.4216 O   0  0  0  0  0  0  0  0  0  0  0  0
   18.4833   -1.8183   -7.0013 S   0  0  0  0  0  0  0  0  0  0  0  0
   19.9873   -1.6610   -6.7401 N   0  0  0  0  0  0  0  0  0  0  0  0
   21.8891   -2.7708   -7.5598 C   0  0  0  0  0  0  0  0  0  0  0  0
   20.8131   -2.8455   -6.5101 C   0  0  0  0  0  0  0  0  0  0  0  0
   20.7593    0.0819   -5.1128 C   0  0  0  0  0  0  0  0  0  0  0  0
   20.5568   -0.3145   -6.5566 C   0  0  0  0  0  0  0  0  0  0  0  0
 18 16  1  0  0  0
 16 19  1  0  0  0
 16 15  2  0  0  0
 19 17  1  0  0  0
 30 31  1  0  0  0
 27 28  2  0  0  0
 33 32  1  0  0  0
 33 29  1  0  0  0
 12 10  2  0  0  0
 23 21  2  0  0  0
 15 21  1  0  0  0
 15 14  1  0  0  0
 21 22  1  0  0  0
 17 10  1  0  0  0
 17 14  2  0  0  0
 29 31  1  0  0  0
 29 28  1  0  0  0
 10 11  1  0  0  0
 14 25  1  0  0  0
 28 26  2  0  0  0
 28  4  1  0  0  0
  3  4  2  0  0  0
  3  2  1  0  0  0
 25 24  1  0  0  0
 11  2  1  0  0  0
  4  5  1  0  0  0
  2  7  2  0  0  0
  5  1  1  0  0  0
  5  6  2  0  0  0
  7  6  1  0  0  0
  7  8  1  0  0  0
 19 20  1  0  0  0
 11 13  1  0  0  0
  8  9  1  0  0  0
M  END
> <minimizedAffinity>
-6.86749

$$$$
5D3L_57F_A_201


 33 34  0  0  0  0  0  0  0  0999 V2000
   13.4732  -10.7237   -0.0564 C   0  0  0  0  0  0  0  0  0  0  0  0
   14.5553   -8.6599   -3.6899 C   0  0  0  0  0  0  0  0  0  0  0  0
   15.1412   -9.9077   -3.4123 C   0  0  0  0  0  0  0  0  0  0  0  0
   14.8179  -10.6146   -2.2270 C   0  0  0  0  0  0  0  0  0  0  0  0
   13.8917  -10.0616   -1.3466 C   0  0  0  0  0  0  0  0  0  0  0  0
   13.3136   -8.8402   -1.6271 C   0  0  0  0  0  0  0  0  0  0  0  0
   13.6454   -8.1395   -2.7839 C   0  0  0  0  0  0  0  0  0  0  0  0
   13.0591   -6.9401   -3.0328 O   0  0  0  0  0  0  0  0  0  0  0  0
   13.2782   -6.4637   -3.8093 H   0  0  0  0  0  0  0  0  0  0  0  0
   15.9745   -7.2785   -5.0942 C   0  0  0  0  0  0  0  0  0  0  0  0
   14.8105   -7.8539   -4.7753 N   0  0  0  0  0  0  0  0  0  0  0  0
   16.9730   -7.3276   -4.3955 O   0  0  0  0  0  0  0  0  0  0  0  0
   14.0548   -7.6825   -5.3826 H   0  0  0  0  0  0  0  0  0  0  0  0
   16.1664   -7.1458   -7.7546 C   0  0  0  0  0  0  0  0  0  0  0  0
   16.4379   -6.0438   -8.5827 C   0  0  0  0  0  0  0  0  0  0  0  0
   16.6072   -4.8521   -7.7080 C   0  0  0  0  0  0  0  0  0  0  0  0
   16.1652   -6.5560   -6.3849 C   0  0  0  0  0  0  0  0  0  0  0  0
   16.9253   -3.4327   -8.0964 C   0  0  0  0  0  0  0  0  0  0  0  0
   16.4541   -5.2495   -6.4504 N   0  0  0  0  0  0  0  0  0  0  0  0
   16.5415   -4.6598   -5.6669 H   0  0  0  0  0  0  0  0  0  0  0  0
   16.5782   -5.9475  -10.0744 C   0  0  0  0  0  0  0  0  0  0  0  0
   17.9090   -5.5447  -10.6255 C   0  0  0  0  0  0  0  0  0  0  0  0
   15.5996   -6.1639  -10.7982 O   0  0  0  0  0  0  0  0  0  0  0  0
   14.4096   -8.7201   -8.4357 C   0  0  0  0  0  0  0  0  0  0  0  0
   15.8885   -8.5842   -8.1504 C   0  0  0  0  0  0  0  0  0  0  0  0
   14.5671  -13.1004   -2.1869 O   0  0  0  0  0  0  0  0  0  0  0  0
   15.9976  -12.0475   -0.5892 O   0  0  0  0  0  0  0  0  0  0  0  0
   15.5059  -12.0374   -1.9258 S   0  0  0  0  0  0  0  0  0  0  0  0
   16.7903  -12.2142   -2.7470 N   0  0  0  0  0  0  0  0  0  0  0  0
   16.6692  -12.6723   -5.0483 C   0  0  0  0  0  0  0  0  0  0  0  0
   16.8948  -13.3134   -3.7055 C   0  0  0  0  0  0  0  0  0  0  0  0
   19.2221  -12.1660   -2.1424 C   0  0  0  0  0  0  0  0  0  0  0  0
   17.9672  -11.3809   -2.4450 C   0  0  0  0  0  0  0  0  0  0  0  0
 18 16  1  0  0  0
 16 19  1  0  0  0
 16 15  2  0  0  0
 19 17  1  0  0  0
 30 31  1  0  0  0
 27 28  2  0  0  0
 33 32  1  0  0  0
 33 29  1  0  0  0
 12 10  2  0  0  0
 23 21  2  0  0  0
 15 21  1  0  0  0
 15 14  1  0  0  0
 21 22  1  0  0  0
 17 10  1  0  0  0
 17 14  2  0  0  0
 29 31  1  0  0  0
 29 28  1  0  0  0
 10 11  1  0  0  0
 14 25  1  0  0  0
 28 26  2  0  0  0
 28  4  1  0  0  0
  3  4  2  0  0  0
  3  2  1  0  0  0
 25 24  1  0  0  0
 11  2  1  0  0  0
  4  5  1  0  0  0
  2  7  2  0  0  0
  5  1  1  0  0  0
  5  6  2  0  0  0
  7  6  1  0  0  0
  7  8  1  0  0  0
 19 20  1  0  0  0
 11 13  1  0  0  0
  8  9  1  0  0  0
M  END
> <minimizedAffinity>
-6.64516

$$$$
5D3L_57F_A_201


 33 34  0  0  0  0  0  0  0  0999 V2000
   13.5995  -10.4796   -0.3926 C   0  0  0  0  0  0  0  0  0  0  0  0
   14.7704   -8.4841   -4.0367 C   0  0  0  0  0  0  0  0  0  0  0  0
   15.3535   -9.7234   -3.7186 C   0  0  0  0  0  0  0  0  0  0  0  0
   15.0014  -10.4079   -2.5283 C   0  0  0  0  0  0  0  0  0  0  0  0
   14.0498   -9.8415   -1.6843 C   0  0  0  0  0  0  0  0  0  0  0  0
   13.4746   -8.6286   -2.0046 C   0  0  0  0  0  0  0  0  0  0  0  0
   13.8346   -7.9497   -3.1660 C   0  0  0  0  0  0  0  0  0  0  0  0
   13.2504   -6.7582   -3.4545 O   0  0  0  0  0  0  0  0  0  0  0  0
   13.4883   -6.2965   -4.2344 H   0  0  0  0  0  0  0  0  0  0  0  0
   16.2125   -7.0997   -5.4144 C   0  0  0  0  0  0  0  0  0  0  0  0
   15.0514   -7.6989   -5.1310 N   0  0  0  0  0  0  0  0  0  0  0  0
   17.1805   -7.1036   -4.6723 O   0  0  0  0  0  0  0  0  0  0  0  0
   14.3187   -7.5637   -5.7745 H   0  0  0  0  0  0  0  0  0  0  0  0
   17.0035   -5.0391   -6.9179 C   0  0  0  0  0  0  0  0  0  0  0  0
   16.9482   -4.8693   -8.3116 C   0  0  0  0  0  0  0  0  0  0  0  0
   16.3500   -6.1010   -8.8935 C   0  0  0  0  0  0  0  0  0  0  0  0
   16.4403   -6.4048   -6.7143 C   0  0  0  0  0  0  0  0  0  0  0  0
   16.0576   -6.4188  -10.3358 C   0  0  0  0  0  0  0  0  0  0  0  0
   16.0671   -6.9247   -7.8913 N   0  0  0  0  0  0  0  0  0  0  0  0
   15.6384   -7.8043   -7.9992 H   0  0  0  0  0  0  0  0  0  0  0  0
   17.3593   -3.7133   -9.1769 C   0  0  0  0  0  0  0  0  0  0  0  0
   18.6252   -3.8453   -9.9625 C   0  0  0  0  0  0  0  0  0  0  0  0
   16.6746   -2.6842   -9.1924 O   0  0  0  0  0  0  0  0  0  0  0  0
   18.9682   -3.7279   -6.2477 C   0  0  0  0  0  0  0  0  0  0  0  0
   17.5500   -4.0900   -5.8676 C   0  0  0  0  0  0  0  0  0  0  0  0
   14.7145  -12.8796   -2.2998 O   0  0  0  0  0  0  0  0  0  0  0  0
   16.2744  -11.7517   -0.8848 O   0  0  0  0  0  0  0  0  0  0  0  0
   15.6867  -11.8212   -2.1803 S   0  0  0  0  0  0  0  0  0  0  0  0
   16.9048  -12.0798   -3.0774 N   0  0  0  0  0  0  0  0  0  0  0  0
   17.5200  -14.2318   -3.7921 C   0  0  0  0  0  0  0  0  0  0  0  0
   16.7882  -12.9875   -4.2178 C   0  0  0  0  0  0  0  0  0  0  0  0
   18.8357  -10.6087   -3.7010 C   0  0  0  0  0  0  0  0  0  0  0  0
   18.2216  -11.5460   -2.6876 C   0  0  0  0  0  0  0  0  0  0  0  0
 18 16  1  0  0  0
 16 19  1  0  0  0
 16 15  2  0  0  0
 19 17  1  0  0  0
 30 31  1  0  0  0
 27 28  2  0  0  0
 33 32  1  0  0  0
 33 29  1  0  0  0
 12 10  2  0  0  0
 23 21  2  0  0  0
 15 21  1  0  0  0
 15 14  1  0  0  0
 21 22  1  0  0  0
 17 10  1  0  0  0
 17 14  2  0  0  0
 29 31  1  0  0  0
 29 28  1  0  0  0
 10 11  1  0  0  0
 14 25  1  0  0  0
 28 26  2  0  0  0
 28  4  1  0  0  0
  3  4  2  0  0  0
  3  2  1  0  0  0
 25 24  1  0  0  0
 11  2  1  0  0  0
  4  5  1  0  0  0
  2  7  2  0  0  0
  5  1  1  0  0  0
  5  6  2  0  0  0
  7  6  1  0  0  0
  7  8  1  0  0  0
 19 20  1  0  0  0
 11 13  1  0  0  0
  8  9  1  0  0  0
M  END
> <minimizedAffinity>
-6.58101

$$$$
5D3L_57F_A_201


 33 34  0  0  0  0  0  0  0  0999 V2000
   18.2574   -4.4248   -3.8830 C   0  0  0  0  0  0  0  0  0  0  0  0
   15.8146   -6.6868   -6.6305 C   0  0  0  0  0  0  0  0  0  0  0  0
   16.5601   -5.5979   -7.1161 C   0  0  0  0  0  0  0  0  0  0  0  0
   17.3694   -4.8254   -6.2457 C   0  0  0  0  0  0  0  0  0  0  0  0
   17.4311   -5.1749   -4.8993 C   0  0  0  0  0  0  0  0  0  0  0  0
   16.7036   -6.2491   -4.4288 C   0  0  0  0  0  0  0  0  0  0  0  0
   15.8959   -6.9961   -5.2824 C   0  0  0  0  0  0  0  0  0  0  0  0
   15.1924   -8.0481   -4.7900 O   0  0  0  0  0  0  0  0  0  0  0  0
   14.6471   -8.5547   -5.3592 H   0  0  0  0  0  0  0  0  0  0  0  0
   15.2561   -8.1908   -8.4526 C   0  0  0  0  0  0  0  0  0  0  0  0
   14.9618   -7.4884   -7.3537 N   0  0  0  0  0  0  0  0  0  0  0  0
   16.3332   -8.1445   -9.0230 O   0  0  0  0  0  0  0  0  0  0  0  0
   14.0353   -7.5517   -7.0268 H   0  0  0  0  0  0  0  0  0  0  0  0
   14.1017  -10.5863   -8.7003 C   0  0  0  0  0  0  0  0  0  0  0  0
   13.1101  -11.0182   -9.5971 C   0  0  0  0  0  0  0  0  0  0  0  0
   12.7455   -9.8616  -10.4590 C   0  0  0  0  0  0  0  0  0  0  0  0
   14.2850   -9.1494   -9.0547 C   0  0  0  0  0  0  0  0  0  0  0  0
   11.7484   -9.8000  -11.5854 C   0  0  0  0  0  0  0  0  0  0  0  0
   13.4930   -8.8293  -10.0868 N   0  0  0  0  0  0  0  0  0  0  0  0
   13.4685   -7.9428  -10.5143 H   0  0  0  0  0  0  0  0  0  0  0  0
   12.4655  -12.3624   -9.7752 C   0  0  0  0  0  0  0  0  0  0  0  0
   11.6949  -12.6055  -11.0338 C   0  0  0  0  0  0  0  0  0  0  0  0
   12.5540  -13.2092   -8.8789 O   0  0  0  0  0  0  0  0  0  0  0  0
   15.9132  -12.1718   -8.2173 C   0  0  0  0  0  0  0  0  0  0  0  0
   14.7905  -11.3698   -7.5983 C   0  0  0  0  0  0  0  0  0  0  0  0
   19.5700   -3.6466   -6.3519 O   0  0  0  0  0  0  0  0  0  0  0  0
   17.5557   -2.3664   -6.4585 O   0  0  0  0  0  0  0  0  0  0  0  0
   18.2082   -3.5792   -6.8215 S   0  0  0  0  0  0  0  0  0  0  0  0
   18.1490   -3.5351   -8.3544 N   0  0  0  0  0  0  0  0  0  0  0  0
   18.4189   -5.0395  -10.1388 C   0  0  0  0  0  0  0  0  0  0  0  0
   19.1808   -4.2089   -9.1414 C   0  0  0  0  0  0  0  0  0  0  0  0
   17.7430   -1.4985   -9.7576 C   0  0  0  0  0  0  0  0  0  0  0  0
   17.1527   -2.6772   -9.0195 C   0  0  0  0  0  0  0  0  0  0  0  0
 18 16  1  0  0  0
 16 19  1  0  0  0
 16 15  2  0  0  0
 19 17  1  0  0  0
 30 31  1  0  0  0
 27 28  2  0  0  0
 33 32  1  0  0  0
 33 29  1  0  0  0
 12 10  2  0  0  0
 23 21  2  0  0  0
 15 21  1  0  0  0
 15 14  1  0  0  0
 21 22  1  0  0  0
 17 10  1  0  0  0
 17 14  2  0  0  0
 29 31  1  0  0  0
 29 28  1  0  0  0
 10 11  1  0  0  0
 14 25  1  0  0  0
 28 26  2  0  0  0
 28  4  1  0  0  0
  3  4  2  0  0  0
  3  2  1  0  0  0
 25 24  1  0  0  0
 11  2  1  0  0  0
  4  5  1  0  0  0
  2  7  2  0  0  0
  5  1  1  0  0  0
  5  6  2  0  0  0
  7  6  1  0  0  0
  7  8  1  0  0  0
 19 20  1  0  0  0
 11 13  1  0  0  0
  8  9  1  0  0  0
M  END
> <minimizedAffinity>
-6.56274

$$$$
5D3L_57F_A_201


 33 34  0  0  0  0  0  0  0  0999 V2000
   15.2394  -10.7267   -6.8555 C   0  0  0  0  0  0  0  0  0  0  0  0
   15.7499   -6.5313   -7.7335 C   0  0  0  0  0  0  0  0  0  0  0  0
   15.7892   -6.9590   -6.3945 C   0  0  0  0  0  0  0  0  0  0  0  0
   15.6192   -8.3267   -6.0633 C   0  0  0  0  0  0  0  0  0  0  0  0
   15.4317   -9.2481   -7.0903 C   0  0  0  0  0  0  0  0  0  0  0  0
   15.4015   -8.8246   -8.4034 C   0  0  0  0  0  0  0  0  0  0  0  0
   15.5517   -7.4781   -8.7253 C   0  0  0  0  0  0  0  0  0  0  0  0
   15.5181   -7.0921  -10.0269 O   0  0  0  0  0  0  0  0  0  0  0  0
   15.6186   -6.1876  -10.2500 H   0  0  0  0  0  0  0  0  0  0  0  0
   16.8764   -4.3953   -7.9847 C   0  0  0  0  0  0  0  0  0  0  0  0
   15.8576   -5.2371   -8.1877 N   0  0  0  0  0  0  0  0  0  0  0  0
   17.8374   -4.6465   -7.2768 O   0  0  0  0  0  0  0  0  0  0  0  0
   15.1034   -4.8939   -8.7193 H   0  0  0  0  0  0  0  0  0  0  0  0
   17.9999   -2.5969   -9.6081 C   0  0  0  0  0  0  0  0  0  0  0  0
   17.6080   -1.2794   -9.8992 C   0  0  0  0  0  0  0  0  0  0  0  0
   16.3686   -0.9955   -9.1264 C   0  0  0  0  0  0  0  0  0  0  0  0
   16.9464   -3.0697   -8.6644 C   0  0  0  0  0  0  0  0  0  0  0  0
   15.5584    0.2723   -9.0726 C   0  0  0  0  0  0  0  0  0  0  0  0
   16.0734   -2.0824   -8.4233 N   0  0  0  0  0  0  0  0  0  0  0  0
   15.3111   -2.1538   -7.8045 H   0  0  0  0  0  0  0  0  0  0  0  0
   18.2352   -0.2412  -10.7839 C   0  0  0  0  0  0  0  0  0  0  0  0
   17.9633   -0.3194  -12.2526 C   0  0  0  0  0  0  0  0  0  0  0  0
   18.9771    0.6169  -10.2925 O   0  0  0  0  0  0  0  0  0  0  0  0
   18.7193   -4.1355  -11.3811 C   0  0  0  0  0  0  0  0  0  0  0  0
   19.1798   -3.3785  -10.1556 C   0  0  0  0  0  0  0  0  0  0  0  0
   16.9668   -9.3132   -4.2047 O   0  0  0  0  0  0  0  0  0  0  0  0
   14.6165   -9.7332   -4.2903 O   0  0  0  0  0  0  0  0  0  0  0  0
   15.6603   -8.7928   -4.5241 S   0  0  0  0  0  0  0  0  0  0  0  0
   15.2758   -7.6394   -3.5876 N   0  0  0  0  0  0  0  0  0  0  0  0
   13.3883   -7.0590   -2.3146 C   0  0  0  0  0  0  0  0  0  0  0  0
   13.9592   -7.0146   -3.7064 C   0  0  0  0  0  0  0  0  0  0  0  0
   16.7779   -5.6913   -3.1076 C   0  0  0  0  0  0  0  0  0  0  0  0
   16.2920   -7.0602   -2.6917 C   0  0  0  0  0  0  0  0  0  0  0  0
 18 16  1  0  0  0
 16 19  1  0  0  0
 16 15  2  0  0  0
 19 17  1  0  0  0
 30 31  1  0  0  0
 27 28  2  0  0  0
 33 32  1  0  0  0
 33 29  1  0  0  0
 12 10  2  0  0  0
 23 21  2  0  0  0
 15 21  1  0  0  0
 15 14  1  0  0  0
 21 22  1  0  0  0
 17 10  1  0  0  0
 17 14  2  0  0  0
 29 31  1  0  0  0
 29 28  1  0  0  0
 10 11  1  0  0  0
 14 25  1  0  0  0
 28 26  2  0  0  0
 28  4  1  0  0  0
  3  4  2  0  0  0
  3  2  1  0  0  0
 25 24  1  0  0  0
 11  2  1  0  0  0
  4  5  1  0  0  0
  2  7  2  0  0  0
  5  1  1  0  0  0
  5  6  2  0  0  0
  7  6  1  0  0  0
  7  8  1  0  0  0
 19 20  1  0  0  0
 11 13  1  0  0  0
  8  9  1  0  0  0
M  END
> <minimizedAffinity>
-6.55909

$$$$
