5JT9_7AF_E_412


 34 34  0  0  0  0  0  0  0  0999 V2000
    9.2877   37.8825   -5.0852 O   0  0  0  0  0  0  0  0  0  0  0  0
   10.6833   38.4506   -4.9763 P   0  0  0  0  0  0  0  0  0  0  0  0
   11.7607   37.4697   -5.3235 O   0  0  0  0  0  0  0  0  0  0  0  0
   11.6193   37.1396   -6.2246 H   0  0  0  0  0  0  0  0  0  0  0  0
   10.8964   39.0944   -3.3166 N   0  0  0  0  0  0  0  0  0  0  0  0
   11.1990   40.0647   -3.4027 H   0  0  0  0  0  0  0  0  0  0  0  0
    9.7548   39.0762   -2.4405 C   0  0  0  0  0  0  0  0  0  0  0  0
    9.4687   40.4275   -1.8368 C   0  0  0  0  0  0  0  0  0  0  0  0
    9.7699   40.6514   -0.6649 O   0  0  0  0  0  0  0  0  0  0  0  0
    8.9015   41.3413   -2.6406 N   0  0  0  0  0  0  0  0  0  0  0  0
    8.6909   41.0999   -3.5715 H   0  0  0  0  0  0  0  0  0  0  0  0
    8.5915   42.6815   -2.1642 C   0  0  0  0  0  0  0  0  0  0  0  0
    7.1137   43.0774   -2.3904 C   0  0  0  0  0  0  0  0  0  0  0  0
    7.0027   44.5942   -2.6854 C   0  0  0  0  0  0  0  0  0  0  0  0
    6.5350   42.2900   -3.6005 C   0  0  0  0  0  0  0  0  0  0  0  0
    5.0022   42.1749   -3.4513 C   0  0  0  0  0  0  0  0  0  0  0  0
    6.7920   42.9687   -4.9797 C   0  0  0  0  0  0  0  0  0  0  0  0
   10.1909   38.1006   -1.3367 C   0  0  0  0  0  0  0  0  0  0  0  0
    9.0416   37.2161   -0.7985 C   0  0  0  0  0  0  0  0  0  0  0  0
    9.3478   35.7255   -0.9986 C   0  0  0  0  0  0  0  0  0  0  0  0
    8.7882   37.5398    0.6876 C   0  0  0  0  0  0  0  0  0  0  0  0
   10.8204   39.9392   -6.0202 C   0  0  0  0  0  0  0  0  0  0  0  0
   11.8978   40.5932   -8.0717 C   0  0  0  0  0  0  0  0  0  0  0  0
   11.4399   39.6100   -7.2850 N   0  0  0  0  0  0  0  0  0  0  0  0
   11.6797   41.7873   -7.9259 O   0  0  0  0  0  0  0  0  0  0  0  0
   11.5245   38.6702   -7.5660 H   0  0  0  0  0  0  0  0  0  0  0  0
   12.4345   40.0683   -9.1727 O   0  0  0  0  0  0  0  0  0  0  0  0
   13.2097   38.8509   -8.9933 C   0  0  0  0  0  0  0  0  0  0  0  0
   13.8863   39.4414  -11.3598 C   0  0  0  0  0  0  0  0  0  0  0  0
   14.1256   39.1168  -12.7065 C   0  0  0  0  0  0  0  0  0  0  0  0
   13.9407   37.8028  -13.1599 C   0  0  0  0  0  0  0  0  0  0  0  0
   13.4666   38.4670  -10.4583 C   0  0  0  0  0  0  0  0  0  0  0  0
   13.5421   36.8127  -12.2450 C   0  0  0  0  0  0  0  0  0  0  0  0
   13.2942   37.1459  -10.9161 C   0  0  0  0  0  0  0  0  0  0  0  0
 30 29  2  0  0  0
 30 31  1  0  0  0
 29 32  1  0  0  0
 31 33  2  0  0  0
 32 28  1  0  0  0
 32 34  2  0  0  0
 33 34  1  0  0  0
 28 27  1  0  0  0
 27 23  1  0  0  0
 23 25  2  0  0  0
 23 24  1  0  0  0
 24 22  1  0  0  0
 22  2  1  0  0  0
  1  2  2  0  0  0
  3  2  1  0  0  0
  2  5  1  0  0  0
 17 15  1  0  0  0
 12 10  1  0  0  0
 12 13  1  0  0  0
  5  7  1  0  0  0
 10  8  1  0  0  0
  9  8  2  0  0  0
  8  7  1  0  0  0
 16 15  1  0  0  0
  7 18  1  0  0  0
 15 13  1  0  0  0
 13 14  1  0  0  0
 18 19  1  0  0  0
 20 19  1  0  0  0
 19 21  1  0  0  0
  5  6  1  0  0  0
 10 11  1  0  0  0
  3  4  1  0  0  0
 24 26  1  0  0  0
M  END
> <minimizedAffinity>
-8.28052

$$$$
5JT9_7AF_E_412


 34 34  0  0  0  0  0  0  0  0999 V2000
   11.7099   42.6555   -7.8632 O   0  0  0  0  0  0  0  0  0  0  0  0
   12.5966   41.5316   -7.3805 P   0  0  0  0  0  0  0  0  0  0  0  0
   13.2606   41.8111   -6.0674 O   0  0  0  0  0  0  0  0  0  0  0  0
   12.5851   41.9960   -5.3963 H   0  0  0  0  0  0  0  0  0  0  0  0
   13.8023   41.1822   -8.6607 N   0  0  0  0  0  0  0  0  0  0  0  0
   13.8310   40.1701   -8.7840 H   0  0  0  0  0  0  0  0  0  0  0  0
   13.5890   41.7675   -9.9580 C   0  0  0  0  0  0  0  0  0  0  0  0
   14.0142   40.8551  -11.0801 C   0  0  0  0  0  0  0  0  0  0  0  0
   13.9737   41.2543  -12.2434 O   0  0  0  0  0  0  0  0  0  0  0  0
   14.4419   39.6302  -10.7346 N   0  0  0  0  0  0  0  0  0  0  0  0
   14.4554   39.3747   -9.7840 H   0  0  0  0  0  0  0  0  0  0  0  0
   14.8860   38.6720  -11.7365 C   0  0  0  0  0  0  0  0  0  0  0  0
   13.7314   37.8187  -12.3116 C   0  0  0  0  0  0  0  0  0  0  0  0
   13.9895   37.5025  -13.8061 C   0  0  0  0  0  0  0  0  0  0  0  0
   13.6244   36.4787  -11.5293 C   0  0  0  0  0  0  0  0  0  0  0  0
   13.1258   35.3685  -12.4801 C   0  0  0  0  0  0  0  0  0  0  0  0
   14.9784   35.9778  -10.9418 C   0  0  0  0  0  0  0  0  0  0  0  0
   14.5006   43.0037   -9.9255 C   0  0  0  0  0  0  0  0  0  0  0  0
   15.8360   42.7726   -9.1798 C   0  0  0  0  0  0  0  0  0  0  0  0
   17.0192   42.7407  -10.1568 C   0  0  0  0  0  0  0  0  0  0  0  0
   16.0275   43.8622   -8.1059 C   0  0  0  0  0  0  0  0  0  0  0  0
   11.6306   39.9881   -7.2871 C   0  0  0  0  0  0  0  0  0  0  0  0
   11.3650   38.4871   -5.4233 C   0  0  0  0  0  0  0  0  0  0  0  0
   11.2364   39.7246   -5.9206 N   0  0  0  0  0  0  0  0  0  0  0  0
   11.6117   37.4782   -6.0683 O   0  0  0  0  0  0  0  0  0  0  0  0
   10.8763   40.4493   -5.3599 H   0  0  0  0  0  0  0  0  0  0  0  0
   10.9559   38.4728   -4.1552 O   0  0  0  0  0  0  0  0  0  0  0  0
    9.5386   38.2285   -3.9390 C   0  0  0  0  0  0  0  0  0  0  0  0
    9.8778   39.1630   -1.6112 C   0  0  0  0  0  0  0  0  0  0  0  0
    9.8648   39.0550   -0.2097 C   0  0  0  0  0  0  0  0  0  0  0  0
    9.4845   37.8521    0.4025 C   0  0  0  0  0  0  0  0  0  0  0  0
    9.5121   38.0830   -2.4100 C   0  0  0  0  0  0  0  0  0  0  0  0
    9.0901   36.7692   -0.4023 C   0  0  0  0  0  0  0  0  0  0  0  0
    9.1190   36.8807   -1.7899 C   0  0  0  0  0  0  0  0  0  0  0  0
 30 29  2  0  0  0
 30 31  1  0  0  0
 29 32  1  0  0  0
 31 33  2  0  0  0
 32 28  1  0  0  0
 32 34  2  0  0  0
 33 34  1  0  0  0
 28 27  1  0  0  0
 27 23  1  0  0  0
 23 25  2  0  0  0
 23 24  1  0  0  0
 24 22  1  0  0  0
 22  2  1  0  0  0
  1  2  2  0  0  0
  3  2  1  0  0  0
  2  5  1  0  0  0
 17 15  1  0  0  0
 12 10  1  0  0  0
 12 13  1  0  0  0
  5  7  1  0  0  0
 10  8  1  0  0  0
  9  8  2  0  0  0
  8  7  1  0  0  0
 16 15  1  0  0  0
  7 18  1  0  0  0
 15 13  1  0  0  0
 13 14  1  0  0  0
 18 19  1  0  0  0
 20 19  1  0  0  0
 19 21  1  0  0  0
  5  6  1  0  0  0
 10 11  1  0  0  0
  3  4  1  0  0  0
 24 26  1  0  0  0
M  END
> <minimizedAffinity>
-8.21767

$$$$
5JT9_7AF_E_412


 34 34  0  0  0  0  0  0  0  0999 V2000
   12.4683   42.8929   -8.0883 O   0  0  0  0  0  0  0  0  0  0  0  0
   12.7541   41.5839   -7.3904 P   0  0  0  0  0  0  0  0  0  0  0  0
   13.3149   41.7477   -6.0112 O   0  0  0  0  0  0  0  0  0  0  0  0
   12.7003   42.2699   -5.4722 H   0  0  0  0  0  0  0  0  0  0  0  0
   13.8528   40.6236   -8.4322 N   0  0  0  0  0  0  0  0  0  0  0  0
   14.1850   39.8341   -7.8784 H   0  0  0  0  0  0  0  0  0  0  0  0
   13.3180   40.0937   -9.6587 C   0  0  0  0  0  0  0  0  0  0  0  0
   13.3687   38.5879   -9.7077 C   0  0  0  0  0  0  0  0  0  0  0  0
   12.4183   37.9286   -9.2877 O   0  0  0  0  0  0  0  0  0  0  0  0
   14.4720   38.0368  -10.2385 N   0  0  0  0  0  0  0  0  0  0  0  0
   15.1948   38.6216  -10.5624 H   0  0  0  0  0  0  0  0  0  0  0  0
   14.6218   36.5928  -10.3449 C   0  0  0  0  0  0  0  0  0  0  0  0
   14.6620   36.0947  -11.8085 C   0  0  0  0  0  0  0  0  0  0  0  0
   13.2543   35.6279  -12.2563 C   0  0  0  0  0  0  0  0  0  0  0  0
   15.1277   37.2455  -12.7456 C   0  0  0  0  0  0  0  0  0  0  0  0
   16.5547   36.9464  -13.2545 C   0  0  0  0  0  0  0  0  0  0  0  0
   14.2394   37.4296  -14.0129 C   0  0  0  0  0  0  0  0  0  0  0  0
   14.2641   40.6759  -10.7199 C   0  0  0  0  0  0  0  0  0  0  0  0
   15.4675   41.4451  -10.1257 C   0  0  0  0  0  0  0  0  0  0  0  0
   16.7983   40.8590  -10.6166 C   0  0  0  0  0  0  0  0  0  0  0  0
   15.3529   42.9420  -10.4770 C   0  0  0  0  0  0  0  0  0  0  0  0
   11.2376   40.5728   -7.3426 C   0  0  0  0  0  0  0  0  0  0  0  0
   11.0628   38.9427   -5.5793 C   0  0  0  0  0  0  0  0  0  0  0  0
   10.9168   40.2133   -5.9788 N   0  0  0  0  0  0  0  0  0  0  0  0
   11.2658   37.9819   -6.3074 O   0  0  0  0  0  0  0  0  0  0  0  0
   10.5936   40.8972   -5.3487 H   0  0  0  0  0  0  0  0  0  0  0  0
   10.7236   38.8388   -4.2947 O   0  0  0  0  0  0  0  0  0  0  0  0
    9.3650   38.3974   -4.0216 C   0  0  0  0  0  0  0  0  0  0  0  0
    9.6961   39.3778   -1.7117 C   0  0  0  0  0  0  0  0  0  0  0  0
    9.7551   39.2774   -0.3107 C   0  0  0  0  0  0  0  0  0  0  0  0
    9.5388   38.0431    0.3186 C   0  0  0  0  0  0  0  0  0  0  0  0
    9.4202   38.2589   -2.4927 C   0  0  0  0  0  0  0  0  0  0  0  0
    9.2346   36.9180   -0.4673 C   0  0  0  0  0  0  0  0  0  0  0  0
    9.1916   37.0238   -1.8550 C   0  0  0  0  0  0  0  0  0  0  0  0
 30 29  2  0  0  0
 30 31  1  0  0  0
 29 32  1  0  0  0
 31 33  2  0  0  0
 32 28  1  0  0  0
 32 34  2  0  0  0
 33 34  1  0  0  0
 28 27  1  0  0  0
 27 23  1  0  0  0
 23 25  2  0  0  0
 23 24  1  0  0  0
 24 22  1  0  0  0
 22  2  1  0  0  0
  1  2  2  0  0  0
  3  2  1  0  0  0
  2  5  1  0  0  0
 17 15  1  0  0  0
 12 10  1  0  0  0
 12 13  1  0  0  0
  5  7  1  0  0  0
 10  8  1  0  0  0
  9  8  2  0  0  0
  8  7  1  0  0  0
 16 15  1  0  0  0
  7 18  1  0  0  0
 15 13  1  0  0  0
 13 14  1  0  0  0
 18 19  1  0  0  0
 20 19  1  0  0  0
 19 21  1  0  0  0
  5  6  1  0  0  0
 10 11  1  0  0  0
  3  4  1  0  0  0
 24 26  1  0  0  0
M  END
> <minimizedAffinity>
-8.14624

$$$$
5JT9_7AF_E_412


 34 34  0  0  0  0  0  0  0  0999 V2000
   14.2881   37.0336   -7.9694 O   0  0  0  0  0  0  0  0  0  0  0  0
   13.5647   38.0967   -8.7624 P   0  0  0  0  0  0  0  0  0  0  0  0
   12.6315   37.5452   -9.7960 O   0  0  0  0  0  0  0  0  0  0  0  0
   11.9807   36.9669   -9.3684 H   0  0  0  0  0  0  0  0  0  0  0  0
   14.7921   39.1756   -9.4999 N   0  0  0  0  0  0  0  0  0  0  0  0
   15.2967   38.6302  -10.1987 H   0  0  0  0  0  0  0  0  0  0  0  0
   14.3271   40.3753  -10.1446 C   0  0  0  0  0  0  0  0  0  0  0  0
   14.0701   40.1773  -11.6167 C   0  0  0  0  0  0  0  0  0  0  0  0
   13.5648   41.0838  -12.2780 O   0  0  0  0  0  0  0  0  0  0  0  0
   14.4338   38.9959  -12.1407 N   0  0  0  0  0  0  0  0  0  0  0  0
   14.8392   38.3142  -11.5574 H   0  0  0  0  0  0  0  0  0  0  0  0
   14.2414   38.7019  -13.5534 C   0  0  0  0  0  0  0  0  0  0  0  0
   14.6521   37.2599  -13.9329 C   0  0  0  0  0  0  0  0  0  0  0  0
   15.7561   36.7459  -12.9754 C   0  0  0  0  0  0  0  0  0  0  0  0
   13.4210   36.3151  -13.8280 C   0  0  0  0  0  0  0  0  0  0  0  0
   13.3256   35.4540  -15.1065 C   0  0  0  0  0  0  0  0  0  0  0  0
   13.4870   35.3185  -12.6316 C   0  0  0  0  0  0  0  0  0  0  0  0
   15.5062   41.3413   -9.9528 C   0  0  0  0  0  0  0  0  0  0  0  0
   15.0811   42.7628   -9.5154 C   0  0  0  0  0  0  0  0  0  0  0  0
   13.6978   42.7488   -8.8505 C   0  0  0  0  0  0  0  0  0  0  0  0
   16.1473   43.3582   -8.5741 C   0  0  0  0  0  0  0  0  0  0  0  0
   12.6681   39.2039   -7.6246 C   0  0  0  0  0  0  0  0  0  0  0  0
   11.1907   38.9882   -5.7358 C   0  0  0  0  0  0  0  0  0  0  0  0
   12.1582   38.4574   -6.4956 N   0  0  0  0  0  0  0  0  0  0  0  0
   10.8039   40.1473   -5.7752 O   0  0  0  0  0  0  0  0  0  0  0  0
   12.5194   37.5656   -6.2869 H   0  0  0  0  0  0  0  0  0  0  0  0
   10.8669   38.1330   -4.7664 O   0  0  0  0  0  0  0  0  0  0  0  0
    9.4637   38.0929   -4.3859 C   0  0  0  0  0  0  0  0  0  0  0  0
    9.7942   39.3097   -2.1911 C   0  0  0  0  0  0  0  0  0  0  0  0
    9.9167   39.3459   -0.7911 C   0  0  0  0  0  0  0  0  0  0  0  0
    9.8382   38.1616   -0.0444 C   0  0  0  0  0  0  0  0  0  0  0  0
    9.5909   38.1030   -2.8550 C   0  0  0  0  0  0  0  0  0  0  0  0
    9.6071   36.9459   -0.7113 C   0  0  0  0  0  0  0  0  0  0  0  0
    9.5006   36.9176   -2.0993 C   0  0  0  0  0  0  0  0  0  0  0  0
 30 29  2  0  0  0
 30 31  1  0  0  0
 29 32  1  0  0  0
 31 33  2  0  0  0
 32 28  1  0  0  0
 32 34  2  0  0  0
 33 34  1  0  0  0
 28 27  1  0  0  0
 27 23  1  0  0  0
 23 25  2  0  0  0
 23 24  1  0  0  0
 24 22  1  0  0  0
 22  2  1  0  0  0
  1  2  2  0  0  0
  3  2  1  0  0  0
  2  5  1  0  0  0
 17 15  1  0  0  0
 12 10  1  0  0  0
 12 13  1  0  0  0
  5  7  1  0  0  0
 10  8  1  0  0  0
  9  8  2  0  0  0
  8  7  1  0  0  0
 16 15  1  0  0  0
  7 18  1  0  0  0
 15 13  1  0  0  0
 13 14  1  0  0  0
 18 19  1  0  0  0
 20 19  1  0  0  0
 19 21  1  0  0  0
  5  6  1  0  0  0
 10 11  1  0  0  0
  3  4  1  0  0  0
 24 26  1  0  0  0
M  END
> <minimizedAffinity>
-7.97744

$$$$
5JT9_7AF_E_412


 34 34  0  0  0  0  0  0  0  0999 V2000
   11.4072   42.3718   -7.4100 O   0  0  0  0  0  0  0  0  0  0  0  0
   12.5191   41.3931   -7.1130 P   0  0  0  0  0  0  0  0  0  0  0  0
   13.3034   41.7294   -5.8821 O   0  0  0  0  0  0  0  0  0  0  0  0
   12.7052   41.7746   -5.1198 H   0  0  0  0  0  0  0  0  0  0  0  0
   13.5785   41.2965   -8.5562 N   0  0  0  0  0  0  0  0  0  0  0  0
   13.6095   40.3191   -8.8465 H   0  0  0  0  0  0  0  0  0  0  0  0
   13.2111   42.0758   -9.7089 C   0  0  0  0  0  0  0  0  0  0  0  0
   13.3767   41.3128  -10.9984 C   0  0  0  0  0  0  0  0  0  0  0  0
   13.1583   41.8710  -12.0732 O   0  0  0  0  0  0  0  0  0  0  0  0
   13.7816   40.0366  -10.8984 N   0  0  0  0  0  0  0  0  0  0  0  0
   13.9451   39.6512  -10.0074 H   0  0  0  0  0  0  0  0  0  0  0  0
   13.9838   39.2109  -12.0801 C   0  0  0  0  0  0  0  0  0  0  0  0
   14.1620   37.7111  -11.7472 C   0  0  0  0  0  0  0  0  0  0  0  0
   13.3293   37.3357  -10.4959 C   0  0  0  0  0  0  0  0  0  0  0  0
   13.6815   36.8433  -12.9452 C   0  0  0  0  0  0  0  0  0  0  0  0
   14.8740   36.5624  -13.8854 C   0  0  0  0  0  0  0  0  0  0  0  0
   13.1113   35.4528  -12.5321 C   0  0  0  0  0  0  0  0  0  0  0  0
   14.2149   43.2381   -9.6655 C   0  0  0  0  0  0  0  0  0  0  0  0
   15.5573   42.8759   -8.9876 C   0  0  0  0  0  0  0  0  0  0  0  0
   16.6600   42.6422  -10.0293 C   0  0  0  0  0  0  0  0  0  0  0  0
   15.9541   43.9855   -7.9933 C   0  0  0  0  0  0  0  0  0  0  0  0
   11.8332   39.7084   -6.9875 C   0  0  0  0  0  0  0  0  0  0  0  0
   10.6329   38.7078   -5.1558 C   0  0  0  0  0  0  0  0  0  0  0  0
   10.7188   39.6876   -6.0656 N   0  0  0  0  0  0  0  0  0  0  0  0
   11.3105   37.6905   -5.1328 O   0  0  0  0  0  0  0  0  0  0  0  0
   10.0285   40.3883   -6.1064 H   0  0  0  0  0  0  0  0  0  0  0  0
    9.5434   38.8879   -4.4099 O   0  0  0  0  0  0  0  0  0  0  0  0
    9.7664   39.1326   -2.9936 C   0  0  0  0  0  0  0  0  0  0  0  0
    7.7991   40.5849   -3.6474 C   0  0  0  0  0  0  0  0  0  0  0  0
    6.9576   41.6974   -3.4730 C   0  0  0  0  0  0  0  0  0  0  0  0
    7.1811   42.5935   -2.4178 C   0  0  0  0  0  0  0  0  0  0  0  0
    8.8612   40.3547   -2.7772 C   0  0  0  0  0  0  0  0  0  0  0  0
    8.2372   42.3479   -1.5233 C   0  0  0  0  0  0  0  0  0  0  0  0
    9.0740   41.2511   -1.7115 C   0  0  0  0  0  0  0  0  0  0  0  0
 30 29  2  0  0  0
 30 31  1  0  0  0
 29 32  1  0  0  0
 31 33  2  0  0  0
 32 28  1  0  0  0
 32 34  2  0  0  0
 33 34  1  0  0  0
 28 27  1  0  0  0
 27 23  1  0  0  0
 23 25  2  0  0  0
 23 24  1  0  0  0
 24 22  1  0  0  0
 22  2  1  0  0  0
  1  2  2  0  0  0
  3  2  1  0  0  0
  2  5  1  0  0  0
 17 15  1  0  0  0
 12 10  1  0  0  0
 12 13  1  0  0  0
  5  7  1  0  0  0
 10  8  1  0  0  0
  9  8  2  0  0  0
  8  7  1  0  0  0
 16 15  1  0  0  0
  7 18  1  0  0  0
 15 13  1  0  0  0
 13 14  1  0  0  0
 18 19  1  0  0  0
 20 19  1  0  0  0
 19 21  1  0  0  0
  5  6  1  0  0  0
 10 11  1  0  0  0
  3  4  1  0  0  0
 24 26  1  0  0  0
M  END
> <minimizedAffinity>
-7.61324

$$$$
5JT9_7AF_E_412


 34 34  0  0  0  0  0  0  0  0999 V2000
    8.5618   44.5841   -4.7669 O   0  0  0  0  0  0  0  0  0  0  0  0
    8.4076   43.8096   -6.0548 P   0  0  0  0  0  0  0  0  0  0  0  0
    7.0399   43.9101   -6.6569 O   0  0  0  0  0  0  0  0  0  0  0  0
    6.8247   44.8423   -6.8167 H   0  0  0  0  0  0  0  0  0  0  0  0
    8.8578   42.1033   -5.7378 N   0  0  0  0  0  0  0  0  0  0  0  0
    9.8461   42.0010   -5.9685 H   0  0  0  0  0  0  0  0  0  0  0  0
    8.6740   41.6002   -4.4020 C   0  0  0  0  0  0  0  0  0  0  0  0
    9.2159   40.2039   -4.2312 C   0  0  0  0  0  0  0  0  0  0  0  0
   10.1363   39.8118   -4.9476 O   0  0  0  0  0  0  0  0  0  0  0  0
    8.6591   39.4528   -3.2676 N   0  0  0  0  0  0  0  0  0  0  0  0
    7.9292   39.8289   -2.7245 H   0  0  0  0  0  0  0  0  0  0  0  0
    9.1124   38.0938   -3.0092 C   0  0  0  0  0  0  0  0  0  0  0  0
    9.0122   37.6956   -1.5181 C   0  0  0  0  0  0  0  0  0  0  0  0
    9.6155   36.2860   -1.2965 C   0  0  0  0  0  0  0  0  0  0  0  0
    9.7959   38.7167   -0.6449 C   0  0  0  0  0  0  0  0  0  0  0  0
    9.6399   38.3426    0.8453 C   0  0  0  0  0  0  0  0  0  0  0  0
   11.3276   38.7511   -0.9307 C   0  0  0  0  0  0  0  0  0  0  0  0
    7.1449   41.5811   -4.2550 C   0  0  0  0  0  0  0  0  0  0  0  0
    6.6400   42.1888   -2.9252 C   0  0  0  0  0  0  0  0  0  0  0  0
    7.8086   42.6815   -2.0608 C   0  0  0  0  0  0  0  0  0  0  0  0
    5.6433   43.3279   -3.2189 C   0  0  0  0  0  0  0  0  0  0  0  0
    9.6694   44.3567   -7.2519 C   0  0  0  0  0  0  0  0  0  0  0  0
   11.5868   43.0362   -7.8658 C   0  0  0  0  0  0  0  0  0  0  0  0
   10.2599   43.2153   -7.9156 N   0  0  0  0  0  0  0  0  0  0  0  0
   12.4052   43.8528   -7.4681 O   0  0  0  0  0  0  0  0  0  0  0  0
    9.6910   42.5746   -8.4005 H   0  0  0  0  0  0  0  0  0  0  0  0
   11.9110   41.9269   -8.5292 O   0  0  0  0  0  0  0  0  0  0  0  0
   13.3043   41.7985   -8.9261 C   0  0  0  0  0  0  0  0  0  0  0  0
   13.7259   40.0777  -10.7339 C   0  0  0  0  0  0  0  0  0  0  0  0
   13.7436   38.7592  -11.2212 C   0  0  0  0  0  0  0  0  0  0  0  0
   13.3443   37.6966  -10.3980 C   0  0  0  0  0  0  0  0  0  0  0  0
   13.3164   40.3477   -9.4310 C   0  0  0  0  0  0  0  0  0  0  0  0
   12.9554   37.9650   -9.0741 C   0  0  0  0  0  0  0  0  0  0  0  0
   12.9280   39.2754   -8.6041 C   0  0  0  0  0  0  0  0  0  0  0  0
 30 29  2  0  0  0
 30 31  1  0  0  0
 29 32  1  0  0  0
 31 33  2  0  0  0
 32 28  1  0  0  0
 32 34  2  0  0  0
 33 34  1  0  0  0
 28 27  1  0  0  0
 27 23  1  0  0  0
 23 25  2  0  0  0
 23 24  1  0  0  0
 24 22  1  0  0  0
 22  2  1  0  0  0
  1  2  2  0  0  0
  3  2  1  0  0  0
  2  5  1  0  0  0
 17 15  1  0  0  0
 12 10  1  0  0  0
 12 13  1  0  0  0
  5  7  1  0  0  0
 10  8  1  0  0  0
  9  8  2  0  0  0
  8  7  1  0  0  0
 16 15  1  0  0  0
  7 18  1  0  0  0
 15 13  1  0  0  0
 13 14  1  0  0  0
 18 19  1  0  0  0
 20 19  1  0  0  0
 19 21  1  0  0  0
  5  6  1  0  0  0
 10 11  1  0  0  0
  3  4  1  0  0  0
 24 26  1  0  0  0
M  END
> <minimizedAffinity>
-7.25116

$$$$
5JT9_7AF_E_412


 34 34  0  0  0  0  0  0  0  0999 V2000
   15.6547   35.9191  -13.2016 O   0  0  0  0  0  0  0  0  0  0  0  0
   14.2535   36.0759  -12.6589 P   0  0  0  0  0  0  0  0  0  0  0  0
   13.3142   34.9950  -13.0979 O   0  0  0  0  0  0  0  0  0  0  0  0
   13.6663   34.1320  -12.8295 H   0  0  0  0  0  0  0  0  0  0  0  0
   13.6499   37.6970  -13.1305 N   0  0  0  0  0  0  0  0  0  0  0  0
   13.0260   38.0171  -12.3898 H   0  0  0  0  0  0  0  0  0  0  0  0
   14.6225   38.7344  -13.3517 C   0  0  0  0  0  0  0  0  0  0  0  0
   14.6058   39.7822  -12.2680 C   0  0  0  0  0  0  0  0  0  0  0  0
   13.7141   40.6300  -12.2490 O   0  0  0  0  0  0  0  0  0  0  0  0
   15.5825   39.7176  -11.3492 N   0  0  0  0  0  0  0  0  0  0  0  0
   16.2631   39.0096  -11.4182 H   0  0  0  0  0  0  0  0  0  0  0  0
   15.6562   40.6726  -10.2530 C   0  0  0  0  0  0  0  0  0  0  0  0
   17.0229   41.3916  -10.1676 C   0  0  0  0  0  0  0  0  0  0  0  0
   17.9050   41.0156  -11.3843 C   0  0  0  0  0  0  0  0  0  0  0  0
   16.8099   42.9323  -10.1627 C   0  0  0  0  0  0  0  0  0  0  0  0
   15.5911   43.2840  -11.0436 C   0  0  0  0  0  0  0  0  0  0  0  0
   16.5180   43.5274   -8.7521 C   0  0  0  0  0  0  0  0  0  0  0  0
   14.1578   39.3568  -14.6773 C   0  0  0  0  0  0  0  0  0  0  0  0
   15.3122   39.6574  -15.6620 C   0  0  0  0  0  0  0  0  0  0  0  0
   15.7680   41.1190  -15.5536 C   0  0  0  0  0  0  0  0  0  0  0  0
   16.4821   38.6868  -15.4040 C   0  0  0  0  0  0  0  0  0  0  0  0
   14.3097   36.1668  -10.8387 C   0  0  0  0  0  0  0  0  0  0  0  0
   13.5111   37.7107   -9.1727 C   0  0  0  0  0  0  0  0  0  0  0  0
   13.3214   37.1042  -10.3522 N   0  0  0  0  0  0  0  0  0  0  0  0
   14.3602   37.4157   -8.3441 O   0  0  0  0  0  0  0  0  0  0  0  0
   12.5152   37.2953  -10.8840 H   0  0  0  0  0  0  0  0  0  0  0  0
   12.4921   38.5336   -8.9268 O   0  0  0  0  0  0  0  0  0  0  0  0
   12.4396   39.1122   -7.5935 C   0  0  0  0  0  0  0  0  0  0  0  0
   12.1391   41.0692   -9.1705 C   0  0  0  0  0  0  0  0  0  0  0  0
   12.2547   42.4293   -9.5068 C   0  0  0  0  0  0  0  0  0  0  0  0
   12.8162   43.3365   -8.5969 C   0  0  0  0  0  0  0  0  0  0  0  0
   12.5755   40.6043   -7.9330 C   0  0  0  0  0  0  0  0  0  0  0  0
   13.2334   42.8729   -7.3372 C   0  0  0  0  0  0  0  0  0  0  0  0
   13.1276   41.5219   -7.0177 C   0  0  0  0  0  0  0  0  0  0  0  0
 30 29  2  0  0  0
 30 31  1  0  0  0
 29 32  1  0  0  0
 31 33  2  0  0  0
 32 28  1  0  0  0
 32 34  2  0  0  0
 33 34  1  0  0  0
 28 27  1  0  0  0
 27 23  1  0  0  0
 23 25  2  0  0  0
 23 24  1  0  0  0
 24 22  1  0  0  0
 22  2  1  0  0  0
  1  2  2  0  0  0
  3  2  1  0  0  0
  2  5  1  0  0  0
 17 15  1  0  0  0
 12 10  1  0  0  0
 12 13  1  0  0  0
  5  7  1  0  0  0
 10  8  1  0  0  0
  9  8  2  0  0  0
  8  7  1  0  0  0
 16 15  1  0  0  0
  7 18  1  0  0  0
 15 13  1  0  0  0
 13 14  1  0  0  0
 18 19  1  0  0  0
 20 19  1  0  0  0
 19 21  1  0  0  0
  5  6  1  0  0  0
 10 11  1  0  0  0
  3  4  1  0  0  0
 24 26  1  0  0  0
M  END
> <minimizedAffinity>
-7.21823

$$$$
5JT9_7AF_E_412


 34 34  0  0  0  0  0  0  0  0999 V2000
   11.8778   42.8855   -6.9806 O   0  0  0  0  0  0  0  0  0  0  0  0
   12.6251   41.8958   -7.8434 P   0  0  0  0  0  0  0  0  0  0  0  0
   14.0821   42.2088   -7.9934 O   0  0  0  0  0  0  0  0  0  0  0  0
   14.4967   42.2461   -7.1172 H   0  0  0  0  0  0  0  0  0  0  0  0
   11.8072   41.8148   -9.4369 N   0  0  0  0  0  0  0  0  0  0  0  0
   10.9784   42.4070   -9.3844 H   0  0  0  0  0  0  0  0  0  0  0  0
   12.5564   42.2256  -10.5949 C   0  0  0  0  0  0  0  0  0  0  0  0
   13.7614   41.3542  -10.8420 C   0  0  0  0  0  0  0  0  0  0  0  0
   14.8831   41.8581  -10.8879 O   0  0  0  0  0  0  0  0  0  0  0  0
   13.5372   40.0381  -10.9842 N   0  0  0  0  0  0  0  0  0  0  0  0
   12.6149   39.6977  -10.9306 H   0  0  0  0  0  0  0  0  0  0  0  0
   14.6293   39.1039  -11.2159 C   0  0  0  0  0  0  0  0  0  0  0  0
   14.2125   37.6266  -11.0268 C   0  0  0  0  0  0  0  0  0  0  0  0
   13.2772   37.4848   -9.8000 C   0  0  0  0  0  0  0  0  0  0  0  0
   13.4574   37.1248  -12.2907 C   0  0  0  0  0  0  0  0  0  0  0  0
   14.1992   37.6078  -13.5563 C   0  0  0  0  0  0  0  0  0  0  0  0
   13.3670   35.5728  -12.4005 C   0  0  0  0  0  0  0  0  0  0  0  0
   13.0141   43.6425  -10.2166 C   0  0  0  0  0  0  0  0  0  0  0  0
   12.4457   44.7469  -11.1386 C   0  0  0  0  0  0  0  0  0  0  0  0
   12.4020   44.2816  -12.6005 C   0  0  0  0  0  0  0  0  0  0  0  0
   11.0472   45.1683  -10.6445 C   0  0  0  0  0  0  0  0  0  0  0  0
   12.4030   40.2136   -7.1763 C   0  0  0  0  0  0  0  0  0  0  0  0
   11.0395   39.0770   -5.5496 C   0  0  0  0  0  0  0  0  0  0  0  0
   11.4832   40.2335   -6.0603 N   0  0  0  0  0  0  0  0  0  0  0  0
   11.1809   37.9714   -6.0519 O   0  0  0  0  0  0  0  0  0  0  0  0
   11.1853   41.0908   -5.6786 H   0  0  0  0  0  0  0  0  0  0  0  0
   10.2180   39.3270   -4.5306 O   0  0  0  0  0  0  0  0  0  0  0  0
    9.2662   38.2783   -4.1992 C   0  0  0  0  0  0  0  0  0  0  0  0
    9.2626   37.0391   -1.9921 C   0  0  0  0  0  0  0  0  0  0  0  0
    9.3867   36.9830   -0.5929 C   0  0  0  0  0  0  0  0  0  0  0  0
    9.6585   38.1475    0.1393 C   0  0  0  0  0  0  0  0  0  0  0  0
    9.4100   38.2461   -2.6701 C   0  0  0  0  0  0  0  0  0  0  0  0
    9.8332   39.3621   -0.5465 C   0  0  0  0  0  0  0  0  0  0  0  0
    9.6952   39.4110   -1.9311 C   0  0  0  0  0  0  0  0  0  0  0  0
 30 29  2  0  0  0
 30 31  1  0  0  0
 29 32  1  0  0  0
 31 33  2  0  0  0
 32 28  1  0  0  0
 32 34  2  0  0  0
 33 34  1  0  0  0
 28 27  1  0  0  0
 27 23  1  0  0  0
 23 25  2  0  0  0
 23 24  1  0  0  0
 24 22  1  0  0  0
 22  2  1  0  0  0
  1  2  2  0  0  0
  3  2  1  0  0  0
  2  5  1  0  0  0
 17 15  1  0  0  0
 12 10  1  0  0  0
 12 13  1  0  0  0
  5  7  1  0  0  0
 10  8  1  0  0  0
  9  8  2  0  0  0
  8  7  1  0  0  0
 16 15  1  0  0  0
  7 18  1  0  0  0
 15 13  1  0  0  0
 13 14  1  0  0  0
 18 19  1  0  0  0
 20 19  1  0  0  0
 19 21  1  0  0  0
  5  6  1  0  0  0
 10 11  1  0  0  0
  3  4  1  0  0  0
 24 26  1  0  0  0
M  END
> <minimizedAffinity>
-7.16090

$$$$
5JT9_7AF_E_412


 34 34  0  0  0  0  0  0  0  0999 V2000
    8.9965   44.9937   -4.6988 O   0  0  0  0  0  0  0  0  0  0  0  0
    7.8597   44.7501   -5.6635 P   0  0  0  0  0  0  0  0  0  0  0  0
    6.6934   45.6682   -5.4627 O   0  0  0  0  0  0  0  0  0  0  0  0
    6.9889   46.5886   -5.5426 H   0  0  0  0  0  0  0  0  0  0  0  0
    7.3690   43.0312   -5.5261 N   0  0  0  0  0  0  0  0  0  0  0  0
    7.9588   42.4942   -6.1618 H   0  0  0  0  0  0  0  0  0  0  0  0
    7.4585   42.4117   -4.2301 C   0  0  0  0  0  0  0  0  0  0  0  0
    8.4668   41.2918   -4.1938 C   0  0  0  0  0  0  0  0  0  0  0  0
    9.4473   41.3256   -4.9367 O   0  0  0  0  0  0  0  0  0  0  0  0
    8.2402   40.3021   -3.3153 N   0  0  0  0  0  0  0  0  0  0  0  0
    7.4388   40.3382   -2.7447 H   0  0  0  0  0  0  0  0  0  0  0  0
    9.1549   39.1766   -3.1891 C   0  0  0  0  0  0  0  0  0  0  0  0
    9.8760   39.1333   -1.8216 C   0  0  0  0  0  0  0  0  0  0  0  0
    9.7224   40.4901   -1.0897 C   0  0  0  0  0  0  0  0  0  0  0  0
    9.2588   38.0149   -0.9341 C   0  0  0  0  0  0  0  0  0  0  0  0
    9.8849   36.6552   -1.3140 C   0  0  0  0  0  0  0  0  0  0  0  0
    9.5130   38.2041    0.5919 C   0  0  0  0  0  0  0  0  0  0  0  0
    6.0464   41.8403   -4.0300 C   0  0  0  0  0  0  0  0  0  0  0  0
    4.9831   42.9126   -3.6951 C   0  0  0  0  0  0  0  0  0  0  0  0
    3.6349   42.2676   -3.3457 C   0  0  0  0  0  0  0  0  0  0  0  0
    5.4895   43.8062   -2.5451 C   0  0  0  0  0  0  0  0  0  0  0  0
    8.4746   44.8711   -7.3758 C   0  0  0  0  0  0  0  0  0  0  0  0
    9.8497   43.5438   -8.8401 C   0  0  0  0  0  0  0  0  0  0  0  0
    9.5473   43.9252   -7.5918 N   0  0  0  0  0  0  0  0  0  0  0  0
    9.1812   43.7672   -9.8390 O   0  0  0  0  0  0  0  0  0  0  0  0
   10.0516   43.5643   -6.8272 H   0  0  0  0  0  0  0  0  0  0  0  0
   10.8671   42.6838   -8.8081 O   0  0  0  0  0  0  0  0  0  0  0  0
   11.2303   42.1651   -7.4987 C   0  0  0  0  0  0  0  0  0  0  0  0
   12.5579   40.7140   -9.0920 C   0  0  0  0  0  0  0  0  0  0  0  0
   13.1341   39.4920   -9.4805 C   0  0  0  0  0  0  0  0  0  0  0  0
   13.0014   38.3581   -8.6663 C   0  0  0  0  0  0  0  0  0  0  0  0
   11.8520   40.8179   -7.8966 C   0  0  0  0  0  0  0  0  0  0  0  0
   12.3111   38.4681   -7.4467 C   0  0  0  0  0  0  0  0  0  0  0  0
   11.7320   39.6789   -7.0763 C   0  0  0  0  0  0  0  0  0  0  0  0
 30 29  2  0  0  0
 30 31  1  0  0  0
 29 32  1  0  0  0
 31 33  2  0  0  0
 32 28  1  0  0  0
 32 34  2  0  0  0
 33 34  1  0  0  0
 28 27  1  0  0  0
 27 23  1  0  0  0
 23 25  2  0  0  0
 23 24  1  0  0  0
 24 22  1  0  0  0
 22  2  1  0  0  0
  1  2  2  0  0  0
  3  2  1  0  0  0
  2  5  1  0  0  0
 17 15  1  0  0  0
 12 10  1  0  0  0
 12 13  1  0  0  0
  5  7  1  0  0  0
 10  8  1  0  0  0
  9  8  2  0  0  0
  8  7  1  0  0  0
 16 15  1  0  0  0
  7 18  1  0  0  0
 15 13  1  0  0  0
 13 14  1  0  0  0
 18 19  1  0  0  0
 20 19  1  0  0  0
 19 21  1  0  0  0
  5  6  1  0  0  0
 10 11  1  0  0  0
  3  4  1  0  0  0
 24 26  1  0  0  0
M  END
> <minimizedAffinity>
-6.91327

$$$$
5JT9_7AF_E_412


 34 34  0  0  0  0  0  0  0  0999 V2000
   10.7048   41.6988   -8.0797 O   0  0  0  0  0  0  0  0  0  0  0  0
   12.1741   41.5143   -7.7805 P   0  0  0  0  0  0  0  0  0  0  0  0
   12.8273   42.7313   -7.2010 O   0  0  0  0  0  0  0  0  0  0  0  0
   12.3655   42.9900   -6.3882 H   0  0  0  0  0  0  0  0  0  0  0  0
   12.9899   40.9910   -9.2889 N   0  0  0  0  0  0  0  0  0  0  0  0
   12.7249   41.6484  -10.0224 H   0  0  0  0  0  0  0  0  0  0  0  0
   14.4269   40.9136   -9.2798 C   0  0  0  0  0  0  0  0  0  0  0  0
   15.0634   41.8799  -10.2459 C   0  0  0  0  0  0  0  0  0  0  0  0
   14.3940   42.3663  -11.1568 O   0  0  0  0  0  0  0  0  0  0  0  0
   16.3566   42.1768  -10.0407 N   0  0  0  0  0  0  0  0  0  0  0  0
   16.8340   41.7572   -9.2889 H   0  0  0  0  0  0  0  0  0  0  0  0
   17.0675   43.1061  -10.9068 C   0  0  0  0  0  0  0  0  0  0  0  0
   17.2441   44.5071  -10.2759 C   0  0  0  0  0  0  0  0  0  0  0  0
   16.1151   45.4561  -10.7497 C   0  0  0  0  0  0  0  0  0  0  0  0
   17.1873   44.3991   -8.7253 C   0  0  0  0  0  0  0  0  0  0  0  0
   18.3038   45.2706   -8.1096 C   0  0  0  0  0  0  0  0  0  0  0  0
   15.8480   44.8982   -8.1038 C   0  0  0  0  0  0  0  0  0  0  0  0
   14.6910   39.4727   -9.7431 C   0  0  0  0  0  0  0  0  0  0  0  0
   13.5206   38.8514  -10.5411 C   0  0  0  0  0  0  0  0  0  0  0  0
   13.8857   38.6839  -12.0225 C   0  0  0  0  0  0  0  0  0  0  0  0
   13.1176   37.5038   -9.9093 C   0  0  0  0  0  0  0  0  0  0  0  0
   12.3971   40.0853   -6.6703 C   0  0  0  0  0  0  0  0  0  0  0  0
   10.9745   38.5664   -5.4594 C   0  0  0  0  0  0  0  0  0  0  0  0
   11.1600   39.7855   -5.9835 N   0  0  0  0  0  0  0  0  0  0  0  0
   11.6761   37.5858   -5.6613 O   0  0  0  0  0  0  0  0  0  0  0  0
   10.4593   40.4722   -5.9016 H   0  0  0  0  0  0  0  0  0  0  0  0
    9.7810   38.5131   -4.8690 O   0  0  0  0  0  0  0  0  0  0  0  0
    9.4548   39.6142   -3.9766 C   0  0  0  0  0  0  0  0  0  0  0  0
    9.3352   37.5118   -2.5721 C   0  0  0  0  0  0  0  0  0  0  0  0
    9.3660   36.8290   -1.3437 C   0  0  0  0  0  0  0  0  0  0  0  0
    9.5565   37.5355   -0.1476 C   0  0  0  0  0  0  0  0  0  0  0  0
    9.4958   38.8939   -2.6204 C   0  0  0  0  0  0  0  0  0  0  0  0
    9.7447   38.9277   -0.1973 C   0  0  0  0  0  0  0  0  0  0  0  0
    9.6993   39.5975   -1.4171 C   0  0  0  0  0  0  0  0  0  0  0  0
 30 29  2  0  0  0
 30 31  1  0  0  0
 29 32  1  0  0  0
 31 33  2  0  0  0
 32 28  1  0  0  0
 32 34  2  0  0  0
 33 34  1  0  0  0
 28 27  1  0  0  0
 27 23  1  0  0  0
 23 25  2  0  0  0
 23 24  1  0  0  0
 24 22  1  0  0  0
 22  2  1  0  0  0
  1  2  2  0  0  0
  3  2  1  0  0  0
  2  5  1  0  0  0
 17 15  1  0  0  0
 12 10  1  0  0  0
 12 13  1  0  0  0
  5  7  1  0  0  0
 10  8  1  0  0  0
  9  8  2  0  0  0
  8  7  1  0  0  0
 16 15  1  0  0  0
  7 18  1  0  0  0
 15 13  1  0  0  0
 13 14  1  0  0  0
 18 19  1  0  0  0
 20 19  1  0  0  0
 19 21  1  0  0  0
  5  6  1  0  0  0
 10 11  1  0  0  0
  3  4  1  0  0  0
 24 26  1  0  0  0
M  END
> <minimizedAffinity>
-6.84483

$$$$
