3LDQ_3P1_A_401


 37 41  0  0  0  0  0  0  0  0999 V2000
   17.3466   -5.7649   -2.4364 N   0  0  0  0  0  0  0  0  0  0  0  0
   16.1849   -5.7823   -1.7827 C   0  0  0  0  0  0  0  0  0  0  0  0
   15.9777   -5.0074   -0.7357 N   0  0  0  0  0  0  0  0  0  0  0  0
   18.3568   -5.0256   -2.0055 C   0  0  0  0  0  0  0  0  0  0  0  0
   17.0021   -3.4078    0.7809 N   0  0  0  0  0  0  0  0  0  0  0  0
   18.2427   -2.8555    0.8175 C   0  0  0  0  0  0  0  0  0  0  0  0
   18.9522   -3.3538   -0.2408 N   0  0  0  0  0  0  0  0  0  0  0  0
   18.1704   -4.2146   -0.8861 C   0  0  0  0  0  0  0  0  0  0  0  0
   16.9527   -4.2278   -0.2652 C   0  0  0  0  0  0  0  0  0  0  0  0
   19.5544   -5.0680   -2.6518 N   0  0  0  0  0  0  0  0  0  0  0  0
   19.6680   -5.6463   -3.4404 H   0  0  0  0  0  0  0  0  0  0  0  0
   20.3068   -4.5203   -2.3305 H   0  0  0  0  0  0  0  0  0  0  0  0
   15.8907   -3.1918    1.7279 C   0  0  0  0  0  0  0  0  0  0  0  0
   15.7338   -1.7878    2.0148 O   0  0  0  0  0  0  0  0  0  0  0  0
   15.1248   -1.7032    3.3682 C   0  0  0  0  0  0  0  0  0  0  0  0
   15.2559   -3.1217    3.9971 C   0  0  0  0  0  0  0  0  0  0  0  0
   16.1990   -3.8262    3.0768 C   0  0  0  0  0  0  0  0  0  0  0  0
   13.9513   -3.7742    3.9907 O   0  0  0  0  0  0  0  0  0  0  0  0
   15.9143   -5.2472    3.0365 O   0  0  0  0  0  0  0  0  0  0  0  0
   13.6070   -3.7996    3.0842 H   0  0  0  0  0  0  0  0  0  0  0  0
   14.9915   -5.3847    2.7711 H   0  0  0  0  0  0  0  0  0  0  0  0
   15.9596   -0.6718    4.1699 C   0  0  0  0  0  0  0  0  0  0  0  0
   16.8850   -0.0253    3.2918 O   0  0  0  0  0  0  0  0  0  0  0  0
   17.4759   -0.6876    2.9005 H   0  0  0  0  0  0  0  0  0  0  0  0
   18.6934   -1.9399    1.7214 N   0  0  0  0  0  0  0  0  0  0  0  0
   18.3081   -1.0340    1.7345 H   0  0  0  0  0  0  0  0  0  0  0  0
   19.7600   -2.3010    2.6838 C   0  0  0  0  0  0  0  0  0  0  0  0
   20.9461   -1.2757    2.5947 C   0  0  0  0  0  0  0  0  0  0  0  0
   21.1047   -0.3406    3.5739 N   0  0  0  0  0  0  0  0  0  0  0  0
   22.9124   -0.4421    1.4830 C   0  0  0  0  0  0  0  0  0  0  0  0
   21.8563   -1.3387    1.5348 C   0  0  0  0  0  0  0  0  0  0  0  0
   23.0615    0.4962    2.4972 C   0  0  0  0  0  0  0  0  0  0  0  0
   22.1392    0.5458    3.5334 C   0  0  0  0  0  0  0  0  0  0  0  0
   22.2733    1.5183    4.5480 C   0  0  0  0  0  0  0  0  0  0  0  0
   23.3352    2.4268    4.5137 C   0  0  0  0  0  0  0  0  0  0  0  0
   24.2501    2.3824    3.4668 C   0  0  0  0  0  0  0  0  0  0  0  0
   24.1215    1.4122    2.4592 C   0  0  0  0  0  0  0  0  0  0  0  0
  2  1  2  0  0  0
  4  1  1  0  0  0
  3  2  1  0  0  0
  9  3  2  0  0  0
  8  4  2  0  0  0
  4 10  1  0  0  0
 13  5  1  0  0  0
  5  6  1  0  0  0
  5  9  1  0  0  0
 25  6  1  0  0  0
  6  7  2  0  0  0
  7  8  1  0  0  0
  9  8  1  0  0  0
 17 13  1  0  0  0
 13 14  1  0  0  0
 15 14  1  0  0  0
 16 15  1  0  0  0
 22 15  1  0  0  0
 18 16  1  0  0  0
 16 17  1  0  0  0
 19 17  1  0  0  0
 25 27  1  0  0  0
 28 27  1  0  0  0
 31 28  2  0  0  0
 28 29  1  0  0  0
 33 29  2  0  0  0
 30 32  2  0  0  0
 30 31  1  0  0  0
 37 32  1  0  0  0
 32 33  1  0  0  0
 33 34  1  0  0  0
 35 34  2  0  0  0
 36 35  1  0  0  0
 37 36  2  0  0  0
 22 23  1  0  0  0
 10 11  1  0  0  0
 10 12  1  0  0  0
 25 26  1  0  0  0
 23 24  1  0  0  0
 18 20  1  0  0  0
 19 21  1  0  0  0
M  END
> <minimizedAffinity>
-8.97077

$$$$
3LDQ_3P1_A_401


 37 41  0  0  0  0  0  0  0  0999 V2000
   17.9515   -5.8355   -2.3830 N   0  0  0  0  0  0  0  0  0  0  0  0
   16.7436   -5.9575   -1.8322 C   0  0  0  0  0  0  0  0  0  0  0  0
   16.3619   -5.1755   -0.8411 N   0  0  0  0  0  0  0  0  0  0  0  0
   18.8348   -4.9769   -1.8983 C   0  0  0  0  0  0  0  0  0  0  0  0
   17.0703   -3.4246    0.6888 N   0  0  0  0  0  0  0  0  0  0  0  0
   18.2373   -2.7396    0.8090 C   0  0  0  0  0  0  0  0  0  0  0  0
   19.0884   -3.1927   -0.1617 N   0  0  0  0  0  0  0  0  0  0  0  0
   18.4634   -4.1543   -0.8349 C   0  0  0  0  0  0  0  0  0  0  0  0
   17.2026   -4.2793   -0.3217 C   0  0  0  0  0  0  0  0  0  0  0  0
   20.0839   -4.9101   -2.4361 N   0  0  0  0  0  0  0  0  0  0  0  0
   20.3288   -5.4985   -3.1865 H   0  0  0  0  0  0  0  0  0  0  0  0
   20.7421   -4.2735   -2.0746 H   0  0  0  0  0  0  0  0  0  0  0  0
   15.8612   -3.2994    1.5260 C   0  0  0  0  0  0  0  0  0  0  0  0
   15.5449   -1.9121    1.7571 O   0  0  0  0  0  0  0  0  0  0  0  0
   14.8090   -1.8604    3.0476 C   0  0  0  0  0  0  0  0  0  0  0  0
   15.0169   -3.2463    3.7264 C   0  0  0  0  0  0  0  0  0  0  0  0
   16.1036   -3.8734    2.9148 C   0  0  0  0  0  0  0  0  0  0  0  0
   13.7868   -4.0234    3.6221 O   0  0  0  0  0  0  0  0  0  0  0  0
   15.9610   -5.3161    2.8902 O   0  0  0  0  0  0  0  0  0  0  0  0
   13.5312   -4.1006    2.6896 H   0  0  0  0  0  0  0  0  0  0  0  0
   15.0838   -5.5485    2.5474 H   0  0  0  0  0  0  0  0  0  0  0  0
   15.4641   -0.7364    3.8907 C   0  0  0  0  0  0  0  0  0  0  0  0
   16.3118    0.0530    3.0518 O   0  0  0  0  0  0  0  0  0  0  0  0
   17.0024   -0.5101    2.6686 H   0  0  0  0  0  0  0  0  0  0  0  0
   18.5052   -1.7510    1.7086 N   0  0  0  0  0  0  0  0  0  0  0  0
   18.2477   -0.8224    1.5069 H   0  0  0  0  0  0  0  0  0  0  0  0
   19.1819   -2.0667    2.9880 C   0  0  0  0  0  0  0  0  0  0  0  0
   20.1476   -0.8982    3.3980 C   0  0  0  0  0  0  0  0  0  0  0  0
   21.4248   -0.8800    2.9219 N   0  0  0  0  0  0  0  0  0  0  0  0
   20.5512    1.1746    4.5544 C   0  0  0  0  0  0  0  0  0  0  0  0
   19.6940    0.1374    4.2211 C   0  0  0  0  0  0  0  0  0  0  0  0
   21.8459    1.1792    4.0495 C   0  0  0  0  0  0  0  0  0  0  0  0
   22.2763    0.1347    3.2428 C   0  0  0  0  0  0  0  0  0  0  0  0
   23.6008    0.1236    2.7542 C   0  0  0  0  0  0  0  0  0  0  0  0
   24.4768    1.1642    3.0765 C   0  0  0  0  0  0  0  0  0  0  0  0
   24.0458    2.2025    3.8958 C   0  0  0  0  0  0  0  0  0  0  0  0
   22.7268    2.2182    4.3787 C   0  0  0  0  0  0  0  0  0  0  0  0
  2  1  2  0  0  0
  4  1  1  0  0  0
  3  2  1  0  0  0
  9  3  2  0  0  0
  8  4  2  0  0  0
  4 10  1  0  0  0
 13  5  1  0  0  0
  5  6  1  0  0  0
  5  9  1  0  0  0
 25  6  1  0  0  0
  6  7  2  0  0  0
  7  8  1  0  0  0
  9  8  1  0  0  0
 17 13  1  0  0  0
 13 14  1  0  0  0
 15 14  1  0  0  0
 16 15  1  0  0  0
 22 15  1  0  0  0
 18 16  1  0  0  0
 16 17  1  0  0  0
 19 17  1  0  0  0
 25 27  1  0  0  0
 28 27  1  0  0  0
 31 28  2  0  0  0
 28 29  1  0  0  0
 33 29  2  0  0  0
 30 32  2  0  0  0
 30 31  1  0  0  0
 37 32  1  0  0  0
 32 33  1  0  0  0
 33 34  1  0  0  0
 35 34  2  0  0  0
 36 35  1  0  0  0
 37 36  2  0  0  0
 22 23  1  0  0  0
 10 11  1  0  0  0
 10 12  1  0  0  0
 25 26  1  0  0  0
 23 24  1  0  0  0
 18 20  1  0  0  0
 19 21  1  0  0  0
M  END
> <minimizedAffinity>
-8.91611

$$$$
3LDQ_3P1_A_401


 37 41  0  0  0  0  0  0  0  0999 V2000
   18.1056   -5.9183   -2.4816 N   0  0  0  0  0  0  0  0  0  0  0  0
   16.8962   -6.0934   -1.9489 C   0  0  0  0  0  0  0  0  0  0  0  0
   16.4613   -5.3219   -0.9716 N   0  0  0  0  0  0  0  0  0  0  0  0
   18.9387   -5.0138   -1.9913 C   0  0  0  0  0  0  0  0  0  0  0  0
   17.0597   -3.5252    0.5522 N   0  0  0  0  0  0  0  0  0  0  0  0
   18.1903   -2.7838    0.6843 C   0  0  0  0  0  0  0  0  0  0  0  0
   19.0780   -3.2039   -0.2684 N   0  0  0  0  0  0  0  0  0  0  0  0
   18.5109   -4.2005   -0.9420 C   0  0  0  0  0  0  0  0  0  0  0  0
   17.2494   -4.3815   -0.4477 C   0  0  0  0  0  0  0  0  0  0  0  0
   20.1917   -4.8917   -2.5099 N   0  0  0  0  0  0  0  0  0  0  0  0
   20.4768   -5.4743   -3.2505 H   0  0  0  0  0  0  0  0  0  0  0  0
   20.8126   -4.2210   -2.1441 H   0  0  0  0  0  0  0  0  0  0  0  0
   15.8324   -3.4509    1.3689 C   0  0  0  0  0  0  0  0  0  0  0  0
   15.4416   -2.0787    1.5745 O   0  0  0  0  0  0  0  0  0  0  0  0
   14.6833   -2.0470    2.8527 C   0  0  0  0  0  0  0  0  0  0  0  0
   14.9514   -3.4106    3.5551 C   0  0  0  0  0  0  0  0  0  0  0  0
   16.0818   -3.9920    2.7696 C   0  0  0  0  0  0  0  0  0  0  0  0
   13.7648   -4.2516    3.4436 O   0  0  0  0  0  0  0  0  0  0  0  0
   16.0140   -5.4403    2.7643 O   0  0  0  0  0  0  0  0  0  0  0  0
   13.5285   -4.3550    2.5085 H   0  0  0  0  0  0  0  0  0  0  0  0
   15.1556   -5.7226    2.4116 H   0  0  0  0  0  0  0  0  0  0  0  0
   15.2661   -0.8789    3.6888 C   0  0  0  0  0  0  0  0  0  0  0  0
   16.4330   -0.3668    3.0396 O   0  0  0  0  0  0  0  0  0  0  0  0
   17.0948   -1.0717    2.9609 H   0  0  0  0  0  0  0  0  0  0  0  0
   18.3958   -1.7753    1.5783 N   0  0  0  0  0  0  0  0  0  0  0  0
   17.7027   -1.0885    1.7096 H   0  0  0  0  0  0  0  0  0  0  0  0
   19.6564   -1.7077    2.3533 C   0  0  0  0  0  0  0  0  0  0  0  0
   19.4785   -2.4071    3.7479 C   0  0  0  0  0  0  0  0  0  0  0  0
   18.5009   -1.9804    4.5968 N   0  0  0  0  0  0  0  0  0  0  0  0
   20.1100   -4.1064    5.3324 C   0  0  0  0  0  0  0  0  0  0  0  0
   20.2954   -3.4836    4.1079 C   0  0  0  0  0  0  0  0  0  0  0  0
   19.1006   -3.6623    6.1781 C   0  0  0  0  0  0  0  0  0  0  0  0
   18.3093   -2.5853    5.8031 C   0  0  0  0  0  0  0  0  0  0  0  0
   17.3035   -2.1146    6.6749 C   0  0  0  0  0  0  0  0  0  0  0  0
   17.0997   -2.7343    7.9113 C   0  0  0  0  0  0  0  0  0  0  0  0
   17.9033   -3.8051    8.2892 C   0  0  0  0  0  0  0  0  0  0  0  0
   18.9011   -4.2783    7.4210 C   0  0  0  0  0  0  0  0  0  0  0  0
  2  1  2  0  0  0
  4  1  1  0  0  0
  3  2  1  0  0  0
  9  3  2  0  0  0
  8  4  2  0  0  0
  4 10  1  0  0  0
 13  5  1  0  0  0
  5  6  1  0  0  0
  5  9  1  0  0  0
 25  6  1  0  0  0
  6  7  2  0  0  0
  7  8  1  0  0  0
  9  8  1  0  0  0
 17 13  1  0  0  0
 13 14  1  0  0  0
 15 14  1  0  0  0
 16 15  1  0  0  0
 22 15  1  0  0  0
 18 16  1  0  0  0
 16 17  1  0  0  0
 19 17  1  0  0  0
 25 27  1  0  0  0
 28 27  1  0  0  0
 31 28  2  0  0  0
 28 29  1  0  0  0
 33 29  2  0  0  0
 30 32  2  0  0  0
 30 31  1  0  0  0
 37 32  1  0  0  0
 32 33  1  0  0  0
 33 34  1  0  0  0
 35 34  2  0  0  0
 36 35  1  0  0  0
 37 36  2  0  0  0
 22 23  1  0  0  0
 10 11  1  0  0  0
 10 12  1  0  0  0
 25 26  1  0  0  0
 23 24  1  0  0  0
 18 20  1  0  0  0
 19 21  1  0  0  0
M  END
> <minimizedAffinity>
-8.85110

$$$$
3LDQ_3P1_A_401


 37 41  0  0  0  0  0  0  0  0999 V2000
   14.0387    3.2789    5.0424 N   0  0  0  0  0  0  0  0  0  0  0  0
   14.1974    2.8769    6.3035 C   0  0  0  0  0  0  0  0  0  0  0  0
   14.5757    1.6454    6.5862 N   0  0  0  0  0  0  0  0  0  0  0  0
   14.1797    2.4297    4.0366 C   0  0  0  0  0  0  0  0  0  0  0  0
   15.0789   -0.5392    5.6469 N   0  0  0  0  0  0  0  0  0  0  0  0
   15.1157   -0.9918    4.3666 C   0  0  0  0  0  0  0  0  0  0  0  0
   14.8074    0.0575    3.5445 N   0  0  0  0  0  0  0  0  0  0  0  0
   14.5568    1.1152    4.3107 C   0  0  0  0  0  0  0  0  0  0  0  0
   14.7501    0.7492    5.6135 C   0  0  0  0  0  0  0  0  0  0  0  0
   13.9539    2.8448    2.7597 N   0  0  0  0  0  0  0  0  0  0  0  0
   13.6884    3.7766    2.5846 H   0  0  0  0  0  0  0  0  0  0  0  0
   14.0562    2.2133    2.0114 H   0  0  0  0  0  0  0  0  0  0  0  0
   15.3201   -1.3095    6.8826 C   0  0  0  0  0  0  0  0  0  0  0  0
   16.2304   -2.3989    6.6323 O   0  0  0  0  0  0  0  0  0  0  0  0
   15.9176   -3.4452    7.6409 C   0  0  0  0  0  0  0  0  0  0  0  0
   14.5479   -3.0527    8.2691 C   0  0  0  0  0  0  0  0  0  0  0  0
   14.0402   -1.9817    7.3592 C   0  0  0  0  0  0  0  0  0  0  0  0
   14.7669   -2.5233    9.6105 O   0  0  0  0  0  0  0  0  0  0  0  0
   13.2199   -1.0333    8.0872 O   0  0  0  0  0  0  0  0  0  0  0  0
   15.3836   -1.7759    9.5664 H   0  0  0  0  0  0  0  0  0  0  0  0
   13.7316   -0.6606    8.8221 H   0  0  0  0  0  0  0  0  0  0  0  0
   15.8007   -4.7862    6.8719 C   0  0  0  0  0  0  0  0  0  0  0  0
   16.1573   -4.5801    5.5023 O   0  0  0  0  0  0  0  0  0  0  0  0
   15.5596   -3.9261    5.1074 H   0  0  0  0  0  0  0  0  0  0  0  0
   15.4382   -2.2539    3.9643 N   0  0  0  0  0  0  0  0  0  0  0  0
   16.1413   -2.7542    4.4381 H   0  0  0  0  0  0  0  0  0  0  0  0
   14.7360   -2.8762    2.8180 C   0  0  0  0  0  0  0  0  0  0  0  0
   15.7678   -3.3155    1.7187 C   0  0  0  0  0  0  0  0  0  0  0  0
   15.3667   -4.1350    0.7059 N   0  0  0  0  0  0  0  0  0  0  0  0
   17.9768   -3.2218    0.7655 C   0  0  0  0  0  0  0  0  0  0  0  0
   17.0841   -2.8446    1.7568 C   0  0  0  0  0  0  0  0  0  0  0  0
   17.5442   -4.0494   -0.2637 C   0  0  0  0  0  0  0  0  0  0  0  0
   16.2355   -4.5122   -0.2742 C   0  0  0  0  0  0  0  0  0  0  0  0
   15.8039   -5.3771   -1.3031 C   0  0  0  0  0  0  0  0  0  0  0  0
   16.6896   -5.7634   -2.3133 C   0  0  0  0  0  0  0  0  0  0  0  0
   18.0039   -5.3080   -2.2922 C   0  0  0  0  0  0  0  0  0  0  0  0
   18.4339   -4.4431   -1.2723 C   0  0  0  0  0  0  0  0  0  0  0  0
  2  1  2  0  0  0
  4  1  1  0  0  0
  3  2  1  0  0  0
  9  3  2  0  0  0
  8  4  2  0  0  0
  4 10  1  0  0  0
 13  5  1  0  0  0
  5  6  1  0  0  0
  5  9  1  0  0  0
 25  6  1  0  0  0
  6  7  2  0  0  0
  7  8  1  0  0  0
  9  8  1  0  0  0
 17 13  1  0  0  0
 13 14  1  0  0  0
 15 14  1  0  0  0
 16 15  1  0  0  0
 22 15  1  0  0  0
 18 16  1  0  0  0
 16 17  1  0  0  0
 19 17  1  0  0  0
 25 27  1  0  0  0
 28 27  1  0  0  0
 31 28  2  0  0  0
 28 29  1  0  0  0
 33 29  2  0  0  0
 30 32  2  0  0  0
 30 31  1  0  0  0
 37 32  1  0  0  0
 32 33  1  0  0  0
 33 34  1  0  0  0
 35 34  2  0  0  0
 36 35  1  0  0  0
 37 36  2  0  0  0
 22 23  1  0  0  0
 10 11  1  0  0  0
 10 12  1  0  0  0
 25 26  1  0  0  0
 23 24  1  0  0  0
 18 20  1  0  0  0
 19 21  1  0  0  0
M  END
> <minimizedAffinity>
-8.79848

$$$$
3LDQ_3P1_A_401


 37 41  0  0  0  0  0  0  0  0999 V2000
   16.6777   -4.9327   -1.9815 N   0  0  0  0  0  0  0  0  0  0  0  0
   17.9461   -4.5523   -1.8281 C   0  0  0  0  0  0  0  0  0  0  0  0
   18.3988   -4.1359   -0.6613 N   0  0  0  0  0  0  0  0  0  0  0  0
   15.8127   -4.8287   -0.9847 C   0  0  0  0  0  0  0  0  0  0  0  0
   17.7820   -3.5974    1.6272 N   0  0  0  0  0  0  0  0  0  0  0  0
   16.6024   -3.6847    2.2955 C   0  0  0  0  0  0  0  0  0  0  0  0
   15.6692   -4.1868    1.4300 N   0  0  0  0  0  0  0  0  0  0  0  0
   16.2614   -4.3690    0.2533 C   0  0  0  0  0  0  0  0  0  0  0  0
   17.5782   -4.0262    0.3848 C   0  0  0  0  0  0  0  0  0  0  0  0
   14.5078   -5.1653   -1.1790 N   0  0  0  0  0  0  0  0  0  0  0  0
   14.2086   -5.4881   -2.0596 H   0  0  0  0  0  0  0  0  0  0  0  0
   13.8635   -5.0860   -0.4389 H   0  0  0  0  0  0  0  0  0  0  0  0
   19.0720   -3.0933    2.1375 C   0  0  0  0  0  0  0  0  0  0  0  0
   19.4878   -3.8435    3.2961 O   0  0  0  0  0  0  0  0  0  0  0  0
   20.3476   -2.9331    4.0971 C   0  0  0  0  0  0  0  0  0  0  0  0
   20.1280   -1.5033    3.5209 C   0  0  0  0  0  0  0  0  0  0  0  0
   18.9335   -1.6622    2.6373 C   0  0  0  0  0  0  0  0  0  0  0  0
   21.2957   -1.1146    2.7379 O   0  0  0  0  0  0  0  0  0  0  0  0
   18.9905   -0.7368    1.5226 O   0  0  0  0  0  0  0  0  0  0  0  0
   21.4546   -1.7746    2.0449 H   0  0  0  0  0  0  0  0  0  0  0  0
   19.8154   -0.8732    1.0310 H   0  0  0  0  0  0  0  0  0  0  0  0
   19.8428   -3.0148    5.5606 C   0  0  0  0  0  0  0  0  0  0  0  0
   18.4239   -3.1942    5.5637 O   0  0  0  0  0  0  0  0  0  0  0  0
   18.0022   -2.4440    5.1161 H   0  0  0  0  0  0  0  0  0  0  0  0
   16.3892   -3.3667    3.6039 N   0  0  0  0  0  0  0  0  0  0  0  0
   17.0060   -3.6992    4.2955 H   0  0  0  0  0  0  0  0  0  0  0  0
   15.2343   -2.5233    3.9904 C   0  0  0  0  0  0  0  0  0  0  0  0
   15.6895   -1.0344    4.1949 C   0  0  0  0  0  0  0  0  0  0  0  0
   16.8717   -0.7701    4.8201 N   0  0  0  0  0  0  0  0  0  0  0  0
   15.3319    1.3254    3.8779 C   0  0  0  0  0  0  0  0  0  0  0  0
   14.9047    0.0172    3.7111 C   0  0  0  0  0  0  0  0  0  0  0  0
   16.5455    1.5720    4.5086 C   0  0  0  0  0  0  0  0  0  0  0  0
   17.3019    0.5121    4.9894 C   0  0  0  0  0  0  0  0  0  0  0  0
   18.5202    0.7636    5.6568 C   0  0  0  0  0  0  0  0  0  0  0  0
   18.9683    2.0765    5.8291 C   0  0  0  0  0  0  0  0  0  0  0  0
   18.2012    3.1368    5.3574 C   0  0  0  0  0  0  0  0  0  0  0  0
   16.9913    2.8884    4.6884 C   0  0  0  0  0  0  0  0  0  0  0  0
  2  1  2  0  0  0
  4  1  1  0  0  0
  3  2  1  0  0  0
  9  3  2  0  0  0
  8  4  2  0  0  0
  4 10  1  0  0  0
 13  5  1  0  0  0
  5  6  1  0  0  0
  5  9  1  0  0  0
 25  6  1  0  0  0
  6  7  2  0  0  0
  7  8  1  0  0  0
  9  8  1  0  0  0
 17 13  1  0  0  0
 13 14  1  0  0  0
 15 14  1  0  0  0
 16 15  1  0  0  0
 22 15  1  0  0  0
 18 16  1  0  0  0
 16 17  1  0  0  0
 19 17  1  0  0  0
 25 27  1  0  0  0
 28 27  1  0  0  0
 31 28  2  0  0  0
 28 29  1  0  0  0
 33 29  2  0  0  0
 30 32  2  0  0  0
 30 31  1  0  0  0
 37 32  1  0  0  0
 32 33  1  0  0  0
 33 34  1  0  0  0
 35 34  2  0  0  0
 36 35  1  0  0  0
 37 36  2  0  0  0
 22 23  1  0  0  0
 10 11  1  0  0  0
 10 12  1  0  0  0
 25 26  1  0  0  0
 23 24  1  0  0  0
 18 20  1  0  0  0
 19 21  1  0  0  0
M  END
> <minimizedAffinity>
-8.77179

$$$$
3LDQ_3P1_A_401


 37 41  0  0  0  0  0  0  0  0999 V2000
   16.3054   -5.5646   -2.1138 N   0  0  0  0  0  0  0  0  0  0  0  0
   15.2409   -5.4045   -1.3274 C   0  0  0  0  0  0  0  0  0  0  0  0
   15.2934   -4.6423   -0.2522 N   0  0  0  0  0  0  0  0  0  0  0  0
   17.4717   -5.0255   -1.7952 C   0  0  0  0  0  0  0  0  0  0  0  0
   16.7481   -3.2963    1.1548 N   0  0  0  0  0  0  0  0  0  0  0  0
   18.0621   -2.9672    1.0520 C   0  0  0  0  0  0  0  0  0  0  0  0
   18.5480   -3.5432   -0.0899 N   0  0  0  0  0  0  0  0  0  0  0  0
   17.5592   -4.2337   -0.6502 C   0  0  0  0  0  0  0  0  0  0  0  0
   16.4370   -4.0588    0.1104 C   0  0  0  0  0  0  0  0  0  0  0  0
   18.5617   -5.2508   -2.5793 N   0  0  0  0  0  0  0  0  0  0  0  0
   18.4816   -5.8124   -3.3840 H   0  0  0  0  0  0  0  0  0  0  0  0
   19.4300   -4.8522   -2.3417 H   0  0  0  0  0  0  0  0  0  0  0  0
   15.8073   -2.9252    2.2299 C   0  0  0  0  0  0  0  0  0  0  0  0
   15.8848   -1.5127    2.5074 O   0  0  0  0  0  0  0  0  0  0  0  0
   15.4708   -1.3418    3.9248 C   0  0  0  0  0  0  0  0  0  0  0  0
   15.4824   -2.7638    4.5592 C   0  0  0  0  0  0  0  0  0  0  0  0
   16.1935   -3.5949    3.5411 C   0  0  0  0  0  0  0  0  0  0  0  0
   14.1097   -3.2268    4.7294 O   0  0  0  0  0  0  0  0  0  0  0  0
   15.7112   -4.9620    3.5641 O   0  0  0  0  0  0  0  0  0  0  0  0
   13.6526   -3.2048    3.8741 H   0  0  0  0  0  0  0  0  0  0  0  0
   14.7520   -4.9689    3.4197 H   0  0  0  0  0  0  0  0  0  0  0  0
   16.5360   -0.4368    4.5953 C   0  0  0  0  0  0  0  0  0  0  0  0
   17.4331    0.0588    3.5977 O   0  0  0  0  0  0  0  0  0  0  0  0
   17.8708   -0.6866    3.1575 H   0  0  0  0  0  0  0  0  0  0  0  0
   18.7663   -2.1746    1.9091 N   0  0  0  0  0  0  0  0  0  0  0  0
   18.3650   -1.3419    2.2478 H   0  0  0  0  0  0  0  0  0  0  0  0
   20.1323   -2.5599    2.3333 C   0  0  0  0  0  0  0  0  0  0  0  0
   20.3824   -2.1325    3.8235 C   0  0  0  0  0  0  0  0  0  0  0  0
   21.4306   -1.3145    4.1240 N   0  0  0  0  0  0  0  0  0  0  0  0
   19.7374   -2.1546    6.1431 C   0  0  0  0  0  0  0  0  0  0  0  0
   19.5176   -2.5604    4.8359 C   0  0  0  0  0  0  0  0  0  0  0  0
   20.8057   -1.3120    6.4258 C   0  0  0  0  0  0  0  0  0  0  0  0
   21.6563   -0.9091    5.4055 C   0  0  0  0  0  0  0  0  0  0  0  0
   22.7592   -0.0773    5.6970 C   0  0  0  0  0  0  0  0  0  0  0  0
   22.9926    0.3451    7.0090 C   0  0  0  0  0  0  0  0  0  0  0  0
   22.1455   -0.0713    8.0308 C   0  0  0  0  0  0  0  0  0  0  0  0
   21.0445   -0.8945    7.7421 C   0  0  0  0  0  0  0  0  0  0  0  0
  2  1  2  0  0  0
  4  1  1  0  0  0
  3  2  1  0  0  0
  9  3  2  0  0  0
  8  4  2  0  0  0
  4 10  1  0  0  0
 13  5  1  0  0  0
  5  6  1  0  0  0
  5  9  1  0  0  0
 25  6  1  0  0  0
  6  7  2  0  0  0
  7  8  1  0  0  0
  9  8  1  0  0  0
 17 13  1  0  0  0
 13 14  1  0  0  0
 15 14  1  0  0  0
 16 15  1  0  0  0
 22 15  1  0  0  0
 18 16  1  0  0  0
 16 17  1  0  0  0
 19 17  1  0  0  0
 25 27  1  0  0  0
 28 27  1  0  0  0
 31 28  2  0  0  0
 28 29  1  0  0  0
 33 29  2  0  0  0
 30 32  2  0  0  0
 30 31  1  0  0  0
 37 32  1  0  0  0
 32 33  1  0  0  0
 33 34  1  0  0  0
 35 34  2  0  0  0
 36 35  1  0  0  0
 37 36  2  0  0  0
 22 23  1  0  0  0
 10 11  1  0  0  0
 10 12  1  0  0  0
 25 26  1  0  0  0
 23 24  1  0  0  0
 18 20  1  0  0  0
 19 21  1  0  0  0
M  END
> <minimizedAffinity>
-8.20791

$$$$
3LDQ_3P1_A_401


 37 41  0  0  0  0  0  0  0  0999 V2000
   16.6609   -6.8056    8.3775 N   0  0  0  0  0  0  0  0  0  0  0  0
   17.9054   -6.3313    8.4354 C   0  0  0  0  0  0  0  0  0  0  0  0
   18.2662   -5.2709    7.7390 N   0  0  0  0  0  0  0  0  0  0  0  0
   15.7691   -6.2728    7.5569 C   0  0  0  0  0  0  0  0  0  0  0  0
   17.5425   -3.6471    6.0815 N   0  0  0  0  0  0  0  0  0  0  0  0
   16.3529   -3.4574    5.4535 C   0  0  0  0  0  0  0  0  0  0  0  0
   15.4788   -4.3994    5.9230 N   0  0  0  0  0  0  0  0  0  0  0  0
   16.1328   -5.1645    6.7921 C   0  0  0  0  0  0  0  0  0  0  0  0
   17.4060   -4.6806    6.9076 C   0  0  0  0  0  0  0  0  0  0  0  0
   14.5211   -6.8097    7.4679 N   0  0  0  0  0  0  0  0  0  0  0  0
   14.2816   -7.5922    8.0153 H   0  0  0  0  0  0  0  0  0  0  0  0
   13.8581   -6.4155    6.8561 H   0  0  0  0  0  0  0  0  0  0  0  0
   18.7945   -2.8895    5.8888 C   0  0  0  0  0  0  0  0  0  0  0  0
   18.5107   -1.5216    5.5334 O   0  0  0  0  0  0  0  0  0  0  0  0
   19.6789   -1.0425    4.7489 C   0  0  0  0  0  0  0  0  0  0  0  0
   20.5016   -2.3091    4.3701 C   0  0  0  0  0  0  0  0  0  0  0  0
   19.5810   -3.4371    4.7061 C   0  0  0  0  0  0  0  0  0  0  0  0
   21.7040   -2.3670    5.1940 O   0  0  0  0  0  0  0  0  0  0  0  0
   20.3305   -4.6119    5.1065 O   0  0  0  0  0  0  0  0  0  0  0  0
   21.4547   -2.3519    6.1313 H   0  0  0  0  0  0  0  0  0  0  0  0
   20.9055   -4.3889    5.8552 H   0  0  0  0  0  0  0  0  0  0  0  0
   19.1133   -0.3592    3.4775 C   0  0  0  0  0  0  0  0  0  0  0  0
   17.7696    0.0641    3.7244 O   0  0  0  0  0  0  0  0  0  0  0  0
   17.2242   -0.7059    3.9492 H   0  0  0  0  0  0  0  0  0  0  0  0
   16.0645   -2.4819    4.5458 N   0  0  0  0  0  0  0  0  0  0  0  0
   16.4643   -1.5876    4.6444 H   0  0  0  0  0  0  0  0  0  0  0  0
   15.1528   -2.7606    3.4120 C   0  0  0  0  0  0  0  0  0  0  0  0
   15.9675   -3.2616    2.1665 C   0  0  0  0  0  0  0  0  0  0  0  0
   15.3267   -3.9281    1.1648 N   0  0  0  0  0  0  0  0  0  0  0  0
   18.0381   -3.4268    0.9491 C   0  0  0  0  0  0  0  0  0  0  0  0
   17.3375   -2.9993    2.0663 C   0  0  0  0  0  0  0  0  0  0  0  0
   17.3632   -4.0951   -0.0653 C   0  0  0  0  0  0  0  0  0  0  0  0
   16.0052   -4.3529    0.0618 C   0  0  0  0  0  0  0  0  0  0  0  0
   15.3254   -5.0583   -0.9548 C   0  0  0  0  0  0  0  0  0  0  0  0
   16.0156   -5.4922   -2.0904 C   0  0  0  0  0  0  0  0  0  0  0  0
   17.3792   -5.2434   -2.2082 C   0  0  0  0  0  0  0  0  0  0  0  0
   18.0564   -4.5371   -1.2004 C   0  0  0  0  0  0  0  0  0  0  0  0
  2  1  2  0  0  0
  4  1  1  0  0  0
  3  2  1  0  0  0
  9  3  2  0  0  0
  8  4  2  0  0  0
  4 10  1  0  0  0
 13  5  1  0  0  0
  5  6  1  0  0  0
  5  9  1  0  0  0
 25  6  1  0  0  0
  6  7  2  0  0  0
  7  8  1  0  0  0
  9  8  1  0  0  0
 17 13  1  0  0  0
 13 14  1  0  0  0
 15 14  1  0  0  0
 16 15  1  0  0  0
 22 15  1  0  0  0
 18 16  1  0  0  0
 16 17  1  0  0  0
 19 17  1  0  0  0
 25 27  1  0  0  0
 28 27  1  0  0  0
 31 28  2  0  0  0
 28 29  1  0  0  0
 33 29  2  0  0  0
 30 32  2  0  0  0
 30 31  1  0  0  0
 37 32  1  0  0  0
 32 33  1  0  0  0
 33 34  1  0  0  0
 35 34  2  0  0  0
 36 35  1  0  0  0
 37 36  2  0  0  0
 22 23  1  0  0  0
 10 11  1  0  0  0
 10 12  1  0  0  0
 25 26  1  0  0  0
 23 24  1  0  0  0
 18 20  1  0  0  0
 19 21  1  0  0  0
M  END
> <minimizedAffinity>
-8.15954

$$$$
3LDQ_3P1_A_401


 37 41  0  0  0  0  0  0  0  0999 V2000
   13.2049    2.7240    4.6624 N   0  0  0  0  0  0  0  0  0  0  0  0
   12.9460    1.9029    5.6801 C   0  0  0  0  0  0  0  0  0  0  0  0
   13.6856    0.8334    5.9011 N   0  0  0  0  0  0  0  0  0  0  0  0
   14.1655    2.4472    3.7945 C   0  0  0  0  0  0  0  0  0  0  0  0
   15.5200   -0.5181    5.0549 N   0  0  0  0  0  0  0  0  0  0  0  0
   16.3386   -0.3697    3.9809 C   0  0  0  0  0  0  0  0  0  0  0  0
   15.9811    0.7855    3.3408 N   0  0  0  0  0  0  0  0  0  0  0  0
   14.9472    1.3092    3.9929 C   0  0  0  0  0  0  0  0  0  0  0  0
   14.6787    0.5120    5.0704 C   0  0  0  0  0  0  0  0  0  0  0  0
   14.3746    3.2666    2.7275 N   0  0  0  0  0  0  0  0  0  0  0  0
   13.8131    4.0657    2.6031 H   0  0  0  0  0  0  0  0  0  0  0  0
   15.0872    3.0601    2.0803 H   0  0  0  0  0  0  0  0  0  0  0  0
   15.5086   -1.6227    6.0339 C   0  0  0  0  0  0  0  0  0  0  0  0
   16.6401   -1.5258    6.9219 O   0  0  0  0  0  0  0  0  0  0  0  0
   16.9285   -2.9089    7.3839 C   0  0  0  0  0  0  0  0  0  0  0  0
   16.1256   -3.8599    6.4482 C   0  0  0  0  0  0  0  0  0  0  0  0
   15.6828   -2.9646    5.3368 C   0  0  0  0  0  0  0  0  0  0  0  0
   14.9733   -4.3870    7.1708 O   0  0  0  0  0  0  0  0  0  0  0  0
   14.4163   -3.4106    4.7896 O   0  0  0  0  0  0  0  0  0  0  0  0
   14.4357   -3.6511    7.5031 H   0  0  0  0  0  0  0  0  0  0  0  0
   13.7543   -3.4504    5.4975 H   0  0  0  0  0  0  0  0  0  0  0  0
   18.4528   -3.1298    7.2080 C   0  0  0  0  0  0  0  0  0  0  0  0
   18.8962   -4.1316    8.1274 O   0  0  0  0  0  0  0  0  0  0  0  0
   18.7126   -3.8418    9.0347 H   0  0  0  0  0  0  0  0  0  0  0  0
   17.3591   -1.1992    3.6217 N   0  0  0  0  0  0  0  0  0  0  0  0
   17.6859   -1.8770    4.2566 H   0  0  0  0  0  0  0  0  0  0  0  0
   17.9790   -1.0858    2.2811 C   0  0  0  0  0  0  0  0  0  0  0  0
   17.5456   -2.2930    1.3751 C   0  0  0  0  0  0  0  0  0  0  0  0
   18.4059   -2.7719    0.4323 N   0  0  0  0  0  0  0  0  0  0  0  0
   15.9388   -3.9779    0.7619 C   0  0  0  0  0  0  0  0  0  0  0  0
   16.2971   -2.8975    1.5531 C   0  0  0  0  0  0  0  0  0  0  0  0
   16.8351   -4.4569   -0.1860 C   0  0  0  0  0  0  0  0  0  0  0  0
   18.0644   -3.8337   -0.3511 C   0  0  0  0  0  0  0  0  0  0  0  0
   18.9631   -4.3011   -1.3345 C   0  0  0  0  0  0  0  0  0  0  0  0
   18.6197   -5.3926   -2.1374 C   0  0  0  0  0  0  0  0  0  0  0  0
   17.3816   -6.0064   -1.9779 C   0  0  0  0  0  0  0  0  0  0  0  0
   16.4881   -5.5462   -0.9965 C   0  0  0  0  0  0  0  0  0  0  0  0
  2  1  2  0  0  0
  4  1  1  0  0  0
  3  2  1  0  0  0
  9  3  2  0  0  0
  8  4  2  0  0  0
  4 10  1  0  0  0
 13  5  1  0  0  0
  5  6  1  0  0  0
  5  9  1  0  0  0
 25  6  1  0  0  0
  6  7  2  0  0  0
  7  8  1  0  0  0
  9  8  1  0  0  0
 17 13  1  0  0  0
 13 14  1  0  0  0
 15 14  1  0  0  0
 16 15  1  0  0  0
 22 15  1  0  0  0
 18 16  1  0  0  0
 16 17  1  0  0  0
 19 17  1  0  0  0
 25 27  1  0  0  0
 28 27  1  0  0  0
 31 28  2  0  0  0
 28 29  1  0  0  0
 33 29  2  0  0  0
 30 32  2  0  0  0
 30 31  1  0  0  0
 37 32  1  0  0  0
 32 33  1  0  0  0
 33 34  1  0  0  0
 35 34  2  0  0  0
 36 35  1  0  0  0
 37 36  2  0  0  0
 22 23  1  0  0  0
 10 11  1  0  0  0
 10 12  1  0  0  0
 25 26  1  0  0  0
 23 24  1  0  0  0
 18 20  1  0  0  0
 19 21  1  0  0  0
M  END
> <minimizedAffinity>
-8.13890

$$$$
3LDQ_3P1_A_401


 37 41  0  0  0  0  0  0  0  0999 V2000
   20.0093    2.2242    5.1562 N   0  0  0  0  0  0  0  0  0  0  0  0
   18.7853    1.7284    5.3385 C   0  0  0  0  0  0  0  0  0  0  0  0
   18.4660    0.5215    4.9128 N   0  0  0  0  0  0  0  0  0  0  0  0
   20.9196    1.5498    4.4713 C   0  0  0  0  0  0  0  0  0  0  0  0
   19.2503   -1.4147    3.6704 N   0  0  0  0  0  0  0  0  0  0  0  0
   20.4448   -1.6992    3.0891 C   0  0  0  0  0  0  0  0  0  0  0  0
   21.2812   -0.6403    3.3153 N   0  0  0  0  0  0  0  0  0  0  0  0
   20.5991    0.2804    3.9903 C   0  0  0  0  0  0  0  0  0  0  0  0
   19.3471   -0.2125    4.2312 C   0  0  0  0  0  0  0  0  0  0  0  0
   22.1444    2.0993    4.2441 N   0  0  0  0  0  0  0  0  0  0  0  0
   22.3534    2.9966    4.5911 H   0  0  0  0  0  0  0  0  0  0  0  0
   22.8211    1.5994    3.7327 H   0  0  0  0  0  0  0  0  0  0  0  0
   18.0297   -2.2445    3.6751 C   0  0  0  0  0  0  0  0  0  0  0  0
   16.8695   -1.4428    3.3759 O   0  0  0  0  0  0  0  0  0  0  0  0
   15.7146   -2.1225    4.0193 C   0  0  0  0  0  0  0  0  0  0  0  0
   16.3148   -3.1727    4.9998 C   0  0  0  0  0  0  0  0  0  0  0  0
   17.7611   -2.8030    5.0654 C   0  0  0  0  0  0  0  0  0  0  0  0
   16.1528   -4.5076    4.4345 O   0  0  0  0  0  0  0  0  0  0  0  0
   18.5822   -3.9749    5.2994 O   0  0  0  0  0  0  0  0  0  0  0  0
   16.5654   -4.5394    3.5572 H   0  0  0  0  0  0  0  0  0  0  0  0
   18.4153   -4.6306    4.6044 H   0  0  0  0  0  0  0  0  0  0  0  0
   14.9328   -1.0335    4.7980 C   0  0  0  0  0  0  0  0  0  0  0  0
   15.7235   -0.5781    5.8993 O   0  0  0  0  0  0  0  0  0  0  0  0
   15.9164   -1.3237    6.4890 H   0  0  0  0  0  0  0  0  0  0  0  0
   20.7699   -2.8475    2.4302 N   0  0  0  0  0  0  0  0  0  0  0  0
   20.7710   -3.7056    2.9129 H   0  0  0  0  0  0  0  0  0  0  0  0
   21.1216   -2.8108    0.9917 C   0  0  0  0  0  0  0  0  0  0  0  0
   19.9998   -3.5019    0.1373 C   0  0  0  0  0  0  0  0  0  0  0  0
   18.7143   -3.5091    0.5910 N   0  0  0  0  0  0  0  0  0  0  0  0
   19.3020   -4.6645   -1.8522 C   0  0  0  0  0  0  0  0  0  0  0  0
   20.3078   -4.0798   -1.0984 C   0  0  0  0  0  0  0  0  0  0  0  0
   17.9966   -4.6514   -1.3759 C   0  0  0  0  0  0  0  0  0  0  0  0
   17.7174   -4.0809   -0.1416 C   0  0  0  0  0  0  0  0  0  0  0  0
   16.3964   -4.0941    0.3563 C   0  0  0  0  0  0  0  0  0  0  0  0
   15.3693   -4.6751   -0.3932 C   0  0  0  0  0  0  0  0  0  0  0  0
   15.6553   -5.2574   -1.6238 C   0  0  0  0  0  0  0  0  0  0  0  0
   16.9680   -5.2407   -2.1234 C   0  0  0  0  0  0  0  0  0  0  0  0
  2  1  2  0  0  0
  4  1  1  0  0  0
  3  2  1  0  0  0
  9  3  2  0  0  0
  8  4  2  0  0  0
  4 10  1  0  0  0
 13  5  1  0  0  0
  5  6  1  0  0  0
  5  9  1  0  0  0
 25  6  1  0  0  0
  6  7  2  0  0  0
  7  8  1  0  0  0
  9  8  1  0  0  0
 17 13  1  0  0  0
 13 14  1  0  0  0
 15 14  1  0  0  0
 16 15  1  0  0  0
 22 15  1  0  0  0
 18 16  1  0  0  0
 16 17  1  0  0  0
 19 17  1  0  0  0
 25 27  1  0  0  0
 28 27  1  0  0  0
 31 28  2  0  0  0
 28 29  1  0  0  0
 33 29  2  0  0  0
 30 32  2  0  0  0
 30 31  1  0  0  0
 37 32  1  0  0  0
 32 33  1  0  0  0
 33 34  1  0  0  0
 35 34  2  0  0  0
 36 35  1  0  0  0
 37 36  2  0  0  0
 22 23  1  0  0  0
 10 11  1  0  0  0
 10 12  1  0  0  0
 25 26  1  0  0  0
 23 24  1  0  0  0
 18 20  1  0  0  0
 19 21  1  0  0  0
M  END
> <minimizedAffinity>
-8.13721

$$$$
3LDQ_3P1_A_401


 37 41  0  0  0  0  0  0  0  0999 V2000
   24.3689    2.6712    3.0289 N   0  0  0  0  0  0  0  0  0  0  0  0
   23.5536    2.7133    4.0828 C   0  0  0  0  0  0  0  0  0  0  0  0
   22.6515    1.7732    4.2875 N   0  0  0  0  0  0  0  0  0  0  0  0
   24.2442    1.7245    2.1119 C   0  0  0  0  0  0  0  0  0  0  0  0
   21.6373   -0.2354    3.3683 N   0  0  0  0  0  0  0  0  0  0  0  0
   21.8953   -0.9508    2.2426 C   0  0  0  0  0  0  0  0  0  0  0  0
   22.9372   -0.3460    1.5940 N   0  0  0  0  0  0  0  0  0  0  0  0
   23.2820    0.7313    2.2935 C   0  0  0  0  0  0  0  0  0  0  0  0
   22.4907    0.7840    3.4068 C   0  0  0  0  0  0  0  0  0  0  0  0
   25.0466    1.7337    1.0119 N   0  0  0  0  0  0  0  0  0  0  0  0
   25.7205    2.4426    0.9001 H   0  0  0  0  0  0  0  0  0  0  0  0
   24.9529    1.0314    0.3284 H   0  0  0  0  0  0  0  0  0  0  0  0
   20.5889   -0.4876    4.3762 C   0  0  0  0  0  0  0  0  0  0  0  0
   20.2927   -1.8960    4.4593 O   0  0  0  0  0  0  0  0  0  0  0  0
   18.8875   -2.0004    4.9328 C   0  0  0  0  0  0  0  0  0  0  0  0
   18.2696   -0.5785    4.7882 C   0  0  0  0  0  0  0  0  0  0  0  0
   19.2737    0.1565    3.9610 C   0  0  0  0  0  0  0  0  0  0  0  0
   18.1491    0.0311    6.1079 O   0  0  0  0  0  0  0  0  0  0  0  0
   19.2821    1.5675    4.2943 O   0  0  0  0  0  0  0  0  0  0  0  0
   19.0183    0.0453    6.5381 H   0  0  0  0  0  0  0  0  0  0  0  0
   19.4575    1.6747    5.2423 H   0  0  0  0  0  0  0  0  0  0  0  0
   18.1726   -3.0040    3.9920 C   0  0  0  0  0  0  0  0  0  0  0  0
   19.1341   -3.9133    3.4497 O   0  0  0  0  0  0  0  0  0  0  0  0
   19.8013   -3.4179    2.9494 H   0  0  0  0  0  0  0  0  0  0  0  0
   21.2593   -2.0891    1.8448 N   0  0  0  0  0  0  0  0  0  0  0  0
   20.5073   -2.4405    2.3742 H   0  0  0  0  0  0  0  0  0  0  0  0
   21.6937   -2.7999    0.6199 C   0  0  0  0  0  0  0  0  0  0  0  0
   20.4659   -3.4868   -0.0776 C   0  0  0  0  0  0  0  0  0  0  0  0
   19.2252   -3.3730    0.4755 N   0  0  0  0  0  0  0  0  0  0  0  0
   19.5368   -4.7657   -1.8936 C   0  0  0  0  0  0  0  0  0  0  0  0
   20.6346   -4.1855   -1.2773 C   0  0  0  0  0  0  0  0  0  0  0  0
   18.2793   -4.6285   -1.3183 C   0  0  0  0  0  0  0  0  0  0  0  0
   18.1387   -3.9392   -0.1217 C   0  0  0  0  0  0  0  0  0  0  0  0
   16.8660   -3.8252    0.4787 C   0  0  0  0  0  0  0  0  0  0  0  0
   15.7476   -4.4001   -0.1320 C   0  0  0  0  0  0  0  0  0  0  0  0
   15.8945   -5.1013   -1.3244 C   0  0  0  0  0  0  0  0  0  0  0  0
   17.1590   -5.2113   -1.9262 C   0  0  0  0  0  0  0  0  0  0  0  0
  2  1  2  0  0  0
  4  1  1  0  0  0
  3  2  1  0  0  0
  9  3  2  0  0  0
  8  4  2  0  0  0
  4 10  1  0  0  0
 13  5  1  0  0  0
  5  6  1  0  0  0
  5  9  1  0  0  0
 25  6  1  0  0  0
  6  7  2  0  0  0
  7  8  1  0  0  0
  9  8  1  0  0  0
 17 13  1  0  0  0
 13 14  1  0  0  0
 15 14  1  0  0  0
 16 15  1  0  0  0
 22 15  1  0  0  0
 18 16  1  0  0  0
 16 17  1  0  0  0
 19 17  1  0  0  0
 25 27  1  0  0  0
 28 27  1  0  0  0
 31 28  2  0  0  0
 28 29  1  0  0  0
 33 29  2  0  0  0
 30 32  2  0  0  0
 30 31  1  0  0  0
 37 32  1  0  0  0
 32 33  1  0  0  0
 33 34  1  0  0  0
 35 34  2  0  0  0
 36 35  1  0  0  0
 37 36  2  0  0  0
 22 23  1  0  0  0
 10 11  1  0  0  0
 10 12  1  0  0  0
 25 26  1  0  0  0
 23 24  1  0  0  0
 18 20  1  0  0  0
 19 21  1  0  0  0
M  END
> <minimizedAffinity>
-8.11794

$$$$
