3DDG_GB7_A_5001


 24 25  0  0  0  0  0  0  0  0999 V2000
   28.8361   64.6987   10.1841 N   0  0  0  0  0  0  0  0  0  0  0  0
   28.7132   63.9580    9.4937 H   0  0  0  0  0  0  0  0  0  0  0  0
   27.5310   64.9878   10.8071 C   0  0  0  0  0  0  0  0  0  0  0  0
   25.8059   65.0617    9.0243 C   0  0  0  0  0  0  0  0  0  0  0  0
   24.7346   64.5127    8.3477 C   0  0  0  0  0  0  0  0  0  0  0  0
   24.2640   63.2152    8.5252 C   0  0  0  0  0  0  0  0  0  0  0  0
   24.8670   62.5230    9.5632 C   0  0  0  0  0  0  0  0  0  0  0  0
   25.9319   63.0486   10.2943 C   0  0  0  0  0  0  0  0  0  0  0  0
   26.3848   64.3262   10.0495 C   0  0  0  0  0  0  0  0  0  0  0  0
   27.2063   66.4823   10.7153 C   0  0  0  0  0  0  0  0  0  0  0  0
   26.9412   67.0456   11.9894 O   0  0  0  0  0  0  0  0  0  0  0  0
   26.1709   66.6068   12.3830 H   0  0  0  0  0  0  0  0  0  0  0  0
   29.4142   65.8897    9.5095 C   0  0  0  0  0  0  0  0  0  0  0  0
   30.6734   65.6121    8.6641 C   0  0  0  0  0  0  0  0  0  0  0  0
   30.5279   66.3438    7.3891 N   0  0  0  0  0  0  0  0  0  0  0  0
   29.3224   66.1704    6.5552 C   0  0  0  0  0  0  0  0  0  0  0  0
   31.6055   67.0264    7.0097 C   0  0  0  0  0  0  0  0  0  0  0  0
   31.7272   67.6763    5.9780 O   0  0  0  0  0  0  0  0  0  0  0  0
   32.7144   66.7926    8.0288 C   0  0  0  0  0  0  0  0  0  0  0  0
   33.8193   66.1524    7.4110 O   0  0  0  0  0  0  0  0  0  0  0  0
   32.0069   66.1247    9.2072 C   0  0  0  0  0  0  0  0  0  0  0  0
   32.7890   65.1743    9.8876 O   0  0  0  0  0  0  0  0  0  0  0  0
   33.5246   65.3254    6.9985 H   0  0  0  0  0  0  0  0  0  0  0  0
   33.0310   64.4590    9.2787 H   0  0  0  0  0  0  0  0  0  0  0  0
  4  5  2  0  0  0
  4  9  1  0  0  0
  5  6  1  0  0  0
  6  7  2  0  0  0
  7  8  1  0  0  0
  8  9  2  0  0  0
  9  3  1  0  0  0
  3 10  1  0  0  0
  3  1  1  0  0  0
 10 11  1  0  0  0
  1 13  1  0  0  0
 13 14  1  0  0  0
 14 15  1  0  0  0
 14 21  1  0  0  0
 15 16  1  0  0  0
 15 17  1  0  0  0
 17 18  2  0  0  0
 17 19  1  0  0  0
 19 20  1  0  0  0
 19 21  1  0  0  0
 21 22  1  0  0  0
 11 12  1  0  0  0
  1  2  1  0  0  0
 20 23  1  0  0  0
 22 24  1  0  0  0
M  END
> <minimizedAffinity>
-8.95854

$$$$
3DDG_GB7_A_5001


 24 25  0  0  0  0  0  0  0  0999 V2000
   29.0157   64.4342   10.2119 N   0  0  0  0  0  0  0  0  0  0  0  0
   29.9963   64.2673   10.4375 H   0  0  0  0  0  0  0  0  0  0  0  0
   28.8850   65.7848    9.6342 C   0  0  0  0  0  0  0  0  0  0  0  0
   29.8553   66.5227    7.4722 C   0  0  0  0  0  0  0  0  0  0  0  0
   30.9349   66.8208    6.6644 C   0  0  0  0  0  0  0  0  0  0  0  0
   32.2528   66.9108    7.1019 C   0  0  0  0  0  0  0  0  0  0  0  0
   32.4472   66.5302    8.4200 C   0  0  0  0  0  0  0  0  0  0  0  0
   31.3908   66.1915    9.2649 C   0  0  0  0  0  0  0  0  0  0  0  0
   30.0986   66.1572    8.7891 C   0  0  0  0  0  0  0  0  0  0  0  0
   28.8768   66.8474   10.7379 C   0  0  0  0  0  0  0  0  0  0  0  0
   27.7245   67.6712   10.6710 O   0  0  0  0  0  0  0  0  0  0  0  0
   27.7098   68.1382    9.8210 H   0  0  0  0  0  0  0  0  0  0  0  0
   28.2063   64.2693   11.4469 C   0  0  0  0  0  0  0  0  0  0  0  0
   26.9521   63.3863   11.2905 C   0  0  0  0  0  0  0  0  0  0  0  0
   25.7713   64.2729   11.3313 N   0  0  0  0  0  0  0  0  0  0  0  0
   25.5772   65.2168   12.4495 C   0  0  0  0  0  0  0  0  0  0  0  0
   24.8653   64.0421   10.3843 C   0  0  0  0  0  0  0  0  0  0  0  0
   23.7976   64.6266   10.2431 O   0  0  0  0  0  0  0  0  0  0  0  0
   25.3271   62.8554    9.5468 C   0  0  0  0  0  0  0  0  0  0  0  0
   24.3965   61.7900    9.6534 O   0  0  0  0  0  0  0  0  0  0  0  0
   26.7812   62.6429    9.9660 C   0  0  0  0  0  0  0  0  0  0  0  0
   27.1910   61.2976    9.9695 O   0  0  0  0  0  0  0  0  0  0  0  0
   24.2817   61.5532   10.5870 H   0  0  0  0  0  0  0  0  0  0  0  0
   26.6528   60.7973   10.6026 H   0  0  0  0  0  0  0  0  0  0  0  0
  4  5  2  0  0  0
  4  9  1  0  0  0
  5  6  1  0  0  0
  6  7  2  0  0  0
  7  8  1  0  0  0
  8  9  2  0  0  0
  9  3  1  0  0  0
  3 10  1  0  0  0
  3  1  1  0  0  0
 10 11  1  0  0  0
  1 13  1  0  0  0
 13 14  1  0  0  0
 14 15  1  0  0  0
 14 21  1  0  0  0
 15 16  1  0  0  0
 15 17  1  0  0  0
 17 18  2  0  0  0
 17 19  1  0  0  0
 19 20  1  0  0  0
 19 21  1  0  0  0
 21 22  1  0  0  0
 11 12  1  0  0  0
  1  2  1  0  0  0
 20 23  1  0  0  0
 22 24  1  0  0  0
M  END
> <minimizedAffinity>
-8.44627

$$$$
3DDG_GB7_A_5001


 24 25  0  0  0  0  0  0  0  0999 V2000
   29.7431   65.6513   10.9913 N   0  0  0  0  0  0  0  0  0  0  0  0
   30.0364   64.6887   11.1580 H   0  0  0  0  0  0  0  0  0  0  0  0
   28.5206   65.9167   11.7723 C   0  0  0  0  0  0  0  0  0  0  0  0
   29.5765   67.9535   12.7191 C   0  0  0  0  0  0  0  0  0  0  0  0
   29.5151   69.2623   13.1554 C   0  0  0  0  0  0  0  0  0  0  0  0
   28.4182   70.1028   12.9925 C   0  0  0  0  0  0  0  0  0  0  0  0
   27.2932   69.4837   12.4718 C   0  0  0  0  0  0  0  0  0  0  0  0
   27.2990   68.1558   12.0459 C   0  0  0  0  0  0  0  0  0  0  0  0
   28.4268   67.3791   12.1944 C   0  0  0  0  0  0  0  0  0  0  0  0
   28.5539   65.1603   13.1042 C   0  0  0  0  0  0  0  0  0  0  0  0
   29.7280   64.3765   13.2386 O   0  0  0  0  0  0  0  0  0  0  0  0
   29.7576   63.7145   12.5302 H   0  0  0  0  0  0  0  0  0  0  0  0
   29.5319   65.8409    9.5329 C   0  0  0  0  0  0  0  0  0  0  0  0
   30.7741   65.5844    8.6562 C   0  0  0  0  0  0  0  0  0  0  0  0
   30.5827   66.3101    7.3838 N   0  0  0  0  0  0  0  0  0  0  0  0
   29.3597   66.1124    6.5814 C   0  0  0  0  0  0  0  0  0  0  0  0
   31.6375   67.0113    6.9756 C   0  0  0  0  0  0  0  0  0  0  0  0
   31.7209   67.6608    5.9398 O   0  0  0  0  0  0  0  0  0  0  0  0
   32.7762   66.8006    7.9666 C   0  0  0  0  0  0  0  0  0  0  0  0
   33.8766   66.1792    7.3221 O   0  0  0  0  0  0  0  0  0  0  0  0
   32.1114   66.1227    9.1640 C   0  0  0  0  0  0  0  0  0  0  0  0
   32.9279   65.1886    9.8262 O   0  0  0  0  0  0  0  0  0  0  0  0
   33.5868   65.3459    6.9189 H   0  0  0  0  0  0  0  0  0  0  0  0
   33.1674   64.4763    9.2128 H   0  0  0  0  0  0  0  0  0  0  0  0
  4  5  2  0  0  0
  4  9  1  0  0  0
  5  6  1  0  0  0
  6  7  2  0  0  0
  7  8  1  0  0  0
  8  9  2  0  0  0
  9  3  1  0  0  0
  3 10  1  0  0  0
  3  1  1  0  0  0
 10 11  1  0  0  0
  1 13  1  0  0  0
 13 14  1  0  0  0
 14 15  1  0  0  0
 14 21  1  0  0  0
 15 16  1  0  0  0
 15 17  1  0  0  0
 17 18  2  0  0  0
 17 19  1  0  0  0
 19 20  1  0  0  0
 19 21  1  0  0  0
 21 22  1  0  0  0
 11 12  1  0  0  0
  1  2  1  0  0  0
 20 23  1  0  0  0
 22 24  1  0  0  0
M  END
> <minimizedAffinity>
-8.40632

$$$$
3DDG_GB7_A_5001


 24 25  0  0  0  0  0  0  0  0999 V2000
   29.5856   65.2910   11.0474 N   0  0  0  0  0  0  0  0  0  0  0  0
   30.1799   64.4650   10.9770 H   0  0  0  0  0  0  0  0  0  0  0  0
   28.2415   64.8723   11.4869 C   0  0  0  0  0  0  0  0  0  0  0  0
   28.8643   66.0258   13.5944 C   0  0  0  0  0  0  0  0  0  0  0  0
   28.7464   66.2114   14.9577 C   0  0  0  0  0  0  0  0  0  0  0  0
   27.7741   65.6198   15.7583 C   0  0  0  0  0  0  0  0  0  0  0  0
   26.9854   64.6850   15.1071 C   0  0  0  0  0  0  0  0  0  0  0  0
   27.0893   64.4415   13.7380 C   0  0  0  0  0  0  0  0  0  0  0  0
   28.0451   65.0860   12.9840 C   0  0  0  0  0  0  0  0  0  0  0  0
   28.0616   63.3607   11.3136 C   0  0  0  0  0  0  0  0  0  0  0  0
   27.1485   63.0521   10.2734 O   0  0  0  0  0  0  0  0  0  0  0  0
   26.2782   63.4236   10.4864 H   0  0  0  0  0  0  0  0  0  0  0  0
   29.5592   65.9747    9.7285 C   0  0  0  0  0  0  0  0  0  0  0  0
   30.7543   65.6586    8.8071 C   0  0  0  0  0  0  0  0  0  0  0  0
   30.5432   66.3797    7.5352 N   0  0  0  0  0  0  0  0  0  0  0  0
   29.2825   66.2255    6.7831 C   0  0  0  0  0  0  0  0  0  0  0  0
   31.6090   67.0326    7.0786 C   0  0  0  0  0  0  0  0  0  0  0  0
   31.6782   67.6683    6.0333 O   0  0  0  0  0  0  0  0  0  0  0  0
   32.7761   66.7840    8.0268 C   0  0  0  0  0  0  0  0  0  0  0  0
   33.8239   66.1115    7.3469 O   0  0  0  0  0  0  0  0  0  0  0  0
   32.1316   66.1457    9.2566 C   0  0  0  0  0  0  0  0  0  0  0  0
   32.9344   65.1847    9.8967 O   0  0  0  0  0  0  0  0  0  0  0  0
   33.4844   65.2872    6.9645 H   0  0  0  0  0  0  0  0  0  0  0  0
   33.1201   64.4574    9.2823 H   0  0  0  0  0  0  0  0  0  0  0  0
  4  5  2  0  0  0
  4  9  1  0  0  0
  5  6  1  0  0  0
  6  7  2  0  0  0
  7  8  1  0  0  0
  8  9  2  0  0  0
  9  3  1  0  0  0
  3 10  1  0  0  0
  3  1  1  0  0  0
 10 11  1  0  0  0
  1 13  1  0  0  0
 13 14  1  0  0  0
 14 15  1  0  0  0
 14 21  1  0  0  0
 15 16  1  0  0  0
 15 17  1  0  0  0
 17 18  2  0  0  0
 17 19  1  0  0  0
 19 20  1  0  0  0
 19 21  1  0  0  0
 21 22  1  0  0  0
 11 12  1  0  0  0
  1  2  1  0  0  0
 20 23  1  0  0  0
 22 24  1  0  0  0
M  END
> <minimizedAffinity>
-8.34689

$$$$
3DDG_GB7_A_5001


 24 25  0  0  0  0  0  0  0  0999 V2000
   29.5966   66.5583   11.1799 N   0  0  0  0  0  0  0  0  0  0  0  0
   30.2056   67.3475   10.9637 H   0  0  0  0  0  0  0  0  0  0  0  0
   29.3896   65.7684    9.9518 C   0  0  0  0  0  0  0  0  0  0  0  0
   31.6992   66.2524    9.1828 C   0  0  0  0  0  0  0  0  0  0  0  0
   32.5958   66.6687    8.2185 C   0  0  0  0  0  0  0  0  0  0  0  0
   32.2756   66.9023    6.8847 C   0  0  0  0  0  0  0  0  0  0  0  0
   30.9221   66.8267    6.5976 C   0  0  0  0  0  0  0  0  0  0  0  0
   29.9761   66.4404    7.5466 C   0  0  0  0  0  0  0  0  0  0  0  0
   30.3545   66.1816    8.8456 C   0  0  0  0  0  0  0  0  0  0  0  0
   28.0100   66.0547    9.3499 C   0  0  0  0  0  0  0  0  0  0  0  0
   27.2133   64.8842    9.2721 O   0  0  0  0  0  0  0  0  0  0  0  0
   27.6488   64.2342    8.6988 H   0  0  0  0  0  0  0  0  0  0  0  0
   28.3209   67.0776   11.7372 C   0  0  0  0  0  0  0  0  0  0  0  0
   27.8021   66.3304   12.9821 C   0  0  0  0  0  0  0  0  0  0  0  0
   26.5768   65.6038   12.5910 N   0  0  0  0  0  0  0  0  0  0  0  0
   25.4594   66.3112   11.9354 C   0  0  0  0  0  0  0  0  0  0  0  0
   26.5198   64.3402   13.0043 C   0  0  0  0  0  0  0  0  0  0  0  0
   25.5915   63.5599   12.8279 O   0  0  0  0  0  0  0  0  0  0  0  0
   27.7680   64.0390   13.8254 C   0  0  0  0  0  0  0  0  0  0  0  0
   27.4091   63.7089   15.1576 O   0  0  0  0  0  0  0  0  0  0  0  0
   28.6905   65.2271   13.5560 C   0  0  0  0  0  0  0  0  0  0  0  0
   29.4873   65.6006   14.6531 O   0  0  0  0  0  0  0  0  0  0  0  0
   26.8878   64.4318   15.5405 H   0  0  0  0  0  0  0  0  0  0  0  0
   28.9170   65.8651   15.3917 H   0  0  0  0  0  0  0  0  0  0  0  0
  4  5  2  0  0  0
  4  9  1  0  0  0
  5  6  1  0  0  0
  6  7  2  0  0  0
  7  8  1  0  0  0
  8  9  2  0  0  0
  9  3  1  0  0  0
  3 10  1  0  0  0
  3  1  1  0  0  0
 10 11  1  0  0  0
  1 13  1  0  0  0
 13 14  1  0  0  0
 14 15  1  0  0  0
 14 21  1  0  0  0
 15 16  1  0  0  0
 15 17  1  0  0  0
 17 18  2  0  0  0
 17 19  1  0  0  0
 19 20  1  0  0  0
 19 21  1  0  0  0
 21 22  1  0  0  0
 11 12  1  0  0  0
  1  2  1  0  0  0
 20 23  1  0  0  0
 22 24  1  0  0  0
M  END
> <minimizedAffinity>
-7.91500

$$$$
3DDG_GB7_A_5001


 24 25  0  0  0  0  0  0  0  0999 V2000
   27.4947   65.7032    9.0148 N   0  0  0  0  0  0  0  0  0  0  0  0
   27.4226   64.7034    9.2034 H   0  0  0  0  0  0  0  0  0  0  0  0
   28.7160   66.2208    9.6594 C   0  0  0  0  0  0  0  0  0  0  0  0
   31.1371   66.3576    9.1306 C   0  0  0  0  0  0  0  0  0  0  0  0
   32.1769   66.5977    8.2543 C   0  0  0  0  0  0  0  0  0  0  0  0
   32.0317   66.7917    6.8841 C   0  0  0  0  0  0  0  0  0  0  0  0
   30.7176   66.8741    6.4522 C   0  0  0  0  0  0  0  0  0  0  0  0
   29.6347   66.6691    7.3066 C   0  0  0  0  0  0  0  0  0  0  0  0
   29.8375   66.4406    8.6498 C   0  0  0  0  0  0  0  0  0  0  0  0
   29.3002   65.1838   10.6242 C   0  0  0  0  0  0  0  0  0  0  0  0
   28.8578   63.8709   10.3216 O   0  0  0  0  0  0  0  0  0  0  0  0
   27.8922   63.8284   10.4026 H   0  0  0  0  0  0  0  0  0  0  0  0
   26.2667   66.3737    9.5147 C   0  0  0  0  0  0  0  0  0  0  0  0
   25.3719   65.5033   10.4197 C   0  0  0  0  0  0  0  0  0  0  0  0
   25.0887   64.2471    9.6958 N   0  0  0  0  0  0  0  0  0  0  0  0
   24.5333   64.2753    8.3285 C   0  0  0  0  0  0  0  0  0  0  0  0
   25.2343   63.1396   10.4191 C   0  0  0  0  0  0  0  0  0  0  0  0
   25.0234   61.9930   10.0416 O   0  0  0  0  0  0  0  0  0  0  0  0
   25.6193   63.5327   11.8405 C   0  0  0  0  0  0  0  0  0  0  0  0
   24.6210   63.1055   12.7533 O   0  0  0  0  0  0  0  0  0  0  0  0
   25.9741   65.0155   11.7370 C   0  0  0  0  0  0  0  0  0  0  0  0
   25.6362   65.7713   12.8738 O   0  0  0  0  0  0  0  0  0  0  0  0
   23.7640   63.4777   12.4928 H   0  0  0  0  0  0  0  0  0  0  0  0
   24.6771   65.7335   13.0139 H   0  0  0  0  0  0  0  0  0  0  0  0
  4  5  2  0  0  0
  4  9  1  0  0  0
  5  6  1  0  0  0
  6  7  2  0  0  0
  7  8  1  0  0  0
  8  9  2  0  0  0
  9  3  1  0  0  0
  3 10  1  0  0  0
  3  1  1  0  0  0
 10 11  1  0  0  0
  1 13  1  0  0  0
 13 14  1  0  0  0
 14 15  1  0  0  0
 14 21  1  0  0  0
 15 16  1  0  0  0
 15 17  1  0  0  0
 17 18  2  0  0  0
 17 19  1  0  0  0
 19 20  1  0  0  0
 19 21  1  0  0  0
 21 22  1  0  0  0
 11 12  1  0  0  0
  1  2  1  0  0  0
 20 23  1  0  0  0
 22 24  1  0  0  0
M  END
> <minimizedAffinity>
-7.76075

$$$$
3DDG_GB7_A_5001


 24 25  0  0  0  0  0  0  0  0999 V2000
   28.2251   66.8876    9.9700 N   0  0  0  0  0  0  0  0  0  0  0  0
   28.1991   67.8607    9.6653 H   0  0  0  0  0  0  0  0  0  0  0  0
   28.6067   66.0416    8.8239 C   0  0  0  0  0  0  0  0  0  0  0  0
   31.0430   66.1123    9.2923 C   0  0  0  0  0  0  0  0  0  0  0  0
   32.3422   66.4026    8.9253 C   0  0  0  0  0  0  0  0  0  0  0  0
   32.7416   66.7723    7.6447 C   0  0  0  0  0  0  0  0  0  0  0  0
   31.6991   66.9781    6.7553 C   0  0  0  0  0  0  0  0  0  0  0  0
   30.3689   66.7276    7.0905 C   0  0  0  0  0  0  0  0  0  0  0  0
   30.0329   66.3240    8.3639 C   0  0  0  0  0  0  0  0  0  0  0  0
   27.7591   66.3817    7.5938 C   0  0  0  0  0  0  0  0  0  0  0  0
   26.7831   65.3868    7.3319 O   0  0  0  0  0  0  0  0  0  0  0  0
   27.2234   64.5410    7.1539 H   0  0  0  0  0  0  0  0  0  0  0  0
   26.8939   66.5234   10.5203 C   0  0  0  0  0  0  0  0  0  0  0  0
   26.8996   65.3410   11.5098 C   0  0  0  0  0  0  0  0  0  0  0  0
   26.5952   64.1144   10.7450 N   0  0  0  0  0  0  0  0  0  0  0  0
   25.3946   64.0396    9.8895 C   0  0  0  0  0  0  0  0  0  0  0  0
   27.3894   63.0796   11.0079 C   0  0  0  0  0  0  0  0  0  0  0  0
   27.3051   61.9578   10.5220 O   0  0  0  0  0  0  0  0  0  0  0  0
   28.3771   63.4869   12.0949 C   0  0  0  0  0  0  0  0  0  0  0  0
   28.1923   62.6836   13.2494 O   0  0  0  0  0  0  0  0  0  0  0  0
   28.2265   65.0047   12.1896 C   0  0  0  0  0  0  0  0  0  0  0  0
   28.3903   65.5219   13.4871 O   0  0  0  0  0  0  0  0  0  0  0  0
   27.2725   62.7547   13.5490 H   0  0  0  0  0  0  0  0  0  0  0  0
   27.7134   65.1475   14.0723 H   0  0  0  0  0  0  0  0  0  0  0  0
  4  5  2  0  0  0
  4  9  1  0  0  0
  5  6  1  0  0  0
  6  7  2  0  0  0
  7  8  1  0  0  0
  8  9  2  0  0  0
  9  3  1  0  0  0
  3 10  1  0  0  0
  3  1  1  0  0  0
 10 11  1  0  0  0
  1 13  1  0  0  0
 13 14  1  0  0  0
 14 15  1  0  0  0
 14 21  1  0  0  0
 15 16  1  0  0  0
 15 17  1  0  0  0
 17 18  2  0  0  0
 17 19  1  0  0  0
 19 20  1  0  0  0
 19 21  1  0  0  0
 21 22  1  0  0  0
 11 12  1  0  0  0
  1  2  1  0  0  0
 20 23  1  0  0  0
 22 24  1  0  0  0
M  END
> <minimizedAffinity>
-7.72003

$$$$
3DDG_GB7_A_5001


 24 25  0  0  0  0  0  0  0  0999 V2000
   29.9791   66.6090   11.2909 N   0  0  0  0  0  0  0  0  0  0  0  0
   30.3049   67.5110   10.9436 H   0  0  0  0  0  0  0  0  0  0  0  0
   29.6405   65.7515   10.1398 C   0  0  0  0  0  0  0  0  0  0  0  0
   31.7719   66.3365    9.0106 C   0  0  0  0  0  0  0  0  0  0  0  0
   32.4849   66.7575    7.9054 C   0  0  0  0  0  0  0  0  0  0  0  0
   31.9550   66.9030    6.6270 C   0  0  0  0  0  0  0  0  0  0  0  0
   30.5822   66.7301    6.5517 C   0  0  0  0  0  0  0  0  0  0  0  0
   29.8162   66.3352    7.6480 C   0  0  0  0  0  0  0  0  0  0  0  0
   30.4000   66.1663    8.8842 C   0  0  0  0  0  0  0  0  0  0  0  0
   28.1708   65.9299    9.7455 C   0  0  0  0  0  0  0  0  0  0  0  0
   27.4398   64.7209    9.8668 O   0  0  0  0  0  0  0  0  0  0  0  0
   27.8184   64.0532    9.2738 H   0  0  0  0  0  0  0  0  0  0  0  0
   28.8156   66.8338   12.1872 C   0  0  0  0  0  0  0  0  0  0  0  0
   28.6403   65.7837   13.3025 C   0  0  0  0  0  0  0  0  0  0  0  0
   28.8131   66.4721   14.5980 N   0  0  0  0  0  0  0  0  0  0  0  0
   30.0176   67.2826   14.8646 C   0  0  0  0  0  0  0  0  0  0  0  0
   27.8922   66.1811   15.5135 C   0  0  0  0  0  0  0  0  0  0  0  0
   27.8522   66.6039   16.6630 O   0  0  0  0  0  0  0  0  0  0  0  0
   26.9333   65.1502   14.9298 C   0  0  0  0  0  0  0  0  0  0  0  0
   26.9887   63.9493   15.6829 O   0  0  0  0  0  0  0  0  0  0  0  0
   27.2649   65.1310   13.4382 C   0  0  0  0  0  0  0  0  0  0  0  0
   27.1313   63.8688   12.8325 O   0  0  0  0  0  0  0  0  0  0  0  0
   27.9021   63.6239   15.7059 H   0  0  0  0  0  0  0  0  0  0  0  0
   27.7421   63.2427   13.2518 H   0  0  0  0  0  0  0  0  0  0  0  0
  4  5  2  0  0  0
  4  9  1  0  0  0
  5  6  1  0  0  0
  6  7  2  0  0  0
  7  8  1  0  0  0
  8  9  2  0  0  0
  9  3  1  0  0  0
  3 10  1  0  0  0
  3  1  1  0  0  0
 10 11  1  0  0  0
  1 13  1  0  0  0
 13 14  1  0  0  0
 14 15  1  0  0  0
 14 21  1  0  0  0
 15 16  1  0  0  0
 15 17  1  0  0  0
 17 18  2  0  0  0
 17 19  1  0  0  0
 19 20  1  0  0  0
 19 21  1  0  0  0
 21 22  1  0  0  0
 11 12  1  0  0  0
  1  2  1  0  0  0
 20 23  1  0  0  0
 22 24  1  0  0  0
M  END
> <minimizedAffinity>
-7.50176

$$$$
3DDG_GB7_A_5001


 24 25  0  0  0  0  0  0  0  0999 V2000
   28.9933   64.6124   10.4095 N   0  0  0  0  0  0  0  0  0  0  0  0
   29.4124   64.6529   11.3386 H   0  0  0  0  0  0  0  0  0  0  0  0
   28.9306   65.9784    9.8573 C   0  0  0  0  0  0  0  0  0  0  0  0
   29.7788   66.5768    7.6029 C   0  0  0  0  0  0  0  0  0  0  0  0
   30.8115   66.7927    6.7118 C   0  0  0  0  0  0  0  0  0  0  0  0
   32.1587   66.8468    7.0559 C   0  0  0  0  0  0  0  0  0  0  0  0
   32.4278   66.5181    8.3748 C   0  0  0  0  0  0  0  0  0  0  0  0
   31.4192   66.2624    9.3033 C   0  0  0  0  0  0  0  0  0  0  0  0
   30.0972   66.2611    8.9166 C   0  0  0  0  0  0  0  0  0  0  0  0
   29.1046   67.0199   10.9675 C   0  0  0  0  0  0  0  0  0  0  0  0
   28.0839   68.0037   10.9349 O   0  0  0  0  0  0  0  0  0  0  0  0
   28.1173   68.4763   10.0884 H   0  0  0  0  0  0  0  0  0  0  0  0
   27.6500   63.9867   10.5180 C   0  0  0  0  0  0  0  0  0  0  0  0
   26.7722   64.5237   11.6662 C   0  0  0  0  0  0  0  0  0  0  0  0
   25.4830   64.9492   11.0839 N   0  0  0  0  0  0  0  0  0  0  0  0
   25.4446   65.8909    9.9480 C   0  0  0  0  0  0  0  0  0  0  0  0
   24.4060   64.5382   11.7489 C   0  0  0  0  0  0  0  0  0  0  0  0
   23.2402   64.7960   11.4730 O   0  0  0  0  0  0  0  0  0  0  0  0
   24.8597   63.7633   12.9804 C   0  0  0  0  0  0  0  0  0  0  0  0
   24.4203   64.4183   14.1595 O   0  0  0  0  0  0  0  0  0  0  0  0
   26.3520   63.5297   12.7485 C   0  0  0  0  0  0  0  0  0  0  0  0
   27.1287   63.5468   13.9208 O   0  0  0  0  0  0  0  0  0  0  0  0
   24.7480   65.3313   14.1635 H   0  0  0  0  0  0  0  0  0  0  0  0
   27.0553   64.4162   14.3446 H   0  0  0  0  0  0  0  0  0  0  0  0
  4  5  2  0  0  0
  4  9  1  0  0  0
  5  6  1  0  0  0
  6  7  2  0  0  0
  7  8  1  0  0  0
  8  9  2  0  0  0
  9  3  1  0  0  0
  3 10  1  0  0  0
  3  1  1  0  0  0
 10 11  1  0  0  0
  1 13  1  0  0  0
 13 14  1  0  0  0
 14 15  1  0  0  0
 14 21  1  0  0  0
 15 16  1  0  0  0
 15 17  1  0  0  0
 17 18  2  0  0  0
 17 19  1  0  0  0
 19 20  1  0  0  0
 19 21  1  0  0  0
 21 22  1  0  0  0
 11 12  1  0  0  0
  1  2  1  0  0  0
 20 23  1  0  0  0
 22 24  1  0  0  0
M  END
> <minimizedAffinity>
-7.42260

$$$$
3DDG_GB7_A_5001


 24 25  0  0  0  0  0  0  0  0999 V2000
   28.3066   66.7324   10.2705 N   0  0  0  0  0  0  0  0  0  0  0  0
   28.4599   67.7207   10.0701 H   0  0  0  0  0  0  0  0  0  0  0  0
   28.5939   65.9513    9.0530 C   0  0  0  0  0  0  0  0  0  0  0  0
   30.0603   66.6388    7.1723 C   0  0  0  0  0  0  0  0  0  0  0  0
   31.3076   66.8745    6.6284 C   0  0  0  0  0  0  0  0  0  0  0  0
   32.4987   66.8821    7.3476 C   0  0  0  0  0  0  0  0  0  0  0  0
   32.3739   66.4843    8.6690 C   0  0  0  0  0  0  0  0  0  0  0  0
   31.1386   66.2065    9.2536 C   0  0  0  0  0  0  0  0  0  0  0  0
   29.9841   66.2531    8.5036 C   0  0  0  0  0  0  0  0  0  0  0  0
   27.6596   66.3647    7.9113 C   0  0  0  0  0  0  0  0  0  0  0  0
   26.6463   65.3998    7.6808 O   0  0  0  0  0  0  0  0  0  0  0  0
   27.0542   64.5566    7.4287 H   0  0  0  0  0  0  0  0  0  0  0  0
   26.9084   66.5509   10.7390 C   0  0  0  0  0  0  0  0  0  0  0  0
   26.7630   65.8110   12.0839 C   0  0  0  0  0  0  0  0  0  0  0  0
   26.9454   64.3683   11.8242 N   0  0  0  0  0  0  0  0  0  0  0  0
   26.1444   63.6823   10.7915 C   0  0  0  0  0  0  0  0  0  0  0  0
   27.7564   63.7448   12.6754 C   0  0  0  0  0  0  0  0  0  0  0  0
   28.0286   62.5500   12.6759 O   0  0  0  0  0  0  0  0  0  0  0  0
   28.2267   64.7467   13.7234 C   0  0  0  0  0  0  0  0  0  0  0  0
   27.7867   64.3492   15.0121 O   0  0  0  0  0  0  0  0  0  0  0  0
   27.8084   66.1041   13.1596 C   0  0  0  0  0  0  0  0  0  0  0  0
   27.4268   67.0424   14.1352 O   0  0  0  0  0  0  0  0  0  0  0  0
   26.8215   64.2529   15.0088 H   0  0  0  0  0  0  0  0  0  0  0  0
   26.6594   66.7063   14.6242 H   0  0  0  0  0  0  0  0  0  0  0  0
  4  5  2  0  0  0
  4  9  1  0  0  0
  5  6  1  0  0  0
  6  7  2  0  0  0
  7  8  1  0  0  0
  8  9  2  0  0  0
  9  3  1  0  0  0
  3 10  1  0  0  0
  3  1  1  0  0  0
 10 11  1  0  0  0
  1 13  1  0  0  0
 13 14  1  0  0  0
 14 15  1  0  0  0
 14 21  1  0  0  0
 15 16  1  0  0  0
 15 17  1  0  0  0
 17 18  2  0  0  0
 17 19  1  0  0  0
 19 20  1  0  0  0
 19 21  1  0  0  0
 21 22  1  0  0  0
 11 12  1  0  0  0
  1  2  1  0  0  0
 20 23  1  0  0  0
 22 24  1  0  0  0
M  END
> <minimizedAffinity>
-7.38589

$$$$
