2W8W_PLS_A_1420


 28 28  0  0  0  0  0  0  0  0999 V2000
   27.1404   13.5628   14.7934 N   0  0  0  0  0  0  0  0  0  0  0  0
   27.1459   13.8674   13.4780 C   0  0  0  0  0  0  0  0  0  0  0  0
   26.0173   13.4058   12.5860 C   0  0  0  0  0  0  0  0  0  0  0  0
   28.1892   14.6091   12.9512 C   0  0  0  0  0  0  0  0  0  0  0  0
   28.1584   14.9007   11.6260 O   0  0  0  0  0  0  0  0  0  0  0  0
   29.2372   15.0413   13.7670 C   0  0  0  0  0  0  0  0  0  0  0  0
   29.1978   14.7005   15.1206 C   0  0  0  0  0  0  0  0  0  0  0  0
   28.1309   13.9536   15.6123 C   0  0  0  0  0  0  0  0  0  0  0  0
   27.4457   14.6008   11.0967 H   0  0  0  0  0  0  0  0  0  0  0  0
   30.3726   15.8383   13.2089 C   0  0  0  0  0  0  0  0  0  0  0  0
   31.0552   15.4216   12.2233 N   0  0  0  0  0  0  0  0  0  0  0  0
   31.1070   14.4109   12.3508 H   0  0  0  0  0  0  0  0  0  0  0  0
   32.4205   15.8239   11.8460 C   0  0  0  0  0  0  0  0  0  0  0  0
   32.4036   17.2570   11.3753 C   0  0  0  0  0  0  0  0  0  0  0  0
   31.9407   17.5136   10.2444 O   0  0  0  0  0  0  0  0  0  0  0  0
   32.8443   18.1545   12.1212 O   0  0  0  0  0  0  0  0  0  0  0  0
   33.1865   17.9359   12.9656 H   0  0  0  0  0  0  0  0  0  0  0  0
   33.0050   14.9765   10.7153 C   0  0  0  0  0  0  0  0  0  0  0  0
   31.9874   14.3113    9.9642 O   0  0  0  0  0  0  0  0  0  0  0  0
   31.4947   13.7124   10.5468 H   0  0  0  0  0  0  0  0  0  0  0  0
   30.2858   15.1043   16.0924 C   0  0  0  0  0  0  0  0  0  0  0  0
   30.2603   16.5040   16.3038 O   0  0  0  0  0  0  0  0  0  0  0  0
   31.5994   17.3840   16.4564 P   0  0  0  0  0  0  0  0  0  0  0  0
   31.9918   17.8833   15.0964 O   0  0  0  0  0  0  0  0  0  0  0  0
   31.2483   18.4519   17.4537 O   0  0  0  0  0  0  0  0  0  0  0  0
   32.5412   16.3319   17.0105 O   0  0  0  0  0  0  0  0  0  0  0  0
   30.6465   19.0924   17.0431 H   0  0  0  0  0  0  0  0  0  0  0  0
   32.7300   15.6732   16.3240 H   0  0  0  0  0  0  0  0  0  0  0  0
 11 13  1  0  0  0
 11 10  1  0  0  0
 13 18  1  0  0  0
 13 14  1  0  0  0
 18 19  1  0  0  0
 14 15  2  0  0  0
 14 16  1  0  0  0
  1  2  2  0  0  0
  1  8  1  0  0  0
  2  3  1  0  0  0
  2  4  1  0  0  0
  4  5  1  0  0  0
  4  6  2  0  0  0
  6 10  1  0  0  0
  6  7  1  0  0  0
  7  8  2  0  0  0
  7 21  1  0  0  0
 21 22  1  0  0  0
 22 23  1  0  0  0
 23 24  2  0  0  0
 23 25  1  0  0  0
 23 26  1  0  0  0
 11 12  1  0  0  0
 19 20  1  0  0  0
 16 17  1  0  0  0
  5  9  1  0  0  0
 25 27  1  0  0  0
 26 28  1  0  0  0
M  END
> <minimizedAffinity>
-9.09148

$$$$
2W8W_PLS_A_1420


 28 28  0  0  0  0  0  0  0  0999 V2000
   33.3093   15.7743   10.5285 N   0  0  0  0  0  0  0  0  0  0  0  0
   32.3068   15.0905    9.9365 C   0  0  0  0  0  0  0  0  0  0  0  0
   32.5549   14.3403    8.6489 C   0  0  0  0  0  0  0  0  0  0  0  0
   31.0508   15.0764   10.5181 C   0  0  0  0  0  0  0  0  0  0  0  0
   30.0689   14.3742    9.8975 O   0  0  0  0  0  0  0  0  0  0  0  0
   30.8106   15.7661   11.7086 C   0  0  0  0  0  0  0  0  0  0  0  0
   31.8718   16.4663   12.2861 C   0  0  0  0  0  0  0  0  0  0  0  0
   33.1205   16.4556   11.6706 C   0  0  0  0  0  0  0  0  0  0  0  0
   30.2515   13.9185    9.0994 H   0  0  0  0  0  0  0  0  0  0  0  0
   29.4570   15.7632   12.3437 C   0  0  0  0  0  0  0  0  0  0  0  0
   29.1618   14.9519   13.2741 N   0  0  0  0  0  0  0  0  0  0  0  0
   29.5331   14.0538   12.9644 H   0  0  0  0  0  0  0  0  0  0  0  0
   27.8218   14.6436   13.8013 C   0  0  0  0  0  0  0  0  0  0  0  0
   27.9602   13.9504   15.1340 C   0  0  0  0  0  0  0  0  0  0  0  0
   28.1305   14.6439   16.1583 O   0  0  0  0  0  0  0  0  0  0  0  0
   27.8971   12.7058   15.1893 O   0  0  0  0  0  0  0  0  0  0  0  0
   27.7687   12.2080   14.4060 H   0  0  0  0  0  0  0  0  0  0  0  0
   27.0143   13.7222   12.8866 C   0  0  0  0  0  0  0  0  0  0  0  0
   25.7076   13.4650   13.4047 O   0  0  0  0  0  0  0  0  0  0  0  0
   25.7820   13.0226   14.2647 H   0  0  0  0  0  0  0  0  0  0  0  0
   31.7216   17.2582   13.5673 C   0  0  0  0  0  0  0  0  0  0  0  0
   32.1574   16.4894   14.6734 O   0  0  0  0  0  0  0  0  0  0  0  0
   31.2868   16.3305   16.0179 P   0  0  0  0  0  0  0  0  0  0  0  0
   32.1112   16.8200   17.1728 O   0  0  0  0  0  0  0  0  0  0  0  0
   30.0269   17.1066   15.7563 O   0  0  0  0  0  0  0  0  0  0  0  0
   31.0773   14.8282   16.0170 O   0  0  0  0  0  0  0  0  0  0  0  0
   30.2236   18.0564   15.7692 H   0  0  0  0  0  0  0  0  0  0  0  0
   31.9219   14.3838   16.1903 H   0  0  0  0  0  0  0  0  0  0  0  0
 11 13  1  0  0  0
 11 10  1  0  0  0
 13 18  1  0  0  0
 13 14  1  0  0  0
 18 19  1  0  0  0
 14 15  2  0  0  0
 14 16  1  0  0  0
  1  2  2  0  0  0
  1  8  1  0  0  0
  2  3  1  0  0  0
  2  4  1  0  0  0
  4  5  1  0  0  0
  4  6  2  0  0  0
  6 10  1  0  0  0
  6  7  1  0  0  0
  7  8  2  0  0  0
  7 21  1  0  0  0
 21 22  1  0  0  0
 22 23  1  0  0  0
 23 24  2  0  0  0
 23 25  1  0  0  0
 23 26  1  0  0  0
 11 12  1  0  0  0
 19 20  1  0  0  0
 16 17  1  0  0  0
  5  9  1  0  0  0
 25 27  1  0  0  0
 26 28  1  0  0  0
M  END
> <minimizedAffinity>
-8.46332

$$$$
2W8W_PLS_A_1420


 28 28  0  0  0  0  0  0  0  0999 V2000
   27.3408   13.5645   15.0011 N   0  0  0  0  0  0  0  0  0  0  0  0
   27.2169   13.8632   13.6901 C   0  0  0  0  0  0  0  0  0  0  0  0
   26.0024   13.4048   12.9174 C   0  0  0  0  0  0  0  0  0  0  0  0
   28.2068   14.5959   13.0583 C   0  0  0  0  0  0  0  0  0  0  0  0
   28.0459   14.8818   11.7412 O   0  0  0  0  0  0  0  0  0  0  0  0
   29.3335   15.0251   13.7634 C   0  0  0  0  0  0  0  0  0  0  0  0
   29.4272   14.6906   15.1159 C   0  0  0  0  0  0  0  0  0  0  0  0
   28.4102   13.9526   15.7152 C   0  0  0  0  0  0  0  0  0  0  0  0
   27.2822   14.5841   11.2871 H   0  0  0  0  0  0  0  0  0  0  0  0
   30.4123   15.8125   13.0910 C   0  0  0  0  0  0  0  0  0  0  0  0
   30.8636   15.4820   11.9517 N   0  0  0  0  0  0  0  0  0  0  0  0
   31.7840   15.0850   12.1410 H   0  0  0  0  0  0  0  0  0  0  0  0
   31.0627   16.3525   10.7808 C   0  0  0  0  0  0  0  0  0  0  0  0
   30.7299   15.5822    9.5272 C   0  0  0  0  0  0  0  0  0  0  0  0
   31.6594   15.0605    8.8768 O   0  0  0  0  0  0  0  0  0  0  0  0
   29.5400   15.4764    9.1680 O   0  0  0  0  0  0  0  0  0  0  0  0
   28.8606   15.8774    9.6736 H   0  0  0  0  0  0  0  0  0  0  0  0
   32.5007   16.8537   10.6431 C   0  0  0  0  0  0  0  0  0  0  0  0
   32.6273   17.8416    9.6184 O   0  0  0  0  0  0  0  0  0  0  0  0
   32.3744   17.4564    8.7649 H   0  0  0  0  0  0  0  0  0  0  0  0
   30.6090   15.0918   15.9724 C   0  0  0  0  0  0  0  0  0  0  0  0
   30.4354   16.4087   16.4623 O   0  0  0  0  0  0  0  0  0  0  0  0
   31.6678   17.4159   16.7020 P   0  0  0  0  0  0  0  0  0  0  0  0
   31.1581   18.6136   17.4493 O   0  0  0  0  0  0  0  0  0  0  0  0
   32.6987   16.5990   17.4286 O   0  0  0  0  0  0  0  0  0  0  0  0
   32.0441   17.7147   15.2632 O   0  0  0  0  0  0  0  0  0  0  0  0
   32.4033   16.4412   18.3390 H   0  0  0  0  0  0  0  0  0  0  0  0
   31.3435   18.2422   14.8486 H   0  0  0  0  0  0  0  0  0  0  0  0
 11 13  1  0  0  0
 11 10  1  0  0  0
 13 18  1  0  0  0
 13 14  1  0  0  0
 18 19  1  0  0  0
 14 15  2  0  0  0
 14 16  1  0  0  0
  1  2  2  0  0  0
  1  8  1  0  0  0
  2  3  1  0  0  0
  2  4  1  0  0  0
  4  5  1  0  0  0
  4  6  2  0  0  0
  6 10  1  0  0  0
  6  7  1  0  0  0
  7  8  2  0  0  0
  7 21  1  0  0  0
 21 22  1  0  0  0
 22 23  1  0  0  0
 23 24  2  0  0  0
 23 25  1  0  0  0
 23 26  1  0  0  0
 11 12  1  0  0  0
 19 20  1  0  0  0
 16 17  1  0  0  0
  5  9  1  0  0  0
 25 27  1  0  0  0
 26 28  1  0  0  0
M  END
> <minimizedAffinity>
-8.40292

$$$$
2W8W_PLS_A_1420


 28 28  0  0  0  0  0  0  0  0999 V2000
   32.7414   16.0923   10.3632 N   0  0  0  0  0  0  0  0  0  0  0  0
   31.5141   15.9267    9.8252 C   0  0  0  0  0  0  0  0  0  0  0  0
   31.3316   15.9515    8.3257 C   0  0  0  0  0  0  0  0  0  0  0  0
   30.4237   15.7295   10.6548 C   0  0  0  0  0  0  0  0  0  0  0  0
   29.2064   15.5615   10.0784 O   0  0  0  0  0  0  0  0  0  0  0  0
   30.5812   15.7043   12.0424 C   0  0  0  0  0  0  0  0  0  0  0  0
   31.8655   15.8856   12.5597 C   0  0  0  0  0  0  0  0  0  0  0  0
   32.9366   16.0806   11.6921 C   0  0  0  0  0  0  0  0  0  0  0  0
   29.1230   15.5819    9.1453 H   0  0  0  0  0  0  0  0  0  0  0  0
   29.4105   15.4977   12.9493 C   0  0  0  0  0  0  0  0  0  0  0  0
   29.4096   14.5894   13.8358 N   0  0  0  0  0  0  0  0  0  0  0  0
   29.1476   13.7388   13.3374 H   0  0  0  0  0  0  0  0  0  0  0  0
   28.6230   14.5538   15.0802 C   0  0  0  0  0  0  0  0  0  0  0  0
   29.4361   13.8884   16.1626 C   0  0  0  0  0  0  0  0  0  0  0  0
   30.6809   13.8852   16.0643 O   0  0  0  0  0  0  0  0  0  0  0  0
   28.8548   13.3615   17.1324 O   0  0  0  0  0  0  0  0  0  0  0  0
   27.9193   13.3772   17.1828 H   0  0  0  0  0  0  0  0  0  0  0  0
   27.3162   13.7721   14.9420 C   0  0  0  0  0  0  0  0  0  0  0  0
   27.5270   12.3605   15.0124 O   0  0  0  0  0  0  0  0  0  0  0  0
   28.1058   12.0833   14.2850 H   0  0  0  0  0  0  0  0  0  0  0  0
   32.1497   15.8899   14.0464 C   0  0  0  0  0  0  0  0  0  0  0  0
   31.7817   17.1342   14.6129 O   0  0  0  0  0  0  0  0  0  0  0  0
   31.5609   17.3374   16.1942 P   0  0  0  0  0  0  0  0  0  0  0  0
   32.2103   18.6291   16.5977 O   0  0  0  0  0  0  0  0  0  0  0  0
   30.0716   17.2822   16.3866 O   0  0  0  0  0  0  0  0  0  0  0  0
   32.2796   16.1086   16.7180 O   0  0  0  0  0  0  0  0  0  0  0  0
   29.6698   18.0914   16.0337 H   0  0  0  0  0  0  0  0  0  0  0  0
   33.2331   16.2023   16.5662 H   0  0  0  0  0  0  0  0  0  0  0  0
 11 13  1  0  0  0
 11 10  1  0  0  0
 13 18  1  0  0  0
 13 14  1  0  0  0
 18 19  1  0  0  0
 14 15  2  0  0  0
 14 16  1  0  0  0
  1  2  2  0  0  0
  1  8  1  0  0  0
  2  3  1  0  0  0
  2  4  1  0  0  0
  4  5  1  0  0  0
  4  6  2  0  0  0
  6 10  1  0  0  0
  6  7  1  0  0  0
  7  8  2  0  0  0
  7 21  1  0  0  0
 21 22  1  0  0  0
 22 23  1  0  0  0
 23 24  2  0  0  0
 23 25  1  0  0  0
 23 26  1  0  0  0
 11 12  1  0  0  0
 19 20  1  0  0  0
 16 17  1  0  0  0
  5  9  1  0  0  0
 25 27  1  0  0  0
 26 28  1  0  0  0
M  END
> <minimizedAffinity>
-8.05461

$$$$
2W8W_PLS_A_1420


 28 28  0  0  0  0  0  0  0  0999 V2000
   29.9605   14.8649    9.4547 N   0  0  0  0  0  0  0  0  0  0  0  0
   31.2478   15.2230    9.6489 C   0  0  0  0  0  0  0  0  0  0  0  0
   32.2397   15.1406    8.5124 C   0  0  0  0  0  0  0  0  0  0  0  0
   31.6535   15.6708   10.8943 C   0  0  0  0  0  0  0  0  0  0  0  0
   32.9538   16.0271   11.0510 O   0  0  0  0  0  0  0  0  0  0  0  0
   30.7446   15.7514   11.9517 C   0  0  0  0  0  0  0  0  0  0  0  0
   29.4241   15.3660   11.7119 C   0  0  0  0  0  0  0  0  0  0  0  0
   29.0552   14.9217   10.4453 C   0  0  0  0  0  0  0  0  0  0  0  0
   33.5469   15.9652   10.3283 H   0  0  0  0  0  0  0  0  0  0  0  0
   31.1718   16.2282   13.3030 C   0  0  0  0  0  0  0  0  0  0  0  0
   31.6592   15.4333   14.1641 N   0  0  0  0  0  0  0  0  0  0  0  0
   31.2099   14.5372   13.9756 H   0  0  0  0  0  0  0  0  0  0  0  0
   31.6249   15.5706   15.6299 C   0  0  0  0  0  0  0  0  0  0  0  0
   30.3265   15.0068   16.1511 C   0  0  0  0  0  0  0  0  0  0  0  0
   29.4061   15.7949   16.4527 O   0  0  0  0  0  0  0  0  0  0  0  0
   30.1944   13.7717   16.2657 O   0  0  0  0  0  0  0  0  0  0  0  0
   30.9003   13.2013   16.0325 H   0  0  0  0  0  0  0  0  0  0  0  0
   31.7154   17.0232   16.0988 C   0  0  0  0  0  0  0  0  0  0  0  0
   32.2352   17.1257   17.4260 O   0  0  0  0  0  0  0  0  0  0  0  0
   31.6458   16.6615   18.0408 H   0  0  0  0  0  0  0  0  0  0  0  0
   28.3594   15.4002   12.7873 C   0  0  0  0  0  0  0  0  0  0  0  0
   28.5005   14.2890   13.6532 O   0  0  0  0  0  0  0  0  0  0  0  0
   27.2489   13.6032   14.3975 P   0  0  0  0  0  0  0  0  0  0  0  0
   26.2635   13.1646   13.3537 O   0  0  0  0  0  0  0  0  0  0  0  0
   27.8470   12.4959   15.2186 O   0  0  0  0  0  0  0  0  0  0  0  0
   26.7669   14.7753   15.2311 O   0  0  0  0  0  0  0  0  0  0  0  0
   28.1354   11.7785   14.6328 H   0  0  0  0  0  0  0  0  0  0  0  0
   26.3930   15.4545   14.6483 H   0  0  0  0  0  0  0  0  0  0  0  0
 11 13  1  0  0  0
 11 10  1  0  0  0
 13 18  1  0  0  0
 13 14  1  0  0  0
 18 19  1  0  0  0
 14 15  2  0  0  0
 14 16  1  0  0  0
  1  2  2  0  0  0
  1  8  1  0  0  0
  2  3  1  0  0  0
  2  4  1  0  0  0
  4  5  1  0  0  0
  4  6  2  0  0  0
  6 10  1  0  0  0
  6  7  1  0  0  0
  7  8  2  0  0  0
  7 21  1  0  0  0
 21 22  1  0  0  0
 22 23  1  0  0  0
 23 24  2  0  0  0
 23 25  1  0  0  0
 23 26  1  0  0  0
 11 12  1  0  0  0
 19 20  1  0  0  0
 16 17  1  0  0  0
  5  9  1  0  0  0
 25 27  1  0  0  0
 26 28  1  0  0  0
M  END
> <minimizedAffinity>
-7.78753

$$$$
2W8W_PLS_A_1420


 28 28  0  0  0  0  0  0  0  0999 V2000
   30.1688   15.7522    9.6568 N   0  0  0  0  0  0  0  0  0  0  0  0
   31.4301   16.1097    9.9801 C   0  0  0  0  0  0  0  0  0  0  0  0
   32.4024   16.5265    8.9016 C   0  0  0  0  0  0  0  0  0  0  0  0
   31.8268   16.0969   11.3062 C   0  0  0  0  0  0  0  0  0  0  0  0
   33.1004   16.4674   11.5941 O   0  0  0  0  0  0  0  0  0  0  0  0
   30.9358   15.7138   12.3113 C   0  0  0  0  0  0  0  0  0  0  0  0
   29.6425   15.3452   11.9352 C   0  0  0  0  0  0  0  0  0  0  0  0
   29.2818   15.3719   10.5909 C   0  0  0  0  0  0  0  0  0  0  0  0
   33.6818   16.7209   10.9045 H   0  0  0  0  0  0  0  0  0  0  0  0
   31.3538   15.6904   13.7467 C   0  0  0  0  0  0  0  0  0  0  0  0
   31.4808   16.7595   14.4188 N   0  0  0  0  0  0  0  0  0  0  0  0
   32.4438   16.7436   14.7546 H   0  0  0  0  0  0  0  0  0  0  0  0
   30.6838   17.1861   15.5812 C   0  0  0  0  0  0  0  0  0  0  0  0
   31.5997   17.3937   16.7618 C   0  0  0  0  0  0  0  0  0  0  0  0
   32.3808   16.4752   17.0863 O   0  0  0  0  0  0  0  0  0  0  0  0
   31.5642   18.4735   17.3853 O   0  0  0  0  0  0  0  0  0  0  0  0
   30.9688   19.1473   17.1218 H   0  0  0  0  0  0  0  0  0  0  0  0
   29.6282   16.1600   15.9943 C   0  0  0  0  0  0  0  0  0  0  0  0
   30.2169   14.9385   16.4452 O   0  0  0  0  0  0  0  0  0  0  0  0
   30.7347   14.5442   15.7260 H   0  0  0  0  0  0  0  0  0  0  0  0
   28.5999   14.9008   12.9385 C   0  0  0  0  0  0  0  0  0  0  0  0
   27.3733   14.6312   12.2849 O   0  0  0  0  0  0  0  0  0  0  0  0
   26.3440   13.5055   12.7990 P   0  0  0  0  0  0  0  0  0  0  0  0
   26.9239   12.8625   14.0250 O   0  0  0  0  0  0  0  0  0  0  0  0
   25.0476   14.2353   13.0111 O   0  0  0  0  0  0  0  0  0  0  0  0
   26.3279   12.5937   11.5868 O   0  0  0  0  0  0  0  0  0  0  0  0
   25.1191   14.7996   13.7969 H   0  0  0  0  0  0  0  0  0  0  0  0
   27.1876   12.1526   11.5026 H   0  0  0  0  0  0  0  0  0  0  0  0
 11 13  1  0  0  0
 11 10  1  0  0  0
 13 18  1  0  0  0
 13 14  1  0  0  0
 18 19  1  0  0  0
 14 15  2  0  0  0
 14 16  1  0  0  0
  1  2  2  0  0  0
  1  8  1  0  0  0
  2  3  1  0  0  0
  2  4  1  0  0  0
  4  5  1  0  0  0
  4  6  2  0  0  0
  6 10  1  0  0  0
  6  7  1  0  0  0
  7  8  2  0  0  0
  7 21  1  0  0  0
 21 22  1  0  0  0
 22 23  1  0  0  0
 23 24  2  0  0  0
 23 25  1  0  0  0
 23 26  1  0  0  0
 11 12  1  0  0  0
 19 20  1  0  0  0
 16 17  1  0  0  0
  5  9  1  0  0  0
 25 27  1  0  0  0
 26 28  1  0  0  0
M  END
> <minimizedAffinity>
-7.41801

$$$$
2W8W_PLS_A_1420


 28 28  0  0  0  0  0  0  0  0999 V2000
   28.3661   15.0770   14.2109 N   0  0  0  0  0  0  0  0  0  0  0  0
   28.0410   14.6669   12.9662 C   0  0  0  0  0  0  0  0  0  0  0  0
   26.7372   13.9446   12.7198 C   0  0  0  0  0  0  0  0  0  0  0  0
   28.9069   14.9158   11.9153 C   0  0  0  0  0  0  0  0  0  0  0  0
   28.5446   14.4937   10.6772 O   0  0  0  0  0  0  0  0  0  0  0  0
   30.1146   15.5832   12.1318 C   0  0  0  0  0  0  0  0  0  0  0  0
   30.4168   15.9855   13.4344 C   0  0  0  0  0  0  0  0  0  0  0  0
   29.5195   15.7170   14.4642 C   0  0  0  0  0  0  0  0  0  0  0  0
   27.7298   14.0477   10.5541 H   0  0  0  0  0  0  0  0  0  0  0  0
   31.0608   15.8532   11.0060 C   0  0  0  0  0  0  0  0  0  0  0  0
   30.6466   16.0430    9.8214 N   0  0  0  0  0  0  0  0  0  0  0  0
   29.6810   15.7143    9.8271 H   0  0  0  0  0  0  0  0  0  0  0  0
   31.2197   15.5060    8.5758 C   0  0  0  0  0  0  0  0  0  0  0  0
   30.1008   15.0964    7.6506 C   0  0  0  0  0  0  0  0  0  0  0  0
   30.3700   14.3912    6.6560 O   0  0  0  0  0  0  0  0  0  0  0  0
   28.9341   15.4626    7.8969 O   0  0  0  0  0  0  0  0  0  0  0  0
   28.7582   15.9917    8.6499 H   0  0  0  0  0  0  0  0  0  0  0  0
   32.1012   14.2772    8.8017 C   0  0  0  0  0  0  0  0  0  0  0  0
   31.3284   13.0846    8.9522 O   0  0  0  0  0  0  0  0  0  0  0  0
   30.7502   13.1695    9.7263 H   0  0  0  0  0  0  0  0  0  0  0  0
   31.7022   16.7037   13.7856 C   0  0  0  0  0  0  0  0  0  0  0  0
   31.4915   17.5821   14.8758 O   0  0  0  0  0  0  0  0  0  0  0  0
   31.7431   17.1455   16.4044 P   0  0  0  0  0  0  0  0  0  0  0  0
   30.4473   17.2763   17.1505 O   0  0  0  0  0  0  0  0  0  0  0  0
   32.2962   15.7508   16.3219 O   0  0  0  0  0  0  0  0  0  0  0  0
   32.7790   18.1792   16.8038 O   0  0  0  0  0  0  0  0  0  0  0  0
   31.5903   15.1377   16.0636 H   0  0  0  0  0  0  0  0  0  0  0  0
   32.3643   19.0553   16.8399 H   0  0  0  0  0  0  0  0  0  0  0  0
 11 13  1  0  0  0
 11 10  1  0  0  0
 13 18  1  0  0  0
 13 14  1  0  0  0
 18 19  1  0  0  0
 14 15  2  0  0  0
 14 16  1  0  0  0
  1  2  2  0  0  0
  1  8  1  0  0  0
  2  3  1  0  0  0
  2  4  1  0  0  0
  4  5  1  0  0  0
  4  6  2  0  0  0
  6 10  1  0  0  0
  6  7  1  0  0  0
  7  8  2  0  0  0
  7 21  1  0  0  0
 21 22  1  0  0  0
 22 23  1  0  0  0
 23 24  2  0  0  0
 23 25  1  0  0  0
 23 26  1  0  0  0
 11 12  1  0  0  0
 19 20  1  0  0  0
 16 17  1  0  0  0
  5  9  1  0  0  0
 25 27  1  0  0  0
 26 28  1  0  0  0
M  END
> <minimizedAffinity>
-7.35022

$$$$
2W8W_PLS_A_1420


 28 28  0  0  0  0  0  0  0  0999 V2000
   32.4735   16.7802    9.6271 N   0  0  0  0  0  0  0  0  0  0  0  0
   32.2229   16.7684   10.9539 C   0  0  0  0  0  0  0  0  0  0  0  0
   33.2174   17.3668   11.9209 C   0  0  0  0  0  0  0  0  0  0  0  0
   31.0471   16.2089   11.4236 C   0  0  0  0  0  0  0  0  0  0  0  0
   30.8267   16.2196   12.7628 O   0  0  0  0  0  0  0  0  0  0  0  0
   30.1206   15.6535   10.5382 C   0  0  0  0  0  0  0  0  0  0  0  0
   30.4197   15.6799    9.1745 C   0  0  0  0  0  0  0  0  0  0  0  0
   31.6126   16.2522    8.7417 C   0  0  0  0  0  0  0  0  0  0  0  0
   31.4615   16.5974   13.3391 H   0  0  0  0  0  0  0  0  0  0  0  0
   28.8495   15.0413   11.0336 C   0  0  0  0  0  0  0  0  0  0  0  0
   28.6790   14.7668   12.2610 N   0  0  0  0  0  0  0  0  0  0  0  0
   29.2150   13.9126   12.4141 H   0  0  0  0  0  0  0  0  0  0  0  0
   27.4021   14.5400   12.9585 C   0  0  0  0  0  0  0  0  0  0  0  0
   27.6788   14.1946   14.4007 C   0  0  0  0  0  0  0  0  0  0  0  0
   27.9645   15.1141   15.1956 O   0  0  0  0  0  0  0  0  0  0  0  0
   27.6125   13.0055   14.7719 O   0  0  0  0  0  0  0  0  0  0  0  0
   27.3960   12.3337   14.1556 H   0  0  0  0  0  0  0  0  0  0  0  0
   26.5869   13.3930   12.3603 C   0  0  0  0  0  0  0  0  0  0  0  0
   25.3220   13.2410   13.0076 O   0  0  0  0  0  0  0  0  0  0  0  0
   25.4612   13.0359   13.9454 H   0  0  0  0  0  0  0  0  0  0  0  0
   29.4949   15.0956    8.1282 C   0  0  0  0  0  0  0  0  0  0  0  0
   30.1694   14.9755    6.8892 O   0  0  0  0  0  0  0  0  0  0  0  0
   30.6629   13.5603    6.3024 P   0  0  0  0  0  0  0  0  0  0  0  0
   31.3795   12.8220    7.3952 O   0  0  0  0  0  0  0  0  0  0  0  0
   29.4145   12.8966    5.7934 O   0  0  0  0  0  0  0  0  0  0  0  0
   31.5803   14.0428    5.1948 O   0  0  0  0  0  0  0  0  0  0  0  0
   28.8710   12.6110    6.5443 H   0  0  0  0  0  0  0  0  0  0  0  0
   32.3649   14.4602    5.5836 H   0  0  0  0  0  0  0  0  0  0  0  0
 11 13  1  0  0  0
 11 10  1  0  0  0
 13 18  1  0  0  0
 13 14  1  0  0  0
 18 19  1  0  0  0
 14 15  2  0  0  0
 14 16  1  0  0  0
  1  2  2  0  0  0
  1  8  1  0  0  0
  2  3  1  0  0  0
  2  4  1  0  0  0
  4  5  1  0  0  0
  4  6  2  0  0  0
  6 10  1  0  0  0
  6  7  1  0  0  0
  7  8  2  0  0  0
  7 21  1  0  0  0
 21 22  1  0  0  0
 22 23  1  0  0  0
 23 24  2  0  0  0
 23 25  1  0  0  0
 23 26  1  0  0  0
 11 12  1  0  0  0
 19 20  1  0  0  0
 16 17  1  0  0  0
  5  9  1  0  0  0
 25 27  1  0  0  0
 26 28  1  0  0  0
M  END
> <minimizedAffinity>
-7.15260

$$$$
2W8W_PLS_A_1420


 28 28  0  0  0  0  0  0  0  0999 V2000
   35.8188   14.4632    7.6649 N   0  0  0  0  0  0  0  0  0  0  0  0
   35.7346   13.6413    6.5970 C   0  0  0  0  0  0  0  0  0  0  0  0
   36.9215   13.4628    5.6795 C   0  0  0  0  0  0  0  0  0  0  0  0
   34.5560   12.9590    6.3494 C   0  0  0  0  0  0  0  0  0  0  0  0
   34.5098   12.1375    5.2698 O   0  0  0  0  0  0  0  0  0  0  0  0
   33.4528   13.1163    7.1915 C   0  0  0  0  0  0  0  0  0  0  0  0
   33.5782   13.9801    8.2815 C   0  0  0  0  0  0  0  0  0  0  0  0
   34.7805   14.6478    8.4969 C   0  0  0  0  0  0  0  0  0  0  0  0
   35.2614   12.0465    4.7179 H   0  0  0  0  0  0  0  0  0  0  0  0
   32.1724   12.3892    6.9316 C   0  0  0  0  0  0  0  0  0  0  0  0
   31.6839   12.3016    5.7634 N   0  0  0  0  0  0  0  0  0  0  0  0
   31.1365   13.1541    5.6451 H   0  0  0  0  0  0  0  0  0  0  0  0
   30.8292   11.2283    5.2287 C   0  0  0  0  0  0  0  0  0  0  0  0
   29.3866   11.5406    5.5405 C   0  0  0  0  0  0  0  0  0  0  0  0
   28.6618   10.6361    6.0048 O   0  0  0  0  0  0  0  0  0  0  0  0
   28.9481   12.6903    5.3352 O   0  0  0  0  0  0  0  0  0  0  0  0
   29.5125   13.3516    4.9859 H   0  0  0  0  0  0  0  0  0  0  0  0
   31.1417    9.8571    5.8287 C   0  0  0  0  0  0  0  0  0  0  0  0
   32.5141    9.4979    5.6565 O   0  0  0  0  0  0  0  0  0  0  0  0
   32.7197    9.4507    4.7097 H   0  0  0  0  0  0  0  0  0  0  0  0
   32.4437   14.2358    9.2505 C   0  0  0  0  0  0  0  0  0  0  0  0
   31.5875   15.2453    8.7483 O   0  0  0  0  0  0  0  0  0  0  0  0
   30.0331   14.9834    8.4229 P   0  0  0  0  0  0  0  0  0  0  0  0
   29.6945   13.5822    8.8412 O   0  0  0  0  0  0  0  0  0  0  0  0
   29.2964   16.0669    9.1588 O   0  0  0  0  0  0  0  0  0  0  0  0
   30.0446   15.1805    6.9189 O   0  0  0  0  0  0  0  0  0  0  0  0
   29.3234   15.8866   10.1115 H   0  0  0  0  0  0  0  0  0  0  0  0
   30.5322   14.4534    6.5013 H   0  0  0  0  0  0  0  0  0  0  0  0
 11 13  1  0  0  0
 11 10  1  0  0  0
 13 18  1  0  0  0
 13 14  1  0  0  0
 18 19  1  0  0  0
 14 15  2  0  0  0
 14 16  1  0  0  0
  1  2  2  0  0  0
  1  8  1  0  0  0
  2  3  1  0  0  0
  2  4  1  0  0  0
  4  5  1  0  0  0
  4  6  2  0  0  0
  6 10  1  0  0  0
  6  7  1  0  0  0
  7  8  2  0  0  0
  7 21  1  0  0  0
 21 22  1  0  0  0
 22 23  1  0  0  0
 23 24  2  0  0  0
 23 25  1  0  0  0
 23 26  1  0  0  0
 11 12  1  0  0  0
 19 20  1  0  0  0
 16 17  1  0  0  0
  5  9  1  0  0  0
 25 27  1  0  0  0
 26 28  1  0  0  0
M  END
> <minimizedAffinity>
-7.06013

$$$$
2W8W_PLS_A_1420


 28 28  0  0  0  0  0  0  0  0999 V2000
   28.2550   14.6575   14.4312 N   0  0  0  0  0  0  0  0  0  0  0  0
   27.8321   14.4000   13.1750 C   0  0  0  0  0  0  0  0  0  0  0  0
   26.5146   13.6974   12.9453 C   0  0  0  0  0  0  0  0  0  0  0  0
   28.6102   14.7874   12.0977 C   0  0  0  0  0  0  0  0  0  0  0  0
   28.1507   14.5168   10.8495 O   0  0  0  0  0  0  0  0  0  0  0  0
   29.8296   15.4381   12.2987 C   0  0  0  0  0  0  0  0  0  0  0  0
   30.2345   15.6804   13.6129 C   0  0  0  0  0  0  0  0  0  0  0  0
   29.4235   15.2757   14.6695 C   0  0  0  0  0  0  0  0  0  0  0  0
   27.3297   14.0793   10.7371 H   0  0  0  0  0  0  0  0  0  0  0  0
   30.6817   15.8566   11.1435 C   0  0  0  0  0  0  0  0  0  0  0  0
   30.7936   15.1352   10.1052 N   0  0  0  0  0  0  0  0  0  0  0  0
   31.0040   14.2015   10.4579 H   0  0  0  0  0  0  0  0  0  0  0  0
   31.7192   15.3286    8.9763 C   0  0  0  0  0  0  0  0  0  0  0  0
   32.2146   13.9841    8.5047 C   0  0  0  0  0  0  0  0  0  0  0  0
   33.0003   13.9384    7.5352 O   0  0  0  0  0  0  0  0  0  0  0  0
   31.8375   12.9495    9.0908 O   0  0  0  0  0  0  0  0  0  0  0  0
   31.2473   13.0106    9.8160 H   0  0  0  0  0  0  0  0  0  0  0  0
   32.9447   16.1667    9.3418 C   0  0  0  0  0  0  0  0  0  0  0  0
   32.7510   17.5526    9.0518 O   0  0  0  0  0  0  0  0  0  0  0  0
   32.5989   17.6657    8.1005 H   0  0  0  0  0  0  0  0  0  0  0  0
   31.5421   16.3657   13.9473 C   0  0  0  0  0  0  0  0  0  0  0  0
   31.3306   17.3850   14.9068 O   0  0  0  0  0  0  0  0  0  0  0  0
   31.7248   17.2134   16.4579 P   0  0  0  0  0  0  0  0  0  0  0  0
   32.7446   18.2594   16.8027 O   0  0  0  0  0  0  0  0  0  0  0  0
   30.4232   17.3187   17.2014 O   0  0  0  0  0  0  0  0  0  0  0  0
   32.2875   15.8050   16.4297 O   0  0  0  0  0  0  0  0  0  0  0  0
   30.1149   18.2383   17.1849 H   0  0  0  0  0  0  0  0  0  0  0  0
   33.1238   15.8006   15.9384 H   0  0  0  0  0  0  0  0  0  0  0  0
 11 13  1  0  0  0
 11 10  1  0  0  0
 13 18  1  0  0  0
 13 14  1  0  0  0
 18 19  1  0  0  0
 14 15  2  0  0  0
 14 16  1  0  0  0
  1  2  2  0  0  0
  1  8  1  0  0  0
  2  3  1  0  0  0
  2  4  1  0  0  0
  4  5  1  0  0  0
  4  6  2  0  0  0
  6 10  1  0  0  0
  6  7  1  0  0  0
  7  8  2  0  0  0
  7 21  1  0  0  0
 21 22  1  0  0  0
 22 23  1  0  0  0
 23 24  2  0  0  0
 23 25  1  0  0  0
 23 26  1  0  0  0
 11 12  1  0  0  0
 19 20  1  0  0  0
 16 17  1  0  0  0
  5  9  1  0  0  0
 25 27  1  0  0  0
 26 28  1  0  0  0
M  END
> <minimizedAffinity>
-6.96568

$$$$
