3EJP_HN2_A_1049


 24 26  0  0  0  0  0  0  0  0999 V2000
   29.0746   65.4715    7.9951 C   0  0  0  0  0  0  0  0  0  0  0  0
   29.0500   65.3213    6.4648 C   0  0  0  0  0  0  0  0  0  0  0  0
   29.6474   66.5438    5.7527 C   0  0  0  0  0  0  0  0  0  0  0  0
   31.0891   66.7968    6.1826 C   0  0  0  0  0  0  0  0  0  0  0  0
   31.5525   68.0226    5.6262 O   0  0  0  0  0  0  0  0  0  0  0  0
   31.1376   66.9067    7.7018 C   0  0  0  0  0  0  0  0  0  0  0  0
   32.5274   66.9535    8.3369 C   0  0  0  0  0  0  0  0  0  0  0  0
   33.5150   66.1245    7.6512 O   0  0  0  0  0  0  0  0  0  0  0  0
   30.5068   65.7338    8.3435 N   0  0  0  0  0  0  0  0  0  0  0  0
   30.8155   65.9229    9.7875 C   0  0  0  0  0  0  0  0  0  0  0  0
   32.2715   66.4278    9.7614 C   0  0  0  0  0  0  0  0  0  0  0  0
   33.2072   65.3682   10.0725 O   0  0  0  0  0  0  0  0  0  0  0  0
   30.9918   68.7508    5.9363 H   0  0  0  0  0  0  0  0  0  0  0  0
   33.2132   65.2027    7.6423 H   0  0  0  0  0  0  0  0  0  0  0  0
   33.1121   64.6524    9.4248 H   0  0  0  0  0  0  0  0  0  0  0  0
   28.0974   66.5426    8.5111 C   0  0  0  0  0  0  0  0  0  0  0  0
   27.4299   66.5997   10.8092 O   0  0  0  0  0  0  0  0  0  0  0  0
   27.2875   66.0850    9.7144 C   0  0  0  0  0  0  0  0  0  0  0  0
   26.3586   64.9162    9.5746 C   0  0  0  0  0  0  0  0  0  0  0  0
   26.3936   63.9188   10.5581 C   0  0  0  0  0  0  0  0  0  0  0  0
   25.5537   62.8053   10.4456 C   0  0  0  0  0  0  0  0  0  0  0  0
   24.6940   62.6986    9.3552 C   0  0  0  0  0  0  0  0  0  0  0  0
   24.6676   63.6796    8.3542 C   0  0  0  0  0  0  0  0  0  0  0  0
   25.5032   64.8108    8.4721 C   0  0  0  0  0  0  0  0  0  0  0  0
 17 18  2  0  0  0
 18 19  1  0  0  0
 18 16  1  0  0  0
 19 20  2  0  0  0
 19 24  1  0  0  0
 20 21  1  0  0  0
 21 22  2  0  0  0
 22 23  1  0  0  0
 23 24  2  0  0  0
 16  1  1  0  0  0
  1  2  1  0  0  0
  1  9  1  0  0  0
  2  3  1  0  0  0
  3  4  1  0  0  0
  4  5  1  0  0  0
  4  6  1  0  0  0
  6  7  1  0  0  0
  6  9  1  0  0  0
  7  8  1  0  0  0
  7 11  1  0  0  0
  9 10  1  0  0  0
 10 11  1  0  0  0
 11 12  1  0  0  0
  5 13  1  0  0  0
  8 14  1  0  0  0
 12 15  1  0  0  0
M  END
> <minimizedAffinity>
-9.40260

$$$$
3EJP_HN2_A_1049


 24 26  0  0  0  0  0  0  0  0999 V2000
   29.0823   65.3096    7.9242 C   0  0  0  0  0  0  0  0  0  0  0  0
   29.1130   65.2181    6.3894 C   0  0  0  0  0  0  0  0  0  0  0  0
   29.6837   66.4898    5.7443 C   0  0  0  0  0  0  0  0  0  0  0  0
   31.0994   66.7816    6.2319 C   0  0  0  0  0  0  0  0  0  0  0  0
   31.5310   68.0452    5.7381 O   0  0  0  0  0  0  0  0  0  0  0  0
   31.0944   66.8341    7.7549 C   0  0  0  0  0  0  0  0  0  0  0  0
   32.4600   66.9100    8.4380 C   0  0  0  0  0  0  0  0  0  0  0  0
   33.5016   66.1474    7.7553 O   0  0  0  0  0  0  0  0  0  0  0  0
   30.4908   65.6135    8.3304 N   0  0  0  0  0  0  0  0  0  0  0  0
   30.7449   65.7580    9.7901 C   0  0  0  0  0  0  0  0  0  0  0  0
   32.1796   66.3197    9.8322 C   0  0  0  0  0  0  0  0  0  0  0  0
   33.1465   65.2860   10.1346 O   0  0  0  0  0  0  0  0  0  0  0  0
   30.9319   68.7385    6.0562 H   0  0  0  0  0  0  0  0  0  0  0  0
   33.2375   65.2156    7.7015 H   0  0  0  0  0  0  0  0  0  0  0  0
   33.1011   64.5928    9.4576 H   0  0  0  0  0  0  0  0  0  0  0  0
   28.0467   66.3209    8.4468 C   0  0  0  0  0  0  0  0  0  0  0  0
   25.7824   65.8662    7.8171 O   0  0  0  0  0  0  0  0  0  0  0  0
   26.6649   65.7165    8.6432 C   0  0  0  0  0  0  0  0  0  0  0  0
   26.3517   64.9968    9.9209 C   0  0  0  0  0  0  0  0  0  0  0  0
   25.4379   63.9354    9.8784 C   0  0  0  0  0  0  0  0  0  0  0  0
   25.1092   63.2568   11.0571 C   0  0  0  0  0  0  0  0  0  0  0  0
   25.6914   63.6458   12.2610 C   0  0  0  0  0  0  0  0  0  0  0  0
   26.5893   64.7208   12.3179 C   0  0  0  0  0  0  0  0  0  0  0  0
   26.9338   65.3981   11.1286 C   0  0  0  0  0  0  0  0  0  0  0  0
 17 18  2  0  0  0
 18 19  1  0  0  0
 18 16  1  0  0  0
 19 20  2  0  0  0
 19 24  1  0  0  0
 20 21  1  0  0  0
 21 22  2  0  0  0
 22 23  1  0  0  0
 23 24  2  0  0  0
 16  1  1  0  0  0
  1  2  1  0  0  0
  1  9  1  0  0  0
  2  3  1  0  0  0
  3  4  1  0  0  0
  4  5  1  0  0  0
  4  6  1  0  0  0
  6  7  1  0  0  0
  6  9  1  0  0  0
  7  8  1  0  0  0
  7 11  1  0  0  0
  9 10  1  0  0  0
 10 11  1  0  0  0
 11 12  1  0  0  0
  5 13  1  0  0  0
  8 14  1  0  0  0
 12 15  1  0  0  0
M  END
> <minimizedAffinity>
-9.36738

$$$$
3EJP_HN2_A_1049


 24 26  0  0  0  0  0  0  0  0999 V2000
   29.0583   65.3669    7.8934 C   0  0  0  0  0  0  0  0  0  0  0  0
   29.0914   65.2793    6.3584 C   0  0  0  0  0  0  0  0  0  0  0  0
   29.6832   66.5437    5.7183 C   0  0  0  0  0  0  0  0  0  0  0  0
   31.1021   66.8123    6.2102 C   0  0  0  0  0  0  0  0  0  0  0  0
   31.5544   68.0704    5.7209 O   0  0  0  0  0  0  0  0  0  0  0  0
   31.0942   66.8606    7.7333 C   0  0  0  0  0  0  0  0  0  0  0  0
   32.4590   66.9136    8.4199 C   0  0  0  0  0  0  0  0  0  0  0  0
   33.4904   66.1368    7.7376 O   0  0  0  0  0  0  0  0  0  0  0  0
   30.4703   65.6479    8.3039 N   0  0  0  0  0  0  0  0  0  0  0  0
   30.7230   65.7844    9.7645 C   0  0  0  0  0  0  0  0  0  0  0  0
   32.1661   66.3238    9.8117 C   0  0  0  0  0  0  0  0  0  0  0  0
   33.1161   65.2744   10.1136 O   0  0  0  0  0  0  0  0  0  0  0  0
   30.9652   68.7720    6.0395 H   0  0  0  0  0  0  0  0  0  0  0  0
   33.2121   65.2094    7.6805 H   0  0  0  0  0  0  0  0  0  0  0  0
   33.0618   64.5839    9.4346 H   0  0  0  0  0  0  0  0  0  0  0  0
   28.0372   66.3927    8.4163 C   0  0  0  0  0  0  0  0  0  0  0  0
   26.7183   64.5436    9.1724 O   0  0  0  0  0  0  0  0  0  0  0  0
   26.8594   65.7529    9.1351 C   0  0  0  0  0  0  0  0  0  0  0  0
   25.7997   66.6284    9.7345 C   0  0  0  0  0  0  0  0  0  0  0  0
   24.4579   66.3193    9.4749 C   0  0  0  0  0  0  0  0  0  0  0  0
   23.4460   67.1287   10.0029 C   0  0  0  0  0  0  0  0  0  0  0  0
   23.7834   68.2352   10.7783 C   0  0  0  0  0  0  0  0  0  0  0  0
   25.1232   68.5661   11.0250 C   0  0  0  0  0  0  0  0  0  0  0  0
   26.1457   67.7436   10.5057 C   0  0  0  0  0  0  0  0  0  0  0  0
 17 18  2  0  0  0
 18 19  1  0  0  0
 18 16  1  0  0  0
 19 20  2  0  0  0
 19 24  1  0  0  0
 20 21  1  0  0  0
 21 22  2  0  0  0
 22 23  1  0  0  0
 23 24  2  0  0  0
 16  1  1  0  0  0
  1  2  1  0  0  0
  1  9  1  0  0  0
  2  3  1  0  0  0
  3  4  1  0  0  0
  4  5  1  0  0  0
  4  6  1  0  0  0
  6  7  1  0  0  0
  6  9  1  0  0  0
  7  8  1  0  0  0
  7 11  1  0  0  0
  9 10  1  0  0  0
 10 11  1  0  0  0
 11 12  1  0  0  0
  5 13  1  0  0  0
  8 14  1  0  0  0
 12 15  1  0  0  0
M  END
> <minimizedAffinity>
-9.02546

$$$$
3EJP_HN2_A_1049


 24 26  0  0  0  0  0  0  0  0999 V2000
   27.0822   64.2276   10.7534 C   0  0  0  0  0  0  0  0  0  0  0  0
   27.8168   63.0098   11.3383 C   0  0  0  0  0  0  0  0  0  0  0  0
   28.2349   63.2317   12.7994 C   0  0  0  0  0  0  0  0  0  0  0  0
   27.0331   63.5347   13.6889 C   0  0  0  0  0  0  0  0  0  0  0  0
   27.4744   63.8898   14.9950 O   0  0  0  0  0  0  0  0  0  0  0  0
   26.2694   64.7144   13.0994 C   0  0  0  0  0  0  0  0  0  0  0  0
   24.9169   65.0360   13.7354 C   0  0  0  0  0  0  0  0  0  0  0  0
   24.1768   63.8549   14.1711 O   0  0  0  0  0  0  0  0  0  0  0  0
   25.9329   64.4782   11.6795 N   0  0  0  0  0  0  0  0  0  0  0  0
   25.0439   65.6232   11.3404 C   0  0  0  0  0  0  0  0  0  0  0  0
   24.1677   65.7591   12.6011 C   0  0  0  0  0  0  0  0  0  0  0  0
   22.8641   65.1599   12.4095 O   0  0  0  0  0  0  0  0  0  0  0  0
   28.0417   64.6748   14.9424 H   0  0  0  0  0  0  0  0  0  0  0  0
   24.0270   63.2692   13.4126 H   0  0  0  0  0  0  0  0  0  0  0  0
   22.9686   64.2185   12.2005 H   0  0  0  0  0  0  0  0  0  0  0  0
   28.0013   65.4452   10.5505 C   0  0  0  0  0  0  0  0  0  0  0  0
   27.5441   65.4891    8.2011 O   0  0  0  0  0  0  0  0  0  0  0  0
   28.3492   65.6969    9.0914 C   0  0  0  0  0  0  0  0  0  0  0  0
   29.7404   66.1239    8.7300 C   0  0  0  0  0  0  0  0  0  0  0  0
   29.9818   66.5614    7.4210 C   0  0  0  0  0  0  0  0  0  0  0  0
   31.2737   66.9473    7.0467 C   0  0  0  0  0  0  0  0  0  0  0  0
   32.3069   66.8892    7.9788 C   0  0  0  0  0  0  0  0  0  0  0  0
   32.0805   66.4315    9.2843 C   0  0  0  0  0  0  0  0  0  0  0  0
   30.7759   66.0551    9.6689 C   0  0  0  0  0  0  0  0  0  0  0  0
 17 18  2  0  0  0
 18 19  1  0  0  0
 18 16  1  0  0  0
 19 20  2  0  0  0
 19 24  1  0  0  0
 20 21  1  0  0  0
 21 22  2  0  0  0
 22 23  1  0  0  0
 23 24  2  0  0  0
 16  1  1  0  0  0
  1  2  1  0  0  0
  1  9  1  0  0  0
  2  3  1  0  0  0
  3  4  1  0  0  0
  4  5  1  0  0  0
  4  6  1  0  0  0
  6  7  1  0  0  0
  6  9  1  0  0  0
  7  8  1  0  0  0
  7 11  1  0  0  0
  9 10  1  0  0  0
 10 11  1  0  0  0
 11 12  1  0  0  0
  5 13  1  0  0  0
  8 14  1  0  0  0
 12 15  1  0  0  0
M  END
> <minimizedAffinity>
-8.21926

$$$$
3EJP_HN2_A_1049


 24 26  0  0  0  0  0  0  0  0999 V2000
   27.6522   65.8822   10.8096 C   0  0  0  0  0  0  0  0  0  0  0  0
   27.0391   67.0204    9.9769 C   0  0  0  0  0  0  0  0  0  0  0  0
   25.9198   66.5227    9.0505 C   0  0  0  0  0  0  0  0  0  0  0  0
   24.7978   65.8494    9.8347 C   0  0  0  0  0  0  0  0  0  0  0  0
   23.8622   65.2636    8.9356 O   0  0  0  0  0  0  0  0  0  0  0  0
   25.3949   64.7448   10.6981 C   0  0  0  0  0  0  0  0  0  0  0  0
   24.4566   64.0916   11.7130 C   0  0  0  0  0  0  0  0  0  0  0  0
   23.4959   65.0179   12.3059 O   0  0  0  0  0  0  0  0  0  0  0  0
   26.5005   65.2581   11.5345 N   0  0  0  0  0  0  0  0  0  0  0  0
   26.8204   64.1098   12.4264 C   0  0  0  0  0  0  0  0  0  0  0  0
   25.4266   63.5563   12.7823 C   0  0  0  0  0  0  0  0  0  0  0  0
   25.0020   63.9902   14.0962 O   0  0  0  0  0  0  0  0  0  0  0  0
   24.3120   64.6029    8.3860 H   0  0  0  0  0  0  0  0  0  0  0  0
   23.9718   65.7381   12.7482 H   0  0  0  0  0  0  0  0  0  0  0  0
   24.9702   64.9594   14.1220 H   0  0  0  0  0  0  0  0  0  0  0  0
   28.4724   64.8916    9.9644 C   0  0  0  0  0  0  0  0  0  0  0  0
   30.7405   65.3383   10.5860 O   0  0  0  0  0  0  0  0  0  0  0  0
   29.8968   65.3590    9.7076 C   0  0  0  0  0  0  0  0  0  0  0  0
   30.2501   65.9422    8.3721 C   0  0  0  0  0  0  0  0  0  0  0  0
   31.4841   66.5921    8.2369 C   0  0  0  0  0  0  0  0  0  0  0  0
   31.8345   67.1645    7.0091 C   0  0  0  0  0  0  0  0  0  0  0  0
   30.9514   67.0852    5.9352 C   0  0  0  0  0  0  0  0  0  0  0  0
   29.7049   66.4572    6.0666 C   0  0  0  0  0  0  0  0  0  0  0  0
   29.3546   65.8664    7.2995 C   0  0  0  0  0  0  0  0  0  0  0  0
 17 18  2  0  0  0
 18 19  1  0  0  0
 18 16  1  0  0  0
 19 20  2  0  0  0
 19 24  1  0  0  0
 20 21  1  0  0  0
 21 22  2  0  0  0
 22 23  1  0  0  0
 23 24  2  0  0  0
 16  1  1  0  0  0
  1  2  1  0  0  0
  1  9  1  0  0  0
  2  3  1  0  0  0
  3  4  1  0  0  0
  4  5  1  0  0  0
  4  6  1  0  0  0
  6  7  1  0  0  0
  6  9  1  0  0  0
  7  8  1  0  0  0
  7 11  1  0  0  0
  9 10  1  0  0  0
 10 11  1  0  0  0
 11 12  1  0  0  0
  5 13  1  0  0  0
  8 14  1  0  0  0
 12 15  1  0  0  0
M  END
> <minimizedAffinity>
-8.16765

$$$$
3EJP_HN2_A_1049


 24 26  0  0  0  0  0  0  0  0999 V2000
   26.6166   65.8110   10.7823 C   0  0  0  0  0  0  0  0  0  0  0  0
   25.1004   65.8866   11.0276 C   0  0  0  0  0  0  0  0  0  0  0  0
   24.5164   64.5360   11.4678 C   0  0  0  0  0  0  0  0  0  0  0  0
   25.1797   64.0247   12.7429 C   0  0  0  0  0  0  0  0  0  0  0  0
   24.7277   62.7053   13.0286 O   0  0  0  0  0  0  0  0  0  0  0  0
   26.6882   63.9834   12.5306 C   0  0  0  0  0  0  0  0  0  0  0  0
   27.5418   63.6945   13.7654 C   0  0  0  0  0  0  0  0  0  0  0  0
   27.0117   64.2765   14.9954 O   0  0  0  0  0  0  0  0  0  0  0  0
   27.1981   65.2885   12.0591 N   0  0  0  0  0  0  0  0  0  0  0  0
   28.6761   65.1144   12.0939 C   0  0  0  0  0  0  0  0  0  0  0  0
   28.8962   64.3309   13.4028 C   0  0  0  0  0  0  0  0  0  0  0  0
   29.3370   65.1988   14.4740 O   0  0  0  0  0  0  0  0  0  0  0  0
   24.9550   62.1187   12.2903 H   0  0  0  0  0  0  0  0  0  0  0  0
   26.9377   65.2382   14.8924 H   0  0  0  0  0  0  0  0  0  0  0  0
   28.6701   65.8859   14.6286 H   0  0  0  0  0  0  0  0  0  0  0  0
   26.9852   64.9815    9.5396 C   0  0  0  0  0  0  0  0  0  0  0  0
   26.2907   66.1462    7.5668 O   0  0  0  0  0  0  0  0  0  0  0  0
   27.2123   65.8304    8.2982 C   0  0  0  0  0  0  0  0  0  0  0  0
   28.6105   66.2129    7.9143 C   0  0  0  0  0  0  0  0  0  0  0  0
   28.8672   66.5332    6.5746 C   0  0  0  0  0  0  0  0  0  0  0  0
   30.1657   66.8744    6.1805 C   0  0  0  0  0  0  0  0  0  0  0  0
   31.1902   66.8888    7.1238 C   0  0  0  0  0  0  0  0  0  0  0  0
   30.9484   66.5479    8.4619 C   0  0  0  0  0  0  0  0  0  0  0  0
   29.6371   66.2172    8.8653 C   0  0  0  0  0  0  0  0  0  0  0  0
 17 18  2  0  0  0
 18 19  1  0  0  0
 18 16  1  0  0  0
 19 20  2  0  0  0
 19 24  1  0  0  0
 20 21  1  0  0  0
 21 22  2  0  0  0
 22 23  1  0  0  0
 23 24  2  0  0  0
 16  1  1  0  0  0
  1  2  1  0  0  0
  1  9  1  0  0  0
  2  3  1  0  0  0
  3  4  1  0  0  0
  4  5  1  0  0  0
  4  6  1  0  0  0
  6  7  1  0  0  0
  6  9  1  0  0  0
  7  8  1  0  0  0
  7 11  1  0  0  0
  9 10  1  0  0  0
 10 11  1  0  0  0
 11 12  1  0  0  0
  5 13  1  0  0  0
  8 14  1  0  0  0
 12 15  1  0  0  0
M  END
> <minimizedAffinity>
-7.99640

$$$$
3EJP_HN2_A_1049


 24 26  0  0  0  0  0  0  0  0999 V2000
   27.2490   66.2272   11.1424 C   0  0  0  0  0  0  0  0  0  0  0  0
   26.7355   66.9947   12.3721 C   0  0  0  0  0  0  0  0  0  0  0  0
   25.9882   68.2789   11.9833 C   0  0  0  0  0  0  0  0  0  0  0  0
   24.7983   67.9847   11.0752 C   0  0  0  0  0  0  0  0  0  0  0  0
   24.2306   69.2045   10.6099 O   0  0  0  0  0  0  0  0  0  0  0  0
   25.2836   67.1871    9.8708 C   0  0  0  0  0  0  0  0  0  0  0  0
   24.2033   66.6188    8.9505 C   0  0  0  0  0  0  0  0  0  0  0  0
   23.0008   66.1829    9.6552 O   0  0  0  0  0  0  0  0  0  0  0  0
   26.0401   65.9890   10.2920 N   0  0  0  0  0  0  0  0  0  0  0  0
   26.2595   65.2533    9.0166 C   0  0  0  0  0  0  0  0  0  0  0  0
   24.9105   65.4209    8.2902 C   0  0  0  0  0  0  0  0  0  0  0  0
   24.0903   64.2345    8.4118 O   0  0  0  0  0  0  0  0  0  0  0  0
   24.8983   69.7034   10.1137 H   0  0  0  0  0  0  0  0  0  0  0  0
   23.2361   65.5042   10.3070 H   0  0  0  0  0  0  0  0  0  0  0  0
   23.9209   64.0533    9.3496 H   0  0  0  0  0  0  0  0  0  0  0  0
   28.3948   66.9524   10.4148 C   0  0  0  0  0  0  0  0  0  0  0  0
   29.8032   65.0222   10.5591 O   0  0  0  0  0  0  0  0  0  0  0  0
   29.4836   66.0109    9.9234 C   0  0  0  0  0  0  0  0  0  0  0  0
   30.2436   66.3522    8.6766 C   0  0  0  0  0  0  0  0  0  0  0  0
   31.6231   66.5750    8.7799 C   0  0  0  0  0  0  0  0  0  0  0  0
   32.3571   66.9151    7.6382 C   0  0  0  0  0  0  0  0  0  0  0  0
   31.7080   67.0320    6.4116 C   0  0  0  0  0  0  0  0  0  0  0  0
   30.3246   66.8335    6.3018 C   0  0  0  0  0  0  0  0  0  0  0  0
   29.5839   66.4763    7.4487 C   0  0  0  0  0  0  0  0  0  0  0  0
 17 18  2  0  0  0
 18 19  1  0  0  0
 18 16  1  0  0  0
 19 20  2  0  0  0
 19 24  1  0  0  0
 20 21  1  0  0  0
 21 22  2  0  0  0
 22 23  1  0  0  0
 23 24  2  0  0  0
 16  1  1  0  0  0
  1  2  1  0  0  0
  1  9  1  0  0  0
  2  3  1  0  0  0
  3  4  1  0  0  0
  4  5  1  0  0  0
  4  6  1  0  0  0
  6  7  1  0  0  0
  6  9  1  0  0  0
  7  8  1  0  0  0
  7 11  1  0  0  0
  9 10  1  0  0  0
 10 11  1  0  0  0
 11 12  1  0  0  0
  5 13  1  0  0  0
  8 14  1  0  0  0
 12 15  1  0  0  0
M  END
> <minimizedAffinity>
-7.83992

$$$$
3EJP_HN2_A_1049


 24 26  0  0  0  0  0  0  0  0999 V2000
   26.8506   66.4930    9.3542 C   0  0  0  0  0  0  0  0  0  0  0  0
   26.2496   65.1865    8.8093 C   0  0  0  0  0  0  0  0  0  0  0  0
   25.6277   64.3272    9.9200 C   0  0  0  0  0  0  0  0  0  0  0  0
   24.5311   65.0802   10.6668 C   0  0  0  0  0  0  0  0  0  0  0  0
   24.0920   64.3144   11.7838 O   0  0  0  0  0  0  0  0  0  0  0  0
   25.0996   66.3984   11.1780 C   0  0  0  0  0  0  0  0  0  0  0  0
   24.0969   67.3870   11.7733 C   0  0  0  0  0  0  0  0  0  0  0  0
   22.7996   67.3835   11.1027 O   0  0  0  0  0  0  0  0  0  0  0  0
   25.7321   67.1678   10.0856 N   0  0  0  0  0  0  0  0  0  0  0  0
   26.0484   68.4755   10.7228 C   0  0  0  0  0  0  0  0  0  0  0  0
   24.8010   68.7436   11.5876 C   0  0  0  0  0  0  0  0  0  0  0  0
   23.9036   69.6829   10.9492 O   0  0  0  0  0  0  0  0  0  0  0  0
   24.8393   64.1575   12.3820 H   0  0  0  0  0  0  0  0  0  0  0  0
   22.9201   67.5972   10.1642 H   0  0  0  0  0  0  0  0  0  0  0  0
   23.6203   69.3279   10.0922 H   0  0  0  0  0  0  0  0  0  0  0  0
   28.1113   66.2664   10.2072 C   0  0  0  0  0  0  0  0  0  0  0  0
   29.3553   64.2482    9.8761 O   0  0  0  0  0  0  0  0  0  0  0  0
   29.1513   65.3950    9.5198 C   0  0  0  0  0  0  0  0  0  0  0  0
   30.0080   65.9854    8.4399 C   0  0  0  0  0  0  0  0  0  0  0  0
   31.2959   66.4216    8.7781 C   0  0  0  0  0  0  0  0  0  0  0  0
   32.1125   66.9957    7.7975 C   0  0  0  0  0  0  0  0  0  0  0  0
   31.6351   67.1303    6.4961 C   0  0  0  0  0  0  0  0  0  0  0  0
   30.3400   66.7179    6.1528 C   0  0  0  0  0  0  0  0  0  0  0  0
   29.5192   66.1255    7.1362 C   0  0  0  0  0  0  0  0  0  0  0  0
 17 18  2  0  0  0
 18 19  1  0  0  0
 18 16  1  0  0  0
 19 20  2  0  0  0
 19 24  1  0  0  0
 20 21  1  0  0  0
 21 22  2  0  0  0
 22 23  1  0  0  0
 23 24  2  0  0  0
 16  1  1  0  0  0
  1  2  1  0  0  0
  1  9  1  0  0  0
  2  3  1  0  0  0
  3  4  1  0  0  0
  4  5  1  0  0  0
  4  6  1  0  0  0
  6  7  1  0  0  0
  6  9  1  0  0  0
  7  8  1  0  0  0
  7 11  1  0  0  0
  9 10  1  0  0  0
 10 11  1  0  0  0
 11 12  1  0  0  0
  5 13  1  0  0  0
  8 14  1  0  0  0
 12 15  1  0  0  0
M  END
> <minimizedAffinity>
-7.80867

$$$$
3EJP_HN2_A_1049


 24 26  0  0  0  0  0  0  0  0999 V2000
   28.3098   65.8923   11.8725 C   0  0  0  0  0  0  0  0  0  0  0  0
   28.5773   67.1183   12.7614 C   0  0  0  0  0  0  0  0  0  0  0  0
   27.4051   68.1106   12.7482 C   0  0  0  0  0  0  0  0  0  0  0  0
   26.1089   67.4569   13.2170 C   0  0  0  0  0  0  0  0  0  0  0  0
   25.0205   68.3574   13.0401 O   0  0  0  0  0  0  0  0  0  0  0  0
   25.8506   66.2148   12.3727 C   0  0  0  0  0  0  0  0  0  0  0  0
   24.7068   65.3083   12.8274 C   0  0  0  0  0  0  0  0  0  0  0  0
   24.5645   65.2249   14.2784 O   0  0  0  0  0  0  0  0  0  0  0  0
   27.0228   65.3141   12.3734 N   0  0  0  0  0  0  0  0  0  0  0  0
   26.5241   64.0981   11.6743 C   0  0  0  0  0  0  0  0  0  0  0  0
   25.0992   63.9400   12.2403 C   0  0  0  0  0  0  0  0  0  0  0  0
   25.0467   62.9262   13.2720 O   0  0  0  0  0  0  0  0  0  0  0  0
   24.9425   68.5899   12.1016 H   0  0  0  0  0  0  0  0  0  0  0  0
   25.3899   64.8941   14.6658 H   0  0  0  0  0  0  0  0  0  0  0  0
   25.6458   63.1693   13.9950 H   0  0  0  0  0  0  0  0  0  0  0  0
   28.3045   66.2269   10.3704 C   0  0  0  0  0  0  0  0  0  0  0  0
   29.4989   64.2187    9.8500 O   0  0  0  0  0  0  0  0  0  0  0  0
   29.2800   65.3826    9.5649 C   0  0  0  0  0  0  0  0  0  0  0  0
   30.0578   66.0183    8.4516 C   0  0  0  0  0  0  0  0  0  0  0  0
   29.4474   66.1316    7.1955 C   0  0  0  0  0  0  0  0  0  0  0  0
   30.1541   66.7016    6.1308 C   0  0  0  0  0  0  0  0  0  0  0  0
   31.4584   67.1473    6.3301 C   0  0  0  0  0  0  0  0  0  0  0  0
   32.0861   67.0178    7.5769 C   0  0  0  0  0  0  0  0  0  0  0  0
   31.3710   66.4564    8.6564 C   0  0  0  0  0  0  0  0  0  0  0  0
 17 18  2  0  0  0
 18 19  1  0  0  0
 18 16  1  0  0  0
 19 20  2  0  0  0
 19 24  1  0  0  0
 20 21  1  0  0  0
 21 22  2  0  0  0
 22 23  1  0  0  0
 23 24  2  0  0  0
 16  1  1  0  0  0
  1  2  1  0  0  0
  1  9  1  0  0  0
  2  3  1  0  0  0
  3  4  1  0  0  0
  4  5  1  0  0  0
  4  6  1  0  0  0
  6  7  1  0  0  0
  6  9  1  0  0  0
  7  8  1  0  0  0
  7 11  1  0  0  0
  9 10  1  0  0  0
 10 11  1  0  0  0
 11 12  1  0  0  0
  5 13  1  0  0  0
  8 14  1  0  0  0
 12 15  1  0  0  0
M  END
> <minimizedAffinity>
-7.66317

$$$$
3EJP_HN2_A_1049


 24 26  0  0  0  0  0  0  0  0999 V2000
   25.0071   64.9505    9.3204 C   0  0  0  0  0  0  0  0  0  0  0  0
   25.1402   63.4390    9.5702 C   0  0  0  0  0  0  0  0  0  0  0  0
   25.6173   63.1270   10.9963 C   0  0  0  0  0  0  0  0  0  0  0  0
   24.6696   63.7008   12.0450 C   0  0  0  0  0  0  0  0  0  0  0  0
   25.2250   63.5308   13.3448 O   0  0  0  0  0  0  0  0  0  0  0  0
   24.4936   65.1922   11.7860 C   0  0  0  0  0  0  0  0  0  0  0  0
   23.4176   65.9034   12.6067 C   0  0  0  0  0  0  0  0  0  0  0  0
   22.2385   65.0820   12.8670 O   0  0  0  0  0  0  0  0  0  0  0  0
   24.0839   65.4480   10.3888 N   0  0  0  0  0  0  0  0  0  0  0  0
   23.7807   66.9054   10.3794 C   0  0  0  0  0  0  0  0  0  0  0  0
   23.0544   67.1110   11.7232 C   0  0  0  0  0  0  0  0  0  0  0  0
   21.6195   67.1804   11.5467 O   0  0  0  0  0  0  0  0  0  0  0  0
   26.0773   63.9913   13.3950 H   0  0  0  0  0  0  0  0  0  0  0  0
   21.8467   64.8027   12.0248 H   0  0  0  0  0  0  0  0  0  0  0  0
   21.3033   66.3573   11.1424 H   0  0  0  0  0  0  0  0  0  0  0  0
   26.3637   65.6757    9.2762 C   0  0  0  0  0  0  0  0  0  0  0  0
   26.5946   64.8871    7.0278 O   0  0  0  0  0  0  0  0  0  0  0  0
   27.0978   65.4937    7.9566 C   0  0  0  0  0  0  0  0  0  0  0  0
   28.5058   65.9920    7.8232 C   0  0  0  0  0  0  0  0  0  0  0  0
   28.9260   66.4688    6.5745 C   0  0  0  0  0  0  0  0  0  0  0  0
   30.2399   66.9218    6.4123 C   0  0  0  0  0  0  0  0  0  0  0  0
   31.1173   66.8909    7.4934 C   0  0  0  0  0  0  0  0  0  0  0  0
   30.7135   66.3947    8.7408 C   0  0  0  0  0  0  0  0  0  0  0  0
   29.3849   65.9504    8.9113 C   0  0  0  0  0  0  0  0  0  0  0  0
 17 18  2  0  0  0
 18 19  1  0  0  0
 18 16  1  0  0  0
 19 20  2  0  0  0
 19 24  1  0  0  0
 20 21  1  0  0  0
 21 22  2  0  0  0
 22 23  1  0  0  0
 23 24  2  0  0  0
 16  1  1  0  0  0
  1  2  1  0  0  0
  1  9  1  0  0  0
  2  3  1  0  0  0
  3  4  1  0  0  0
  4  5  1  0  0  0
  4  6  1  0  0  0
  6  7  1  0  0  0
  6  9  1  0  0  0
  7  8  1  0  0  0
  7 11  1  0  0  0
  9 10  1  0  0  0
 10 11  1  0  0  0
 11 12  1  0  0  0
  5 13  1  0  0  0
  8 14  1  0  0  0
 12 15  1  0  0  0
M  END
> <minimizedAffinity>
-7.61709

$$$$
