2J78_GOX_A_1451


 19 19  0  0  0  0  0  0  0  0999 V2000
    0.1216   11.1861   10.3082 C   0  0  0  0  0  0  0  0  0  0  0  0
    0.4376   10.9413   11.5646 N   0  0  0  0  0  0  0  0  0  0  0  0
    1.2621   11.8233    9.4910 C   0  0  0  0  0  0  0  0  0  0  0  0
   -1.1588   10.8632    9.8160 N   0  0  0  0  0  0  0  0  0  0  0  0
   -0.5145   10.3311   12.3847 O   0  0  0  0  0  0  0  0  0  0  0  0
    1.8398   12.9072   10.1778 O   0  0  0  0  0  0  0  0  0  0  0  0
    0.7108   12.2813    8.1432 C   0  0  0  0  0  0  0  0  0  0  0  0
    1.8372   12.5236    7.3031 O   0  0  0  0  0  0  0  0  0  0  0  0
   -0.1803   11.1934    7.5358 C   0  0  0  0  0  0  0  0  0  0  0  0
   -0.4823   11.4876    6.1769 O   0  0  0  0  0  0  0  0  0  0  0  0
   -1.4657   11.1640    8.4112 C   0  0  0  0  0  0  0  0  0  0  0  0
   -1.8322   10.4455   10.4002 H   0  0  0  0  0  0  0  0  0  0  0  0
   -0.3122   10.1475   13.2810 H   0  0  0  0  0  0  0  0  0  0  0  0
    1.1669   13.5890   10.3302 H   0  0  0  0  0  0  0  0  0  0  0  0
    2.3608   11.7111    7.2219 H   0  0  0  0  0  0  0  0  0  0  0  0
   -0.9266   12.3482    6.1234 H   0  0  0  0  0  0  0  0  0  0  0  0
   -2.4697   10.0897    7.9440 C   0  0  0  0  0  0  0  0  0  0  0  0
   -2.1094    8.8102    8.4258 O   0  0  0  0  0  0  0  0  0  0  0  0
   -1.2339    8.5706    8.0835 H   0  0  0  0  0  0  0  0  0  0  0  0
  1  2  2  0  0  0
  1  3  1  0  0  0
  1  4  1  0  0  0
  2  5  1  0  0  0
  3  6  1  0  0  0
  3  7  1  0  0  0
  4 11  1  0  0  0
  7  8  1  0  0  0
  7  9  1  0  0  0
  9 10  1  0  0  0
  9 11  1  0  0  0
 11 17  1  0  0  0
 17 18  1  0  0  0
  4 12  1  0  0  0
  5 13  1  0  0  0
  6 14  1  0  0  0
  8 15  1  0  0  0
 10 16  1  0  0  0
 18 19  1  0  0  0
M  END
> <minimizedAffinity>
-8.05286

$$$$
2J78_GOX_A_1451


 19 19  0  0  0  0  0  0  0  0999 V2000
    0.7957   10.6499    9.9524 C   0  0  0  0  0  0  0  0  0  0  0  0
    1.3769   11.7337    9.4771 N   0  0  0  0  0  0  0  0  0  0  0  0
    0.6932    9.4991    8.9327 C   0  0  0  0  0  0  0  0  0  0  0  0
    0.3381   10.6084   11.2847 N   0  0  0  0  0  0  0  0  0  0  0  0
    1.5522   12.8251   10.3313 O   0  0  0  0  0  0  0  0  0  0  0  0
    0.1852    9.9510    7.7007 O   0  0  0  0  0  0  0  0  0  0  0  0
   -0.2029    8.4052    9.5077 C   0  0  0  0  0  0  0  0  0  0  0  0
    0.0176    7.2397    8.7164 O   0  0  0  0  0  0  0  0  0  0  0  0
    0.1636    8.1314   10.9697 C   0  0  0  0  0  0  0  0  0  0  0  0
   -0.4698    6.9458   11.4363 O   0  0  0  0  0  0  0  0  0  0  0  0
   -0.3113    9.3812   11.7645 C   0  0  0  0  0  0  0  0  0  0  0  0
    0.4510   11.3842   11.8802 H   0  0  0  0  0  0  0  0  0  0  0  0
    1.9628   13.6059   10.0155 H   0  0  0  0  0  0  0  0  0  0  0  0
   -0.7054   10.3124    7.8311 H   0  0  0  0  0  0  0  0  0  0  0  0
    0.9556    6.9955    8.7547 H   0  0  0  0  0  0  0  0  0  0  0  0
   -1.4314    7.0364   11.3470 H   0  0  0  0  0  0  0  0  0  0  0  0
    0.0107    9.2769   13.2697 C   0  0  0  0  0  0  0  0  0  0  0  0
    1.2670    8.6640   13.4819 O   0  0  0  0  0  0  0  0  0  0  0  0
    1.2546    7.7659   13.1156 H   0  0  0  0  0  0  0  0  0  0  0  0
  1  2  2  0  0  0
  1  3  1  0  0  0
  1  4  1  0  0  0
  2  5  1  0  0  0
  3  6  1  0  0  0
  3  7  1  0  0  0
  4 11  1  0  0  0
  7  8  1  0  0  0
  7  9  1  0  0  0
  9 10  1  0  0  0
  9 11  1  0  0  0
 11 17  1  0  0  0
 17 18  1  0  0  0
  4 12  1  0  0  0
  5 13  1  0  0  0
  6 14  1  0  0  0
  8 15  1  0  0  0
 10 16  1  0  0  0
 18 19  1  0  0  0
M  END
> <minimizedAffinity>
-7.24536

$$$$
2J78_GOX_A_1451


 19 19  0  0  0  0  0  0  0  0999 V2000
    0.5348   11.2671    9.5232 C   0  0  0  0  0  0  0  0  0  0  0  0
    0.9893   12.4791    9.2729 N   0  0  0  0  0  0  0  0  0  0  0  0
   -0.6512   10.8495    8.6323 C   0  0  0  0  0  0  0  0  0  0  0  0
    1.1291   10.4719   10.5235 N   0  0  0  0  0  0  0  0  0  0  0  0
    2.0874   12.9429   10.0014 O   0  0  0  0  0  0  0  0  0  0  0  0
   -1.6363   11.8533    8.5883 O   0  0  0  0  0  0  0  0  0  0  0  0
   -1.2418    9.5487    9.1703 C   0  0  0  0  0  0  0  0  0  0  0  0
   -2.0741    9.0218    8.1393 O   0  0  0  0  0  0  0  0  0  0  0  0
   -0.1242    8.5573    9.5090 C   0  0  0  0  0  0  0  0  0  0  0  0
   -0.6559    7.2605    9.7544 O   0  0  0  0  0  0  0  0  0  0  0  0
    0.5807    9.1317   10.7710 C   0  0  0  0  0  0  0  0  0  0  0  0
    1.8944   10.8069   11.0445 H   0  0  0  0  0  0  0  0  0  0  0  0
    2.4276   13.8010    9.8407 H   0  0  0  0  0  0  0  0  0  0  0  0
   -1.9776   12.0108    9.4825 H   0  0  0  0  0  0  0  0  0  0  0  0
   -1.5447    8.8747    7.3399 H   0  0  0  0  0  0  0  0  0  0  0  0
   -1.2923    7.3049   10.4851 H   0  0  0  0  0  0  0  0  0  0  0  0
    1.7628    8.2549   11.2334 C   0  0  0  0  0  0  0  0  0  0  0  0
    2.1957    7.3943   10.1985 O   0  0  0  0  0  0  0  0  0  0  0  0
    1.4686    6.8054    9.9424 H   0  0  0  0  0  0  0  0  0  0  0  0
  1  2  2  0  0  0
  1  3  1  0  0  0
  1  4  1  0  0  0
  2  5  1  0  0  0
  3  6  1  0  0  0
  3  7  1  0  0  0
  4 11  1  0  0  0
  7  8  1  0  0  0
  7  9  1  0  0  0
  9 10  1  0  0  0
  9 11  1  0  0  0
 11 17  1  0  0  0
 17 18  1  0  0  0
  4 12  1  0  0  0
  5 13  1  0  0  0
  6 14  1  0  0  0
  8 15  1  0  0  0
 10 16  1  0  0  0
 18 19  1  0  0  0
M  END
> <minimizedAffinity>
-7.04275

$$$$
2J78_GOX_A_1451


 19 19  0  0  0  0  0  0  0  0999 V2000
   -0.1230    7.4937   10.0316 C   0  0  0  0  0  0  0  0  0  0  0  0
    0.0545    6.2557    9.6145 N   0  0  0  0  0  0  0  0  0  0  0  0
    0.2900    7.7230   11.4984 C   0  0  0  0  0  0  0  0  0  0  0  0
   -0.6406    8.4749    9.1623 N   0  0  0  0  0  0  0  0  0  0  0  0
   -0.2556    5.9484    8.2875 O   0  0  0  0  0  0  0  0  0  0  0  0
   -0.2460    6.7321   12.3416 O   0  0  0  0  0  0  0  0  0  0  0  0
   -0.1834    9.1065   11.9366 C   0  0  0  0  0  0  0  0  0  0  0  0
    0.5153    9.4139   13.1409 O   0  0  0  0  0  0  0  0  0  0  0  0
    0.1370   10.1449   10.8570 C   0  0  0  0  0  0  0  0  0  0  0  0
   -0.0506   11.4650   11.3536 O   0  0  0  0  0  0  0  0  0  0  0  0
   -0.8286    9.8379    9.6769 C   0  0  0  0  0  0  0  0  0  0  0  0
   -0.8709    8.2519    8.2315 H   0  0  0  0  0  0  0  0  0  0  0  0
   -0.1375    5.0751    7.9689 H   0  0  0  0  0  0  0  0  0  0  0  0
   -1.2146    6.7597   12.2980 H   0  0  0  0  0  0  0  0  0  0  0  0
    1.4707    9.3952   12.9743 H   0  0  0  0  0  0  0  0  0  0  0  0
   -0.9670   11.5705   11.6533 H   0  0  0  0  0  0  0  0  0  0  0  0
   -0.6155   10.7892    8.4812 C   0  0  0  0  0  0  0  0  0  0  0  0
   -1.3620   11.9798    8.6365 O   0  0  0  0  0  0  0  0  0  0  0  0
   -2.3068   11.7653    8.6835 H   0  0  0  0  0  0  0  0  0  0  0  0
  1  2  2  0  0  0
  1  3  1  0  0  0
  1  4  1  0  0  0
  2  5  1  0  0  0
  3  6  1  0  0  0
  3  7  1  0  0  0
  4 11  1  0  0  0
  7  8  1  0  0  0
  7  9  1  0  0  0
  9 10  1  0  0  0
  9 11  1  0  0  0
 11 17  1  0  0  0
 17 18  1  0  0  0
  4 12  1  0  0  0
  5 13  1  0  0  0
  6 14  1  0  0  0
  8 15  1  0  0  0
 10 16  1  0  0  0
 18 19  1  0  0  0
M  END
> <minimizedAffinity>
-6.99916

$$$$
2J78_GOX_A_1451


 19 19  0  0  0  0  0  0  0  0999 V2000
    0.2820   10.2476    8.9569 C   0  0  0  0  0  0  0  0  0  0  0  0
   -0.1041   11.2186    8.1529 N   0  0  0  0  0  0  0  0  0  0  0  0
    0.0551   10.5478   10.4512 C   0  0  0  0  0  0  0  0  0  0  0  0
    0.8377    9.0630    8.4334 N   0  0  0  0  0  0  0  0  0  0  0  0
    0.0249   11.0336    6.7743 O   0  0  0  0  0  0  0  0  0  0  0  0
    0.5336   11.8257   10.7947 O   0  0  0  0  0  0  0  0  0  0  0  0
    0.7548    9.4769   11.2841 C   0  0  0  0  0  0  0  0  0  0  0  0
    0.2304    9.5811   12.6060 O   0  0  0  0  0  0  0  0  0  0  0  0
    0.4712    8.0859   10.7086 C   0  0  0  0  0  0  0  0  0  0  0  0
    0.8865    7.0698   11.6139 O   0  0  0  0  0  0  0  0  0  0  0  0
    1.2612    8.0140    9.3707 C   0  0  0  0  0  0  0  0  0  0  0  0
    0.9398    8.9412    7.4618 H   0  0  0  0  0  0  0  0  0  0  0  0
   -0.2429   11.7099    6.1837 H   0  0  0  0  0  0  0  0  0  0  0  0
    1.4875   11.8704   10.6243 H   0  0  0  0  0  0  0  0  0  0  0  0
   -0.7305    9.4508   12.5838 H   0  0  0  0  0  0  0  0  0  0  0  0
    1.8345    7.1663   11.7955 H   0  0  0  0  0  0  0  0  0  0  0  0
    1.0597    6.6696    8.6413 C   0  0  0  0  0  0  0  0  0  0  0  0
   -0.2559    6.1836    8.8207 O   0  0  0  0  0  0  0  0  0  0  0  0
   -0.4212    6.0391    9.7655 H   0  0  0  0  0  0  0  0  0  0  0  0
  1  2  2  0  0  0
  1  3  1  0  0  0
  1  4  1  0  0  0
  2  5  1  0  0  0
  3  6  1  0  0  0
  3  7  1  0  0  0
  4 11  1  0  0  0
  7  8  1  0  0  0
  7  9  1  0  0  0
  9 10  1  0  0  0
  9 11  1  0  0  0
 11 17  1  0  0  0
 17 18  1  0  0  0
  4 12  1  0  0  0
  5 13  1  0  0  0
  6 14  1  0  0  0
  8 15  1  0  0  0
 10 16  1  0  0  0
 18 19  1  0  0  0
M  END
> <minimizedAffinity>
-6.75646

$$$$
2J78_GOX_A_1451


 19 19  0  0  0  0  0  0  0  0999 V2000
   -0.4627   10.0885   10.5453 C   0  0  0  0  0  0  0  0  0  0  0  0
   -0.8145    9.6216   11.7270 N   0  0  0  0  0  0  0  0  0  0  0  0
   -1.5489    9.9307    9.4638 C   0  0  0  0  0  0  0  0  0  0  0  0
    0.8047   10.6749   10.3555 N   0  0  0  0  0  0  0  0  0  0  0  0
    0.0853    9.7471   12.7883 O   0  0  0  0  0  0  0  0  0  0  0  0
   -2.0730    8.6249    9.4518 O   0  0  0  0  0  0  0  0  0  0  0  0
   -0.9480   10.2745    8.1033 C   0  0  0  0  0  0  0  0  0  0  0  0
   -2.0431   10.4647    7.2102 O   0  0  0  0  0  0  0  0  0  0  0  0
   -0.1126   11.5549    8.1992 C   0  0  0  0  0  0  0  0  0  0  0  0
    0.2300   12.0334    6.9037 O   0  0  0  0  0  0  0  0  0  0  0  0
    1.1534   11.1721    9.0178 C   0  0  0  0  0  0  0  0  0  0  0  0
    1.4419   10.7497   11.1023 H   0  0  0  0  0  0  0  0  0  0  0  0
   -0.1431    9.4226   13.6371 H   0  0  0  0  0  0  0  0  0  0  0  0
   -1.3636    7.9935    9.2545 H   0  0  0  0  0  0  0  0  0  0  0  0
   -2.6125   11.1757    7.5435 H   0  0  0  0  0  0  0  0  0  0  0  0
    0.7255   11.3492    6.4269 H   0  0  0  0  0  0  0  0  0  0  0  0
    2.0997   12.3717    9.2309 C   0  0  0  0  0  0  0  0  0  0  0  0
    1.7745   13.0748   10.4137 O   0  0  0  0  0  0  0  0  0  0  0  0
    0.8688   13.4161   10.3483 H   0  0  0  0  0  0  0  0  0  0  0  0
  1  2  2  0  0  0
  1  3  1  0  0  0
  1  4  1  0  0  0
  2  5  1  0  0  0
  3  6  1  0  0  0
  3  7  1  0  0  0
  4 11  1  0  0  0
  7  8  1  0  0  0
  7  9  1  0  0  0
  9 10  1  0  0  0
  9 11  1  0  0  0
 11 17  1  0  0  0
 17 18  1  0  0  0
  4 12  1  0  0  0
  5 13  1  0  0  0
  6 14  1  0  0  0
  8 15  1  0  0  0
 10 16  1  0  0  0
 18 19  1  0  0  0
M  END
> <minimizedAffinity>
-6.59219

$$$$
2J78_GOX_A_1451


 19 19  0  0  0  0  0  0  0  0999 V2000
   -0.2857    9.1892   11.9608 C   0  0  0  0  0  0  0  0  0  0  0  0
   -0.7335    9.1255   13.1992 N   0  0  0  0  0  0  0  0  0  0  0  0
   -0.5459    7.9132   11.1371 C   0  0  0  0  0  0  0  0  0  0  0  0
    0.3575   10.3518   11.4909 N   0  0  0  0  0  0  0  0  0  0  0  0
   -0.5801   10.2441   14.0219 O   0  0  0  0  0  0  0  0  0  0  0  0
   -0.1628    6.7596   11.8461 O   0  0  0  0  0  0  0  0  0  0  0  0
    0.2215    8.0072    9.8209 C   0  0  0  0  0  0  0  0  0  0  0  0
   -0.3200    7.0071    8.9608 O   0  0  0  0  0  0  0  0  0  0  0  0
    0.0428    9.3957    9.1991 C   0  0  0  0  0  0  0  0  0  0  0  0
    0.5221    9.4154    7.8596 O   0  0  0  0  0  0  0  0  0  0  0  0
    0.8470   10.3705   10.1059 C   0  0  0  0  0  0  0  0  0  0  0  0
    0.4761   11.1336   12.0774 H   0  0  0  0  0  0  0  0  0  0  0  0
   -0.8907   10.2217   14.9057 H   0  0  0  0  0  0  0  0  0  0  0  0
    0.7868    6.7996   12.0397 H   0  0  0  0  0  0  0  0  0  0  0  0
   -1.2689    7.1659    8.8376 H   0  0  0  0  0  0  0  0  0  0  0  0
    1.4592    9.1651    7.8477 H   0  0  0  0  0  0  0  0  0  0  0  0
    0.7481   11.8339    9.6277 C   0  0  0  0  0  0  0  0  0  0  0  0
    1.6312   12.6683   10.3509 O   0  0  0  0  0  0  0  0  0  0  0  0
    1.3997   12.6449   11.2926 H   0  0  0  0  0  0  0  0  0  0  0  0
  1  2  2  0  0  0
  1  3  1  0  0  0
  1  4  1  0  0  0
  2  5  1  0  0  0
  3  6  1  0  0  0
  3  7  1  0  0  0
  4 11  1  0  0  0
  7  8  1  0  0  0
  7  9  1  0  0  0
  9 10  1  0  0  0
  9 11  1  0  0  0
 11 17  1  0  0  0
 17 18  1  0  0  0
  4 12  1  0  0  0
  5 13  1  0  0  0
  6 14  1  0  0  0
  8 15  1  0  0  0
 10 16  1  0  0  0
 18 19  1  0  0  0
M  END
> <minimizedAffinity>
-6.57263

$$$$
2J78_GOX_A_1451


 19 19  0  0  0  0  0  0  0  0999 V2000
    0.9082    8.0236    9.1484 C   0  0  0  0  0  0  0  0  0  0  0  0
    1.0664    7.2136    8.1203 N   0  0  0  0  0  0  0  0  0  0  0  0
    0.0120    9.2413    8.8509 C   0  0  0  0  0  0  0  0  0  0  0  0
    1.5239    7.7407   10.3842 N   0  0  0  0  0  0  0  0  0  0  0  0
    1.8332    6.0587    8.2933 O   0  0  0  0  0  0  0  0  0  0  0  0
    0.3898    9.8738    7.6521 O   0  0  0  0  0  0  0  0  0  0  0  0
    0.1011   10.2200   10.0190 C   0  0  0  0  0  0  0  0  0  0  0  0
   -0.9887   11.1281    9.8741 O   0  0  0  0  0  0  0  0  0  0  0  0
   -0.0061    9.4701   11.3504 C   0  0  0  0  0  0  0  0  0  0  0  0
   -0.1932   10.3791   12.4290 O   0  0  0  0  0  0  0  0  0  0  0  0
    1.3249    8.6789   11.4970 C   0  0  0  0  0  0  0  0  0  0  0  0
    2.0748    6.9329   10.4990 H   0  0  0  0  0  0  0  0  0  0  0  0
    1.9592    5.4683    7.5767 H   0  0  0  0  0  0  0  0  0  0  0  0
    1.3041   10.1892    7.7271 H   0  0  0  0  0  0  0  0  0  0  0  0
   -1.8237   10.6345    9.8793 H   0  0  0  0  0  0  0  0  0  0  0  0
    0.5492   11.0027   12.4587 H   0  0  0  0  0  0  0  0  0  0  0  0
    1.3688    7.8381   12.7898 C   0  0  0  0  0  0  0  0  0  0  0  0
    1.3656    8.6648   13.9369 O   0  0  0  0  0  0  0  0  0  0  0  0
    2.1488    9.2369   13.9253 H   0  0  0  0  0  0  0  0  0  0  0  0
  1  2  2  0  0  0
  1  3  1  0  0  0
  1  4  1  0  0  0
  2  5  1  0  0  0
  3  6  1  0  0  0
  3  7  1  0  0  0
  4 11  1  0  0  0
  7  8  1  0  0  0
  7  9  1  0  0  0
  9 10  1  0  0  0
  9 11  1  0  0  0
 11 17  1  0  0  0
 17 18  1  0  0  0
  4 12  1  0  0  0
  5 13  1  0  0  0
  6 14  1  0  0  0
  8 15  1  0  0  0
 10 16  1  0  0  0
 18 19  1  0  0  0
M  END
> <minimizedAffinity>
-6.24320

$$$$
2J78_GOX_A_1451


 19 19  0  0  0  0  0  0  0  0999 V2000
    0.2328    8.2226    9.6879 C   0  0  0  0  0  0  0  0  0  0  0  0
    0.7232    7.0003    9.7495 N   0  0  0  0  0  0  0  0  0  0  0  0
    1.2351    9.3182   10.0996 C   0  0  0  0  0  0  0  0  0  0  0  0
   -1.0945    8.4412    9.2676 N   0  0  0  0  0  0  0  0  0  0  0  0
   -0.0929    5.9343    9.3630 O   0  0  0  0  0  0  0  0  0  0  0  0
    1.8743    8.9975   11.3116 O   0  0  0  0  0  0  0  0  0  0  0  0
    0.4940   10.6468   10.2251 C   0  0  0  0  0  0  0  0  0  0  0  0
    1.4889   11.6680   10.2481 O   0  0  0  0  0  0  0  0  0  0  0  0
   -0.4446   10.8469    9.0312 C   0  0  0  0  0  0  0  0  0  0  0  0
   -0.9364   12.1815    8.9927 O   0  0  0  0  0  0  0  0  0  0  0  0
   -1.5975    9.8208    9.2246 C   0  0  0  0  0  0  0  0  0  0  0  0
   -1.6714    7.6866    9.0088 H   0  0  0  0  0  0  0  0  0  0  0  0
    0.2343    5.0570    9.3984 H   0  0  0  0  0  0  0  0  0  0  0  0
    1.2119    8.9211   12.0161 H   0  0  0  0  0  0  0  0  0  0  0  0
    2.0163   11.6240    9.4352 H   0  0  0  0  0  0  0  0  0  0  0  0
   -1.4049   12.3774    9.8192 H   0  0  0  0  0  0  0  0  0  0  0  0
   -2.6291    9.8738    8.0787 C   0  0  0  0  0  0  0  0  0  0  0  0
   -2.1830   10.7084    7.0283 O   0  0  0  0  0  0  0  0  0  0  0  0
   -2.0601   11.6108    7.3622 H   0  0  0  0  0  0  0  0  0  0  0  0
  1  2  2  0  0  0
  1  3  1  0  0  0
  1  4  1  0  0  0
  2  5  1  0  0  0
  3  6  1  0  0  0
  3  7  1  0  0  0
  4 11  1  0  0  0
  7  8  1  0  0  0
  7  9  1  0  0  0
  9 10  1  0  0  0
  9 11  1  0  0  0
 11 17  1  0  0  0
 17 18  1  0  0  0
  4 12  1  0  0  0
  5 13  1  0  0  0
  6 14  1  0  0  0
  8 15  1  0  0  0
 10 16  1  0  0  0
 18 19  1  0  0  0
M  END
> <minimizedAffinity>
-6.16643

$$$$
2J78_GOX_A_1451


 19 19  0  0  0  0  0  0  0  0999 V2000
    0.5620    9.8457   10.4251 C   0  0  0  0  0  0  0  0  0  0  0  0
    0.3266   11.1402   10.3410 N   0  0  0  0  0  0  0  0  0  0  0  0
    0.8474    9.1742    9.0679 C   0  0  0  0  0  0  0  0  0  0  0  0
    0.5472    9.1950   11.6751 N   0  0  0  0  0  0  0  0  0  0  0  0
    0.0908   11.8528   11.5192 O   0  0  0  0  0  0  0  0  0  0  0  0
   -0.1111    9.5398    8.1046 O   0  0  0  0  0  0  0  0  0  0  0  0
    0.8598    7.6594    9.2567 C   0  0  0  0  0  0  0  0  0  0  0  0
    1.4696    7.1083    8.0915 O   0  0  0  0  0  0  0  0  0  0  0  0
    1.6655    7.2857   10.5048 C   0  0  0  0  0  0  0  0  0  0  0  0
    1.9116    5.8850   10.5470 O   0  0  0  0  0  0  0  0  0  0  0  0
    0.8064    7.7496   11.7157 C   0  0  0  0  0  0  0  0  0  0  0  0
    0.3673    9.6977   12.5023 H   0  0  0  0  0  0  0  0  0  0  0  0
   -0.0788   12.7737   11.4837 H   0  0  0  0  0  0  0  0  0  0  0  0
   -0.9902    9.2539    8.3984 H   0  0  0  0  0  0  0  0  0  0  0  0
    2.3654    7.4676    7.9947 H   0  0  0  0  0  0  0  0  0  0  0  0
    1.0670    5.4080   10.5426 H   0  0  0  0  0  0  0  0  0  0  0  0
    1.4955    7.4674   13.0668 C   0  0  0  0  0  0  0  0  0  0  0  0
    1.4025    6.0993   13.4115 O   0  0  0  0  0  0  0  0  0  0  0  0
    0.4689    5.8492   13.4937 H   0  0  0  0  0  0  0  0  0  0  0  0
  1  2  2  0  0  0
  1  3  1  0  0  0
  1  4  1  0  0  0
  2  5  1  0  0  0
  3  6  1  0  0  0
  3  7  1  0  0  0
  4 11  1  0  0  0
  7  8  1  0  0  0
  7  9  1  0  0  0
  9 10  1  0  0  0
  9 11  1  0  0  0
 11 17  1  0  0  0
 17 18  1  0  0  0
  4 12  1  0  0  0
  5 13  1  0  0  0
  6 14  1  0  0  0
  8 15  1  0  0  0
 10 16  1  0  0  0
 18 19  1  0  0  0
M  END
> <minimizedAffinity>
-6.14621

$$$$
