3QGY_L7O_B_1


 33 36  0  0  0  0  0  0  0  0999 V2000
   34.0206   50.3387   17.3973 O   0  0  0  0  0  0  0  0  0  0  0  0
   31.7414   50.4641   17.1816 N   0  0  0  0  0  0  0  0  0  0  0  0
   30.6347   50.7774   16.4039 C   0  0  0  0  0  0  0  0  0  0  0  0
   30.8443   51.2977   15.0315 C   0  0  0  0  0  0  0  0  0  0  0  0
   32.2145   51.5147   14.5402 C   0  0  0  0  0  0  0  0  0  0  0  0
   33.3382   51.1273   15.3915 C   0  0  0  0  0  0  0  0  0  0  0  0
   33.0252   50.6145   16.7348 C   0  0  0  0  0  0  0  0  0  0  0  0
   31.5960   50.1195   18.0923 H   0  0  0  0  0  0  0  0  0  0  0  0
   27.7318   52.2493   12.3744 N   0  0  0  0  0  0  0  0  0  0  0  0
   29.4237   50.7740   13.1791 N   0  0  0  0  0  0  0  0  0  0  0  0
   27.9976   53.1524   13.3609 C   0  0  0  0  0  0  0  0  0  0  0  0
   28.4253   51.0730   12.2981 C   0  0  0  0  0  0  0  0  0  0  0  0
   29.7199   51.6693   14.1798 C   0  0  0  0  0  0  0  0  0  0  0  0
   29.0133   52.9104   14.3057 C   0  0  0  0  0  0  0  0  0  0  0  0
   28.0982   50.1791   11.2413 N   0  0  0  0  0  0  0  0  0  0  0  0
   26.8652   50.5358   10.5166 C   0  0  0  0  0  0  0  0  0  0  0  0
   28.6459   49.3931   11.0144 H   0  0  0  0  0  0  0  0  0  0  0  0
   34.7598   51.2081   15.0650 N   0  0  0  0  0  0  0  0  0  0  0  0
   34.6389   49.8598   13.2289 O   0  0  0  0  0  0  0  0  0  0  0  0
   35.2990   50.5426   14.0202 C   0  0  0  0  0  0  0  0  0  0  0  0
   35.3451   51.7668   15.6257 H   0  0  0  0  0  0  0  0  0  0  0  0
   37.3879   50.3362   12.6694 C   0  0  0  0  0  0  0  0  0  0  0  0
   36.7476   50.6849   13.8966 C   0  0  0  0  0  0  0  0  0  0  0  0
   37.5412   51.0533   15.0452 C   0  0  0  0  0  0  0  0  0  0  0  0
   38.9587   51.1500   14.9329 C   0  0  0  0  0  0  0  0  0  0  0  0
   39.6020   50.7909   13.6977 C   0  0  0  0  0  0  0  0  0  0  0  0
   38.8018   50.4317   12.5550 C   0  0  0  0  0  0  0  0  0  0  0  0
   41.4568   50.6429   12.1734 C   0  0  0  0  0  0  0  0  0  0  0  0
   41.0175   50.8393   13.5886 N   0  0  0  0  0  0  0  0  0  0  0  0
   42.9958   50.3550   12.1642 C   0  0  0  0  0  0  0  0  0  0  0  0
   43.7891   51.4934   12.8766 C   0  0  0  0  0  0  0  0  0  0  0  0
   43.2061   51.7888   14.2901 C   0  0  0  0  0  0  0  0  0  0  0  0
   41.6689   52.0140   14.2352 C   0  0  0  0  0  0  0  0  0  0  0  0
 28 29  1  0  0  0
 28 30  1  0  0  0
 29 33  1  0  0  0
 29 26  1  0  0  0
  1  7  2  0  0  0
 30 31  1  0  0  0
 18 20  1  0  0  0
 18  6  1  0  0  0
 19 20  2  0  0  0
 31 32  1  0  0  0
  2  3  1  0  0  0
  2  7  1  0  0  0
 32 33  1  0  0  0
 15 12  1  0  0  0
 15 16  1  0  0  0
  9 11  2  0  0  0
  9 12  1  0  0  0
 22 23  2  0  0  0
 22 27  1  0  0  0
 10 12  2  0  0  0
 10 13  1  0  0  0
 20 23  1  0  0  0
  3  4  2  0  0  0
  4  5  1  0  0  0
  4 13  1  0  0  0
  5  6  2  0  0  0
  6  7  1  0  0  0
 11 14  1  0  0  0
 13 14  2  0  0  0
 23 24  1  0  0  0
 24 25  2  0  0  0
 25 26  1  0  0  0
 26 27  2  0  0  0
 18 21  1  0  0  0
  2  8  1  0  0  0
 15 17  1  0  0  0
M  END
> <minimizedAffinity>
-9.22573

$$$$
3QGY_L7O_B_1


 33 36  0  0  0  0  0  0  0  0999 V2000
   36.6007   49.1901   10.8189 O   0  0  0  0  0  0  0  0  0  0  0  0
   38.8790   49.1011   10.5769 N   0  0  0  0  0  0  0  0  0  0  0  0
   40.1400   49.4523   11.0401 C   0  0  0  0  0  0  0  0  0  0  0  0
   40.2510   50.2857   12.2613 C   0  0  0  0  0  0  0  0  0  0  0  0
   39.0281   50.7607   12.9282 C   0  0  0  0  0  0  0  0  0  0  0  0
   37.7305   50.3233   12.4158 C   0  0  0  0  0  0  0  0  0  0  0  0
   37.7269   49.4919   11.2017 C   0  0  0  0  0  0  0  0  0  0  0  0
   38.8115   48.5480    9.7653 H   0  0  0  0  0  0  0  0  0  0  0  0
   43.8685   51.7211   13.8447 N   0  0  0  0  0  0  0  0  0  0  0  0
   41.5066   51.4122   13.9578 N   0  0  0  0  0  0  0  0  0  0  0  0
   43.9419   51.0197   12.6776 C   0  0  0  0  0  0  0  0  0  0  0  0
   42.6701   51.8983   14.4796 C   0  0  0  0  0  0  0  0  0  0  0  0
   41.5482   50.7078   12.7777 C   0  0  0  0  0  0  0  0  0  0  0  0
   42.7822   50.4882   12.0815 C   0  0  0  0  0  0  0  0  0  0  0  0
   42.6667   52.6433   15.6911 N   0  0  0  0  0  0  0  0  0  0  0  0
   41.4477   52.4634   16.5002 C   0  0  0  0  0  0  0  0  0  0  0  0
   43.4112   53.2265   15.9646 H   0  0  0  0  0  0  0  0  0  0  0  0
   36.4146   50.6355   12.9679 N   0  0  0  0  0  0  0  0  0  0  0  0
   37.0784   50.5959   15.1500 O   0  0  0  0  0  0  0  0  0  0  0  0
   36.1916   50.7204   14.2976 C   0  0  0  0  0  0  0  0  0  0  0  0
   35.6641   50.7894   12.3495 H   0  0  0  0  0  0  0  0  0  0  0  0
   33.7538   50.4947   13.8108 C   0  0  0  0  0  0  0  0  0  0  0  0
   34.7985   50.9662   14.6617 C   0  0  0  0  0  0  0  0  0  0  0  0
   34.4817   51.7891   15.8051 C   0  0  0  0  0  0  0  0  0  0  0  0
   33.1220   52.0627   16.1336 C   0  0  0  0  0  0  0  0  0  0  0  0
   32.0718   51.5929   15.2706 C   0  0  0  0  0  0  0  0  0  0  0  0
   32.3968   50.7665   14.1364 C   0  0  0  0  0  0  0  0  0  0  0  0
   29.9448   52.1820   14.3142 C   0  0  0  0  0  0  0  0  0  0  0  0
   30.7158   51.8989   15.5632 N   0  0  0  0  0  0  0  0  0  0  0  0
   28.5826   52.8456   14.7085 C   0  0  0  0  0  0  0  0  0  0  0  0
   27.7842   51.9505   15.7056 C   0  0  0  0  0  0  0  0  0  0  0  0
   28.6647   51.5357   16.9213 C   0  0  0  0  0  0  0  0  0  0  0  0
   30.0214   50.9324   16.4610 C   0  0  0  0  0  0  0  0  0  0  0  0
 28 29  1  0  0  0
 28 30  1  0  0  0
 29 33  1  0  0  0
 29 26  1  0  0  0
  1  7  2  0  0  0
 30 31  1  0  0  0
 18 20  1  0  0  0
 18  6  1  0  0  0
 19 20  2  0  0  0
 31 32  1  0  0  0
  2  3  1  0  0  0
  2  7  1  0  0  0
 32 33  1  0  0  0
 15 12  1  0  0  0
 15 16  1  0  0  0
  9 11  2  0  0  0
  9 12  1  0  0  0
 22 23  2  0  0  0
 22 27  1  0  0  0
 10 12  2  0  0  0
 10 13  1  0  0  0
 20 23  1  0  0  0
  3  4  2  0  0  0
  4  5  1  0  0  0
  4 13  1  0  0  0
  5  6  2  0  0  0
  6  7  1  0  0  0
 11 14  1  0  0  0
 13 14  2  0  0  0
 23 24  1  0  0  0
 24 25  2  0  0  0
 25 26  1  0  0  0
 26 27  2  0  0  0
 18 21  1  0  0  0
  2  8  1  0  0  0
 15 17  1  0  0  0
M  END
> <minimizedAffinity>
-9.14223

$$$$
3QGY_L7O_B_1


 33 36  0  0  0  0  0  0  0  0999 V2000
   34.1258   50.2696   17.5861 O   0  0  0  0  0  0  0  0  0  0  0  0
   31.8532   50.5605   17.4976 N   0  0  0  0  0  0  0  0  0  0  0  0
   30.7398   51.0395   16.8201 C   0  0  0  0  0  0  0  0  0  0  0  0
   30.9292   51.7209   15.5171 C   0  0  0  0  0  0  0  0  0  0  0  0
   32.2902   51.9165   14.9925 C   0  0  0  0  0  0  0  0  0  0  0  0
   33.4185   51.3535   15.7326 C   0  0  0  0  0  0  0  0  0  0  0  0
   33.1254   50.6896   17.0127 C   0  0  0  0  0  0  0  0  0  0  0  0
   31.7213   50.1094   18.3626 H   0  0  0  0  0  0  0  0  0  0  0  0
   27.5362   53.3010   13.6079 N   0  0  0  0  0  0  0  0  0  0  0  0
   29.0095   53.1482   15.4767 N   0  0  0  0  0  0  0  0  0  0  0  0
   28.3043   52.4373   12.8843 C   0  0  0  0  0  0  0  0  0  0  0  0
   27.8955   53.6604   14.8777 C   0  0  0  0  0  0  0  0  0  0  0  0
   29.7992   52.2683   14.7747 C   0  0  0  0  0  0  0  0  0  0  0  0
   29.4682   51.8701   13.4377 C   0  0  0  0  0  0  0  0  0  0  0  0
   27.0461   54.5627   15.5756 N   0  0  0  0  0  0  0  0  0  0  0  0
   25.6091   54.3371   15.3367 C   0  0  0  0  0  0  0  0  0  0  0  0
   27.3870   55.2737   16.1651 H   0  0  0  0  0  0  0  0  0  0  0  0
   34.8282   51.3897   15.3514 N   0  0  0  0  0  0  0  0  0  0  0  0
   34.6101   49.9758   13.5745 O   0  0  0  0  0  0  0  0  0  0  0  0
   35.3137   50.6730   14.3142 C   0  0  0  0  0  0  0  0  0  0  0  0
   35.4459   51.9558   15.8683 H   0  0  0  0  0  0  0  0  0  0  0  0
   37.3282   50.5259   12.8474 C   0  0  0  0  0  0  0  0  0  0  0  0
   36.7594   50.7777   14.1322 C   0  0  0  0  0  0  0  0  0  0  0  0
   37.6190   51.0082   15.2692 C   0  0  0  0  0  0  0  0  0  0  0  0
   39.0324   51.0675   15.0958 C   0  0  0  0  0  0  0  0  0  0  0  0
   39.6034   50.8062   13.8019 C   0  0  0  0  0  0  0  0  0  0  0  0
   38.7378   50.5844   12.6720 C   0  0  0  0  0  0  0  0  0  0  0  0
   41.3809   50.6165   12.1925 C   0  0  0  0  0  0  0  0  0  0  0  0
   41.0131   50.8171   13.6274 N   0  0  0  0  0  0  0  0  0  0  0  0
   42.9094   50.2874   12.1106 C   0  0  0  0  0  0  0  0  0  0  0  0
   43.7655   51.4003   12.7899 C   0  0  0  0  0  0  0  0  0  0  0  0
   43.2568   51.7037   14.2302 C   0  0  0  0  0  0  0  0  0  0  0  0
   41.7254   51.9704   14.2477 C   0  0  0  0  0  0  0  0  0  0  0  0
 28 29  1  0  0  0
 28 30  1  0  0  0
 29 33  1  0  0  0
 29 26  1  0  0  0
  1  7  2  0  0  0
 30 31  1  0  0  0
 18 20  1  0  0  0
 18  6  1  0  0  0
 19 20  2  0  0  0
 31 32  1  0  0  0
  2  3  1  0  0  0
  2  7  1  0  0  0
 32 33  1  0  0  0
 15 12  1  0  0  0
 15 16  1  0  0  0
  9 11  2  0  0  0
  9 12  1  0  0  0
 22 23  2  0  0  0
 22 27  1  0  0  0
 10 12  2  0  0  0
 10 13  1  0  0  0
 20 23  1  0  0  0
  3  4  2  0  0  0
  4  5  1  0  0  0
  4 13  1  0  0  0
  5  6  2  0  0  0
  6  7  1  0  0  0
 11 14  1  0  0  0
 13 14  2  0  0  0
 23 24  1  0  0  0
 24 25  2  0  0  0
 25 26  1  0  0  0
 26 27  2  0  0  0
 18 21  1  0  0  0
  2  8  1  0  0  0
 15 17  1  0  0  0
M  END
> <minimizedAffinity>
-9.12023

$$$$
3QGY_L7O_B_1


 33 36  0  0  0  0  0  0  0  0999 V2000
   31.7427   51.9818   13.1461 O   0  0  0  0  0  0  0  0  0  0  0  0
   29.9882   51.4375   14.5181 N   0  0  0  0  0  0  0  0  0  0  0  0
   29.5358   50.9006   15.7160 C   0  0  0  0  0  0  0  0  0  0  0  0
   30.5251   50.3773   16.6884 C   0  0  0  0  0  0  0  0  0  0  0  0
   31.9564   50.3946   16.3465 C   0  0  0  0  0  0  0  0  0  0  0  0
   32.3730   51.0100   15.0875 C   0  0  0  0  0  0  0  0  0  0  0  0
   31.3149   51.5062   14.1933 C   0  0  0  0  0  0  0  0  0  0  0  0
   29.3266   51.7830   13.8761 H   0  0  0  0  0  0  0  0  0  0  0  0
   29.2486   48.4298   20.1858 N   0  0  0  0  0  0  0  0  0  0  0  0
   30.2892   48.4175   18.0402 N   0  0  0  0  0  0  0  0  0  0  0  0
   29.0609   49.7792   20.1283 C   0  0  0  0  0  0  0  0  0  0  0  0
   29.8677   47.7659   19.1627 C   0  0  0  0  0  0  0  0  0  0  0  0
   30.1060   49.7773   17.9501 C   0  0  0  0  0  0  0  0  0  0  0  0
   29.4712   50.5171   19.0015 C   0  0  0  0  0  0  0  0  0  0  0  0
   30.0270   46.3582   19.2877 N   0  0  0  0  0  0  0  0  0  0  0  0
   28.7644   45.6032   19.1960 C   0  0  0  0  0  0  0  0  0  0  0  0
   30.9016   45.9270   19.4231 H   0  0  0  0  0  0  0  0  0  0  0  0
   33.7391   51.1764   14.5978 N   0  0  0  0  0  0  0  0  0  0  0  0
   33.8086   49.1961   13.4676 O   0  0  0  0  0  0  0  0  0  0  0  0
   34.3555   50.2382   13.8462 C   0  0  0  0  0  0  0  0  0  0  0  0
   34.2277   52.0009   14.8233 H   0  0  0  0  0  0  0  0  0  0  0  0
   36.3619   49.9050   12.3990 C   0  0  0  0  0  0  0  0  0  0  0  0
   35.7442   50.5469   13.5144 C   0  0  0  0  0  0  0  0  0  0  0  0
   36.5257   51.3967   14.3815 C   0  0  0  0  0  0  0  0  0  0  0  0
   37.8929   51.6623   14.0786 C   0  0  0  0  0  0  0  0  0  0  0  0
   38.5149   51.0085   12.9587 C   0  0  0  0  0  0  0  0  0  0  0  0
   37.7255   50.1682   12.0950 C   0  0  0  0  0  0  0  0  0  0  0  0
   40.4285   52.3712   13.4753 C   0  0  0  0  0  0  0  0  0  0  0  0
   39.8890   51.2299   12.6747 N   0  0  0  0  0  0  0  0  0  0  0  0
   41.8131   52.7901   12.8764 C   0  0  0  0  0  0  0  0  0  0  0  0
   42.7991   51.5824   12.8307 C   0  0  0  0  0  0  0  0  0  0  0  0
   42.1508   50.3506   12.1323 C   0  0  0  0  0  0  0  0  0  0  0  0
   40.7583   50.0206   12.7394 C   0  0  0  0  0  0  0  0  0  0  0  0
 28 29  1  0  0  0
 28 30  1  0  0  0
 29 33  1  0  0  0
 29 26  1  0  0  0
  1  7  2  0  0  0
 30 31  1  0  0  0
 18 20  1  0  0  0
 18  6  1  0  0  0
 19 20  2  0  0  0
 31 32  1  0  0  0
  2  3  1  0  0  0
  2  7  1  0  0  0
 32 33  1  0  0  0
 15 12  1  0  0  0
 15 16  1  0  0  0
  9 11  2  0  0  0
  9 12  1  0  0  0
 22 23  2  0  0  0
 22 27  1  0  0  0
 10 12  2  0  0  0
 10 13  1  0  0  0
 20 23  1  0  0  0
  3  4  2  0  0  0
  4  5  1  0  0  0
  4 13  1  0  0  0
  5  6  2  0  0  0
  6  7  1  0  0  0
 11 14  1  0  0  0
 13 14  2  0  0  0
 23 24  1  0  0  0
 24 25  2  0  0  0
 25 26  1  0  0  0
 26 27  2  0  0  0
 18 21  1  0  0  0
  2  8  1  0  0  0
 15 17  1  0  0  0
M  END
> <minimizedAffinity>
-8.79054

$$$$
3QGY_L7O_B_1


 33 36  0  0  0  0  0  0  0  0999 V2000
   30.8408   52.0229   12.8369 O   0  0  0  0  0  0  0  0  0  0  0  0
   28.8369   51.2777   13.6652 N   0  0  0  0  0  0  0  0  0  0  0  0
   28.1354   50.3675   14.4446 C   0  0  0  0  0  0  0  0  0  0  0  0
   28.8817   49.2936   15.1431 C   0  0  0  0  0  0  0  0  0  0  0  0
   30.3381   49.1861   14.9600 C   0  0  0  0  0  0  0  0  0  0  0  0
   31.0246   50.1990   14.1598 C   0  0  0  0  0  0  0  0  0  0  0  0
   30.1951   51.2278   13.5127 C   0  0  0  0  0  0  0  0  0  0  0  0
   28.3359   51.9884   13.2034 H   0  0  0  0  0  0  0  0  0  0  0  0
   27.1268   46.2680   17.4711 N   0  0  0  0  0  0  0  0  0  0  0  0
   28.9894   47.6218   16.8511 N   0  0  0  0  0  0  0  0  0  0  0  0
   26.3122   46.9218   16.5945 C   0  0  0  0  0  0  0  0  0  0  0  0
   28.4399   46.6263   17.6055 C   0  0  0  0  0  0  0  0  0  0  0  0
   28.1945   48.2936   15.9525 C   0  0  0  0  0  0  0  0  0  0  0  0
   26.8103   47.9601   15.7841 C   0  0  0  0  0  0  0  0  0  0  0  0
   29.2325   45.8991   18.5360 N   0  0  0  0  0  0  0  0  0  0  0  0
   29.2741   46.4979   19.8823 C   0  0  0  0  0  0  0  0  0  0  0  0
   29.7102   45.0707   18.3020 H   0  0  0  0  0  0  0  0  0  0  0  0
   32.4602   50.2996   13.9092 N   0  0  0  0  0  0  0  0  0  0  0  0
   32.9830   51.1335   15.9671 O   0  0  0  0  0  0  0  0  0  0  0  0
   33.3209   50.7859   14.8299 C   0  0  0  0  0  0  0  0  0  0  0  0
   32.8126   50.0029   13.0391 H   0  0  0  0  0  0  0  0  0  0  0  0
   35.1261   50.1205   13.2394 C   0  0  0  0  0  0  0  0  0  0  0  0
   34.7049   50.8805   14.3719 C   0  0  0  0  0  0  0  0  0  0  0  0
   35.6711   51.6364   15.1334 C   0  0  0  0  0  0  0  0  0  0  0  0
   37.0302   51.6924   14.7079 C   0  0  0  0  0  0  0  0  0  0  0  0
   37.4536   50.9198   13.5711 C   0  0  0  0  0  0  0  0  0  0  0  0
   36.4813   50.1745   12.8132 C   0  0  0  0  0  0  0  0  0  0  0  0
   39.7157   50.5265   14.2879 C   0  0  0  0  0  0  0  0  0  0  0  0
   38.8151   50.9317   13.1658 N   0  0  0  0  0  0  0  0  0  0  0  0
   41.1884   50.8926   13.9026 C   0  0  0  0  0  0  0  0  0  0  0  0
   41.5994   50.2363   12.5487 C   0  0  0  0  0  0  0  0  0  0  0  0
   40.5559   50.5415   11.4336 C   0  0  0  0  0  0  0  0  0  0  0  0
   39.1116   50.2040   11.8990 C   0  0  0  0  0  0  0  0  0  0  0  0
 28 29  1  0  0  0
 28 30  1  0  0  0
 29 33  1  0  0  0
 29 26  1  0  0  0
  1  7  2  0  0  0
 30 31  1  0  0  0
 18 20  1  0  0  0
 18  6  1  0  0  0
 19 20  2  0  0  0
 31 32  1  0  0  0
  2  3  1  0  0  0
  2  7  1  0  0  0
 32 33  1  0  0  0
 15 12  1  0  0  0
 15 16  1  0  0  0
  9 11  2  0  0  0
  9 12  1  0  0  0
 22 23  2  0  0  0
 22 27  1  0  0  0
 10 12  2  0  0  0
 10 13  1  0  0  0
 20 23  1  0  0  0
  3  4  2  0  0  0
  4  5  1  0  0  0
  4 13  1  0  0  0
  5  6  2  0  0  0
  6  7  1  0  0  0
 11 14  1  0  0  0
 13 14  2  0  0  0
 23 24  1  0  0  0
 24 25  2  0  0  0
 25 26  1  0  0  0
 26 27  2  0  0  0
 18 21  1  0  0  0
  2  8  1  0  0  0
 15 17  1  0  0  0
M  END
> <minimizedAffinity>
-8.75751

$$$$
3QGY_L7O_B_1


 33 36  0  0  0  0  0  0  0  0999 V2000
   34.1497   51.8953   17.6529 O   0  0  0  0  0  0  0  0  0  0  0  0
   31.8749   51.6958   17.4463 N   0  0  0  0  0  0  0  0  0  0  0  0
   30.7675   51.4787   16.6372 C   0  0  0  0  0  0  0  0  0  0  0  0
   30.9702   51.2568   15.1854 C   0  0  0  0  0  0  0  0  0  0  0  0
   32.3301   51.3171   14.6259 C   0  0  0  0  0  0  0  0  0  0  0  0
   33.4586   51.5088   15.5355 C   0  0  0  0  0  0  0  0  0  0  0  0
   33.1531   51.7135   16.9603 C   0  0  0  0  0  0  0  0  0  0  0  0
   31.7341   51.8430   18.4094 H   0  0  0  0  0  0  0  0  0  0  0  0
   27.7946   50.4082   12.5683 N   0  0  0  0  0  0  0  0  0  0  0  0
   29.2494   49.8132   14.3617 N   0  0  0  0  0  0  0  0  0  0  0  0
   28.3577   51.6465   12.4729 C   0  0  0  0  0  0  0  0  0  0  0  0
   28.2259   49.5148   13.5098 C   0  0  0  0  0  0  0  0  0  0  0  0
   29.8423   51.0513   14.2836 C   0  0  0  0  0  0  0  0  0  0  0  0
   29.4174   52.0240   13.3198 C   0  0  0  0  0  0  0  0  0  0  0  0
   27.5961   48.2402   13.5504 N   0  0  0  0  0  0  0  0  0  0  0  0
   27.5351   47.6461   14.8980 C   0  0  0  0  0  0  0  0  0  0  0  0
   27.2336   47.7950   12.7506 H   0  0  0  0  0  0  0  0  0  0  0  0
   34.8766   51.5389   15.1859 N   0  0  0  0  0  0  0  0  0  0  0  0
   34.6862   50.1549   13.3825 O   0  0  0  0  0  0  0  0  0  0  0  0
   35.3790   50.8345   14.1483 C   0  0  0  0  0  0  0  0  0  0  0  0
   35.4873   52.0917   15.7250 H   0  0  0  0  0  0  0  0  0  0  0  0
   37.4477   50.4570   12.8033 C   0  0  0  0  0  0  0  0  0  0  0  0
   36.8292   50.9297   13.9998 C   0  0  0  0  0  0  0  0  0  0  0  0
   37.6436   51.3799   15.1037 C   0  0  0  0  0  0  0  0  0  0  0  0
   39.0617   51.4316   14.9707 C   0  0  0  0  0  0  0  0  0  0  0  0
   39.6829   50.9478   13.7672 C   0  0  0  0  0  0  0  0  0  0  0  0
   38.8621   50.5074   12.6684 C   0  0  0  0  0  0  0  0  0  0  0  0
   41.5162   50.6578   12.2372 C   0  0  0  0  0  0  0  0  0  0  0  0
   41.0979   50.9516   13.6419 N   0  0  0  0  0  0  0  0  0  0  0  0
   43.0469   50.3289   12.2309 C   0  0  0  0  0  0  0  0  0  0  0  0
   43.8775   51.4869   12.8648 C   0  0  0  0  0  0  0  0  0  0  0  0
   43.3182   51.8832   14.2631 C   0  0  0  0  0  0  0  0  0  0  0  0
   41.7869   52.1456   14.2092 C   0  0  0  0  0  0  0  0  0  0  0  0
 28 29  1  0  0  0
 28 30  1  0  0  0
 29 33  1  0  0  0
 29 26  1  0  0  0
  1  7  2  0  0  0
 30 31  1  0  0  0
 18 20  1  0  0  0
 18  6  1  0  0  0
 19 20  2  0  0  0
 31 32  1  0  0  0
  2  3  1  0  0  0
  2  7  1  0  0  0
 32 33  1  0  0  0
 15 12  1  0  0  0
 15 16  1  0  0  0
  9 11  2  0  0  0
  9 12  1  0  0  0
 22 23  2  0  0  0
 22 27  1  0  0  0
 10 12  2  0  0  0
 10 13  1  0  0  0
 20 23  1  0  0  0
  3  4  2  0  0  0
  4  5  1  0  0  0
  4 13  1  0  0  0
  5  6  2  0  0  0
  6  7  1  0  0  0
 11 14  1  0  0  0
 13 14  2  0  0  0
 23 24  1  0  0  0
 24 25  2  0  0  0
 25 26  1  0  0  0
 26 27  2  0  0  0
 18 21  1  0  0  0
  2  8  1  0  0  0
 15 17  1  0  0  0
M  END
> <minimizedAffinity>
-8.75577

$$$$
3QGY_L7O_B_1


 33 36  0  0  0  0  0  0  0  0999 V2000
   37.3981   53.5290   17.5227 O   0  0  0  0  0  0  0  0  0  0  0  0
   39.6411   53.3425   17.0850 N   0  0  0  0  0  0  0  0  0  0  0  0
   40.6578   52.9220   16.2380 C   0  0  0  0  0  0  0  0  0  0  0  0
   40.3016   52.2472   14.9669 C   0  0  0  0  0  0  0  0  0  0  0  0
   38.8862   51.9959   14.6516 C   0  0  0  0  0  0  0  0  0  0  0  0
   37.8607   52.4988   15.5643 C   0  0  0  0  0  0  0  0  0  0  0  0
   38.3166   53.1612   16.7967 C   0  0  0  0  0  0  0  0  0  0  0  0
   39.8837   53.7896   17.9279 H   0  0  0  0  0  0  0  0  0  0  0  0
   43.1239   50.6121   12.3183 N   0  0  0  0  0  0  0  0  0  0  0  0
   40.8824   50.8930   13.0820 N   0  0  0  0  0  0  0  0  0  0  0  0
   43.5939   51.4742   13.2645 C   0  0  0  0  0  0  0  0  0  0  0  0
   41.7867   50.3411   12.2219 C   0  0  0  0  0  0  0  0  0  0  0  0
   41.3278   51.7599   14.0520 C   0  0  0  0  0  0  0  0  0  0  0  0
   42.7185   52.0818   14.1850 C   0  0  0  0  0  0  0  0  0  0  0  0
   41.3670   49.4296   11.2141 N   0  0  0  0  0  0  0  0  0  0  0  0
   39.9462   49.5600   10.8441 C   0  0  0  0  0  0  0  0  0  0  0  0
   41.9710   48.7710   10.8008 H   0  0  0  0  0  0  0  0  0  0  0  0
   36.4122   52.4030   15.4009 N   0  0  0  0  0  0  0  0  0  0  0  0
   36.2361   50.2928   16.2494 O   0  0  0  0  0  0  0  0  0  0  0  0
   35.7205   51.2916   15.7348 C   0  0  0  0  0  0  0  0  0  0  0  0
   35.9232   53.1750   15.0348 H   0  0  0  0  0  0  0  0  0  0  0  0
   33.8163   50.8503   14.1824 C   0  0  0  0  0  0  0  0  0  0  0  0
   34.2933   51.3544   15.4298 C   0  0  0  0  0  0  0  0  0  0  0  0
   33.3890   52.0355   16.3260 C   0  0  0  0  0  0  0  0  0  0  0  0
   32.0037   52.1326   16.0054 C   0  0  0  0  0  0  0  0  0  0  0  0
   31.5269   51.6306   14.7448 C   0  0  0  0  0  0  0  0  0  0  0  0
   32.4348   50.9461   13.8604 C   0  0  0  0  0  0  0  0  0  0  0  0
   29.5200   52.9001   15.1276 C   0  0  0  0  0  0  0  0  0  0  0  0
   30.1565   51.7633   14.3949 N   0  0  0  0  0  0  0  0  0  0  0  0
   27.9658   52.7809   14.9802 C   0  0  0  0  0  0  0  0  0  0  0  0
   27.5413   52.7331   13.4801 C   0  0  0  0  0  0  0  0  0  0  0  0
   28.3390   51.6452   12.7019 C   0  0  0  0  0  0  0  0  0  0  0  0
   29.8696   51.7893   12.9322 C   0  0  0  0  0  0  0  0  0  0  0  0
 28 29  1  0  0  0
 28 30  1  0  0  0
 29 33  1  0  0  0
 29 26  1  0  0  0
  1  7  2  0  0  0
 30 31  1  0  0  0
 18 20  1  0  0  0
 18  6  1  0  0  0
 19 20  2  0  0  0
 31 32  1  0  0  0
  2  3  1  0  0  0
  2  7  1  0  0  0
 32 33  1  0  0  0
 15 12  1  0  0  0
 15 16  1  0  0  0
  9 11  2  0  0  0
  9 12  1  0  0  0
 22 23  2  0  0  0
 22 27  1  0  0  0
 10 12  2  0  0  0
 10 13  1  0  0  0
 20 23  1  0  0  0
  3  4  2  0  0  0
  4  5  1  0  0  0
  4 13  1  0  0  0
  5  6  2  0  0  0
  6  7  1  0  0  0
 11 14  1  0  0  0
 13 14  2  0  0  0
 23 24  1  0  0  0
 24 25  2  0  0  0
 25 26  1  0  0  0
 26 27  2  0  0  0
 18 21  1  0  0  0
  2  8  1  0  0  0
 15 17  1  0  0  0
M  END
> <minimizedAffinity>
-8.74288

$$$$
3QGY_L7O_B_1


 33 36  0  0  0  0  0  0  0  0999 V2000
   39.1837   50.9024   12.9493 O   0  0  0  0  0  0  0  0  0  0  0  0
   37.0546   50.1238   12.6057 N   0  0  0  0  0  0  0  0  0  0  0  0
   35.7221   50.0903   12.9945 C   0  0  0  0  0  0  0  0  0  0  0  0
   35.3002   50.8693   14.1833 C   0  0  0  0  0  0  0  0  0  0  0  0
   36.3055   51.6212   14.9512 C   0  0  0  0  0  0  0  0  0  0  0  0
   37.6850   51.6500   14.4678 C   0  0  0  0  0  0  0  0  0  0  0  0
   38.0017   50.8488   13.2749 C   0  0  0  0  0  0  0  0  0  0  0  0
   37.3290   49.6042   11.8158 H   0  0  0  0  0  0  0  0  0  0  0  0
   31.2454   50.8059   15.2827 N   0  0  0  0  0  0  0  0  0  0  0  0
   33.0457   50.1315   13.8718 N   0  0  0  0  0  0  0  0  0  0  0  0
   32.0893   51.5197   16.0812 C   0  0  0  0  0  0  0  0  0  0  0  0
   31.7226   50.1113   14.2055 C   0  0  0  0  0  0  0  0  0  0  0  0
   33.9196   50.8495   14.6537 C   0  0  0  0  0  0  0  0  0  0  0  0
   33.4672   51.5848   15.7983 C   0  0  0  0  0  0  0  0  0  0  0  0
   30.7855   49.3914   13.4140 N   0  0  0  0  0  0  0  0  0  0  0  0
   29.4532   50.0185   13.3469 C   0  0  0  0  0  0  0  0  0  0  0  0
   31.0067   48.5503   12.9527 H   0  0  0  0  0  0  0  0  0  0  0  0
   38.8080   52.3797   15.0513 N   0  0  0  0  0  0  0  0  0  0  0  0
   39.1395   50.9258   16.7776 O   0  0  0  0  0  0  0  0  0  0  0  0
   39.4281   51.9681   16.1788 C   0  0  0  0  0  0  0  0  0  0  0  0
   39.1239   53.1998   14.6075 H   0  0  0  0  0  0  0  0  0  0  0  0
   41.5444   53.2285   15.7746 C   0  0  0  0  0  0  0  0  0  0  0  0
   40.4786   52.8661   16.6522 C   0  0  0  0  0  0  0  0  0  0  0  0
   40.5089   53.2823   18.0344 C   0  0  0  0  0  0  0  0  0  0  0  0
   41.5587   54.1241   18.5042 C   0  0  0  0  0  0  0  0  0  0  0  0
   42.6353   54.4817   17.6201 C   0  0  0  0  0  0  0  0  0  0  0  0
   42.5928   54.0680   16.2409 C   0  0  0  0  0  0  0  0  0  0  0  0
   43.9806   55.0263   19.5382 C   0  0  0  0  0  0  0  0  0  0  0  0
   43.7104   55.2821   18.0904 N   0  0  0  0  0  0  0  0  0  0  0  0
   44.9121   56.1621   20.0801 C   0  0  0  0  0  0  0  0  0  0  0  0
   46.2244   56.2657   19.2434 C   0  0  0  0  0  0  0  0  0  0  0  0
   45.9163   56.3687   17.7204 C   0  0  0  0  0  0  0  0  0  0  0  0
   44.9473   55.2440   17.2592 C   0  0  0  0  0  0  0  0  0  0  0  0
 28 29  1  0  0  0
 28 30  1  0  0  0
 29 33  1  0  0  0
 29 26  1  0  0  0
  1  7  2  0  0  0
 30 31  1  0  0  0
 18 20  1  0  0  0
 18  6  1  0  0  0
 19 20  2  0  0  0
 31 32  1  0  0  0
  2  3  1  0  0  0
  2  7  1  0  0  0
 32 33  1  0  0  0
 15 12  1  0  0  0
 15 16  1  0  0  0
  9 11  2  0  0  0
  9 12  1  0  0  0
 22 23  2  0  0  0
 22 27  1  0  0  0
 10 12  2  0  0  0
 10 13  1  0  0  0
 20 23  1  0  0  0
  3  4  2  0  0  0
  4  5  1  0  0  0
  4 13  1  0  0  0
  5  6  2  0  0  0
  6  7  1  0  0  0
 11 14  1  0  0  0
 13 14  2  0  0  0
 23 24  1  0  0  0
 24 25  2  0  0  0
 25 26  1  0  0  0
 26 27  2  0  0  0
 18 21  1  0  0  0
  2  8  1  0  0  0
 15 17  1  0  0  0
M  END
> <minimizedAffinity>
-8.46059

$$$$
3QGY_L7O_B_1


 33 36  0  0  0  0  0  0  0  0999 V2000
   39.3348   50.9927   12.9367 O   0  0  0  0  0  0  0  0  0  0  0  0
   37.2216   50.1852   12.5630 N   0  0  0  0  0  0  0  0  0  0  0  0
   35.8903   50.1099   12.9500 C   0  0  0  0  0  0  0  0  0  0  0  0
   35.4535   50.8337   14.1679 C   0  0  0  0  0  0  0  0  0  0  0  0
   36.4440   51.5755   14.9644 C   0  0  0  0  0  0  0  0  0  0  0  0
   37.8223   51.6508   14.4827 C   0  0  0  0  0  0  0  0  0  0  0  0
   38.1543   50.9028   13.2598 C   0  0  0  0  0  0  0  0  0  0  0  0
   37.5060   49.7021   11.7537 H   0  0  0  0  0  0  0  0  0  0  0  0
   31.5716   50.5421   15.7489 N   0  0  0  0  0  0  0  0  0  0  0  0
   33.9044   50.9760   15.9856 N   0  0  0  0  0  0  0  0  0  0  0  0
   31.7076   50.3384   14.4074 C   0  0  0  0  0  0  0  0  0  0  0  0
   32.6528   50.8713   16.5191 C   0  0  0  0  0  0  0  0  0  0  0  0
   34.0739   50.7679   14.6370 C   0  0  0  0  0  0  0  0  0  0  0  0
   32.9688   50.4308   13.7882 C   0  0  0  0  0  0  0  0  0  0  0  0
   32.4389   51.0659   17.9116 N   0  0  0  0  0  0  0  0  0  0  0  0
   32.6608   49.8570   18.7253 C   0  0  0  0  0  0  0  0  0  0  0  0
   32.1671   51.9300   18.2973 H   0  0  0  0  0  0  0  0  0  0  0  0
   38.9307   52.3799   15.0941 N   0  0  0  0  0  0  0  0  0  0  0  0
   39.2859   50.8725   16.7690 O   0  0  0  0  0  0  0  0  0  0  0  0
   39.5563   51.9404   16.2079 C   0  0  0  0  0  0  0  0  0  0  0  0
   39.2322   53.2207   14.6802 H   0  0  0  0  0  0  0  0  0  0  0  0
   41.5971   53.3268   15.8290 C   0  0  0  0  0  0  0  0  0  0  0  0
   40.5893   52.8402   16.7150 C   0  0  0  0  0  0  0  0  0  0  0  0
   40.6665   53.1340   18.1266 C   0  0  0  0  0  0  0  0  0  0  0  0
   41.7010   53.9782   18.6250 C   0  0  0  0  0  0  0  0  0  0  0  0
   42.7194   54.4611   17.7317 C   0  0  0  0  0  0  0  0  0  0  0  0
   42.6302   54.1690   16.3239 C   0  0  0  0  0  0  0  0  0  0  0  0
   44.2280   54.8000   19.5743 C   0  0  0  0  0  0  0  0  0  0  0  0
   43.7810   55.2653   18.2259 N   0  0  0  0  0  0  0  0  0  0  0  0
   45.1314   55.9091   20.2106 C   0  0  0  0  0  0  0  0  0  0  0  0
   46.3319   56.2644   19.2804 C   0  0  0  0  0  0  0  0  0  0  0  0
   45.8497   56.5887   17.8355 C   0  0  0  0  0  0  0  0  0  0  0  0
   44.9174   55.4738   17.2838 C   0  0  0  0  0  0  0  0  0  0  0  0
 28 29  1  0  0  0
 28 30  1  0  0  0
 29 33  1  0  0  0
 29 26  1  0  0  0
  1  7  2  0  0  0
 30 31  1  0  0  0
 18 20  1  0  0  0
 18  6  1  0  0  0
 19 20  2  0  0  0
 31 32  1  0  0  0
  2  3  1  0  0  0
  2  7  1  0  0  0
 32 33  1  0  0  0
 15 12  1  0  0  0
 15 16  1  0  0  0
  9 11  2  0  0  0
  9 12  1  0  0  0
 22 23  2  0  0  0
 22 27  1  0  0  0
 10 12  2  0  0  0
 10 13  1  0  0  0
 20 23  1  0  0  0
  3  4  2  0  0  0
  4  5  1  0  0  0
  4 13  1  0  0  0
  5  6  2  0  0  0
  6  7  1  0  0  0
 11 14  1  0  0  0
 13 14  2  0  0  0
 23 24  1  0  0  0
 24 25  2  0  0  0
 25 26  1  0  0  0
 26 27  2  0  0  0
 18 21  1  0  0  0
  2  8  1  0  0  0
 15 17  1  0  0  0
M  END
> <minimizedAffinity>
-8.34882

$$$$
3QGY_L7O_B_1


 33 36  0  0  0  0  0  0  0  0999 V2000
   38.1549   50.4821   12.8804 O   0  0  0  0  0  0  0  0  0  0  0  0
   40.2495   50.8940   13.7173 N   0  0  0  0  0  0  0  0  0  0  0  0
   41.0497   51.4927   14.6812 C   0  0  0  0  0  0  0  0  0  0  0  0
   40.4084   52.2887   15.7550 C   0  0  0  0  0  0  0  0  0  0  0  0
   38.9475   52.4664   15.7514 C   0  0  0  0  0  0  0  0  0  0  0  0
   38.1562   51.7774   14.7332 C   0  0  0  0  0  0  0  0  0  0  0  0
   38.8865   51.0062   13.7148 C   0  0  0  0  0  0  0  0  0  0  0  0
   40.6810   50.3671   13.0065 H   0  0  0  0  0  0  0  0  0  0  0  0
   42.8915   54.2429   18.5244 N   0  0  0  0  0  0  0  0  0  0  0  0
   42.0839   53.9051   16.3062 N   0  0  0  0  0  0  0  0  0  0  0  0
   42.0207   53.3190   19.0221 C   0  0  0  0  0  0  0  0  0  0  0  0
   42.9083   54.5397   17.1894 C   0  0  0  0  0  0  0  0  0  0  0  0
   41.2007   52.9626   16.7777 C   0  0  0  0  0  0  0  0  0  0  0  0
   41.1400   52.6256   18.1699 C   0  0  0  0  0  0  0  0  0  0  0  0
   43.8448   55.5107   16.7389 N   0  0  0  0  0  0  0  0  0  0  0  0
   45.1233   55.4936   17.4722 C   0  0  0  0  0  0  0  0  0  0  0  0
   43.6561   56.1376   16.0036 H   0  0  0  0  0  0  0  0  0  0  0  0
   36.7018   51.7801   14.5966 N   0  0  0  0  0  0  0  0  0  0  0  0
   36.3199   50.3118   16.3002 O   0  0  0  0  0  0  0  0  0  0  0  0
   35.9023   51.0226   15.3790 C   0  0  0  0  0  0  0  0  0  0  0  0
   36.2900   52.3538   13.9107 H   0  0  0  0  0  0  0  0  0  0  0  0
   33.5979   51.8337   15.8916 C   0  0  0  0  0  0  0  0  0  0  0  0
   34.4822   51.0997   15.0450 C   0  0  0  0  0  0  0  0  0  0  0  0
   33.9542   50.3354   13.9397 C   0  0  0  0  0  0  0  0  0  0  0  0
   32.5611   50.3789   13.6419 C   0  0  0  0  0  0  0  0  0  0  0  0
   31.6712   51.1130   14.5008 C   0  0  0  0  0  0  0  0  0  0  0  0
   32.2078   51.8785   15.5967 C   0  0  0  0  0  0  0  0  0  0  0  0
   29.9434   52.0562   13.1185 C   0  0  0  0  0  0  0  0  0  0  0  0
   30.2748   51.1254   14.2401 N   0  0  0  0  0  0  0  0  0  0  0  0
   28.3962   52.2964   13.1101 C   0  0  0  0  0  0  0  0  0  0  0  0
   27.6147   50.9503   13.0113 C   0  0  0  0  0  0  0  0  0  0  0  0
   28.0951   49.9379   14.0928 C   0  0  0  0  0  0  0  0  0  0  0  0
   29.6420   49.7851   14.0811 C   0  0  0  0  0  0  0  0  0  0  0  0
 28 29  1  0  0  0
 28 30  1  0  0  0
 29 33  1  0  0  0
 29 26  1  0  0  0
  1  7  2  0  0  0
 30 31  1  0  0  0
 18 20  1  0  0  0
 18  6  1  0  0  0
 19 20  2  0  0  0
 31 32  1  0  0  0
  2  3  1  0  0  0
  2  7  1  0  0  0
 32 33  1  0  0  0
 15 12  1  0  0  0
 15 16  1  0  0  0
  9 11  2  0  0  0
  9 12  1  0  0  0
 22 23  2  0  0  0
 22 27  1  0  0  0
 10 12  2  0  0  0
 10 13  1  0  0  0
 20 23  1  0  0  0
  3  4  2  0  0  0
  4  5  1  0  0  0
  4 13  1  0  0  0
  5  6  2  0  0  0
  6  7  1  0  0  0
 11 14  1  0  0  0
 13 14  2  0  0  0
 23 24  1  0  0  0
 24 25  2  0  0  0
 25 26  1  0  0  0
 26 27  2  0  0  0
 18 21  1  0  0  0
  2  8  1  0  0  0
 15 17  1  0  0  0
M  END
> <minimizedAffinity>
-8.27850

$$$$
