4AHS_AKH_A_1216


 13 14  0  0  0  0  0  0  0  0999 V2000
  -15.0427   18.1203  -10.5068 C   0  0  0  0  0  0  0  0  0  0  0  0
  -15.9387   17.4941  -11.3814 C   0  0  0  0  0  0  0  0  0  0  0  0
  -16.0353   16.0187  -11.6799 C   0  0  0  0  0  0  0  0  0  0  0  0
  -17.1790   16.0404  -12.6828 C   0  0  0  0  0  0  0  0  0  0  0  0
  -15.1112   19.4860  -10.3552 C   0  0  0  0  0  0  0  0  0  0  0  0
  -16.0789   20.1928  -11.0634 C   0  0  0  0  0  0  0  0  0  0  0  0
  -16.9905   19.5938  -11.9364 C   0  0  0  0  0  0  0  0  0  0  0  0
  -16.8871   18.2122  -12.0953 C   0  0  0  0  0  0  0  0  0  0  0  0
  -17.6751   17.3951  -12.9092 O   0  0  0  0  0  0  0  0  0  0  0  0
  -17.9769   20.4470  -12.6883 C   0  0  0  0  0  0  0  0  0  0  0  0
  -18.9019   21.0427  -12.0347 O   0  0  0  0  0  0  0  0  0  0  0  0
  -17.8436   20.4813  -13.9575 O   0  0  0  0  0  0  0  0  0  0  0  0
  -18.9361   20.9717  -11.1010 H   0  0  0  0  0  0  0  0  0  0  0  0
  1  2  1  0  0  0
  1  5  2  0  0  0
  2  3  1  0  0  0
  2  8  2  0  0  0
  3  4  2  0  0  0
  4  9  1  0  0  0
  5  6  1  0  0  0
  6  7  2  0  0  0
  7 10  1  0  0  0
  7  8  1  0  0  0
 10 11  1  0  0  0
 10 12  2  0  0  0
  9  8  1  0  0  0
 11 13  1  0  0  0
M  END
> <minimizedAffinity>
-7.37881

$$$$
4AHS_AKH_A_1216


 13 14  0  0  0  0  0  0  0  0999 V2000
  -15.4982   17.1723  -11.1148 C   0  0  0  0  0  0  0  0  0  0  0  0
  -16.5460   17.0970  -12.0402 C   0  0  0  0  0  0  0  0  0  0  0  0
  -17.0548   15.8601  -12.7376 C   0  0  0  0  0  0  0  0  0  0  0  0
  -18.1614   16.4824  -13.5756 C   0  0  0  0  0  0  0  0  0  0  0  0
  -15.1807   18.3963  -10.5726 C   0  0  0  0  0  0  0  0  0  0  0  0
  -15.9230   19.5114  -10.9508 C   0  0  0  0  0  0  0  0  0  0  0  0
  -16.9782   19.4647  -11.8654 C   0  0  0  0  0  0  0  0  0  0  0  0
  -17.2667   18.2192  -12.4225 C   0  0  0  0  0  0  0  0  0  0  0  0
  -18.2631   17.9224  -13.3552 O   0  0  0  0  0  0  0  0  0  0  0  0
  -17.6982   20.7321  -12.2414 C   0  0  0  0  0  0  0  0  0  0  0  0
  -18.9514   20.8251  -11.9999 O   0  0  0  0  0  0  0  0  0  0  0  0
  -17.0007   21.6268  -12.8271 O   0  0  0  0  0  0  0  0  0  0  0  0
  -19.3978   20.1256  -11.5646 H   0  0  0  0  0  0  0  0  0  0  0  0
  1  2  1  0  0  0
  1  5  2  0  0  0
  2  3  1  0  0  0
  2  8  2  0  0  0
  3  4  2  0  0  0
  4  9  1  0  0  0
  5  6  1  0  0  0
  6  7  2  0  0  0
  7 10  1  0  0  0
  7  8  1  0  0  0
 10 11  1  0  0  0
 10 12  2  0  0  0
  9  8  1  0  0  0
 11 13  1  0  0  0
M  END
> <minimizedAffinity>
-7.07784

$$$$
4AHS_AKH_A_1216


 13 14  0  0  0  0  0  0  0  0999 V2000
  -17.2421   16.3196  -13.6692 C   0  0  0  0  0  0  0  0  0  0  0  0
  -16.4743   16.6331  -12.5414 C   0  0  0  0  0  0  0  0  0  0  0  0
  -15.5869   15.6981  -11.7582 C   0  0  0  0  0  0  0  0  0  0  0  0
  -15.0778   16.6643  -10.6992 C   0  0  0  0  0  0  0  0  0  0  0  0
  -17.9872   17.3140  -14.2599 C   0  0  0  0  0  0  0  0  0  0  0  0
  -17.9374   18.5983  -13.7253 C   0  0  0  0  0  0  0  0  0  0  0  0
  -17.1745   18.9415  -12.6062 C   0  0  0  0  0  0  0  0  0  0  0  0
  -16.4472   17.9133  -12.0073 C   0  0  0  0  0  0  0  0  0  0  0  0
  -15.6216   18.0068  -10.8846 O   0  0  0  0  0  0  0  0  0  0  0  0
  -17.2148   20.3505  -12.0776 C   0  0  0  0  0  0  0  0  0  0  0  0
  -16.1541   20.8468  -11.5616 O   0  0  0  0  0  0  0  0  0  0  0  0
  -18.3412   20.9478  -12.1438 O   0  0  0  0  0  0  0  0  0  0  0  0
  -15.3614   20.3474  -11.5489 H   0  0  0  0  0  0  0  0  0  0  0  0
  1  2  1  0  0  0
  1  5  2  0  0  0
  2  3  1  0  0  0
  2  8  2  0  0  0
  3  4  2  0  0  0
  4  9  1  0  0  0
  5  6  1  0  0  0
  6  7  2  0  0  0
  7 10  1  0  0  0
  7  8  1  0  0  0
 10 11  1  0  0  0
 10 12  2  0  0  0
  9  8  1  0  0  0
 11 13  1  0  0  0
M  END
> <minimizedAffinity>
-6.91625

$$$$
4AHS_AKH_A_1216


 13 14  0  0  0  0  0  0  0  0999 V2000
  -15.6425   17.6448  -11.0628 C   0  0  0  0  0  0  0  0  0  0  0  0
  -16.4844   18.4584  -11.8303 C   0  0  0  0  0  0  0  0  0  0  0  0
  -16.7081   19.9414  -11.6695 C   0  0  0  0  0  0  0  0  0  0  0  0
  -17.7109   20.1665  -12.7910 C   0  0  0  0  0  0  0  0  0  0  0  0
  -15.5600   16.3053  -11.3661 C   0  0  0  0  0  0  0  0  0  0  0  0
  -16.3031   15.8115  -12.4346 C   0  0  0  0  0  0  0  0  0  0  0  0
  -17.1449   16.6010  -13.2221 C   0  0  0  0  0  0  0  0  0  0  0  0
  -17.2338   17.9505  -12.8816 C   0  0  0  0  0  0  0  0  0  0  0  0
  -18.0055   18.9303  -13.5104 O   0  0  0  0  0  0  0  0  0  0  0  0
  -17.9389   15.9686  -14.3337 C   0  0  0  0  0  0  0  0  0  0  0  0
  -18.7296   16.7022  -15.0223 O   0  0  0  0  0  0  0  0  0  0  0  0
  -17.7964   14.7089  -14.4852 O   0  0  0  0  0  0  0  0  0  0  0  0
  -18.7809   17.6224  -14.8537 H   0  0  0  0  0  0  0  0  0  0  0  0
  1  2  1  0  0  0
  1  5  2  0  0  0
  2  3  1  0  0  0
  2  8  2  0  0  0
  3  4  2  0  0  0
  4  9  1  0  0  0
  5  6  1  0  0  0
  6  7  2  0  0  0
  7 10  1  0  0  0
  7  8  1  0  0  0
 10 11  1  0  0  0
 10 12  2  0  0  0
  9  8  1  0  0  0
 11 13  1  0  0  0
M  END
> <minimizedAffinity>
-6.88468

$$$$
4AHS_AKH_A_1216


 13 14  0  0  0  0  0  0  0  0999 V2000
  -15.4006   16.3895  -10.9581 C   0  0  0  0  0  0  0  0  0  0  0  0
  -16.3550   15.9925  -11.9021 C   0  0  0  0  0  0  0  0  0  0  0  0
  -16.6916   14.5814  -12.3153 C   0  0  0  0  0  0  0  0  0  0  0  0
  -17.7733   14.8731  -13.3444 C   0  0  0  0  0  0  0  0  0  0  0  0
  -15.2394   17.7321  -10.7042 C   0  0  0  0  0  0  0  0  0  0  0  0
  -16.0422   18.6451  -11.3823 C   0  0  0  0  0  0  0  0  0  0  0  0
  -17.0073   18.2773  -12.3232 C   0  0  0  0  0  0  0  0  0  0  0  0
  -17.1365   16.9136  -12.5845 C   0  0  0  0  0  0  0  0  0  0  0  0
  -18.0199   16.3060  -13.4798 O   0  0  0  0  0  0  0  0  0  0  0  0
  -17.8015   19.3404  -13.0340 C   0  0  0  0  0  0  0  0  0  0  0  0
  -17.9033   19.2864  -14.3085 O   0  0  0  0  0  0  0  0  0  0  0  0
  -18.2912   20.2651  -12.3026 O   0  0  0  0  0  0  0  0  0  0  0  0
  -17.5166   18.5747  -14.7796 H   0  0  0  0  0  0  0  0  0  0  0  0
  1  2  1  0  0  0
  1  5  2  0  0  0
  2  3  1  0  0  0
  2  8  2  0  0  0
  3  4  2  0  0  0
  4  9  1  0  0  0
  5  6  1  0  0  0
  6  7  2  0  0  0
  7 10  1  0  0  0
  7  8  1  0  0  0
 10 11  1  0  0  0
 10 12  2  0  0  0
  9  8  1  0  0  0
 11 13  1  0  0  0
M  END
> <minimizedAffinity>
-6.66942

$$$$
4AHS_AKH_A_1216


 13 14  0  0  0  0  0  0  0  0999 V2000
  -15.4901   20.0662  -10.6354 C   0  0  0  0  0  0  0  0  0  0  0  0
  -16.3864   19.8918  -11.6965 C   0  0  0  0  0  0  0  0  0  0  0  0
  -17.1177   20.9715  -12.4545 C   0  0  0  0  0  0  0  0  0  0  0  0
  -17.8969   20.1063  -13.4335 C   0  0  0  0  0  0  0  0  0  0  0  0
  -14.9087   18.9544  -10.0706 C   0  0  0  0  0  0  0  0  0  0  0  0
  -15.2197   17.6991  -10.5853 C   0  0  0  0  0  0  0  0  0  0  0  0
  -16.1038   17.4958  -11.6478 C   0  0  0  0  0  0  0  0  0  0  0  0
  -16.7018   18.6336  -12.1887 C   0  0  0  0  0  0  0  0  0  0  0  0
  -17.6159   18.6860  -13.2436 O   0  0  0  0  0  0  0  0  0  0  0  0
  -16.4072   16.0957  -12.1105 C   0  0  0  0  0  0  0  0  0  0  0  0
  -16.9540   15.9288  -13.2554 O   0  0  0  0  0  0  0  0  0  0  0  0
  -16.1310   15.1566  -11.2910 O   0  0  0  0  0  0  0  0  0  0  0  0
  -17.1269   16.6682  -13.8043 H   0  0  0  0  0  0  0  0  0  0  0  0
  1  2  1  0  0  0
  1  5  2  0  0  0
  2  3  1  0  0  0
  2  8  2  0  0  0
  3  4  2  0  0  0
  4  9  1  0  0  0
  5  6  1  0  0  0
  6  7  2  0  0  0
  7 10  1  0  0  0
  7  8  1  0  0  0
 10 11  1  0  0  0
 10 12  2  0  0  0
  9  8  1  0  0  0
 11 13  1  0  0  0
M  END
> <minimizedAffinity>
-6.64038

$$$$
4AHS_AKH_A_1216


 13 14  0  0  0  0  0  0  0  0999 V2000
  -18.0595   17.7472  -14.5164 C   0  0  0  0  0  0  0  0  0  0  0  0
  -17.5547   18.5721  -13.5043 C   0  0  0  0  0  0  0  0  0  0  0  0
  -17.7401   20.0631  -13.3707 C   0  0  0  0  0  0  0  0  0  0  0  0
  -16.9506   20.3002  -12.0922 C   0  0  0  0  0  0  0  0  0  0  0  0
  -17.7927   16.3984  -14.4655 C   0  0  0  0  0  0  0  0  0  0  0  0
  -17.0455   15.9012  -13.4015 C   0  0  0  0  0  0  0  0  0  0  0  0
  -16.5361   16.6991  -12.3740 C   0  0  0  0  0  0  0  0  0  0  0  0
  -16.7960   18.0667  -12.4585 C   0  0  0  0  0  0  0  0  0  0  0  0
  -16.3917   19.0593  -11.5628 O   0  0  0  0  0  0  0  0  0  0  0  0
  -15.7055   16.0750  -11.2846 C   0  0  0  0  0  0  0  0  0  0  0  0
  -14.6824   16.7081  -10.8488 O   0  0  0  0  0  0  0  0  0  0  0  0
  -16.0639   14.9133  -10.8950 O   0  0  0  0  0  0  0  0  0  0  0  0
  -14.4813   17.5601  -11.1829 H   0  0  0  0  0  0  0  0  0  0  0  0
  1  2  1  0  0  0
  1  5  2  0  0  0
  2  3  1  0  0  0
  2  8  2  0  0  0
  3  4  2  0  0  0
  4  9  1  0  0  0
  5  6  1  0  0  0
  6  7  2  0  0  0
  7 10  1  0  0  0
  7  8  1  0  0  0
 10 11  1  0  0  0
 10 12  2  0  0  0
  9  8  1  0  0  0
 11 13  1  0  0  0
M  END
> <minimizedAffinity>
-6.63579

$$$$
4AHS_AKH_A_1216


 13 14  0  0  0  0  0  0  0  0999 V2000
  -16.1067   15.1391  -11.3353 C   0  0  0  0  0  0  0  0  0  0  0  0
  -17.0647   14.8343  -12.3095 C   0  0  0  0  0  0  0  0  0  0  0  0
  -17.6879   13.4877  -12.5807 C   0  0  0  0  0  0  0  0  0  0  0  0
  -18.6069   13.8644  -13.7329 C   0  0  0  0  0  0  0  0  0  0  0  0
  -15.6596   16.4360  -11.2298 C   0  0  0  0  0  0  0  0  0  0  0  0
  -16.1879   17.4002  -12.0834 C   0  0  0  0  0  0  0  0  0  0  0  0
  -17.1499   17.1265  -13.0590 C   0  0  0  0  0  0  0  0  0  0  0  0
  -17.5703   15.8012  -13.1665 C   0  0  0  0  0  0  0  0  0  0  0  0
  -18.5105   15.2841  -14.0607 O   0  0  0  0  0  0  0  0  0  0  0  0
  -17.6334   18.2295  -13.9621 C   0  0  0  0  0  0  0  0  0  0  0  0
  -17.8070   17.9784  -15.2049 O   0  0  0  0  0  0  0  0  0  0  0  0
  -17.7978   19.3737  -13.4201 O   0  0  0  0  0  0  0  0  0  0  0  0
  -17.6668   17.1115  -15.5317 H   0  0  0  0  0  0  0  0  0  0  0  0
  1  2  1  0  0  0
  1  5  2  0  0  0
  2  3  1  0  0  0
  2  8  2  0  0  0
  3  4  2  0  0  0
  4  9  1  0  0  0
  5  6  1  0  0  0
  6  7  2  0  0  0
  7 10  1  0  0  0
  7  8  1  0  0  0
 10 11  1  0  0  0
 10 12  2  0  0  0
  9  8  1  0  0  0
 11 13  1  0  0  0
M  END
> <minimizedAffinity>
-6.62133

$$$$
4AHS_AKH_A_1216


 13 14  0  0  0  0  0  0  0  0999 V2000
  -17.9170   19.9935  -13.6651 C   0  0  0  0  0  0  0  0  0  0  0  0
  -17.5460   18.6518  -13.5175 C   0  0  0  0  0  0  0  0  0  0  0  0
  -17.9739   17.4909  -14.3803 C   0  0  0  0  0  0  0  0  0  0  0  0
  -17.2292   16.3671  -13.6756 C   0  0  0  0  0  0  0  0  0  0  0  0
  -17.4147   20.9201  -12.7808 C   0  0  0  0  0  0  0  0  0  0  0  0
  -16.5435   20.4928  -11.7827 C   0  0  0  0  0  0  0  0  0  0  0  0
  -16.1501   19.1626  -11.6166 C   0  0  0  0  0  0  0  0  0  0  0  0
  -16.6908   18.2358  -12.5073 C   0  0  0  0  0  0  0  0  0  0  0  0
  -16.4550   16.8594  -12.5396 O   0  0  0  0  0  0  0  0  0  0  0  0
  -15.2327   18.7905  -10.4825 C   0  0  0  0  0  0  0  0  0  0  0  0
  -14.8832   17.5669  -10.3473 O   0  0  0  0  0  0  0  0  0  0  0  0
  -14.8964   19.7358   -9.6931 O   0  0  0  0  0  0  0  0  0  0  0  0
  -15.1696   16.9264  -10.9684 H   0  0  0  0  0  0  0  0  0  0  0  0
  1  2  1  0  0  0
  1  5  2  0  0  0
  2  3  1  0  0  0
  2  8  2  0  0  0
  3  4  2  0  0  0
  4  9  1  0  0  0
  5  6  1  0  0  0
  6  7  2  0  0  0
  7 10  1  0  0  0
  7  8  1  0  0  0
 10 11  1  0  0  0
 10 12  2  0  0  0
  9  8  1  0  0  0
 11 13  1  0  0  0
M  END
> <minimizedAffinity>
-6.21624

$$$$
4AHS_AKH_A_1216


 13 14  0  0  0  0  0  0  0  0999 V2000
  -16.1294   15.4222  -11.2390 C   0  0  0  0  0  0  0  0  0  0  0  0
  -16.8586   14.3384  -11.7423 C   0  0  0  0  0  0  0  0  0  0  0  0
  -17.0575   12.9946  -11.0867 C   0  0  0  0  0  0  0  0  0  0  0  0
  -17.9168   12.3232  -12.1474 C   0  0  0  0  0  0  0  0  0  0  0  0
  -16.0676   16.5797  -11.9802 C   0  0  0  0  0  0  0  0  0  0  0  0
  -16.7458   16.6367  -13.1945 C   0  0  0  0  0  0  0  0  0  0  0  0
  -17.4872   15.5742  -13.7173 C   0  0  0  0  0  0  0  0  0  0  0  0
  -17.5154   14.4018  -12.9627 C   0  0  0  0  0  0  0  0  0  0  0  0
  -18.1781   13.2127  -13.2756 O   0  0  0  0  0  0  0  0  0  0  0  0
  -18.1553   15.7175  -15.0587 C   0  0  0  0  0  0  0  0  0  0  0  0
  -19.1931   16.4600  -15.1553 O   0  0  0  0  0  0  0  0  0  0  0  0
  -17.6534   15.0386  -16.0163 O   0  0  0  0  0  0  0  0  0  0  0  0
  -19.5042   16.9301  -14.4068 H   0  0  0  0  0  0  0  0  0  0  0  0
  1  2  1  0  0  0
  1  5  2  0  0  0
  2  3  1  0  0  0
  2  8  2  0  0  0
  3  4  2  0  0  0
  4  9  1  0  0  0
  5  6  1  0  0  0
  6  7  2  0  0  0
  7 10  1  0  0  0
  7  8  1  0  0  0
 10 11  1  0  0  0
 10 12  2  0  0  0
  9  8  1  0  0  0
 11 13  1  0  0  0
M  END
> <minimizedAffinity>
-6.21403

$$$$
