1Q8W_M77_A_960


 21 23  0  0  0  0  0  0  0  0999 V2000
   27.2463   26.8528    9.4251 O   0  0  0  0  0  0  0  0  0  0  0  0
   27.5474   25.7662    8.4863 S   0  0  0  0  0  0  0  0  0  0  0  0
   28.3612   26.1554    7.3526 O   0  0  0  0  0  0  0  0  0  0  0  0
   26.1687   24.7854    7.9378 C   0  0  0  0  0  0  0  0  0  0  0  0
   26.3748   23.4722    7.5222 C   0  0  0  0  0  0  0  0  0  0  0  0
   25.2798   22.6526    7.0951 C   0  0  0  0  0  0  0  0  0  0  0  0
   23.9894   23.1439    7.1090 C   0  0  0  0  0  0  0  0  0  0  0  0
   23.7689   24.4834    7.5100 C   0  0  0  0  0  0  0  0  0  0  0  0
   24.8443   25.3094    7.9257 C   0  0  0  0  0  0  0  0  0  0  0  0
   24.5188   26.6409    8.3113 C   0  0  0  0  0  0  0  0  0  0  0  0
   22.4778   25.0340    7.4895 C   0  0  0  0  0  0  0  0  0  0  0  0
   22.2076   26.2701    7.8971 N   0  0  0  0  0  0  0  0  0  0  0  0
   23.2261   27.0878    8.2871 C   0  0  0  0  0  0  0  0  0  0  0  0
   28.3282   24.5789    9.2756 N   0  0  0  0  0  0  0  0  0  0  0  0
   27.6946   23.9774   10.5022 C   0  0  0  0  0  0  0  0  0  0  0  0
   28.6170   23.7023   11.7125 C   0  0  0  0  0  0  0  0  0  0  0  0
   29.7230   24.7371   11.7928 N   0  0  0  0  0  0  0  0  0  0  0  0
   30.8880   24.3719   10.8758 C   0  0  0  0  0  0  0  0  0  0  0  0
   30.7268   24.9428    9.4560 C   0  0  0  0  0  0  0  0  0  0  0  0
   29.6335   24.1512    8.7171 C   0  0  0  0  0  0  0  0  0  0  0  0
   30.0600   24.7899   12.7541 H   0  0  0  0  0  0  0  0  0  0  0  0
  1  2  2  0  0  0
  2  3  2  0  0  0
  2 14  1  0  0  0
  2  4  1  0  0  0
 14 15  1  0  0  0
 14 20  1  0  0  0
 15 16  1  0  0  0
 16 17  1  0  0  0
 17 18  1  0  0  0
 18 19  1  0  0  0
 19 20  1  0  0  0
  4  5  2  0  0  0
  4  9  1  0  0  0
  5  6  1  0  0  0
  6  7  2  0  0  0
  7  8  1  0  0  0
  8  9  2  0  0  0
  8 11  1  0  0  0
  9 10  1  0  0  0
 10 13  2  0  0  0
 11 12  2  0  0  0
 12 13  1  0  0  0
 17 21  1  0  0  0
M  END
> <minimizedAffinity>
-8.42843

$$$$
1Q8W_M77_A_960


 21 23  0  0  0  0  0  0  0  0999 V2000
   26.5923   22.4824    8.9506 O   0  0  0  0  0  0  0  0  0  0  0  0
   26.9790   23.7868    9.4998 S   0  0  0  0  0  0  0  0  0  0  0  0
   26.6568   23.9722   10.9001 O   0  0  0  0  0  0  0  0  0  0  0  0
   26.4866   25.2190    8.5671 C   0  0  0  0  0  0  0  0  0  0  0  0
   27.4542   26.0207    7.9666 C   0  0  0  0  0  0  0  0  0  0  0  0
   27.0852   27.1684    7.1921 C   0  0  0  0  0  0  0  0  0  0  0  0
   25.7554   27.4905    7.0062 C   0  0  0  0  0  0  0  0  0  0  0  0
   24.7628   26.6956    7.6280 C   0  0  0  0  0  0  0  0  0  0  0  0
   25.1137   25.5625    8.4055 C   0  0  0  0  0  0  0  0  0  0  0  0
   24.0424   24.8272    8.9880 C   0  0  0  0  0  0  0  0  0  0  0  0
   23.4030   27.0207    7.5036 C   0  0  0  0  0  0  0  0  0  0  0  0
   22.4282   26.2848    8.0284 N   0  0  0  0  0  0  0  0  0  0  0  0
   22.7407   25.1997    8.7920 C   0  0  0  0  0  0  0  0  0  0  0  0
   28.5831   23.9852    9.3273 N   0  0  0  0  0  0  0  0  0  0  0  0
   29.2695   23.3809    8.1309 C   0  0  0  0  0  0  0  0  0  0  0  0
   30.6295   22.6854    8.3718 C   0  0  0  0  0  0  0  0  0  0  0  0
   30.6688   22.0402    9.7439 N   0  0  0  0  0  0  0  0  0  0  0  0
   31.0452   23.0554   10.8205 C   0  0  0  0  0  0  0  0  0  0  0  0
   29.8201   23.7750   11.4115 C   0  0  0  0  0  0  0  0  0  0  0  0
   29.2754   24.7735   10.3751 C   0  0  0  0  0  0  0  0  0  0  0  0
   31.3591   21.2892    9.7388 H   0  0  0  0  0  0  0  0  0  0  0  0
  1  2  2  0  0  0
  2  3  2  0  0  0
  2 14  1  0  0  0
  2  4  1  0  0  0
 14 15  1  0  0  0
 14 20  1  0  0  0
 15 16  1  0  0  0
 16 17  1  0  0  0
 17 18  1  0  0  0
 18 19  1  0  0  0
 19 20  1  0  0  0
  4  5  2  0  0  0
  4  9  1  0  0  0
  5  6  1  0  0  0
  6  7  2  0  0  0
  7  8  1  0  0  0
  8  9  2  0  0  0
  8 11  1  0  0  0
  9 10  1  0  0  0
 10 13  2  0  0  0
 11 12  2  0  0  0
 12 13  1  0  0  0
 17 21  1  0  0  0
M  END
> <minimizedAffinity>
-7.78670

$$$$
1Q8W_M77_A_960


 21 23  0  0  0  0  0  0  0  0999 V2000
   27.6287   25.6940   11.3885 O   0  0  0  0  0  0  0  0  0  0  0  0
   28.0180   25.5560    9.9806 S   0  0  0  0  0  0  0  0  0  0  0  0
   28.2305   26.8100    9.2869 O   0  0  0  0  0  0  0  0  0  0  0  0
   27.0224   24.4702    8.9839 C   0  0  0  0  0  0  0  0  0  0  0  0
   27.5205   23.2255    8.6066 C   0  0  0  0  0  0  0  0  0  0  0  0
   26.7324   22.3222    7.8216 C   0  0  0  0  0  0  0  0  0  0  0  0
   25.4489   22.6605    7.4412 C   0  0  0  0  0  0  0  0  0  0  0  0
   24.9384   23.9308    7.8010 C   0  0  0  0  0  0  0  0  0  0  0  0
   25.7106   24.8391    8.5693 C   0  0  0  0  0  0  0  0  0  0  0  0
   25.1073   26.0907    8.8808 C   0  0  0  0  0  0  0  0  0  0  0  0
   23.6571   24.3304    7.3901 C   0  0  0  0  0  0  0  0  0  0  0  0
   23.1115   25.4921    7.7364 N   0  0  0  0  0  0  0  0  0  0  0  0
   23.8393   26.3878    8.4619 C   0  0  0  0  0  0  0  0  0  0  0  0
   29.3945   24.6963    9.8884 N   0  0  0  0  0  0  0  0  0  0  0  0
   29.6650   23.6371   10.9240 C   0  0  0  0  0  0  0  0  0  0  0  0
   31.1025   23.5492   11.4874 C   0  0  0  0  0  0  0  0  0  0  0  0
   31.7446   24.9223   11.5415 N   0  0  0  0  0  0  0  0  0  0  0  0
   32.3431   25.3051   10.1899 C   0  0  0  0  0  0  0  0  0  0  0  0
   31.3362   26.0292    9.2790 C   0  0  0  0  0  0  0  0  0  0  0  0
   30.3048   25.0114    8.7611 C   0  0  0  0  0  0  0  0  0  0  0  0
   32.4846   24.9162   12.2434 H   0  0  0  0  0  0  0  0  0  0  0  0
  1  2  2  0  0  0
  2  3  2  0  0  0
  2 14  1  0  0  0
  2  4  1  0  0  0
 14 15  1  0  0  0
 14 20  1  0  0  0
 15 16  1  0  0  0
 16 17  1  0  0  0
 17 18  1  0  0  0
 18 19  1  0  0  0
 19 20  1  0  0  0
  4  5  2  0  0  0
  4  9  1  0  0  0
  5  6  1  0  0  0
  6  7  2  0  0  0
  7  8  1  0  0  0
  8  9  2  0  0  0
  8 11  1  0  0  0
  9 10  1  0  0  0
 10 13  2  0  0  0
 11 12  2  0  0  0
 12 13  1  0  0  0
 17 21  1  0  0  0
M  END
> <minimizedAffinity>
-7.51372

$$$$
1Q8W_M77_A_960


 21 23  0  0  0  0  0  0  0  0999 V2000
   27.2740   23.6383   11.4754 O   0  0  0  0  0  0  0  0  0  0  0  0
   27.5015   24.8508   10.6812 S   0  0  0  0  0  0  0  0  0  0  0  0
   27.6483   26.0640   11.4594 O   0  0  0  0  0  0  0  0  0  0  0  0
   26.3890   25.1304    9.3219 C   0  0  0  0  0  0  0  0  0  0  0  0
   25.8371   26.3943    9.1274 C   0  0  0  0  0  0  0  0  0  0  0  0
   24.9545   26.6532    8.0287 C   0  0  0  0  0  0  0  0  0  0  0  0
   24.6503   25.6556    7.1237 C   0  0  0  0  0  0  0  0  0  0  0  0
   25.1886   24.3615    7.3216 C   0  0  0  0  0  0  0  0  0  0  0  0
   26.0556   24.0880    8.4102 C   0  0  0  0  0  0  0  0  0  0  0  0
   26.5454   22.7557    8.5215 C   0  0  0  0  0  0  0  0  0  0  0  0
   24.8624   23.3093    6.4517 C   0  0  0  0  0  0  0  0  0  0  0  0
   25.3734   22.0873    6.5644 N   0  0  0  0  0  0  0  0  0  0  0  0
   26.1973   21.7962    7.6106 C   0  0  0  0  0  0  0  0  0  0  0  0
   28.8498   24.6628    9.7929 N   0  0  0  0  0  0  0  0  0  0  0  0
   29.8070   23.5544   10.1435 C   0  0  0  0  0  0  0  0  0  0  0  0
   31.3169   23.8868   10.1109 C   0  0  0  0  0  0  0  0  0  0  0  0
   31.5597   25.3288   10.5136 N   0  0  0  0  0  0  0  0  0  0  0  0
   31.3696   26.2723    9.3282 C   0  0  0  0  0  0  0  0  0  0  0  0
   29.9180   26.7629    9.1874 C   0  0  0  0  0  0  0  0  0  0  0  0
   29.0452   25.6075    8.6668 C   0  0  0  0  0  0  0  0  0  0  0  0
   32.5137   25.4207   10.8625 H   0  0  0  0  0  0  0  0  0  0  0  0
  1  2  2  0  0  0
  2  3  2  0  0  0
  2 14  1  0  0  0
  2  4  1  0  0  0
 14 15  1  0  0  0
 14 20  1  0  0  0
 15 16  1  0  0  0
 16 17  1  0  0  0
 17 18  1  0  0  0
 18 19  1  0  0  0
 19 20  1  0  0  0
  4  5  2  0  0  0
  4  9  1  0  0  0
  5  6  1  0  0  0
  6  7  2  0  0  0
  7  8  1  0  0  0
  8  9  2  0  0  0
  8 11  1  0  0  0
  9 10  1  0  0  0
 10 13  2  0  0  0
 11 12  2  0  0  0
 12 13  1  0  0  0
 17 21  1  0  0  0
M  END
> <minimizedAffinity>
-7.46690

$$$$
1Q8W_M77_A_960


 21 23  0  0  0  0  0  0  0  0999 V2000
   28.0617   27.3902    9.3030 O   0  0  0  0  0  0  0  0  0  0  0  0
   27.5814   26.2223    8.5559 S   0  0  0  0  0  0  0  0  0  0  0  0
   28.1964   26.0416    7.2567 O   0  0  0  0  0  0  0  0  0  0  0  0
   25.8176   26.0326    8.4263 C   0  0  0  0  0  0  0  0  0  0  0  0
   24.9769   27.0456    8.8808 C   0  0  0  0  0  0  0  0  0  0  0  0
   23.5531   26.9285    8.7699 C   0  0  0  0  0  0  0  0  0  0  0  0
   22.9848   25.8134    8.1865 C   0  0  0  0  0  0  0  0  0  0  0  0
   23.8273   24.7678    7.7389 C   0  0  0  0  0  0  0  0  0  0  0  0
   25.2378   24.8655    7.8513 C   0  0  0  0  0  0  0  0  0  0  0  0
   25.9979   23.7615    7.3707 C   0  0  0  0  0  0  0  0  0  0  0  0
   23.2844   23.5971    7.1865 C   0  0  0  0  0  0  0  0  0  0  0  0
   24.0292   22.6044    6.7101 N   0  0  0  0  0  0  0  0  0  0  0  0
   25.3864   22.6686    6.8201 C   0  0  0  0  0  0  0  0  0  0  0  0
   27.8573   24.8790    9.4287 N   0  0  0  0  0  0  0  0  0  0  0  0
   27.0814   24.6622   10.7010 C   0  0  0  0  0  0  0  0  0  0  0  0
   27.8624   24.1263   11.9234 C   0  0  0  0  0  0  0  0  0  0  0  0
   29.2892   24.6408   11.9186 N   0  0  0  0  0  0  0  0  0  0  0  0
   30.1822   23.7827   11.0254 C   0  0  0  0  0  0  0  0  0  0  0  0
   30.2095   24.2736    9.5672 C   0  0  0  0  0  0  0  0  0  0  0  0
   28.8670   23.9322    8.8968 C   0  0  0  0  0  0  0  0  0  0  0  0
   29.6535   24.6204   12.8711 H   0  0  0  0  0  0  0  0  0  0  0  0
  1  2  2  0  0  0
  2  3  2  0  0  0
  2 14  1  0  0  0
  2  4  1  0  0  0
 14 15  1  0  0  0
 14 20  1  0  0  0
 15 16  1  0  0  0
 16 17  1  0  0  0
 17 18  1  0  0  0
 18 19  1  0  0  0
 19 20  1  0  0  0
  4  5  2  0  0  0
  4  9  1  0  0  0
  5  6  1  0  0  0
  6  7  2  0  0  0
  7  8  1  0  0  0
  8  9  2  0  0  0
  8 11  1  0  0  0
  9 10  1  0  0  0
 10 13  2  0  0  0
 11 12  2  0  0  0
 12 13  1  0  0  0
 17 21  1  0  0  0
M  END
> <minimizedAffinity>
-7.25785

$$$$
1Q8W_M77_A_960


 21 23  0  0  0  0  0  0  0  0999 V2000
   30.6482   24.1552    7.0814 O   0  0  0  0  0  0  0  0  0  0  0  0
   29.6515   24.0820    8.1556 S   0  0  0  0  0  0  0  0  0  0  0  0
   29.3246   22.7377    8.5857 O   0  0  0  0  0  0  0  0  0  0  0  0
   28.1620   25.0258    7.9229 C   0  0  0  0  0  0  0  0  0  0  0  0
   28.2227   26.4167    7.8826 C   0  0  0  0  0  0  0  0  0  0  0  0
   27.0417   27.2013    7.6756 C   0  0  0  0  0  0  0  0  0  0  0  0
   25.8178   26.5900    7.4885 C   0  0  0  0  0  0  0  0  0  0  0  0
   25.7394   25.1779    7.5475 C   0  0  0  0  0  0  0  0  0  0  0  0
   26.8983   24.3889    7.7615 C   0  0  0  0  0  0  0  0  0  0  0  0
   26.7150   22.9774    7.8030 C   0  0  0  0  0  0  0  0  0  0  0  0
   24.5053   24.5228    7.4121 C   0  0  0  0  0  0  0  0  0  0  0  0
   24.3803   23.1993    7.4148 N   0  0  0  0  0  0  0  0  0  0  0  0
   25.4771   22.4201    7.6335 C   0  0  0  0  0  0  0  0  0  0  0  0
   30.1990   24.8995    9.4495 N   0  0  0  0  0  0  0  0  0  0  0  0
   31.3862   25.8119    9.2884 C   0  0  0  0  0  0  0  0  0  0  0  0
   32.4590   25.7804   10.4018 C   0  0  0  0  0  0  0  0  0  0  0  0
   32.5764   24.3904   10.9973 N   0  0  0  0  0  0  0  0  0  0  0  0
   31.5159   24.1588   12.0712 C   0  0  0  0  0  0  0  0  0  0  0  0
   30.2066   23.5881   11.4985 C   0  0  0  0  0  0  0  0  0  0  0  0
   29.4710   24.6967   10.7252 C   0  0  0  0  0  0  0  0  0  0  0  0
   33.5011   24.2841   11.4144 H   0  0  0  0  0  0  0  0  0  0  0  0
  1  2  2  0  0  0
  2  3  2  0  0  0
  2 14  1  0  0  0
  2  4  1  0  0  0
 14 15  1  0  0  0
 14 20  1  0  0  0
 15 16  1  0  0  0
 16 17  1  0  0  0
 17 18  1  0  0  0
 18 19  1  0  0  0
 19 20  1  0  0  0
  4  5  2  0  0  0
  4  9  1  0  0  0
  5  6  1  0  0  0
  6  7  2  0  0  0
  7  8  1  0  0  0
  8  9  2  0  0  0
  8 11  1  0  0  0
  9 10  1  0  0  0
 10 13  2  0  0  0
 11 12  2  0  0  0
 12 13  1  0  0  0
 17 21  1  0  0  0
M  END
> <minimizedAffinity>
-7.14556

$$$$
1Q8W_M77_A_960


 21 23  0  0  0  0  0  0  0  0999 V2000
   30.6847   22.0069    9.5641 O   0  0  0  0  0  0  0  0  0  0  0  0
   31.0015   23.4319    9.4162 S   0  0  0  0  0  0  0  0  0  0  0  0
   31.2749   23.8520    8.0569 O   0  0  0  0  0  0  0  0  0  0  0  0
   32.2345   24.0899   10.5164 C   0  0  0  0  0  0  0  0  0  0  0  0
   32.6076   25.4281   10.4175 C   0  0  0  0  0  0  0  0  0  0  0  0
   33.5829   25.9899   11.3042 C   0  0  0  0  0  0  0  0  0  0  0  0
   34.1582   25.2175   12.2937 C   0  0  0  0  0  0  0  0  0  0  0  0
   33.8026   23.8508   12.3918 C   0  0  0  0  0  0  0  0  0  0  0  0
   32.8461   23.2787   11.5147 C   0  0  0  0  0  0  0  0  0  0  0  0
   32.5558   21.8964   11.6954 C   0  0  0  0  0  0  0  0  0  0  0  0
   34.4030   23.0217   13.3522 C   0  0  0  0  0  0  0  0  0  0  0  0
   34.0747   21.7441   13.5175 N   0  0  0  0  0  0  0  0  0  0  0  0
   33.1690   21.1678   12.6775 C   0  0  0  0  0  0  0  0  0  0  0  0
   29.7554   24.3168    9.9699 N   0  0  0  0  0  0  0  0  0  0  0  0
   29.3000   24.1272   11.3927 C   0  0  0  0  0  0  0  0  0  0  0  0
   27.7754   24.0834   11.6477 C   0  0  0  0  0  0  0  0  0  0  0  0
   27.0504   23.4578   10.4715 N   0  0  0  0  0  0  0  0  0  0  0  0
   26.7941   24.4852    9.3714 C   0  0  0  0  0  0  0  0  0  0  0  0
   27.9501   24.5715    8.3593 C   0  0  0  0  0  0  0  0  0  0  0  0
   29.1456   25.2793    9.0210 C   0  0  0  0  0  0  0  0  0  0  0  0
   26.1573   23.0835   10.7919 H   0  0  0  0  0  0  0  0  0  0  0  0
  1  2  2  0  0  0
  2  3  2  0  0  0
  2 14  1  0  0  0
  2  4  1  0  0  0
 14 15  1  0  0  0
 14 20  1  0  0  0
 15 16  1  0  0  0
 16 17  1  0  0  0
 17 18  1  0  0  0
 18 19  1  0  0  0
 19 20  1  0  0  0
  4  5  2  0  0  0
  4  9  1  0  0  0
  5  6  1  0  0  0
  6  7  2  0  0  0
  7  8  1  0  0  0
  8  9  2  0  0  0
  8 11  1  0  0  0
  9 10  1  0  0  0
 10 13  2  0  0  0
 11 12  2  0  0  0
 12 13  1  0  0  0
 17 21  1  0  0  0
M  END
> <minimizedAffinity>
-6.87211

$$$$
1Q8W_M77_A_960


 21 23  0  0  0  0  0  0  0  0999 V2000
   29.7112   20.3653    8.3478 O   0  0  0  0  0  0  0  0  0  0  0  0
   30.6869   21.4230    8.6345 S   0  0  0  0  0  0  0  0  0  0  0  0
   31.4678   21.2146    9.8368 O   0  0  0  0  0  0  0  0  0  0  0  0
   30.0838   23.0954    8.5826 C   0  0  0  0  0  0  0  0  0  0  0  0
   30.9607   24.1550    8.8018 C   0  0  0  0  0  0  0  0  0  0  0  0
   30.5065   25.5128    8.7454 C   0  0  0  0  0  0  0  0  0  0  0  0
   29.1888   25.7995    8.4486 C   0  0  0  0  0  0  0  0  0  0  0  0
   28.2829   24.7312    8.2437 C   0  0  0  0  0  0  0  0  0  0  0  0
   28.7161   23.3821    8.3063 C   0  0  0  0  0  0  0  0  0  0  0  0
   27.7290   22.3802    8.0844 C   0  0  0  0  0  0  0  0  0  0  0  0
   26.9254   24.9819    7.9897 C   0  0  0  0  0  0  0  0  0  0  0  0
   26.0412   24.0196    7.7461 N   0  0  0  0  0  0  0  0  0  0  0  0
   26.4302   22.7150    7.8150 C   0  0  0  0  0  0  0  0  0  0  0  0
   31.7196   21.5504    7.3857 N   0  0  0  0  0  0  0  0  0  0  0  0
   31.1731   21.8375    6.0121 C   0  0  0  0  0  0  0  0  0  0  0  0
   31.7796   21.0466    4.8297 C   0  0  0  0  0  0  0  0  0  0  0  0
   32.1888   19.6532    5.2674 N   0  0  0  0  0  0  0  0  0  0  0  0
   33.5713   19.6620    5.9155 C   0  0  0  0  0  0  0  0  0  0  0  0
   33.5132   19.9075    7.4335 C   0  0  0  0  0  0  0  0  0  0  0  0
   33.1610   21.3833    7.6908 C   0  0  0  0  0  0  0  0  0  0  0  0
   32.2073   19.0404    4.4522 H   0  0  0  0  0  0  0  0  0  0  0  0
  1  2  2  0  0  0
  2  3  2  0  0  0
  2 14  1  0  0  0
  2  4  1  0  0  0
 14 15  1  0  0  0
 14 20  1  0  0  0
 15 16  1  0  0  0
 16 17  1  0  0  0
 17 18  1  0  0  0
 18 19  1  0  0  0
 19 20  1  0  0  0
  4  5  2  0  0  0
  4  9  1  0  0  0
  5  6  1  0  0  0
  6  7  2  0  0  0
  7  8  1  0  0  0
  8  9  2  0  0  0
  8 11  1  0  0  0
  9 10  1  0  0  0
 10 13  2  0  0  0
 11 12  2  0  0  0
 12 13  1  0  0  0
 17 21  1  0  0  0
M  END
> <minimizedAffinity>
-6.80004

$$$$
1Q8W_M77_A_960


 21 23  0  0  0  0  0  0  0  0999 V2000
   30.9940   22.1964    9.9543 O   0  0  0  0  0  0  0  0  0  0  0  0
   30.5611   22.5247    8.5914 S   0  0  0  0  0  0  0  0  0  0  0  0
   31.1554   23.7262    8.0417 O   0  0  0  0  0  0  0  0  0  0  0  0
   28.8077   22.5212    8.2923 C   0  0  0  0  0  0  0  0  0  0  0  0
   28.2239   21.4571    7.6093 C   0  0  0  0  0  0  0  0  0  0  0  0
   26.8112   21.4180    7.3727 C   0  0  0  0  0  0  0  0  0  0  0  0
   25.9940   22.4285    7.8394 C   0  0  0  0  0  0  0  0  0  0  0  0
   26.5775   23.5256    8.5173 C   0  0  0  0  0  0  0  0  0  0  0  0
   27.9754   23.5826    8.7500 C   0  0  0  0  0  0  0  0  0  0  0  0
   28.4647   24.7270    9.4418 C   0  0  0  0  0  0  0  0  0  0  0  0
   25.7858   24.5959    8.9623 C   0  0  0  0  0  0  0  0  0  0  0  0
   26.2743   25.6285    9.6422 N   0  0  0  0  0  0  0  0  0  0  0  0
   27.6163   25.7130    9.8655 C   0  0  0  0  0  0  0  0  0  0  0  0
   30.9292   21.2892    7.6014 N   0  0  0  0  0  0  0  0  0  0  0  0
   31.2660   19.9489    8.1997 C   0  0  0  0  0  0  0  0  0  0  0  0
   32.4557   19.1774    7.5827 C   0  0  0  0  0  0  0  0  0  0  0  0
   33.5201   20.1368    7.0857 N   0  0  0  0  0  0  0  0  0  0  0  0
   33.1868   20.6555    5.6888 C   0  0  0  0  0  0  0  0  0  0  0  0
   32.3297   21.9332    5.7194 C   0  0  0  0  0  0  0  0  0  0  0  0
   30.8970   21.5673    6.1452 C   0  0  0  0  0  0  0  0  0  0  0  0
   34.4171   19.6521    7.0554 H   0  0  0  0  0  0  0  0  0  0  0  0
  1  2  2  0  0  0
  2  3  2  0  0  0
  2 14  1  0  0  0
  2  4  1  0  0  0
 14 15  1  0  0  0
 14 20  1  0  0  0
 15 16  1  0  0  0
 16 17  1  0  0  0
 17 18  1  0  0  0
 18 19  1  0  0  0
 19 20  1  0  0  0
  4  5  2  0  0  0
  4  9  1  0  0  0
  5  6  1  0  0  0
  6  7  2  0  0  0
  7  8  1  0  0  0
  8  9  2  0  0  0
  8 11  1  0  0  0
  9 10  1  0  0  0
 10 13  2  0  0  0
 11 12  2  0  0  0
 12 13  1  0  0  0
 17 21  1  0  0  0
M  END
> <minimizedAffinity>
-6.77245

$$$$
1Q8W_M77_A_960


 21 23  0  0  0  0  0  0  0  0999 V2000
   28.0671   23.8455   11.9073 O   0  0  0  0  0  0  0  0  0  0  0  0
   27.9526   24.6874   10.7111 S   0  0  0  0  0  0  0  0  0  0  0  0
   27.5042   26.0412   10.9659 O   0  0  0  0  0  0  0  0  0  0  0  0
   27.0574   23.9980    9.3374 C   0  0  0  0  0  0  0  0  0  0  0  0
   27.3698   22.7209    8.8780 C   0  0  0  0  0  0  0  0  0  0  0  0
   26.6512   22.1326    7.7868 C   0  0  0  0  0  0  0  0  0  0  0  0
   25.6146   22.8148    7.1812 C   0  0  0  0  0  0  0  0  0  0  0  0
   25.3004   24.1216    7.6254 C   0  0  0  0  0  0  0  0  0  0  0  0
   26.0096   24.7204    8.6977 C   0  0  0  0  0  0  0  0  0  0  0  0
   25.6171   26.0374    9.0706 C   0  0  0  0  0  0  0  0  0  0  0  0
   24.2867   24.8657    7.0016 C   0  0  0  0  0  0  0  0  0  0  0  0
   23.9207   26.0781    7.4060 N   0  0  0  0  0  0  0  0  0  0  0  0
   24.5969   26.6804    8.4247 C   0  0  0  0  0  0  0  0  0  0  0  0
   29.4001   24.7721    9.9764 N   0  0  0  0  0  0  0  0  0  0  0  0
   29.4801   25.3375    8.5830 C   0  0  0  0  0  0  0  0  0  0  0  0
   30.3938   24.6044    7.5734 C   0  0  0  0  0  0  0  0  0  0  0  0
   30.4122   23.1129    7.8481 N   0  0  0  0  0  0  0  0  0  0  0  0
   31.4169   22.7661    8.9445 C   0  0  0  0  0  0  0  0  0  0  0  0
   30.7993   22.8179   10.3530 C   0  0  0  0  0  0  0  0  0  0  0  0
   30.5702   24.2875   10.7476 C   0  0  0  0  0  0  0  0  0  0  0  0
   30.6696   22.6201    6.9930 H   0  0  0  0  0  0  0  0  0  0  0  0
  1  2  2  0  0  0
  2  3  2  0  0  0
  2 14  1  0  0  0
  2  4  1  0  0  0
 14 15  1  0  0  0
 14 20  1  0  0  0
 15 16  1  0  0  0
 16 17  1  0  0  0
 17 18  1  0  0  0
 18 19  1  0  0  0
 19 20  1  0  0  0
  4  5  2  0  0  0
  4  9  1  0  0  0
  5  6  1  0  0  0
  6  7  2  0  0  0
  7  8  1  0  0  0
  8  9  2  0  0  0
  8 11  1  0  0  0
  9 10  1  0  0  0
 10 13  2  0  0  0
 11 12  2  0  0  0
 12 13  1  0  0  0
 17 21  1  0  0  0
M  END
> <minimizedAffinity>
-6.77133

$$$$
