2NT7_902_A_800


 42 46  0  0  0  0  0  0  0  0999 V2000
   47.2956   11.1997    0.9843 C   0  0  0  0  0  0  0  0  0  0  0  0
   47.2319    9.9941    1.7383 C   0  0  0  0  0  0  0  0  0  0  0  0
   47.9312    8.8420    1.2755 C   0  0  0  0  0  0  0  0  0  0  0  0
   48.6849    8.8878    0.0445 C   0  0  0  0  0  0  0  0  0  0  0  0
   48.7482   10.0980   -0.7161 C   0  0  0  0  0  0  0  0  0  0  0  0
   48.0429   11.2489   -0.2435 C   0  0  0  0  0  0  0  0  0  0  0  0
   47.0096   13.1649    2.8653 S   0  0  0  0  0  0  0  0  0  0  0  0
   45.8946   14.4207    2.7755 C   0  0  0  0  0  0  0  0  0  0  0  0
   45.1478   14.2853    1.5958 C   0  0  0  0  0  0  0  0  0  0  0  0
   45.5153   13.1637    0.8121 C   0  0  0  0  0  0  0  0  0  0  0  0
   46.5840   12.4231    1.4165 C   0  0  0  0  0  0  0  0  0  0  0  0
   44.6774   12.7205   -0.8377 Br  0  0  0  0  0  0  0  0  0  0  0  0
   45.7596   15.4692    3.8053 C   0  0  0  0  0  0  0  0  0  0  0  0
   46.8322   16.0495    4.3987 N   0  0  0  0  0  0  0  0  0  0  0  0
   44.6360   16.0262    4.3272 N   0  0  0  0  0  0  0  0  0  0  0  0
   45.0132   16.9507    5.2468 N   0  0  0  0  0  0  0  0  0  0  0  0
   46.3764   16.9664    5.2913 N   0  0  0  0  0  0  0  0  0  0  0  0
   46.9312   17.5401    5.8678 H   0  0  0  0  0  0  0  0  0  0  0  0
   44.1078   15.2010    1.2031 O   0  0  0  0  0  0  0  0  0  0  0  0
   44.5858   16.5019    0.8044 C   0  0  0  0  0  0  0  0  0  0  0  0
   43.9347   16.9978   -0.5026 C   0  0  0  0  0  0  0  0  0  0  0  0
   44.2674   18.0735   -0.9993 O   0  0  0  0  0  0  0  0  0  0  0  0
   43.0791   16.2934   -1.0289 O   0  0  0  0  0  0  0  0  0  0  0  0
   44.9227   18.5987   -0.5837 H   0  0  0  0  0  0  0  0  0  0  0  0
   47.8299    7.7044    2.0426 N   0  0  0  0  0  0  0  0  0  0  0  0
   47.0432    7.1297    1.9014 H   0  0  0  0  0  0  0  0  0  0  0  0
   48.8083    7.2802    3.0591 C   0  0  0  0  0  0  0  0  0  0  0  0
   50.2776    7.5888    2.6866 C   0  0  0  0  0  0  0  0  0  0  0  0
   51.1626    7.3027    3.9139 C   0  0  0  0  0  0  0  0  0  0  0  0
   50.9447    5.9532    4.5180 N   0  0  0  0  0  0  0  0  0  0  0  0
   49.5783    5.3394    4.4887 C   0  0  0  0  0  0  0  0  0  0  0  0
   48.6917    5.7685    3.2943 C   0  0  0  0  0  0  0  0  0  0  0  0
   52.2073    5.1742    5.2454 S   0  0  0  0  0  0  0  0  0  0  0  0
   51.7782    4.7802    6.5511 O   0  0  0  0  0  0  0  0  0  0  0  0
   53.3477    6.0652    5.1642 O   0  0  0  0  0  0  0  0  0  0  0  0
   52.6303    3.6865    4.3629 C   0  0  0  0  0  0  0  0  0  0  0  0
   53.5855    3.9639    3.2231 C   0  0  0  0  0  0  0  0  0  0  0  0
   54.9288    3.4601    3.3039 C   0  0  0  0  0  0  0  0  0  0  0  0
   55.8460    3.7106    2.2359 C   0  0  0  0  0  0  0  0  0  0  0  0
   55.4060    4.4653    1.0948 C   0  0  0  0  0  0  0  0  0  0  0  0
   54.0655    4.9747    1.0039 C   0  0  0  0  0  0  0  0  0  0  0  0
   53.1481    4.7212    2.0768 C   0  0  0  0  0  0  0  0  0  0  0  0
  7 11  1  0  0  0
  7  8  1  0  0  0
  8 13  1  0  0  0
  8  9  2  0  0  0
  9 10  1  0  0  0
  9 19  1  0  0  0
 10 11  2  0  0  0
 10 12  1  0  0  0
 11  1  1  0  0  0
 13 14  2  0  0  0
 13 15  1  0  0  0
 14 17  1  0  0  0
 15 16  2  0  0  0
  1  6  2  0  0  0
  1  2  1  0  0  0
  2  3  2  0  0  0
  3  4  1  0  0  0
  3 25  1  0  0  0
  4  5  2  0  0  0
  5  6  1  0  0  0
 19 20  1  0  0  0
 20 21  1  0  0  0
 21 23  2  0  0  0
 21 22  1  0  0  0
 25 27  1  0  0  0
 27 32  1  0  0  0
 27 28  1  0  0  0
 28 29  1  0  0  0
 29 30  1  0  0  0
 30 31  1  0  0  0
 30 33  1  0  0  0
 31 32  1  0  0  0
 33 36  1  0  0  0
 33 35  2  0  0  0
 33 34  2  0  0  0
 36 37  1  0  0  0
 37 42  2  0  0  0
 37 38  1  0  0  0
 38 39  2  0  0  0
 39 40  1  0  0  0
 40 41  2  0  0  0
 41 42  1  0  0  0
 16 17  1  0  0  0
 22 24  1  0  0  0
 25 26  1  0  0  0
 17 18  1  0  0  0
M  END
> <minimizedAffinity>
-9.38832

$$$$
2NT7_902_A_800


 42 46  0  0  0  0  0  0  0  0999 V2000
   47.2709   11.2310    0.9252 C   0  0  0  0  0  0  0  0  0  0  0  0
   47.2696   10.0382    1.7019 C   0  0  0  0  0  0  0  0  0  0  0  0
   47.9496    8.8851    1.2138 C   0  0  0  0  0  0  0  0  0  0  0  0
   48.6208    8.9165   -0.0644 C   0  0  0  0  0  0  0  0  0  0  0  0
   48.6213   10.1138   -0.8478 C   0  0  0  0  0  0  0  0  0  0  0  0
   47.9359   11.2658   -0.3496 C   0  0  0  0  0  0  0  0  0  0  0  0
   47.0170   13.1660    2.8418 S   0  0  0  0  0  0  0  0  0  0  0  0
   45.9165   14.4361    2.7796 C   0  0  0  0  0  0  0  0  0  0  0  0
   45.1625   14.3302    1.6014 C   0  0  0  0  0  0  0  0  0  0  0  0
   45.5130   13.2184    0.7963 C   0  0  0  0  0  0  0  0  0  0  0  0
   46.5758   12.4548    1.3823 C   0  0  0  0  0  0  0  0  0  0  0  0
   44.6620   12.8141   -0.8568 Br  0  0  0  0  0  0  0  0  0  0  0  0
   45.7988   15.4678    3.8282 C   0  0  0  0  0  0  0  0  0  0  0  0
   46.8809   16.0257    4.4257 N   0  0  0  0  0  0  0  0  0  0  0  0
   44.6843   16.0281    4.3660 N   0  0  0  0  0  0  0  0  0  0  0  0
   45.0768   16.9321    5.2995 N   0  0  0  0  0  0  0  0  0  0  0  0
   46.4403   16.9318    5.3368 N   0  0  0  0  0  0  0  0  0  0  0  0
   47.0046   17.4891    5.9201 H   0  0  0  0  0  0  0  0  0  0  0  0
   44.1314   15.2648    1.2300 O   0  0  0  0  0  0  0  0  0  0  0  0
   44.6259   16.5489    0.7981 C   0  0  0  0  0  0  0  0  0  0  0  0
   43.9228   17.0566   -0.4770 C   0  0  0  0  0  0  0  0  0  0  0  0
   44.2197   18.1471   -0.9641 O   0  0  0  0  0  0  0  0  0  0  0  0
   43.0627   16.3464   -0.9880 O   0  0  0  0  0  0  0  0  0  0  0  0
   44.8791   18.6765   -0.5606 H   0  0  0  0  0  0  0  0  0  0  0  0
   47.9109    7.7601    2.0050 N   0  0  0  0  0  0  0  0  0  0  0  0
   47.1325    7.1648    1.9107 H   0  0  0  0  0  0  0  0  0  0  0  0
   48.9448    7.3779    2.9824 C   0  0  0  0  0  0  0  0  0  0  0  0
   50.3625    7.2417    2.3789 C   0  0  0  0  0  0  0  0  0  0  0  0
   51.3683    7.0617    3.5311 C   0  0  0  0  0  0  0  0  0  0  0  0
   50.9977    5.9834    4.4972 N   0  0  0  0  0  0  0  0  0  0  0  0
   49.5531    5.7119    4.7873 C   0  0  0  0  0  0  0  0  0  0  0  0
   48.5791    6.0350    3.6282 C   0  0  0  0  0  0  0  0  0  0  0  0
   52.1893    5.1320    5.2621 S   0  0  0  0  0  0  0  0  0  0  0  0
   51.8150    5.0024    6.6359 O   0  0  0  0  0  0  0  0  0  0  0  0
   53.4360    5.8144    4.9773 O   0  0  0  0  0  0  0  0  0  0  0  0
   52.3205    3.4847    4.5983 C   0  0  0  0  0  0  0  0  0  0  0  0
   51.2520    2.5700    5.1550 C   0  0  0  0  0  0  0  0  0  0  0  0
   50.1189    2.2444    4.3335 C   0  0  0  0  0  0  0  0  0  0  0  0
   49.0992    1.3801    4.8413 C   0  0  0  0  0  0  0  0  0  0  0  0
   49.2263    0.8495    6.1708 C   0  0  0  0  0  0  0  0  0  0  0  0
   50.3544    1.1692    7.0014 C   0  0  0  0  0  0  0  0  0  0  0  0
   51.3755    2.0361    6.4886 C   0  0  0  0  0  0  0  0  0  0  0  0
  7 11  1  0  0  0
  7  8  1  0  0  0
  8 13  1  0  0  0
  8  9  2  0  0  0
  9 10  1  0  0  0
  9 19  1  0  0  0
 10 11  2  0  0  0
 10 12  1  0  0  0
 11  1  1  0  0  0
 13 14  2  0  0  0
 13 15  1  0  0  0
 14 17  1  0  0  0
 15 16  2  0  0  0
  1  6  2  0  0  0
  1  2  1  0  0  0
  2  3  2  0  0  0
  3  4  1  0  0  0
  3 25  1  0  0  0
  4  5  2  0  0  0
  5  6  1  0  0  0
 19 20  1  0  0  0
 20 21  1  0  0  0
 21 23  2  0  0  0
 21 22  1  0  0  0
 25 27  1  0  0  0
 27 32  1  0  0  0
 27 28  1  0  0  0
 28 29  1  0  0  0
 29 30  1  0  0  0
 30 31  1  0  0  0
 30 33  1  0  0  0
 31 32  1  0  0  0
 33 36  1  0  0  0
 33 35  2  0  0  0
 33 34  2  0  0  0
 36 37  1  0  0  0
 37 42  2  0  0  0
 37 38  1  0  0  0
 38 39  2  0  0  0
 39 40  1  0  0  0
 40 41  2  0  0  0
 41 42  1  0  0  0
 16 17  1  0  0  0
 22 24  1  0  0  0
 25 26  1  0  0  0
 17 18  1  0  0  0
M  END
> <minimizedAffinity>
-9.36088

$$$$
2NT7_902_A_800


 42 46  0  0  0  0  0  0  0  0999 V2000
   45.7587   11.8558    0.8605 C   0  0  0  0  0  0  0  0  0  0  0  0
   46.9293   11.1407    1.2402 C   0  0  0  0  0  0  0  0  0  0  0  0
   47.0932    9.7909    0.8143 C   0  0  0  0  0  0  0  0  0  0  0  0
   46.0757    9.1449    0.0189 C   0  0  0  0  0  0  0  0  0  0  0  0
   44.8971    9.8612   -0.3619 C   0  0  0  0  0  0  0  0  0  0  0  0
   44.7416   11.2155    0.0706 C   0  0  0  0  0  0  0  0  0  0  0  0
   44.6772   14.2996    0.2767 S   0  0  0  0  0  0  0  0  0  0  0  0
   44.7729   15.6512    1.2728 C   0  0  0  0  0  0  0  0  0  0  0  0
   45.4939   15.3168    2.4288 C   0  0  0  0  0  0  0  0  0  0  0  0
   45.9384   13.9719    2.4564 C   0  0  0  0  0  0  0  0  0  0  0  0
   45.5358   13.2573    1.2803 C   0  0  0  0  0  0  0  0  0  0  0  0
   46.9428   13.2313    3.8926 Br  0  0  0  0  0  0  0  0  0  0  0  0
   44.1811   16.9599    0.9340 C   0  0  0  0  0  0  0  0  0  0  0  0
   43.6401   17.7788    1.8701 N   0  0  0  0  0  0  0  0  0  0  0  0
   44.0655   17.5674   -0.2754 N   0  0  0  0  0  0  0  0  0  0  0  0
   43.4499   18.7627   -0.0884 N   0  0  0  0  0  0  0  0  0  0  0  0
   43.1861   18.8951    1.2433 N   0  0  0  0  0  0  0  0  0  0  0  0
   42.7452   19.6630    1.6736 H   0  0  0  0  0  0  0  0  0  0  0  0
   45.7559   16.2443    3.4991 O   0  0  0  0  0  0  0  0  0  0  0  0
   47.0616   16.8544    3.4457 C   0  0  0  0  0  0  0  0  0  0  0  0
   47.5979   17.2301    4.8418 C   0  0  0  0  0  0  0  0  0  0  0  0
   48.7947   17.4613    5.0117 O   0  0  0  0  0  0  0  0  0  0  0  0
   46.8016   17.2899    5.7732 O   0  0  0  0  0  0  0  0  0  0  0  0
   49.3888   17.4110    4.2889 H   0  0  0  0  0  0  0  0  0  0  0  0
   48.2420    9.1485    1.2150 N   0  0  0  0  0  0  0  0  0  0  0  0
   49.0972    9.6143    1.0704 H   0  0  0  0  0  0  0  0  0  0  0  0
   48.2908    7.8171    1.8438 C   0  0  0  0  0  0  0  0  0  0  0  0
   48.9804    7.7992    3.2283 C   0  0  0  0  0  0  0  0  0  0  0  0
   48.7663    6.4124    3.8624 C   0  0  0  0  0  0  0  0  0  0  0  0
   49.1362    5.2729    2.9689 N   0  0  0  0  0  0  0  0  0  0  0  0
   48.9410    5.3975    1.4887 C   0  0  0  0  0  0  0  0  0  0  0  0
   49.0432    6.8386    0.9324 C   0  0  0  0  0  0  0  0  0  0  0  0
   49.7185    3.8757    3.6314 S   0  0  0  0  0  0  0  0  0  0  0  0
   50.8521    3.4707    2.8599 O   0  0  0  0  0  0  0  0  0  0  0  0
   48.6029    2.9532    3.7031 O   0  0  0  0  0  0  0  0  0  0  0  0
   50.2898    4.1507    5.2955 C   0  0  0  0  0  0  0  0  0  0  0  0
   51.1855    3.0288    5.7726 C   0  0  0  0  0  0  0  0  0  0  0  0
   52.6094    3.2210    5.7546 C   0  0  0  0  0  0  0  0  0  0  0  0
   53.4726    2.1730    6.2031 C   0  0  0  0  0  0  0  0  0  0  0  0
   52.8980    0.9399    6.6664 C   0  0  0  0  0  0  0  0  0  0  0  0
   51.4758    0.7364    6.6877 C   0  0  0  0  0  0  0  0  0  0  0  0
   50.6130    1.7899    6.2375 C   0  0  0  0  0  0  0  0  0  0  0  0
  7 11  1  0  0  0
  7  8  1  0  0  0
  8 13  1  0  0  0
  8  9  2  0  0  0
  9 10  1  0  0  0
  9 19  1  0  0  0
 10 11  2  0  0  0
 10 12  1  0  0  0
 11  1  1  0  0  0
 13 14  2  0  0  0
 13 15  1  0  0  0
 14 17  1  0  0  0
 15 16  2  0  0  0
  1  6  2  0  0  0
  1  2  1  0  0  0
  2  3  2  0  0  0
  3  4  1  0  0  0
  3 25  1  0  0  0
  4  5  2  0  0  0
  5  6  1  0  0  0
 19 20  1  0  0  0
 20 21  1  0  0  0
 21 23  2  0  0  0
 21 22  1  0  0  0
 25 27  1  0  0  0
 27 32  1  0  0  0
 27 28  1  0  0  0
 28 29  1  0  0  0
 29 30  1  0  0  0
 30 31  1  0  0  0
 30 33  1  0  0  0
 31 32  1  0  0  0
 33 36  1  0  0  0
 33 35  2  0  0  0
 33 34  2  0  0  0
 36 37  1  0  0  0
 37 42  2  0  0  0
 37 38  1  0  0  0
 38 39  2  0  0  0
 39 40  1  0  0  0
 40 41  2  0  0  0
 41 42  1  0  0  0
 16 17  1  0  0  0
 22 24  1  0  0  0
 25 26  1  0  0  0
 17 18  1  0  0  0
M  END
> <minimizedAffinity>
-9.29908

$$$$
2NT7_902_A_800


 42 46  0  0  0  0  0  0  0  0999 V2000
   47.2952   11.2956    0.8514 C   0  0  0  0  0  0  0  0  0  0  0  0
   47.0583   10.0142    1.4241 C   0  0  0  0  0  0  0  0  0  0  0  0
   47.7776    8.8857    0.9347 C   0  0  0  0  0  0  0  0  0  0  0  0
   48.7267    9.0331   -0.1437 C   0  0  0  0  0  0  0  0  0  0  0  0
   48.9645   10.3198   -0.7223 C   0  0  0  0  0  0  0  0  0  0  0  0
   48.2376   11.4464   -0.2246 C   0  0  0  0  0  0  0  0  0  0  0  0
   46.9977   13.2104    2.7819 S   0  0  0  0  0  0  0  0  0  0  0  0
   45.8671   14.4544    2.7300 C   0  0  0  0  0  0  0  0  0  0  0  0
   45.1143   14.3388    1.5519 C   0  0  0  0  0  0  0  0  0  0  0  0
   45.4902   13.2414    0.7385 C   0  0  0  0  0  0  0  0  0  0  0  0
   46.5716   12.4993    1.3180 C   0  0  0  0  0  0  0  0  0  0  0  0
   44.6470   12.8286   -0.9164 Br  0  0  0  0  0  0  0  0  0  0  0  0
   45.7262   15.4755    3.7860 C   0  0  0  0  0  0  0  0  0  0  0  0
   46.7953   16.0392    4.4014 N   0  0  0  0  0  0  0  0  0  0  0  0
   44.5996   16.0195    4.3152 N   0  0  0  0  0  0  0  0  0  0  0  0
   44.9716   16.9192    5.2612 N   0  0  0  0  0  0  0  0  0  0  0  0
   46.3344   16.9326    5.3148 N   0  0  0  0  0  0  0  0  0  0  0  0
   46.8859   17.4905    5.9097 H   0  0  0  0  0  0  0  0  0  0  0  0
   44.0608   15.2511    1.1883 O   0  0  0  0  0  0  0  0  0  0  0  0
   44.5235   16.5528    0.7741 C   0  0  0  0  0  0  0  0  0  0  0  0
   43.9404   16.9839   -0.5868 C   0  0  0  0  0  0  0  0  0  0  0  0
   44.3154   18.0236   -1.1279 O   0  0  0  0  0  0  0  0  0  0  0  0
   43.0954   16.2650   -1.1106 O   0  0  0  0  0  0  0  0  0  0  0  0
   44.9617   18.5607   -0.7135 H   0  0  0  0  0  0  0  0  0  0  0  0
   47.5043    7.6724    1.5230 N   0  0  0  0  0  0  0  0  0  0  0  0
   46.6443    7.2454    1.3055 H   0  0  0  0  0  0  0  0  0  0  0  0
   48.3996    6.9631    2.4535 C   0  0  0  0  0  0  0  0  0  0  0  0
   49.2388    7.8979    3.3559 C   0  0  0  0  0  0  0  0  0  0  0  0
   49.9523    7.0403    4.4174 C   0  0  0  0  0  0  0  0  0  0  0  0
   50.7060    5.8795    3.8533 N   0  0  0  0  0  0  0  0  0  0  0  0
   50.1907    5.1844    2.6303 C   0  0  0  0  0  0  0  0  0  0  0  0
   49.3717    6.0755    1.6651 C   0  0  0  0  0  0  0  0  0  0  0  0
   52.0772    5.3545    4.6112 S   0  0  0  0  0  0  0  0  0  0  0  0
   52.8167    6.5091    5.0166 O   0  0  0  0  0  0  0  0  0  0  0  0
   52.7305    4.4365    3.6993 O   0  0  0  0  0  0  0  0  0  0  0  0
   51.6784    4.4436    6.0885 C   0  0  0  0  0  0  0  0  0  0  0  0
   51.8568    2.9542    5.8933 C   0  0  0  0  0  0  0  0  0  0  0  0
   53.0972    2.3453    6.2876 C   0  0  0  0  0  0  0  0  0  0  0  0
   53.2843    0.9385    6.1125 C   0  0  0  0  0  0  0  0  0  0  0  0
   52.2233    0.1545    5.5427 C   0  0  0  0  0  0  0  0  0  0  0  0
   50.9792    0.7529    5.1440 C   0  0  0  0  0  0  0  0  0  0  0  0
   50.7949    2.1641    5.3214 C   0  0  0  0  0  0  0  0  0  0  0  0
  7 11  1  0  0  0
  7  8  1  0  0  0
  8 13  1  0  0  0
  8  9  2  0  0  0
  9 10  1  0  0  0
  9 19  1  0  0  0
 10 11  2  0  0  0
 10 12  1  0  0  0
 11  1  1  0  0  0
 13 14  2  0  0  0
 13 15  1  0  0  0
 14 17  1  0  0  0
 15 16  2  0  0  0
  1  6  2  0  0  0
  1  2  1  0  0  0
  2  3  2  0  0  0
  3  4  1  0  0  0
  3 25  1  0  0  0
  4  5  2  0  0  0
  5  6  1  0  0  0
 19 20  1  0  0  0
 20 21  1  0  0  0
 21 23  2  0  0  0
 21 22  1  0  0  0
 25 27  1  0  0  0
 27 32  1  0  0  0
 27 28  1  0  0  0
 28 29  1  0  0  0
 29 30  1  0  0  0
 30 31  1  0  0  0
 30 33  1  0  0  0
 31 32  1  0  0  0
 33 36  1  0  0  0
 33 35  2  0  0  0
 33 34  2  0  0  0
 36 37  1  0  0  0
 37 42  2  0  0  0
 37 38  1  0  0  0
 38 39  2  0  0  0
 39 40  1  0  0  0
 40 41  2  0  0  0
 41 42  1  0  0  0
 16 17  1  0  0  0
 22 24  1  0  0  0
 25 26  1  0  0  0
 17 18  1  0  0  0
M  END
> <minimizedAffinity>
-9.05274

$$$$
2NT7_902_A_800


 42 46  0  0  0  0  0  0  0  0999 V2000
   45.9009   11.6583    0.8294 C   0  0  0  0  0  0  0  0  0  0  0  0
   47.1856   11.0559    0.9420 C   0  0  0  0  0  0  0  0  0  0  0  0
   47.3635    9.7049    0.5255 C   0  0  0  0  0  0  0  0  0  0  0  0
   46.2495    8.9446    0.0092 C   0  0  0  0  0  0  0  0  0  0  0  0
   44.9568    9.5475   -0.1026 C   0  0  0  0  0  0  0  0  0  0  0  0
   44.7882   10.9039    0.3182 C   0  0  0  0  0  0  0  0  0  0  0  0
   44.7888   14.0895    0.2507 S   0  0  0  0  0  0  0  0  0  0  0  0
   44.8667   15.4398    1.2501 C   0  0  0  0  0  0  0  0  0  0  0  0
   45.5911   15.1118    2.4058 C   0  0  0  0  0  0  0  0  0  0  0  0
   46.0526   13.7726    2.4305 C   0  0  0  0  0  0  0  0  0  0  0  0
   45.6599   13.0558    1.2524 C   0  0  0  0  0  0  0  0  0  0  0  0
   47.0655   13.0414    3.8656 Br  0  0  0  0  0  0  0  0  0  0  0  0
   44.2585   16.7417    0.9141 C   0  0  0  0  0  0  0  0  0  0  0  0
   43.6220   17.5075    1.8348 N   0  0  0  0  0  0  0  0  0  0  0  0
   44.2135   17.3909   -0.2783 N   0  0  0  0  0  0  0  0  0  0  0  0
   43.5461   18.5588   -0.0962 N   0  0  0  0  0  0  0  0  0  0  0  0
   43.1792   18.6324    1.2155 N   0  0  0  0  0  0  0  0  0  0  0  0
   42.6819   19.3696    1.6380 H   0  0  0  0  0  0  0  0  0  0  0  0
   45.8406   16.0400    3.4785 O   0  0  0  0  0  0  0  0  0  0  0  0
   47.1152   16.7096    3.3958 C   0  0  0  0  0  0  0  0  0  0  0  0
   47.6254   17.1852    4.7711 C   0  0  0  0  0  0  0  0  0  0  0  0
   48.8210   17.4152    4.9504 O   0  0  0  0  0  0  0  0  0  0  0  0
   46.8095   17.3253    5.6766 O   0  0  0  0  0  0  0  0  0  0  0  0
   49.4303   17.3029    4.2475 H   0  0  0  0  0  0  0  0  0  0  0  0
   48.6255    9.1742    0.6617 N   0  0  0  0  0  0  0  0  0  0  0  0
   49.3703    9.6584    0.2374 H   0  0  0  0  0  0  0  0  0  0  0  0
   48.9480    7.9370    1.3936 C   0  0  0  0  0  0  0  0  0  0  0  0
   48.5620    7.9722    2.8911 C   0  0  0  0  0  0  0  0  0  0  0  0
   48.7445    6.5593    3.4756 C   0  0  0  0  0  0  0  0  0  0  0  0
   50.0810    5.9533    3.1922 N   0  0  0  0  0  0  0  0  0  0  0  0
   50.7803    6.2683    1.9052 C   0  0  0  0  0  0  0  0  0  0  0  0
   50.4540    7.6571    1.3040 C   0  0  0  0  0  0  0  0  0  0  0  0
   50.7504    4.9121    4.2866 S   0  0  0  0  0  0  0  0  0  0  0  0
   50.7534    3.6090    3.6983 O   0  0  0  0  0  0  0  0  0  0  0  0
   50.0130    5.0783    5.5233 O   0  0  0  0  0  0  0  0  0  0  0  0
   52.4471    5.3406    4.6168 C   0  0  0  0  0  0  0  0  0  0  0  0
   53.4055    4.3384    4.0124 C   0  0  0  0  0  0  0  0  0  0  0  0
   53.6400    3.0988    4.7004 C   0  0  0  0  0  0  0  0  0  0  0  0
   54.5412    2.1381    4.1442 C   0  0  0  0  0  0  0  0  0  0  0  0
   55.1998    2.4305    2.9008 C   0  0  0  0  0  0  0  0  0  0  0  0
   54.9738    3.6671    2.2049 C   0  0  0  0  0  0  0  0  0  0  0  0
   54.0688    4.6283    2.7654 C   0  0  0  0  0  0  0  0  0  0  0  0
  7 11  1  0  0  0
  7  8  1  0  0  0
  8 13  1  0  0  0
  8  9  2  0  0  0
  9 10  1  0  0  0
  9 19  1  0  0  0
 10 11  2  0  0  0
 10 12  1  0  0  0
 11  1  1  0  0  0
 13 14  2  0  0  0
 13 15  1  0  0  0
 14 17  1  0  0  0
 15 16  2  0  0  0
  1  6  2  0  0  0
  1  2  1  0  0  0
  2  3  2  0  0  0
  3  4  1  0  0  0
  3 25  1  0  0  0
  4  5  2  0  0  0
  5  6  1  0  0  0
 19 20  1  0  0  0
 20 21  1  0  0  0
 21 23  2  0  0  0
 21 22  1  0  0  0
 25 27  1  0  0  0
 27 32  1  0  0  0
 27 28  1  0  0  0
 28 29  1  0  0  0
 29 30  1  0  0  0
 30 31  1  0  0  0
 30 33  1  0  0  0
 31 32  1  0  0  0
 33 36  1  0  0  0
 33 35  2  0  0  0
 33 34  2  0  0  0
 36 37  1  0  0  0
 37 42  2  0  0  0
 37 38  1  0  0  0
 38 39  2  0  0  0
 39 40  1  0  0  0
 40 41  2  0  0  0
 41 42  1  0  0  0
 16 17  1  0  0  0
 22 24  1  0  0  0
 25 26  1  0  0  0
 17 18  1  0  0  0
M  END
> <minimizedAffinity>
-9.03271

$$$$
2NT7_902_A_800


 42 46  0  0  0  0  0  0  0  0999 V2000
   45.7712   11.7778    0.8909 C   0  0  0  0  0  0  0  0  0  0  0  0
   46.9570   11.0760    1.2480 C   0  0  0  0  0  0  0  0  0  0  0  0
   47.1085    9.7143    0.8567 C   0  0  0  0  0  0  0  0  0  0  0  0
   46.0638    9.0434    0.1192 C   0  0  0  0  0  0  0  0  0  0  0  0
   44.8701    9.7463   -0.2387 C   0  0  0  0  0  0  0  0  0  0  0  0
   44.7273   11.1126    0.1587 C   0  0  0  0  0  0  0  0  0  0  0  0
   44.6949   14.2112    0.2569 S   0  0  0  0  0  0  0  0  0  0  0  0
   44.8095   15.5877    1.2163 C   0  0  0  0  0  0  0  0  0  0  0  0
   45.5429   15.2796    2.3718 C   0  0  0  0  0  0  0  0  0  0  0  0
   45.9810   13.9335    2.4289 C   0  0  0  0  0  0  0  0  0  0  0  0
   45.5604   13.1908    1.2768 C   0  0  0  0  0  0  0  0  0  0  0  0
   46.9992   13.2251    3.8717 Br  0  0  0  0  0  0  0  0  0  0  0  0
   44.2200   16.8903    0.8508 C   0  0  0  0  0  0  0  0  0  0  0  0
   43.6649   17.7214    1.7676 N   0  0  0  0  0  0  0  0  0  0  0  0
   44.1199   17.4802   -0.3687 N   0  0  0  0  0  0  0  0  0  0  0  0
   43.4997   18.6769   -0.2072 N   0  0  0  0  0  0  0  0  0  0  0  0
   43.2176   18.8278    1.1188 N   0  0  0  0  0  0  0  0  0  0  0  0
   42.7695   19.6009    1.5320 H   0  0  0  0  0  0  0  0  0  0  0  0
   45.8225   16.2332    3.4144 O   0  0  0  0  0  0  0  0  0  0  0  0
   47.1900   16.6902    3.4455 C   0  0  0  0  0  0  0  0  0  0  0  0
   47.6053   17.2236    4.8315 C   0  0  0  0  0  0  0  0  0  0  0  0
   48.7331   17.6808    5.0145 O   0  0  0  0  0  0  0  0  0  0  0  0
   46.7839   17.1775    5.7417 O   0  0  0  0  0  0  0  0  0  0  0  0
   49.3479   17.7083    4.3079 H   0  0  0  0  0  0  0  0  0  0  0  0
   48.2730    9.0859    1.2334 N   0  0  0  0  0  0  0  0  0  0  0  0
   49.1134    9.5890    1.1344 H   0  0  0  0  0  0  0  0  0  0  0  0
   48.3590    7.7179    1.7734 C   0  0  0  0  0  0  0  0  0  0  0  0
   49.1027    7.6203    3.1261 C   0  0  0  0  0  0  0  0  0  0  0  0
   48.9267    6.1935    3.6780 C   0  0  0  0  0  0  0  0  0  0  0  0
   49.2718    5.1175    2.6998 N   0  0  0  0  0  0  0  0  0  0  0  0
   49.0175    5.3336    1.2393 C   0  0  0  0  0  0  0  0  0  0  0  0
   49.0841    6.8083    0.7728 C   0  0  0  0  0  0  0  0  0  0  0  0
   49.8930    3.6881    3.2486 S   0  0  0  0  0  0  0  0  0  0  0  0
   49.3137    3.4280    4.5296 O   0  0  0  0  0  0  0  0  0  0  0  0
   51.3359    3.8111    3.1873 O   0  0  0  0  0  0  0  0  0  0  0  0
   49.4278    2.3408    2.1810 C   0  0  0  0  0  0  0  0  0  0  0  0
   48.0744    1.7751    2.5508 C   0  0  0  0  0  0  0  0  0  0  0  0
   48.0141    0.5420    3.2863 C   0  0  0  0  0  0  0  0  0  0  0  0
   46.7443   -0.0079    3.6465 C   0  0  0  0  0  0  0  0  0  0  0  0
   45.5448    0.6857    3.2649 C   0  0  0  0  0  0  0  0  0  0  0  0
   45.5933    1.9186    2.5286 C   0  0  0  0  0  0  0  0  0  0  0  0
   46.8687    2.4676    2.1693 C   0  0  0  0  0  0  0  0  0  0  0  0
  7 11  1  0  0  0
  7  8  1  0  0  0
  8 13  1  0  0  0
  8  9  2  0  0  0
  9 10  1  0  0  0
  9 19  1  0  0  0
 10 11  2  0  0  0
 10 12  1  0  0  0
 11  1  1  0  0  0
 13 14  2  0  0  0
 13 15  1  0  0  0
 14 17  1  0  0  0
 15 16  2  0  0  0
  1  6  2  0  0  0
  1  2  1  0  0  0
  2  3  2  0  0  0
  3  4  1  0  0  0
  3 25  1  0  0  0
  4  5  2  0  0  0
  5  6  1  0  0  0
 19 20  1  0  0  0
 20 21  1  0  0  0
 21 23  2  0  0  0
 21 22  1  0  0  0
 25 27  1  0  0  0
 27 32  1  0  0  0
 27 28  1  0  0  0
 28 29  1  0  0  0
 29 30  1  0  0  0
 30 31  1  0  0  0
 30 33  1  0  0  0
 31 32  1  0  0  0
 33 36  1  0  0  0
 33 35  2  0  0  0
 33 34  2  0  0  0
 36 37  1  0  0  0
 37 42  2  0  0  0
 37 38  1  0  0  0
 38 39  2  0  0  0
 39 40  1  0  0  0
 40 41  2  0  0  0
 41 42  1  0  0  0
 16 17  1  0  0  0
 22 24  1  0  0  0
 25 26  1  0  0  0
 17 18  1  0  0  0
M  END
> <minimizedAffinity>
-8.72390

$$$$
2NT7_902_A_800


 42 46  0  0  0  0  0  0  0  0999 V2000
   45.5349   12.1246   -0.2192 C   0  0  0  0  0  0  0  0  0  0  0  0
   45.5888   10.8479    0.4076 C   0  0  0  0  0  0  0  0  0  0  0  0
   45.7404    9.6804   -0.3952 C   0  0  0  0  0  0  0  0  0  0  0  0
   45.8220    9.7856   -1.8332 C   0  0  0  0  0  0  0  0  0  0  0  0
   45.7657   11.0679   -2.4654 C   0  0  0  0  0  0  0  0  0  0  0  0
   45.6132   12.2337   -1.6512 C   0  0  0  0  0  0  0  0  0  0  0  0
   44.4591   14.6344   -0.0595 S   0  0  0  0  0  0  0  0  0  0  0  0
   44.6585   15.6802    1.2424 C   0  0  0  0  0  0  0  0  0  0  0  0
   45.4607   15.0573    2.2101 C   0  0  0  0  0  0  0  0  0  0  0  0
   45.8797   13.7523    1.8517 C   0  0  0  0  0  0  0  0  0  0  0  0
   45.3728   13.3681    0.5666 C   0  0  0  0  0  0  0  0  0  0  0  0
   46.9785   12.6648    2.9608 Br  0  0  0  0  0  0  0  0  0  0  0  0
   44.0676   17.0311    1.3039 C   0  0  0  0  0  0  0  0  0  0  0  0
   43.8007   17.7605    0.1920 N   0  0  0  0  0  0  0  0  0  0  0  0
   43.6971   17.7622    2.3870 N   0  0  0  0  0  0  0  0  0  0  0  0
   43.2027   18.9469    1.9455 N   0  0  0  0  0  0  0  0  0  0  0  0
   43.2660   18.9463    0.5830 N   0  0  0  0  0  0  0  0  0  0  0  0
   42.9757   19.6756   -0.0113 H   0  0  0  0  0  0  0  0  0  0  0  0
   45.8233   15.6745    3.4599 O   0  0  0  0  0  0  0  0  0  0  0  0
   47.0674   16.4030    3.4199 C   0  0  0  0  0  0  0  0  0  0  0  0
   47.3956   17.0898    4.7610 C   0  0  0  0  0  0  0  0  0  0  0  0
   48.4991   17.6011    4.9494 O   0  0  0  0  0  0  0  0  0  0  0  0
   46.5301   17.1102    5.6303 O   0  0  0  0  0  0  0  0  0  0  0  0
   49.1483   17.5763    4.2743 H   0  0  0  0  0  0  0  0  0  0  0  0
   45.7819    8.4740    0.2649 N   0  0  0  0  0  0  0  0  0  0  0  0
   44.9258    8.0167    0.4299 H   0  0  0  0  0  0  0  0  0  0  0  0
   47.0088    7.8139    0.7437 C   0  0  0  0  0  0  0  0  0  0  0  0
   47.7527    8.5951    1.8523 C   0  0  0  0  0  0  0  0  0  0  0  0
   48.8750    7.7006    2.4106 C   0  0  0  0  0  0  0  0  0  0  0  0
   49.7625    7.1142    1.3608 N   0  0  0  0  0  0  0  0  0  0  0  0
   49.1927    6.7592    0.0215 C   0  0  0  0  0  0  0  0  0  0  0  0
   47.9831    7.6161   -0.4250 C   0  0  0  0  0  0  0  0  0  0  0  0
   51.3528    6.8290    1.7068 S   0  0  0  0  0  0  0  0  0  0  0  0
   52.1374    7.6856    0.8731 O   0  0  0  0  0  0  0  0  0  0  0  0
   51.5587    5.4009    1.5684 O   0  0  0  0  0  0  0  0  0  0  0  0
   51.7237    7.2592    3.3946 C   0  0  0  0  0  0  0  0  0  0  0  0
   51.9072    6.0308    4.2581 C   0  0  0  0  0  0  0  0  0  0  0  0
   50.7461    5.3917    4.8132 C   0  0  0  0  0  0  0  0  0  0  0  0
   50.8989    4.2286    5.6307 C   0  0  0  0  0  0  0  0  0  0  0  0
   52.2176    3.7164    5.8838 C   0  0  0  0  0  0  0  0  0  0  0  0
   53.3857    4.3480    5.3348 C   0  0  0  0  0  0  0  0  0  0  0  0
   53.2286    5.5142    4.5150 C   0  0  0  0  0  0  0  0  0  0  0  0
  7 11  1  0  0  0
  7  8  1  0  0  0
  8 13  1  0  0  0
  8  9  2  0  0  0
  9 10  1  0  0  0
  9 19  1  0  0  0
 10 11  2  0  0  0
 10 12  1  0  0  0
 11  1  1  0  0  0
 13 14  2  0  0  0
 13 15  1  0  0  0
 14 17  1  0  0  0
 15 16  2  0  0  0
  1  6  2  0  0  0
  1  2  1  0  0  0
  2  3  2  0  0  0
  3  4  1  0  0  0
  3 25  1  0  0  0
  4  5  2  0  0  0
  5  6  1  0  0  0
 19 20  1  0  0  0
 20 21  1  0  0  0
 21 23  2  0  0  0
 21 22  1  0  0  0
 25 27  1  0  0  0
 27 32  1  0  0  0
 27 28  1  0  0  0
 28 29  1  0  0  0
 29 30  1  0  0  0
 30 31  1  0  0  0
 30 33  1  0  0  0
 31 32  1  0  0  0
 33 36  1  0  0  0
 33 35  2  0  0  0
 33 34  2  0  0  0
 36 37  1  0  0  0
 37 42  2  0  0  0
 37 38  1  0  0  0
 38 39  2  0  0  0
 39 40  1  0  0  0
 40 41  2  0  0  0
 41 42  1  0  0  0
 16 17  1  0  0  0
 22 24  1  0  0  0
 25 26  1  0  0  0
 17 18  1  0  0  0
M  END
> <minimizedAffinity>
-8.51072

$$$$
2NT7_902_A_800


 42 46  0  0  0  0  0  0  0  0999 V2000
   46.5845   10.9882    1.5516 C   0  0  0  0  0  0  0  0  0  0  0  0
   47.3605   10.1157    2.3654 C   0  0  0  0  0  0  0  0  0  0  0  0
   47.4647    8.7389    2.0131 C   0  0  0  0  0  0  0  0  0  0  0  0
   46.7770    8.2258    0.8515 C   0  0  0  0  0  0  0  0  0  0  0  0
   45.9946    9.1008    0.0335 C   0  0  0  0  0  0  0  0  0  0  0  0
   45.8960   10.4809    0.3953 C   0  0  0  0  0  0  0  0  0  0  0  0
   47.0878   13.0255    3.3062 S   0  0  0  0  0  0  0  0  0  0  0  0
   46.6069   14.6215    3.0831 C   0  0  0  0  0  0  0  0  0  0  0  0
   45.9118   14.7239    1.8689 C   0  0  0  0  0  0  0  0  0  0  0  0
   45.8002   13.4973    1.1688 C   0  0  0  0  0  0  0  0  0  0  0  0
   46.4384   12.4249    1.8750 C   0  0  0  0  0  0  0  0  0  0  0  0
   44.9089   13.3244   -0.5033 Br  0  0  0  0  0  0  0  0  0  0  0  0
   46.8904   15.7030    4.0463 C   0  0  0  0  0  0  0  0  0  0  0  0
   47.9817   16.5018    3.9440 N   0  0  0  0  0  0  0  0  0  0  0  0
   46.1825   16.0937    5.1378 N   0  0  0  0  0  0  0  0  0  0  0  0
   46.8376   17.1340    5.7135 N   0  0  0  0  0  0  0  0  0  0  0  0
   47.9542   17.3885    4.9726 N   0  0  0  0  0  0  0  0  0  0  0  0
   48.6214   18.0899    5.1515 H   0  0  0  0  0  0  0  0  0  0  0  0
   45.3661   15.9584    1.3663 O   0  0  0  0  0  0  0  0  0  0  0  0
   44.0866   16.3115    1.9302 C   0  0  0  0  0  0  0  0  0  0  0  0
   43.3400   17.3680    1.0909 C   0  0  0  0  0  0  0  0  0  0  0  0
   42.9153   17.0913   -0.0305 O   0  0  0  0  0  0  0  0  0  0  0  0
   43.1840   18.4864    1.5704 O   0  0  0  0  0  0  0  0  0  0  0  0
   43.0434   16.2318   -0.3811 H   0  0  0  0  0  0  0  0  0  0  0  0
   48.2242    7.9425    2.8387 N   0  0  0  0  0  0  0  0  0  0  0  0
   48.0209    7.9620    3.8018 H   0  0  0  0  0  0  0  0  0  0  0  0
   49.3184    7.0627    2.3924 C   0  0  0  0  0  0  0  0  0  0  0  0
   49.2594    5.6346    2.9837 C   0  0  0  0  0  0  0  0  0  0  0  0
   50.3143    4.7676    2.2718 C   0  0  0  0  0  0  0  0  0  0  0  0
   51.6803    5.3735    2.2452 N   0  0  0  0  0  0  0  0  0  0  0  0
   51.8299    6.8616    2.1572 C   0  0  0  0  0  0  0  0  0  0  0  0
   50.6702    7.6757    2.7810 C   0  0  0  0  0  0  0  0  0  0  0  0
   53.0072    4.3894    2.2733 S   0  0  0  0  0  0  0  0  0  0  0  0
   53.8880    4.8208    1.2329 O   0  0  0  0  0  0  0  0  0  0  0  0
   52.5162    3.0275    2.2026 O   0  0  0  0  0  0  0  0  0  0  0  0
   53.8913    4.5574    3.8100 C   0  0  0  0  0  0  0  0  0  0  0  0
   53.1791    3.8559    4.9454 C   0  0  0  0  0  0  0  0  0  0  0  0
   53.6049    2.5366    5.3233 C   0  0  0  0  0  0  0  0  0  0  0  0
   52.9452    1.8578    6.3950 C   0  0  0  0  0  0  0  0  0  0  0  0
   51.8627    2.5102    7.0788 C   0  0  0  0  0  0  0  0  0  0  0  0
   51.4278    3.8288    6.7087 C   0  0  0  0  0  0  0  0  0  0  0  0
   52.0921    4.5068    5.6336 C   0  0  0  0  0  0  0  0  0  0  0  0
  7 11  1  0  0  0
  7  8  1  0  0  0
  8 13  1  0  0  0
  8  9  2  0  0  0
  9 10  1  0  0  0
  9 19  1  0  0  0
 10 11  2  0  0  0
 10 12  1  0  0  0
 11  1  1  0  0  0
 13 14  2  0  0  0
 13 15  1  0  0  0
 14 17  1  0  0  0
 15 16  2  0  0  0
  1  6  2  0  0  0
  1  2  1  0  0  0
  2  3  2  0  0  0
  3  4  1  0  0  0
  3 25  1  0  0  0
  4  5  2  0  0  0
  5  6  1  0  0  0
 19 20  1  0  0  0
 20 21  1  0  0  0
 21 23  2  0  0  0
 21 22  1  0  0  0
 25 27  1  0  0  0
 27 32  1  0  0  0
 27 28  1  0  0  0
 28 29  1  0  0  0
 29 30  1  0  0  0
 30 31  1  0  0  0
 30 33  1  0  0  0
 31 32  1  0  0  0
 33 36  1  0  0  0
 33 35  2  0  0  0
 33 34  2  0  0  0
 36 37  1  0  0  0
 37 42  2  0  0  0
 37 38  1  0  0  0
 38 39  2  0  0  0
 39 40  1  0  0  0
 40 41  2  0  0  0
 41 42  1  0  0  0
 16 17  1  0  0  0
 22 24  1  0  0  0
 25 26  1  0  0  0
 17 18  1  0  0  0
M  END
> <minimizedAffinity>
-8.40828

$$$$
2NT7_902_A_800


 42 46  0  0  0  0  0  0  0  0999 V2000
   50.0496    3.5454    1.1844 C   0  0  0  0  0  0  0  0  0  0  0  0
   49.9561    4.8409    0.6021 C   0  0  0  0  0  0  0  0  0  0  0  0
   49.2055    5.0164   -0.5963 C   0  0  0  0  0  0  0  0  0  0  0  0
   48.5581    3.8901   -1.2270 C   0  0  0  0  0  0  0  0  0  0  0  0
   48.6528    2.5867   -0.6445 C   0  0  0  0  0  0  0  0  0  0  0  0
   49.4085    2.4206    0.5582 C   0  0  0  0  0  0  0  0  0  0  0  0
   50.2516    3.9121    3.8875 S   0  0  0  0  0  0  0  0  0  0  0  0
   51.5083    3.3294    4.8412 C   0  0  0  0  0  0  0  0  0  0  0  0
   52.4197    2.6419    4.0259 C   0  0  0  0  0  0  0  0  0  0  0  0
   52.0562    2.6169    2.6569 C   0  0  0  0  0  0  0  0  0  0  0  0
   50.8207    3.3066    2.4247 C   0  0  0  0  0  0  0  0  0  0  0  0
   53.0982    1.7629    1.3133 Br  0  0  0  0  0  0  0  0  0  0  0  0
   51.5945    3.5419    6.2990 C   0  0  0  0  0  0  0  0  0  0  0  0
   51.1928    2.6074    7.1961 N   0  0  0  0  0  0  0  0  0  0  0  0
   52.0546    4.6181    6.9883 N   0  0  0  0  0  0  0  0  0  0  0  0
   51.9352    4.3508    8.3138 N   0  0  0  0  0  0  0  0  0  0  0  0
   51.4010    3.1025    8.4438 N   0  0  0  0  0  0  0  0  0  0  0  0
   51.2018    2.6423    9.2910 H   0  0  0  0  0  0  0  0  0  0  0  0
   53.6128    2.0082    4.5253 O   0  0  0  0  0  0  0  0  0  0  0  0
   53.4478    0.6136    4.8535 C   0  0  0  0  0  0  0  0  0  0  0  0
   53.8975    0.2857    6.2916 C   0  0  0  0  0  0  0  0  0  0  0  0
   53.3561    0.8260    7.2557 O   0  0  0  0  0  0  0  0  0  0  0  0
   54.8066   -0.5236    6.4457 O   0  0  0  0  0  0  0  0  0  0  0  0
   52.6632    1.4418    7.1196 H   0  0  0  0  0  0  0  0  0  0  0  0
   49.1538    6.2894   -1.1157 N   0  0  0  0  0  0  0  0  0  0  0  0
   49.8664    6.5543   -1.7413 H   0  0  0  0  0  0  0  0  0  0  0  0
   48.1140    7.2867   -0.8077 C   0  0  0  0  0  0  0  0  0  0  0  0
   47.4055    7.8639   -2.0557 C   0  0  0  0  0  0  0  0  0  0  0  0
   46.2084    8.7124   -1.5885 C   0  0  0  0  0  0  0  0  0  0  0  0
   46.5529    9.7254   -0.5451 N   0  0  0  0  0  0  0  0  0  0  0  0
   47.6229    9.4218    0.4586 C   0  0  0  0  0  0  0  0  0  0  0  0
   48.7310    8.4595   -0.0343 C   0  0  0  0  0  0  0  0  0  0  0  0
   45.7200   11.1513   -0.4895 S   0  0  0  0  0  0  0  0  0  0  0  0
   44.6023   11.0343   -1.3735 O   0  0  0  0  0  0  0  0  0  0  0  0
   46.6774   12.2031   -0.7686 O   0  0  0  0  0  0  0  0  0  0  0  0
   45.0682   11.4440    1.1417 C   0  0  0  0  0  0  0  0  0  0  0  0
   45.4807   12.7983    1.6748 C   0  0  0  0  0  0  0  0  0  0  0  0
   44.6912   13.9494    1.3332 C   0  0  0  0  0  0  0  0  0  0  0  0
   45.0640   15.2379    1.8287 C   0  0  0  0  0  0  0  0  0  0  0  0
   46.2273   15.3595    2.6638 C   0  0  0  0  0  0  0  0  0  0  0  0
   47.0245   14.2156    3.0107 C   0  0  0  0  0  0  0  0  0  0  0  0
   46.6474   12.9247    2.5124 C   0  0  0  0  0  0  0  0  0  0  0  0
  7 11  1  0  0  0
  7  8  1  0  0  0
  8 13  1  0  0  0
  8  9  2  0  0  0
  9 10  1  0  0  0
  9 19  1  0  0  0
 10 11  2  0  0  0
 10 12  1  0  0  0
 11  1  1  0  0  0
 13 14  2  0  0  0
 13 15  1  0  0  0
 14 17  1  0  0  0
 15 16  2  0  0  0
  1  6  2  0  0  0
  1  2  1  0  0  0
  2  3  2  0  0  0
  3  4  1  0  0  0
  3 25  1  0  0  0
  4  5  2  0  0  0
  5  6  1  0  0  0
 19 20  1  0  0  0
 20 21  1  0  0  0
 21 23  2  0  0  0
 21 22  1  0  0  0
 25 27  1  0  0  0
 27 32  1  0  0  0
 27 28  1  0  0  0
 28 29  1  0  0  0
 29 30  1  0  0  0
 30 31  1  0  0  0
 30 33  1  0  0  0
 31 32  1  0  0  0
 33 36  1  0  0  0
 33 35  2  0  0  0
 33 34  2  0  0  0
 36 37  1  0  0  0
 37 42  2  0  0  0
 37 38  1  0  0  0
 38 39  2  0  0  0
 39 40  1  0  0  0
 40 41  2  0  0  0
 41 42  1  0  0  0
 16 17  1  0  0  0
 22 24  1  0  0  0
 25 26  1  0  0  0
 17 18  1  0  0  0
M  END
> <minimizedAffinity>
-8.25307

$$$$
2NT7_902_A_800


 42 46  0  0  0  0  0  0  0  0999 V2000
   50.8750    5.3156    3.4609 C   0  0  0  0  0  0  0  0  0  0  0  0
   50.3996    5.4158    2.1230 C   0  0  0  0  0  0  0  0  0  0  0  0
   50.4933    6.6623    1.4390 C   0  0  0  0  0  0  0  0  0  0  0  0
   51.0491    7.8203    2.0990 C   0  0  0  0  0  0  0  0  0  0  0  0
   51.5255    7.7223    3.4446 C   0  0  0  0  0  0  0  0  0  0  0  0
   51.4270    6.4670    4.1228 C   0  0  0  0  0  0  0  0  0  0  0  0
   49.3615    3.1689    4.2245 S   0  0  0  0  0  0  0  0  0  0  0  0
   49.9044    1.9157    5.2057 C   0  0  0  0  0  0  0  0  0  0  0  0
   51.2390    2.1598    5.5624 C   0  0  0  0  0  0  0  0  0  0  0  0
   51.7655    3.3583    5.0206 C   0  0  0  0  0  0  0  0  0  0  0  0
   50.7966    4.0470    4.2188 C   0  0  0  0  0  0  0  0  0  0  0  0
   53.5450    3.9546    5.3336 Br  0  0  0  0  0  0  0  0  0  0  0  0
   49.0667    0.7680    5.6043 C   0  0  0  0  0  0  0  0  0  0  0  0
   48.7305    0.5254    6.8956 N   0  0  0  0  0  0  0  0  0  0  0  0
   48.5041   -0.1985    4.8333 N   0  0  0  0  0  0  0  0  0  0  0  0
   47.8209   -1.0420    5.6484 N   0  0  0  0  0  0  0  0  0  0  0  0
   47.9603   -0.5930    6.9288 N   0  0  0  0  0  0  0  0  0  0  0  0
   47.5718   -1.0059    7.7337 H   0  0  0  0  0  0  0  0  0  0  0  0
   52.0145    1.2760    6.3942 O   0  0  0  0  0  0  0  0  0  0  0  0
   52.6519    0.1988    5.6780 C   0  0  0  0  0  0  0  0  0  0  0  0
   54.1818    0.1818    5.8713 C   0  0  0  0  0  0  0  0  0  0  0  0
   54.7146    0.9026    6.7145 O   0  0  0  0  0  0  0  0  0  0  0  0
   54.8485   -0.5659    5.1630 O   0  0  0  0  0  0  0  0  0  0  0  0
   54.1899    1.4675    7.2470 H   0  0  0  0  0  0  0  0  0  0  0  0
   50.0140    6.7008    0.1499 N   0  0  0  0  0  0  0  0  0  0  0  0
   50.4723    6.1460   -0.5220 H   0  0  0  0  0  0  0  0  0  0  0  0
   48.8677    7.5083   -0.3022 C   0  0  0  0  0  0  0  0  0  0  0  0
   49.2600    8.8812   -0.8971 C   0  0  0  0  0  0  0  0  0  0  0  0
   48.0062    9.5169   -1.5257 C   0  0  0  0  0  0  0  0  0  0  0  0
   46.8211    9.5494   -0.6158 N   0  0  0  0  0  0  0  0  0  0  0  0
   46.6170    8.4452    0.3760 C   0  0  0  0  0  0  0  0  0  0  0  0
   47.9141    7.7615    0.8729 C   0  0  0  0  0  0  0  0  0  0  0  0
   45.7306   10.7840   -0.7444 S   0  0  0  0  0  0  0  0  0  0  0  0
   44.7270   10.3794   -1.6790 O   0  0  0  0  0  0  0  0  0  0  0  0
   46.4893   11.9772   -1.0631 O   0  0  0  0  0  0  0  0  0  0  0  0
   44.9112   11.0736    0.8100 C   0  0  0  0  0  0  0  0  0  0  0  0
   45.4344   12.3163    1.4957 C   0  0  0  0  0  0  0  0  0  0  0  0
   44.7252   13.5545    1.3258 C   0  0  0  0  0  0  0  0  0  0  0  0
   45.2031   14.7397    1.9672 C   0  0  0  0  0  0  0  0  0  0  0  0
   46.3899   14.6714    2.7747 C   0  0  0  0  0  0  0  0  0  0  0  0
   47.1075   13.4391    2.9507 C   0  0  0  0  0  0  0  0  0  0  0  0
   46.6251   12.2521    2.3062 C   0  0  0  0  0  0  0  0  0  0  0  0
  7 11  1  0  0  0
  7  8  1  0  0  0
  8 13  1  0  0  0
  8  9  2  0  0  0
  9 10  1  0  0  0
  9 19  1  0  0  0
 10 11  2  0  0  0
 10 12  1  0  0  0
 11  1  1  0  0  0
 13 14  2  0  0  0
 13 15  1  0  0  0
 14 17  1  0  0  0
 15 16  2  0  0  0
  1  6  2  0  0  0
  1  2  1  0  0  0
  2  3  2  0  0  0
  3  4  1  0  0  0
  3 25  1  0  0  0
  4  5  2  0  0  0
  5  6  1  0  0  0
 19 20  1  0  0  0
 20 21  1  0  0  0
 21 23  2  0  0  0
 21 22  1  0  0  0
 25 27  1  0  0  0
 27 32  1  0  0  0
 27 28  1  0  0  0
 28 29  1  0  0  0
 29 30  1  0  0  0
 30 31  1  0  0  0
 30 33  1  0  0  0
 31 32  1  0  0  0
 33 36  1  0  0  0
 33 35  2  0  0  0
 33 34  2  0  0  0
 36 37  1  0  0  0
 37 42  2  0  0  0
 37 38  1  0  0  0
 38 39  2  0  0  0
 39 40  1  0  0  0
 40 41  2  0  0  0
 41 42  1  0  0  0
 16 17  1  0  0  0
 22 24  1  0  0  0
 25 26  1  0  0  0
 17 18  1  0  0  0
M  END
> <minimizedAffinity>
-8.08020

$$$$
