3HK1_B64_A_132


 24 25  0  0  0  0  0  0  0  0999 V2000
    9.4930   19.4732   -7.1346 C   0  0  0  0  0  0  0  0  0  0  0  0
    9.4034   19.7890   -5.7089 C   0  0  0  0  0  0  0  0  0  0  0  0
    8.4139   18.5673   -4.9312 S   0  0  0  0  0  0  0  0  0  0  0  0
    8.0670   17.8139   -6.5006 C   0  0  0  0  0  0  0  0  0  0  0  0
    8.7196   18.3913   -7.6012 C   0  0  0  0  0  0  0  0  0  0  0  0
    7.1772   16.6231   -6.5302 C   0  0  0  0  0  0  0  0  0  0  0  0
    5.8564   16.5580   -6.0846 C   0  0  0  0  0  0  0  0  0  0  0  0
    5.3435   15.2518   -6.2973 C   0  0  0  0  0  0  0  0  0  0  0  0
    6.1942   14.3007   -6.9042 C   0  0  0  0  0  0  0  0  0  0  0  0
    7.7833   15.0759   -7.1271 S   0  0  0  0  0  0  0  0  0  0  0  0
    8.5013   21.8475   -8.3231 O   0  0  0  0  0  0  0  0  0  0  0  0
   10.2127   20.3637   -7.8744 N   0  0  0  0  0  0  0  0  0  0  0  0
    9.6852   21.4837   -8.4756 C   0  0  0  0  0  0  0  0  0  0  0  0
   11.1759   20.1940   -7.9863 H   0  0  0  0  0  0  0  0  0  0  0  0
   11.0183   23.7532   -8.5183 C   0  0  0  0  0  0  0  0  0  0  0  0
   10.8381   22.3636   -9.1014 C   0  0  0  0  0  0  0  0  0  0  0  0
   11.0783   23.7742   -7.0096 C   0  0  0  0  0  0  0  0  0  0  0  0
   12.1112   23.2851   -6.5286 O   0  0  0  0  0  0  0  0  0  0  0  0
   10.1459   24.2606   -6.3075 O   0  0  0  0  0  0  0  0  0  0  0  0
   12.7724   22.9375   -7.0943 H   0  0  0  0  0  0  0  0  0  0  0  0
   10.0850   20.8449   -4.9548 C   0  0  0  0  0  0  0  0  0  0  0  0
    9.4573   21.7750   -4.4494 O   0  0  0  0  0  0  0  0  0  0  0  0
   11.5170   20.8074   -4.8869 O   0  0  0  0  0  0  0  0  0  0  0  0
   12.1021   19.5692   -4.4838 C   0  0  0  0  0  0  0  0  0  0  0  0
 17 15  1  0  0  0
 17 18  1  0  0  0
 16 15  2  0  0  0
 19 17  2  0  0  0
 11 13  2  0  0  0
 12 13  1  0  0  0
  1 12  1  0  0  0
  2  1  2  0  0  0
  2 21  1  0  0  0
  3  2  1  0  0  0
  3  4  1  0  0  0
  4  5  2  0  0  0
  5  1  1  0  0  0
 21 22  2  0  0  0
 23 21  1  0  0  0
 23 24  1  0  0  0
  6  4  1  0  0  0
  6  7  2  0  0  0
  8  7  1  0  0  0
  9  8  2  0  0  0
  9 10  1  0  0  0
 10  6  1  0  0  0
 13 16  1  0  0  0
 18 20  1  0  0  0
 12 14  1  0  0  0
M  END
> <minimizedAffinity>
-7.48351

$$$$
3HK1_B64_A_132


 24 25  0  0  0  0  0  0  0  0999 V2000
   12.4954   19.0416   -7.6850 C   0  0  0  0  0  0  0  0  0  0  0  0
   13.4788   18.6384   -8.6905 C   0  0  0  0  0  0  0  0  0  0  0  0
   13.5791   19.8996   -9.9053 S   0  0  0  0  0  0  0  0  0  0  0  0
   12.2594   20.7925   -9.1229 C   0  0  0  0  0  0  0  0  0  0  0  0
   11.7760   20.2282   -7.9319 C   0  0  0  0  0  0  0  0  0  0  0  0
   11.8091   22.0688   -9.7384 C   0  0  0  0  0  0  0  0  0  0  0  0
   12.0253   22.4819  -11.0536 C   0  0  0  0  0  0  0  0  0  0  0  0
   11.4270   23.7523  -11.2606 C   0  0  0  0  0  0  0  0  0  0  0  0
   10.7390   24.3410  -10.1759 C   0  0  0  0  0  0  0  0  0  0  0  0
   10.9490   23.2678   -8.7689 S   0  0  0  0  0  0  0  0  0  0  0  0
   10.7416   16.8172   -7.7829 O   0  0  0  0  0  0  0  0  0  0  0  0
   12.2904   18.1345   -6.6884 N   0  0  0  0  0  0  0  0  0  0  0  0
   11.3944   17.0921   -6.7554 C   0  0  0  0  0  0  0  0  0  0  0  0
   12.8196   18.2319   -5.8639 H   0  0  0  0  0  0  0  0  0  0  0  0
   11.7424   14.6756   -5.7709 C   0  0  0  0  0  0  0  0  0  0  0  0
   11.5490   16.1551   -5.4932 C   0  0  0  0  0  0  0  0  0  0  0  0
   12.8132   14.3862   -6.7955 C   0  0  0  0  0  0  0  0  0  0  0  0
   12.3833   14.1052   -7.9241 O   0  0  0  0  0  0  0  0  0  0  0  0
   14.0445   14.4370   -6.5123 O   0  0  0  0  0  0  0  0  0  0  0  0
   11.4599   14.0813   -8.0811 H   0  0  0  0  0  0  0  0  0  0  0  0
   14.3598   17.4672   -8.6993 C   0  0  0  0  0  0  0  0  0  0  0  0
   13.9441   16.3583   -9.0340 O   0  0  0  0  0  0  0  0  0  0  0  0
   15.7053   17.6326   -8.2313 O   0  0  0  0  0  0  0  0  0  0  0  0
   16.5856   16.5252   -8.4227 C   0  0  0  0  0  0  0  0  0  0  0  0
 17 15  1  0  0  0
 17 18  1  0  0  0
 16 15  2  0  0  0
 19 17  2  0  0  0
 11 13  2  0  0  0
 12 13  1  0  0  0
  1 12  1  0  0  0
  2  1  2  0  0  0
  2 21  1  0  0  0
  3  2  1  0  0  0
  3  4  1  0  0  0
  4  5  2  0  0  0
  5  1  1  0  0  0
 21 22  2  0  0  0
 23 21  1  0  0  0
 23 24  1  0  0  0
  6  4  1  0  0  0
  6  7  2  0  0  0
  8  7  1  0  0  0
  9  8  2  0  0  0
  9 10  1  0  0  0
 10  6  1  0  0  0
 13 16  1  0  0  0
 18 20  1  0  0  0
 12 14  1  0  0  0
M  END
> <minimizedAffinity>
-7.37736

$$$$
3HK1_B64_A_132


 24 25  0  0  0  0  0  0  0  0999 V2000
   11.7049   19.9270   -6.5977 C   0  0  0  0  0  0  0  0  0  0  0  0
   10.7118   20.5794   -5.7441 C   0  0  0  0  0  0  0  0  0  0  0  0
   10.0609   21.9611   -6.6066 S   0  0  0  0  0  0  0  0  0  0  0  0
   11.1993   21.6947   -7.9424 C   0  0  0  0  0  0  0  0  0  0  0  0
   12.0170   20.5606   -7.8173 C   0  0  0  0  0  0  0  0  0  0  0  0
   11.1686   22.6351   -9.0936 C   0  0  0  0  0  0  0  0  0  0  0  0
   10.6415   23.9272   -9.1007 C   0  0  0  0  0  0  0  0  0  0  0  0
   10.8165   24.5082  -10.3838 C   0  0  0  0  0  0  0  0  0  0  0  0
   11.4711   23.7388  -11.3717 C   0  0  0  0  0  0  0  0  0  0  0  0
   11.7955   22.1347  -10.6665 S   0  0  0  0  0  0  0  0  0  0  0  0
   11.1696   17.2068   -7.1869 O   0  0  0  0  0  0  0  0  0  0  0  0
   12.3199   18.8467   -6.0382 N   0  0  0  0  0  0  0  0  0  0  0  0
   12.0002   17.5373   -6.3161 C   0  0  0  0  0  0  0  0  0  0  0  0
   13.0423   19.0148   -5.3909 H   0  0  0  0  0  0  0  0  0  0  0  0
   13.9446   15.7764   -6.5352 C   0  0  0  0  0  0  0  0  0  0  0  0
   13.0274   16.5625   -5.6164 C   0  0  0  0  0  0  0  0  0  0  0  0
   14.6282   16.6254   -7.5802 C   0  0  0  0  0  0  0  0  0  0  0  0
   15.1361   17.6690   -7.1440 O   0  0  0  0  0  0  0  0  0  0  0  0
   14.6765   16.2833   -8.7966 O   0  0  0  0  0  0  0  0  0  0  0  0
   15.0717   17.8759   -6.2324 H   0  0  0  0  0  0  0  0  0  0  0  0
   10.1983   20.1552   -4.4386 C   0  0  0  0  0  0  0  0  0  0  0  0
   10.3602   20.8469   -3.4337 O   0  0  0  0  0  0  0  0  0  0  0  0
    9.5673   18.8706   -4.3477 O   0  0  0  0  0  0  0  0  0  0  0  0
    8.4415   18.6538   -5.1983 C   0  0  0  0  0  0  0  0  0  0  0  0
 17 15  1  0  0  0
 17 18  1  0  0  0
 16 15  2  0  0  0
 19 17  2  0  0  0
 11 13  2  0  0  0
 12 13  1  0  0  0
  1 12  1  0  0  0
  2  1  2  0  0  0
  2 21  1  0  0  0
  3  2  1  0  0  0
  3  4  1  0  0  0
  4  5  2  0  0  0
  5  1  1  0  0  0
 21 22  2  0  0  0
 23 21  1  0  0  0
 23 24  1  0  0  0
  6  4  1  0  0  0
  6  7  2  0  0  0
  8  7  1  0  0  0
  9  8  2  0  0  0
  9 10  1  0  0  0
 10  6  1  0  0  0
 13 16  1  0  0  0
 18 20  1  0  0  0
 12 14  1  0  0  0
M  END
> <minimizedAffinity>
-7.07932

$$$$
3HK1_B64_A_132


 24 25  0  0  0  0  0  0  0  0999 V2000
   10.1379   17.5844   -7.0803 C   0  0  0  0  0  0  0  0  0  0  0  0
   10.2129   19.0393   -6.9461 C   0  0  0  0  0  0  0  0  0  0  0  0
   11.8088   19.5616   -7.4529 S   0  0  0  0  0  0  0  0  0  0  0  0
   12.3188   17.8752   -7.6701 C   0  0  0  0  0  0  0  0  0  0  0  0
   11.3210   16.9130   -7.4491 C   0  0  0  0  0  0  0  0  0  0  0  0
   13.7137   17.6114   -8.1121 C   0  0  0  0  0  0  0  0  0  0  0  0
   14.4680   18.3834   -8.9966 C   0  0  0  0  0  0  0  0  0  0  0  0
   15.7572   17.8104   -9.1521 C   0  0  0  0  0  0  0  0  0  0  0  0
   16.0508   16.6397   -8.4173 C   0  0  0  0  0  0  0  0  0  0  0  0
   14.5657   16.1703   -7.5513 S   0  0  0  0  0  0  0  0  0  0  0  0
    8.1322   16.5425   -8.7905 O   0  0  0  0  0  0  0  0  0  0  0  0
    8.9541   17.0334   -6.6892 N   0  0  0  0  0  0  0  0  0  0  0  0
    7.9828   16.5795   -7.5521 C   0  0  0  0  0  0  0  0  0  0  0  0
    8.7821   16.9547   -5.7230 H   0  0  0  0  0  0  0  0  0  0  0  0
    6.9344   14.3461   -6.6341 C   0  0  0  0  0  0  0  0  0  0  0  0
    6.8312   15.8560   -6.7487 C   0  0  0  0  0  0  0  0  0  0  0  0
    8.2934   13.8638   -6.1865 C   0  0  0  0  0  0  0  0  0  0  0  0
    8.7228   12.8825   -6.8111 O   0  0  0  0  0  0  0  0  0  0  0  0
    8.9326   14.4293   -5.2534 O   0  0  0  0  0  0  0  0  0  0  0  0
    8.2084   12.5006   -7.4948 H   0  0  0  0  0  0  0  0  0  0  0  0
    9.1559   19.9862   -6.5799 C   0  0  0  0  0  0  0  0  0  0  0  0
    8.5239   19.8631   -5.5312 O   0  0  0  0  0  0  0  0  0  0  0  0
    8.8229   21.0197   -7.5168 O   0  0  0  0  0  0  0  0  0  0  0  0
    8.3075   20.5927   -8.7777 C   0  0  0  0  0  0  0  0  0  0  0  0
 17 15  1  0  0  0
 17 18  1  0  0  0
 16 15  2  0  0  0
 19 17  2  0  0  0
 11 13  2  0  0  0
 12 13  1  0  0  0
  1 12  1  0  0  0
  2  1  2  0  0  0
  2 21  1  0  0  0
  3  2  1  0  0  0
  3  4  1  0  0  0
  4  5  2  0  0  0
  5  1  1  0  0  0
 21 22  2  0  0  0
 23 21  1  0  0  0
 23 24  1  0  0  0
  6  4  1  0  0  0
  6  7  2  0  0  0
  8  7  1  0  0  0
  9  8  2  0  0  0
  9 10  1  0  0  0
 10  6  1  0  0  0
 13 16  1  0  0  0
 18 20  1  0  0  0
 12 14  1  0  0  0
M  END
> <minimizedAffinity>
-6.98923

$$$$
3HK1_B64_A_132


 24 25  0  0  0  0  0  0  0  0999 V2000
   12.0985   19.2283   -7.7658 C   0  0  0  0  0  0  0  0  0  0  0  0
   10.7617   19.2406   -7.1714 C   0  0  0  0  0  0  0  0  0  0  0  0
    9.8806   20.6134   -7.8160 S   0  0  0  0  0  0  0  0  0  0  0  0
   11.3237   21.1585   -8.6945 C   0  0  0  0  0  0  0  0  0  0  0  0
   12.4423   20.3167   -8.5925 C   0  0  0  0  0  0  0  0  0  0  0  0
   11.2308   22.4056   -9.4987 C   0  0  0  0  0  0  0  0  0  0  0  0
   11.6625   22.5836  -10.8137 C   0  0  0  0  0  0  0  0  0  0  0  0
   11.3842   23.9107  -11.2331 C   0  0  0  0  0  0  0  0  0  0  0  0
   10.7398   24.7702  -10.3153 C   0  0  0  0  0  0  0  0  0  0  0  0
   10.5662   23.8766   -8.7833 S   0  0  0  0  0  0  0  0  0  0  0  0
   12.9992   17.0192   -9.2962 O   0  0  0  0  0  0  0  0  0  0  0  0
   12.9105   18.2245   -7.3286 N   0  0  0  0  0  0  0  0  0  0  0  0
   13.2897   17.1417   -8.0887 C   0  0  0  0  0  0  0  0  0  0  0  0
   13.2489   18.2777   -6.4056 H   0  0  0  0  0  0  0  0  0  0  0  0
   13.8438   15.4269   -6.1698 C   0  0  0  0  0  0  0  0  0  0  0  0
   14.3620   16.2779   -7.3148 C   0  0  0  0  0  0  0  0  0  0  0  0
   12.6359   14.5957   -6.5310 C   0  0  0  0  0  0  0  0  0  0  0  0
   12.8181   13.8022   -7.4662 O   0  0  0  0  0  0  0  0  0  0  0  0
   11.5367   14.7064   -5.9160 O   0  0  0  0  0  0  0  0  0  0  0  0
   13.6533   13.7598   -7.8887 H   0  0  0  0  0  0  0  0  0  0  0  0
   10.1397   18.2550   -6.2828 C   0  0  0  0  0  0  0  0  0  0  0  0
   10.6490   17.9585   -5.2025 O   0  0  0  0  0  0  0  0  0  0  0  0
    8.9577   17.5849   -6.7419 O   0  0  0  0  0  0  0  0  0  0  0  0
    9.1110   16.7307   -7.8754 C   0  0  0  0  0  0  0  0  0  0  0  0
 17 15  1  0  0  0
 17 18  1  0  0  0
 16 15  2  0  0  0
 19 17  2  0  0  0
 11 13  2  0  0  0
 12 13  1  0  0  0
  1 12  1  0  0  0
  2  1  2  0  0  0
  2 21  1  0  0  0
  3  2  1  0  0  0
  3  4  1  0  0  0
  4  5  2  0  0  0
  5  1  1  0  0  0
 21 22  2  0  0  0
 23 21  1  0  0  0
 23 24  1  0  0  0
  6  4  1  0  0  0
  6  7  2  0  0  0
  8  7  1  0  0  0
  9  8  2  0  0  0
  9 10  1  0  0  0
 10  6  1  0  0  0
 13 16  1  0  0  0
 18 20  1  0  0  0
 12 14  1  0  0  0
M  END
> <minimizedAffinity>
-6.89399

$$$$
3HK1_B64_A_132


 24 25  0  0  0  0  0  0  0  0999 V2000
    9.9974   17.5717   -6.3156 C   0  0  0  0  0  0  0  0  0  0  0  0
   10.2150   18.7806   -5.5207 C   0  0  0  0  0  0  0  0  0  0  0  0
   11.7940   19.4310   -5.9211 S   0  0  0  0  0  0  0  0  0  0  0  0
   12.1274   18.0405   -6.9730 C   0  0  0  0  0  0  0  0  0  0  0  0
   11.0739   17.1225   -7.1066 C   0  0  0  0  0  0  0  0  0  0  0  0
   13.4432   17.9770   -7.6625 C   0  0  0  0  0  0  0  0  0  0  0  0
   14.5755   17.2822   -7.2354 C   0  0  0  0  0  0  0  0  0  0  0  0
   15.6256   17.4557   -8.1744 C   0  0  0  0  0  0  0  0  0  0  0  0
   15.3611   18.2365   -9.3219 C   0  0  0  0  0  0  0  0  0  0  0  0
   13.7085   18.8822   -9.1550 S   0  0  0  0  0  0  0  0  0  0  0  0
    8.0466   16.9050   -8.2606 O   0  0  0  0  0  0  0  0  0  0  0  0
    8.8130   16.9385   -6.0826 N   0  0  0  0  0  0  0  0  0  0  0  0
    7.8683   16.6726   -7.0475 C   0  0  0  0  0  0  0  0  0  0  0  0
    8.6201   16.6517   -5.1608 H   0  0  0  0  0  0  0  0  0  0  0  0
    6.8831   14.2793   -6.5668 C   0  0  0  0  0  0  0  0  0  0  0  0
    6.7092   15.7825   -6.4484 C   0  0  0  0  0  0  0  0  0  0  0  0
    8.2357   13.7879   -6.1098 C   0  0  0  0  0  0  0  0  0  0  0  0
    8.7112   12.8737   -6.7994 O   0  0  0  0  0  0  0  0  0  0  0  0
    8.8262   14.2830   -5.1072 O   0  0  0  0  0  0  0  0  0  0  0  0
    8.2317   12.5422   -7.5330 H   0  0  0  0  0  0  0  0  0  0  0  0
    9.2878   19.4687   -4.6180 C   0  0  0  0  0  0  0  0  0  0  0  0
    8.1365   19.7311   -4.9645 O   0  0  0  0  0  0  0  0  0  0  0  0
    9.7835   19.8992   -3.3430 O   0  0  0  0  0  0  0  0  0  0  0  0
   10.2959   18.8812   -2.4835 C   0  0  0  0  0  0  0  0  0  0  0  0
 17 15  1  0  0  0
 17 18  1  0  0  0
 16 15  2  0  0  0
 19 17  2  0  0  0
 11 13  2  0  0  0
 12 13  1  0  0  0
  1 12  1  0  0  0
  2  1  2  0  0  0
  2 21  1  0  0  0
  3  2  1  0  0  0
  3  4  1  0  0  0
  4  5  2  0  0  0
  5  1  1  0  0  0
 21 22  2  0  0  0
 23 21  1  0  0  0
 23 24  1  0  0  0
  6  4  1  0  0  0
  6  7  2  0  0  0
  8  7  1  0  0  0
  9  8  2  0  0  0
  9 10  1  0  0  0
 10  6  1  0  0  0
 13 16  1  0  0  0
 18 20  1  0  0  0
 12 14  1  0  0  0
M  END
> <minimizedAffinity>
-6.88315

$$$$
3HK1_B64_A_132


 24 25  0  0  0  0  0  0  0  0999 V2000
   11.3721   20.5691   -6.5646 C   0  0  0  0  0  0  0  0  0  0  0  0
   11.2319   19.8573   -5.2941 C   0  0  0  0  0  0  0  0  0  0  0  0
   12.4083   18.5568   -5.2541 S   0  0  0  0  0  0  0  0  0  0  0  0
   12.9056   18.9223   -6.9185 C   0  0  0  0  0  0  0  0  0  0  0  0
   12.2796   20.0352   -7.5016 C   0  0  0  0  0  0  0  0  0  0  0  0
   13.9612   18.0799   -7.5405 C   0  0  0  0  0  0  0  0  0  0  0  0
   14.8778   18.4766   -8.5149 C   0  0  0  0  0  0  0  0  0  0  0  0
   15.7314   17.3900   -8.8395 C   0  0  0  0  0  0  0  0  0  0  0  0
   15.5366   16.1711   -8.1520 C   0  0  0  0  0  0  0  0  0  0  0  0
   14.1136   16.3771   -7.0992 S   0  0  0  0  0  0  0  0  0  0  0  0
   12.0014   23.3326   -6.5631 O   0  0  0  0  0  0  0  0  0  0  0  0
   10.4925   21.5944   -6.7468 N   0  0  0  0  0  0  0  0  0  0  0  0
   10.8280   22.9280   -6.6931 C   0  0  0  0  0  0  0  0  0  0  0  0
    9.5526   21.3651   -6.9293 H   0  0  0  0  0  0  0  0  0  0  0  0
    9.1989   23.7708   -8.5813 C   0  0  0  0  0  0  0  0  0  0  0  0
    9.5955   23.8202   -7.1171 C   0  0  0  0  0  0  0  0  0  0  0  0
    9.0665   22.3688   -9.1263 C   0  0  0  0  0  0  0  0  0  0  0  0
    8.0255   21.7833   -8.7933 O   0  0  0  0  0  0  0  0  0  0  0  0
    9.9507   21.8501   -9.8665 O   0  0  0  0  0  0  0  0  0  0  0  0
    7.4017   22.2136   -8.2422 H   0  0  0  0  0  0  0  0  0  0  0  0
   10.3752   20.1771   -4.1488 C   0  0  0  0  0  0  0  0  0  0  0  0
   10.0620   21.3389   -3.8909 O   0  0  0  0  0  0  0  0  0  0  0  0
    9.9734   19.1033   -3.2872 O   0  0  0  0  0  0  0  0  0  0  0  0
   10.4218   19.1726   -1.9337 C   0  0  0  0  0  0  0  0  0  0  0  0
 17 15  1  0  0  0
 17 18  1  0  0  0
 16 15  2  0  0  0
 19 17  2  0  0  0
 11 13  2  0  0  0
 12 13  1  0  0  0
  1 12  1  0  0  0
  2  1  2  0  0  0
  2 21  1  0  0  0
  3  2  1  0  0  0
  3  4  1  0  0  0
  4  5  2  0  0  0
  5  1  1  0  0  0
 21 22  2  0  0  0
 23 21  1  0  0  0
 23 24  1  0  0  0
  6  4  1  0  0  0
  6  7  2  0  0  0
  8  7  1  0  0  0
  9  8  2  0  0  0
  9 10  1  0  0  0
 10  6  1  0  0  0
 13 16  1  0  0  0
 18 20  1  0  0  0
 12 14  1  0  0  0
M  END
> <minimizedAffinity>
-6.83210

$$$$
3HK1_B64_A_132


 24 25  0  0  0  0  0  0  0  0999 V2000
   10.9776   17.1815   -7.2170 C   0  0  0  0  0  0  0  0  0  0  0  0
   11.4085   16.6034   -5.9439 C   0  0  0  0  0  0  0  0  0  0  0  0
   10.0185   15.8622   -5.1725 S   0  0  0  0  0  0  0  0  0  0  0  0
    8.9535   16.4606   -6.4605 C   0  0  0  0  0  0  0  0  0  0  0  0
    9.5983   17.1430   -7.5041 C   0  0  0  0  0  0  0  0  0  0  0  0
    7.5006   16.1571   -6.3725 C   0  0  0  0  0  0  0  0  0  0  0  0
    6.4944   17.0180   -5.9326 C   0  0  0  0  0  0  0  0  0  0  0  0
    5.2370   16.3643   -6.0118 C   0  0  0  0  0  0  0  0  0  0  0  0
    5.2121   15.0421   -6.5096 C   0  0  0  0  0  0  0  0  0  0  0  0
    6.9008   14.5525   -6.8000 S   0  0  0  0  0  0  0  0  0  0  0  0
   12.2278   16.2490   -9.5835 O   0  0  0  0  0  0  0  0  0  0  0  0
   11.9569   17.8227   -7.9155 N   0  0  0  0  0  0  0  0  0  0  0  0
   12.5737   17.3161   -9.0366 C   0  0  0  0  0  0  0  0  0  0  0  0
   12.2426   18.7090   -7.5960 H   0  0  0  0  0  0  0  0  0  0  0  0
   14.6975   18.8556   -8.8153 C   0  0  0  0  0  0  0  0  0  0  0  0
   13.5305   18.4003   -9.6723 C   0  0  0  0  0  0  0  0  0  0  0  0
   15.4893   17.7182   -8.2159 C   0  0  0  0  0  0  0  0  0  0  0  0
   15.5781   17.7481   -6.9795 O   0  0  0  0  0  0  0  0  0  0  0  0
   16.0082   16.8123   -8.9294 O   0  0  0  0  0  0  0  0  0  0  0  0
   15.1745   18.4429   -6.4975 H   0  0  0  0  0  0  0  0  0  0  0  0
   12.7610   16.5045   -5.3881 C   0  0  0  0  0  0  0  0  0  0  0  0
   13.3800   17.5071   -5.0332 O   0  0  0  0  0  0  0  0  0  0  0  0
   13.3770   15.2102   -5.3405 O   0  0  0  0  0  0  0  0  0  0  0  0
   13.5120   14.5243   -6.5851 C   0  0  0  0  0  0  0  0  0  0  0  0
 17 15  1  0  0  0
 17 18  1  0  0  0
 16 15  2  0  0  0
 19 17  2  0  0  0
 11 13  2  0  0  0
 12 13  1  0  0  0
  1 12  1  0  0  0
  2  1  2  0  0  0
  2 21  1  0  0  0
  3  2  1  0  0  0
  3  4  1  0  0  0
  4  5  2  0  0  0
  5  1  1  0  0  0
 21 22  2  0  0  0
 23 21  1  0  0  0
 23 24  1  0  0  0
  6  4  1  0  0  0
  6  7  2  0  0  0
  8  7  1  0  0  0
  9  8  2  0  0  0
  9 10  1  0  0  0
 10  6  1  0  0  0
 13 16  1  0  0  0
 18 20  1  0  0  0
 12 14  1  0  0  0
M  END
> <minimizedAffinity>
-6.80287

$$$$
3HK1_B64_A_132


 24 25  0  0  0  0  0  0  0  0999 V2000
   12.1724   21.2921   -8.0217 C   0  0  0  0  0  0  0  0  0  0  0  0
   11.3264   20.7093   -6.9801 C   0  0  0  0  0  0  0  0  0  0  0  0
   11.9753   19.1364   -6.5539 S   0  0  0  0  0  0  0  0  0  0  0  0
   13.2012   19.2687   -7.8310 C   0  0  0  0  0  0  0  0  0  0  0  0
   13.2051   20.4825   -8.5361 C   0  0  0  0  0  0  0  0  0  0  0  0
   14.1467   18.1371   -8.0212 C   0  0  0  0  0  0  0  0  0  0  0  0
   15.2380   18.0997   -8.8900 C   0  0  0  0  0  0  0  0  0  0  0  0
   15.9025   16.8513   -8.7699 C   0  0  0  0  0  0  0  0  0  0  0  0
   15.3933   15.9210   -7.8362 C   0  0  0  0  0  0  0  0  0  0  0  0
   13.9142   16.6270   -7.1365 S   0  0  0  0  0  0  0  0  0  0  0  0
   10.7590   21.7966  -10.4261 O   0  0  0  0  0  0  0  0  0  0  0  0
   11.7652   22.5116   -8.4746 N   0  0  0  0  0  0  0  0  0  0  0  0
   11.1206   22.7229   -9.6720 C   0  0  0  0  0  0  0  0  0  0  0  0
   11.9445   23.2951   -7.9060 H   0  0  0  0  0  0  0  0  0  0  0  0
    9.1585   24.4774   -9.7127 C   0  0  0  0  0  0  0  0  0  0  0  0
   10.6539   24.2277   -9.7846 C   0  0  0  0  0  0  0  0  0  0  0  0
    8.4837   23.7857   -8.5524 C   0  0  0  0  0  0  0  0  0  0  0  0
    8.7710   24.2493   -7.4389 O   0  0  0  0  0  0  0  0  0  0  0  0
    7.6874   22.8177   -8.7190 O   0  0  0  0  0  0  0  0  0  0  0  0
    9.3678   24.9685   -7.3707 H   0  0  0  0  0  0  0  0  0  0  0  0
   10.1924   21.3094   -6.2716 C   0  0  0  0  0  0  0  0  0  0  0  0
   10.2659   22.4402   -5.7915 O   0  0  0  0  0  0  0  0  0  0  0  0
    9.0160   20.5109   -6.0840 O   0  0  0  0  0  0  0  0  0  0  0  0
    8.7802   20.0274   -4.7617 C   0  0  0  0  0  0  0  0  0  0  0  0
 17 15  1  0  0  0
 17 18  1  0  0  0
 16 15  2  0  0  0
 19 17  2  0  0  0
 11 13  2  0  0  0
 12 13  1  0  0  0
  1 12  1  0  0  0
  2  1  2  0  0  0
  2 21  1  0  0  0
  3  2  1  0  0  0
  3  4  1  0  0  0
  4  5  2  0  0  0
  5  1  1  0  0  0
 21 22  2  0  0  0
 23 21  1  0  0  0
 23 24  1  0  0  0
  6  4  1  0  0  0
  6  7  2  0  0  0
  8  7  1  0  0  0
  9  8  2  0  0  0
  9 10  1  0  0  0
 10  6  1  0  0  0
 13 16  1  0  0  0
 18 20  1  0  0  0
 12 14  1  0  0  0
M  END
> <minimizedAffinity>
-6.78523

$$$$
3HK1_B64_A_132


 24 25  0  0  0  0  0  0  0  0999 V2000
   11.3227   18.3167   -7.5923 C   0  0  0  0  0  0  0  0  0  0  0  0
   10.5960   19.5826   -7.6919 C   0  0  0  0  0  0  0  0  0  0  0  0
    8.8800   19.2500   -7.5467 S   0  0  0  0  0  0  0  0  0  0  0  0
    9.1965   17.5037   -7.5078 C   0  0  0  0  0  0  0  0  0  0  0  0
   10.5518   17.1387   -7.5264 C   0  0  0  0  0  0  0  0  0  0  0  0
    8.0370   16.5787   -7.4055 C   0  0  0  0  0  0  0  0  0  0  0  0
    7.7057   15.5557   -8.2949 C   0  0  0  0  0  0  0  0  0  0  0  0
    6.5379   14.8879   -7.8425 C   0  0  0  0  0  0  0  0  0  0  0  0
    5.9535   15.3285   -6.6338 C   0  0  0  0  0  0  0  0  0  0  0  0
    6.8788   16.7488   -6.0838 S   0  0  0  0  0  0  0  0  0  0  0  0
   12.8633   17.4655   -9.8139 O   0  0  0  0  0  0  0  0  0  0  0  0
   12.6758   18.4214   -7.7203 N   0  0  0  0  0  0  0  0  0  0  0  0
   13.3954   17.9538   -8.7961 C   0  0  0  0  0  0  0  0  0  0  0  0
   13.1723   18.8619   -6.9932 H   0  0  0  0  0  0  0  0  0  0  0  0
   15.8129   17.5003   -7.8581 C   0  0  0  0  0  0  0  0  0  0  0  0
   14.9065   18.3989   -8.6794 C   0  0  0  0  0  0  0  0  0  0  0  0
   15.7047   16.0380   -8.2187 C   0  0  0  0  0  0  0  0  0  0  0  0
   16.1764   15.7449   -9.3274 O   0  0  0  0  0  0  0  0  0  0  0  0
   15.1790   15.1917   -7.4400 O   0  0  0  0  0  0  0  0  0  0  0  0
   16.5551   16.4112   -9.8664 H   0  0  0  0  0  0  0  0  0  0  0  0
   11.1277   20.9458   -7.7750 C   0  0  0  0  0  0  0  0  0  0  0  0
   12.3398   21.1584   -7.7883 O   0  0  0  0  0  0  0  0  0  0  0  0
   10.1948   22.0350   -7.7619 O   0  0  0  0  0  0  0  0  0  0  0  0
   10.3016   22.9503   -6.6717 C   0  0  0  0  0  0  0  0  0  0  0  0
 17 15  1  0  0  0
 17 18  1  0  0  0
 16 15  2  0  0  0
 19 17  2  0  0  0
 11 13  2  0  0  0
 12 13  1  0  0  0
  1 12  1  0  0  0
  2  1  2  0  0  0
  2 21  1  0  0  0
  3  2  1  0  0  0
  3  4  1  0  0  0
  4  5  2  0  0  0
  5  1  1  0  0  0
 21 22  2  0  0  0
 23 21  1  0  0  0
 23 24  1  0  0  0
  6  4  1  0  0  0
  6  7  2  0  0  0
  8  7  1  0  0  0
  9  8  2  0  0  0
  9 10  1  0  0  0
 10  6  1  0  0  0
 13 16  1  0  0  0
 18 20  1  0  0  0
 12 14  1  0  0  0
M  END
> <minimizedAffinity>
-6.67272

$$$$
