3OKU_VZ4_A_263


 28 31  0  0  0  0  0  0  0  0999 V2000
   -0.0003    8.9413   15.5391 C   0  0  0  0  0  0  0  0  0  0  0  0
   -0.3116   11.5633   13.8276 O   0  0  0  0  0  0  0  0  0  0  0  0
   -3.0494    3.0461   13.9560 C   0  0  0  0  0  0  0  0  0  0  0  0
   -4.4694    5.3370   14.4951 C   0  0  0  0  0  0  0  0  0  0  0  0
    1.0590    9.8768   12.6507 C   0  0  0  0  0  0  0  0  0  0  0  0
   -0.9960    4.2696   13.2905 C   0  0  0  0  0  0  0  0  0  0  0  0
    1.0606    8.3614   12.9527 C   0  0  0  0  0  0  0  0  0  0  0  0
   -0.6186    5.6188   12.6649 C   0  0  0  0  0  0  0  0  0  0  0  0
   -2.8214    7.9319   14.9264 C   0  0  0  0  0  0  0  0  0  0  0  0
   -2.2460    9.3125   14.4936 C   0  0  0  0  0  0  0  0  0  0  0  0
   -0.0503   10.3860   13.5860 C   0  0  0  0  0  0  0  0  0  0  0  0
   -5.0561    4.0757   14.6687 C   0  0  0  0  0  0  0  0  0  0  0  0
   -2.4445    4.3002   13.7856 C   0  0  0  0  0  0  0  0  0  0  0  0
   -4.3563    2.8856   14.4019 C   0  0  0  0  0  0  0  0  0  0  0  0
   -3.1409    5.4735   14.0798 C   0  0  0  0  0  0  0  0  0  0  0  0
   -2.4818    6.8456   13.8625 C   0  0  0  0  0  0  0  0  0  0  0  0
   -0.9440    6.7455   13.6517 C   0  0  0  0  0  0  0  0  0  0  0  0
   -0.4505    8.1248   13.1645 C   0  0  0  0  0  0  0  0  0  0  0  0
   -0.7416    9.1821   14.2271 C   0  0  0  0  0  0  0  0  0  0  0  0
   -6.4823    3.8426   16.6669 C   0  0  0  0  0  0  0  0  0  0  0  0
   -6.4736    4.1210   15.1592 C   0  0  0  0  0  0  0  0  0  0  0  0
   -4.8536    1.5712   14.5062 O   0  0  0  0  0  0  0  0  0  0  0  0
   -5.8882    0.3729   16.4783 N   0  0  0  0  0  0  0  0  0  0  0  0
   -4.0940   -0.6659   14.9965 O   0  0  0  0  0  0  0  0  0  0  0  0
   -3.4807    1.2150   16.4529 O   0  0  0  0  0  0  0  0  0  0  0  0
   -4.5385    0.5947   15.6025 S   0  0  0  0  0  0  0  0  0  0  0  0
   -5.6998   -0.2884   17.2317 H   0  0  0  0  0  0  0  0  0  0  0  0
   -6.6259    0.0037   15.8785 H   0  0  0  0  0  0  0  0  0  0  0  0
 21 20  1  0  0  0
 19  1  1  0  0  0
 26 23  1  0  0  0
 11  2  2  0  0  0
 26 24  2  0  0  0
 26 25  2  0  0  0
 13  3  2  0  0  0
  3 14  1  0  0  0
 15  4  2  0  0  0
  4 12  1  0  0  0
 12 21  1  0  0  0
  5  7  1  0  0  0
  5 11  1  0  0  0
  8  6  1  0  0  0
  6 13  1  0  0  0
  7 18  1  0  0  0
  8 17  1  0  0  0
 16  9  1  0  0  0
 10  9  1  0  0  0
 19 10  1  0  0  0
 14 22  1  0  0  0
 22 26  1  0  0  0
 11 19  1  0  0  0
 14 12  2  0  0  0
 13 15  1  0  0  0
 16 15  1  0  0  0
 17 16  1  0  0  0
 18 17  1  0  0  0
 18 19  1  0  0  0
 23 27  1  0  0  0
 23 28  1  0  0  0
M  END
> <minimizedAffinity>
-8.89267

$$$$
3OKU_VZ4_A_263


 28 31  0  0  0  0  0  0  0  0999 V2000
   -4.0252    8.9930   10.4089 C   0  0  0  0  0  0  0  0  0  0  0  0
   -1.3857    9.6947    8.8463 O   0  0  0  0  0  0  0  0  0  0  0  0
   -4.4754    3.8775   14.9017 C   0  0  0  0  0  0  0  0  0  0  0  0
   -3.8346    3.4624   12.2612 C   0  0  0  0  0  0  0  0  0  0  0  0
   -1.2014   10.2885   11.2383 C   0  0  0  0  0  0  0  0  0  0  0  0
   -3.6993    6.2342   14.8984 C   0  0  0  0  0  0  0  0  0  0  0  0
   -2.0781    9.7082   12.3707 C   0  0  0  0  0  0  0  0  0  0  0  0
   -2.6538    7.0948   14.1769 C   0  0  0  0  0  0  0  0  0  0  0  0
   -3.4429    5.9922   10.5055 C   0  0  0  0  0  0  0  0  0  0  0  0
   -2.5894    7.0503    9.7464 C   0  0  0  0  0  0  0  0  0  0  0  0
   -1.6757    9.4766   10.0215 C   0  0  0  0  0  0  0  0  0  0  0  0
   -4.4044    2.4362   13.0277 C   0  0  0  0  0  0  0  0  0  0  0  0
   -3.9142    4.9178   14.1465 C   0  0  0  0  0  0  0  0  0  0  0  0
   -4.7435    2.6170   14.3802 C   0  0  0  0  0  0  0  0  0  0  0  0
   -3.6071    4.7340   12.7974 C   0  0  0  0  0  0  0  0  0  0  0  0
   -2.9647    5.8693   11.9833 C   0  0  0  0  0  0  0  0  0  0  0  0
   -3.0482    7.2453   12.7036 C   0  0  0  0  0  0  0  0  0  0  0  0
   -2.1336    8.2266   11.9395 C   0  0  0  0  0  0  0  0  0  0  0  0
   -2.6295    8.3830   10.5037 C   0  0  0  0  0  0  0  0  0  0  0  0
   -5.1447    1.4844   10.8765 C   0  0  0  0  0  0  0  0  0  0  0  0
   -4.6140    1.1541   12.2765 C   0  0  0  0  0  0  0  0  0  0  0  0
   -5.2853    1.6516   15.2521 O   0  0  0  0  0  0  0  0  0  0  0  0
   -5.3065    0.3491   17.4198 N   0  0  0  0  0  0  0  0  0  0  0  0
   -4.3862   -0.5874   15.2358 O   0  0  0  0  0  0  0  0  0  0  0  0
   -3.1756    1.2430   16.3399 O   0  0  0  0  0  0  0  0  0  0  0  0
   -4.5050    0.6366   16.0367 S   0  0  0  0  0  0  0  0  0  0  0  0
   -4.7952   -0.3392   17.9722 H   0  0  0  0  0  0  0  0  0  0  0  0
   -6.2367   -0.0101   17.2053 H   0  0  0  0  0  0  0  0  0  0  0  0
 21 20  1  0  0  0
 19  1  1  0  0  0
 26 23  1  0  0  0
 11  2  2  0  0  0
 26 24  2  0  0  0
 26 25  2  0  0  0
 13  3  2  0  0  0
  3 14  1  0  0  0
 15  4  2  0  0  0
  4 12  1  0  0  0
 12 21  1  0  0  0
  5  7  1  0  0  0
  5 11  1  0  0  0
  8  6  1  0  0  0
  6 13  1  0  0  0
  7 18  1  0  0  0
  8 17  1  0  0  0
 16  9  1  0  0  0
 10  9  1  0  0  0
 19 10  1  0  0  0
 14 22  1  0  0  0
 22 26  1  0  0  0
 11 19  1  0  0  0
 14 12  2  0  0  0
 13 15  1  0  0  0
 16 15  1  0  0  0
 17 16  1  0  0  0
 18 17  1  0  0  0
 18 19  1  0  0  0
 23 27  1  0  0  0
 23 28  1  0  0  0
M  END
> <minimizedAffinity>
-8.38634

$$$$
3OKU_VZ4_A_263


 28 31  0  0  0  0  0  0  0  0999 V2000
   -0.5807    6.3967   10.2221 C   0  0  0  0  0  0  0  0  0  0  0  0
    2.5551    6.3157   10.4693 O   0  0  0  0  0  0  0  0  0  0  0  0
   -4.7838    3.9463   15.0060 C   0  0  0  0  0  0  0  0  0  0  0  0
   -2.9596    2.3589   13.6993 C   0  0  0  0  0  0  0  0  0  0  0  0
    1.5699    7.9530   12.0366 C   0  0  0  0  0  0  0  0  0  0  0  0
   -3.5150    6.0388   14.5964 C   0  0  0  0  0  0  0  0  0  0  0  0
    0.1003    7.9570   12.5140 C   0  0  0  0  0  0  0  0  0  0  0  0
   -2.0566    6.4753   14.4051 C   0  0  0  0  0  0  0  0  0  0  0  0
   -0.9992    3.7884   11.7631 C   0  0  0  0  0  0  0  0  0  0  0  0
    0.3817    4.3807   11.3550 C   0  0  0  0  0  0  0  0  0  0  0  0
    1.6282    6.6652   11.1982 C   0  0  0  0  0  0  0  0  0  0  0  0
   -4.1104    1.8006   14.2731 C   0  0  0  0  0  0  0  0  0  0  0  0
   -3.6420    4.5221   14.4297 C   0  0  0  0  0  0  0  0  0  0  0  0
   -5.0622    2.5855   14.9476 C   0  0  0  0  0  0  0  0  0  0  0  0
   -2.7182    3.7359   13.7392 C   0  0  0  0  0  0  0  0  0  0  0  0
   -1.4538    4.3692   13.1355 C   0  0  0  0  0  0  0  0  0  0  0  0
   -1.5303    5.9216   13.0764 C   0  0  0  0  0  0  0  0  0  0  0  0
   -0.1193    6.4441   12.7307 C   0  0  0  0  0  0  0  0  0  0  0  0
    0.3077    5.9122   11.3644 C   0  0  0  0  0  0  0  0  0  0  0  0
   -4.1826   -0.0089   12.5992 C   0  0  0  0  0  0  0  0  0  0  0  0
   -4.2240    0.3146   14.0974 C   0  0  0  0  0  0  0  0  0  0  0  0
   -6.2312    2.1303   15.5896 O   0  0  0  0  0  0  0  0  0  0  0  0
   -5.0423    0.7163   17.3166 N   0  0  0  0  0  0  0  0  0  0  0  0
   -6.3394    2.8319   17.8957 O   0  0  0  0  0  0  0  0  0  0  0  0
   -7.5818    0.8578   17.1251 O   0  0  0  0  0  0  0  0  0  0  0  0
   -6.3286    1.6600   17.0123 S   0  0  0  0  0  0  0  0  0  0  0  0
   -5.0852    0.3831   18.2797 H   0  0  0  0  0  0  0  0  0  0  0  0
   -4.1863    1.2541   17.1807 H   0  0  0  0  0  0  0  0  0  0  0  0
 21 20  1  0  0  0
 19  1  1  0  0  0
 26 23  1  0  0  0
 11  2  2  0  0  0
 26 24  2  0  0  0
 26 25  2  0  0  0
 13  3  2  0  0  0
  3 14  1  0  0  0
 15  4  2  0  0  0
  4 12  1  0  0  0
 12 21  1  0  0  0
  5  7  1  0  0  0
  5 11  1  0  0  0
  8  6  1  0  0  0
  6 13  1  0  0  0
  7 18  1  0  0  0
  8 17  1  0  0  0
 16  9  1  0  0  0
 10  9  1  0  0  0
 19 10  1  0  0  0
 14 22  1  0  0  0
 22 26  1  0  0  0
 11 19  1  0  0  0
 14 12  2  0  0  0
 13 15  1  0  0  0
 16 15  1  0  0  0
 17 16  1  0  0  0
 18 17  1  0  0  0
 18 19  1  0  0  0
 23 27  1  0  0  0
 23 28  1  0  0  0
M  END
> <minimizedAffinity>
-8.08035

$$$$
3OKU_VZ4_A_263


 28 31  0  0  0  0  0  0  0  0999 V2000
   -3.1146    9.8342   11.0272 C   0  0  0  0  0  0  0  0  0  0  0  0
   -0.2599   10.7252   10.0485 O   0  0  0  0  0  0  0  0  0  0  0  0
   -4.1861    4.3967   15.0074 C   0  0  0  0  0  0  0  0  0  0  0  0
   -3.0402    4.1925   12.5173 C   0  0  0  0  0  0  0  0  0  0  0  0
   -0.5570   11.1499   12.4649 C   0  0  0  0  0  0  0  0  0  0  0  0
   -3.5253    6.7695   15.3064 C   0  0  0  0  0  0  0  0  0  0  0  0
   -1.6062   10.4636   13.3681 C   0  0  0  0  0  0  0  0  0  0  0  0
   -2.4002    7.7107   14.8563 C   0  0  0  0  0  0  0  0  0  0  0  0
   -2.4326    6.8529   11.0379 C   0  0  0  0  0  0  0  0  0  0  0  0
   -1.4973    7.9880   10.5269 C   0  0  0  0  0  0  0  0  0  0  0  0
   -0.7572   10.4142   11.1296 C   0  0  0  0  0  0  0  0  0  0  0  0
   -3.7000    3.0972   13.0918 C   0  0  0  0  0  0  0  0  0  0  0  0
   -3.5374    5.5050   14.4431 C   0  0  0  0  0  0  0  0  0  0  0  0
   -4.2963    3.1697   14.3631 C   0  0  0  0  0  0  0  0  0  0  0  0
   -2.9730    5.4283   13.1688 C   0  0  0  0  0  0  0  0  0  0  0  0
   -2.2377    6.6380   12.5687 C   0  0  0  0  0  0  0  0  0  0  0  0
   -2.5150    7.9554   13.3477 C   0  0  0  0  0  0  0  0  0  0  0  0
   -1.5154    9.0160   12.8387 C   0  0  0  0  0  0  0  0  0  0  0  0
   -1.7371    9.2608   11.3477 C   0  0  0  0  0  0  0  0  0  0  0  0
   -5.0641    1.7711   11.5226 C   0  0  0  0  0  0  0  0  0  0  0  0
   -3.7085    1.8669   12.2325 C   0  0  0  0  0  0  0  0  0  0  0  0
   -4.9512    2.1282   15.0502 O   0  0  0  0  0  0  0  0  0  0  0  0
   -4.5168   -0.3580   15.2102 N   0  0  0  0  0  0  0  0  0  0  0  0
   -2.8620    1.4043   16.0162 O   0  0  0  0  0  0  0  0  0  0  0  0
   -4.9743    1.1204   17.2377 O   0  0  0  0  0  0  0  0  0  0  0  0
   -4.2916    1.0897   15.9111 S   0  0  0  0  0  0  0  0  0  0  0  0
   -4.0767   -1.0826   15.7774 H   0  0  0  0  0  0  0  0  0  0  0  0
   -4.0989   -0.3540   14.2797 H   0  0  0  0  0  0  0  0  0  0  0  0
 21 20  1  0  0  0
 19  1  1  0  0  0
 26 23  1  0  0  0
 11  2  2  0  0  0
 26 24  2  0  0  0
 26 25  2  0  0  0
 13  3  2  0  0  0
  3 14  1  0  0  0
 15  4  2  0  0  0
  4 12  1  0  0  0
 12 21  1  0  0  0
  5  7  1  0  0  0
  5 11  1  0  0  0
  8  6  1  0  0  0
  6 13  1  0  0  0
  7 18  1  0  0  0
  8 17  1  0  0  0
 16  9  1  0  0  0
 10  9  1  0  0  0
 19 10  1  0  0  0
 14 22  1  0  0  0
 22 26  1  0  0  0
 11 19  1  0  0  0
 14 12  2  0  0  0
 13 15  1  0  0  0
 16 15  1  0  0  0
 17 16  1  0  0  0
 18 17  1  0  0  0
 18 19  1  0  0  0
 23 27  1  0  0  0
 23 28  1  0  0  0
M  END
> <minimizedAffinity>
-7.78293

$$$$
3OKU_VZ4_A_263


 28 31  0  0  0  0  0  0  0  0999 V2000
   -6.0618    2.6826   14.0615 C   0  0  0  0  0  0  0  0  0  0  0  0
   -7.2889    2.4960   16.9529 O   0  0  0  0  0  0  0  0  0  0  0  0
   -0.4081    6.2154   12.6083 C   0  0  0  0  0  0  0  0  0  0  0  0
   -2.6605    7.4057   13.6404 C   0  0  0  0  0  0  0  0  0  0  0  0
   -5.1826    1.2144   16.7838 C   0  0  0  0  0  0  0  0  0  0  0  0
   -0.9725    3.9723   13.5064 C   0  0  0  0  0  0  0  0  0  0  0  0
   -4.0960    1.4239   15.7054 C   0  0  0  0  0  0  0  0  0  0  0  0
   -1.7264    3.3732   14.7009 C   0  0  0  0  0  0  0  0  0  0  0  0
   -4.9892    5.5200   14.4508 C   0  0  0  0  0  0  0  0  0  0  0  0
   -5.8693    4.7427   15.4733 C   0  0  0  0  0  0  0  0  0  0  0  0
   -6.1688    2.3506   16.4662 C   0  0  0  0  0  0  0  0  0  0  0  0
   -1.7347    8.1521   12.8981 C   0  0  0  0  0  0  0  0  0  0  0  0
   -1.3290    5.4522   13.3412 C   0  0  0  0  0  0  0  0  0  0  0  0
   -0.5735    7.5726   12.3569 C   0  0  0  0  0  0  0  0  0  0  0  0
   -2.4915    6.0333   13.8501 C   0  0  0  0  0  0  0  0  0  0  0  0
   -3.4819    5.1976   14.6778 C   0  0  0  0  0  0  0  0  0  0  0  0
   -3.2234    3.6685   14.5573 C   0  0  0  0  0  0  0  0  0  0  0  0
   -4.0751    2.9663   15.6365 C   0  0  0  0  0  0  0  0  0  0  0  0
   -5.5558    3.2442   15.3872 C   0  0  0  0  0  0  0  0  0  0  0  0
   -1.8181   10.3254   14.0607 C   0  0  0  0  0  0  0  0  0  0  0  0
   -2.0996    9.5991   12.7400 C   0  0  0  0  0  0  0  0  0  0  0  0
    0.4384    8.2296   11.6286 O   0  0  0  0  0  0  0  0  0  0  0  0
    2.8797    7.6698   11.9783 N   0  0  0  0  0  0  0  0  0  0  0  0
    2.0423   10.0271   11.4927 O   0  0  0  0  0  0  0  0  0  0  0  0
    1.4901    8.9988   13.6543 O   0  0  0  0  0  0  0  0  0  0  0  0
    1.7150    8.7808   12.1952 S   0  0  0  0  0  0  0  0  0  0  0  0
    3.7596    8.0214   12.3560 H   0  0  0  0  0  0  0  0  0  0  0  0
    2.9886    7.4814   10.9818 H   0  0  0  0  0  0  0  0  0  0  0  0
 21 20  1  0  0  0
 19  1  1  0  0  0
 26 23  1  0  0  0
 11  2  2  0  0  0
 26 24  2  0  0  0
 26 25  2  0  0  0
 13  3  2  0  0  0
  3 14  1  0  0  0
 15  4  2  0  0  0
  4 12  1  0  0  0
 12 21  1  0  0  0
  5  7  1  0  0  0
  5 11  1  0  0  0
  8  6  1  0  0  0
  6 13  1  0  0  0
  7 18  1  0  0  0
  8 17  1  0  0  0
 16  9  1  0  0  0
 10  9  1  0  0  0
 19 10  1  0  0  0
 14 22  1  0  0  0
 22 26  1  0  0  0
 11 19  1  0  0  0
 14 12  2  0  0  0
 13 15  1  0  0  0
 16 15  1  0  0  0
 17 16  1  0  0  0
 18 17  1  0  0  0
 18 19  1  0  0  0
 23 27  1  0  0  0
 23 28  1  0  0  0
M  END
> <minimizedAffinity>
-7.59440

$$$$
3OKU_VZ4_A_263


 28 31  0  0  0  0  0  0  0  0999 V2000
   -5.6943    2.4503   14.4757 C   0  0  0  0  0  0  0  0  0  0  0  0
   -3.9550   -0.0119   15.3776 O   0  0  0  0  0  0  0  0  0  0  0  0
   -3.1058    7.9092   11.3045 C   0  0  0  0  0  0  0  0  0  0  0  0
   -2.3029    7.1542   13.8225 C   0  0  0  0  0  0  0  0  0  0  0  0
   -4.1938    0.0702   12.9191 C   0  0  0  0  0  0  0  0  0  0  0  0
   -3.8712    5.6334   10.6788 C   0  0  0  0  0  0  0  0  0  0  0  0
   -4.5759    1.3249   12.1022 C   0  0  0  0  0  0  0  0  0  0  0  0
   -3.5248    4.1764   11.0122 C   0  0  0  0  0  0  0  0  0  0  0  0
   -3.4538    4.4855   14.9131 C   0  0  0  0  0  0  0  0  0  0  0  0
   -3.3784    2.9729   15.2744 C   0  0  0  0  0  0  0  0  0  0  0  0
   -4.0782    0.6407   14.3424 C   0  0  0  0  0  0  0  0  0  0  0  0
   -2.1684    8.4837   13.3987 C   0  0  0  0  0  0  0  0  0  0  0  0
   -3.2557    6.5766   11.7160 C   0  0  0  0  0  0  0  0  0  0  0  0
   -2.5696    8.9013   12.1174 C   0  0  0  0  0  0  0  0  0  0  0  0
   -2.8785    6.1803   13.0001 C   0  0  0  0  0  0  0  0  0  0  0  0
   -3.0182    4.7120   13.4344 C   0  0  0  0  0  0  0  0  0  0  0  0
   -3.9093    3.8824   12.4664 C   0  0  0  0  0  0  0  0  0  0  0  0
   -3.7391    2.3937   12.8380 C   0  0  0  0  0  0  0  0  0  0  0  0
   -4.2094    2.1626   14.2723 C   0  0  0  0  0  0  0  0  0  0  0  0
   -1.1935    8.5700   15.6623 C   0  0  0  0  0  0  0  0  0  0  0  0
   -1.5688    9.3974   14.4271 C   0  0  0  0  0  0  0  0  0  0  0  0
   -2.4501   10.1962   11.5745 O   0  0  0  0  0  0  0  0  0  0  0  0
   -1.1636   12.2961   10.9992 N   0  0  0  0  0  0  0  0  0  0  0  0
   -0.0857    9.9912   11.1389 O   0  0  0  0  0  0  0  0  0  0  0  0
   -1.6631   10.4494    9.3122 O   0  0  0  0  0  0  0  0  0  0  0  0
   -1.3077   10.6993   10.7399 S   0  0  0  0  0  0  0  0  0  0  0  0
   -0.3921   12.6628   10.4419 H   0  0  0  0  0  0  0  0  0  0  0  0
   -0.9790   12.4647   11.9881 H   0  0  0  0  0  0  0  0  0  0  0  0
 21 20  1  0  0  0
 19  1  1  0  0  0
 26 23  1  0  0  0
 11  2  2  0  0  0
 26 24  2  0  0  0
 26 25  2  0  0  0
 13  3  2  0  0  0
  3 14  1  0  0  0
 15  4  2  0  0  0
  4 12  1  0  0  0
 12 21  1  0  0  0
  5  7  1  0  0  0
  5 11  1  0  0  0
  8  6  1  0  0  0
  6 13  1  0  0  0
  7 18  1  0  0  0
  8 17  1  0  0  0
 16  9  1  0  0  0
 10  9  1  0  0  0
 19 10  1  0  0  0
 14 22  1  0  0  0
 22 26  1  0  0  0
 11 19  1  0  0  0
 14 12  2  0  0  0
 13 15  1  0  0  0
 16 15  1  0  0  0
 17 16  1  0  0  0
 18 17  1  0  0  0
 18 19  1  0  0  0
 23 27  1  0  0  0
 23 28  1  0  0  0
M  END
> <minimizedAffinity>
-7.40852

$$$$
3OKU_VZ4_A_263


 28 31  0  0  0  0  0  0  0  0999 V2000
   -5.8906    2.6682   13.9871 C   0  0  0  0  0  0  0  0  0  0  0  0
   -7.1381    2.6064   16.8752 O   0  0  0  0  0  0  0  0  0  0  0  0
   -0.3686    6.3335   12.3655 C   0  0  0  0  0  0  0  0  0  0  0  0
   -2.6770    7.4915   13.3066 C   0  0  0  0  0  0  0  0  0  0  0  0
   -4.9806    1.4034   16.8000 C   0  0  0  0  0  0  0  0  0  0  0  0
   -0.8517    4.1275   13.3935 C   0  0  0  0  0  0  0  0  0  0  0  0
   -3.8925    1.5915   15.7191 C   0  0  0  0  0  0  0  0  0  0  0  0
   -1.5929    3.5713   14.6164 C   0  0  0  0  0  0  0  0  0  0  0  0
   -4.9364    5.5651   14.2120 C   0  0  0  0  0  0  0  0  0  0  0  0
   -5.7949    4.8156   15.2730 C   0  0  0  0  0  0  0  0  0  0  0  0
   -6.0083    2.4775   16.4067 C   0  0  0  0  0  0  0  0  0  0  0  0
   -1.7745    8.2288   12.5275 C   0  0  0  0  0  0  0  0  0  0  0  0
   -1.2655    5.5791   13.1363 C   0  0  0  0  0  0  0  0  0  0  0  0
   -0.5856    7.6653   12.0312 C   0  0  0  0  0  0  0  0  0  0  0  0
   -2.4554    6.1421   13.6003 C   0  0  0  0  0  0  0  0  0  0  0  0
   -3.4197    5.3183   14.4695 C   0  0  0  0  0  0  0  0  0  0  0  0
   -3.0990    3.7965   14.4438 C   0  0  0  0  0  0  0  0  0  0  0  0
   -3.9327    3.1265   15.5571 C   0  0  0  0  0  0  0  0  0  0  0  0
   -5.4208    3.3286   15.2802 C   0  0  0  0  0  0  0  0  0  0  0  0
   -3.2105    9.6665   11.1302 C   0  0  0  0  0  0  0  0  0  0  0  0
   -2.1955    9.6476   12.2792 C   0  0  0  0  0  0  0  0  0  0  0  0
    0.4063    8.3177   11.2721 O   0  0  0  0  0  0  0  0  0  0  0  0
    1.1047    9.6952    9.2694 N   0  0  0  0  0  0  0  0  0  0  0  0
    1.5082    7.1854    9.4485 O   0  0  0  0  0  0  0  0  0  0  0  0
   -0.7980    7.9975    9.2110 O   0  0  0  0  0  0  0  0  0  0  0  0
    0.5577    8.2535    9.7795 S   0  0  0  0  0  0  0  0  0  0  0  0
    1.2162    9.6772    8.2557 H   0  0  0  0  0  0  0  0  0  0  0  0
    2.0048    9.8915    9.7071 H   0  0  0  0  0  0  0  0  0  0  0  0
 21 20  1  0  0  0
 19  1  1  0  0  0
 26 23  1  0  0  0
 11  2  2  0  0  0
 26 24  2  0  0  0
 26 25  2  0  0  0
 13  3  2  0  0  0
  3 14  1  0  0  0
 15  4  2  0  0  0
  4 12  1  0  0  0
 12 21  1  0  0  0
  5  7  1  0  0  0
  5 11  1  0  0  0
  8  6  1  0  0  0
  6 13  1  0  0  0
  7 18  1  0  0  0
  8 17  1  0  0  0
 16  9  1  0  0  0
 10  9  1  0  0  0
 19 10  1  0  0  0
 14 22  1  0  0  0
 22 26  1  0  0  0
 11 19  1  0  0  0
 14 12  2  0  0  0
 13 15  1  0  0  0
 16 15  1  0  0  0
 17 16  1  0  0  0
 18 17  1  0  0  0
 18 19  1  0  0  0
 23 27  1  0  0  0
 23 28  1  0  0  0
M  END
> <minimizedAffinity>
-7.12967

$$$$
3OKU_VZ4_A_263


 28 31  0  0  0  0  0  0  0  0999 V2000
   -3.5925    2.0426   16.2912 C   0  0  0  0  0  0  0  0  0  0  0  0
   -5.3851   -0.5390   16.4428 O   0  0  0  0  0  0  0  0  0  0  0  0
   -4.0630    6.6453   11.2762 C   0  0  0  0  0  0  0  0  0  0  0  0
   -3.4036    4.0190   10.8037 C   0  0  0  0  0  0  0  0  0  0  0  0
   -6.6996    1.4996   16.9163 C   0  0  0  0  0  0  0  0  0  0  0  0
   -5.2347    6.1476   13.4060 C   0  0  0  0  0  0  0  0  0  0  0  0
   -6.2956    2.9348   16.5106 C   0  0  0  0  0  0  0  0  0  0  0  0
   -6.0221    4.9919   14.0372 C   0  0  0  0  0  0  0  0  0  0  0  0
   -3.5199    2.0916   13.2342 C   0  0  0  0  0  0  0  0  0  0  0  0
   -4.1636    0.9697   14.1010 C   0  0  0  0  0  0  0  0  0  0  0  0
   -5.5904    0.6600   16.2611 C   0  0  0  0  0  0  0  0  0  0  0  0
   -3.0189    5.0245    9.9059 C   0  0  0  0  0  0  0  0  0  0  0  0
   -4.4480    5.6525   12.1893 C   0  0  0  0  0  0  0  0  0  0  0  0
   -3.3404    6.3766   10.1193 C   0  0  0  0  0  0  0  0  0  0  0  0
   -4.0992    4.3173   11.9799 C   0  0  0  0  0  0  0  0  0  0  0  0
   -4.5499    3.2303   12.9695 C   0  0  0  0  0  0  0  0  0  0  0  0
   -5.0733    3.8197   14.3104 C   0  0  0  0  0  0  0  0  0  0  0  0
   -5.7526    2.6728   15.0891 C   0  0  0  0  0  0  0  0  0  0  0  0
   -4.7320    1.5771   15.3891 C   0  0  0  0  0  0  0  0  0  0  0  0
   -0.7508    4.7626    8.9739 C   0  0  0  0  0  0  0  0  0  0  0  0
   -2.2444    4.5254    8.7214 C   0  0  0  0  0  0  0  0  0  0  0  0
   -3.0383    7.4612    9.2719 O   0  0  0  0  0  0  0  0  0  0  0  0
   -2.5535    9.8972    9.7478 N   0  0  0  0  0  0  0  0  0  0  0  0
   -1.0842    7.9907   10.5846 O   0  0  0  0  0  0  0  0  0  0  0  0
   -1.1440    8.4666    8.1753 O   0  0  0  0  0  0  0  0  0  0  0  0
   -1.9100    8.4349    9.4556 S   0  0  0  0  0  0  0  0  0  0  0  0
   -1.8052   10.5784    9.8766 H   0  0  0  0  0  0  0  0  0  0  0  0
   -3.1240    9.8551   10.5922 H   0  0  0  0  0  0  0  0  0  0  0  0
 21 20  1  0  0  0
 19  1  1  0  0  0
 26 23  1  0  0  0
 11  2  2  0  0  0
 26 24  2  0  0  0
 26 25  2  0  0  0
 13  3  2  0  0  0
  3 14  1  0  0  0
 15  4  2  0  0  0
  4 12  1  0  0  0
 12 21  1  0  0  0
  5  7  1  0  0  0
  5 11  1  0  0  0
  8  6  1  0  0  0
  6 13  1  0  0  0
  7 18  1  0  0  0
  8 17  1  0  0  0
 16  9  1  0  0  0
 10  9  1  0  0  0
 19 10  1  0  0  0
 14 22  1  0  0  0
 22 26  1  0  0  0
 11 19  1  0  0  0
 14 12  2  0  0  0
 13 15  1  0  0  0
 16 15  1  0  0  0
 17 16  1  0  0  0
 18 17  1  0  0  0
 18 19  1  0  0  0
 23 27  1  0  0  0
 23 28  1  0  0  0
M  END
> <minimizedAffinity>
-6.99503

$$$$
3OKU_VZ4_A_263


 28 31  0  0  0  0  0  0  0  0999 V2000
   -2.6381    2.6655   15.2803 C   0  0  0  0  0  0  0  0  0  0  0  0
   -4.5865    1.2185   13.2776 O   0  0  0  0  0  0  0  0  0  0  0  0
   -0.1213    8.9161   14.2067 C   0  0  0  0  0  0  0  0  0  0  0  0
    0.3601    6.8231   12.4912 C   0  0  0  0  0  0  0  0  0  0  0  0
   -5.7113    3.0902   14.4348 C   0  0  0  0  0  0  0  0  0  0  0  0
   -2.2111    7.9247   15.1048 C   0  0  0  0  0  0  0  0  0  0  0  0
   -4.9933    4.2717   15.1250 C   0  0  0  0  0  0  0  0  0  0  0  0
   -3.3365    6.9976   14.6272 C   0  0  0  0  0  0  0  0  0  0  0  0
   -1.1235    4.1619   13.0849 C   0  0  0  0  0  0  0  0  0  0  0  0
   -2.2308    3.0937   12.8461 C   0  0  0  0  0  0  0  0  0  0  0  0
   -4.5348    2.3313   13.7988 C   0  0  0  0  0  0  0  0  0  0  0  0
    1.2420    7.9110   12.5557 C   0  0  0  0  0  0  0  0  0  0  0  0
   -1.0091    7.8310   14.1610 C   0  0  0  0  0  0  0  0  0  0  0  0
    1.0239    8.9963   13.4227 C   0  0  0  0  0  0  0  0  0  0  0  0
   -0.7670    6.7469   13.3157 C   0  0  0  0  0  0  0  0  0  0  0  0
   -1.7597    5.5747   13.2490 C   0  0  0  0  0  0  0  0  0  0  0  0
   -2.7792    5.5845   14.4237 C   0  0  0  0  0  0  0  0  0  0  0  0
   -3.8790    4.5525   14.0938 C   0  0  0  0  0  0  0  0  0  0  0  0
   -3.2625    3.1602   13.9786 C   0  0  0  0  0  0  0  0  0  0  0  0
    3.2389    6.5677   12.0175 C   0  0  0  0  0  0  0  0  0  0  0  0
    2.4177    7.8030   11.6294 C   0  0  0  0  0  0  0  0  0  0  0  0
    1.8194   10.1530   13.5456 O   0  0  0  0  0  0  0  0  0  0  0  0
    3.6601   11.7609   14.1955 N   0  0  0  0  0  0  0  0  0  0  0  0
    2.2759   10.4608   15.8949 O   0  0  0  0  0  0  0  0  0  0  0  0
    3.8472    9.2311   14.4619 O   0  0  0  0  0  0  0  0  0  0  0  0
    2.8966   10.3765   14.5677 S   0  0  0  0  0  0  0  0  0  0  0  0
    4.3986   11.9357   14.8770 H   0  0  0  0  0  0  0  0  0  0  0  0
    2.9928   12.5322   14.2119 H   0  0  0  0  0  0  0  0  0  0  0  0
 21 20  1  0  0  0
 19  1  1  0  0  0
 26 23  1  0  0  0
 11  2  2  0  0  0
 26 24  2  0  0  0
 26 25  2  0  0  0
 13  3  2  0  0  0
  3 14  1  0  0  0
 15  4  2  0  0  0
  4 12  1  0  0  0
 12 21  1  0  0  0
  5  7  1  0  0  0
  5 11  1  0  0  0
  8  6  1  0  0  0
  6 13  1  0  0  0
  7 18  1  0  0  0
  8 17  1  0  0  0
 16  9  1  0  0  0
 10  9  1  0  0  0
 19 10  1  0  0  0
 14 22  1  0  0  0
 22 26  1  0  0  0
 11 19  1  0  0  0
 14 12  2  0  0  0
 13 15  1  0  0  0
 16 15  1  0  0  0
 17 16  1  0  0  0
 18 17  1  0  0  0
 18 19  1  0  0  0
 23 27  1  0  0  0
 23 28  1  0  0  0
M  END
> <minimizedAffinity>
-6.84562

$$$$
3OKU_VZ4_A_263


 28 31  0  0  0  0  0  0  0  0999 V2000
    0.6851   11.3026   12.8917 C   0  0  0  0  0  0  0  0  0  0  0  0
    3.7488   11.1194   13.5851 O   0  0  0  0  0  0  0  0  0  0  0  0
   -3.6746    6.1281   13.7718 C   0  0  0  0  0  0  0  0  0  0  0  0
   -1.5024    5.9511   12.0969 C   0  0  0  0  0  0  0  0  0  0  0  0
    2.3631   11.1610   15.6310 C   0  0  0  0  0  0  0  0  0  0  0  0
   -2.6723    7.9207   15.1641 C   0  0  0  0  0  0  0  0  0  0  0  0
    0.8610   10.8047   15.6975 C   0  0  0  0  0  0  0  0  0  0  0  0
   -1.2772    8.3877   15.5999 C   0  0  0  0  0  0  0  0  0  0  0  0
    0.4554    8.3600   12.0907 C   0  0  0  0  0  0  0  0  0  0  0  0
    1.7784    9.0890   12.4683 C   0  0  0  0  0  0  0  0  0  0  0  0
    2.7015   10.8393   14.1659 C   0  0  0  0  0  0  0  0  0  0  0  0
   -2.6238    5.1330   11.9010 C   0  0  0  0  0  0  0  0  0  0  0  0
   -2.5642    6.9604   13.9765 C   0  0  0  0  0  0  0  0  0  0  0  0
   -3.7502    5.1997   12.7399 C   0  0  0  0  0  0  0  0  0  0  0  0
   -1.4632    6.9036   13.1204 C   0  0  0  0  0  0  0  0  0  0  0  0
   -0.2372    7.7978   13.3681 C   0  0  0  0  0  0  0  0  0  0  0  0
   -0.5232    8.9394   14.3850 C   0  0  0  0  0  0  0  0  0  0  0  0
    0.8316    9.5755   14.7636 C   0  0  0  0  0  0  0  0  0  0  0  0
    1.4895   10.1676   13.5192 C   0  0  0  0  0  0  0  0  0  0  0  0
   -1.3747    4.6939    9.8205 C   0  0  0  0  0  0  0  0  0  0  0  0
   -2.5058    4.2010   10.7307 C   0  0  0  0  0  0  0  0  0  0  0  0
   -4.9121    4.4063   12.6595 O   0  0  0  0  0  0  0  0  0  0  0  0
   -5.3577    2.0088   11.9895 N   0  0  0  0  0  0  0  0  0  0  0  0
   -3.8456    2.6579   13.9352 O   0  0  0  0  0  0  0  0  0  0  0  0
   -6.2613    3.0590   14.1311 O   0  0  0  0  0  0  0  0  0  0  0  0
   -5.0762    3.0249   13.2248 S   0  0  0  0  0  0  0  0  0  0  0  0
   -5.4732    1.0610   12.3483 H   0  0  0  0  0  0  0  0  0  0  0  0
   -4.5697    2.0337   11.3424 H   0  0  0  0  0  0  0  0  0  0  0  0
 21 20  1  0  0  0
 19  1  1  0  0  0
 26 23  1  0  0  0
 11  2  2  0  0  0
 26 24  2  0  0  0
 26 25  2  0  0  0
 13  3  2  0  0  0
  3 14  1  0  0  0
 15  4  2  0  0  0
  4 12  1  0  0  0
 12 21  1  0  0  0
  5  7  1  0  0  0
  5 11  1  0  0  0
  8  6  1  0  0  0
  6 13  1  0  0  0
  7 18  1  0  0  0
  8 17  1  0  0  0
 16  9  1  0  0  0
 10  9  1  0  0  0
 19 10  1  0  0  0
 14 22  1  0  0  0
 22 26  1  0  0  0
 11 19  1  0  0  0
 14 12  2  0  0  0
 13 15  1  0  0  0
 16 15  1  0  0  0
 17 16  1  0  0  0
 18 17  1  0  0  0
 18 19  1  0  0  0
 23 27  1  0  0  0
 23 28  1  0  0  0
M  END
> <minimizedAffinity>
-6.65763

$$$$
