5LVD_79F_E_410


 36 36  0  0  0  0  0  0  0  0999 V2000
   11.2647   38.7743   -3.8856 N   0  0  0  0  0  0  0  0  0  0  0  0
   11.7280   39.6369   -3.5998 H   0  0  0  0  0  0  0  0  0  0  0  0
   10.8772   38.9616   -5.5121 P   0  0  0  0  0  0  0  0  0  0  0  0
   10.7351   40.4569   -5.7655 O   0  0  0  0  0  0  0  0  0  0  0  0
    9.6515   38.2037   -5.9320 O   0  0  0  0  0  0  0  0  0  0  0  0
    9.4856   38.3545   -6.8757 H   0  0  0  0  0  0  0  0  0  0  0  0
   12.3375   38.3182   -6.3645 C   0  0  0  0  0  0  0  0  0  0  0  0
   13.1655   38.0883   -8.6477 C   0  0  0  0  0  0  0  0  0  0  0  0
   14.2949   37.8017   -8.3121 O   0  0  0  0  0  0  0  0  0  0  0  0
   12.1407   38.3731   -7.8221 N   0  0  0  0  0  0  0  0  0  0  0  0
   11.2619   38.6174   -8.1925 H   0  0  0  0  0  0  0  0  0  0  0  0
   12.7973   38.1314   -9.9223 O   0  0  0  0  0  0  0  0  0  0  0  0
   13.7572   38.8455  -10.7638 C   0  0  0  0  0  0  0  0  0  0  0  0
   13.3583   36.5275  -11.8030 C   0  0  0  0  0  0  0  0  0  0  0  0
   13.3630   35.6363  -12.8802 C   0  0  0  0  0  0  0  0  0  0  0  0
   13.7380   37.8709  -11.9544 C   0  0  0  0  0  0  0  0  0  0  0  0
   13.7659   36.0842  -14.1487 C   0  0  0  0  0  0  0  0  0  0  0  0
   14.1571   37.4223  -14.2972 C   0  0  0  0  0  0  0  0  0  0  0  0
   14.1519   38.3056  -13.2064 C   0  0  0  0  0  0  0  0  0  0  0  0
   10.2336   38.5029   -2.8722 C   0  0  0  0  0  0  0  0  0  0  0  0
    9.0632   39.4489   -2.9621 C   0  0  0  0  0  0  0  0  0  0  0  0
    9.2899   40.7429   -2.6909 N   0  0  0  0  0  0  0  0  0  0  0  0
    7.9559   39.0022   -3.2479 O   0  0  0  0  0  0  0  0  0  0  0  0
   10.1735   41.0789   -2.4159 H   0  0  0  0  0  0  0  0  0  0  0  0
    8.1276   41.6163   -2.8342 C   0  0  0  0  0  0  0  0  0  0  0  0
    8.1587   42.2178   -4.2235 C   0  0  0  0  0  0  0  0  0  0  0  0
    9.2724   42.5621   -4.6787 O   0  0  0  0  0  0  0  0  0  0  0  0
    7.0838   42.4019   -4.8696 O   0  0  0  0  0  0  0  0  0  0  0  0
   10.0498   42.4128   -4.1774 H   0  0  0  0  0  0  0  0  0  0  0  0
    8.0316   42.6359   -1.6747 C   0  0  0  0  0  0  0  0  0  0  0  0
    6.0665   44.2745   -1.8626 C   0  0  0  0  0  0  0  0  0  0  0  0
    6.5822   42.9555   -1.2354 C   0  0  0  0  0  0  0  0  0  0  0  0
    5.6396   41.8291   -1.7326 C   0  0  0  0  0  0  0  0  0  0  0  0
   10.8609   38.5790   -1.4694 C   0  0  0  0  0  0  0  0  0  0  0  0
   11.9995   39.4614   -1.5410 O   0  0  0  0  0  0  0  0  0  0  0  0
   12.6364   39.1157   -2.1858 H   0  0  0  0  0  0  0  0  0  0  0  0
 18 19  2  0  0  0
 18 17  1  0  0  0
 19 16  1  0  0  0
 17 15  2  0  0  0
 16 13  1  0  0  0
 16 14  2  0  0  0
 15 14  1  0  0  0
 13 12  1  0  0  0
 12  8  1  0  0  0
  9  8  2  0  0  0
  8 10  1  0  0  0
 10  7  1  0  0  0
  7  3  1  0  0  0
  4  3  2  0  0  0
  5  3  1  0  0  0
  3  1  1  0  0  0
 28 26  2  0  0  0
 27 26  1  0  0  0
 26 25  1  0  0  0
 25 22  1  0  0  0
 25 30  1  0  0  0
  1 20  1  0  0  0
 22 21  1  0  0  0
 21 23  2  0  0  0
 21 20  1  0  0  0
 20 34  1  0  0  0
 30 32  1  0  0  0
 32 33  1  0  0  0
 32 31  1  0  0  0
 34 35  1  0  0  0
 22 24  1  0  0  0
  5  6  1  0  0  0
  1  2  1  0  0  0
 35 36  1  0  0  0
 10 11  1  0  0  0
 27 29  1  0  0  0
M  END
> <minimizedAffinity>
-9.14195

$$$$
5LVD_79F_E_410


 36 36  0  0  0  0  0  0  0  0999 V2000
   11.2282   39.0704   -3.6250 N   0  0  0  0  0  0  0  0  0  0  0  0
   11.2801   40.0888   -3.6033 H   0  0  0  0  0  0  0  0  0  0  0  0
   11.0820   38.6381   -5.2444 P   0  0  0  0  0  0  0  0  0  0  0  0
    9.7500   37.9139   -5.3922 O   0  0  0  0  0  0  0  0  0  0  0  0
   12.2274   37.8134   -5.7551 O   0  0  0  0  0  0  0  0  0  0  0  0
   12.0806   37.5999   -6.6898 H   0  0  0  0  0  0  0  0  0  0  0  0
   11.0255   40.2327   -6.0972 C   0  0  0  0  0  0  0  0  0  0  0  0
   11.9567   41.1346   -8.1638 C   0  0  0  0  0  0  0  0  0  0  0  0
   12.0721   42.2623   -7.7333 O   0  0  0  0  0  0  0  0  0  0  0  0
   11.4587   40.0773   -7.4951 N   0  0  0  0  0  0  0  0  0  0  0  0
   11.3846   39.2023   -7.9403 H   0  0  0  0  0  0  0  0  0  0  0  0
   12.3479   40.8028   -9.3881 O   0  0  0  0  0  0  0  0  0  0  0  0
   13.7914   40.5855   -9.4803 C   0  0  0  0  0  0  0  0  0  0  0  0
   14.0490   39.4898  -11.7922 C   0  0  0  0  0  0  0  0  0  0  0  0
   13.9868   38.3920  -12.6558 C   0  0  0  0  0  0  0  0  0  0  0  0
   13.7477   39.3723  -10.4257 C   0  0  0  0  0  0  0  0  0  0  0  0
   13.6043   37.1369  -12.1552 C   0  0  0  0  0  0  0  0  0  0  0  0
   13.2912   37.0224  -10.7934 C   0  0  0  0  0  0  0  0  0  0  0  0
   13.3536   38.1335   -9.9381 C   0  0  0  0  0  0  0  0  0  0  0  0
   10.2165   38.6863   -2.6286 C   0  0  0  0  0  0  0  0  0  0  0  0
    8.9969   39.5719   -2.6635 C   0  0  0  0  0  0  0  0  0  0  0  0
    9.1663   40.8714   -2.3772 N   0  0  0  0  0  0  0  0  0  0  0  0
    7.9049   39.0732   -2.9205 O   0  0  0  0  0  0  0  0  0  0  0  0
   10.0403   41.2481   -2.1255 H   0  0  0  0  0  0  0  0  0  0  0  0
    7.9567   41.6857   -2.4669 C   0  0  0  0  0  0  0  0  0  0  0  0
    7.9992   42.4500   -3.7734 C   0  0  0  0  0  0  0  0  0  0  0  0
    8.9693   43.2179   -3.9617 O   0  0  0  0  0  0  0  0  0  0  0  0
    7.0569   42.3408   -4.6141 O   0  0  0  0  0  0  0  0  0  0  0  0
    9.6510   43.2771   -3.3217 H   0  0  0  0  0  0  0  0  0  0  0  0
    7.7548   42.5517   -1.2010 C   0  0  0  0  0  0  0  0  0  0  0  0
    5.1954   42.6370   -1.3575 C   0  0  0  0  0  0  0  0  0  0  0  0
    6.5029   43.4608   -1.2529 C   0  0  0  0  0  0  0  0  0  0  0  0
    6.4106   44.2754    0.0632 C   0  0  0  0  0  0  0  0  0  0  0  0
   10.8436   38.7148   -1.2239 C   0  0  0  0  0  0  0  0  0  0  0  0
   11.8504   39.7475   -1.2096 O   0  0  0  0  0  0  0  0  0  0  0  0
   12.5210   39.5545   -1.8834 H   0  0  0  0  0  0  0  0  0  0  0  0
 18 19  2  0  0  0
 18 17  1  0  0  0
 19 16  1  0  0  0
 17 15  2  0  0  0
 16 13  1  0  0  0
 16 14  2  0  0  0
 15 14  1  0  0  0
 13 12  1  0  0  0
 12  8  1  0  0  0
  9  8  2  0  0  0
  8 10  1  0  0  0
 10  7  1  0  0  0
  7  3  1  0  0  0
  4  3  2  0  0  0
  5  3  1  0  0  0
  3  1  1  0  0  0
 28 26  2  0  0  0
 27 26  1  0  0  0
 26 25  1  0  0  0
 25 22  1  0  0  0
 25 30  1  0  0  0
  1 20  1  0  0  0
 22 21  1  0  0  0
 21 23  2  0  0  0
 21 20  1  0  0  0
 20 34  1  0  0  0
 30 32  1  0  0  0
 32 33  1  0  0  0
 32 31  1  0  0  0
 34 35  1  0  0  0
 22 24  1  0  0  0
  5  6  1  0  0  0
  1  2  1  0  0  0
 35 36  1  0  0  0
 10 11  1  0  0  0
 27 29  1  0  0  0
M  END
> <minimizedAffinity>
-8.49557

$$$$
5LVD_79F_E_410


 36 36  0  0  0  0  0  0  0  0999 V2000
   11.2741   39.0236   -3.6614 N   0  0  0  0  0  0  0  0  0  0  0  0
   11.4532   40.0210   -3.5446 H   0  0  0  0  0  0  0  0  0  0  0  0
   11.1470   38.7563   -5.3177 P   0  0  0  0  0  0  0  0  0  0  0  0
    9.8607   37.9721   -5.5435 O   0  0  0  0  0  0  0  0  0  0  0  0
   12.3380   38.0612   -5.9103 O   0  0  0  0  0  0  0  0  0  0  0  0
   12.2001   37.9389   -6.8627 H   0  0  0  0  0  0  0  0  0  0  0  0
   10.9899   40.4255   -5.9976 C   0  0  0  0  0  0  0  0  0  0  0  0
   12.4409   41.1372   -7.8250 C   0  0  0  0  0  0  0  0  0  0  0  0
   11.5956   40.9903   -8.6819 O   0  0  0  0  0  0  0  0  0  0  0  0
   12.2890   40.8900   -6.5102 N   0  0  0  0  0  0  0  0  0  0  0  0
   13.0452   41.0196   -5.8932 H   0  0  0  0  0  0  0  0  0  0  0  0
   13.6539   41.6001   -8.1018 O   0  0  0  0  0  0  0  0  0  0  0  0
   13.8919   42.9306   -7.5426 C   0  0  0  0  0  0  0  0  0  0  0  0
   16.0902   44.2346   -7.8234 C   0  0  0  0  0  0  0  0  0  0  0  0
   17.3029   44.4922   -8.4696 C   0  0  0  0  0  0  0  0  0  0  0  0
   15.2383   43.1980   -8.2377 C   0  0  0  0  0  0  0  0  0  0  0  0
   17.6833   43.7058   -9.5691 C   0  0  0  0  0  0  0  0  0  0  0  0
   16.8268   42.6790   -9.9907 C   0  0  0  0  0  0  0  0  0  0  0  0
   15.6099   42.4337   -9.3356 C   0  0  0  0  0  0  0  0  0  0  0  0
   10.1785   38.6891   -2.7386 C   0  0  0  0  0  0  0  0  0  0  0  0
    9.0292   39.6613   -2.8199 C   0  0  0  0  0  0  0  0  0  0  0  0
    9.2546   40.9221   -2.4212 N   0  0  0  0  0  0  0  0  0  0  0  0
    7.9373   39.2624   -3.2149 O   0  0  0  0  0  0  0  0  0  0  0  0
   10.1225   41.2160   -2.0611 H   0  0  0  0  0  0  0  0  0  0  0  0
    8.1160   41.8266   -2.5614 C   0  0  0  0  0  0  0  0  0  0  0  0
    8.2926   42.6112   -3.8444 C   0  0  0  0  0  0  0  0  0  0  0  0
    7.9977   42.0378   -4.9169 O   0  0  0  0  0  0  0  0  0  0  0  0
    8.7662   43.7867   -3.8203 O   0  0  0  0  0  0  0  0  0  0  0  0
    7.6493   41.1680   -4.9028 H   0  0  0  0  0  0  0  0  0  0  0  0
    7.9032   42.6802   -1.2889 C   0  0  0  0  0  0  0  0  0  0  0  0
    5.3387   42.6367   -1.3518 C   0  0  0  0  0  0  0  0  0  0  0  0
    6.6066   43.5254   -1.3070 C   0  0  0  0  0  0  0  0  0  0  0  0
    6.5215   44.3550    0.0002 C   0  0  0  0  0  0  0  0  0  0  0  0
   10.7186   38.6369   -1.2989 C   0  0  0  0  0  0  0  0  0  0  0  0
   11.7537   39.6340   -1.1782 O   0  0  0  0  0  0  0  0  0  0  0  0
   12.4583   39.4477   -1.8183 H   0  0  0  0  0  0  0  0  0  0  0  0
 18 19  2  0  0  0
 18 17  1  0  0  0
 19 16  1  0  0  0
 17 15  2  0  0  0
 16 13  1  0  0  0
 16 14  2  0  0  0
 15 14  1  0  0  0
 13 12  1  0  0  0
 12  8  1  0  0  0
  9  8  2  0  0  0
  8 10  1  0  0  0
 10  7  1  0  0  0
  7  3  1  0  0  0
  4  3  2  0  0  0
  5  3  1  0  0  0
  3  1  1  0  0  0
 28 26  2  0  0  0
 27 26  1  0  0  0
 26 25  1  0  0  0
 25 22  1  0  0  0
 25 30  1  0  0  0
  1 20  1  0  0  0
 22 21  1  0  0  0
 21 23  2  0  0  0
 21 20  1  0  0  0
 20 34  1  0  0  0
 30 32  1  0  0  0
 32 33  1  0  0  0
 32 31  1  0  0  0
 34 35  1  0  0  0
 22 24  1  0  0  0
  5  6  1  0  0  0
  1  2  1  0  0  0
 35 36  1  0  0  0
 10 11  1  0  0  0
 27 29  1  0  0  0
M  END
> <minimizedAffinity>
-8.19896

$$$$
5LVD_79F_E_410


 36 36  0  0  0  0  0  0  0  0999 V2000
   12.2704   40.9999   -6.7425 N   0  0  0  0  0  0  0  0  0  0  0  0
   11.8668   41.3442   -5.8713 H   0  0  0  0  0  0  0  0  0  0  0  0
   12.1531   42.2614   -7.8496 P   0  0  0  0  0  0  0  0  0  0  0  0
   12.0926   43.5538   -7.0456 O   0  0  0  0  0  0  0  0  0  0  0  0
   10.9911   42.1326   -8.7909 O   0  0  0  0  0  0  0  0  0  0  0  0
   10.9823   42.8883   -9.3990 H   0  0  0  0  0  0  0  0  0  0  0  0
   13.7138   42.1628   -8.7595 C   0  0  0  0  0  0  0  0  0  0  0  0
   14.8687   40.4634  -10.0745 C   0  0  0  0  0  0  0  0  0  0  0  0
   15.9787   40.8658   -9.7984 O   0  0  0  0  0  0  0  0  0  0  0  0
   13.7049   40.9983   -9.6595 N   0  0  0  0  0  0  0  0  0  0  0  0
   12.8500   40.6113   -9.9573 H   0  0  0  0  0  0  0  0  0  0  0  0
   14.6749   39.3902  -10.8314 O   0  0  0  0  0  0  0  0  0  0  0  0
   14.5403   39.7168  -12.2508 C   0  0  0  0  0  0  0  0  0  0  0  0
   13.6363   37.3428  -11.8523 C   0  0  0  0  0  0  0  0  0  0  0  0
   13.2841   36.0625  -12.2900 C   0  0  0  0  0  0  0  0  0  0  0  0
   14.1288   38.3160  -12.7367 C   0  0  0  0  0  0  0  0  0  0  0  0
   13.4326   35.7281  -13.6458 C   0  0  0  0  0  0  0  0  0  0  0  0
   13.9362   36.6958  -14.5265 C   0  0  0  0  0  0  0  0  0  0  0  0
   14.2900   37.9762  -14.0732 C   0  0  0  0  0  0  0  0  0  0  0  0
   11.6516   39.6897   -6.9960 C   0  0  0  0  0  0  0  0  0  0  0  0
   10.8933   39.1618   -5.8047 C   0  0  0  0  0  0  0  0  0  0  0  0
   10.3068   40.0577   -4.9968 N   0  0  0  0  0  0  0  0  0  0  0  0
   10.8651   37.9508   -5.6045 O   0  0  0  0  0  0  0  0  0  0  0  0
   10.3785   41.0286   -5.1429 H   0  0  0  0  0  0  0  0  0  0  0  0
    9.5536   39.4848   -3.8838 C   0  0  0  0  0  0  0  0  0  0  0  0
    8.5651   40.5245   -3.3991 C   0  0  0  0  0  0  0  0  0  0  0  0
    8.9991   41.6789   -3.1869 O   0  0  0  0  0  0  0  0  0  0  0  0
    7.3573   40.2105   -3.1770 O   0  0  0  0  0  0  0  0  0  0  0  0
    9.8974   41.8810   -3.3609 H   0  0  0  0  0  0  0  0  0  0  0  0
   10.4900   38.9061   -2.7969 C   0  0  0  0  0  0  0  0  0  0  0  0
    9.7882   36.6986   -1.6937 C   0  0  0  0  0  0  0  0  0  0  0  0
    9.7459   38.2448   -1.6115 C   0  0  0  0  0  0  0  0  0  0  0  0
   10.4483   38.6384   -0.2864 C   0  0  0  0  0  0  0  0  0  0  0  0
   12.7369   38.6822   -7.4135 C   0  0  0  0  0  0  0  0  0  0  0  0
   12.4943   38.3142   -8.7867 O   0  0  0  0  0  0  0  0  0  0  0  0
   11.6106   37.9221   -8.8651 H   0  0  0  0  0  0  0  0  0  0  0  0
 18 19  2  0  0  0
 18 17  1  0  0  0
 19 16  1  0  0  0
 17 15  2  0  0  0
 16 13  1  0  0  0
 16 14  2  0  0  0
 15 14  1  0  0  0
 13 12  1  0  0  0
 12  8  1  0  0  0
  9  8  2  0  0  0
  8 10  1  0  0  0
 10  7  1  0  0  0
  7  3  1  0  0  0
  4  3  2  0  0  0
  5  3  1  0  0  0
  3  1  1  0  0  0
 28 26  2  0  0  0
 27 26  1  0  0  0
 26 25  1  0  0  0
 25 22  1  0  0  0
 25 30  1  0  0  0
  1 20  1  0  0  0
 22 21  1  0  0  0
 21 23  2  0  0  0
 21 20  1  0  0  0
 20 34  1  0  0  0
 30 32  1  0  0  0
 32 33  1  0  0  0
 32 31  1  0  0  0
 34 35  1  0  0  0
 22 24  1  0  0  0
  5  6  1  0  0  0
  1  2  1  0  0  0
 35 36  1  0  0  0
 10 11  1  0  0  0
 27 29  1  0  0  0
M  END
> <minimizedAffinity>
-7.80260

$$$$
5LVD_79F_E_410


 36 36  0  0  0  0  0  0  0  0999 V2000
   12.0087   40.4242   -8.2502 N   0  0  0  0  0  0  0  0  0  0  0  0
   12.2003   40.5237   -9.2471 H   0  0  0  0  0  0  0  0  0  0  0  0
   12.1213   41.9678   -7.5902 P   0  0  0  0  0  0  0  0  0  0  0  0
   12.3180   42.9340   -8.7514 O   0  0  0  0  0  0  0  0  0  0  0  0
   13.2021   42.1057   -6.5578 O   0  0  0  0  0  0  0  0  0  0  0  0
   13.2124   43.0149   -6.2200 H   0  0  0  0  0  0  0  0  0  0  0  0
   10.4957   42.2176   -6.8365 C   0  0  0  0  0  0  0  0  0  0  0  0
    9.2573   41.4101   -4.8960 C   0  0  0  0  0  0  0  0  0  0  0  0
    8.4638   42.3270   -4.8999 O   0  0  0  0  0  0  0  0  0  0  0  0
   10.2830   41.2450   -5.7526 N   0  0  0  0  0  0  0  0  0  0  0  0
   10.8892   40.4756   -5.6541 H   0  0  0  0  0  0  0  0  0  0  0  0
    9.1817   40.4147   -4.0211 O   0  0  0  0  0  0  0  0  0  0  0  0
   10.2752   39.4537   -4.1630 C   0  0  0  0  0  0  0  0  0  0  0  0
   10.5205   39.2006   -1.6159 C   0  0  0  0  0  0  0  0  0  0  0  0
   10.3344   38.5053   -0.4173 C   0  0  0  0  0  0  0  0  0  0  0  0
   10.0483   38.7009   -2.8403 C   0  0  0  0  0  0  0  0  0  0  0  0
    9.6680   37.2693   -0.4290 C   0  0  0  0  0  0  0  0  0  0  0  0
    9.2077   36.7644   -1.6532 C   0  0  0  0  0  0  0  0  0  0  0  0
    9.4048   37.4706   -2.8502 C   0  0  0  0  0  0  0  0  0  0  0  0
   12.8531   39.3175   -7.7749 C   0  0  0  0  0  0  0  0  0  0  0  0
   13.7234   38.7387   -8.8615 C   0  0  0  0  0  0  0  0  0  0  0  0
   13.5740   39.2279  -10.1015 N   0  0  0  0  0  0  0  0  0  0  0  0
   14.5049   37.8342   -8.5813 O   0  0  0  0  0  0  0  0  0  0  0  0
   12.9089   39.9198  -10.3208 H   0  0  0  0  0  0  0  0  0  0  0  0
   14.4722   38.6570  -11.1024 C   0  0  0  0  0  0  0  0  0  0  0  0
   15.3792   39.7603  -11.6054 C   0  0  0  0  0  0  0  0  0  0  0  0
   16.2431   40.2025  -10.8153 O   0  0  0  0  0  0  0  0  0  0  0  0
   15.2264   40.2391  -12.7690 O   0  0  0  0  0  0  0  0  0  0  0  0
   16.3324   39.8278   -9.9611 H   0  0  0  0  0  0  0  0  0  0  0  0
   13.6946   37.8899  -12.1979 C   0  0  0  0  0  0  0  0  0  0  0  0
   15.0959   35.9086  -11.3654 C   0  0  0  0  0  0  0  0  0  0  0  0
   14.3001   36.5097  -12.5506 C   0  0  0  0  0  0  0  0  0  0  0  0
   13.1523   35.5156  -12.8645 C   0  0  0  0  0  0  0  0  0  0  0  0
   11.9634   38.2150   -7.1746 C   0  0  0  0  0  0  0  0  0  0  0  0
   10.5893   38.6305   -7.3139 O   0  0  0  0  0  0  0  0  0  0  0  0
   10.4573   39.4719   -6.8496 H   0  0  0  0  0  0  0  0  0  0  0  0
 18 19  2  0  0  0
 18 17  1  0  0  0
 19 16  1  0  0  0
 17 15  2  0  0  0
 16 13  1  0  0  0
 16 14  2  0  0  0
 15 14  1  0  0  0
 13 12  1  0  0  0
 12  8  1  0  0  0
  9  8  2  0  0  0
  8 10  1  0  0  0
 10  7  1  0  0  0
  7  3  1  0  0  0
  4  3  2  0  0  0
  5  3  1  0  0  0
  3  1  1  0  0  0
 28 26  2  0  0  0
 27 26  1  0  0  0
 26 25  1  0  0  0
 25 22  1  0  0  0
 25 30  1  0  0  0
  1 20  1  0  0  0
 22 21  1  0  0  0
 21 23  2  0  0  0
 21 20  1  0  0  0
 20 34  1  0  0  0
 30 32  1  0  0  0
 32 33  1  0  0  0
 32 31  1  0  0  0
 34 35  1  0  0  0
 22 24  1  0  0  0
  5  6  1  0  0  0
  1  2  1  0  0  0
 35 36  1  0  0  0
 10 11  1  0  0  0
 27 29  1  0  0  0
M  END
> <minimizedAffinity>
-7.64621

$$$$
5LVD_79F_E_410


 36 36  0  0  0  0  0  0  0  0999 V2000
   11.6214   40.4153   -7.9881 N   0  0  0  0  0  0  0  0  0  0  0  0
   11.6848   40.3594   -9.0046 H   0  0  0  0  0  0  0  0  0  0  0  0
   11.6763   42.0514   -7.5997 P   0  0  0  0  0  0  0  0  0  0  0  0
   12.9568   42.2767   -6.8060 O   0  0  0  0  0  0  0  0  0  0  0  0
   10.4651   42.5370   -6.8579 O   0  0  0  0  0  0  0  0  0  0  0  0
   10.5611   43.4829   -6.6661 H   0  0  0  0  0  0  0  0  0  0  0  0
   11.7906   42.8589   -9.2146 C   0  0  0  0  0  0  0  0  0  0  0  0
   13.8628   44.0814   -9.6180 C   0  0  0  0  0  0  0  0  0  0  0  0
   13.4137   45.1512   -9.2655 O   0  0  0  0  0  0  0  0  0  0  0  0
   13.1931   42.9140   -9.6574 N   0  0  0  0  0  0  0  0  0  0  0  0
   13.6406   42.0991   -9.9816 H   0  0  0  0  0  0  0  0  0  0  0  0
   15.1265   43.9370   -9.9981 O   0  0  0  0  0  0  0  0  0  0  0  0
   15.8625   42.9879   -9.1633 C   0  0  0  0  0  0  0  0  0  0  0  0
   17.1764   44.8641   -7.9949 C   0  0  0  0  0  0  0  0  0  0  0  0
   18.3152   45.6572   -7.8244 C   0  0  0  0  0  0  0  0  0  0  0  0
   17.1246   43.8439   -8.9584 C   0  0  0  0  0  0  0  0  0  0  0  0
   19.4381   45.4423   -8.6399 C   0  0  0  0  0  0  0  0  0  0  0  0
   19.3817   44.4321   -9.6104 C   0  0  0  0  0  0  0  0  0  0  0  0
   18.2306   43.6458   -9.7740 C   0  0  0  0  0  0  0  0  0  0  0  0
   12.6089   39.4622   -7.4588 C   0  0  0  0  0  0  0  0  0  0  0  0
   13.4560   38.8387   -8.5390 C   0  0  0  0  0  0  0  0  0  0  0  0
   13.4021   39.3864   -9.7623 N   0  0  0  0  0  0  0  0  0  0  0  0
   14.1318   37.8496   -8.2705 O   0  0  0  0  0  0  0  0  0  0  0  0
   12.8183   40.1501   -9.9748 H   0  0  0  0  0  0  0  0  0  0  0  0
   14.2744   38.7647  -10.7557 C   0  0  0  0  0  0  0  0  0  0  0  0
   15.1482   39.8451  -11.3574 C   0  0  0  0  0  0  0  0  0  0  0  0
   16.3550   39.5729  -11.5465 O   0  0  0  0  0  0  0  0  0  0  0  0
   14.6714   40.9918  -11.6113 O   0  0  0  0  0  0  0  0  0  0  0  0
   16.6784   38.7159  -11.3492 H   0  0  0  0  0  0  0  0  0  0  0  0
   13.4718   37.9207  -11.7739 C   0  0  0  0  0  0  0  0  0  0  0  0
   13.2998   35.6018  -12.8580 C   0  0  0  0  0  0  0  0  0  0  0  0
   13.5915   36.3925  -11.5584 C   0  0  0  0  0  0  0  0  0  0  0  0
   15.0464   36.0490  -11.1466 C   0  0  0  0  0  0  0  0  0  0  0  0
   11.8848   38.3630   -6.6622 C   0  0  0  0  0  0  0  0  0  0  0  0
   10.4764   38.4571   -6.9580 O   0  0  0  0  0  0  0  0  0  0  0  0
   10.1514   39.3360   -6.7076 H   0  0  0  0  0  0  0  0  0  0  0  0
 18 19  2  0  0  0
 18 17  1  0  0  0
 19 16  1  0  0  0
 17 15  2  0  0  0
 16 13  1  0  0  0
 16 14  2  0  0  0
 15 14  1  0  0  0
 13 12  1  0  0  0
 12  8  1  0  0  0
  9  8  2  0  0  0
  8 10  1  0  0  0
 10  7  1  0  0  0
  7  3  1  0  0  0
  4  3  2  0  0  0
  5  3  1  0  0  0
  3  1  1  0  0  0
 28 26  2  0  0  0
 27 26  1  0  0  0
 26 25  1  0  0  0
 25 22  1  0  0  0
 25 30  1  0  0  0
  1 20  1  0  0  0
 22 21  1  0  0  0
 21 23  2  0  0  0
 21 20  1  0  0  0
 20 34  1  0  0  0
 30 32  1  0  0  0
 32 33  1  0  0  0
 32 31  1  0  0  0
 34 35  1  0  0  0
 22 24  1  0  0  0
  5  6  1  0  0  0
  1  2  1  0  0  0
 35 36  1  0  0  0
 10 11  1  0  0  0
 27 29  1  0  0  0
M  END
> <minimizedAffinity>
-7.58408

$$$$
5LVD_79F_E_410


 36 36  0  0  0  0  0  0  0  0999 V2000
   11.9902   40.3942   -5.7747 N   0  0  0  0  0  0  0  0  0  0  0  0
   12.9094   40.2895   -5.3452 H   0  0  0  0  0  0  0  0  0  0  0  0
   11.4341   38.8375   -6.0881 P   0  0  0  0  0  0  0  0  0  0  0  0
   12.6619   37.9461   -6.2234 O   0  0  0  0  0  0  0  0  0  0  0  0
   10.5406   38.7461   -7.2907 O   0  0  0  0  0  0  0  0  0  0  0  0
   10.2572   37.8266   -7.4138 H   0  0  0  0  0  0  0  0  0  0  0  0
   10.5155   38.4141   -4.5881 C   0  0  0  0  0  0  0  0  0  0  0  0
    8.6066   39.2582   -3.3251 C   0  0  0  0  0  0  0  0  0  0  0  0
    8.4649   38.2441   -2.6756 O   0  0  0  0  0  0  0  0  0  0  0  0
    9.5336   39.4661   -4.2793 N   0  0  0  0  0  0  0  0  0  0  0  0
    9.5545   40.3198   -4.7692 H   0  0  0  0  0  0  0  0  0  0  0  0
    7.8425   40.3278   -3.1399 O   0  0  0  0  0  0  0  0  0  0  0  0
    8.5719   41.4466   -2.5437 C   0  0  0  0  0  0  0  0  0  0  0  0
    7.5119   43.2251   -1.0189 C   0  0  0  0  0  0  0  0  0  0  0  0
    6.4099   43.8645   -0.4429 C   0  0  0  0  0  0  0  0  0  0  0  0
    7.3590   42.1670   -1.9293 C   0  0  0  0  0  0  0  0  0  0  0  0
    5.1124   43.4380   -0.7692 C   0  0  0  0  0  0  0  0  0  0  0  0
    4.9600   42.3732   -1.6684 C   0  0  0  0  0  0  0  0  0  0  0  0
    6.0750   41.7371   -2.2363 C   0  0  0  0  0  0  0  0  0  0  0  0
   12.1454   41.3894   -6.8468 C   0  0  0  0  0  0  0  0  0  0  0  0
   12.2546   40.7629   -8.2138 C   0  0  0  0  0  0  0  0  0  0  0  0
   13.3480   40.0309   -8.4744 N   0  0  0  0  0  0  0  0  0  0  0  0
   11.3658   40.9665   -9.0359 O   0  0  0  0  0  0  0  0  0  0  0  0
   14.0759   39.9161   -7.8215 H   0  0  0  0  0  0  0  0  0  0  0  0
   13.3779   39.4167   -9.7996 C   0  0  0  0  0  0  0  0  0  0  0  0
   13.5671   37.9247   -9.6232 C   0  0  0  0  0  0  0  0  0  0  0  0
   14.2916   37.5425   -8.6772 O   0  0  0  0  0  0  0  0  0  0  0  0
   13.0427   37.1083  -10.4388 O   0  0  0  0  0  0  0  0  0  0  0  0
   14.6655   38.1701   -8.0903 H   0  0  0  0  0  0  0  0  0  0  0  0
   14.4048   40.1077  -10.7276 C   0  0  0  0  0  0  0  0  0  0  0  0
   16.0634   41.8695   -9.8745 C   0  0  0  0  0  0  0  0  0  0  0  0
   14.6338   41.6051  -10.4090 C   0  0  0  0  0  0  0  0  0  0  0  0
   14.4875   42.4310  -11.7131 C   0  0  0  0  0  0  0  0  0  0  0  0
   13.3865   42.2547   -6.5675 C   0  0  0  0  0  0  0  0  0  0  0  0
   13.1573   43.5565   -7.1445 O   0  0  0  0  0  0  0  0  0  0  0  0
   13.0074   43.4655   -8.0985 H   0  0  0  0  0  0  0  0  0  0  0  0
 18 19  2  0  0  0
 18 17  1  0  0  0
 19 16  1  0  0  0
 17 15  2  0  0  0
 16 13  1  0  0  0
 16 14  2  0  0  0
 15 14  1  0  0  0
 13 12  1  0  0  0
 12  8  1  0  0  0
  9  8  2  0  0  0
  8 10  1  0  0  0
 10  7  1  0  0  0
  7  3  1  0  0  0
  4  3  2  0  0  0
  5  3  1  0  0  0
  3  1  1  0  0  0
 28 26  2  0  0  0
 27 26  1  0  0  0
 26 25  1  0  0  0
 25 22  1  0  0  0
 25 30  1  0  0  0
  1 20  1  0  0  0
 22 21  1  0  0  0
 21 23  2  0  0  0
 21 20  1  0  0  0
 20 34  1  0  0  0
 30 32  1  0  0  0
 32 33  1  0  0  0
 32 31  1  0  0  0
 34 35  1  0  0  0
 22 24  1  0  0  0
  5  6  1  0  0  0
  1  2  1  0  0  0
 35 36  1  0  0  0
 10 11  1  0  0  0
 27 29  1  0  0  0
M  END
> <minimizedAffinity>
-7.44306

$$$$
5LVD_79F_E_410


 36 36  0  0  0  0  0  0  0  0999 V2000
   13.5226   37.6850  -12.5594 N   0  0  0  0  0  0  0  0  0  0  0  0
   12.9962   37.2669  -13.3265 H   0  0  0  0  0  0  0  0  0  0  0  0
   15.0466   38.0475  -13.1734 P   0  0  0  0  0  0  0  0  0  0  0  0
   15.2867   37.1086  -14.3486 O   0  0  0  0  0  0  0  0  0  0  0  0
   16.1447   37.9607  -12.1539 O   0  0  0  0  0  0  0  0  0  0  0  0
   16.9920   38.1805  -12.5718 H   0  0  0  0  0  0  0  0  0  0  0  0
   14.8649   39.7496  -13.7590 C   0  0  0  0  0  0  0  0  0  0  0  0
   16.4398   41.3286  -12.7702 C   0  0  0  0  0  0  0  0  0  0  0  0
   17.2776   41.1833  -13.6347 O   0  0  0  0  0  0  0  0  0  0  0  0
   15.2535   40.6956  -12.7006 N   0  0  0  0  0  0  0  0  0  0  0  0
   14.6474   40.8652  -11.9436 H   0  0  0  0  0  0  0  0  0  0  0  0
   16.6013   42.1831  -11.7672 O   0  0  0  0  0  0  0  0  0  0  0  0
   16.3487   41.5752  -10.4611 C   0  0  0  0  0  0  0  0  0  0  0  0
   15.8762   43.2685   -8.5845 C   0  0  0  0  0  0  0  0  0  0  0  0
   16.2044   44.3910   -7.8183 C   0  0  0  0  0  0  0  0  0  0  0  0
   16.7217   42.7953   -9.6009 C   0  0  0  0  0  0  0  0  0  0  0  0
   17.4040   45.0761   -8.0708 C   0  0  0  0  0  0  0  0  0  0  0  0
   18.2421   44.6111   -9.0940 C   0  0  0  0  0  0  0  0  0  0  0  0
   17.8987   43.4853   -9.8587 C   0  0  0  0  0  0  0  0  0  0  0  0
   13.3481   36.7927  -11.4030 C   0  0  0  0  0  0  0  0  0  0  0  0
   13.7107   37.4521  -10.0966 C   0  0  0  0  0  0  0  0  0  0  0  0
   12.9001   38.4211   -9.6455 N   0  0  0  0  0  0  0  0  0  0  0  0
   14.7350   37.1034   -9.5166 O   0  0  0  0  0  0  0  0  0  0  0  0
   12.1080   38.7238  -10.1457 H   0  0  0  0  0  0  0  0  0  0  0  0
   13.2807   38.9935   -8.3564 C   0  0  0  0  0  0  0  0  0  0  0  0
   12.3216   38.4713   -7.3074 C   0  0  0  0  0  0  0  0  0  0  0  0
   12.8123   38.0428   -6.2389 O   0  0  0  0  0  0  0  0  0  0  0  0
   11.0755   38.4331   -7.5363 O   0  0  0  0  0  0  0  0  0  0  0  0
   13.7378   38.0846   -6.0984 H   0  0  0  0  0  0  0  0  0  0  0  0
   13.4060   40.5337   -8.4289 C   0  0  0  0  0  0  0  0  0  0  0  0
   11.4401   42.1456   -8.0832 C   0  0  0  0  0  0  0  0  0  0  0  0
   12.1916   41.2342   -9.0851 C   0  0  0  0  0  0  0  0  0  0  0  0
   12.6912   42.1514  -10.2312 C   0  0  0  0  0  0  0  0  0  0  0  0
   14.1958   35.5242  -11.6015 C   0  0  0  0  0  0  0  0  0  0  0  0
   13.3934   34.5634  -12.3179 O   0  0  0  0  0  0  0  0  0  0  0  0
   12.5921   34.3669  -11.8078 H   0  0  0  0  0  0  0  0  0  0  0  0
 18 19  2  0  0  0
 18 17  1  0  0  0
 19 16  1  0  0  0
 17 15  2  0  0  0
 16 13  1  0  0  0
 16 14  2  0  0  0
 15 14  1  0  0  0
 13 12  1  0  0  0
 12  8  1  0  0  0
  9  8  2  0  0  0
  8 10  1  0  0  0
 10  7  1  0  0  0
  7  3  1  0  0  0
  4  3  2  0  0  0
  5  3  1  0  0  0
  3  1  1  0  0  0
 28 26  2  0  0  0
 27 26  1  0  0  0
 26 25  1  0  0  0
 25 22  1  0  0  0
 25 30  1  0  0  0
  1 20  1  0  0  0
 22 21  1  0  0  0
 21 23  2  0  0  0
 21 20  1  0  0  0
 20 34  1  0  0  0
 30 32  1  0  0  0
 32 33  1  0  0  0
 32 31  1  0  0  0
 34 35  1  0  0  0
 22 24  1  0  0  0
  5  6  1  0  0  0
  1  2  1  0  0  0
 35 36  1  0  0  0
 10 11  1  0  0  0
 27 29  1  0  0  0
M  END
> <minimizedAffinity>
-7.35956

$$$$
5LVD_79F_E_410


 36 36  0  0  0  0  0  0  0  0999 V2000
   13.4075   41.7137   -7.9639 N   0  0  0  0  0  0  0  0  0  0  0  0
   13.9520   40.9827   -7.5059 H   0  0  0  0  0  0  0  0  0  0  0  0
   11.7943   41.3969   -7.6060 P   0  0  0  0  0  0  0  0  0  0  0  0
   11.0603   41.2745   -8.9351 O   0  0  0  0  0  0  0  0  0  0  0  0
   11.1622   42.4215   -6.7095 O   0  0  0  0  0  0  0  0  0  0  0  0
   10.2375   42.1798   -6.5440 H   0  0  0  0  0  0  0  0  0  0  0  0
   11.8599   39.7902   -6.7769 C   0  0  0  0  0  0  0  0  0  0  0  0
   10.5716   38.6088   -5.0752 C   0  0  0  0  0  0  0  0  0  0  0  0
   11.4886   37.8883   -4.7431 O   0  0  0  0  0  0  0  0  0  0  0  0
   10.6091   39.5468   -6.0404 N   0  0  0  0  0  0  0  0  0  0  0  0
    9.8018   40.0686   -6.2529 H   0  0  0  0  0  0  0  0  0  0  0  0
    9.3861   38.5625   -4.4796 O   0  0  0  0  0  0  0  0  0  0  0  0
    9.4690   38.1116   -3.0906 C   0  0  0  0  0  0  0  0  0  0  0  0
   10.0659   39.8756   -1.3176 C   0  0  0  0  0  0  0  0  0  0  0  0
    9.8926   41.1177   -0.6996 C   0  0  0  0  0  0  0  0  0  0  0  0
    9.2959   39.4886   -2.4262 C   0  0  0  0  0  0  0  0  0  0  0  0
    8.9187   42.0045   -1.1866 C   0  0  0  0  0  0  0  0  0  0  0  0
    8.1413   41.6130   -2.2856 C   0  0  0  0  0  0  0  0  0  0  0  0
    8.3226   40.3612   -2.8942 C   0  0  0  0  0  0  0  0  0  0  0  0
   13.8918   41.7827   -9.3512 C   0  0  0  0  0  0  0  0  0  0  0  0
   14.3603   40.4482   -9.8732 C   0  0  0  0  0  0  0  0  0  0  0  0
   14.4097   40.2860  -11.2038 N   0  0  0  0  0  0  0  0  0  0  0  0
   14.6476   39.5623   -9.0732 O   0  0  0  0  0  0  0  0  0  0  0  0
   14.1300   40.9894  -11.8333 H   0  0  0  0  0  0  0  0  0  0  0  0
   14.9095   38.9874  -11.6490 C   0  0  0  0  0  0  0  0  0  0  0  0
   16.1662   39.2195  -12.4612 C   0  0  0  0  0  0  0  0  0  0  0  0
   16.5930   38.2656  -13.1496 O   0  0  0  0  0  0  0  0  0  0  0  0
   16.7772   40.3284  -12.3993 O   0  0  0  0  0  0  0  0  0  0  0  0
   16.1192   37.4577  -13.1755 H   0  0  0  0  0  0  0  0  0  0  0  0
   13.8086   38.1624  -12.3565 C   0  0  0  0  0  0  0  0  0  0  0  0
   13.2839   35.6629  -12.6008 C   0  0  0  0  0  0  0  0  0  0  0  0
   13.4317   36.8535  -11.6210 C   0  0  0  0  0  0  0  0  0  0  0  0
   14.5680   36.4787  -10.6348 C   0  0  0  0  0  0  0  0  0  0  0  0
   15.0324   42.8109   -9.4455 C   0  0  0  0  0  0  0  0  0  0  0  0
   16.2319   42.1073   -9.8284 O   0  0  0  0  0  0  0  0  0  0  0  0
   16.4334   41.4278   -9.1662 H   0  0  0  0  0  0  0  0  0  0  0  0
 18 19  2  0  0  0
 18 17  1  0  0  0
 19 16  1  0  0  0
 17 15  2  0  0  0
 16 13  1  0  0  0
 16 14  2  0  0  0
 15 14  1  0  0  0
 13 12  1  0  0  0
 12  8  1  0  0  0
  9  8  2  0  0  0
  8 10  1  0  0  0
 10  7  1  0  0  0
  7  3  1  0  0  0
  4  3  2  0  0  0
  5  3  1  0  0  0
  3  1  1  0  0  0
 28 26  2  0  0  0
 27 26  1  0  0  0
 26 25  1  0  0  0
 25 22  1  0  0  0
 25 30  1  0  0  0
  1 20  1  0  0  0
 22 21  1  0  0  0
 21 23  2  0  0  0
 21 20  1  0  0  0
 20 34  1  0  0  0
 30 32  1  0  0  0
 32 33  1  0  0  0
 32 31  1  0  0  0
 34 35  1  0  0  0
 22 24  1  0  0  0
  5  6  1  0  0  0
  1  2  1  0  0  0
 35 36  1  0  0  0
 10 11  1  0  0  0
 27 29  1  0  0  0
M  END
> <minimizedAffinity>
-7.34617

$$$$
5LVD_79F_E_410


 36 36  0  0  0  0  0  0  0  0999 V2000
   11.2991   41.2021   -8.3628 N   0  0  0  0  0  0  0  0  0  0  0  0
   10.3663   40.8420   -8.5640 H   0  0  0  0  0  0  0  0  0  0  0  0
   11.5613   40.9461   -6.7207 P   0  0  0  0  0  0  0  0  0  0  0  0
   10.3932   41.5840   -5.9797 O   0  0  0  0  0  0  0  0  0  0  0  0
   12.8833   41.4627   -6.2324 O   0  0  0  0  0  0  0  0  0  0  0  0
   12.9697   41.2836   -5.2830 H   0  0  0  0  0  0  0  0  0  0  0  0
   11.4931   39.1449   -6.5644 C   0  0  0  0  0  0  0  0  0  0  0  0
   12.8147   38.5607   -8.5299 C   0  0  0  0  0  0  0  0  0  0  0  0
   13.8210   39.1111   -8.1364 O   0  0  0  0  0  0  0  0  0  0  0  0
   11.6326   38.5142   -7.8868 N   0  0  0  0  0  0  0  0  0  0  0  0
   10.8635   38.0595   -8.3002 H   0  0  0  0  0  0  0  0  0  0  0  0
   12.7767   37.8958   -9.6782 O   0  0  0  0  0  0  0  0  0  0  0  0
   13.9926   37.1204   -9.9225 C   0  0  0  0  0  0  0  0  0  0  0  0
   13.5649   35.9207  -12.1562 C   0  0  0  0  0  0  0  0  0  0  0  0
   13.5053   35.8887  -13.5527 C   0  0  0  0  0  0  0  0  0  0  0  0
   13.9022   37.0916  -11.4583 C   0  0  0  0  0  0  0  0  0  0  0  0
   13.7985   37.0499  -14.2860 C   0  0  0  0  0  0  0  0  0  0  0  0
   14.1475   38.2155  -13.5896 C   0  0  0  0  0  0  0  0  0  0  0  0
   14.2078   38.2330  -12.1873 C   0  0  0  0  0  0  0  0  0  0  0  0
   11.3598   42.5477   -8.9540 C   0  0  0  0  0  0  0  0  0  0  0  0
   12.7331   42.8986   -9.4675 C   0  0  0  0  0  0  0  0  0  0  0  0
   13.7460   42.0848   -9.1341 N   0  0  0  0  0  0  0  0  0  0  0  0
   12.8770   43.9169  -10.1381 O   0  0  0  0  0  0  0  0  0  0  0  0
   13.6239   41.2979   -8.5552 H   0  0  0  0  0  0  0  0  0  0  0  0
   15.0439   42.4536   -9.6941 C   0  0  0  0  0  0  0  0  0  0  0  0
   15.5988   41.2515  -10.4289 C   0  0  0  0  0  0  0  0  0  0  0  0
   15.8642   40.2331   -9.7518 O   0  0  0  0  0  0  0  0  0  0  0  0
   15.8238   41.3061  -11.6751 O   0  0  0  0  0  0  0  0  0  0  0  0
   15.6864   40.2226   -8.8319 H   0  0  0  0  0  0  0  0  0  0  0  0
   15.9782   43.0615   -8.6213 C   0  0  0  0  0  0  0  0  0  0  0  0
   16.5357   44.8291  -10.3952 C   0  0  0  0  0  0  0  0  0  0  0  0
   17.0625   44.0067   -9.1930 C   0  0  0  0  0  0  0  0  0  0  0  0
   17.4733   45.0288   -8.1017 C   0  0  0  0  0  0  0  0  0  0  0  0
   10.9099   43.5864   -7.9119 C   0  0  0  0  0  0  0  0  0  0  0  0
   12.0923   44.1316   -7.2916 O   0  0  0  0  0  0  0  0  0  0  0  0
   12.5960   43.4169   -6.8717 H   0  0  0  0  0  0  0  0  0  0  0  0
 18 19  2  0  0  0
 18 17  1  0  0  0
 19 16  1  0  0  0
 17 15  2  0  0  0
 16 13  1  0  0  0
 16 14  2  0  0  0
 15 14  1  0  0  0
 13 12  1  0  0  0
 12  8  1  0  0  0
  9  8  2  0  0  0
  8 10  1  0  0  0
 10  7  1  0  0  0
  7  3  1  0  0  0
  4  3  2  0  0  0
  5  3  1  0  0  0
  3  1  1  0  0  0
 28 26  2  0  0  0
 27 26  1  0  0  0
 26 25  1  0  0  0
 25 22  1  0  0  0
 25 30  1  0  0  0
  1 20  1  0  0  0
 22 21  1  0  0  0
 21 23  2  0  0  0
 21 20  1  0  0  0
 20 34  1  0  0  0
 30 32  1  0  0  0
 32 33  1  0  0  0
 32 31  1  0  0  0
 34 35  1  0  0  0
 22 24  1  0  0  0
  5  6  1  0  0  0
  1  2  1  0  0  0
 35 36  1  0  0  0
 10 11  1  0  0  0
 27 29  1  0  0  0
M  END
> <minimizedAffinity>
-7.28412

$$$$
