4FP1_BFM_A_402


 15 14  0  0  0  0  0  0  0  0999 V2000
  -21.7220  -21.4581  -24.8794 O   0  0  0  0  0  0  0  0  0  0  0  0
  -22.4237  -21.9994  -23.7582 C   0  0  0  0  0  0  0  0  0  0  0  0
  -21.5013  -20.5297  -24.7052 H   0  0  0  0  0  0  0  0  0  0  0  0
  -21.7223  -21.7086  -22.3942 C   0  0  0  0  0  0  0  0  0  0  0  0
  -20.8445  -20.8327  -22.4164 O   0  0  0  0  0  0  0  0  0  0  0  0
  -22.1603  -22.4179  -21.5339 O   0  0  0  0  0  0  0  0  0  0  0  0
  -20.6504  -20.3842  -23.2159 H   0  0  0  0  0  0  0  0  0  0  0  0
  -23.7095  -21.3579  -23.7793 C   0  0  0  0  0  0  0  0  0  0  0  0
  -24.4965  -21.7658  -22.7287 F   0  0  0  0  0  0  0  0  0  0  0  0
  -24.3725  -21.6425  -24.9294 F   0  0  0  0  0  0  0  0  0  0  0  0
  -23.5283  -20.0526  -23.6745 F   0  0  0  0  0  0  0  0  0  0  0  0
  -22.8495  -23.5190  -23.9054 C   0  0  0  0  0  0  0  0  0  0  0  0
  -23.9893  -23.8032  -23.3851 F   0  0  0  0  0  0  0  0  0  0  0  0
  -22.0671  -24.4128  -23.2937 F   0  0  0  0  0  0  0  0  0  0  0  0
  -22.8317  -23.8624  -25.1819 F   0  0  0  0  0  0  0  0  0  0  0  0
  1  2  1  0  0  0
 10  8  1  0  0  0
 11  8  1  0  0  0
  8  2  1  0  0  0
  8  9  1  0  0  0
  2  4  1  0  0  0
  2 12  1  0  0  0
  6  4  2  0  0  0
 13 12  1  0  0  0
  4  5  1  0  0  0
 12 14  1  0  0  0
 12 15  1  0  0  0
  1  3  1  0  0  0
  5  7  1  0  0  0
M  END
> <minimizedAffinity>
-6.89706

$$$$
4FP1_BFM_A_402


 15 14  0  0  0  0  0  0  0  0999 V2000
  -23.1752  -20.2536  -23.4831 O   0  0  0  0  0  0  0  0  0  0  0  0
  -22.8398  -21.6118  -23.1910 C   0  0  0  0  0  0  0  0  0  0  0  0
  -22.9589  -19.6957  -22.7197 H   0  0  0  0  0  0  0  0  0  0  0  0
  -21.4009  -21.7790  -22.6091 C   0  0  0  0  0  0  0  0  0  0  0  0
  -20.8044  -20.7259  -22.3378 O   0  0  0  0  0  0  0  0  0  0  0  0
  -21.1065  -22.9378  -22.5357 O   0  0  0  0  0  0  0  0  0  0  0  0
  -21.2263  -19.9003  -22.4731 H   0  0  0  0  0  0  0  0  0  0  0  0
  -23.8025  -22.0296  -22.2092 C   0  0  0  0  0  0  0  0  0  0  0  0
  -23.8118  -23.3958  -22.0582 F   0  0  0  0  0  0  0  0  0  0  0  0
  -25.0543  -21.6429  -22.5651 F   0  0  0  0  0  0  0  0  0  0  0  0
  -23.4771  -21.4899  -21.0471 F   0  0  0  0  0  0  0  0  0  0  0  0
  -23.1419  -22.6415  -24.3575 C   0  0  0  0  0  0  0  0  0  0  0  0
  -24.3799  -22.7152  -24.6924 F   0  0  0  0  0  0  0  0  0  0  0  0
  -22.8785  -23.9247  -24.0945 F   0  0  0  0  0  0  0  0  0  0  0  0
  -22.4002  -22.3469  -25.4115 F   0  0  0  0  0  0  0  0  0  0  0  0
  1  2  1  0  0  0
 10  8  1  0  0  0
 11  8  1  0  0  0
  8  2  1  0  0  0
  8  9  1  0  0  0
  2  4  1  0  0  0
  2 12  1  0  0  0
  6  4  2  0  0  0
 13 12  1  0  0  0
  4  5  1  0  0  0
 12 14  1  0  0  0
 12 15  1  0  0  0
  1  3  1  0  0  0
  5  7  1  0  0  0
M  END
> <minimizedAffinity>
-6.88169

$$$$
4FP1_BFM_A_402


 15 14  0  0  0  0  0  0  0  0999 V2000
  -22.4064  -23.1309  -24.3661 O   0  0  0  0  0  0  0  0  0  0  0  0
  -22.8056  -22.2712  -23.2964 C   0  0  0  0  0  0  0  0  0  0  0  0
  -21.8072  -22.6517  -24.9596 H   0  0  0  0  0  0  0  0  0  0  0  0
  -21.6066  -21.5417  -22.6129 C   0  0  0  0  0  0  0  0  0  0  0  0
  -20.4797  -21.8566  -23.0244 O   0  0  0  0  0  0  0  0  0  0  0  0
  -21.9968  -20.7865  -21.7688 O   0  0  0  0  0  0  0  0  0  0  0  0
  -20.3914  -22.4858  -23.7131 H   0  0  0  0  0  0  0  0  0  0  0  0
  -23.6714  -21.2986  -23.9044 C   0  0  0  0  0  0  0  0  0  0  0  0
  -24.1954  -20.4342  -22.9729 F   0  0  0  0  0  0  0  0  0  0  0  0
  -24.7081  -21.9040  -24.5383 F   0  0  0  0  0  0  0  0  0  0  0  0
  -22.9649  -20.5914  -24.7696 F   0  0  0  0  0  0  0  0  0  0  0  0
  -23.7920  -22.9271  -22.2433 C   0  0  0  0  0  0  0  0  0  0  0  0
  -24.5981  -23.7950  -22.7407 F   0  0  0  0  0  0  0  0  0  0  0  0
  -24.6548  -22.0988  -21.6478 F   0  0  0  0  0  0  0  0  0  0  0  0
  -23.0940  -23.4642  -21.2573 F   0  0  0  0  0  0  0  0  0  0  0  0
  1  2  1  0  0  0
 10  8  1  0  0  0
 11  8  1  0  0  0
  8  2  1  0  0  0
  8  9  1  0  0  0
  2  4  1  0  0  0
  2 12  1  0  0  0
  6  4  2  0  0  0
 13 12  1  0  0  0
  4  5  1  0  0  0
 12 14  1  0  0  0
 12 15  1  0  0  0
  1  3  1  0  0  0
  5  7  1  0  0  0
M  END
> <minimizedAffinity>
-6.69962

$$$$
4FP1_BFM_A_402


 15 14  0  0  0  0  0  0  0  0999 V2000
  -22.6101  -23.3036  -24.6138 O   0  0  0  0  0  0  0  0  0  0  0  0
  -23.0959  -22.7145  -23.4057 C   0  0  0  0  0  0  0  0  0  0  0  0
  -22.2489  -22.6109  -25.1888 H   0  0  0  0  0  0  0  0  0  0  0  0
  -22.0731  -21.7401  -22.7414 C   0  0  0  0  0  0  0  0  0  0  0  0
  -22.5081  -21.0663  -21.7952 O   0  0  0  0  0  0  0  0  0  0  0  0
  -21.0101  -21.8046  -23.2899 O   0  0  0  0  0  0  0  0  0  0  0  0
  -23.3958  -21.1714  -21.5144 H   0  0  0  0  0  0  0  0  0  0  0  0
  -24.2689  -21.9814  -23.7951 C   0  0  0  0  0  0  0  0  0  0  0  0
  -24.9201  -21.4519  -22.7065 F   0  0  0  0  0  0  0  0  0  0  0  0
  -25.1445  -22.7845  -24.4521 F   0  0  0  0  0  0  0  0  0  0  0  0
  -23.8983  -20.9827  -24.5780 F   0  0  0  0  0  0  0  0  0  0  0  0
  -23.7180  -23.7364  -22.3660 C   0  0  0  0  0  0  0  0  0  0  0  0
  -24.0297  -24.8780  -22.8660 F   0  0  0  0  0  0  0  0  0  0  0  0
  -24.8814  -23.3808  -21.8134 F   0  0  0  0  0  0  0  0  0  0  0  0
  -22.8880  -23.8943  -21.3492 F   0  0  0  0  0  0  0  0  0  0  0  0
  1  2  1  0  0  0
 10  8  1  0  0  0
 11  8  1  0  0  0
  8  2  1  0  0  0
  8  9  1  0  0  0
  2  4  1  0  0  0
  2 12  1  0  0  0
  6  4  2  0  0  0
 13 12  1  0  0  0
  4  5  1  0  0  0
 12 14  1  0  0  0
 12 15  1  0  0  0
  1  3  1  0  0  0
  5  7  1  0  0  0
M  END
> <minimizedAffinity>
-6.69735

$$$$
4FP1_BFM_A_402


 15 14  0  0  0  0  0  0  0  0999 V2000
  -22.4545  -23.5459  -23.7412 O   0  0  0  0  0  0  0  0  0  0  0  0
  -22.4787  -22.1987  -23.2647 C   0  0  0  0  0  0  0  0  0  0  0  0
  -21.6393  -23.6961  -24.2450 H   0  0  0  0  0  0  0  0  0  0  0  0
  -21.1525  -21.7708  -22.5609 C   0  0  0  0  0  0  0  0  0  0  0  0
  -20.9641  -20.5487  -22.4653 O   0  0  0  0  0  0  0  0  0  0  0  0
  -20.5171  -22.7328  -22.2357 O   0  0  0  0  0  0  0  0  0  0  0  0
  -21.6049  -19.9488  -22.7931 H   0  0  0  0  0  0  0  0  0  0  0  0
  -22.6772  -21.3930  -24.4379 C   0  0  0  0  0  0  0  0  0  0  0  0
  -21.6384  -21.5292  -25.3278 F   0  0  0  0  0  0  0  0  0  0  0  0
  -22.7738  -20.0789  -24.1108 F   0  0  0  0  0  0  0  0  0  0  0  0
  -23.7864  -21.7912  -25.0371 F   0  0  0  0  0  0  0  0  0  0  0  0
  -23.7622  -21.8109  -22.4195 C   0  0  0  0  0  0  0  0  0  0  0  0
  -24.7927  -22.5412  -22.6546 F   0  0  0  0  0  0  0  0  0  0  0  0
  -24.2658  -20.5926  -22.6371 F   0  0  0  0  0  0  0  0  0  0  0  0
  -23.4684  -21.8367  -21.1307 F   0  0  0  0  0  0  0  0  0  0  0  0
  1  2  1  0  0  0
 10  8  1  0  0  0
 11  8  1  0  0  0
  8  2  1  0  0  0
  8  9  1  0  0  0
  2  4  1  0  0  0
  2 12  1  0  0  0
  6  4  2  0  0  0
 13 12  1  0  0  0
  4  5  1  0  0  0
 12 14  1  0  0  0
 12 15  1  0  0  0
  1  3  1  0  0  0
  5  7  1  0  0  0
M  END
> <minimizedAffinity>
-6.66536

$$$$
4FP1_BFM_A_402


 15 14  0  0  0  0  0  0  0  0999 V2000
  -24.2092  -21.5318  -21.8896 O   0  0  0  0  0  0  0  0  0  0  0  0
  -23.3418  -22.1582  -22.8371 C   0  0  0  0  0  0  0  0  0  0  0  0
  -23.7446  -21.4295  -21.0442 H   0  0  0  0  0  0  0  0  0  0  0  0
  -21.9295  -21.4971  -22.9098 C   0  0  0  0  0  0  0  0  0  0  0  0
  -21.2601  -21.7671  -23.9184 O   0  0  0  0  0  0  0  0  0  0  0  0
  -21.7244  -20.8300  -21.9362 O   0  0  0  0  0  0  0  0  0  0  0  0
  -21.6164  -22.3249  -24.5816 H   0  0  0  0  0  0  0  0  0  0  0  0
  -23.2102  -23.5145  -22.3807 C   0  0  0  0  0  0  0  0  0  0  0  0
  -22.3363  -24.2302  -23.1641 F   0  0  0  0  0  0  0  0  0  0  0  0
  -24.4088  -24.1517  -22.4076 F   0  0  0  0  0  0  0  0  0  0  0  0
  -22.7363  -23.4974  -21.1467 F   0  0  0  0  0  0  0  0  0  0  0  0
  -23.9738  -22.3896  -24.2721 C   0  0  0  0  0  0  0  0  0  0  0  0
  -25.1802  -22.8312  -24.2553 F   0  0  0  0  0  0  0  0  0  0  0  0
  -23.3818  -23.3125  -25.0356 F   0  0  0  0  0  0  0  0  0  0  0  0
  -23.9070  -21.2697  -24.9714 F   0  0  0  0  0  0  0  0  0  0  0  0
  1  2  1  0  0  0
 10  8  1  0  0  0
 11  8  1  0  0  0
  8  2  1  0  0  0
  8  9  1  0  0  0
  2  4  1  0  0  0
  2 12  1  0  0  0
  6  4  2  0  0  0
 13 12  1  0  0  0
  4  5  1  0  0  0
 12 14  1  0  0  0
 12 15  1  0  0  0
  1  3  1  0  0  0
  5  7  1  0  0  0
M  END
> <minimizedAffinity>
-6.63608

$$$$
4FP1_BFM_A_402


 15 14  0  0  0  0  0  0  0  0999 V2000
  -22.4307  -22.7931  -21.1904 O   0  0  0  0  0  0  0  0  0  0  0  0
  -22.7566  -22.3924  -22.5230 C   0  0  0  0  0  0  0  0  0  0  0  0
  -21.5381  -23.1726  -21.1760 H   0  0  0  0  0  0  0  0  0  0  0  0
  -21.6397  -21.5364  -23.1989 C   0  0  0  0  0  0  0  0  0  0  0  0
  -21.6699  -21.4939  -24.4380 O   0  0  0  0  0  0  0  0  0  0  0  0
  -20.9123  -21.0628  -22.3733 O   0  0  0  0  0  0  0  0  0  0  0  0
  -22.3431  -21.9475  -24.9061 H   0  0  0  0  0  0  0  0  0  0  0  0
  -22.9217  -23.6207  -23.2506 C   0  0  0  0  0  0  0  0  0  0  0  0
  -23.1823  -23.3906  -24.5805 F   0  0  0  0  0  0  0  0  0  0  0  0
  -23.9517  -24.3466  -22.7454 F   0  0  0  0  0  0  0  0  0  0  0  0
  -21.7982  -24.3123  -23.1658 F   0  0  0  0  0  0  0  0  0  0  0  0
  -24.1957  -21.7511  -22.6959 C   0  0  0  0  0  0  0  0  0  0  0  0
  -25.0452  -22.1051  -21.7996 F   0  0  0  0  0  0  0  0  0  0  0  0
  -24.8576  -22.0789  -23.8093 F   0  0  0  0  0  0  0  0  0  0  0  0
  -24.0921  -20.4337  -22.7322 F   0  0  0  0  0  0  0  0  0  0  0  0
  1  2  1  0  0  0
 10  8  1  0  0  0
 11  8  1  0  0  0
  8  2  1  0  0  0
  8  9  1  0  0  0
  2  4  1  0  0  0
  2 12  1  0  0  0
  6  4  2  0  0  0
 13 12  1  0  0  0
  4  5  1  0  0  0
 12 14  1  0  0  0
 12 15  1  0  0  0
  1  3  1  0  0  0
  5  7  1  0  0  0
M  END
> <minimizedAffinity>
-6.63233

$$$$
4FP1_BFM_A_402


 15 14  0  0  0  0  0  0  0  0999 V2000
  -22.6213  -23.0059  -24.3857 O   0  0  0  0  0  0  0  0  0  0  0  0
  -22.3572  -22.5941  -23.0428 C   0  0  0  0  0  0  0  0  0  0  0  0
  -22.8652  -22.2331  -24.9188 H   0  0  0  0  0  0  0  0  0  0  0  0
  -21.3923  -21.3702  -22.9528 C   0  0  0  0  0  0  0  0  0  0  0  0
  -20.4900  -21.4574  -22.1063 O   0  0  0  0  0  0  0  0  0  0  0  0
  -21.7110  -20.5221  -23.7364 O   0  0  0  0  0  0  0  0  0  0  0  0
  -20.4134  -22.2296  -21.5810 H   0  0  0  0  0  0  0  0  0  0  0  0
  -23.6399  -22.2303  -22.5065 C   0  0  0  0  0  0  0  0  0  0  0  0
  -24.3840  -21.5148  -23.4142 F   0  0  0  0  0  0  0  0  0  0  0  0
  -23.4989  -21.4675  -21.3923 F   0  0  0  0  0  0  0  0  0  0  0  0
  -24.3013  -23.3371  -22.2146 F   0  0  0  0  0  0  0  0  0  0  0  0
  -21.9441  -23.7617  -22.0538 C   0  0  0  0  0  0  0  0  0  0  0  0
  -22.1762  -23.5142  -20.8147 F   0  0  0  0  0  0  0  0  0  0  0  0
  -20.6433  -24.0633  -22.0078 F   0  0  0  0  0  0  0  0  0  0  0  0
  -22.5447  -24.8824  -22.4161 F   0  0  0  0  0  0  0  0  0  0  0  0
  1  2  1  0  0  0
 10  8  1  0  0  0
 11  8  1  0  0  0
  8  2  1  0  0  0
  8  9  1  0  0  0
  2  4  1  0  0  0
  2 12  1  0  0  0
  6  4  2  0  0  0
 13 12  1  0  0  0
  4  5  1  0  0  0
 12 14  1  0  0  0
 12 15  1  0  0  0
  1  3  1  0  0  0
  5  7  1  0  0  0
M  END
> <minimizedAffinity>
-6.50806

$$$$
4FP1_BFM_A_402


 15 14  0  0  0  0  0  0  0  0999 V2000
  -22.9406  -20.9037  -21.8012 O   0  0  0  0  0  0  0  0  0  0  0  0
  -22.9169  -21.9038  -22.8220 C   0  0  0  0  0  0  0  0  0  0  0  0
  -22.0692  -20.4818  -21.7417 H   0  0  0  0  0  0  0  0  0  0  0  0
  -22.3111  -21.3953  -24.1678 C   0  0  0  0  0  0  0  0  0  0  0  0
  -22.3443  -22.2000  -25.1110 O   0  0  0  0  0  0  0  0  0  0  0  0
  -21.8914  -20.2798  -24.0478 O   0  0  0  0  0  0  0  0  0  0  0  0
  -22.7289  -23.0461  -24.9917 H   0  0  0  0  0  0  0  0  0  0  0  0
  -22.0906  -22.9543  -22.2940 C   0  0  0  0  0  0  0  0  0  0  0  0
  -20.7903  -22.5408  -22.1274 F   0  0  0  0  0  0  0  0  0  0  0  0
  -22.0816  -24.0265  -23.1268 F   0  0  0  0  0  0  0  0  0  0  0  0
  -22.5647  -23.3061  -21.1111 F   0  0  0  0  0  0  0  0  0  0  0  0
  -24.2833  -22.6795  -23.0306 C   0  0  0  0  0  0  0  0  0  0  0  0
  -24.1485  -23.8936  -23.4283 F   0  0  0  0  0  0  0  0  0  0  0  0
  -25.0971  -22.1975  -23.9743 F   0  0  0  0  0  0  0  0  0  0  0  0
  -24.9899  -22.6404  -21.9139 F   0  0  0  0  0  0  0  0  0  0  0  0
  1  2  1  0  0  0
 10  8  1  0  0  0
 11  8  1  0  0  0
  8  2  1  0  0  0
  8  9  1  0  0  0
  2  4  1  0  0  0
  2 12  1  0  0  0
  6  4  2  0  0  0
 13 12  1  0  0  0
  4  5  1  0  0  0
 12 14  1  0  0  0
 12 15  1  0  0  0
  1  3  1  0  0  0
  5  7  1  0  0  0
M  END
> <minimizedAffinity>
-6.31641

$$$$
4FP1_BFM_A_402


 15 14  0  0  0  0  0  0  0  0999 V2000
  -22.3283  -23.7334  -23.9127 O   0  0  0  0  0  0  0  0  0  0  0  0
  -23.4050  -23.3768  -23.0430 C   0  0  0  0  0  0  0  0  0  0  0  0
  -21.7805  -24.4117  -23.4878 H   0  0  0  0  0  0  0  0  0  0  0  0
  -24.1691  -24.6122  -22.4710 C   0  0  0  0  0  0  0  0  0  0  0  0
  -25.1935  -24.3571  -21.8201 O   0  0  0  0  0  0  0  0  0  0  0  0
  -23.6048  -25.6288  -22.7591 O   0  0  0  0  0  0  0  0  0  0  0  0
  -25.4698  -23.4685  -21.7104 H   0  0  0  0  0  0  0  0  0  0  0  0
  -22.7878  -22.6564  -21.9635 C   0  0  0  0  0  0  0  0  0  0  0  0
  -23.6879  -21.8431  -21.3172 F   0  0  0  0  0  0  0  0  0  0  0  0
  -21.7761  -21.8748  -22.4205 F   0  0  0  0  0  0  0  0  0  0  0  0
  -22.3220  -23.5309  -21.0883 F   0  0  0  0  0  0  0  0  0  0  0  0
  -24.3872  -22.2709  -23.6125 C   0  0  0  0  0  0  0  0  0  0  0  0
  -23.7995  -21.2936  -24.2042 F   0  0  0  0  0  0  0  0  0  0  0  0
  -25.1195  -21.6114  -22.7104 F   0  0  0  0  0  0  0  0  0  0  0  0
  -25.2659  -22.8343  -24.4239 F   0  0  0  0  0  0  0  0  0  0  0  0
  1  2  1  0  0  0
 10  8  1  0  0  0
 11  8  1  0  0  0
  8  2  1  0  0  0
  8  9  1  0  0  0
  2  4  1  0  0  0
  2 12  1  0  0  0
  6  4  2  0  0  0
 13 12  1  0  0  0
  4  5  1  0  0  0
 12 14  1  0  0  0
 12 15  1  0  0  0
  1  3  1  0  0  0
  5  7  1  0  0  0
M  END
> <minimizedAffinity>
-6.01077

$$$$
