1TQ4_GDP_A_500


 36 38  0  0  0  0  0  0  0  0999 V2000
   13.5946   25.9526   41.7356 C   0  0  0  0  0  0  0  0  0  0  0  0
   13.5227   24.4923   41.9582 O   0  0  0  0  0  0  0  0  0  0  0  0
   15.0030   26.2707   42.3576 C   0  0  0  0  0  0  0  0  0  0  0  0
   14.7158   26.5771   43.7573 O   0  0  0  0  0  0  0  0  0  0  0  0
   15.8247   24.9814   42.2005 C   0  0  0  0  0  0  0  0  0  0  0  0
   16.8591   24.8050   43.1634 O   0  0  0  0  0  0  0  0  0  0  0  0
   14.7797   23.9016   42.2431 C   0  0  0  0  0  0  0  0  0  0  0  0
   14.2250   25.8411   44.1552 H   0  0  0  0  0  0  0  0  0  0  0  0
   16.4727   24.7836   44.0528 H   0  0  0  0  0  0  0  0  0  0  0  0
   14.9870   22.7791   41.2566 N   0  0  0  0  0  0  0  0  0  0  0  0
   14.5599   22.5661   39.9664 C   0  0  0  0  0  0  0  0  0  0  0  0
   14.9733   21.4373   39.4635 N   0  0  0  0  0  0  0  0  0  0  0  0
   15.7245   20.8448   40.4633 C   0  0  0  0  0  0  0  0  0  0  0  0
   16.4528   19.5883   40.5386 C   0  0  0  0  0  0  0  0  0  0  0  0
   16.5534   18.7259   39.6523 O   0  0  0  0  0  0  0  0  0  0  0  0
   17.1063   19.3801   41.8072 N   0  0  0  0  0  0  0  0  0  0  0  0
   17.0673   20.2735   42.8835 C   0  0  0  0  0  0  0  0  0  0  0  0
   17.7330   19.9118   43.9792 N   0  0  0  0  0  0  0  0  0  0  0  0
   16.3800   21.4676   42.8275 N   0  0  0  0  0  0  0  0  0  0  0  0
   15.7540   21.6635   41.6032 C   0  0  0  0  0  0  0  0  0  0  0  0
   17.6181   18.5473   41.9248 H   0  0  0  0  0  0  0  0  0  0  0  0
   18.2179   19.0553   44.0003 H   0  0  0  0  0  0  0  0  0  0  0  0
   17.7401   20.5011   44.7679 H   0  0  0  0  0  0  0  0  0  0  0  0
   13.3277   26.4426   40.2890 C   0  0  0  0  0  0  0  0  0  0  0  0
   12.4319   25.5272   39.6752 O   0  0  0  0  0  0  0  0  0  0  0  0
   11.9598   25.5375   38.1589 P   0  0  0  0  0  0  0  0  0  0  0  0
   10.7260   24.7077   38.1171 O   0  0  0  0  0  0  0  0  0  0  0  0
   12.9098   25.2031   37.0772 O   0  0  0  0  0  0  0  0  0  0  0  0
   12.4574   25.2582   36.2210 H   0  0  0  0  0  0  0  0  0  0  0  0
   11.1295   26.9329   38.0866 O   0  0  0  0  0  0  0  0  0  0  0  0
    9.8690   27.1660   36.9865 P   0  0  0  0  0  0  0  0  0  0  0  0
    8.5977   26.9071   37.6446 O   0  0  0  0  0  0  0  0  0  0  0  0
   10.2692   26.1975   35.9183 O   0  0  0  0  0  0  0  0  0  0  0  0
    9.9842   28.5109   36.2336 O   0  0  0  0  0  0  0  0  0  0  0  0
    9.6187   26.2223   35.1992 H   0  0  0  0  0  0  0  0  0  0  0  0
    9.2418   28.6001   35.6157 H   0  0  0  0  0  0  0  0  0  0  0  0
 31 32  2  0  0  0
 31 33  1  0  0  0
 31 34  1  0  0  0
 31 30  1  0  0  0
 30 26  1  0  0  0
 26 27  2  0  0  0
 26 28  1  0  0  0
 26 25  1  0  0  0
 25 24  1  0  0  0
 24  1  1  0  0  0
  1  2  1  0  0  0
  1  3  1  0  0  0
  2  7  1  0  0  0
  3  4  1  0  0  0
  3  5  1  0  0  0
  5  6  1  0  0  0
  5  7  1  0  0  0
  7 10  1  0  0  0
 10 11  1  0  0  0
 10 20  1  0  0  0
 11 12  2  0  0  0
 12 13  1  0  0  0
 13 14  1  0  0  0
 13 20  2  0  0  0
 14 15  2  0  0  0
 14 16  1  0  0  0
 16 17  1  0  0  0
 17 18  1  0  0  0
 17 19  2  0  0  0
 19 20  1  0  0  0
 33 35  1  0  0  0
 34 36  1  0  0  0
 28 29  1  0  0  0
  4  8  1  0  0  0
  6  9  1  0  0  0
 16 21  1  0  0  0
 18 22  1  0  0  0
 18 23  1  0  0  0
M  END
> <minimizedAffinity>
-9.98171

$$$$
1TQ4_GDP_A_500


 36 38  0  0  0  0  0  0  0  0999 V2000
   11.8330   25.1391   41.7163 C   0  0  0  0  0  0  0  0  0  0  0  0
   12.9572   24.2304   41.4040 O   0  0  0  0  0  0  0  0  0  0  0  0
   12.1180   25.4410   43.2326 C   0  0  0  0  0  0  0  0  0  0  0  0
   11.3774   24.4052   43.9496 O   0  0  0  0  0  0  0  0  0  0  0  0
   13.6383   25.2943   43.4044 C   0  0  0  0  0  0  0  0  0  0  0  0
   14.0648   24.9343   44.7146 O   0  0  0  0  0  0  0  0  0  0  0  0
   14.0052   24.2796   42.3578 C   0  0  0  0  0  0  0  0  0  0  0  0
   11.6475   23.5317   43.6257 H   0  0  0  0  0  0  0  0  0  0  0  0
   13.6723   24.0817   44.9596 H   0  0  0  0  0  0  0  0  0  0  0  0
   15.2836   24.5717   41.6117 N   0  0  0  0  0  0  0  0  0  0  0  0
   15.9153   25.7365   41.2424 C   0  0  0  0  0  0  0  0  0  0  0  0
   17.0272   25.5392   40.5921 N   0  0  0  0  0  0  0  0  0  0  0  0
   17.1647   24.1646   40.5116 C   0  0  0  0  0  0  0  0  0  0  0  0
   18.1779   23.3064   39.9185 C   0  0  0  0  0  0  0  0  0  0  0  0
   19.2027   23.6622   39.3162 O   0  0  0  0  0  0  0  0  0  0  0  0
   17.9037   21.8998   40.0805 N   0  0  0  0  0  0  0  0  0  0  0  0
   16.7852   21.3731   40.7360 C   0  0  0  0  0  0  0  0  0  0  0  0
   16.6991   20.0448   40.7882 N   0  0  0  0  0  0  0  0  0  0  0  0
   15.8158   22.1740   41.3018 N   0  0  0  0  0  0  0  0  0  0  0  0
   16.0858   23.5272   41.1441 C   0  0  0  0  0  0  0  0  0  0  0  0
   18.5516   21.2628   39.7016 H   0  0  0  0  0  0  0  0  0  0  0  0
   17.4013   19.4896   40.3783 H   0  0  0  0  0  0  0  0  0  0  0  0
   15.9334   19.6184   41.2365 H   0  0  0  0  0  0  0  0  0  0  0  0
   11.6466   26.3539   40.7710 C   0  0  0  0  0  0  0  0  0  0  0  0
   12.4817   26.1595   39.6387 O   0  0  0  0  0  0  0  0  0  0  0  0
   12.0136   25.7576   38.1753 P   0  0  0  0  0  0  0  0  0  0  0  0
   10.9075   24.7808   38.3619 O   0  0  0  0  0  0  0  0  0  0  0  0
   13.0015   25.3163   37.1686 O   0  0  0  0  0  0  0  0  0  0  0  0
   12.5463   25.1117   36.3368 H   0  0  0  0  0  0  0  0  0  0  0  0
   10.9969   26.9733   37.8141 O   0  0  0  0  0  0  0  0  0  0  0  0
    9.8186   26.8248   36.6130 P   0  0  0  0  0  0  0  0  0  0  0  0
    9.6188   28.1136   35.9684 O   0  0  0  0  0  0  0  0  0  0  0  0
    8.6746   26.3096   37.4284 O   0  0  0  0  0  0  0  0  0  0  0  0
   10.0826   25.6271   35.6724 O   0  0  0  0  0  0  0  0  0  0  0  0
    7.9043   26.1730   36.8549 H   0  0  0  0  0  0  0  0  0  0  0  0
    9.3831   25.5822   35.0018 H   0  0  0  0  0  0  0  0  0  0  0  0
 31 32  2  0  0  0
 31 33  1  0  0  0
 31 34  1  0  0  0
 31 30  1  0  0  0
 30 26  1  0  0  0
 26 27  2  0  0  0
 26 28  1  0  0  0
 26 25  1  0  0  0
 25 24  1  0  0  0
 24  1  1  0  0  0
  1  2  1  0  0  0
  1  3  1  0  0  0
  2  7  1  0  0  0
  3  4  1  0  0  0
  3  5  1  0  0  0
  5  6  1  0  0  0
  5  7  1  0  0  0
  7 10  1  0  0  0
 10 11  1  0  0  0
 10 20  1  0  0  0
 11 12  2  0  0  0
 12 13  1  0  0  0
 13 14  1  0  0  0
 13 20  2  0  0  0
 14 15  2  0  0  0
 14 16  1  0  0  0
 16 17  1  0  0  0
 17 18  1  0  0  0
 17 19  2  0  0  0
 19 20  1  0  0  0
 33 35  1  0  0  0
 34 36  1  0  0  0
 28 29  1  0  0  0
  4  8  1  0  0  0
  6  9  1  0  0  0
 16 21  1  0  0  0
 18 22  1  0  0  0
 18 23  1  0  0  0
M  END
> <minimizedAffinity>
-8.70999

$$$$
1TQ4_GDP_A_500


 36 38  0  0  0  0  0  0  0  0999 V2000
   14.2205   26.1880   42.3437 C   0  0  0  0  0  0  0  0  0  0  0  0
   14.2729   24.7299   42.5851 O   0  0  0  0  0  0  0  0  0  0  0  0
   15.5696   26.6403   43.0123 C   0  0  0  0  0  0  0  0  0  0  0  0
   15.2027   26.9352   44.3958 O   0  0  0  0  0  0  0  0  0  0  0  0
   16.5101   25.4295   42.9048 C   0  0  0  0  0  0  0  0  0  0  0  0
   17.5189   25.3592   43.9077 O   0  0  0  0  0  0  0  0  0  0  0  0
   15.5665   24.2595   42.9249 C   0  0  0  0  0  0  0  0  0  0  0  0
   14.7658   26.1622   44.7862 H   0  0  0  0  0  0  0  0  0  0  0  0
   17.1025   25.3128   44.7825 H   0  0  0  0  0  0  0  0  0  0  0  0
   15.9121   23.1494   41.9635 N   0  0  0  0  0  0  0  0  0  0  0  0
   15.8885   23.0478   40.5918 C   0  0  0  0  0  0  0  0  0  0  0  0
   16.2739   21.8833   40.1519 N   0  0  0  0  0  0  0  0  0  0  0  0
   16.5781   21.1472   41.2835 C   0  0  0  0  0  0  0  0  0  0  0  0
   17.0579   19.7883   41.4783 C   0  0  0  0  0  0  0  0  0  0  0  0
   17.3089   18.9487   40.5999 O   0  0  0  0  0  0  0  0  0  0  0  0
   17.2405   19.4386   42.8655 N   0  0  0  0  0  0  0  0  0  0  0  0
   16.9915   20.2929   43.9454 C   0  0  0  0  0  0  0  0  0  0  0  0
   17.2182   19.7952   45.1601 N   0  0  0  0  0  0  0  0  0  0  0  0
   16.5352   21.5831   43.7764 N   0  0  0  0  0  0  0  0  0  0  0  0
   16.3627   21.9148   42.4388 C   0  0  0  0  0  0  0  0  0  0  0  0
   17.5643   18.5311   43.0678 H   0  0  0  0  0  0  0  0  0  0  0  0
   17.5440   18.8717   45.2607 H   0  0  0  0  0  0  0  0  0  0  0  0
   17.0600   20.3510   45.9572 H   0  0  0  0  0  0  0  0  0  0  0  0
   13.9655   26.6350   40.8811 C   0  0  0  0  0  0  0  0  0  0  0  0
   13.2770   25.5855   40.2164 O   0  0  0  0  0  0  0  0  0  0  0  0
   11.7990   25.0863   40.5135 P   0  0  0  0  0  0  0  0  0  0  0  0
   10.9629   26.3154   40.5644 O   0  0  0  0  0  0  0  0  0  0  0  0
   11.5320   24.1668   41.6394 O   0  0  0  0  0  0  0  0  0  0  0  0
   10.5836   23.9662   41.6751 H   0  0  0  0  0  0  0  0  0  0  0  0
   11.2837   24.6915   39.0233 O   0  0  0  0  0  0  0  0  0  0  0  0
   11.8029   25.5251   37.6490 P   0  0  0  0  0  0  0  0  0  0  0  0
   13.2044   25.2241   37.4005 O   0  0  0  0  0  0  0  0  0  0  0  0
   11.4917   26.9300   38.0598 O   0  0  0  0  0  0  0  0  0  0  0  0
   10.8444   25.3415   36.4505 O   0  0  0  0  0  0  0  0  0  0  0  0
   11.7441   27.5384   37.3478 H   0  0  0  0  0  0  0  0  0  0  0  0
   11.1823   25.8362   35.6876 H   0  0  0  0  0  0  0  0  0  0  0  0
 31 32  2  0  0  0
 31 33  1  0  0  0
 31 34  1  0  0  0
 31 30  1  0  0  0
 30 26  1  0  0  0
 26 27  2  0  0  0
 26 28  1  0  0  0
 26 25  1  0  0  0
 25 24  1  0  0  0
 24  1  1  0  0  0
  1  2  1  0  0  0
  1  3  1  0  0  0
  2  7  1  0  0  0
  3  4  1  0  0  0
  3  5  1  0  0  0
  5  6  1  0  0  0
  5  7  1  0  0  0
  7 10  1  0  0  0
 10 11  1  0  0  0
 10 20  1  0  0  0
 11 12  2  0  0  0
 12 13  1  0  0  0
 13 14  1  0  0  0
 13 20  2  0  0  0
 14 15  2  0  0  0
 14 16  1  0  0  0
 16 17  1  0  0  0
 17 18  1  0  0  0
 17 19  2  0  0  0
 19 20  1  0  0  0
 33 35  1  0  0  0
 34 36  1  0  0  0
 28 29  1  0  0  0
  4  8  1  0  0  0
  6  9  1  0  0  0
 16 21  1  0  0  0
 18 22  1  0  0  0
 18 23  1  0  0  0
M  END
> <minimizedAffinity>
-8.03869

$$$$
1TQ4_GDP_A_500


 36 38  0  0  0  0  0  0  0  0999 V2000
   12.4291   24.9143   41.5929 C   0  0  0  0  0  0  0  0  0  0  0  0
   12.5172   24.3009   42.9357 O   0  0  0  0  0  0  0  0  0  0  0  0
   13.5641   25.9974   41.6949 C   0  0  0  0  0  0  0  0  0  0  0  0
   12.8802   27.1870   42.1974 O   0  0  0  0  0  0  0  0  0  0  0  0
   14.5786   25.4387   42.7053 C   0  0  0  0  0  0  0  0  0  0  0  0
   15.3406   26.4210   43.4000 O   0  0  0  0  0  0  0  0  0  0  0  0
   13.7292   24.5919   43.6115 C   0  0  0  0  0  0  0  0  0  0  0  0
   12.4163   26.9696   43.0211 H   0  0  0  0  0  0  0  0  0  0  0  0
   14.7432   27.0023   43.8961 H   0  0  0  0  0  0  0  0  0  0  0  0
   14.3491   23.2774   44.0165 N   0  0  0  0  0  0  0  0  0  0  0  0
   14.2341   22.4849   45.1350 C   0  0  0  0  0  0  0  0  0  0  0  0
   14.9612   21.4049   45.0817 N   0  0  0  0  0  0  0  0  0  0  0  0
   15.6095   21.4604   43.8604 C   0  0  0  0  0  0  0  0  0  0  0  0
   16.5531   20.5711   43.2018 C   0  0  0  0  0  0  0  0  0  0  0  0
   17.0036   19.5003   43.6377 O   0  0  0  0  0  0  0  0  0  0  0  0
   16.9740   21.0413   41.9050 N   0  0  0  0  0  0  0  0  0  0  0  0
   16.5412   22.2294   41.3056 C   0  0  0  0  0  0  0  0  0  0  0  0
   17.0389   22.5012   40.1002 N   0  0  0  0  0  0  0  0  0  0  0  0
   15.6483   23.0830   41.9182 N   0  0  0  0  0  0  0  0  0  0  0  0
   15.2453   22.6245   43.1658 C   0  0  0  0  0  0  0  0  0  0  0  0
   17.6135   20.4850   41.4043 H   0  0  0  0  0  0  0  0  0  0  0  0
   17.6753   21.8794   39.6788 H   0  0  0  0  0  0  0  0  0  0  0  0
   16.7702   23.3238   39.6307 H   0  0  0  0  0  0  0  0  0  0  0  0
   12.4795   23.9412   40.3868 C   0  0  0  0  0  0  0  0  0  0  0  0
   12.9669   24.6613   39.2637 O   0  0  0  0  0  0  0  0  0  0  0  0
   12.1344   25.6466   38.3373 P   0  0  0  0  0  0  0  0  0  0  0  0
   12.8403   25.6588   37.0281 O   0  0  0  0  0  0  0  0  0  0  0  0
   11.7853   27.0025   38.8106 O   0  0  0  0  0  0  0  0  0  0  0  0
   11.2798   27.4646   38.1236 H   0  0  0  0  0  0  0  0  0  0  0  0
   10.9583   24.6653   37.7936 O   0  0  0  0  0  0  0  0  0  0  0  0
    9.6838   25.2393   36.8452 P   0  0  0  0  0  0  0  0  0  0  0  0
    8.9940   26.3057   37.5547 O   0  0  0  0  0  0  0  0  0  0  0  0
    8.9129   23.9724   36.6452 O   0  0  0  0  0  0  0  0  0  0  0  0
   10.1224   25.5577   35.3977 O   0  0  0  0  0  0  0  0  0  0  0  0
    8.1296   24.1529   36.1022 H   0  0  0  0  0  0  0  0  0  0  0  0
    9.3605   25.8828   34.8930 H   0  0  0  0  0  0  0  0  0  0  0  0
 31 32  2  0  0  0
 31 33  1  0  0  0
 31 34  1  0  0  0
 31 30  1  0  0  0
 30 26  1  0  0  0
 26 27  2  0  0  0
 26 28  1  0  0  0
 26 25  1  0  0  0
 25 24  1  0  0  0
 24  1  1  0  0  0
  1  2  1  0  0  0
  1  3  1  0  0  0
  2  7  1  0  0  0
  3  4  1  0  0  0
  3  5  1  0  0  0
  5  6  1  0  0  0
  5  7  1  0  0  0
  7 10  1  0  0  0
 10 11  1  0  0  0
 10 20  1  0  0  0
 11 12  2  0  0  0
 12 13  1  0  0  0
 13 14  1  0  0  0
 13 20  2  0  0  0
 14 15  2  0  0  0
 14 16  1  0  0  0
 16 17  1  0  0  0
 17 18  1  0  0  0
 17 19  2  0  0  0
 19 20  1  0  0  0
 33 35  1  0  0  0
 34 36  1  0  0  0
 28 29  1  0  0  0
  4  8  1  0  0  0
  6  9  1  0  0  0
 16 21  1  0  0  0
 18 22  1  0  0  0
 18 23  1  0  0  0
M  END
> <minimizedAffinity>
-7.92161

$$$$
1TQ4_GDP_A_500


 36 38  0  0  0  0  0  0  0  0999 V2000
   14.1253   25.7278   40.2436 C   0  0  0  0  0  0  0  0  0  0  0  0
   15.4459   26.3775   40.0991 O   0  0  0  0  0  0  0  0  0  0  0  0
   14.4594   24.6297   41.3180 C   0  0  0  0  0  0  0  0  0  0  0  0
   14.8583   23.4660   40.5291 O   0  0  0  0  0  0  0  0  0  0  0  0
   15.6236   25.2003   42.1435 C   0  0  0  0  0  0  0  0  0  0  0  0
   16.4699   24.2258   42.7455 O   0  0  0  0  0  0  0  0  0  0  0  0
   16.3383   26.0861   41.1616 C   0  0  0  0  0  0  0  0  0  0  0  0
   15.5779   23.7142   39.9279 H   0  0  0  0  0  0  0  0  0  0  0  0
   16.8631   23.6686   42.0558 H   0  0  0  0  0  0  0  0  0  0  0  0
   16.8167   27.4013   41.7252 N   0  0  0  0  0  0  0  0  0  0  0  0
   16.1695   28.4822   42.2775 C   0  0  0  0  0  0  0  0  0  0  0  0
   16.9766   29.4367   42.6455 N   0  0  0  0  0  0  0  0  0  0  0  0
   18.2456   28.9852   42.3282 C   0  0  0  0  0  0  0  0  0  0  0  0
   19.5687   29.5692   42.4811 C   0  0  0  0  0  0  0  0  0  0  0  0
   19.8475   30.6780   42.9630 O   0  0  0  0  0  0  0  0  0  0  0  0
   20.6294   28.7186   42.0004 N   0  0  0  0  0  0  0  0  0  0  0  0
   20.4452   27.4514   41.4361 C   0  0  0  0  0  0  0  0  0  0  0  0
   21.5458   26.8092   41.0478 N   0  0  0  0  0  0  0  0  0  0  0  0
   19.1972   26.8854   41.2834 N   0  0  0  0  0  0  0  0  0  0  0  0
   18.1799   27.7081   41.7494 C   0  0  0  0  0  0  0  0  0  0  0  0
   21.5519   29.0545   42.0747 H   0  0  0  0  0  0  0  0  0  0  0  0
   22.4283   27.2297   41.1650 H   0  0  0  0  0  0  0  0  0  0  0  0
   21.4768   25.9142   40.6435 H   0  0  0  0  0  0  0  0  0  0  0  0
   12.9247   26.6653   40.5330 C   0  0  0  0  0  0  0  0  0  0  0  0
   12.1663   26.7866   39.3382 O   0  0  0  0  0  0  0  0  0  0  0  0
   11.7896   25.6159   38.3334 P   0  0  0  0  0  0  0  0  0  0  0  0
   11.4704   24.4409   39.1878 O   0  0  0  0  0  0  0  0  0  0  0  0
   12.6870   25.2774   37.2089 O   0  0  0  0  0  0  0  0  0  0  0  0
   12.3059   24.5446   36.7003 H   0  0  0  0  0  0  0  0  0  0  0  0
   10.2241   25.9351   38.0348 O   0  0  0  0  0  0  0  0  0  0  0  0
    9.4470   25.3711   36.6451 P   0  0  0  0  0  0  0  0  0  0  0  0
   10.2437   25.7060   35.4749 O   0  0  0  0  0  0  0  0  0  0  0  0
    8.1332   26.0758   36.7736 O   0  0  0  0  0  0  0  0  0  0  0  0
    9.0110   23.8936   36.7716 O   0  0  0  0  0  0  0  0  0  0  0  0
    7.5655   25.8408   36.0230 H   0  0  0  0  0  0  0  0  0  0  0  0
    8.5711   23.6152   35.9531 H   0  0  0  0  0  0  0  0  0  0  0  0
 31 32  2  0  0  0
 31 33  1  0  0  0
 31 34  1  0  0  0
 31 30  1  0  0  0
 30 26  1  0  0  0
 26 27  2  0  0  0
 26 28  1  0  0  0
 26 25  1  0  0  0
 25 24  1  0  0  0
 24  1  1  0  0  0
  1  2  1  0  0  0
  1  3  1  0  0  0
  2  7  1  0  0  0
  3  4  1  0  0  0
  3  5  1  0  0  0
  5  6  1  0  0  0
  5  7  1  0  0  0
  7 10  1  0  0  0
 10 11  1  0  0  0
 10 20  1  0  0  0
 11 12  2  0  0  0
 12 13  1  0  0  0
 13 14  1  0  0  0
 13 20  2  0  0  0
 14 15  2  0  0  0
 14 16  1  0  0  0
 16 17  1  0  0  0
 17 18  1  0  0  0
 17 19  2  0  0  0
 19 20  1  0  0  0
 33 35  1  0  0  0
 34 36  1  0  0  0
 28 29  1  0  0  0
  4  8  1  0  0  0
  6  9  1  0  0  0
 16 21  1  0  0  0
 18 22  1  0  0  0
 18 23  1  0  0  0
M  END
> <minimizedAffinity>
-7.78870

$$$$
1TQ4_GDP_A_500


 36 38  0  0  0  0  0  0  0  0999 V2000
   13.5972   26.5438   41.7443 C   0  0  0  0  0  0  0  0  0  0  0  0
   14.2073   25.6165   42.7215 O   0  0  0  0  0  0  0  0  0  0  0  0
   14.8832   27.0967   41.0286 C   0  0  0  0  0  0  0  0  0  0  0  0
   15.2458   28.2793   41.8066 O   0  0  0  0  0  0  0  0  0  0  0  0
   15.9326   25.9796   41.1440 C   0  0  0  0  0  0  0  0  0  0  0  0
   17.2867   26.4204   41.1236 O   0  0  0  0  0  0  0  0  0  0  0  0
   15.5516   25.2817   42.4197 C   0  0  0  0  0  0  0  0  0  0  0  0
   15.3434   28.0348   42.7402 H   0  0  0  0  0  0  0  0  0  0  0  0
   17.4407   27.0262   41.8653 H   0  0  0  0  0  0  0  0  0  0  0  0
   15.6439   23.7766   42.3713 N   0  0  0  0  0  0  0  0  0  0  0  0
   15.4278   22.8496   41.3781 C   0  0  0  0  0  0  0  0  0  0  0  0
   15.6225   21.6207   41.7653 N   0  0  0  0  0  0  0  0  0  0  0  0
   15.9920   21.7106   43.0958 C   0  0  0  0  0  0  0  0  0  0  0  0
   16.3427   20.7120   44.0931 C   0  0  0  0  0  0  0  0  0  0  0  0
   16.3823   19.4813   43.9400 O   0  0  0  0  0  0  0  0  0  0  0  0
   16.6683   21.2768   45.3795 N   0  0  0  0  0  0  0  0  0  0  0  0
   16.6591   22.6437   45.6786 C   0  0  0  0  0  0  0  0  0  0  0  0
   16.9893   22.9807   46.9244 N   0  0  0  0  0  0  0  0  0  0  0  0
   16.3275   23.6019   44.7441 N   0  0  0  0  0  0  0  0  0  0  0  0
   16.0164   23.0525   43.5070 C   0  0  0  0  0  0  0  0  0  0  0  0
   16.9155   20.6542   46.1011 H   0  0  0  0  0  0  0  0  0  0  0  0
   17.2230   22.2822   47.5777 H   0  0  0  0  0  0  0  0  0  0  0  0
   16.9994   23.9281   47.1918 H   0  0  0  0  0  0  0  0  0  0  0  0
   12.4780   25.9581   40.8452 C   0  0  0  0  0  0  0  0  0  0  0  0
   13.0048   25.8036   39.5353 O   0  0  0  0  0  0  0  0  0  0  0  0
   12.1722   25.6071   38.1973 P   0  0  0  0  0  0  0  0  0  0  0  0
   11.0459   24.7037   38.5547 O   0  0  0  0  0  0  0  0  0  0  0  0
   12.8499   25.2077   36.9462 O   0  0  0  0  0  0  0  0  0  0  0  0
   12.1960   25.1342   36.2335 H   0  0  0  0  0  0  0  0  0  0  0  0
   11.2286   26.9306   38.2046 O   0  0  0  0  0  0  0  0  0  0  0  0
    9.9525   27.1234   37.1148 P   0  0  0  0  0  0  0  0  0  0  0  0
    8.6899   26.9069   37.8042 O   0  0  0  0  0  0  0  0  0  0  0  0
   10.3274   26.1026   36.0869 O   0  0  0  0  0  0  0  0  0  0  0  0
   10.0666   28.4306   36.2980 O   0  0  0  0  0  0  0  0  0  0  0  0
    9.6655   26.0996   35.3778 H   0  0  0  0  0  0  0  0  0  0  0  0
    9.3151   28.4976   35.6884 H   0  0  0  0  0  0  0  0  0  0  0  0
 31 32  2  0  0  0
 31 33  1  0  0  0
 31 34  1  0  0  0
 31 30  1  0  0  0
 30 26  1  0  0  0
 26 27  2  0  0  0
 26 28  1  0  0  0
 26 25  1  0  0  0
 25 24  1  0  0  0
 24  1  1  0  0  0
  1  2  1  0  0  0
  1  3  1  0  0  0
  2  7  1  0  0  0
  3  4  1  0  0  0
  3  5  1  0  0  0
  5  6  1  0  0  0
  5  7  1  0  0  0
  7 10  1  0  0  0
 10 11  1  0  0  0
 10 20  1  0  0  0
 11 12  2  0  0  0
 12 13  1  0  0  0
 13 14  1  0  0  0
 13 20  2  0  0  0
 14 15  2  0  0  0
 14 16  1  0  0  0
 16 17  1  0  0  0
 17 18  1  0  0  0
 17 19  2  0  0  0
 19 20  1  0  0  0
 33 35  1  0  0  0
 34 36  1  0  0  0
 28 29  1  0  0  0
  4  8  1  0  0  0
  6  9  1  0  0  0
 16 21  1  0  0  0
 18 22  1  0  0  0
 18 23  1  0  0  0
M  END
> <minimizedAffinity>
-7.48168

$$$$
1TQ4_GDP_A_500


 36 38  0  0  0  0  0  0  0  0999 V2000
   13.1006   25.2281   39.7557 C   0  0  0  0  0  0  0  0  0  0  0  0
   13.6154   25.9272   40.9529 O   0  0  0  0  0  0  0  0  0  0  0  0
   11.9624   24.3544   40.3984 C   0  0  0  0  0  0  0  0  0  0  0  0
   12.6270   23.1009   40.7483 O   0  0  0  0  0  0  0  0  0  0  0  0
   11.4955   25.1320   41.6392 C   0  0  0  0  0  0  0  0  0  0  0  0
   10.9391   24.3319   42.6777 O   0  0  0  0  0  0  0  0  0  0  0  0
   12.7297   25.8806   42.0591 C   0  0  0  0  0  0  0  0  0  0  0  0
   13.3957   23.2882   41.3095 H   0  0  0  0  0  0  0  0  0  0  0  0
   11.6008   23.6912   42.9820 H   0  0  0  0  0  0  0  0  0  0  0  0
   12.4885   27.3010   42.5067 N   0  0  0  0  0  0  0  0  0  0  0  0
   12.6886   28.5247   41.9110 C   0  0  0  0  0  0  0  0  0  0  0  0
   12.3387   29.5302   42.6626 N   0  0  0  0  0  0  0  0  0  0  0  0
   11.8736   28.9646   43.8367 C   0  0  0  0  0  0  0  0  0  0  0  0
   11.3431   29.5343   45.0650 C   0  0  0  0  0  0  0  0  0  0  0  0
   11.1906   30.7371   45.3288 O   0  0  0  0  0  0  0  0  0  0  0  0
   10.9736   28.5419   46.0441 N   0  0  0  0  0  0  0  0  0  0  0  0
   11.0979   27.1593   45.8680 C   0  0  0  0  0  0  0  0  0  0  0  0
   10.7040   26.3940   46.8847 N   0  0  0  0  0  0  0  0  0  0  0  0
   11.6003   26.6046   44.7099 N   0  0  0  0  0  0  0  0  0  0  0  0
   11.9530   27.5647   43.7703 C   0  0  0  0  0  0  0  0  0  0  0  0
   10.6064   28.8610   46.9000 H   0  0  0  0  0  0  0  0  0  0  0  0
   10.3479   26.8085   47.7037 H   0  0  0  0  0  0  0  0  0  0  0  0
   10.7689   25.4140   46.8171 H   0  0  0  0  0  0  0  0  0  0  0  0
   12.7166   26.1219   38.5483 C   0  0  0  0  0  0  0  0  0  0  0  0
   11.6012   26.9149   38.9282 O   0  0  0  0  0  0  0  0  0  0  0  0
   10.1513   26.8805   38.2812 P   0  0  0  0  0  0  0  0  0  0  0  0
   10.2900   27.5314   36.9509 O   0  0  0  0  0  0  0  0  0  0  0  0
    8.9820   27.3733   39.0390 O   0  0  0  0  0  0  0  0  0  0  0  0
    8.1827   27.2792   38.4975 H   0  0  0  0  0  0  0  0  0  0  0  0
   10.1152   25.3857   37.6440 O   0  0  0  0  0  0  0  0  0  0  0  0
    9.0427   24.9675   36.4079 P   0  0  0  0  0  0  0  0  0  0  0  0
    8.7349   23.5482   36.4931 O   0  0  0  0  0  0  0  0  0  0  0  0
    9.8342   25.4014   35.2144 O   0  0  0  0  0  0  0  0  0  0  0  0
    7.8305   25.9233   36.3302 O   0  0  0  0  0  0  0  0  0  0  0  0
    9.3288   25.2177   34.4071 H   0  0  0  0  0  0  0  0  0  0  0  0
    7.2448   25.6448   35.6089 H   0  0  0  0  0  0  0  0  0  0  0  0
 31 32  2  0  0  0
 31 33  1  0  0  0
 31 34  1  0  0  0
 31 30  1  0  0  0
 30 26  1  0  0  0
 26 27  2  0  0  0
 26 28  1  0  0  0
 26 25  1  0  0  0
 25 24  1  0  0  0
 24  1  1  0  0  0
  1  2  1  0  0  0
  1  3  1  0  0  0
  2  7  1  0  0  0
  3  4  1  0  0  0
  3  5  1  0  0  0
  5  6  1  0  0  0
  5  7  1  0  0  0
  7 10  1  0  0  0
 10 11  1  0  0  0
 10 20  1  0  0  0
 11 12  2  0  0  0
 12 13  1  0  0  0
 13 14  1  0  0  0
 13 20  2  0  0  0
 14 15  2  0  0  0
 14 16  1  0  0  0
 16 17  1  0  0  0
 17 18  1  0  0  0
 17 19  2  0  0  0
 19 20  1  0  0  0
 33 35  1  0  0  0
 34 36  1  0  0  0
 28 29  1  0  0  0
  4  8  1  0  0  0
  6  9  1  0  0  0
 16 21  1  0  0  0
 18 22  1  0  0  0
 18 23  1  0  0  0
M  END
> <minimizedAffinity>
-7.25334

$$$$
1TQ4_GDP_A_500


 36 38  0  0  0  0  0  0  0  0999 V2000
   11.3510   25.2467   44.0990 C   0  0  0  0  0  0  0  0  0  0  0  0
   12.2764   24.1886   43.6395 O   0  0  0  0  0  0  0  0  0  0  0  0
   12.2284   25.9374   45.2057 C   0  0  0  0  0  0  0  0  0  0  0  0
   11.8900   25.2181   46.4319 O   0  0  0  0  0  0  0  0  0  0  0  0
   13.6870   25.7077   44.7795 C   0  0  0  0  0  0  0  0  0  0  0  0
   14.6315   25.6952   45.8454 O   0  0  0  0  0  0  0  0  0  0  0  0
   13.6231   24.4097   44.0239 C   0  0  0  0  0  0  0  0  0  0  0  0
   12.0329   24.2679   46.2992 H   0  0  0  0  0  0  0  0  0  0  0  0
   14.4072   24.9858   46.4678 H   0  0  0  0  0  0  0  0  0  0  0  0
   14.4652   24.3618   42.7730 N   0  0  0  0  0  0  0  0  0  0  0  0
   14.6427   25.2306   41.7214 C   0  0  0  0  0  0  0  0  0  0  0  0
   15.4800   24.7933   40.8238 N   0  0  0  0  0  0  0  0  0  0  0  0
   15.8990   23.5579   41.2856 C   0  0  0  0  0  0  0  0  0  0  0  0
   16.8204   22.5658   40.7550 C   0  0  0  0  0  0  0  0  0  0  0  0
   17.4656   22.6318   39.6973 O   0  0  0  0  0  0  0  0  0  0  0  0
   16.9544   21.4013   41.5952 N   0  0  0  0  0  0  0  0  0  0  0  0
   16.2820   21.2073   42.8070 C   0  0  0  0  0  0  0  0  0  0  0  0
   16.5317   20.0666   43.4480 N   0  0  0  0  0  0  0  0  0  0  0  0
   15.4046   22.1381   43.3218 N   0  0  0  0  0  0  0  0  0  0  0  0
   15.2806   23.2579   42.5094 C   0  0  0  0  0  0  0  0  0  0  0  0
   17.5644   20.6898   41.2937 H   0  0  0  0  0  0  0  0  0  0  0  0
   17.1613   19.4141   43.0646 H   0  0  0  0  0  0  0  0  0  0  0  0
   16.0865   19.8760   44.3052 H   0  0  0  0  0  0  0  0  0  0  0  0
   10.7453   26.1569   42.9994 C   0  0  0  0  0  0  0  0  0  0  0  0
   11.2025   25.6852   41.7401 O   0  0  0  0  0  0  0  0  0  0  0  0
   11.0702   26.4322   40.3449 P   0  0  0  0  0  0  0  0  0  0  0  0
   12.2974   27.2628   40.2165 O   0  0  0  0  0  0  0  0  0  0  0  0
    9.8386   27.1770   40.0089 O   0  0  0  0  0  0  0  0  0  0  0  0
    9.9281   27.5682   39.1258 H   0  0  0  0  0  0  0  0  0  0  0  0
   11.6222   25.3006   39.3169 O   0  0  0  0  0  0  0  0  0  0  0  0
   11.6225   25.5375   37.6445 P   0  0  0  0  0  0  0  0  0  0  0  0
   12.9361   25.2140   37.1096 O   0  0  0  0  0  0  0  0  0  0  0  0
   11.2202   26.9775   37.5823 O   0  0  0  0  0  0  0  0  0  0  0  0
   10.4194   24.8576   36.9521 O   0  0  0  0  0  0  0  0  0  0  0  0
   11.1774   27.2615   36.6558 H   0  0  0  0  0  0  0  0  0  0  0  0
   10.4619   25.0203   35.9968 H   0  0  0  0  0  0  0  0  0  0  0  0
 31 32  2  0  0  0
 31 33  1  0  0  0
 31 34  1  0  0  0
 31 30  1  0  0  0
 30 26  1  0  0  0
 26 27  2  0  0  0
 26 28  1  0  0  0
 26 25  1  0  0  0
 25 24  1  0  0  0
 24  1  1  0  0  0
  1  2  1  0  0  0
  1  3  1  0  0  0
  2  7  1  0  0  0
  3  4  1  0  0  0
  3  5  1  0  0  0
  5  6  1  0  0  0
  5  7  1  0  0  0
  7 10  1  0  0  0
 10 11  1  0  0  0
 10 20  1  0  0  0
 11 12  2  0  0  0
 12 13  1  0  0  0
 13 14  1  0  0  0
 13 20  2  0  0  0
 14 15  2  0  0  0
 14 16  1  0  0  0
 16 17  1  0  0  0
 17 18  1  0  0  0
 17 19  2  0  0  0
 19 20  1  0  0  0
 33 35  1  0  0  0
 34 36  1  0  0  0
 28 29  1  0  0  0
  4  8  1  0  0  0
  6  9  1  0  0  0
 16 21  1  0  0  0
 18 22  1  0  0  0
 18 23  1  0  0  0
M  END
> <minimizedAffinity>
-7.21080

$$$$
1TQ4_GDP_A_500


 36 38  0  0  0  0  0  0  0  0999 V2000
   12.7771   24.2917   41.0467 C   0  0  0  0  0  0  0  0  0  0  0  0
   14.1092   24.3282   41.6880 O   0  0  0  0  0  0  0  0  0  0  0  0
   11.9983   25.3258   41.9389 C   0  0  0  0  0  0  0  0  0  0  0  0
   11.4199   24.5134   43.0070 O   0  0  0  0  0  0  0  0  0  0  0  0
   13.0624   26.3035   42.4623 C   0  0  0  0  0  0  0  0  0  0  0  0
   12.7471   26.9307   43.7014 O   0  0  0  0  0  0  0  0  0  0  0  0
   14.3049   25.4593   42.5202 C   0  0  0  0  0  0  0  0  0  0  0  0
   12.1223   24.0083   43.4457 H   0  0  0  0  0  0  0  0  0  0  0  0
   12.6291   26.2534   44.3858 H   0  0  0  0  0  0  0  0  0  0  0  0
   15.5634   26.1504   42.0570 N   0  0  0  0  0  0  0  0  0  0  0  0
   16.2644   26.1401   40.8733 C   0  0  0  0  0  0  0  0  0  0  0  0
   17.3256   26.8961   40.8931 N   0  0  0  0  0  0  0  0  0  0  0  0
   17.3532   27.4547   42.1589 C   0  0  0  0  0  0  0  0  0  0  0  0
   18.2685   28.3770   42.8117 C   0  0  0  0  0  0  0  0  0  0  0  0
   19.2905   28.8875   42.3275 O   0  0  0  0  0  0  0  0  0  0  0  0
   17.8935   28.6925   44.1681 N   0  0  0  0  0  0  0  0  0  0  0  0
   16.7690   28.1824   44.8265 C   0  0  0  0  0  0  0  0  0  0  0  0
   16.5819   28.5874   46.0816 N   0  0  0  0  0  0  0  0  0  0  0  0
   15.8931   27.3062   44.2211 N   0  0  0  0  0  0  0  0  0  0  0  0
   16.2584   27.0072   42.9149 C   0  0  0  0  0  0  0  0  0  0  0  0
   18.4717   29.3129   44.6681 H   0  0  0  0  0  0  0  0  0  0  0  0
   17.2182   29.2134   46.4969 H   0  0  0  0  0  0  0  0  0  0  0  0
   15.8074   28.2606   46.5941 H   0  0  0  0  0  0  0  0  0  0  0  0
   12.7456   24.5095   39.5118 C   0  0  0  0  0  0  0  0  0  0  0  0
   12.3255   25.8441   39.2678 O   0  0  0  0  0  0  0  0  0  0  0  0
   10.9552   26.2990   38.6063 P   0  0  0  0  0  0  0  0  0  0  0  0
   11.3329   27.0971   37.4093 O   0  0  0  0  0  0  0  0  0  0  0  0
    9.9111   26.9531   39.4227 O   0  0  0  0  0  0  0  0  0  0  0  0
    9.1470   27.1623   38.8631 H   0  0  0  0  0  0  0  0  0  0  0  0
   10.5713   24.9905   37.7217 O   0  0  0  0  0  0  0  0  0  0  0  0
    9.3132   25.0123   36.5948 P   0  0  0  0  0  0  0  0  0  0  0  0
    8.6980   23.6956   36.5301 O   0  0  0  0  0  0  0  0  0  0  0  0
   10.0595   25.4533   35.3751 O   0  0  0  0  0  0  0  0  0  0  0  0
    8.3512   26.2032   36.8075 O   0  0  0  0  0  0  0  0  0  0  0  0
    9.4472   25.5124   34.6251 H   0  0  0  0  0  0  0  0  0  0  0  0
    7.6481   26.1741   36.1399 H   0  0  0  0  0  0  0  0  0  0  0  0
 31 32  2  0  0  0
 31 33  1  0  0  0
 31 34  1  0  0  0
 31 30  1  0  0  0
 30 26  1  0  0  0
 26 27  2  0  0  0
 26 28  1  0  0  0
 26 25  1  0  0  0
 25 24  1  0  0  0
 24  1  1  0  0  0
  1  2  1  0  0  0
  1  3  1  0  0  0
  2  7  1  0  0  0
  3  4  1  0  0  0
  3  5  1  0  0  0
  5  6  1  0  0  0
  5  7  1  0  0  0
  7 10  1  0  0  0
 10 11  1  0  0  0
 10 20  1  0  0  0
 11 12  2  0  0  0
 12 13  1  0  0  0
 13 14  1  0  0  0
 13 20  2  0  0  0
 14 15  2  0  0  0
 14 16  1  0  0  0
 16 17  1  0  0  0
 17 18  1  0  0  0
 17 19  2  0  0  0
 19 20  1  0  0  0
 33 35  1  0  0  0
 34 36  1  0  0  0
 28 29  1  0  0  0
  4  8  1  0  0  0
  6  9  1  0  0  0
 16 21  1  0  0  0
 18 22  1  0  0  0
 18 23  1  0  0  0
M  END
> <minimizedAffinity>
-7.16095

$$$$
1TQ4_GDP_A_500


 36 38  0  0  0  0  0  0  0  0999 V2000
   13.0902   25.0560   39.4718 C   0  0  0  0  0  0  0  0  0  0  0  0
   13.7759   25.6749   40.6268 O   0  0  0  0  0  0  0  0  0  0  0  0
   11.9022   24.3262   40.1983 C   0  0  0  0  0  0  0  0  0  0  0  0
   12.4285   22.9964   40.4985 O   0  0  0  0  0  0  0  0  0  0  0  0
   11.6299   25.1453   41.4699 C   0  0  0  0  0  0  0  0  0  0  0  0
   11.0560   24.4122   42.5476 O   0  0  0  0  0  0  0  0  0  0  0  0
   12.9758   25.7299   41.7959 C   0  0  0  0  0  0  0  0  0  0  0  0
   13.2541   23.0812   41.0006 H   0  0  0  0  0  0  0  0  0  0  0  0
   11.6529   23.6911   42.8021 H   0  0  0  0  0  0  0  0  0  0  0  0
   12.9485   27.1654   42.2592 N   0  0  0  0  0  0  0  0  0  0  0  0
   12.1125   28.2258   41.9965 C   0  0  0  0  0  0  0  0  0  0  0  0
   12.4535   29.3203   42.6162 N   0  0  0  0  0  0  0  0  0  0  0  0
   13.5845   28.9919   43.3429 C   0  0  0  0  0  0  0  0  0  0  0  0
   14.4424   29.7565   44.2339 C   0  0  0  0  0  0  0  0  0  0  0  0
   14.3248   30.9520   44.5448 O   0  0  0  0  0  0  0  0  0  0  0  0
   15.5308   28.9856   44.7825 N   0  0  0  0  0  0  0  0  0  0  0  0
   15.7718   27.6346   44.5091 C   0  0  0  0  0  0  0  0  0  0  0  0
   16.8277   27.0871   45.1088 N   0  0  0  0  0  0  0  0  0  0  0  0
   14.9681   26.8972   43.6655 N   0  0  0  0  0  0  0  0  0  0  0  0
   13.9210   27.6441   43.1414 C   0  0  0  0  0  0  0  0  0  0  0  0
   16.1504   29.4440   45.3951 H   0  0  0  0  0  0  0  0  0  0  0  0
   17.3898   27.6297   45.7079 H   0  0  0  0  0  0  0  0  0  0  0  0
   17.0460   26.1398   44.9531 H   0  0  0  0  0  0  0  0  0  0  0  0
   12.7329   26.0012   38.2958 C   0  0  0  0  0  0  0  0  0  0  0  0
   11.6805   26.8537   38.7237 O   0  0  0  0  0  0  0  0  0  0  0  0
   10.1792   26.8370   38.2060 P   0  0  0  0  0  0  0  0  0  0  0  0
   10.2117   27.4706   36.8606 O   0  0  0  0  0  0  0  0  0  0  0  0
    9.0887   27.3582   39.0565 O   0  0  0  0  0  0  0  0  0  0  0  0
    8.2438   27.2718   38.5880 H   0  0  0  0  0  0  0  0  0  0  0  0
   10.0635   25.3360   37.5933 O   0  0  0  0  0  0  0  0  0  0  0  0
    8.9669   24.9544   36.3665 P   0  0  0  0  0  0  0  0  0  0  0  0
    8.6355   23.5396   36.4357 O   0  0  0  0  0  0  0  0  0  0  0  0
    9.7494   25.3918   35.1683 O   0  0  0  0  0  0  0  0  0  0  0  0
    7.7707   25.9321   36.3194 O   0  0  0  0  0  0  0  0  0  0  0  0
    9.2298   25.2286   34.3656 H   0  0  0  0  0  0  0  0  0  0  0  0
    7.1704   25.6742   35.6024 H   0  0  0  0  0  0  0  0  0  0  0  0
 31 32  2  0  0  0
 31 33  1  0  0  0
 31 34  1  0  0  0
 31 30  1  0  0  0
 30 26  1  0  0  0
 26 27  2  0  0  0
 26 28  1  0  0  0
 26 25  1  0  0  0
 25 24  1  0  0  0
 24  1  1  0  0  0
  1  2  1  0  0  0
  1  3  1  0  0  0
  2  7  1  0  0  0
  3  4  1  0  0  0
  3  5  1  0  0  0
  5  6  1  0  0  0
  5  7  1  0  0  0
  7 10  1  0  0  0
 10 11  1  0  0  0
 10 20  1  0  0  0
 11 12  2  0  0  0
 12 13  1  0  0  0
 13 14  1  0  0  0
 13 20  2  0  0  0
 14 15  2  0  0  0
 14 16  1  0  0  0
 16 17  1  0  0  0
 17 18  1  0  0  0
 17 19  2  0  0  0
 19 20  1  0  0  0
 33 35  1  0  0  0
 34 36  1  0  0  0
 28 29  1  0  0  0
  4  8  1  0  0  0
  6  9  1  0  0  0
 16 21  1  0  0  0
 18 22  1  0  0  0
 18 23  1  0  0  0
M  END
> <minimizedAffinity>
-7.06962

$$$$
