3PB9_1BN_X_390


 12 13  0  0  0  0  0  0  0  0999 V2000
    9.0744   13.9935  -16.7015 C   0  0  0  0  0  0  0  0  0  0  0  0
    8.2752   15.0975  -17.2401 C   0  0  0  0  0  0  0  0  0  0  0  0
    8.6250   16.3963  -17.1034 C   0  0  0  0  0  0  0  0  0  0  0  0
    7.0815   14.7366  -17.8447 C   0  0  0  0  0  0  0  0  0  0  0  0
    7.8183   17.4353  -17.5845 C   0  0  0  0  0  0  0  0  0  0  0  0
    6.2644   15.7171  -18.3996 C   0  0  0  0  0  0  0  0  0  0  0  0
    6.6832   17.0546  -18.2500 C   0  0  0  0  0  0  0  0  0  0  0  0
    8.1490   12.1043  -15.3287 C   0  0  0  0  0  0  0  0  0  0  0  0
    7.7763   11.8846  -14.0545 C   0  0  0  0  0  0  0  0  0  0  0  0
    8.4714   13.3872  -15.4643 N   0  0  0  0  0  0  0  0  0  0  0  0
    8.3270   13.9570  -14.2497 C   0  0  0  0  0  0  0  0  0  0  0  0
    7.8710   13.0825  -13.3851 N   0  0  0  0  0  0  0  0  0  0  0  0
  8  9  2  0  0  0
  8 10  1  0  0  0
  9 12  1  0  0  0
 10 11  1  0  0  0
 10  1  1  0  0  0
 11 12  2  0  0  0
  1  2  1  0  0  0
  2  3  2  0  0  0
  2  4  1  0  0  0
  3  5  1  0  0  0
  4  6  2  0  0  0
  5  7  2  0  0  0
  6  7  1  0  0  0
M  END
> <minimizedAffinity>
-6.44340

$$$$
3PB9_1BN_X_390


 12 13  0  0  0  0  0  0  0  0999 V2000
    9.0431   14.1029  -16.6680 C   0  0  0  0  0  0  0  0  0  0  0  0
    8.1518   15.1139  -17.2435 C   0  0  0  0  0  0  0  0  0  0  0  0
    6.9996   14.8048  -17.8798 C   0  0  0  0  0  0  0  0  0  0  0  0
    8.5974   16.4237  -17.1640 C   0  0  0  0  0  0  0  0  0  0  0  0
    6.1899   15.7867  -18.4645 C   0  0  0  0  0  0  0  0  0  0  0  0
    7.8092   17.4532  -17.6696 C   0  0  0  0  0  0  0  0  0  0  0  0
    6.6068   17.0817  -18.3044 C   0  0  0  0  0  0  0  0  0  0  0  0
    8.1638   12.1384  -15.3728 C   0  0  0  0  0  0  0  0  0  0  0  0
    7.8006   11.8578  -14.1078 C   0  0  0  0  0  0  0  0  0  0  0  0
    8.4579   13.4326  -15.4556 N   0  0  0  0  0  0  0  0  0  0  0  0
    8.3056   13.9479  -14.2179 C   0  0  0  0  0  0  0  0  0  0  0  0
    7.8718   13.0284  -13.3894 N   0  0  0  0  0  0  0  0  0  0  0  0
  8  9  2  0  0  0
  8 10  1  0  0  0
  9 12  1  0  0  0
 10 11  1  0  0  0
 10  1  1  0  0  0
 11 12  2  0  0  0
  1  2  1  0  0  0
  2  3  2  0  0  0
  2  4  1  0  0  0
  3  5  1  0  0  0
  4  6  2  0  0  0
  5  7  2  0  0  0
  6  7  1  0  0  0
M  END
> <minimizedAffinity>
-6.40115

$$$$
3PB9_1BN_X_390


 12 13  0  0  0  0  0  0  0  0999 V2000
    8.7936   15.4169  -15.3442 C   0  0  0  0  0  0  0  0  0  0  0  0
    8.7520   15.6714  -16.7867 C   0  0  0  0  0  0  0  0  0  0  0  0
    9.1395   14.7606  -17.7077 C   0  0  0  0  0  0  0  0  0  0  0  0
    8.3562   16.9457  -17.1614 C   0  0  0  0  0  0  0  0  0  0  0  0
    9.1368   15.0463  -19.0789 C   0  0  0  0  0  0  0  0  0  0  0  0
    8.2712   17.2734  -18.5113 C   0  0  0  0  0  0  0  0  0  0  0  0
    8.6655   16.2828  -19.4332 C   0  0  0  0  0  0  0  0  0  0  0  0
    8.6930   13.3541  -13.9141 C   0  0  0  0  0  0  0  0  0  0  0  0
    7.9436   12.2405  -13.8187 C   0  0  0  0  0  0  0  0  0  0  0  0
    8.2987   14.0441  -14.9803 N   0  0  0  0  0  0  0  0  0  0  0  0
    7.2713   13.3628  -15.5288 C   0  0  0  0  0  0  0  0  0  0  0  0
    7.0582   12.2482  -14.8712 N   0  0  0  0  0  0  0  0  0  0  0  0
  8  9  2  0  0  0
  8 10  1  0  0  0
  9 12  1  0  0  0
 10 11  1  0  0  0
 10  1  1  0  0  0
 11 12  2  0  0  0
  1  2  1  0  0  0
  2  3  2  0  0  0
  2  4  1  0  0  0
  3  5  1  0  0  0
  4  6  2  0  0  0
  5  7  2  0  0  0
  6  7  1  0  0  0
M  END
> <minimizedAffinity>
-6.28891

$$$$
3PB9_1BN_X_390


 12 13  0  0  0  0  0  0  0  0999 V2000
    8.9929   15.3519  -17.1225 C   0  0  0  0  0  0  0  0  0  0  0  0
    8.4946   14.3482  -16.1781 C   0  0  0  0  0  0  0  0  0  0  0  0
    7.4421   13.5426  -16.4453 C   0  0  0  0  0  0  0  0  0  0  0  0
    9.1250   14.3181  -14.9443 C   0  0  0  0  0  0  0  0  0  0  0  0
    6.9542   12.6253  -15.5061 C   0  0  0  0  0  0  0  0  0  0  0  0
    8.7295   13.3862  -13.9893 C   0  0  0  0  0  0  0  0  0  0  0  0
    7.6418   12.5544  -14.3235 C   0  0  0  0  0  0  0  0  0  0  0  0
    8.3987   17.6664  -16.3477 C   0  0  0  0  0  0  0  0  0  0  0  0
    7.5677   18.6596  -16.7135 C   0  0  0  0  0  0  0  0  0  0  0  0
    8.1698   16.6106  -17.1231 N   0  0  0  0  0  0  0  0  0  0  0  0
    7.2085   16.9701  -17.9990 C   0  0  0  0  0  0  0  0  0  0  0  0
    6.7970   18.1906  -17.7518 N   0  0  0  0  0  0  0  0  0  0  0  0
  8  9  2  0  0  0
  8 10  1  0  0  0
  9 12  1  0  0  0
 10 11  1  0  0  0
 10  1  1  0  0  0
 11 12  2  0  0  0
  1  2  1  0  0  0
  2  3  2  0  0  0
  2  4  1  0  0  0
  3  5  1  0  0  0
  4  6  2  0  0  0
  5  7  2  0  0  0
  6  7  1  0  0  0
M  END
> <minimizedAffinity>
-5.79036

$$$$
3PB9_1BN_X_390


 12 13  0  0  0  0  0  0  0  0999 V2000
    8.4211   15.4922  -16.6352 C   0  0  0  0  0  0  0  0  0  0  0  0
    8.2318   14.3538  -15.7320 C   0  0  0  0  0  0  0  0  0  0  0  0
    8.9188   14.2069  -14.5767 C   0  0  0  0  0  0  0  0  0  0  0  0
    7.3477   13.3801  -16.1688 C   0  0  0  0  0  0  0  0  0  0  0  0
    8.7552   13.0844  -13.7553 C   0  0  0  0  0  0  0  0  0  0  0  0
    7.0927   12.2700  -15.3690 C   0  0  0  0  0  0  0  0  0  0  0  0
    7.8177   12.1732  -14.1642 C   0  0  0  0  0  0  0  0  0  0  0  0
    7.0938   15.4105  -18.7664 C   0  0  0  0  0  0  0  0  0  0  0  0
    7.2941   15.0818  -20.0558 C   0  0  0  0  0  0  0  0  0  0  0  0
    8.1979   15.1340  -18.0787 N   0  0  0  0  0  0  0  0  0  0  0  0
    9.1005   14.6601  -18.9626 C   0  0  0  0  0  0  0  0  0  0  0  0
    8.5707   14.5806  -20.1598 N   0  0  0  0  0  0  0  0  0  0  0  0
  8  9  2  0  0  0
  8 10  1  0  0  0
  9 12  1  0  0  0
 10 11  1  0  0  0
 10  1  1  0  0  0
 11 12  2  0  0  0
  1  2  1  0  0  0
  2  3  2  0  0  0
  2  4  1  0  0  0
  3  5  1  0  0  0
  4  6  2  0  0  0
  5  7  2  0  0  0
  6  7  1  0  0  0
M  END
> <minimizedAffinity>
-5.70718

$$$$
3PB9_1BN_X_390


 12 13  0  0  0  0  0  0  0  0999 V2000
    8.9269   14.7294  -17.7138 C   0  0  0  0  0  0  0  0  0  0  0  0
    8.6460   16.1389  -17.4279 C   0  0  0  0  0  0  0  0  0  0  0  0
    8.6629   16.6556  -16.1786 C   0  0  0  0  0  0  0  0  0  0  0  0
    8.2832   16.9131  -18.5186 C   0  0  0  0  0  0  0  0  0  0  0  0
    8.3422   17.9955  -15.9267 C   0  0  0  0  0  0  0  0  0  0  0  0
    8.0137   18.2674  -18.3452 C   0  0  0  0  0  0  0  0  0  0  0  0
    8.0655   18.7632  -17.0268 C   0  0  0  0  0  0  0  0  0  0  0  0
    7.2143   13.4890  -16.3578 C   0  0  0  0  0  0  0  0  0  0  0  0
    7.1917   12.5393  -15.4047 C   0  0  0  0  0  0  0  0  0  0  0  0
    8.4797   13.8107  -16.6102 N   0  0  0  0  0  0  0  0  0  0  0  0
    9.2466   13.0249  -15.8260 C   0  0  0  0  0  0  0  0  0  0  0  0
    8.4956   12.2725  -15.0578 N   0  0  0  0  0  0  0  0  0  0  0  0
  8  9  2  0  0  0
  8 10  1  0  0  0
  9 12  1  0  0  0
 10 11  1  0  0  0
 10  1  1  0  0  0
 11 12  2  0  0  0
  1  2  1  0  0  0
  2  3  2  0  0  0
  2  4  1  0  0  0
  3  5  1  0  0  0
  4  6  2  0  0  0
  5  7  2  0  0  0
  6  7  1  0  0  0
M  END
> <minimizedAffinity>
-5.47055

$$$$
3PB9_1BN_X_390


 12 13  0  0  0  0  0  0  0  0999 V2000
    9.0047   15.3477  -16.7183 C   0  0  0  0  0  0  0  0  0  0  0  0
    8.2631   15.1821  -17.9713 C   0  0  0  0  0  0  0  0  0  0  0  0
    8.8559   14.8532  -19.1411 C   0  0  0  0  0  0  0  0  0  0  0  0
    6.9063   15.4576  -17.9080 C   0  0  0  0  0  0  0  0  0  0  0  0
    8.1314   14.7495  -20.3353 C   0  0  0  0  0  0  0  0  0  0  0  0
    6.1183   15.3118  -19.0458 C   0  0  0  0  0  0  0  0  0  0  0  0
    6.7794   14.9461  -20.2358 C   0  0  0  0  0  0  0  0  0  0  0  0
    8.4187   14.3106  -14.5067 C   0  0  0  0  0  0  0  0  0  0  0  0
    8.2125   13.0794  -14.0042 C   0  0  0  0  0  0  0  0  0  0  0  0
    8.8133   14.1951  -15.7713 N   0  0  0  0  0  0  0  0  0  0  0  0
    8.8177   12.8772  -16.0606 C   0  0  0  0  0  0  0  0  0  0  0  0
    8.4961   12.1748  -15.0007 N   0  0  0  0  0  0  0  0  0  0  0  0
  8  9  2  0  0  0
  8 10  1  0  0  0
  9 12  1  0  0  0
 10 11  1  0  0  0
 10  1  1  0  0  0
 11 12  2  0  0  0
  1  2  1  0  0  0
  2  3  2  0  0  0
  2  4  1  0  0  0
  3  5  1  0  0  0
  4  6  2  0  0  0
  5  7  2  0  0  0
  6  7  1  0  0  0
M  END
> <minimizedAffinity>
-5.45041

$$$$
3PB9_1BN_X_390


 12 13  0  0  0  0  0  0  0  0999 V2000
    6.8714   14.7919  -17.6739 C   0  0  0  0  0  0  0  0  0  0  0  0
    7.5029   14.2269  -16.4782 C   0  0  0  0  0  0  0  0  0  0  0  0
    7.1117   13.0595  -15.9195 C   0  0  0  0  0  0  0  0  0  0  0  0
    8.4925   15.0035  -15.8968 C   0  0  0  0  0  0  0  0  0  0  0  0
    7.6989   12.5655  -14.7478 C   0  0  0  0  0  0  0  0  0  0  0  0
    9.1594   14.5399  -14.7666 C   0  0  0  0  0  0  0  0  0  0  0  0
    8.7296   13.3074  -14.2345 C   0  0  0  0  0  0  0  0  0  0  0  0
    8.5478   14.6360  -19.5381 C   0  0  0  0  0  0  0  0  0  0  0  0
    9.2325   15.4736  -20.3384 C   0  0  0  0  0  0  0  0  0  0  0  0
    7.8688   15.3545  -18.6488 N   0  0  0  0  0  0  0  0  0  0  0  0
    8.1128   16.6522  -18.9266 C   0  0  0  0  0  0  0  0  0  0  0  0
    8.9643   16.7557  -19.9188 N   0  0  0  0  0  0  0  0  0  0  0  0
  8  9  2  0  0  0
  8 10  1  0  0  0
  9 12  1  0  0  0
 10 11  1  0  0  0
 10  1  1  0  0  0
 11 12  2  0  0  0
  1  2  1  0  0  0
  2  3  2  0  0  0
  2  4  1  0  0  0
  3  5  1  0  0  0
  4  6  2  0  0  0
  5  7  2  0  0  0
  6  7  1  0  0  0
M  END
> <minimizedAffinity>
-5.34517

$$$$
3PB9_1BN_X_390


 12 13  0  0  0  0  0  0  0  0999 V2000
    8.7338   16.0817  -18.9823 C   0  0  0  0  0  0  0  0  0  0  0  0
    8.7900   15.7035  -17.5677 C   0  0  0  0  0  0  0  0  0  0  0  0
    8.6142   16.5880  -16.5603 C   0  0  0  0  0  0  0  0  0  0  0  0
    9.1117   14.3800  -17.3113 C   0  0  0  0  0  0  0  0  0  0  0  0
    8.7218   16.2105  -15.2158 C   0  0  0  0  0  0  0  0  0  0  0  0
    9.1721   13.9261  -15.9971 C   0  0  0  0  0  0  0  0  0  0  0  0
    8.9601   14.8818  -14.9829 C   0  0  0  0  0  0  0  0  0  0  0  0
    7.6015   14.6021  -20.6671 C   0  0  0  0  0  0  0  0  0  0  0  0
    6.3514   14.2043  -20.9668 C   0  0  0  0  0  0  0  0  0  0  0  0
    7.5404   15.5049  -19.6927 N   0  0  0  0  0  0  0  0  0  0  0  0
    6.2382   15.6396  -19.3659 C   0  0  0  0  0  0  0  0  0  0  0  0
    5.4912   14.8946  -20.1451 N   0  0  0  0  0  0  0  0  0  0  0  0
  8  9  2  0  0  0
  8 10  1  0  0  0
  9 12  1  0  0  0
 10 11  1  0  0  0
 10  1  1  0  0  0
 11 12  2  0  0  0
  1  2  1  0  0  0
  2  3  2  0  0  0
  2  4  1  0  0  0
  3  5  1  0  0  0
  4  6  2  0  0  0
  5  7  2  0  0  0
  6  7  1  0  0  0
M  END
> <minimizedAffinity>
-5.27397

$$$$
3PB9_1BN_X_390


 12 13  0  0  0  0  0  0  0  0999 V2000
    8.5484   14.8651  -17.7331 C   0  0  0  0  0  0  0  0  0  0  0  0
    8.3279   14.1449  -16.4761 C   0  0  0  0  0  0  0  0  0  0  0  0
    7.4175   13.1540  -16.3438 C   0  0  0  0  0  0  0  0  0  0  0  0
    9.0642   14.5912  -15.3901 C   0  0  0  0  0  0  0  0  0  0  0  0
    7.1911   12.5148  -15.1183 C   0  0  0  0  0  0  0  0  0  0  0  0
    8.9323   13.9565  -14.1585 C   0  0  0  0  0  0  0  0  0  0  0  0
    7.9860   12.9151  -14.0770 C   0  0  0  0  0  0  0  0  0  0  0  0
    6.4620   16.2104  -18.1169 C   0  0  0  0  0  0  0  0  0  0  0  0
    5.4941   16.3091  -19.0464 C   0  0  0  0  0  0  0  0  0  0  0  0
    7.2667   15.2033  -18.4434 N   0  0  0  0  0  0  0  0  0  0  0  0
    6.8070   14.6971  -19.6066 C   0  0  0  0  0  0  0  0  0  0  0  0
    5.7136   15.3200  -19.9766 N   0  0  0  0  0  0  0  0  0  0  0  0
  8  9  2  0  0  0
  8 10  1  0  0  0
  9 12  1  0  0  0
 10 11  1  0  0  0
 10  1  1  0  0  0
 11 12  2  0  0  0
  1  2  1  0  0  0
  2  3  2  0  0  0
  2  4  1  0  0  0
  3  5  1  0  0  0
  4  6  2  0  0  0
  5  7  2  0  0  0
  6  7  1  0  0  0
M  END
> <minimizedAffinity>
-5.26639

$$$$
