2YMD_SRO_A_1213


 17 18  0  0  0  0  0  0  0  0999 V2000
   13.3416   10.4341   11.0917 O   0  0  0  0  0  0  0  0  0  0  0  0
   13.3686   10.0331    9.7629 C   0  0  0  0  0  0  0  0  0  0  0  0
   14.3920   10.4494    8.8958 C   0  0  0  0  0  0  0  0  0  0  0  0
   14.4143   10.0322    7.5648 C   0  0  0  0  0  0  0  0  0  0  0  0
   13.3887    9.1914    7.0728 C   0  0  0  0  0  0  0  0  0  0  0  0
   13.1695    8.6336    5.8225 N   0  0  0  0  0  0  0  0  0  0  0  0
   12.0429    7.8906    5.8603 C   0  0  0  0  0  0  0  0  0  0  0  0
   11.5282    7.9578    7.1542 C   0  0  0  0  0  0  0  0  0  0  0  0
   12.3883    8.7791    7.9200 C   0  0  0  0  0  0  0  0  0  0  0  0
   12.3691    9.1936    9.2734 C   0  0  0  0  0  0  0  0  0  0  0  0
   12.6501   10.1454   11.6543 H   0  0  0  0  0  0  0  0  0  0  0  0
   13.7439    8.7593    5.0329 H   0  0  0  0  0  0  0  0  0  0  0  0
   10.2980    7.3022    7.6807 C   0  0  0  0  0  0  0  0  0  0  0  0
   10.1239    5.8496    7.4297 C   0  0  0  0  0  0  0  0  0  0  0  0
   11.2892    5.0285    7.5510 N   0  0  0  0  0  0  0  0  0  0  0  0
   11.9707    5.2983    6.8416 H   0  0  0  0  0  0  0  0  0  0  0  0
   11.0311    4.0504    7.4199 H   0  0  0  0  0  0  0  0  0  0  0  0
  1  2  1  0  0  0
  2 10  2  0  0  0
  2  3  1  0  0  0
  3  4  2  0  0  0
  4  5  1  0  0  0
  5  6  1  0  0  0
  5  9  2  0  0  0
  6  7  1  0  0  0
  7  8  2  0  0  0
  8 13  1  0  0  0
  8  9  1  0  0  0
  9 10  1  0  0  0
 13 14  1  0  0  0
 14 15  1  0  0  0
  1 11  1  0  0  0
  6 12  1  0  0  0
 15 16  1  0  0  0
 15 17  1  0  0  0
M  END
> <minimizedAffinity>
-7.82821

$$$$
2YMD_SRO_A_1213


 17 18  0  0  0  0  0  0  0  0999 V2000
    9.6474    5.9134    8.1056 O   0  0  0  0  0  0  0  0  0  0  0  0
   10.6209    6.6780    7.4771 C   0  0  0  0  0  0  0  0  0  0  0  0
   10.9347    6.4886    6.1213 C   0  0  0  0  0  0  0  0  0  0  0  0
   11.9079    7.2696    5.4975 C   0  0  0  0  0  0  0  0  0  0  0  0
   12.6008    8.2558    6.2378 C   0  0  0  0  0  0  0  0  0  0  0  0
   13.5908    9.1576    5.8782 N   0  0  0  0  0  0  0  0  0  0  0  0
   13.9240    9.9019    6.9541 C   0  0  0  0  0  0  0  0  0  0  0  0
   13.1339    9.4858    8.0247 C   0  0  0  0  0  0  0  0  0  0  0  0
   12.2930    8.4461    7.5636 C   0  0  0  0  0  0  0  0  0  0  0  0
   11.2990    7.6612    8.1960 C   0  0  0  0  0  0  0  0  0  0  0  0
    9.4526    6.0551    9.0111 H   0  0  0  0  0  0  0  0  0  0  0  0
   13.9875    9.2417    4.9811 H   0  0  0  0  0  0  0  0  0  0  0  0
   13.1399   10.0102    9.4196 C   0  0  0  0  0  0  0  0  0  0  0  0
   13.3970   11.4588    9.6154 C   0  0  0  0  0  0  0  0  0  0  0  0
   14.7281   11.8355    9.9805 N   0  0  0  0  0  0  0  0  0  0  0  0
   14.9542   11.4425   10.8941 H   0  0  0  0  0  0  0  0  0  0  0  0
   14.7944   12.8525   10.0220 H   0  0  0  0  0  0  0  0  0  0  0  0
  1  2  1  0  0  0
  2 10  2  0  0  0
  2  3  1  0  0  0
  3  4  2  0  0  0
  4  5  1  0  0  0
  5  6  1  0  0  0
  5  9  2  0  0  0
  6  7  1  0  0  0
  7  8  2  0  0  0
  8 13  1  0  0  0
  8  9  1  0  0  0
  9 10  1  0  0  0
 13 14  1  0  0  0
 14 15  1  0  0  0
  1 11  1  0  0  0
  6 12  1  0  0  0
 15 16  1  0  0  0
 15 17  1  0  0  0
M  END
> <minimizedAffinity>
-7.11076

$$$$
2YMD_SRO_A_1213


 17 18  0  0  0  0  0  0  0  0999 V2000
   11.5679    7.0502    4.2632 O   0  0  0  0  0  0  0  0  0  0  0  0
   11.4909    7.3508    5.6163 C   0  0  0  0  0  0  0  0  0  0  0  0
   10.4959    6.7890    6.4330 C   0  0  0  0  0  0  0  0  0  0  0  0
   10.4342    7.0906    7.7937 C   0  0  0  0  0  0  0  0  0  0  0  0
   11.3732    7.9837    8.3606 C   0  0  0  0  0  0  0  0  0  0  0  0
   11.5443    8.4471    9.6562 N   0  0  0  0  0  0  0  0  0  0  0  0
   12.6000    9.2880    9.6900 C   0  0  0  0  0  0  0  0  0  0  0  0
   13.1284    9.3649    8.4022 C   0  0  0  0  0  0  0  0  0  0  0  0
   12.3504    8.5317    7.5647 C   0  0  0  0  0  0  0  0  0  0  0  0
   12.4206    8.2195    6.1858 C   0  0  0  0  0  0  0  0  0  0  0  0
   12.2393    7.4354    3.7351 H   0  0  0  0  0  0  0  0  0  0  0  0
   10.9851    8.2020   10.4284 H   0  0  0  0  0  0  0  0  0  0  0  0
   14.2977   10.1666    7.9434 C   0  0  0  0  0  0  0  0  0  0  0  0
   15.1076   10.8647    8.9729 C   0  0  0  0  0  0  0  0  0  0  0  0
   14.4540   11.8946    9.7206 N   0  0  0  0  0  0  0  0  0  0  0  0
   14.1872   12.6532    9.0931 H   0  0  0  0  0  0  0  0  0  0  0  0
   15.0889   12.2514   10.4347 H   0  0  0  0  0  0  0  0  0  0  0  0
  1  2  1  0  0  0
  2 10  2  0  0  0
  2  3  1  0  0  0
  3  4  2  0  0  0
  4  5  1  0  0  0
  5  6  1  0  0  0
  5  9  2  0  0  0
  6  7  1  0  0  0
  7  8  2  0  0  0
  8 13  1  0  0  0
  8  9  1  0  0  0
  9 10  1  0  0  0
 13 14  1  0  0  0
 14 15  1  0  0  0
  1 11  1  0  0  0
  6 12  1  0  0  0
 15 16  1  0  0  0
 15 17  1  0  0  0
M  END
> <minimizedAffinity>
-5.64835

$$$$
2YMD_SRO_A_1213


 17 18  0  0  0  0  0  0  0  0999 V2000
   11.4857    6.9611    4.5181 O   0  0  0  0  0  0  0  0  0  0  0  0
   11.5501    7.3863    5.8381 C   0  0  0  0  0  0  0  0  0  0  0  0
   10.6716    6.8816    6.8108 C   0  0  0  0  0  0  0  0  0  0  0  0
   10.7519    7.3088    8.1364 C   0  0  0  0  0  0  0  0  0  0  0  0
   11.7181    8.2725    8.5087 C   0  0  0  0  0  0  0  0  0  0  0  0
   12.0171    8.8598    9.7285 N   0  0  0  0  0  0  0  0  0  0  0  0
   13.0414    9.7239    9.5649 C   0  0  0  0  0  0  0  0  0  0  0  0
   13.4201    9.6909    8.2236 C   0  0  0  0  0  0  0  0  0  0  0  0
   12.5817    8.7650    7.5599 C   0  0  0  0  0  0  0  0  0  0  0  0
   12.5081    8.3257    6.2162 C   0  0  0  0  0  0  0  0  0  0  0  0
   12.0808    7.3099    3.8840 H   0  0  0  0  0  0  0  0  0  0  0  0
   11.5559    8.6761   10.5787 H   0  0  0  0  0  0  0  0  0  0  0  0
   14.5037   10.4720    7.5631 C   0  0  0  0  0  0  0  0  0  0  0  0
   15.0255    9.9750    6.2655 C   0  0  0  0  0  0  0  0  0  0  0  0
   14.8563   10.8296    5.1306 N   0  0  0  0  0  0  0  0  0  0  0  0
   13.8614   10.9496    4.9407 H   0  0  0  0  0  0  0  0  0  0  0  0
   15.3093   10.4103    4.3186 H   0  0  0  0  0  0  0  0  0  0  0  0
  1  2  1  0  0  0
  2 10  2  0  0  0
  2  3  1  0  0  0
  3  4  2  0  0  0
  4  5  1  0  0  0
  5  6  1  0  0  0
  5  9  2  0  0  0
  6  7  1  0  0  0
  7  8  2  0  0  0
  8 13  1  0  0  0
  8  9  1  0  0  0
  9 10  1  0  0  0
 13 14  1  0  0  0
 14 15  1  0  0  0
  1 11  1  0  0  0
  6 12  1  0  0  0
 15 16  1  0  0  0
 15 17  1  0  0  0
M  END
> <minimizedAffinity>
-5.48438

$$$$
2YMD_SRO_A_1213


 17 18  0  0  0  0  0  0  0  0999 V2000
   10.3140    6.5034    5.9775 O   0  0  0  0  0  0  0  0  0  0  0  0
   11.0012    7.3216    6.8638 C   0  0  0  0  0  0  0  0  0  0  0  0
   10.6134    7.4273    8.2096 C   0  0  0  0  0  0  0  0  0  0  0  0
   11.3174    8.2451    9.0937 C   0  0  0  0  0  0  0  0  0  0  0  0
   12.4273    8.9906    8.6319 C   0  0  0  0  0  0  0  0  0  0  0  0
   13.2921    9.8599    9.2791 N   0  0  0  0  0  0  0  0  0  0  0  0
   14.2042   10.3172    8.3951 C   0  0  0  0  0  0  0  0  0  0  0  0
   13.9355    9.7303    7.1594 C   0  0  0  0  0  0  0  0  0  0  0  0
   12.8115    8.8859    7.3166 C   0  0  0  0  0  0  0  0  0  0  0  0
   12.1043    8.0493    6.4201 C   0  0  0  0  0  0  0  0  0  0  0  0
   10.5885    6.4465    5.0834 H   0  0  0  0  0  0  0  0  0  0  0  0
   13.2480   10.1047   10.2317 H   0  0  0  0  0  0  0  0  0  0  0  0
   14.6699    9.9274    5.8778 C   0  0  0  0  0  0  0  0  0  0  0  0
   14.5875   11.2597    5.2286 C   0  0  0  0  0  0  0  0  0  0  0  0
   14.8544   11.3119    3.8240 N   0  0  0  0  0  0  0  0  0  0  0  0
   15.8217   11.0380    3.6513 H   0  0  0  0  0  0  0  0  0  0  0  0
   14.7043   12.2619    3.4844 H   0  0  0  0  0  0  0  0  0  0  0  0
  1  2  1  0  0  0
  2 10  2  0  0  0
  2  3  1  0  0  0
  3  4  2  0  0  0
  4  5  1  0  0  0
  5  6  1  0  0  0
  5  9  2  0  0  0
  6  7  1  0  0  0
  7  8  2  0  0  0
  8 13  1  0  0  0
  8  9  1  0  0  0
  9 10  1  0  0  0
 13 14  1  0  0  0
 14 15  1  0  0  0
  1 11  1  0  0  0
  6 12  1  0  0  0
 15 16  1  0  0  0
 15 17  1  0  0  0
M  END
> <minimizedAffinity>
-5.31902

$$$$
