5EPN_5R2_A_1203


 56 61  0  0  0  0  0  0  0  0999 V2000
  -15.1279  -18.8107   17.3624 C   0  0  0  0  0  0  0  0  0  0  0  0
  -17.3372  -20.5283   16.2763 C   0  0  0  0  0  0  0  0  0  0  0  0
  -16.7016  -22.3635   17.9680 C   0  0  0  0  0  0  0  0  0  0  0  0
  -15.1913  -24.3304   17.4164 C   0  0  0  0  0  0  0  0  0  0  0  0
  -14.0106  -24.1172   14.5905 C   0  0  0  0  0  0  0  0  0  0  0  0
  -12.9249  -24.0490   13.5882 C   0  0  0  0  0  0  0  0  0  0  0  0
  -12.6789  -22.8338   12.7975 C   0  0  0  0  0  0  0  0  0  0  0  0
  -14.0512  -17.6505   17.2238 C   0  0  0  0  0  0  0  0  0  0  0  0
  -12.9850  -18.2376   16.7847 C   0  0  0  0  0  0  0  0  0  0  0  0
  -13.4013  -19.5458   16.0469 C   0  0  0  0  0  0  0  0  0  0  0  0
  -14.9292  -19.6087   16.3564 N   0  0  0  0  0  0  0  0  0  0  0  0
  -15.9049  -20.4759   15.7552 C   0  0  0  0  0  0  0  0  0  0  0  0
  -15.6128  -21.1644   14.8962 O   0  0  0  0  0  0  0  0  0  0  0  0
  -17.7096  -21.8761   16.9100 C   0  0  0  0  0  0  0  0  0  0  0  0
  -16.4939  -23.8575   17.9888 C   0  0  0  0  0  0  0  0  0  0  0  0
  -15.3693  -25.3040   16.3049 C   0  0  0  0  0  0  0  0  0  0  0  0
  -14.1642  -25.2444   15.3610 C   0  0  0  0  0  0  0  0  0  0  0  0
  -12.1700  -22.8169   14.2210 C   0  0  0  0  0  0  0  0  0  0  0  0
  -12.5301  -21.4886   14.6434 N   0  0  0  0  0  0  0  0  0  0  0  0
  -13.0411  -21.0682   15.8861 C   0  0  0  0  0  0  0  0  0  0  0  0
  -13.1935  -21.8978   16.7240 O   0  0  0  0  0  0  0  0  0  0  0  0
  -12.4017  -20.7788   13.9732 H   0  0  0  0  0  0  0  0  0  0  0  0
  -10.8482  -23.3791   14.8547 C   0  0  0  0  0  0  0  0  0  0  0  0
  -10.4166  -24.3727   14.4927 O   0  0  0  0  0  0  0  0  0  0  0  0
  -10.1301  -22.7399   15.8870 N   0  0  0  0  0  0  0  0  0  0  0  0
  -10.4892  -21.8764   16.1946 H   0  0  0  0  0  0  0  0  0  0  0  0
   -8.8397  -23.2365   16.5966 S   0  0  0  0  0  0  0  0  0  0  0  0
   -8.0137  -23.7955   15.7612 O   0  0  0  0  0  0  0  0  0  0  0  0
   -9.1615  -24.2082   17.4139 O   0  0  0  0  0  0  0  0  0  0  0  0
   -8.0937  -22.0024   17.6810 C   0  0  0  0  0  0  0  0  0  0  0  0
   -6.9270  -21.3576   16.9847 C   0  0  0  0  0  0  0  0  0  0  0  0
   -6.6872  -22.3720   18.0213 C   0  0  0  0  0  0  0  0  0  0  0  0
  -18.3028  -20.1710   15.3676 N   0  0  0  0  0  0  0  0  0  0  0  0
  -18.9663  -18.9634   15.4543 C   0  0  0  0  0  0  0  0  0  0  0  0
  -18.5280  -18.1152   16.1318 O   0  0  0  0  0  0  0  0  0  0  0  0
  -18.5273  -20.7910   14.6366 H   0  0  0  0  0  0  0  0  0  0  0  0
  -19.5699  -18.7468   14.2365 O   0  0  0  0  0  0  0  0  0  0  0  0
  -20.9555  -18.6653   14.0362 C   0  0  0  0  0  0  0  0  0  0  0  0
  -21.6836  -19.8293   14.6597 C   0  0  0  0  0  0  0  0  0  0  0  0
  -21.2140  -18.6682   12.5416 C   0  0  0  0  0  0  0  0  0  0  0  0
  -21.4535  -17.3568   14.6204 C   0  0  0  0  0  0  0  0  0  0  0  0
  -14.5808  -16.7178   16.3213 O   0  0  0  0  0  0  0  0  0  0  0  0
  -13.9038  -15.0254   14.8378 C   0  0  0  0  0  0  0  0  0  0  0  0
  -13.8116  -15.6177   16.0687 C   0  0  0  0  0  0  0  0  0  0  0  0
  -13.0528  -15.0861   16.9706 N   0  0  0  0  0  0  0  0  0  0  0  0
  -12.3552  -13.9639   16.6437 C   0  0  0  0  0  0  0  0  0  0  0  0
  -11.5305  -13.3845   17.6166 C   0  0  0  0  0  0  0  0  0  0  0  0
  -10.7834  -12.2395   17.3182 C   0  0  0  0  0  0  0  0  0  0  0  0
  -10.8854  -11.6728   16.0524 C   0  0  0  0  0  0  0  0  0  0  0  0
  -11.7106  -12.2377   15.0960 C   0  0  0  0  0  0  0  0  0  0  0  0
  -12.4481  -13.3885   15.4212 C   0  0  0  0  0  0  0  0  0  0  0  0
  -13.2286  -13.9574   14.5059 N   0  0  0  0  0  0  0  0  0  0  0  0
  -15.1324  -14.9802   12.6183 C   0  0  0  0  0  0  0  0  0  0  0  0
  -14.7904  -15.6961   13.8424 C   0  0  0  0  0  0  0  0  0  0  0  0
   -9.9539  -11.6167   18.2322 O   0  0  0  0  0  0  0  0  0  0  0  0
   -9.0112  -12.3540   18.9201 C   0  0  0  0  0  0  0  0  0  0  0  0
  1  8  1  0  0  0
  1 11  1  0  0  0
  2 12  1  0  0  0
  2 14  1  0  0  0
  2 33  1  0  0  0
  3 14  1  0  0  0
  3 15  1  0  0  0
  4 15  1  0  0  0
  4 16  1  0  0  0
  5  6  1  0  0  0
  5 17  2  0  0  0
  6  7  1  0  0  0
  6 18  1  0  0  0
  7 18  1  0  0  0
 53 54  1  0  0  0
 54 43  1  0  0  0
 43 44  2  0  0  0
 43 52  1  0  0  0
 44 42  1  0  0  0
 44 45  1  0  0  0
 42  8  1  0  0  0
  8  9  1  0  0  0
  9 10  1  0  0  0
 10 11  1  0  0  0
 10 20  1  0  0  0
 11 12  1  0  0  0
 12 13  2  0  0  0
 16 17  1  0  0  0
 18 19  1  0  0  0
 18 23  1  0  0  0
 19 20  1  0  0  0
 20 21  2  0  0  0
 23 24  2  0  0  0
 23 25  1  0  0  0
 25 27  1  0  0  0
 27 28  2  0  0  0
 27 29  2  0  0  0
 27 30  1  0  0  0
 30 31  1  0  0  0
 30 32  1  0  0  0
 31 32  1  0  0  0
 33 34  1  0  0  0
 34 35  2  0  0  0
 34 37  1  0  0  0
 37 38  1  0  0  0
 38 39  1  0  0  0
 38 40  1  0  0  0
 38 41  1  0  0  0
 45 46  2  0  0  0
 46 47  1  0  0  0
 46 51  1  0  0  0
 47 48  2  0  0  0
 48 55  1  0  0  0
 48 49  1  0  0  0
 55 56  1  0  0  0
 49 50  2  0  0  0
 50 51  1  0  0  0
 51 52  2  0  0  0
 19 22  1  0  0  0
 25 26  1  0  0  0
 33 36  1  0  0  0
M  END
> <minimizedAffinity>
-11.52829

$$$$
5EPN_5R2_A_1203


 56 61  0  0  0  0  0  0  0  0999 V2000
  -15.1269  -18.6663   17.3082 C   0  0  0  0  0  0  0  0  0  0  0  0
  -17.3121  -20.4461   16.2748 C   0  0  0  0  0  0  0  0  0  0  0  0
  -16.6665  -22.2111   18.0360 C   0  0  0  0  0  0  0  0  0  0  0  0
  -15.1326  -24.1806   17.5648 C   0  0  0  0  0  0  0  0  0  0  0  0
  -13.9388  -24.0587   14.7390 C   0  0  0  0  0  0  0  0  0  0  0  0
  -12.8485  -24.0158   13.7403 C   0  0  0  0  0  0  0  0  0  0  0  0
  -12.6109  -22.8279   12.9067 C   0  0  0  0  0  0  0  0  0  0  0  0
  -14.0616  -17.5006   17.1325 C   0  0  0  0  0  0  0  0  0  0  0  0
  -12.9870  -18.0920   16.7206 C   0  0  0  0  0  0  0  0  0  0  0  0
  -13.3855  -19.4307   16.0294 C   0  0  0  0  0  0  0  0  0  0  0  0
  -14.9143  -19.4986   16.3332 N   0  0  0  0  0  0  0  0  0  0  0  0
  -15.8775  -20.3976   15.7594 C   0  0  0  0  0  0  0  0  0  0  0  0
  -15.5736  -21.1140   14.9277 O   0  0  0  0  0  0  0  0  0  0  0  0
  -17.6738  -21.7736   16.9558 C   0  0  0  0  0  0  0  0  0  0  0  0
  -16.4432  -23.7010   18.1128 C   0  0  0  0  0  0  0  0  0  0  0  0
  -15.2944  -25.1963   16.4889 C   0  0  0  0  0  0  0  0  0  0  0  0
  -14.0849  -25.1585   15.5497 C   0  0  0  0  0  0  0  0  0  0  0  0
  -12.1100  -22.7533   14.3312 C   0  0  0  0  0  0  0  0  0  0  0  0
  -12.4863  -21.4143   14.7026 N   0  0  0  0  0  0  0  0  0  0  0  0
  -13.0085  -20.9540   15.9265 C   0  0  0  0  0  0  0  0  0  0  0  0
  -13.1567  -21.7539   16.7935 O   0  0  0  0  0  0  0  0  0  0  0  0
  -12.3617  -20.7283   14.0075 H   0  0  0  0  0  0  0  0  0  0  0  0
  -10.7859  -23.2778   14.9919 C   0  0  0  0  0  0  0  0  0  0  0  0
  -10.3497  -24.2860   14.6792 O   0  0  0  0  0  0  0  0  0  0  0  0
  -10.0710  -22.5853   15.9915 N   0  0  0  0  0  0  0  0  0  0  0  0
  -10.4340  -21.7094   16.2563 H   0  0  0  0  0  0  0  0  0  0  0  0
   -8.7785  -23.0406   16.7247 S   0  0  0  0  0  0  0  0  0  0  0  0
   -8.0586  -22.0273   17.1088 O   0  0  0  0  0  0  0  0  0  0  0  0
   -8.0090  -23.6615   15.8654 O   0  0  0  0  0  0  0  0  0  0  0  0
   -9.0734  -24.2816   18.0007 C   0  0  0  0  0  0  0  0  0  0  0  0
  -10.0341  -23.7375   19.0218 C   0  0  0  0  0  0  0  0  0  0  0  0
   -8.5987  -23.8003   19.3325 C   0  0  0  0  0  0  0  0  0  0  0  0
  -18.2763  -20.1327   15.3487 N   0  0  0  0  0  0  0  0  0  0  0  0
  -18.8037  -18.8602   15.2557 C   0  0  0  0  0  0  0  0  0  0  0  0
  -18.2467  -17.9691   15.7718 O   0  0  0  0  0  0  0  0  0  0  0  0
  -18.5995  -20.8324   14.7362 H   0  0  0  0  0  0  0  0  0  0  0  0
  -19.4380  -18.7747   14.0373 O   0  0  0  0  0  0  0  0  0  0  0  0
  -20.7198  -18.2408   13.8409 C   0  0  0  0  0  0  0  0  0  0  0  0
  -21.3598  -18.7633   12.5794 C   0  0  0  0  0  0  0  0  0  0  0  0
  -20.5887  -16.7333   13.7369 C   0  0  0  0  0  0  0  0  0  0  0  0
  -21.5758  -18.5796   15.0467 C   0  0  0  0  0  0  0  0  0  0  0  0
  -14.5961  -16.6073   16.1937 O   0  0  0  0  0  0  0  0  0  0  0  0
  -14.1757  -14.3909   15.5346 C   0  0  0  0  0  0  0  0  0  0  0  0
  -14.5264  -15.2812   16.5138 C   0  0  0  0  0  0  0  0  0  0  0  0
  -14.8403  -14.8387   17.6874 N   0  0  0  0  0  0  0  0  0  0  0  0
  -14.7842  -13.4961   17.9043 C   0  0  0  0  0  0  0  0  0  0  0  0
  -15.1220  -13.0113   19.1744 C   0  0  0  0  0  0  0  0  0  0  0  0
  -15.0628  -11.6397   19.4454 C   0  0  0  0  0  0  0  0  0  0  0  0
  -14.6851  -10.7632   18.4340 C   0  0  0  0  0  0  0  0  0  0  0  0
  -14.3647  -11.2414   17.1756 C   0  0  0  0  0  0  0  0  0  0  0  0
  -14.4304  -12.6234   16.9310 C   0  0  0  0  0  0  0  0  0  0  0  0
  -14.1033  -13.1017   15.7331 N   0  0  0  0  0  0  0  0  0  0  0  0
  -14.1559  -14.2190   13.0033 C   0  0  0  0  0  0  0  0  0  0  0  0
  -13.8175  -14.9703   14.2070 C   0  0  0  0  0  0  0  0  0  0  0  0
  -15.3857  -11.0957   20.6747 O   0  0  0  0  0  0  0  0  0  0  0  0
  -14.3828  -10.7112   21.5419 C   0  0  0  0  0  0  0  0  0  0  0  0
  1  8  1  0  0  0
  1 11  1  0  0  0
  2 12  1  0  0  0
  2 14  1  0  0  0
  2 33  1  0  0  0
  3 14  1  0  0  0
  3 15  1  0  0  0
  4 15  1  0  0  0
  4 16  1  0  0  0
  5  6  1  0  0  0
  5 17  2  0  0  0
  6  7  1  0  0  0
  6 18  1  0  0  0
  7 18  1  0  0  0
 53 54  1  0  0  0
 54 43  1  0  0  0
 43 44  2  0  0  0
 43 52  1  0  0  0
 44 42  1  0  0  0
 44 45  1  0  0  0
 42  8  1  0  0  0
  8  9  1  0  0  0
  9 10  1  0  0  0
 10 11  1  0  0  0
 10 20  1  0  0  0
 11 12  1  0  0  0
 12 13  2  0  0  0
 16 17  1  0  0  0
 18 19  1  0  0  0
 18 23  1  0  0  0
 19 20  1  0  0  0
 20 21  2  0  0  0
 23 24  2  0  0  0
 23 25  1  0  0  0
 25 27  1  0  0  0
 27 28  2  0  0  0
 27 29  2  0  0  0
 27 30  1  0  0  0
 30 31  1  0  0  0
 30 32  1  0  0  0
 31 32  1  0  0  0
 33 34  1  0  0  0
 34 35  2  0  0  0
 34 37  1  0  0  0
 37 38  1  0  0  0
 38 39  1  0  0  0
 38 40  1  0  0  0
 38 41  1  0  0  0
 45 46  2  0  0  0
 46 47  1  0  0  0
 46 51  1  0  0  0
 47 48  2  0  0  0
 48 55  1  0  0  0
 48 49  1  0  0  0
 55 56  1  0  0  0
 49 50  2  0  0  0
 50 51  1  0  0  0
 51 52  2  0  0  0
 19 22  1  0  0  0
 25 26  1  0  0  0
 33 36  1  0  0  0
M  END
> <minimizedAffinity>
-9.58666

$$$$
5EPN_5R2_A_1203


 56 61  0  0  0  0  0  0  0  0999 V2000
  -14.0060  -19.9218   15.2286 C   0  0  0  0  0  0  0  0  0  0  0  0
  -12.0664  -22.1883   15.5629 C   0  0  0  0  0  0  0  0  0  0  0  0
  -13.8785  -23.8215   14.7365 C   0  0  0  0  0  0  0  0  0  0  0  0
  -15.3822  -25.1626   16.2838 C   0  0  0  0  0  0  0  0  0  0  0  0
  -14.9635  -24.4112   19.2309 C   0  0  0  0  0  0  0  0  0  0  0  0
  -15.3768  -23.9378   20.5699 C   0  0  0  0  0  0  0  0  0  0  0  0
  -14.8950  -22.6624   21.1210 C   0  0  0  0  0  0  0  0  0  0  0  0
  -14.5486  -18.4714   15.5840 C   0  0  0  0  0  0  0  0  0  0  0  0
  -15.3824  -18.6577   16.5558 C   0  0  0  0  0  0  0  0  0  0  0  0
  -15.0115  -19.9831   17.2870 C   0  0  0  0  0  0  0  0  0  0  0  0
  -13.8930  -20.5515   16.3596 N   0  0  0  0  0  0  0  0  0  0  0  0
  -13.0058  -21.6478   16.6358 C   0  0  0  0  0  0  0  0  0  0  0  0
  -13.0139  -22.1527   17.6567 O   0  0  0  0  0  0  0  0  0  0  0  0
  -12.4005  -23.6201   15.1210 C   0  0  0  0  0  0  0  0  0  0  0  0
  -14.4428  -25.1682   15.1152 C   0  0  0  0  0  0  0  0  0  0  0  0
  -14.9469  -26.0727   17.3780 C   0  0  0  0  0  0  0  0  0  0  0  0
  -15.4908  -25.5726   18.7200 C   0  0  0  0  0  0  0  0  0  0  0  0
  -16.0011  -22.5693   20.0945 C   0  0  0  0  0  0  0  0  0  0  0  0
  -15.5636  -21.4549   19.2950 N   0  0  0  0  0  0  0  0  0  0  0  0
  -15.6239  -21.2967   17.8973 C   0  0  0  0  0  0  0  0  0  0  0  0
  -16.1089  -22.1805   17.2670 O   0  0  0  0  0  0  0  0  0  0  0  0
  -15.1694  -20.7023   19.7925 H   0  0  0  0  0  0  0  0  0  0  0  0
  -17.5580  -22.7151   20.2341 C   0  0  0  0  0  0  0  0  0  0  0  0
  -18.0718  -22.4557   21.2206 O   0  0  0  0  0  0  0  0  0  0  0  0
  -18.4063  -23.1739   19.2046 N   0  0  0  0  0  0  0  0  0  0  0  0
  -17.9718  -23.3866   18.3471 H   0  0  0  0  0  0  0  0  0  0  0  0
  -19.9451  -23.3836   19.2627 S   0  0  0  0  0  0  0  0  0  0  0  0
  -20.2914  -24.1471   20.2575 O   0  0  0  0  0  0  0  0  0  0  0  0
  -20.3130  -24.0636   18.2053 O   0  0  0  0  0  0  0  0  0  0  0  0
  -20.8865  -21.8504   19.1270 C   0  0  0  0  0  0  0  0  0  0  0  0
  -21.3180  -21.4000   20.4955 C   0  0  0  0  0  0  0  0  0  0  0  0
  -22.2902  -22.0429   19.5997 C   0  0  0  0  0  0  0  0  0  0  0  0
  -10.7288  -22.1053   15.8620 N   0  0  0  0  0  0  0  0  0  0  0  0
  -10.0818  -23.1009   16.5665 C   0  0  0  0  0  0  0  0  0  0  0  0
  -10.5920  -24.1486   16.6788 O   0  0  0  0  0  0  0  0  0  0  0  0
  -10.2187  -21.3167   15.5669 H   0  0  0  0  0  0  0  0  0  0  0  0
   -8.7310  -22.9138   16.3805 O   0  0  0  0  0  0  0  0  0  0  0  0
   -7.8603  -22.3779   17.3404 C   0  0  0  0  0  0  0  0  0  0  0  0
   -6.9424  -21.3378   16.7491 C   0  0  0  0  0  0  0  0  0  0  0  0
   -7.0220  -23.5123   17.8981 C   0  0  0  0  0  0  0  0  0  0  0  0
   -8.6861  -21.7770   18.4621 C   0  0  0  0  0  0  0  0  0  0  0  0
  -13.4337  -17.7051   15.9509 O   0  0  0  0  0  0  0  0  0  0  0  0
  -12.8726  -15.4579   16.3495 C   0  0  0  0  0  0  0  0  0  0  0  0
  -13.4305  -16.4046   15.5330 C   0  0  0  0  0  0  0  0  0  0  0  0
  -13.8780  -16.0534   14.3718 N   0  0  0  0  0  0  0  0  0  0  0  0
  -13.7944  -14.7409   14.0209 C   0  0  0  0  0  0  0  0  0  0  0  0
  -14.2789  -14.3545   12.7646 C   0  0  0  0  0  0  0  0  0  0  0  0
  -14.2270  -13.0131   12.3697 C   0  0  0  0  0  0  0  0  0  0  0  0
  -13.6706  -12.0728   13.2301 C   0  0  0  0  0  0  0  0  0  0  0  0
  -13.1797  -12.4572   14.4654 C   0  0  0  0  0  0  0  0  0  0  0  0
  -13.2460  -13.8103   14.8379 C   0  0  0  0  0  0  0  0  0  0  0  0
  -12.7995  -14.1929   16.0316 N   0  0  0  0  0  0  0  0  0  0  0  0
  -12.2461  -14.9587   18.7570 C   0  0  0  0  0  0  0  0  0  0  0  0
  -12.3843  -15.9306   17.6780 C   0  0  0  0  0  0  0  0  0  0  0  0
  -14.6841  -12.5658   11.1440 O   0  0  0  0  0  0  0  0  0  0  0  0
  -15.9218  -12.9674   10.6829 C   0  0  0  0  0  0  0  0  0  0  0  0
  1  8  1  0  0  0
  1 11  1  0  0  0
  2 12  1  0  0  0
  2 14  1  0  0  0
  2 33  1  0  0  0
  3 14  1  0  0  0
  3 15  1  0  0  0
  4 15  1  0  0  0
  4 16  1  0  0  0
  5  6  1  0  0  0
  5 17  2  0  0  0
  6  7  1  0  0  0
  6 18  1  0  0  0
  7 18  1  0  0  0
 53 54  1  0  0  0
 54 43  1  0  0  0
 43 44  2  0  0  0
 43 52  1  0  0  0
 44 42  1  0  0  0
 44 45  1  0  0  0
 42  8  1  0  0  0
  8  9  1  0  0  0
  9 10  1  0  0  0
 10 11  1  0  0  0
 10 20  1  0  0  0
 11 12  1  0  0  0
 12 13  2  0  0  0
 16 17  1  0  0  0
 18 19  1  0  0  0
 18 23  1  0  0  0
 19 20  1  0  0  0
 20 21  2  0  0  0
 23 24  2  0  0  0
 23 25  1  0  0  0
 25 27  1  0  0  0
 27 28  2  0  0  0
 27 29  2  0  0  0
 27 30  1  0  0  0
 30 31  1  0  0  0
 30 32  1  0  0  0
 31 32  1  0  0  0
 33 34  1  0  0  0
 34 35  2  0  0  0
 34 37  1  0  0  0
 37 38  1  0  0  0
 38 39  1  0  0  0
 38 40  1  0  0  0
 38 41  1  0  0  0
 45 46  2  0  0  0
 46 47  1  0  0  0
 46 51  1  0  0  0
 47 48  2  0  0  0
 48 55  1  0  0  0
 48 49  1  0  0  0
 55 56  1  0  0  0
 49 50  2  0  0  0
 50 51  1  0  0  0
 51 52  2  0  0  0
 19 22  1  0  0  0
 25 26  1  0  0  0
 33 36  1  0  0  0
M  END
> <minimizedAffinity>
-8.73083

$$$$
