1DHI_MTX_A_161


 40 42  0  0  0  0  0  0  0  0999 V2000
   18.2540   57.3174   29.3548 C   0  0  0  0  0  0  0  0  0  0  0  0
   16.8562   57.5831   29.3090 C   0  0  0  0  0  0  0  0  0  0  0  0
   16.0621   56.9476   28.3673 C   0  0  0  0  0  0  0  0  0  0  0  0
   16.6330   56.0347   27.4260 C   0  0  0  0  0  0  0  0  0  0  0  0
   17.9908   55.7938   27.4590 C   0  0  0  0  0  0  0  0  0  0  0  0
   18.7875   56.4181   28.4257 C   0  0  0  0  0  0  0  0  0  0  0  0
   19.1068   57.9862   30.3439 C   0  0  0  0  0  0  0  0  0  0  0  0
   19.1378   57.6173   31.5235 O   0  0  0  0  0  0  0  0  0  0  0  0
   19.9092   58.9667   29.9633 N   0  0  0  0  0  0  0  0  0  0  0  0
   19.9070   59.2148   29.0105 H   0  0  0  0  0  0  0  0  0  0  0  0
   20.8229   59.7286   30.8790 C   0  0  0  0  0  0  0  0  0  0  0  0
   20.1054   61.0433   30.9995 C   0  0  0  0  0  0  0  0  0  0  0  0
   19.4196   61.4457   30.0174 O   0  0  0  0  0  0  0  0  0  0  0  0
   20.2188   61.6397   32.0998 O   0  0  0  0  0  0  0  0  0  0  0  0
   20.7490   61.2723   32.7794 H   0  0  0  0  0  0  0  0  0  0  0  0
   22.1440   60.0713   30.1385 C   0  0  0  0  0  0  0  0  0  0  0  0
   22.1726   59.6202   28.6141 C   0  0  0  0  0  0  0  0  0  0  0  0
   23.4279   58.8823   28.1108 C   0  0  0  0  0  0  0  0  0  0  0  0
   23.8764   59.4065   27.0272 O   0  0  0  0  0  0  0  0  0  0  0  0
   23.8949   57.8954   28.7179 O   0  0  0  0  0  0  0  0  0  0  0  0
   23.4867   57.5937   29.5055 H   0  0  0  0  0  0  0  0  0  0  0  0
   15.7284   55.4407   26.5074 N   0  0  0  0  0  0  0  0  0  0  0  0
   14.9223   54.1942   26.6990 C   0  0  0  0  0  0  0  0  0  0  0  0
   15.4531   56.1467   25.2120 C   0  0  0  0  0  0  0  0  0  0  0  0
   19.9842   58.1060   22.7279 N   0  0  0  0  0  0  0  0  0  0  0  0
   20.9055   57.2661   22.2471 C   0  0  0  0  0  0  0  0  0  0  0  0
   21.9618   57.6749   21.6612 N   0  0  0  0  0  0  0  0  0  0  0  0
   20.6975   55.8875   22.4433 N   0  0  0  0  0  0  0  0  0  0  0  0
   19.6258   55.2814   23.0145 C   0  0  0  0  0  0  0  0  0  0  0  0
   19.5095   54.0078   23.1125 N   0  0  0  0  0  0  0  0  0  0  0  0
   18.6662   56.2614   23.5114 C   0  0  0  0  0  0  0  0  0  0  0  0
   17.5381   55.7542   24.0693 N   0  0  0  0  0  0  0  0  0  0  0  0
   16.6639   56.6795   24.5610 C   0  0  0  0  0  0  0  0  0  0  0  0
   16.9610   58.0550   24.4662 C   0  0  0  0  0  0  0  0  0  0  0  0
   18.0450   58.5504   23.8495 N   0  0  0  0  0  0  0  0  0  0  0  0
   18.8857   57.5865   23.3856 C   0  0  0  0  0  0  0  0  0  0  0  0
   22.1069   58.6389   21.5241 H   0  0  0  0  0  0  0  0  0  0  0  0
   22.6321   57.0265   21.3459 H   0  0  0  0  0  0  0  0  0  0  0  0
   20.2093   53.4199   22.7467 H   0  0  0  0  0  0  0  0  0  0  0  0
   18.7202   53.6181   23.5536 H   0  0  0  0  0  0  0  0  0  0  0  0
 25 26  2  0  0  0
 25 36  1  0  0  0
 26 27  1  0  0  0
 26 28  1  0  0  0
 28 29  2  0  0  0
 29 30  1  0  0  0
 29 31  1  0  0  0
 31 32  1  0  0  0
 31 36  2  0  0  0
 32 33  2  0  0  0
 33 34  1  0  0  0
 33 24  1  0  0  0
 34 35  2  0  0  0
 35 36  1  0  0  0
 24 22  1  0  0  0
 22 23  1  0  0  0
 22  4  1  0  0  0
  1  2  2  0  0  0
  1  6  1  0  0  0
  1  7  1  0  0  0
  2  3  1  0  0  0
  3  4  2  0  0  0
  4  5  1  0  0  0
  5  6  2  0  0  0
  7  8  2  0  0  0
  7  9  1  0  0  0
  9 11  1  0  0  0
 11 12  1  0  0  0
 11 16  1  0  0  0
 12 13  2  0  0  0
 12 14  1  0  0  0
 16 17  1  0  0  0
 17 18  1  0  0  0
 18 19  2  0  0  0
 18 20  1  0  0  0
 27 37  1  0  0  0
 27 38  1  0  0  0
 30 39  1  0  0  0
 30 40  1  0  0  0
  9 10  1  0  0  0
 14 15  1  0  0  0
 20 21  1  0  0  0
M  END
> <minimizedAffinity>
-9.23221

$$$$
1DHI_MTX_A_161


 40 42  0  0  0  0  0  0  0  0999 V2000
   17.7848   63.7020   25.2926 C   0  0  0  0  0  0  0  0  0  0  0  0
   17.4609   62.9253   26.4407 C   0  0  0  0  0  0  0  0  0  0  0  0
   17.4326   61.5421   26.3543 C   0  0  0  0  0  0  0  0  0  0  0  0
   17.7113   60.8812   25.1170 C   0  0  0  0  0  0  0  0  0  0  0  0
   18.0053   61.6362   24.0007 C   0  0  0  0  0  0  0  0  0  0  0  0
   18.0568   63.0318   24.0953 C   0  0  0  0  0  0  0  0  0  0  0  0
   17.8145   65.1669   25.3691 C   0  0  0  0  0  0  0  0  0  0  0  0
   16.8557   65.8093   25.8126 O   0  0  0  0  0  0  0  0  0  0  0  0
   18.9087   65.8210   25.0157 N   0  0  0  0  0  0  0  0  0  0  0  0
   19.6797   65.2900   24.7109 H   0  0  0  0  0  0  0  0  0  0  0  0
   19.0600   67.3144   25.0456 C   0  0  0  0  0  0  0  0  0  0  0  0
   19.7927   67.5715   23.7593 C   0  0  0  0  0  0  0  0  0  0  0  0
   20.0437   66.5899   23.0042 O   0  0  0  0  0  0  0  0  0  0  0  0
   20.0788   68.7700   23.5124 O   0  0  0  0  0  0  0  0  0  0  0  0
   19.8569   69.4409   24.1278 H   0  0  0  0  0  0  0  0  0  0  0  0
   20.0669   67.7192   26.1561 C   0  0  0  0  0  0  0  0  0  0  0  0
   21.4275   66.8969   26.1335 C   0  0  0  0  0  0  0  0  0  0  0  0
   22.6728   67.5588   26.7539 C   0  0  0  0  0  0  0  0  0  0  0  0
   22.5862   67.6117   28.0344 O   0  0  0  0  0  0  0  0  0  0  0  0
   23.6104   67.9830   26.0456 O   0  0  0  0  0  0  0  0  0  0  0  0
   23.5716   67.8926   25.1138 H   0  0  0  0  0  0  0  0  0  0  0  0
   17.6549   59.4631   25.1422 N   0  0  0  0  0  0  0  0  0  0  0  0
   16.6761   58.5772   24.4369 C   0  0  0  0  0  0  0  0  0  0  0  0
   18.7246   58.7147   25.8824 C   0  0  0  0  0  0  0  0  0  0  0  0
   23.2745   57.7293   22.9045 N   0  0  0  0  0  0  0  0  0  0  0  0
   24.4631   58.1732   23.3234 C   0  0  0  0  0  0  0  0  0  0  0  0
   25.5385   57.9626   22.6712 N   0  0  0  0  0  0  0  0  0  0  0  0
   24.4954   58.9320   24.5089 N   0  0  0  0  0  0  0  0  0  0  0  0
   23.4608   59.2248   25.3370 C   0  0  0  0  0  0  0  0  0  0  0  0
   23.5984   59.8944   26.4224 N   0  0  0  0  0  0  0  0  0  0  0  0
   22.2014   58.7063   24.8143 C   0  0  0  0  0  0  0  0  0  0  0  0
   21.1081   58.9157   25.5902 N   0  0  0  0  0  0  0  0  0  0  0  0
   19.9309   58.4564   25.0751 C   0  0  0  0  0  0  0  0  0  0  0  0
   19.9102   57.8129   23.8202 C   0  0  0  0  0  0  0  0  0  0  0  0
   21.0057   57.5466   23.0923 N   0  0  0  0  0  0  0  0  0  0  0  0
   22.1492   58.0326   23.6467 C   0  0  0  0  0  0  0  0  0  0  0  0
   25.5155   57.4319   21.8422 H   0  0  0  0  0  0  0  0  0  0  0  0
   26.3916   58.3306   22.9966 H   0  0  0  0  0  0  0  0  0  0  0  0
   24.4904   60.2058   26.6990 H   0  0  0  0  0  0  0  0  0  0  0  0
   22.8119   60.0968   26.9789 H   0  0  0  0  0  0  0  0  0  0  0  0
 25 26  2  0  0  0
 25 36  1  0  0  0
 26 27  1  0  0  0
 26 28  1  0  0  0
 28 29  2  0  0  0
 29 30  1  0  0  0
 29 31  1  0  0  0
 31 32  1  0  0  0
 31 36  2  0  0  0
 32 33  2  0  0  0
 33 34  1  0  0  0
 33 24  1  0  0  0
 34 35  2  0  0  0
 35 36  1  0  0  0
 24 22  1  0  0  0
 22 23  1  0  0  0
 22  4  1  0  0  0
  1  2  2  0  0  0
  1  6  1  0  0  0
  1  7  1  0  0  0
  2  3  1  0  0  0
  3  4  2  0  0  0
  4  5  1  0  0  0
  5  6  2  0  0  0
  7  8  2  0  0  0
  7  9  1  0  0  0
  9 11  1  0  0  0
 11 12  1  0  0  0
 11 16  1  0  0  0
 12 13  2  0  0  0
 12 14  1  0  0  0
 16 17  1  0  0  0
 17 18  1  0  0  0
 18 19  2  0  0  0
 18 20  1  0  0  0
 27 37  1  0  0  0
 27 38  1  0  0  0
 30 39  1  0  0  0
 30 40  1  0  0  0
  9 10  1  0  0  0
 14 15  1  0  0  0
 20 21  1  0  0  0
M  END
> <minimizedAffinity>
-9.18955

$$$$
1DHI_MTX_A_161


 40 42  0  0  0  0  0  0  0  0999 V2000
   21.0746   58.4493   27.3357 C   0  0  0  0  0  0  0  0  0  0  0  0
   20.7425   57.0923   27.6090 C   0  0  0  0  0  0  0  0  0  0  0  0
   20.4173   56.2369   26.5678 C   0  0  0  0  0  0  0  0  0  0  0  0
   20.3962   56.7051   25.2166 C   0  0  0  0  0  0  0  0  0  0  0  0
   20.6988   58.0253   24.9558 C   0  0  0  0  0  0  0  0  0  0  0  0
   21.0502   58.8818   26.0057 C   0  0  0  0  0  0  0  0  0  0  0  0
   21.4169   59.3664   28.4287 C   0  0  0  0  0  0  0  0  0  0  0  0
   22.5802   59.7405   28.6165 O   0  0  0  0  0  0  0  0  0  0  0  0
   20.4593   59.8577   29.1980 N   0  0  0  0  0  0  0  0  0  0  0  0
   19.5330   59.5869   29.0032 H   0  0  0  0  0  0  0  0  0  0  0  0
   20.6827   60.7982   30.3466 C   0  0  0  0  0  0  0  0  0  0  0  0
   20.7304   59.8499   31.5112 C   0  0  0  0  0  0  0  0  0  0  0  0
   19.8594   58.9369   31.5786 O   0  0  0  0  0  0  0  0  0  0  0  0
   21.6690   60.0208   32.3291 O   0  0  0  0  0  0  0  0  0  0  0  0
   22.2749   60.7249   32.2066 H   0  0  0  0  0  0  0  0  0  0  0  0
   19.4056   61.6480   30.5871 C   0  0  0  0  0  0  0  0  0  0  0  0
   18.3564   61.5999   29.3934 C   0  0  0  0  0  0  0  0  0  0  0  0
   17.7152   60.2393   29.0599 C   0  0  0  0  0  0  0  0  0  0  0  0
   17.6383   60.0562   27.7908 O   0  0  0  0  0  0  0  0  0  0  0  0
   17.3266   59.4612   29.9567 O   0  0  0  0  0  0  0  0  0  0  0  0
   17.4320   59.6950   30.8579 H   0  0  0  0  0  0  0  0  0  0  0  0
   20.0504   55.7447   24.2303 N   0  0  0  0  0  0  0  0  0  0  0  0
   20.2046   55.8661   22.7464 C   0  0  0  0  0  0  0  0  0  0  0  0
   19.5413   54.4060   24.6785 C   0  0  0  0  0  0  0  0  0  0  0  0
   14.0255   54.0645   24.6907 N   0  0  0  0  0  0  0  0  0  0  0  0
   13.3424   54.2361   25.8262 C   0  0  0  0  0  0  0  0  0  0  0  0
   12.0696   54.1725   25.8728 N   0  0  0  0  0  0  0  0  0  0  0  0
   14.0805   54.4535   27.0052 N   0  0  0  0  0  0  0  0  0  0  0  0
   15.4259   54.5786   27.1327 C   0  0  0  0  0  0  0  0  0  0  0  0
   16.0058   54.8167   28.2518 N   0  0  0  0  0  0  0  0  0  0  0  0
   16.0993   54.3810   25.8538 C   0  0  0  0  0  0  0  0  0  0  0  0
   17.4487   54.5224   25.8679 N   0  0  0  0  0  0  0  0  0  0  0  0
   18.0707   54.3017   24.6735 C   0  0  0  0  0  0  0  0  0  0  0  0
   17.3141   53.9566   23.5342 C   0  0  0  0  0  0  0  0  0  0  0  0
   15.9741   53.8888   23.5124 N   0  0  0  0  0  0  0  0  0  0  0  0
   15.4060   54.1088   24.7290 C   0  0  0  0  0  0  0  0  0  0  0  0
   11.5538   54.0205   25.0481 H   0  0  0  0  0  0  0  0  0  0  0  0
   11.6028   54.2755   26.7334 H   0  0  0  0  0  0  0  0  0  0  0  0
   15.4693   54.9369   29.0684 H   0  0  0  0  0  0  0  0  0  0  0  0
   16.9874   54.8792   28.2941 H   0  0  0  0  0  0  0  0  0  0  0  0
 25 26  2  0  0  0
 25 36  1  0  0  0
 26 27  1  0  0  0
 26 28  1  0  0  0
 28 29  2  0  0  0
 29 30  1  0  0  0
 29 31  1  0  0  0
 31 32  1  0  0  0
 31 36  2  0  0  0
 32 33  2  0  0  0
 33 34  1  0  0  0
 33 24  1  0  0  0
 34 35  2  0  0  0
 35 36  1  0  0  0
 24 22  1  0  0  0
 22 23  1  0  0  0
 22  4  1  0  0  0
  1  2  2  0  0  0
  1  6  1  0  0  0
  1  7  1  0  0  0
  2  3  1  0  0  0
  3  4  2  0  0  0
  4  5  1  0  0  0
  5  6  2  0  0  0
  7  8  2  0  0  0
  7  9  1  0  0  0
  9 11  1  0  0  0
 11 12  1  0  0  0
 11 16  1  0  0  0
 12 13  2  0  0  0
 12 14  1  0  0  0
 16 17  1  0  0  0
 17 18  1  0  0  0
 18 19  2  0  0  0
 18 20  1  0  0  0
 27 37  1  0  0  0
 27 38  1  0  0  0
 30 39  1  0  0  0
 30 40  1  0  0  0
  9 10  1  0  0  0
 14 15  1  0  0  0
 20 21  1  0  0  0
M  END
> <minimizedAffinity>
-9.12144

$$$$
1DHI_MTX_A_161


 40 42  0  0  0  0  0  0  0  0999 V2000
   18.3851   61.0976   23.8679 C   0  0  0  0  0  0  0  0  0  0  0  0
   19.6118   60.7460   24.4987 C   0  0  0  0  0  0  0  0  0  0  0  0
   20.1965   59.5168   24.2367 C   0  0  0  0  0  0  0  0  0  0  0  0
   19.5734   58.5855   23.3479 C   0  0  0  0  0  0  0  0  0  0  0  0
   18.3747   58.9200   22.7531 C   0  0  0  0  0  0  0  0  0  0  0  0
   17.7976   60.1711   23.0002 C   0  0  0  0  0  0  0  0  0  0  0  0
   17.7534   62.3938   24.1394 C   0  0  0  0  0  0  0  0  0  0  0  0
   17.5458   63.2120   23.2361 O   0  0  0  0  0  0  0  0  0  0  0  0
   17.3378   62.6785   25.3626 N   0  0  0  0  0  0  0  0  0  0  0  0
   17.4675   61.9953   26.0595 H   0  0  0  0  0  0  0  0  0  0  0  0
   16.6828   63.9680   25.7652 C   0  0  0  0  0  0  0  0  0  0  0  0
   17.8650   64.7860   26.2022 C   0  0  0  0  0  0  0  0  0  0  0  0
   18.1804   64.7801   27.4258 O   0  0  0  0  0  0  0  0  0  0  0  0
   18.4808   65.4013   25.2959 O   0  0  0  0  0  0  0  0  0  0  0  0
   18.1803   65.3537   24.4097 H   0  0  0  0  0  0  0  0  0  0  0  0
   15.8546   63.7554   27.0612 C   0  0  0  0  0  0  0  0  0  0  0  0
   15.8218   62.2509   27.5744 C   0  0  0  0  0  0  0  0  0  0  0  0
   16.8823   61.8251   28.6077 C   0  0  0  0  0  0  0  0  0  0  0  0
   16.3389   61.4550   29.7112 O   0  0  0  0  0  0  0  0  0  0  0  0
   18.1037   61.8697   28.3490 O   0  0  0  0  0  0  0  0  0  0  0  0
   18.3937   62.1574   27.5057 H   0  0  0  0  0  0  0  0  0  0  0  0
   20.2589   57.3582   23.1515 N   0  0  0  0  0  0  0  0  0  0  0  0
   21.2841   57.0438   22.1073 C   0  0  0  0  0  0  0  0  0  0  0  0
   20.0228   56.2400   24.1242 C   0  0  0  0  0  0  0  0  0  0  0  0
   14.7312   54.6751   24.4256 N   0  0  0  0  0  0  0  0  0  0  0  0
   14.0463   54.8309   25.5622 C   0  0  0  0  0  0  0  0  0  0  0  0
   12.8225   54.4901   25.6734 N   0  0  0  0  0  0  0  0  0  0  0  0
   14.7352   55.3552   26.6726 N   0  0  0  0  0  0  0  0  0  0  0  0
   16.0186   55.7937   26.7235 C   0  0  0  0  0  0  0  0  0  0  0  0
   16.5477   56.2949   27.7790 N   0  0  0  0  0  0  0  0  0  0  0  0
   16.6976   55.5924   25.4481 C   0  0  0  0  0  0  0  0  0  0  0  0
   17.9792   56.0334   25.3844 N   0  0  0  0  0  0  0  0  0  0  0  0
   18.6148   55.8090   24.1979 C   0  0  0  0  0  0  0  0  0  0  0  0
   17.9378   55.1622   23.1431 C   0  0  0  0  0  0  0  0  0  0  0  0
   16.6484   54.7935   23.1900 N   0  0  0  0  0  0  0  0  0  0  0  0
   16.0657   55.0322   24.3961 C   0  0  0  0  0  0  0  0  0  0  0  0
   12.3411   54.1235   24.8968 H   0  0  0  0  0  0  0  0  0  0  0  0
   12.3592   54.5934   26.5359 H   0  0  0  0  0  0  0  0  0  0  0  0
   16.0118   56.3938   28.5989 H   0  0  0  0  0  0  0  0  0  0  0  0
   17.4898   56.5807   27.7692 H   0  0  0  0  0  0  0  0  0  0  0  0
 25 26  2  0  0  0
 25 36  1  0  0  0
 26 27  1  0  0  0
 26 28  1  0  0  0
 28 29  2  0  0  0
 29 30  1  0  0  0
 29 31  1  0  0  0
 31 32  1  0  0  0
 31 36  2  0  0  0
 32 33  2  0  0  0
 33 34  1  0  0  0
 33 24  1  0  0  0
 34 35  2  0  0  0
 35 36  1  0  0  0
 24 22  1  0  0  0
 22 23  1  0  0  0
 22  4  1  0  0  0
  1  2  2  0  0  0
  1  6  1  0  0  0
  1  7  1  0  0  0
  2  3  1  0  0  0
  3  4  2  0  0  0
  4  5  1  0  0  0
  5  6  2  0  0  0
  7  8  2  0  0  0
  7  9  1  0  0  0
  9 11  1  0  0  0
 11 12  1  0  0  0
 11 16  1  0  0  0
 12 13  2  0  0  0
 12 14  1  0  0  0
 16 17  1  0  0  0
 17 18  1  0  0  0
 18 19  2  0  0  0
 18 20  1  0  0  0
 27 37  1  0  0  0
 27 38  1  0  0  0
 30 39  1  0  0  0
 30 40  1  0  0  0
  9 10  1  0  0  0
 14 15  1  0  0  0
 20 21  1  0  0  0
M  END
> <minimizedAffinity>
-9.10064

$$$$
1DHI_MTX_A_161


 40 42  0  0  0  0  0  0  0  0999 V2000
   18.1451   63.7833   25.4275 C   0  0  0  0  0  0  0  0  0  0  0  0
   18.1775   63.1734   24.1416 C   0  0  0  0  0  0  0  0  0  0  0  0
   17.9955   61.8045   24.0209 C   0  0  0  0  0  0  0  0  0  0  0  0
   17.7893   60.9897   25.1781 C   0  0  0  0  0  0  0  0  0  0  0  0
   17.7783   61.5797   26.4248 C   0  0  0  0  0  0  0  0  0  0  0  0
   17.9384   62.9652   26.5431 C   0  0  0  0  0  0  0  0  0  0  0  0
   18.3403   65.2305   25.5699 C   0  0  0  0  0  0  0  0  0  0  0  0
   17.4268   65.9699   25.9537 O   0  0  0  0  0  0  0  0  0  0  0  0
   19.5323   65.7579   25.3440 N   0  0  0  0  0  0  0  0  0  0  0  0
   20.2604   65.1472   25.0864 H   0  0  0  0  0  0  0  0  0  0  0  0
   19.8554   67.2200   25.4520 C   0  0  0  0  0  0  0  0  0  0  0  0
   19.4110   67.7295   24.1101 C   0  0  0  0  0  0  0  0  0  0  0  0
   20.1669   67.5403   23.1153 O   0  0  0  0  0  0  0  0  0  0  0  0
   18.2863   68.2885   24.0723 O   0  0  0  0  0  0  0  0  0  0  0  0
   17.7868   68.3899   24.8586 H   0  0  0  0  0  0  0  0  0  0  0  0
   21.3952   67.4199   25.4552 C   0  0  0  0  0  0  0  0  0  0  0  0
   22.0020   67.7856   26.8786 C   0  0  0  0  0  0  0  0  0  0  0  0
   23.5161   68.0580   26.9613 C   0  0  0  0  0  0  0  0  0  0  0  0
   24.0600   67.3938   27.9168 O   0  0  0  0  0  0  0  0  0  0  0  0
   24.0832   68.8476   26.1767 O   0  0  0  0  0  0  0  0  0  0  0  0
   23.5881   69.2827   25.5107 H   0  0  0  0  0  0  0  0  0  0  0  0
   17.6136   59.6016   24.9388 N   0  0  0  0  0  0  0  0  0  0  0  0
   16.7335   58.9577   23.9136 C   0  0  0  0  0  0  0  0  0  0  0  0
   18.4420   58.6270   25.7237 C   0  0  0  0  0  0  0  0  0  0  0  0
   23.7611   58.6088   24.2245 N   0  0  0  0  0  0  0  0  0  0  0  0
   24.1250   58.1131   23.0382 C   0  0  0  0  0  0  0  0  0  0  0  0
   25.3395   58.0955   22.6498 N   0  0  0  0  0  0  0  0  0  0  0  0
   23.1172   57.5605   22.2250 N   0  0  0  0  0  0  0  0  0  0  0  0
   21.7822   57.5220   22.4662 C   0  0  0  0  0  0  0  0  0  0  0  0
   20.9336   57.0290   21.6402 N   0  0  0  0  0  0  0  0  0  0  0  0
   21.4646   58.0815   23.7755 C   0  0  0  0  0  0  0  0  0  0  0  0
   20.1471   58.1226   24.0972 N   0  0  0  0  0  0  0  0  0  0  0  0
   19.8649   58.6163   25.3377 C   0  0  0  0  0  0  0  0  0  0  0  0
   20.9090   59.0433   26.1843 C   0  0  0  0  0  0  0  0  0  0  0  0
   22.2034   59.0656   25.8311 N   0  0  0  0  0  0  0  0  0  0  0  0
   22.4297   58.5558   24.5901 C   0  0  0  0  0  0  0  0  0  0  0  0
   26.0439   58.4820   23.2187 H   0  0  0  0  0  0  0  0  0  0  0  0
   25.5727   57.6954   21.7810 H   0  0  0  0  0  0  0  0  0  0  0  0
   21.2391   56.6721   20.7750 H   0  0  0  0  0  0  0  0  0  0  0  0
   19.9769   57.0076   21.8715 H   0  0  0  0  0  0  0  0  0  0  0  0
 25 26  2  0  0  0
 25 36  1  0  0  0
 26 27  1  0  0  0
 26 28  1  0  0  0
 28 29  2  0  0  0
 29 30  1  0  0  0
 29 31  1  0  0  0
 31 32  1  0  0  0
 31 36  2  0  0  0
 32 33  2  0  0  0
 33 34  1  0  0  0
 33 24  1  0  0  0
 34 35  2  0  0  0
 35 36  1  0  0  0
 24 22  1  0  0  0
 22 23  1  0  0  0
 22  4  1  0  0  0
  1  2  2  0  0  0
  1  6  1  0  0  0
  1  7  1  0  0  0
  2  3  1  0  0  0
  3  4  2  0  0  0
  4  5  1  0  0  0
  5  6  2  0  0  0
  7  8  2  0  0  0
  7  9  1  0  0  0
  9 11  1  0  0  0
 11 12  1  0  0  0
 11 16  1  0  0  0
 12 13  2  0  0  0
 12 14  1  0  0  0
 16 17  1  0  0  0
 17 18  1  0  0  0
 18 19  2  0  0  0
 18 20  1  0  0  0
 27 37  1  0  0  0
 27 38  1  0  0  0
 30 39  1  0  0  0
 30 40  1  0  0  0
  9 10  1  0  0  0
 14 15  1  0  0  0
 20 21  1  0  0  0
M  END
> <minimizedAffinity>
-8.97825

$$$$
1DHI_MTX_A_161


 40 42  0  0  0  0  0  0  0  0999 V2000
   15.5798   59.9030   28.8376 C   0  0  0  0  0  0  0  0  0  0  0  0
   15.7781   60.7444   27.7066 C   0  0  0  0  0  0  0  0  0  0  0  0
   16.1991   60.1984   26.5040 C   0  0  0  0  0  0  0  0  0  0  0  0
   16.4526   58.7957   26.3870 C   0  0  0  0  0  0  0  0  0  0  0  0
   16.2792   57.9851   27.4894 C   0  0  0  0  0  0  0  0  0  0  0  0
   15.8312   58.5343   28.6965 C   0  0  0  0  0  0  0  0  0  0  0  0
   15.1383   60.4684   30.1175 C   0  0  0  0  0  0  0  0  0  0  0  0
   15.1655   59.8041   31.1599 O   0  0  0  0  0  0  0  0  0  0  0  0
   14.7586   61.7341   30.1803 N   0  0  0  0  0  0  0  0  0  0  0  0
   14.7897   62.2618   29.3498 H   0  0  0  0  0  0  0  0  0  0  0  0
   14.2837   62.4240   31.4263 C   0  0  0  0  0  0  0  0  0  0  0  0
   13.4623   63.5464   30.8580 C   0  0  0  0  0  0  0  0  0  0  0  0
   13.0474   64.4449   31.6439 O   0  0  0  0  0  0  0  0  0  0  0  0
   13.2723   63.5229   29.6161 O   0  0  0  0  0  0  0  0  0  0  0  0
   13.6151   62.8177   29.1030 H   0  0  0  0  0  0  0  0  0  0  0  0
   15.4777   63.1289   32.1251 C   0  0  0  0  0  0  0  0  0  0  0  0
   16.4718   63.8686   31.1288 C   0  0  0  0  0  0  0  0  0  0  0  0
   17.7200   63.0964   30.6605 C   0  0  0  0  0  0  0  0  0  0  0  0
   18.4251   62.6972   31.6573 O   0  0  0  0  0  0  0  0  0  0  0  0
   17.9673   62.9249   29.4481 O   0  0  0  0  0  0  0  0  0  0  0  0
   17.3813   63.2603   28.7984 H   0  0  0  0  0  0  0  0  0  0  0  0
   16.8788   58.3444   25.1105 N   0  0  0  0  0  0  0  0  0  0  0  0
   16.6295   57.0068   24.4867 C   0  0  0  0  0  0  0  0  0  0  0  0
   17.5974   59.3073   24.2112 C   0  0  0  0  0  0  0  0  0  0  0  0
   23.0955   58.7499   24.2395 N   0  0  0  0  0  0  0  0  0  0  0  0
   23.7109   58.0905   23.2537 C   0  0  0  0  0  0  0  0  0  0  0  0
   24.9771   57.9442   23.2174 N   0  0  0  0  0  0  0  0  0  0  0  0
   22.9060   57.5121   22.2538 N   0  0  0  0  0  0  0  0  0  0  0  0
   21.5577   57.5929   22.1217 C   0  0  0  0  0  0  0  0  0  0  0  0
   20.9147   57.0613   21.1474 N   0  0  0  0  0  0  0  0  0  0  0  0
   20.9603   58.3274   23.2315 C   0  0  0  0  0  0  0  0  0  0  0  0
   19.6152   58.4957   23.1735 N   0  0  0  0  0  0  0  0  0  0  0  0
   19.0636   59.1543   24.2337 C   0  0  0  0  0  0  0  0  0  0  0  0
   19.8823   59.6099   25.2881 C   0  0  0  0  0  0  0  0  0  0  0  0
   21.2197   59.5021   25.3034 N   0  0  0  0  0  0  0  0  0  0  0  0
   21.7162   58.8313   24.2288 C   0  0  0  0  0  0  0  0  0  0  0  0
   25.5396   58.3488   23.9168 H   0  0  0  0  0  0  0  0  0  0  0  0
   25.3922   57.4268   22.4899 H   0  0  0  0  0  0  0  0  0  0  0  0
   21.4024   56.5822   20.4389 H   0  0  0  0  0  0  0  0  0  0  0  0
   19.9336   57.1324   21.1080 H   0  0  0  0  0  0  0  0  0  0  0  0
 25 26  2  0  0  0
 25 36  1  0  0  0
 26 27  1  0  0  0
 26 28  1  0  0  0
 28 29  2  0  0  0
 29 30  1  0  0  0
 29 31  1  0  0  0
 31 32  1  0  0  0
 31 36  2  0  0  0
 32 33  2  0  0  0
 33 34  1  0  0  0
 33 24  1  0  0  0
 34 35  2  0  0  0
 35 36  1  0  0  0
 24 22  1  0  0  0
 22 23  1  0  0  0
 22  4  1  0  0  0
  1  2  2  0  0  0
  1  6  1  0  0  0
  1  7  1  0  0  0
  2  3  1  0  0  0
  3  4  2  0  0  0
  4  5  1  0  0  0
  5  6  2  0  0  0
  7  8  2  0  0  0
  7  9  1  0  0  0
  9 11  1  0  0  0
 11 12  1  0  0  0
 11 16  1  0  0  0
 12 13  2  0  0  0
 12 14  1  0  0  0
 16 17  1  0  0  0
 17 18  1  0  0  0
 18 19  2  0  0  0
 18 20  1  0  0  0
 27 37  1  0  0  0
 27 38  1  0  0  0
 30 39  1  0  0  0
 30 40  1  0  0  0
  9 10  1  0  0  0
 14 15  1  0  0  0
 20 21  1  0  0  0
M  END
> <minimizedAffinity>
-8.79755

$$$$
1DHI_MTX_A_161


 40 42  0  0  0  0  0  0  0  0999 V2000
   15.8159   59.8639   28.5985 C   0  0  0  0  0  0  0  0  0  0  0  0
   15.9340   60.7249   27.4711 C   0  0  0  0  0  0  0  0  0  0  0  0
   16.4615   60.2413   26.2840 C   0  0  0  0  0  0  0  0  0  0  0  0
   16.9050   58.8856   26.1799 C   0  0  0  0  0  0  0  0  0  0  0  0
   16.8082   58.0584   27.2794 C   0  0  0  0  0  0  0  0  0  0  0  0
   16.2534   58.5415   28.4702 C   0  0  0  0  0  0  0  0  0  0  0  0
   15.2630   60.3640   29.8623 C   0  0  0  0  0  0  0  0  0  0  0  0
   15.1608   59.6345   30.8552 O   0  0  0  0  0  0  0  0  0  0  0  0
   14.9199   61.6370   29.9710 N   0  0  0  0  0  0  0  0  0  0  0  0
   15.0537   62.2147   29.1850 H   0  0  0  0  0  0  0  0  0  0  0  0
   14.3414   62.2647   31.2059 C   0  0  0  0  0  0  0  0  0  0  0  0
   13.5816   63.4258   30.6295 C   0  0  0  0  0  0  0  0  0  0  0  0
   13.2454   64.3671   31.4026 O   0  0  0  0  0  0  0  0  0  0  0  0
   13.3606   63.3867   29.3931 O   0  0  0  0  0  0  0  0  0  0  0  0
   13.6440   62.6491   28.8895 H   0  0  0  0  0  0  0  0  0  0  0  0
   15.4738   62.9169   32.0446 C   0  0  0  0  0  0  0  0  0  0  0  0
   16.6037   63.6227   31.1769 C   0  0  0  0  0  0  0  0  0  0  0  0
   18.0250   63.0311   31.2372 C   0  0  0  0  0  0  0  0  0  0  0  0
   18.1194   61.9658   30.5256 O   0  0  0  0  0  0  0  0  0  0  0  0
   18.9261   63.5604   31.9216 O   0  0  0  0  0  0  0  0  0  0  0  0
   18.7483   64.3425   32.4061 H   0  0  0  0  0  0  0  0  0  0  0  0
   17.4272   58.4965   24.9187 N   0  0  0  0  0  0  0  0  0  0  0  0
   17.3526   59.2522   23.6289 C   0  0  0  0  0  0  0  0  0  0  0  0
   18.2229   57.2270   24.8314 C   0  0  0  0  0  0  0  0  0  0  0  0
   23.4461   57.9708   23.1865 N   0  0  0  0  0  0  0  0  0  0  0  0
   24.3165   58.6080   23.9749 C   0  0  0  0  0  0  0  0  0  0  0  0
   25.5320   58.7953   23.6378 N   0  0  0  0  0  0  0  0  0  0  0  0
   23.8385   59.1156   25.1981 N   0  0  0  0  0  0  0  0  0  0  0  0
   22.5942   58.9837   25.7236 C   0  0  0  0  0  0  0  0  0  0  0  0
   22.2638   59.4512   26.8714 N   0  0  0  0  0  0  0  0  0  0  0  0
   21.7051   58.2774   24.8077 C   0  0  0  0  0  0  0  0  0  0  0  0
   20.4432   58.0614   25.2572 N   0  0  0  0  0  0  0  0  0  0  0  0
   19.6112   57.4304   24.3787 C   0  0  0  0  0  0  0  0  0  0  0  0
   20.0836   57.0482   23.1059 C   0  0  0  0  0  0  0  0  0  0  0  0
   21.3522   57.2017   22.6962 N   0  0  0  0  0  0  0  0  0  0  0  0
   22.1357   57.8424   23.6055 C   0  0  0  0  0  0  0  0  0  0  0  0
   25.8659   58.4402   22.7824 H   0  0  0  0  0  0  0  0  0  0  0  0
   26.1365   59.2950   24.2329 H   0  0  0  0  0  0  0  0  0  0  0  0
   22.9325   59.9158   27.4247 H   0  0  0  0  0  0  0  0  0  0  0  0
   21.3415   59.3453   27.1991 H   0  0  0  0  0  0  0  0  0  0  0  0
 25 26  2  0  0  0
 25 36  1  0  0  0
 26 27  1  0  0  0
 26 28  1  0  0  0
 28 29  2  0  0  0
 29 30  1  0  0  0
 29 31  1  0  0  0
 31 32  1  0  0  0
 31 36  2  0  0  0
 32 33  2  0  0  0
 33 34  1  0  0  0
 33 24  1  0  0  0
 34 35  2  0  0  0
 35 36  1  0  0  0
 24 22  1  0  0  0
 22 23  1  0  0  0
 22  4  1  0  0  0
  1  2  2  0  0  0
  1  6  1  0  0  0
  1  7  1  0  0  0
  2  3  1  0  0  0
  3  4  2  0  0  0
  4  5  1  0  0  0
  5  6  2  0  0  0
  7  8  2  0  0  0
  7  9  1  0  0  0
  9 11  1  0  0  0
 11 12  1  0  0  0
 11 16  1  0  0  0
 12 13  2  0  0  0
 12 14  1  0  0  0
 16 17  1  0  0  0
 17 18  1  0  0  0
 18 19  2  0  0  0
 18 20  1  0  0  0
 27 37  1  0  0  0
 27 38  1  0  0  0
 30 39  1  0  0  0
 30 40  1  0  0  0
  9 10  1  0  0  0
 14 15  1  0  0  0
 20 21  1  0  0  0
M  END
> <minimizedAffinity>
-8.66864

$$$$
1DHI_MTX_A_161


 40 42  0  0  0  0  0  0  0  0999 V2000
   18.7464   59.9094   26.0486 C   0  0  0  0  0  0  0  0  0  0  0  0
   18.3477   59.6787   24.7017 C   0  0  0  0  0  0  0  0  0  0  0  0
   18.7709   58.5357   24.0415 C   0  0  0  0  0  0  0  0  0  0  0  0
   19.6193   57.5868   24.6934 C   0  0  0  0  0  0  0  0  0  0  0  0
   20.0209   57.8220   25.9919 C   0  0  0  0  0  0  0  0  0  0  0  0
   19.5734   58.9647   26.6651 C   0  0  0  0  0  0  0  0  0  0  0  0
   18.3090   61.1171   26.7578 C   0  0  0  0  0  0  0  0  0  0  0  0
   18.0023   62.1479   26.1480 O   0  0  0  0  0  0  0  0  0  0  0  0
   18.1778   61.0945   28.0741 N   0  0  0  0  0  0  0  0  0  0  0  0
   18.3797   60.2503   28.5386 H   0  0  0  0  0  0  0  0  0  0  0  0
   17.7435   62.2630   28.9107 C   0  0  0  0  0  0  0  0  0  0  0  0
   18.4039   61.9577   30.2254 C   0  0  0  0  0  0  0  0  0  0  0  0
   18.1998   62.7404   31.1962 O   0  0  0  0  0  0  0  0  0  0  0  0
   19.0975   60.9108   30.2693 O   0  0  0  0  0  0  0  0  0  0  0  0
   19.1993   60.3837   29.5014 H   0  0  0  0  0  0  0  0  0  0  0  0
   16.2223   62.1628   29.2053 C   0  0  0  0  0  0  0  0  0  0  0  0
   15.6162   60.7053   29.0149 C   0  0  0  0  0  0  0  0  0  0  0  0
   15.7132   59.7301   30.2038 C   0  0  0  0  0  0  0  0  0  0  0  0
   16.6894   58.9082   30.0569 O   0  0  0  0  0  0  0  0  0  0  0  0
   14.9050   59.7752   31.1553 O   0  0  0  0  0  0  0  0  0  0  0  0
   14.2253   60.4201   31.1626 H   0  0  0  0  0  0  0  0  0  0  0  0
   19.9914   56.4529   23.9248 N   0  0  0  0  0  0  0  0  0  0  0  0
   20.8270   56.4278   22.6832 C   0  0  0  0  0  0  0  0  0  0  0  0
   19.5929   55.0913   24.4140 C   0  0  0  0  0  0  0  0  0  0  0  0
   14.1186   54.3823   24.6789 N   0  0  0  0  0  0  0  0  0  0  0  0
   13.4890   54.4322   25.8564 C   0  0  0  0  0  0  0  0  0  0  0  0
   12.2273   54.2808   25.9622 N   0  0  0  0  0  0  0  0  0  0  0  0
   14.2752   54.6196   27.0092 N   0  0  0  0  0  0  0  0  0  0  0  0
   15.6149   54.8255   27.0775 C   0  0  0  0  0  0  0  0  0  0  0  0
   16.2388   55.0270   28.1800 N   0  0  0  0  0  0  0  0  0  0  0  0
   16.2286   54.7586   25.7558 C   0  0  0  0  0  0  0  0  0  0  0  0
   17.5652   54.9885   25.7120 N   0  0  0  0  0  0  0  0  0  0  0  0
   18.1337   54.8896   24.4755 C   0  0  0  0  0  0  0  0  0  0  0  0
   17.3394   54.5712   23.3543 C   0  0  0  0  0  0  0  0  0  0  0  0
   16.0072   54.4156   23.3950 N   0  0  0  0  0  0  0  0  0  0  0  0
   15.4936   54.5160   24.6509 C   0  0  0  0  0  0  0  0  0  0  0  0
   11.6779   54.1497   25.1558 H   0  0  0  0  0  0  0  0  0  0  0  0
   11.8025   54.2950   26.8503 H   0  0  0  0  0  0  0  0  0  0  0  0
   15.7411   55.0567   29.0289 H   0  0  0  0  0  0  0  0  0  0  0  0
   17.2153   55.1520   28.1773 H   0  0  0  0  0  0  0  0  0  0  0  0
 25 26  2  0  0  0
 25 36  1  0  0  0
 26 27  1  0  0  0
 26 28  1  0  0  0
 28 29  2  0  0  0
 29 30  1  0  0  0
 29 31  1  0  0  0
 31 32  1  0  0  0
 31 36  2  0  0  0
 32 33  2  0  0  0
 33 34  1  0  0  0
 33 24  1  0  0  0
 34 35  2  0  0  0
 35 36  1  0  0  0
 24 22  1  0  0  0
 22 23  1  0  0  0
 22  4  1  0  0  0
  1  2  2  0  0  0
  1  6  1  0  0  0
  1  7  1  0  0  0
  2  3  1  0  0  0
  3  4  2  0  0  0
  4  5  1  0  0  0
  5  6  2  0  0  0
  7  8  2  0  0  0
  7  9  1  0  0  0
  9 11  1  0  0  0
 11 12  1  0  0  0
 11 16  1  0  0  0
 12 13  2  0  0  0
 12 14  1  0  0  0
 16 17  1  0  0  0
 17 18  1  0  0  0
 18 19  2  0  0  0
 18 20  1  0  0  0
 27 37  1  0  0  0
 27 38  1  0  0  0
 30 39  1  0  0  0
 30 40  1  0  0  0
  9 10  1  0  0  0
 14 15  1  0  0  0
 20 21  1  0  0  0
M  END
> <minimizedAffinity>
-8.54362

$$$$
1DHI_MTX_A_161


 40 42  0  0  0  0  0  0  0  0999 V2000
   17.6890   61.2076   26.3309 C   0  0  0  0  0  0  0  0  0  0  0  0
   17.3885   60.0380   27.0846 C   0  0  0  0  0  0  0  0  0  0  0  0
   17.4535   58.7914   26.4819 C   0  0  0  0  0  0  0  0  0  0  0  0
   17.8057   58.6643   25.1016 C   0  0  0  0  0  0  0  0  0  0  0  0
   18.0770   59.8004   24.3678 C   0  0  0  0  0  0  0  0  0  0  0  0
   18.0342   61.0565   24.9839 C   0  0  0  0  0  0  0  0  0  0  0  0
   17.6203   62.5336   26.9554 C   0  0  0  0  0  0  0  0  0  0  0  0
   17.7387   62.6779   28.1776 O   0  0  0  0  0  0  0  0  0  0  0  0
   17.4900   63.6103   26.1980 N   0  0  0  0  0  0  0  0  0  0  0  0
   17.4461   63.4802   25.2231 H   0  0  0  0  0  0  0  0  0  0  0  0
   17.4042   65.0163   26.7173 C   0  0  0  0  0  0  0  0  0  0  0  0
   15.9728   65.3633   26.4203 C   0  0  0  0  0  0  0  0  0  0  0  0
   15.7305   66.1323   25.4472 O   0  0  0  0  0  0  0  0  0  0  0  0
   15.1067   64.8281   27.1568 O   0  0  0  0  0  0  0  0  0  0  0  0
   15.3710   64.2683   27.8602 H   0  0  0  0  0  0  0  0  0  0  0  0
   18.2325   65.9645   25.8085 C   0  0  0  0  0  0  0  0  0  0  0  0
   19.2529   65.2170   24.8451 C   0  0  0  0  0  0  0  0  0  0  0  0
   20.4587   66.0197   24.3202 C   0  0  0  0  0  0  0  0  0  0  0  0
   20.1717   66.6380   23.2315 O   0  0  0  0  0  0  0  0  0  0  0  0
   21.5562   66.0182   24.9171 O   0  0  0  0  0  0  0  0  0  0  0  0
   21.6576   65.5292   25.7100 H   0  0  0  0  0  0  0  0  0  0  0  0
   17.8422   57.3418   24.5876 N   0  0  0  0  0  0  0  0  0  0  0  0
   16.8713   56.7036   23.6440 C   0  0  0  0  0  0  0  0  0  0  0  0
   19.0107   56.4673   24.9371 C   0  0  0  0  0  0  0  0  0  0  0  0
   23.8759   58.3877   23.1532 N   0  0  0  0  0  0  0  0  0  0  0  0
   24.6230   59.1659   23.9416 C   0  0  0  0  0  0  0  0  0  0  0  0
   25.7542   59.6249   23.5728 N   0  0  0  0  0  0  0  0  0  0  0  0
   24.1012   59.5088   25.2035 N   0  0  0  0  0  0  0  0  0  0  0  0
   22.9383   59.0901   25.7640 C   0  0  0  0  0  0  0  0  0  0  0  0
   22.5658   59.4288   26.9438 N   0  0  0  0  0  0  0  0  0  0  0  0
   22.1822   58.2456   24.8457 C   0  0  0  0  0  0  0  0  0  0  0  0
   21.0169   57.7441   25.3270 N   0  0  0  0  0  0  0  0  0  0  0  0
   20.3019   56.9839   24.4477 C   0  0  0  0  0  0  0  0  0  0  0  0
   20.7892   56.7641   23.1425 C   0  0  0  0  0  0  0  0  0  0  0  0
   21.9762   57.2044   22.6978 N   0  0  0  0  0  0  0  0  0  0  0  0
   22.6431   57.9625   23.6099 C   0  0  0  0  0  0  0  0  0  0  0  0
   26.1187   59.3849   22.6903 H   0  0  0  0  0  0  0  0  0  0  0  0
   26.2629   60.2192   24.1705 H   0  0  0  0  0  0  0  0  0  0  0  0
   23.1429   60.0045   27.4959 H   0  0  0  0  0  0  0  0  0  0  0  0
   21.7029   59.1130   27.2972 H   0  0  0  0  0  0  0  0  0  0  0  0
 25 26  2  0  0  0
 25 36  1  0  0  0
 26 27  1  0  0  0
 26 28  1  0  0  0
 28 29  2  0  0  0
 29 30  1  0  0  0
 29 31  1  0  0  0
 31 32  1  0  0  0
 31 36  2  0  0  0
 32 33  2  0  0  0
 33 34  1  0  0  0
 33 24  1  0  0  0
 34 35  2  0  0  0
 35 36  1  0  0  0
 24 22  1  0  0  0
 22 23  1  0  0  0
 22  4  1  0  0  0
  1  2  2  0  0  0
  1  6  1  0  0  0
  1  7  1  0  0  0
  2  3  1  0  0  0
  3  4  2  0  0  0
  4  5  1  0  0  0
  5  6  2  0  0  0
  7  8  2  0  0  0
  7  9  1  0  0  0
  9 11  1  0  0  0
 11 12  1  0  0  0
 11 16  1  0  0  0
 12 13  2  0  0  0
 12 14  1  0  0  0
 16 17  1  0  0  0
 17 18  1  0  0  0
 18 19  2  0  0  0
 18 20  1  0  0  0
 27 37  1  0  0  0
 27 38  1  0  0  0
 30 39  1  0  0  0
 30 40  1  0  0  0
  9 10  1  0  0  0
 14 15  1  0  0  0
 20 21  1  0  0  0
M  END
> <minimizedAffinity>
-8.47279

$$$$
1DHI_MTX_A_161


 40 42  0  0  0  0  0  0  0  0999 V2000
   15.7039   59.2907   28.8813 C   0  0  0  0  0  0  0  0  0  0  0  0
   15.6837   57.9100   29.2274 C   0  0  0  0  0  0  0  0  0  0  0  0
   16.0200   56.9549   28.2808 C   0  0  0  0  0  0  0  0  0  0  0  0
   16.3746   57.3385   26.9494 C   0  0  0  0  0  0  0  0  0  0  0  0
   16.3742   58.6755   26.6104 C   0  0  0  0  0  0  0  0  0  0  0  0
   16.0575   59.6402   27.5739 C   0  0  0  0  0  0  0  0  0  0  0  0
   15.3463   60.3118   29.8724 C   0  0  0  0  0  0  0  0  0  0  0  0
   15.0119   60.0053   31.0225 O   0  0  0  0  0  0  0  0  0  0  0  0
   15.4389   61.5934   29.5577 N   0  0  0  0  0  0  0  0  0  0  0  0
   15.7537   61.8198   28.6528 H   0  0  0  0  0  0  0  0  0  0  0  0
   15.0989   62.7276   30.4806 C   0  0  0  0  0  0  0  0  0  0  0  0
   14.3616   63.6583   29.5597 C   0  0  0  0  0  0  0  0  0  0  0  0
   15.0302   64.4978   28.8926 O   0  0  0  0  0  0  0  0  0  0  0  0
   13.1155   63.5080   29.4984 O   0  0  0  0  0  0  0  0  0  0  0  0
   12.6951   62.8600   30.0288 H   0  0  0  0  0  0  0  0  0  0  0  0
   16.3904   63.4996   30.8638 C   0  0  0  0  0  0  0  0  0  0  0  0
   17.6815   63.0549   30.0494 C   0  0  0  0  0  0  0  0  0  0  0  0
   18.6459   62.0617   30.7255 C   0  0  0  0  0  0  0  0  0  0  0  0
   18.6302   60.9197   30.1376 O   0  0  0  0  0  0  0  0  0  0  0  0
   19.3215   62.3830   31.7260 O   0  0  0  0  0  0  0  0  0  0  0  0
   19.2566   63.2496   32.0765 H   0  0  0  0  0  0  0  0  0  0  0  0
   16.7014   56.2795   26.0625 N   0  0  0  0  0  0  0  0  0  0  0  0
   15.9799   55.8817   24.8130 C   0  0  0  0  0  0  0  0  0  0  0  0
   17.9498   55.4870   26.3192 C   0  0  0  0  0  0  0  0  0  0  0  0
   22.4794   58.6350   26.6566 N   0  0  0  0  0  0  0  0  0  0  0  0
   22.9530   59.2527   25.5705 C   0  0  0  0  0  0  0  0  0  0  0  0
   23.9905   59.9933   25.6049 N   0  0  0  0  0  0  0  0  0  0  0  0
   22.2875   59.0287   24.3502 N   0  0  0  0  0  0  0  0  0  0  0  0
   21.1620   58.3005   24.1384 C   0  0  0  0  0  0  0  0  0  0  0  0
   20.6051   58.1874   22.9884 N   0  0  0  0  0  0  0  0  0  0  0  0
   20.7064   57.6608   25.3678 C   0  0  0  0  0  0  0  0  0  0  0  0
   19.5630   56.9369   25.2692 N   0  0  0  0  0  0  0  0  0  0  0  0
   19.1653   56.3156   26.4172 C   0  0  0  0  0  0  0  0  0  0  0  0
   19.9261   56.4531   27.5969 C   0  0  0  0  0  0  0  0  0  0  0  0
   21.0162   57.2283   27.7038 N   0  0  0  0  0  0  0  0  0  0  0  0
   21.3729   57.8171   26.5302 C   0  0  0  0  0  0  0  0  0  0  0  0
   24.4555   60.1497   26.4584 H   0  0  0  0  0  0  0  0  0  0  0  0
   24.3264   60.4087   24.7780 H   0  0  0  0  0  0  0  0  0  0  0  0
   20.9831   58.6572   22.2102 H   0  0  0  0  0  0  0  0  0  0  0  0
   19.7997   57.6310   22.8841 H   0  0  0  0  0  0  0  0  0  0  0  0
 25 26  2  0  0  0
 25 36  1  0  0  0
 26 27  1  0  0  0
 26 28  1  0  0  0
 28 29  2  0  0  0
 29 30  1  0  0  0
 29 31  1  0  0  0
 31 32  1  0  0  0
 31 36  2  0  0  0
 32 33  2  0  0  0
 33 34  1  0  0  0
 33 24  1  0  0  0
 34 35  2  0  0  0
 35 36  1  0  0  0
 24 22  1  0  0  0
 22 23  1  0  0  0
 22  4  1  0  0  0
  1  2  2  0  0  0
  1  6  1  0  0  0
  1  7  1  0  0  0
  2  3  1  0  0  0
  3  4  2  0  0  0
  4  5  1  0  0  0
  5  6  2  0  0  0
  7  8  2  0  0  0
  7  9  1  0  0  0
  9 11  1  0  0  0
 11 12  1  0  0  0
 11 16  1  0  0  0
 12 13  2  0  0  0
 12 14  1  0  0  0
 16 17  1  0  0  0
 17 18  1  0  0  0
 18 19  2  0  0  0
 18 20  1  0  0  0
 27 37  1  0  0  0
 27 38  1  0  0  0
 30 39  1  0  0  0
 30 40  1  0  0  0
  9 10  1  0  0  0
 14 15  1  0  0  0
 20 21  1  0  0  0
M  END
> <minimizedAffinity>
-8.42898

$$$$
