4GQQ_0XR_A_502


 17 17  0  0  0  0  0  0  0  0999 V2000
    6.8096  -17.0902  116.8675 C   0  0  0  0  0  0  0  0  0  0  0  0
    7.1994  -18.4246  116.8308 C   0  0  0  0  0  0  0  0  0  0  0  0
    7.1522  -16.2969  117.9562 C   0  0  0  0  0  0  0  0  0  0  0  0
    7.8920  -16.8323  119.0065 C   0  0  0  0  0  0  0  0  0  0  0  0
    8.2880  -18.1649  118.9653 C   0  0  0  0  0  0  0  0  0  0  0  0
    9.0102  -18.6903  119.9895 O   0  0  0  0  0  0  0  0  0  0  0  0
    7.9421  -18.9611  117.8793 C   0  0  0  0  0  0  0  0  0  0  0  0
    8.3550  -20.2564  117.8493 O   0  0  0  0  0  0  0  0  0  0  0  0
    9.2773  -19.5880  119.9623 H   0  0  0  0  0  0  0  0  0  0  0  0
    8.8542  -20.6056  118.5612 H   0  0  0  0  0  0  0  0  0  0  0  0
    6.2927  -17.2004  114.3915 C   0  0  0  0  0  0  0  0  0  0  0  0
    6.0724  -16.4401  115.6984 C   0  0  0  0  0  0  0  0  0  0  0  0
    5.6122  -16.4768  113.2281 C   0  0  0  0  0  0  0  0  0  0  0  0
    5.0651  -15.3867  113.3927 O   0  0  0  0  0  0  0  0  0  0  0  0
    5.6404  -17.0600  112.0001 O   0  0  0  0  0  0  0  0  0  0  0  0
    6.8755  -16.5525  110.0082 C   0  0  0  0  0  0  0  0  0  0  0  0
    6.9629  -17.0613  111.4508 C   0  0  0  0  0  0  0  0  0  0  0  0
  6  5  1  0  0  0
  8  7  1  0  0  0
  5  7  2  0  0  0
  5  4  1  0  0  0
  7  2  1  0  0  0
  4  3  2  0  0  0
  2  1  2  0  0  0
  3  1  1  0  0  0
  1 12  1  0  0  0
 12 11  2  0  0  0
 11 13  1  0  0  0
 13 15  1  0  0  0
 13 14  2  0  0  0
 15 17  1  0  0  0
 17 16  1  0  0  0
  6  9  1  0  0  0
  8 10  1  0  0  0
M  END
> <minimizedAffinity>
-5.33160

$$$$
4GQQ_0XR_A_502


 17 17  0  0  0  0  0  0  0  0999 V2000
    6.5814  -17.2072  116.0517 C   0  0  0  0  0  0  0  0  0  0  0  0
    5.9134  -16.0993  115.5415 C   0  0  0  0  0  0  0  0  0  0  0  0
    6.9088  -18.2666  115.2136 C   0  0  0  0  0  0  0  0  0  0  0  0
    6.5774  -18.2182  113.8628 C   0  0  0  0  0  0  0  0  0  0  0  0
    5.9162  -17.1064  113.3519 C   0  0  0  0  0  0  0  0  0  0  0  0
    5.5912  -17.0566  112.0333 O   0  0  0  0  0  0  0  0  0  0  0  0
    5.5837  -16.0479  114.1897 C   0  0  0  0  0  0  0  0  0  0  0  0
    4.9539  -14.9618  113.6669 O   0  0  0  0  0  0  0  0  0  0  0  0
    5.1457  -16.3078  111.6886 H   0  0  0  0  0  0  0  0  0  0  0  0
    4.7374  -14.9394  112.7556 H   0  0  0  0  0  0  0  0  0  0  0  0
    7.9647  -18.4520  117.7683 C   0  0  0  0  0  0  0  0  0  0  0  0
    7.0402  -17.2638  117.5074 C   0  0  0  0  0  0  0  0  0  0  0  0
    8.3364  -18.5279  119.2503 C   0  0  0  0  0  0  0  0  0  0  0  0
    7.9071  -17.7010  120.0546 O   0  0  0  0  0  0  0  0  0  0  0  0
    9.1413  -19.5431  119.6627 O   0  0  0  0  0  0  0  0  0  0  0  0
   10.3547  -21.1781  118.3958 C   0  0  0  0  0  0  0  0  0  0  0  0
    8.9688  -20.7111  118.8524 C   0  0  0  0  0  0  0  0  0  0  0  0
  6  5  1  0  0  0
  8  7  1  0  0  0
  5  7  2  0  0  0
  5  4  1  0  0  0
  7  2  1  0  0  0
  4  3  2  0  0  0
  2  1  2  0  0  0
  3  1  1  0  0  0
  1 12  1  0  0  0
 12 11  2  0  0  0
 11 13  1  0  0  0
 13 15  1  0  0  0
 13 14  2  0  0  0
 15 17  1  0  0  0
 17 16  1  0  0  0
  6  9  1  0  0  0
  8 10  1  0  0  0
M  END
> <minimizedAffinity>
-5.25572

$$$$
4GQQ_0XR_A_502


 17 17  0  0  0  0  0  0  0  0999 V2000
    6.5657  -17.2671  116.0992 C   0  0  0  0  0  0  0  0  0  0  0  0
    5.8896  -16.1544  115.6108 C   0  0  0  0  0  0  0  0  0  0  0  0
    6.9195  -18.2980  115.2365 C   0  0  0  0  0  0  0  0  0  0  0  0
    6.6064  -18.2158  113.8829 C   0  0  0  0  0  0  0  0  0  0  0  0
    5.9370  -17.0990  113.3940 C   0  0  0  0  0  0  0  0  0  0  0  0
    5.6299  -17.0162  112.0728 O   0  0  0  0  0  0  0  0  0  0  0  0
    5.5782  -16.0691  114.2564 C   0  0  0  0  0  0  0  0  0  0  0  0
    4.9409  -14.9773  113.7553 O   0  0  0  0  0  0  0  0  0  0  0  0
    5.1789  -16.2641  111.7429 H   0  0  0  0  0  0  0  0  0  0  0  0
    4.7368  -14.9320  112.8419 H   0  0  0  0  0  0  0  0  0  0  0  0
    7.1895  -15.9781  118.1871 C   0  0  0  0  0  0  0  0  0  0  0  0
    7.0049  -17.3588  117.5592 C   0  0  0  0  0  0  0  0  0  0  0  0
    7.7102  -16.1051  119.6199 C   0  0  0  0  0  0  0  0  0  0  0  0
    8.3194  -15.1805  120.1571 O   0  0  0  0  0  0  0  0  0  0  0  0
    7.4691  -17.2610  120.2942 O   0  0  0  0  0  0  0  0  0  0  0  0
    6.1202  -17.0356  122.2640 C   0  0  0  0  0  0  0  0  0  0  0  0
    7.5486  -17.0676  121.7109 C   0  0  0  0  0  0  0  0  0  0  0  0
  6  5  1  0  0  0
  8  7  1  0  0  0
  5  7  2  0  0  0
  5  4  1  0  0  0
  7  2  1  0  0  0
  4  3  2  0  0  0
  2  1  2  0  0  0
  3  1  1  0  0  0
  1 12  1  0  0  0
 12 11  2  0  0  0
 11 13  1  0  0  0
 13 15  1  0  0  0
 13 14  2  0  0  0
 15 17  1  0  0  0
 17 16  1  0  0  0
  6  9  1  0  0  0
  8 10  1  0  0  0
M  END
> <minimizedAffinity>
-5.00955

$$$$
4GQQ_0XR_A_502


 17 17  0  0  0  0  0  0  0  0999 V2000
    6.6014  -17.0030  116.1551 C   0  0  0  0  0  0  0  0  0  0  0  0
    5.9037  -15.9740  115.5320 C   0  0  0  0  0  0  0  0  0  0  0  0
    6.9685  -18.1307  115.4302 C   0  0  0  0  0  0  0  0  0  0  0  0
    6.6471  -18.2294  114.0797 C   0  0  0  0  0  0  0  0  0  0  0  0
    5.9560  -17.1963  113.4556 C   0  0  0  0  0  0  0  0  0  0  0  0
    5.6406  -17.2901  112.1371 O   0  0  0  0  0  0  0  0  0  0  0  0
    5.5839  -16.0697  114.1803 C   0  0  0  0  0  0  0  0  0  0  0  0
    4.9252  -15.0624  113.5471 O   0  0  0  0  0  0  0  0  0  0  0  0
    5.1750  -16.5944  111.7161 H   0  0  0  0  0  0  0  0  0  0  0  0
    4.7157  -15.1390  112.6370 H   0  0  0  0  0  0  0  0  0  0  0  0
    7.8533  -18.1209  118.0506 C   0  0  0  0  0  0  0  0  0  0  0  0
    7.0496  -16.8979  117.6115 C   0  0  0  0  0  0  0  0  0  0  0  0
    8.2128  -18.0226  119.5343 C   0  0  0  0  0  0  0  0  0  0  0  0
    9.0581  -18.7658  120.0322 O   0  0  0  0  0  0  0  0  0  0  0  0
    7.5868  -17.0808  120.2892 O   0  0  0  0  0  0  0  0  0  0  0  0
    6.7155  -16.4021  122.4178 C   0  0  0  0  0  0  0  0  0  0  0  0
    7.3941  -17.5309  121.6349 C   0  0  0  0  0  0  0  0  0  0  0  0
  6  5  1  0  0  0
  8  7  1  0  0  0
  5  7  2  0  0  0
  5  4  1  0  0  0
  7  2  1  0  0  0
  4  3  2  0  0  0
  2  1  2  0  0  0
  3  1  1  0  0  0
  1 12  1  0  0  0
 12 11  2  0  0  0
 11 13  1  0  0  0
 13 15  1  0  0  0
 13 14  2  0  0  0
 15 17  1  0  0  0
 17 16  1  0  0  0
  6  9  1  0  0  0
  8 10  1  0  0  0
M  END
> <minimizedAffinity>
-4.86774

$$$$
4GQQ_0XR_A_502


 17 17  0  0  0  0  0  0  0  0999 V2000
    6.4360  -16.9753  113.6763 C   0  0  0  0  0  0  0  0  0  0  0  0
    7.2379  -17.9851  114.1968 C   0  0  0  0  0  0  0  0  0  0  0  0
    5.7360  -16.1340  114.5331 C   0  0  0  0  0  0  0  0  0  0  0  0
    5.8420  -16.2940  115.9116 C   0  0  0  0  0  0  0  0  0  0  0  0
    6.6503  -17.2994  116.4313 C   0  0  0  0  0  0  0  0  0  0  0  0
    6.7555  -17.4581  117.7769 O   0  0  0  0  0  0  0  0  0  0  0  0
    7.3475  -18.1448  115.5757 C   0  0  0  0  0  0  0  0  0  0  0  0
    8.1471  -19.1096  116.1040 O   0  0  0  0  0  0  0  0  0  0  0  0
    7.2999  -18.1353  118.1276 H   0  0  0  0  0  0  0  0  0  0  0  0
    8.2123  -19.2069  117.0336 H   0  0  0  0  0  0  0  0  0  0  0  0
    7.5597  -17.2917  111.4297 C   0  0  0  0  0  0  0  0  0  0  0  0
    6.3591  -16.7095  112.1741 C   0  0  0  0  0  0  0  0  0  0  0  0
    7.4944  -16.9351  109.9435 C   0  0  0  0  0  0  0  0  0  0  0  0
    6.4148  -16.8532  109.3582 O   0  0  0  0  0  0  0  0  0  0  0  0
    8.6597  -16.6936  109.2858 O   0  0  0  0  0  0  0  0  0  0  0  0
    9.1841  -18.5992  107.9279 C   0  0  0  0  0  0  0  0  0  0  0  0
    9.4858  -17.8622  109.2368 C   0  0  0  0  0  0  0  0  0  0  0  0
  6  5  1  0  0  0
  8  7  1  0  0  0
  5  7  2  0  0  0
  5  4  1  0  0  0
  7  2  1  0  0  0
  4  3  2  0  0  0
  2  1  2  0  0  0
  3  1  1  0  0  0
  1 12  1  0  0  0
 12 11  2  0  0  0
 11 13  1  0  0  0
 13 15  1  0  0  0
 13 14  2  0  0  0
 15 17  1  0  0  0
 17 16  1  0  0  0
  6  9  1  0  0  0
  8 10  1  0  0  0
M  END
> <minimizedAffinity>
-4.84012

$$$$
4GQQ_0XR_A_502


 17 17  0  0  0  0  0  0  0  0999 V2000
    7.3878  -17.7972  115.4122 C   0  0  0  0  0  0  0  0  0  0  0  0
    6.7295  -18.0949  114.2240 C   0  0  0  0  0  0  0  0  0  0  0  0
    7.2370  -16.5438  115.9938 C   0  0  0  0  0  0  0  0  0  0  0  0
    6.4217  -15.5881  115.3946 C   0  0  0  0  0  0  0  0  0  0  0  0
    5.7577  -15.8894  114.2103 C   0  0  0  0  0  0  0  0  0  0  0  0
    4.9612  -14.9581  113.6229 O   0  0  0  0  0  0  0  0  0  0  0  0
    5.9111  -17.1410  113.6247 C   0  0  0  0  0  0  0  0  0  0  0  0
    5.2384  -17.4223  112.4768 O   0  0  0  0  0  0  0  0  0  0  0  0
    4.5136  -15.1606  112.8250 H   0  0  0  0  0  0  0  0  0  0  0  0
    4.6908  -16.7717  112.0832 H   0  0  0  0  0  0  0  0  0  0  0  0
    7.9162  -18.8677  117.6448 C   0  0  0  0  0  0  0  0  0  0  0  0
    8.2220  -18.8439  116.1480 C   0  0  0  0  0  0  0  0  0  0  0  0
    8.8272  -19.8649  118.3632 C   0  0  0  0  0  0  0  0  0  0  0  0
    8.4035  -20.9611  118.7285 O   0  0  0  0  0  0  0  0  0  0  0  0
   10.1246  -19.5175  118.5746 O   0  0  0  0  0  0  0  0  0  0  0  0
   11.6452  -20.7643  117.2021 C   0  0  0  0  0  0  0  0  0  0  0  0
   10.9806  -20.6655  118.5790 C   0  0  0  0  0  0  0  0  0  0  0  0
  6  5  1  0  0  0
  8  7  1  0  0  0
  5  7  2  0  0  0
  5  4  1  0  0  0
  7  2  1  0  0  0
  4  3  2  0  0  0
  2  1  2  0  0  0
  3  1  1  0  0  0
  1 12  1  0  0  0
 12 11  2  0  0  0
 11 13  1  0  0  0
 13 15  1  0  0  0
 13 14  2  0  0  0
 15 17  1  0  0  0
 17 16  1  0  0  0
  6  9  1  0  0  0
  8 10  1  0  0  0
M  END
> <minimizedAffinity>
-4.69646

$$$$
4GQQ_0XR_A_502


 17 17  0  0  0  0  0  0  0  0999 V2000
    7.4484  -17.8557  115.3734 C   0  0  0  0  0  0  0  0  0  0  0  0
    6.7761  -18.1209  114.1853 C   0  0  0  0  0  0  0  0  0  0  0  0
    7.2791  -16.6306  116.0078 C   0  0  0  0  0  0  0  0  0  0  0  0
    6.4317  -15.6712  115.4616 C   0  0  0  0  0  0  0  0  0  0  0  0
    5.7539  -15.9403  114.2773 C   0  0  0  0  0  0  0  0  0  0  0  0
    4.9260  -15.0053  113.7416 O   0  0  0  0  0  0  0  0  0  0  0  0
    5.9257  -17.1634  113.6389 C   0  0  0  0  0  0  0  0  0  0  0  0
    5.2394  -17.4142  112.4920 O   0  0  0  0  0  0  0  0  0  0  0  0
    4.4691  -15.1861  112.9437 H   0  0  0  0  0  0  0  0  0  0  0  0
    4.6702  -16.7615  112.1344 H   0  0  0  0  0  0  0  0  0  0  0  0
    8.1344  -18.9137  117.5688 C   0  0  0  0  0  0  0  0  0  0  0  0
    8.3193  -18.9110  116.0522 C   0  0  0  0  0  0  0  0  0  0  0  0
    9.0813  -19.9212  118.2234 C   0  0  0  0  0  0  0  0  0  0  0  0
   10.2982  -19.8508  118.0528 O   0  0  0  0  0  0  0  0  0  0  0  0
    8.5470  -20.8896  119.0143 O   0  0  0  0  0  0  0  0  0  0  0  0
    9.0125  -20.0180  121.1993 C   0  0  0  0  0  0  0  0  0  0  0  0
    9.3462  -21.1134  120.1813 C   0  0  0  0  0  0  0  0  0  0  0  0
  6  5  1  0  0  0
  8  7  1  0  0  0
  5  7  2  0  0  0
  5  4  1  0  0  0
  7  2  1  0  0  0
  4  3  2  0  0  0
  2  1  2  0  0  0
  3  1  1  0  0  0
  1 12  1  0  0  0
 12 11  2  0  0  0
 11 13  1  0  0  0
 13 15  1  0  0  0
 13 14  2  0  0  0
 15 17  1  0  0  0
 17 16  1  0  0  0
  6  9  1  0  0  0
  8 10  1  0  0  0
M  END
> <minimizedAffinity>
-4.54564

$$$$
4GQQ_0XR_A_502


 17 17  0  0  0  0  0  0  0  0999 V2000
    6.5732  -17.2937  115.7990 C   0  0  0  0  0  0  0  0  0  0  0  0
    6.7351  -18.1919  114.7498 C   0  0  0  0  0  0  0  0  0  0  0  0
    6.2569  -15.9664  115.5336 C   0  0  0  0  0  0  0  0  0  0  0  0
    6.0933  -15.5354  114.2204 C   0  0  0  0  0  0  0  0  0  0  0  0
    6.2479  -16.4363  113.1722 C   0  0  0  0  0  0  0  0  0  0  0  0
    6.0889  -16.0181  111.8890 O   0  0  0  0  0  0  0  0  0  0  0  0
    6.5689  -17.7631  113.4356 C   0  0  0  0  0  0  0  0  0  0  0  0
    6.6972  -18.6323  112.3976 O   0  0  0  0  0  0  0  0  0  0  0  0
    6.1929  -16.6246  111.1823 H   0  0  0  0  0  0  0  0  0  0  0  0
    6.5829  -18.3313  111.5176 H   0  0  0  0  0  0  0  0  0  0  0  0
    7.8213  -17.0781  117.9912 C   0  0  0  0  0  0  0  0  0  0  0  0
    6.6582  -17.7428  117.2564 C   0  0  0  0  0  0  0  0  0  0  0  0
    7.9293  -17.6128  119.4204 C   0  0  0  0  0  0  0  0  0  0  0  0
    8.7495  -18.4831  119.7113 O   0  0  0  0  0  0  0  0  0  0  0  0
    7.1067  -17.0907  120.3689 O   0  0  0  0  0  0  0  0  0  0  0  0
    6.3480  -17.3782  122.6255 C   0  0  0  0  0  0  0  0  0  0  0  0
    7.5604  -17.4093  121.6892 C   0  0  0  0  0  0  0  0  0  0  0  0
  6  5  1  0  0  0
  8  7  1  0  0  0
  5  7  2  0  0  0
  5  4  1  0  0  0
  7  2  1  0  0  0
  4  3  2  0  0  0
  2  1  2  0  0  0
  3  1  1  0  0  0
  1 12  1  0  0  0
 12 11  2  0  0  0
 11 13  1  0  0  0
 13 15  1  0  0  0
 13 14  2  0  0  0
 15 17  1  0  0  0
 17 16  1  0  0  0
  6  9  1  0  0  0
  8 10  1  0  0  0
M  END
> <minimizedAffinity>
-4.52777

$$$$
4GQQ_0XR_A_502


 17 17  0  0  0  0  0  0  0  0999 V2000
    7.5191  -18.0269  115.5643 C   0  0  0  0  0  0  0  0  0  0  0  0
    8.8293  -17.6006  115.3758 C   0  0  0  0  0  0  0  0  0  0  0  0
    7.0561  -18.3007  116.8459 C   0  0  0  0  0  0  0  0  0  0  0  0
    7.8979  -18.1413  117.9427 C   0  0  0  0  0  0  0  0  0  0  0  0
    9.2058  -17.7077  117.7539 C   0  0  0  0  0  0  0  0  0  0  0  0
   10.0301  -17.5514  118.8230 O   0  0  0  0  0  0  0  0  0  0  0  0
    9.6720  -17.4378  116.4721 C   0  0  0  0  0  0  0  0  0  0  0  0
   10.9482  -16.9967  116.3106 O   0  0  0  0  0  0  0  0  0  0  0  0
   10.9113  -17.2592  118.6964 H   0  0  0  0  0  0  0  0  0  0  0  0
   11.5054  -16.8913  117.0565 H   0  0  0  0  0  0  0  0  0  0  0  0
    6.8280  -17.0975  113.3129 C   0  0  0  0  0  0  0  0  0  0  0  0
    6.5369  -18.1318  114.3992 C   0  0  0  0  0  0  0  0  0  0  0  0
    5.7773  -17.1737  112.2037 C   0  0  0  0  0  0  0  0  0  0  0  0
    4.6089  -17.4665  112.4564 O   0  0  0  0  0  0  0  0  0  0  0  0
    6.1617  -16.8931  110.9300 O   0  0  0  0  0  0  0  0  0  0  0  0
    8.2256  -17.2805  109.7721 C   0  0  0  0  0  0  0  0  0  0  0  0
    7.5306  -16.4762  110.8755 C   0  0  0  0  0  0  0  0  0  0  0  0
  6  5  1  0  0  0
  8  7  1  0  0  0
  5  7  2  0  0  0
  5  4  1  0  0  0
  7  2  1  0  0  0
  4  3  2  0  0  0
  2  1  2  0  0  0
  3  1  1  0  0  0
  1 12  1  0  0  0
 12 11  2  0  0  0
 11 13  1  0  0  0
 13 15  1  0  0  0
 13 14  2  0  0  0
 15 17  1  0  0  0
 17 16  1  0  0  0
  6  9  1  0  0  0
  8 10  1  0  0  0
M  END
> <minimizedAffinity>
-4.45173

$$$$
4GQQ_0XR_A_502


 17 17  0  0  0  0  0  0  0  0999 V2000
    7.0325  -16.3565  111.8475 C   0  0  0  0  0  0  0  0  0  0  0  0
    7.3474  -15.3161  112.7148 C   0  0  0  0  0  0  0  0  0  0  0  0
    6.0194  -17.2500  112.1748 C   0  0  0  0  0  0  0  0  0  0  0  0
    5.3130  -17.1014  113.3647 C   0  0  0  0  0  0  0  0  0  0  0  0
    5.6236  -16.0560  114.2278 C   0  0  0  0  0  0  0  0  0  0  0  0
    4.9356  -15.9086  115.3905 O   0  0  0  0  0  0  0  0  0  0  0  0
    6.6398  -15.1641  113.9043 C   0  0  0  0  0  0  0  0  0  0  0  0
    6.9154  -14.1376  114.7527 O   0  0  0  0  0  0  0  0  0  0  0  0
    5.1444  -15.2044  115.9724 H   0  0  0  0  0  0  0  0  0  0  0  0
    6.4320  -14.0463  115.5502 H   0  0  0  0  0  0  0  0  0  0  0  0
    8.5657  -17.7773  110.4191 C   0  0  0  0  0  0  0  0  0  0  0  0
    7.7228  -16.5052  110.4931 C   0  0  0  0  0  0  0  0  0  0  0  0
    9.3090  -17.8521  109.0841 C   0  0  0  0  0  0  0  0  0  0  0  0
    9.9066  -16.8740  108.6358 O   0  0  0  0  0  0  0  0  0  0  0  0
    9.3080  -19.0329  108.4100 O   0  0  0  0  0  0  0  0  0  0  0  0
   11.2515  -20.1137  109.3072 C   0  0  0  0  0  0  0  0  0  0  0  0
    9.7204  -20.1166  109.2504 C   0  0  0  0  0  0  0  0  0  0  0  0
  6  5  1  0  0  0
  8  7  1  0  0  0
  5  7  2  0  0  0
  5  4  1  0  0  0
  7  2  1  0  0  0
  4  3  2  0  0  0
  2  1  2  0  0  0
  3  1  1  0  0  0
  1 12  1  0  0  0
 12 11  2  0  0  0
 11 13  1  0  0  0
 13 15  1  0  0  0
 13 14  2  0  0  0
 15 17  1  0  0  0
 17 16  1  0  0  0
  6  9  1  0  0  0
  8 10  1  0  0  0
M  END
> <minimizedAffinity>
-4.42085

$$$$
