4F3K_HCE_A_301


 33 35  0  0  0  0  0  0  0  0999 V2000
   -6.0972   -1.4944   20.2712 C   0  0  0  0  0  0  0  0  0  0  0  0
   -5.7630   -0.7280   21.5225 C   0  0  0  0  0  0  0  0  0  0  0  0
   -7.5594   -1.2220   20.0601 C   0  0  0  0  0  0  0  0  0  0  0  0
   -8.3631   -2.1429   20.8561 O   0  0  0  0  0  0  0  0  0  0  0  0
   -7.7857    0.2363   20.5390 C   0  0  0  0  0  0  0  0  0  0  0  0
   -6.9804    0.1168   21.7972 N   0  0  0  0  0  0  0  0  0  0  0  0
   -8.1292   -2.0495   21.7928 H   0  0  0  0  0  0  0  0  0  0  0  0
   -5.1940   -0.9781   19.1141 C   0  0  0  0  0  0  0  0  0  0  0  0
   -5.0264   -2.2784   17.8656 S   0  0  0  0  0  0  0  0  0  0  0  0
   -4.5557   -3.7296   18.9184 C   0  0  0  0  0  0  0  0  0  0  0  0
   -3.2065   -4.2243   18.4900 C   0  0  0  0  0  0  0  0  0  0  0  0
   -3.3929   -5.6941   18.2005 C   0  0  0  0  0  0  0  0  0  0  0  0
   -2.2756   -6.4859   18.7142 N   0  0  0  0  0  0  0  0  0  0  0  0
   -1.4100   -6.1815   18.2687 H   0  0  0  0  0  0  0  0  0  0  0  0
   -2.4350   -7.4722   18.5088 H   0  0  0  0  0  0  0  0  0  0  0  0
   -3.2185   -4.8985   15.9511 O   0  0  0  0  0  0  0  0  0  0  0  0
   -3.5074   -5.8683   16.6903 C   0  0  0  0  0  0  0  0  0  0  0  0
   -3.8349   -6.9947   16.2965 O   0  0  0  0  0  0  0  0  0  0  0  0
   -4.0361   -7.6676   16.9167 H   0  0  0  0  0  0  0  0  0  0  0  0
   -6.6712    1.3156   22.5355 C   0  0  0  0  0  0  0  0  0  0  0  0
   -5.3716    2.1253   22.1169 C   0  0  0  0  0  0  0  0  0  0  0  0
   -4.1892    2.0480   22.7494 C   0  0  0  0  0  0  0  0  0  0  0  0
   -3.3468    2.8634   22.1394 N   0  0  0  0  0  0  0  0  0  0  0  0
   -3.9826    3.5167   21.1419 C   0  0  0  0  0  0  0  0  0  0  0  0
   -5.2604    3.0374   21.1334 C   0  0  0  0  0  0  0  0  0  0  0  0
   -6.1559    3.4820   20.2193 N   0  0  0  0  0  0  0  0  0  0  0  0
   -5.7607    4.4394   19.2744 C   0  0  0  0  0  0  0  0  0  0  0  0
   -4.4531    4.9007   19.2754 N   0  0  0  0  0  0  0  0  0  0  0  0
   -3.6048    4.4511   20.2214 C   0  0  0  0  0  0  0  0  0  0  0  0
   -2.3396    4.9266   20.2104 N   0  0  0  0  0  0  0  0  0  0  0  0
   -2.3981    2.9778   22.3762 H   0  0  0  0  0  0  0  0  0  0  0  0
   -2.0727    5.6005   19.5441 H   0  0  0  0  0  0  0  0  0  0  0  0
   -1.6848    4.5991   20.8686 H   0  0  0  0  0  0  0  0  0  0  0  0
 16 17  2  0  0  0
 18 17  1  0  0  0
 17 12  1  0  0  0
 11 12  1  0  0  0
 11 10  1  0  0  0
 12 13  1  0  0  0
  9 10  1  0  0  0
  9  8  1  0  0  0
 27 28  2  0  0  0
 27 26  1  0  0  0
 28 29  1  0  0  0
  8  1  1  0  0  0
  3  5  1  0  0  0
  3  1  1  0  0  0
  3  4  1  0  0  0
 26 25  2  0  0  0
 29 30  1  0  0  0
 29 24  2  0  0  0
  5  6  1  0  0  0
  1  2  1  0  0  0
 25 24  1  0  0  0
 25 21  1  0  0  0
 24 23  1  0  0  0
  2  6  1  0  0  0
  6 20  1  0  0  0
 21 20  1  0  0  0
 21 22  2  0  0  0
 23 22  1  0  0  0
 18 19  1  0  0  0
 13 14  1  0  0  0
 13 15  1  0  0  0
  4  7  1  0  0  0
 23 31  1  0  0  0
 30 32  1  0  0  0
 30 33  1  0  0  0
M  END
> <minimizedAffinity>
-9.47497

$$$$
4F3K_HCE_A_301


 33 35  0  0  0  0  0  0  0  0999 V2000
   -5.0062   -1.2311   18.9632 C   0  0  0  0  0  0  0  0  0  0  0  0
   -3.6404   -1.8613   18.9183 C   0  0  0  0  0  0  0  0  0  0  0  0
   -5.8772   -2.2024   18.2183 C   0  0  0  0  0  0  0  0  0  0  0  0
   -5.7943   -1.9548   16.7832 O   0  0  0  0  0  0  0  0  0  0  0  0
   -5.3135   -3.6090   18.5517 C   0  0  0  0  0  0  0  0  0  0  0  0
   -3.8700   -3.2477   18.3738 N   0  0  0  0  0  0  0  0  0  0  0  0
   -4.8714   -2.0316   16.4947 H   0  0  0  0  0  0  0  0  0  0  0  0
   -5.4183   -1.0396   20.4514 C   0  0  0  0  0  0  0  0  0  0  0  0
   -7.1969   -0.7136   20.5383 S   0  0  0  0  0  0  0  0  0  0  0  0
   -7.2123    1.0476   21.1163 C   0  0  0  0  0  0  0  0  0  0  0  0
   -5.9242    1.7024   20.7156 C   0  0  0  0  0  0  0  0  0  0  0  0
   -5.5610    2.6085   21.8671 C   0  0  0  0  0  0  0  0  0  0  0  0
   -5.3119    3.9763   21.4129 N   0  0  0  0  0  0  0  0  0  0  0  0
   -4.5368    3.9786   20.7499 H   0  0  0  0  0  0  0  0  0  0  0  0
   -5.0762    4.5628   22.2135 H   0  0  0  0  0  0  0  0  0  0  0  0
   -3.1974    2.5212   22.2266 O   0  0  0  0  0  0  0  0  0  0  0  0
   -4.3136    2.0443   22.5381 C   0  0  0  0  0  0  0  0  0  0  0  0
   -4.5049    1.1739   23.3964 O   0  0  0  0  0  0  0  0  0  0  0  0
   -5.3741    0.8701   23.5700 H   0  0  0  0  0  0  0  0  0  0  0  0
   -2.8650   -4.1879   18.8026 C   0  0  0  0  0  0  0  0  0  0  0  0
   -2.3223   -5.2268   17.7321 C   0  0  0  0  0  0  0  0  0  0  0  0
   -2.9231   -5.4990   16.5620 C   0  0  0  0  0  0  0  0  0  0  0  0
   -2.2035   -6.4154   15.9382 N   0  0  0  0  0  0  0  0  0  0  0  0
   -1.1616   -6.7866   16.7143 C   0  0  0  0  0  0  0  0  0  0  0  0
   -1.2436   -6.0241   17.8433 C   0  0  0  0  0  0  0  0  0  0  0  0
   -0.3149   -6.1423   18.8223 N   0  0  0  0  0  0  0  0  0  0  0  0
    0.7391   -7.0540   18.6680 C   0  0  0  0  0  0  0  0  0  0  0  0
    0.8276   -7.8051   17.5059 N   0  0  0  0  0  0  0  0  0  0  0  0
   -0.1350   -7.6746   16.5713 C   0  0  0  0  0  0  0  0  0  0  0  0
   -0.0343   -8.4283   15.4538 N   0  0  0  0  0  0  0  0  0  0  0  0
   -2.3976   -6.7739   15.0420 H   0  0  0  0  0  0  0  0  0  0  0  0
    0.7084   -9.0672   15.3562 H   0  0  0  0  0  0  0  0  0  0  0  0
   -0.7036   -8.3383   14.7374 H   0  0  0  0  0  0  0  0  0  0  0  0
 16 17  2  0  0  0
 18 17  1  0  0  0
 17 12  1  0  0  0
 11 12  1  0  0  0
 11 10  1  0  0  0
 12 13  1  0  0  0
  9 10  1  0  0  0
  9  8  1  0  0  0
 27 28  2  0  0  0
 27 26  1  0  0  0
 28 29  1  0  0  0
  8  1  1  0  0  0
  3  5  1  0  0  0
  3  1  1  0  0  0
  3  4  1  0  0  0
 26 25  2  0  0  0
 29 30  1  0  0  0
 29 24  2  0  0  0
  5  6  1  0  0  0
  1  2  1  0  0  0
 25 24  1  0  0  0
 25 21  1  0  0  0
 24 23  1  0  0  0
  2  6  1  0  0  0
  6 20  1  0  0  0
 21 20  1  0  0  0
 21 22  2  0  0  0
 23 22  1  0  0  0
 18 19  1  0  0  0
 13 14  1  0  0  0
 13 15  1  0  0  0
  4  7  1  0  0  0
 23 31  1  0  0  0
 30 32  1  0  0  0
 30 33  1  0  0  0
M  END
> <minimizedAffinity>
-7.63801

$$$$
4F3K_HCE_A_301


 33 35  0  0  0  0  0  0  0  0999 V2000
   -5.2587   -2.1244   19.0413 C   0  0  0  0  0  0  0  0  0  0  0  0
   -4.3114   -3.2848   19.1856 C   0  0  0  0  0  0  0  0  0  0  0  0
   -5.3930   -1.9500   17.5552 C   0  0  0  0  0  0  0  0  0  0  0  0
   -4.2959   -1.1367   17.0427 O   0  0  0  0  0  0  0  0  0  0  0  0
   -5.3220   -3.3806   16.9590 C   0  0  0  0  0  0  0  0  0  0  0  0
   -4.1662   -3.8430   17.7933 N   0  0  0  0  0  0  0  0  0  0  0  0
   -3.4506   -1.5584   17.2629 H   0  0  0  0  0  0  0  0  0  0  0  0
   -6.5971   -2.4822   19.7499 C   0  0  0  0  0  0  0  0  0  0  0  0
   -7.2473   -1.0062   20.5720 S   0  0  0  0  0  0  0  0  0  0  0  0
   -5.7208   -0.3498   21.3935 C   0  0  0  0  0  0  0  0  0  0  0  0
   -5.5774    1.1056   21.0621 C   0  0  0  0  0  0  0  0  0  0  0  0
   -4.4202    1.5942   21.8993 C   0  0  0  0  0  0  0  0  0  0  0  0
   -4.5723    1.2048   23.3009 N   0  0  0  0  0  0  0  0  0  0  0  0
   -5.4296    1.6112   23.6755 H   0  0  0  0  0  0  0  0  0  0  0  0
   -3.7731    1.5435   23.8365 H   0  0  0  0  0  0  0  0  0  0  0  0
   -3.2392    3.6595   21.6470 O   0  0  0  0  0  0  0  0  0  0  0  0
   -4.3589    3.1130   21.7816 C   0  0  0  0  0  0  0  0  0  0  0  0
   -5.4471    3.7020   21.7763 O   0  0  0  0  0  0  0  0  0  0  0  0
   -6.2422    3.2180   21.8835 H   0  0  0  0  0  0  0  0  0  0  0  0
   -3.8274   -5.2441   17.7876 C   0  0  0  0  0  0  0  0  0  0  0  0
   -2.3088   -5.6368   18.0316 C   0  0  0  0  0  0  0  0  0  0  0  0
   -1.6084   -5.3226   19.1338 C   0  0  0  0  0  0  0  0  0  0  0  0
   -0.3831   -5.7955   18.9863 N   0  0  0  0  0  0  0  0  0  0  0  0
   -0.2578   -6.3727   17.7710 C   0  0  0  0  0  0  0  0  0  0  0  0
   -1.4834   -6.2717   17.1789 C   0  0  0  0  0  0  0  0  0  0  0  0
   -1.6952   -6.7860   15.9438 N   0  0  0  0  0  0  0  0  0  0  0  0
   -0.6448   -7.4294   15.2741 C   0  0  0  0  0  0  0  0  0  0  0  0
    0.5891   -7.5494   15.8951 N   0  0  0  0  0  0  0  0  0  0  0  0
    0.7617   -6.9975   17.1127 C   0  0  0  0  0  0  0  0  0  0  0  0
    1.9777   -7.1152   17.6911 N   0  0  0  0  0  0  0  0  0  0  0  0
    0.3315   -5.7360   19.6609 H   0  0  0  0  0  0  0  0  0  0  0  0
    2.7093   -7.5668   17.2115 H   0  0  0  0  0  0  0  0  0  0  0  0
    2.1317   -6.7493   18.5920 H   0  0  0  0  0  0  0  0  0  0  0  0
 16 17  2  0  0  0
 18 17  1  0  0  0
 17 12  1  0  0  0
 11 12  1  0  0  0
 11 10  1  0  0  0
 12 13  1  0  0  0
  9 10  1  0  0  0
  9  8  1  0  0  0
 27 28  2  0  0  0
 27 26  1  0  0  0
 28 29  1  0  0  0
  8  1  1  0  0  0
  3  5  1  0  0  0
  3  1  1  0  0  0
  3  4  1  0  0  0
 26 25  2  0  0  0
 29 30  1  0  0  0
 29 24  2  0  0  0
  5  6  1  0  0  0
  1  2  1  0  0  0
 25 24  1  0  0  0
 25 21  1  0  0  0
 24 23  1  0  0  0
  2  6  1  0  0  0
  6 20  1  0  0  0
 21 20  1  0  0  0
 21 22  2  0  0  0
 23 22  1  0  0  0
 18 19  1  0  0  0
 13 14  1  0  0  0
 13 15  1  0  0  0
  4  7  1  0  0  0
 23 31  1  0  0  0
 30 32  1  0  0  0
 30 33  1  0  0  0
M  END
> <minimizedAffinity>
-7.56774

$$$$
4F3K_HCE_A_301


 33 35  0  0  0  0  0  0  0  0999 V2000
   -5.1737   -1.5186   18.8894 C   0  0  0  0  0  0  0  0  0  0  0  0
   -3.7435   -1.9837   18.9404 C   0  0  0  0  0  0  0  0  0  0  0  0
   -5.8258   -2.4604   17.9174 C   0  0  0  0  0  0  0  0  0  0  0  0
   -5.6121   -2.0001   16.5499 O   0  0  0  0  0  0  0  0  0  0  0  0
   -5.1317   -3.8309   18.1348 C   0  0  0  0  0  0  0  0  0  0  0  0
   -3.7341   -3.2933   18.1946 N   0  0  0  0  0  0  0  0  0  0  0  0
   -4.6601   -1.9336   16.3761 H   0  0  0  0  0  0  0  0  0  0  0  0
   -5.7729   -1.5904   20.3237 C   0  0  0  0  0  0  0  0  0  0  0  0
   -7.4394   -0.8834   20.3076 S   0  0  0  0  0  0  0  0  0  0  0  0
   -7.2036    0.6182   21.3685 C   0  0  0  0  0  0  0  0  0  0  0  0
   -6.1372    1.4802   20.7615 C   0  0  0  0  0  0  0  0  0  0  0  0
   -5.0471    1.5605   21.8026 C   0  0  0  0  0  0  0  0  0  0  0  0
   -5.5427    1.1824   23.1258 N   0  0  0  0  0  0  0  0  0  0  0  0
   -6.2930    1.8160   23.4016 H   0  0  0  0  0  0  0  0  0  0  0  0
   -4.7823    1.2407   23.8031 H   0  0  0  0  0  0  0  0  0  0  0  0
   -3.3134    3.1824   22.0979 O   0  0  0  0  0  0  0  0  0  0  0  0
   -4.5226    2.9917   21.8294 C   0  0  0  0  0  0  0  0  0  0  0  0
   -5.3356    3.8741   21.5272 O   0  0  0  0  0  0  0  0  0  0  0  0
   -6.2253    3.6473   21.3401 H   0  0  0  0  0  0  0  0  0  0  0  0
   -2.6744   -4.1710   18.6238 C   0  0  0  0  0  0  0  0  0  0  0  0
   -2.4537   -5.5149   17.8082 C   0  0  0  0  0  0  0  0  0  0  0  0
   -2.6313   -5.6393   16.4826 C   0  0  0  0  0  0  0  0  0  0  0  0
   -2.3719   -6.8926   16.1528 N   0  0  0  0  0  0  0  0  0  0  0  0
   -2.0762   -7.6064   17.2614 C   0  0  0  0  0  0  0  0  0  0  0  0
   -2.1252   -6.7235   18.3010 C   0  0  0  0  0  0  0  0  0  0  0  0
   -1.8481   -7.1305   19.5630 N   0  0  0  0  0  0  0  0  0  0  0  0
   -1.5052   -8.4697   19.7970 C   0  0  0  0  0  0  0  0  0  0  0  0
   -1.4331   -9.3527   18.7304 N   0  0  0  0  0  0  0  0  0  0  0  0
   -1.7449   -8.9096   17.4961 C   0  0  0  0  0  0  0  0  0  0  0  0
   -1.6812   -9.7928   16.4749 N   0  0  0  0  0  0  0  0  0  0  0  0
   -2.3912   -7.2523   15.2366 H   0  0  0  0  0  0  0  0  0  0  0  0
   -1.4417  -10.7315   16.6502 H   0  0  0  0  0  0  0  0  0  0  0  0
   -1.8743   -9.4975   15.5559 H   0  0  0  0  0  0  0  0  0  0  0  0
 16 17  2  0  0  0
 18 17  1  0  0  0
 17 12  1  0  0  0
 11 12  1  0  0  0
 11 10  1  0  0  0
 12 13  1  0  0  0
  9 10  1  0  0  0
  9  8  1  0  0  0
 27 28  2  0  0  0
 27 26  1  0  0  0
 28 29  1  0  0  0
  8  1  1  0  0  0
  3  5  1  0  0  0
  3  1  1  0  0  0
  3  4  1  0  0  0
 26 25  2  0  0  0
 29 30  1  0  0  0
 29 24  2  0  0  0
  5  6  1  0  0  0
  1  2  1  0  0  0
 25 24  1  0  0  0
 25 21  1  0  0  0
 24 23  1  0  0  0
  2  6  1  0  0  0
  6 20  1  0  0  0
 21 20  1  0  0  0
 21 22  2  0  0  0
 23 22  1  0  0  0
 18 19  1  0  0  0
 13 14  1  0  0  0
 13 15  1  0  0  0
  4  7  1  0  0  0
 23 31  1  0  0  0
 30 32  1  0  0  0
 30 33  1  0  0  0
M  END
> <minimizedAffinity>
-7.22754

$$$$
4F3K_HCE_A_301


 33 35  0  0  0  0  0  0  0  0999 V2000
   -5.4483   -2.2938   19.8359 C   0  0  0  0  0  0  0  0  0  0  0  0
   -5.0258   -3.6045   19.2290 C   0  0  0  0  0  0  0  0  0  0  0  0
   -4.6530   -1.2705   19.0763 C   0  0  0  0  0  0  0  0  0  0  0  0
   -3.3243   -1.1297   19.6616 O   0  0  0  0  0  0  0  0  0  0  0  0
   -4.5442   -1.8172   17.6284 C   0  0  0  0  0  0  0  0  0  0  0  0
   -4.2157   -3.2272   18.0154 N   0  0  0  0  0  0  0  0  0  0  0  0
   -2.8742   -1.9889   19.6524 H   0  0  0  0  0  0  0  0  0  0  0  0
   -6.9872   -2.1386   19.6656 C   0  0  0  0  0  0  0  0  0  0  0  0
   -7.6920   -1.4854   21.1998 S   0  0  0  0  0  0  0  0  0  0  0  0
   -7.2555    0.3107   21.0604 C   0  0  0  0  0  0  0  0  0  0  0  0
   -6.3988    0.6954   22.2294 C   0  0  0  0  0  0  0  0  0  0  0  0
   -5.7780    2.0187   21.8520 C   0  0  0  0  0  0  0  0  0  0  0  0
   -5.6250    2.1433   20.4027 N   0  0  0  0  0  0  0  0  0  0  0  0
   -5.0187    1.3983   20.0596 H   0  0  0  0  0  0  0  0  0  0  0  0
   -5.2102    3.0484   20.1812 H   0  0  0  0  0  0  0  0  0  0  0  0
   -3.6044    2.9788   22.1291 O   0  0  0  0  0  0  0  0  0  0  0  0
   -4.4170    2.1142   22.5323 C   0  0  0  0  0  0  0  0  0  0  0  0
   -4.2314    1.3483   23.4862 O   0  0  0  0  0  0  0  0  0  0  0  0
   -4.8920    0.7279   23.7243 H   0  0  0  0  0  0  0  0  0  0  0  0
   -4.2340   -4.2453   16.9952 C   0  0  0  0  0  0  0  0  0  0  0  0
   -3.7327   -5.6979   17.3935 C   0  0  0  0  0  0  0  0  0  0  0  0
   -4.4415   -6.8245   17.2131 C   0  0  0  0  0  0  0  0  0  0  0  0
   -3.7232   -7.8353   17.6705 N   0  0  0  0  0  0  0  0  0  0  0  0
   -2.5683   -7.3745   18.1992 C   0  0  0  0  0  0  0  0  0  0  0  0
   -2.5827   -6.0225   18.0129 C   0  0  0  0  0  0  0  0  0  0  0  0
   -1.5379   -5.2611   18.4175 N   0  0  0  0  0  0  0  0  0  0  0  0
   -0.4337   -5.8721   19.0284 C   0  0  0  0  0  0  0  0  0  0  0  0
   -0.4178   -7.2492   19.1895 N   0  0  0  0  0  0  0  0  0  0  0  0
   -1.4919   -7.9631   18.7975 C   0  0  0  0  0  0  0  0  0  0  0  0
   -1.4584   -9.3022   18.9784 N   0  0  0  0  0  0  0  0  0  0  0  0
   -3.9898   -8.7822   17.6317 H   0  0  0  0  0  0  0  0  0  0  0  0
   -0.6794   -9.7212   19.4105 H   0  0  0  0  0  0  0  0  0  0  0  0
   -2.2131   -9.8585   18.6780 H   0  0  0  0  0  0  0  0  0  0  0  0
 16 17  2  0  0  0
 18 17  1  0  0  0
 17 12  1  0  0  0
 11 12  1  0  0  0
 11 10  1  0  0  0
 12 13  1  0  0  0
  9 10  1  0  0  0
  9  8  1  0  0  0
 27 28  2  0  0  0
 27 26  1  0  0  0
 28 29  1  0  0  0
  8  1  1  0  0  0
  3  5  1  0  0  0
  3  1  1  0  0  0
  3  4  1  0  0  0
 26 25  2  0  0  0
 29 30  1  0  0  0
 29 24  2  0  0  0
  5  6  1  0  0  0
  1  2  1  0  0  0
 25 24  1  0  0  0
 25 21  1  0  0  0
 24 23  1  0  0  0
  2  6  1  0  0  0
  6 20  1  0  0  0
 21 20  1  0  0  0
 21 22  2  0  0  0
 23 22  1  0  0  0
 18 19  1  0  0  0
 13 14  1  0  0  0
 13 15  1  0  0  0
  4  7  1  0  0  0
 23 31  1  0  0  0
 30 32  1  0  0  0
 30 33  1  0  0  0
M  END
> <minimizedAffinity>
-7.15162

$$$$
4F3K_HCE_A_301


 33 35  0  0  0  0  0  0  0  0999 V2000
   -3.1800   -5.4468   16.9344 C   0  0  0  0  0  0  0  0  0  0  0  0
   -3.8603   -4.1349   16.6505 C   0  0  0  0  0  0  0  0  0  0  0  0
   -2.8993   -5.3968   18.4094 C   0  0  0  0  0  0  0  0  0  0  0  0
   -1.6540   -4.6801   18.6609 O   0  0  0  0  0  0  0  0  0  0  0  0
   -4.0936   -4.6297   19.0357 C   0  0  0  0  0  0  0  0  0  0  0  0
   -4.1397   -3.5407   18.0070 N   0  0  0  0  0  0  0  0  0  0  0  0
   -1.7166   -3.7845   18.2937 H   0  0  0  0  0  0  0  0  0  0  0  0
   -4.1351   -6.6036   16.5210 C   0  0  0  0  0  0  0  0  0  0  0  0
   -4.0186   -7.9354   17.7416 S   0  0  0  0  0  0  0  0  0  0  0  0
   -5.6674   -8.7572   17.5361 C   0  0  0  0  0  0  0  0  0  0  0  0
   -6.3149   -8.8921   18.8819 C   0  0  0  0  0  0  0  0  0  0  0  0
   -7.6595   -9.5252   18.6172 C   0  0  0  0  0  0  0  0  0  0  0  0
   -8.3049   -8.9381   17.4432 N   0  0  0  0  0  0  0  0  0  0  0  0
   -8.4482   -7.9401   17.5975 H   0  0  0  0  0  0  0  0  0  0  0  0
   -9.2056   -9.3910   17.2883 H   0  0  0  0  0  0  0  0  0  0  0  0
   -8.3284  -10.0414   20.8554 O   0  0  0  0  0  0  0  0  0  0  0  0
   -8.5308   -9.3194   19.8512 C   0  0  0  0  0  0  0  0  0  0  0  0
   -9.3569   -8.4006   19.7861 O   0  0  0  0  0  0  0  0  0  0  0  0
   -9.4467   -7.9065   18.9951 H   0  0  0  0  0  0  0  0  0  0  0  0
   -5.2685   -2.6443   18.0006 C   0  0  0  0  0  0  0  0  0  0  0  0
   -5.4801   -1.7156   19.2704 C   0  0  0  0  0  0  0  0  0  0  0  0
   -4.6537   -0.7205   19.6327 C   0  0  0  0  0  0  0  0  0  0  0  0
   -5.1319   -0.1760   20.7380 N   0  0  0  0  0  0  0  0  0  0  0  0
   -6.2392   -0.8411   21.1346 C   0  0  0  0  0  0  0  0  0  0  0  0
   -6.4530   -1.8084   20.1958 C   0  0  0  0  0  0  0  0  0  0  0  0
   -7.5172   -2.6407   20.2956 N   0  0  0  0  0  0  0  0  0  0  0  0
   -8.4050   -2.5007   21.3717 C   0  0  0  0  0  0  0  0  0  0  0  0
   -8.1930   -1.4981   22.3058 N   0  0  0  0  0  0  0  0  0  0  0  0
   -7.1052   -0.7118   22.1817 C   0  0  0  0  0  0  0  0  0  0  0  0
   -6.9127    0.2488   23.1129 N   0  0  0  0  0  0  0  0  0  0  0  0
   -4.7399    0.5983   21.2027 H   0  0  0  0  0  0  0  0  0  0  0  0
   -7.5407    0.3373   23.8659 H   0  0  0  0  0  0  0  0  0  0  0  0
   -6.1445    0.8599   23.0381 H   0  0  0  0  0  0  0  0  0  0  0  0
 16 17  2  0  0  0
 18 17  1  0  0  0
 17 12  1  0  0  0
 11 12  1  0  0  0
 11 10  1  0  0  0
 12 13  1  0  0  0
  9 10  1  0  0  0
  9  8  1  0  0  0
 27 28  2  0  0  0
 27 26  1  0  0  0
 28 29  1  0  0  0
  8  1  1  0  0  0
  3  5  1  0  0  0
  3  1  1  0  0  0
  3  4  1  0  0  0
 26 25  2  0  0  0
 29 30  1  0  0  0
 29 24  2  0  0  0
  5  6  1  0  0  0
  1  2  1  0  0  0
 25 24  1  0  0  0
 25 21  1  0  0  0
 24 23  1  0  0  0
  2  6  1  0  0  0
  6 20  1  0  0  0
 21 20  1  0  0  0
 21 22  2  0  0  0
 23 22  1  0  0  0
 18 19  1  0  0  0
 13 14  1  0  0  0
 13 15  1  0  0  0
  4  7  1  0  0  0
 23 31  1  0  0  0
 30 32  1  0  0  0
 30 33  1  0  0  0
M  END
> <minimizedAffinity>
-7.05383

$$$$
4F3K_HCE_A_301


 33 35  0  0  0  0  0  0  0  0999 V2000
   -6.1947   -0.4538   20.3054 C   0  0  0  0  0  0  0  0  0  0  0  0
   -5.0366   -0.6465   19.3639 C   0  0  0  0  0  0  0  0  0  0  0  0
   -6.8631   -1.7988   20.3365 C   0  0  0  0  0  0  0  0  0  0  0  0
   -7.7814   -1.9309   19.2110 O   0  0  0  0  0  0  0  0  0  0  0  0
   -5.7167   -2.8373   20.2160 C   0  0  0  0  0  0  0  0  0  0  0  0
   -4.9787   -2.1324   19.1186 N   0  0  0  0  0  0  0  0  0  0  0  0
   -7.2947   -1.8095   18.3807 H   0  0  0  0  0  0  0  0  0  0  0  0
   -5.6432   -0.0001   21.6879 C   0  0  0  0  0  0  0  0  0  0  0  0
   -6.6671    1.3517   22.3216 S   0  0  0  0  0  0  0  0  0  0  0  0
   -5.6201    2.8229   21.9032 C   0  0  0  0  0  0  0  0  0  0  0  0
   -5.5348    2.9511   20.4116 C   0  0  0  0  0  0  0  0  0  0  0  0
   -5.0867    4.3700   20.1571 C   0  0  0  0  0  0  0  0  0  0  0  0
   -5.3882    4.7884   18.7884 N   0  0  0  0  0  0  0  0  0  0  0  0
   -4.9014    4.1786   18.1314 H   0  0  0  0  0  0  0  0  0  0  0  0
   -5.0799    5.7509   18.6513 H   0  0  0  0  0  0  0  0  0  0  0  0
   -3.1380    4.0234   21.5009 O   0  0  0  0  0  0  0  0  0  0  0  0
   -3.5849    4.4444   20.4084 C   0  0  0  0  0  0  0  0  0  0  0  0
   -2.8984    4.8772   19.4744 O   0  0  0  0  0  0  0  0  0  0  0  0
   -3.3117    5.1742   18.6876 H   0  0  0  0  0  0  0  0  0  0  0  0
   -3.6559   -2.5884   18.7723 C   0  0  0  0  0  0  0  0  0  0  0  0
   -3.5345   -3.9294   17.9316 C   0  0  0  0  0  0  0  0  0  0  0  0
   -4.4317   -4.3414   17.0207 C   0  0  0  0  0  0  0  0  0  0  0  0
   -4.0158   -5.4972   16.5331 N   0  0  0  0  0  0  0  0  0  0  0  0
   -2.8775   -5.8744   17.1559 C   0  0  0  0  0  0  0  0  0  0  0  0
   -2.5797   -4.8725   18.0336 C   0  0  0  0  0  0  0  0  0  0  0  0
   -1.4667   -4.9400   18.8028 N   0  0  0  0  0  0  0  0  0  0  0  0
   -0.6153   -6.0483   18.6900 C   0  0  0  0  0  0  0  0  0  0  0  0
   -0.9134   -7.0482   17.7768 N   0  0  0  0  0  0  0  0  0  0  0  0
   -2.0464   -6.9522   17.0529 C   0  0  0  0  0  0  0  0  0  0  0  0
   -2.3223   -7.9466   16.1799 N   0  0  0  0  0  0  0  0  0  0  0  0
   -4.4677   -6.0071   15.8225 H   0  0  0  0  0  0  0  0  0  0  0  0
   -1.7193   -8.7217   16.1100 H   0  0  0  0  0  0  0  0  0  0  0  0
   -3.1264   -7.8959   15.6141 H   0  0  0  0  0  0  0  0  0  0  0  0
 16 17  2  0  0  0
 18 17  1  0  0  0
 17 12  1  0  0  0
 11 12  1  0  0  0
 11 10  1  0  0  0
 12 13  1  0  0  0
  9 10  1  0  0  0
  9  8  1  0  0  0
 27 28  2  0  0  0
 27 26  1  0  0  0
 28 29  1  0  0  0
  8  1  1  0  0  0
  3  5  1  0  0  0
  3  1  1  0  0  0
  3  4  1  0  0  0
 26 25  2  0  0  0
 29 30  1  0  0  0
 29 24  2  0  0  0
  5  6  1  0  0  0
  1  2  1  0  0  0
 25 24  1  0  0  0
 25 21  1  0  0  0
 24 23  1  0  0  0
  2  6  1  0  0  0
  6 20  1  0  0  0
 21 20  1  0  0  0
 21 22  2  0  0  0
 23 22  1  0  0  0
 18 19  1  0  0  0
 13 14  1  0  0  0
 13 15  1  0  0  0
  4  7  1  0  0  0
 23 31  1  0  0  0
 30 32  1  0  0  0
 30 33  1  0  0  0
M  END
> <minimizedAffinity>
-7.04406

$$$$
4F3K_HCE_A_301


 33 35  0  0  0  0  0  0  0  0999 V2000
   -5.4389   -2.1701   19.1753 C   0  0  0  0  0  0  0  0  0  0  0  0
   -4.5330   -3.3544   19.3786 C   0  0  0  0  0  0  0  0  0  0  0  0
   -5.4713   -1.9914   17.6840 C   0  0  0  0  0  0  0  0  0  0  0  0
   -4.3226   -1.2062   17.2460 O   0  0  0  0  0  0  0  0  0  0  0  0
   -5.3979   -3.4230   17.0905 C   0  0  0  0  0  0  0  0  0  0  0  0
   -4.3112   -3.9154   17.9975 N   0  0  0  0  0  0  0  0  0  0  0  0
   -3.5045   -1.6495   17.5201 H   0  0  0  0  0  0  0  0  0  0  0  0
   -6.8294   -2.4940   19.7941 C   0  0  0  0  0  0  0  0  0  0  0  0
   -7.2936   -1.1701   20.9383 S   0  0  0  0  0  0  0  0  0  0  0  0
   -5.6289   -0.5223   21.4335 C   0  0  0  0  0  0  0  0  0  0  0  0
   -5.8082    0.7819   22.1515 C   0  0  0  0  0  0  0  0  0  0  0  0
   -4.6577    1.6486   21.6998 C   0  0  0  0  0  0  0  0  0  0  0  0
   -3.7386    1.9335   22.8013 N   0  0  0  0  0  0  0  0  0  0  0  0
   -4.2374    2.4276   23.5412 H   0  0  0  0  0  0  0  0  0  0  0  0
   -2.9712    2.5138   22.4624 H   0  0  0  0  0  0  0  0  0  0  0  0
   -6.0043    2.8921   20.1624 O   0  0  0  0  0  0  0  0  0  0  0  0
   -5.2324    2.9484   21.1480 C   0  0  0  0  0  0  0  0  0  0  0  0
   -4.9278    3.9800   21.7595 O   0  0  0  0  0  0  0  0  0  0  0  0
   -4.3415    3.9363   22.4891 H   0  0  0  0  0  0  0  0  0  0  0  0
   -4.0086   -5.3246   18.0108 C   0  0  0  0  0  0  0  0  0  0  0  0
   -2.5736   -5.7661   18.5261 C   0  0  0  0  0  0  0  0  0  0  0  0
   -1.4836   -4.9812   18.5098 C   0  0  0  0  0  0  0  0  0  0  0  0
   -0.4724   -5.6783   18.9980 N   0  0  0  0  0  0  0  0  0  0  0  0
   -0.8785   -6.9344   19.2863 C   0  0  0  0  0  0  0  0  0  0  0  0
   -2.2100   -6.9763   18.9894 C   0  0  0  0  0  0  0  0  0  0  0  0
   -2.9253   -8.1082   19.1947 N   0  0  0  0  0  0  0  0  0  0  0  0
   -2.2889   -9.2418   19.7198 C   0  0  0  0  0  0  0  0  0  0  0  0
   -0.9417   -9.1807   20.0421 N   0  0  0  0  0  0  0  0  0  0  0  0
   -0.2639   -8.0422   19.7943 C   0  0  0  0  0  0  0  0  0  0  0  0
    1.0516   -8.0122   20.1037 N   0  0  0  0  0  0  0  0  0  0  0  0
    0.4401   -5.3339   19.1318 H   0  0  0  0  0  0  0  0  0  0  0  0
    1.4896   -8.8143   20.4698 H   0  0  0  0  0  0  0  0  0  0  0  0
    1.5717   -7.1882   19.9629 H   0  0  0  0  0  0  0  0  0  0  0  0
 16 17  2  0  0  0
 18 17  1  0  0  0
 17 12  1  0  0  0
 11 12  1  0  0  0
 11 10  1  0  0  0
 12 13  1  0  0  0
  9 10  1  0  0  0
  9  8  1  0  0  0
 27 28  2  0  0  0
 27 26  1  0  0  0
 28 29  1  0  0  0
  8  1  1  0  0  0
  3  5  1  0  0  0
  3  1  1  0  0  0
  3  4  1  0  0  0
 26 25  2  0  0  0
 29 30  1  0  0  0
 29 24  2  0  0  0
  5  6  1  0  0  0
  1  2  1  0  0  0
 25 24  1  0  0  0
 25 21  1  0  0  0
 24 23  1  0  0  0
  2  6  1  0  0  0
  6 20  1  0  0  0
 21 20  1  0  0  0
 21 22  2  0  0  0
 23 22  1  0  0  0
 18 19  1  0  0  0
 13 14  1  0  0  0
 13 15  1  0  0  0
  4  7  1  0  0  0
 23 31  1  0  0  0
 30 32  1  0  0  0
 30 33  1  0  0  0
M  END
> <minimizedAffinity>
-6.99886

$$$$
4F3K_HCE_A_301


 33 35  0  0  0  0  0  0  0  0999 V2000
   -3.5971   -4.5046   18.4903 C   0  0  0  0  0  0  0  0  0  0  0  0
   -4.3656   -5.7984   18.5000 C   0  0  0  0  0  0  0  0  0  0  0  0
   -2.3241   -4.8455   17.7691 C   0  0  0  0  0  0  0  0  0  0  0  0
   -1.3605   -5.4277   18.6965 O   0  0  0  0  0  0  0  0  0  0  0  0
   -2.7223   -5.8857   16.6889 C   0  0  0  0  0  0  0  0  0  0  0  0
   -3.5980   -6.7129   17.5803 N   0  0  0  0  0  0  0  0  0  0  0  0
   -1.7438   -6.2186   19.1069 H   0  0  0  0  0  0  0  0  0  0  0  0
   -4.4513   -3.4226   17.7685 C   0  0  0  0  0  0  0  0  0  0  0  0
   -4.4918   -1.9235   18.7825 S   0  0  0  0  0  0  0  0  0  0  0  0
   -6.1039   -2.1345   19.6728 C   0  0  0  0  0  0  0  0  0  0  0  0
   -6.0809   -1.3078   20.9236 C   0  0  0  0  0  0  0  0  0  0  0  0
   -7.3549   -1.6544   21.6556 C   0  0  0  0  0  0  0  0  0  0  0  0
   -8.3740   -2.1681   20.7409 N   0  0  0  0  0  0  0  0  0  0  0  0
   -8.5922   -1.4583   20.0416 H   0  0  0  0  0  0  0  0  0  0  0  0
   -9.2174   -2.3983   21.2663 H   0  0  0  0  0  0  0  0  0  0  0  0
   -8.4486    0.4733   21.6607 O   0  0  0  0  0  0  0  0  0  0  0  0
   -7.8606   -0.3939   22.3482 C   0  0  0  0  0  0  0  0  0  0  0  0
   -7.6945   -0.3432   23.5733 O   0  0  0  0  0  0  0  0  0  0  0  0
   -7.2422   -1.0356   24.0138 H   0  0  0  0  0  0  0  0  0  0  0  0
   -4.4295   -7.7275   16.9828 C   0  0  0  0  0  0  0  0  0  0  0  0
   -5.2824   -8.6486   17.9542 C   0  0  0  0  0  0  0  0  0  0  0  0
   -4.8093   -9.2169   19.0756 C   0  0  0  0  0  0  0  0  0  0  0  0
   -5.7872   -9.9201   19.6197 N   0  0  0  0  0  0  0  0  0  0  0  0
   -6.8857   -9.8610   18.8351 C   0  0  0  0  0  0  0  0  0  0  0  0
   -6.5565   -9.0495   17.7883 C   0  0  0  0  0  0  0  0  0  0  0  0
   -7.4659   -8.7662   16.8250 N   0  0  0  0  0  0  0  0  0  0  0  0
   -8.7551   -9.3105   16.9108 C   0  0  0  0  0  0  0  0  0  0  0  0
   -9.0871  -10.1127   17.9918 N   0  0  0  0  0  0  0  0  0  0  0  0
   -8.1415  -10.3904   18.9114 C   0  0  0  0  0  0  0  0  0  0  0  0
   -8.4854  -11.1865   19.9481 N   0  0  0  0  0  0  0  0  0  0  0  0
   -5.7246  -10.4131   20.4696 H   0  0  0  0  0  0  0  0  0  0  0  0
   -9.3927  -11.5656   19.9979 H   0  0  0  0  0  0  0  0  0  0  0  0
   -7.8287  -11.3873   20.6536 H   0  0  0  0  0  0  0  0  0  0  0  0
 16 17  2  0  0  0
 18 17  1  0  0  0
 17 12  1  0  0  0
 11 12  1  0  0  0
 11 10  1  0  0  0
 12 13  1  0  0  0
  9 10  1  0  0  0
  9  8  1  0  0  0
 27 28  2  0  0  0
 27 26  1  0  0  0
 28 29  1  0  0  0
  8  1  1  0  0  0
  3  5  1  0  0  0
  3  1  1  0  0  0
  3  4  1  0  0  0
 26 25  2  0  0  0
 29 30  1  0  0  0
 29 24  2  0  0  0
  5  6  1  0  0  0
  1  2  1  0  0  0
 25 24  1  0  0  0
 25 21  1  0  0  0
 24 23  1  0  0  0
  2  6  1  0  0  0
  6 20  1  0  0  0
 21 20  1  0  0  0
 21 22  2  0  0  0
 23 22  1  0  0  0
 18 19  1  0  0  0
 13 14  1  0  0  0
 13 15  1  0  0  0
  4  7  1  0  0  0
 23 31  1  0  0  0
 30 32  1  0  0  0
 30 33  1  0  0  0
M  END
> <minimizedAffinity>
-6.79073

$$$$
4F3K_HCE_A_301


 33 35  0  0  0  0  0  0  0  0999 V2000
   -3.1681   -5.4995   16.9850 C   0  0  0  0  0  0  0  0  0  0  0  0
   -3.8715   -4.2068   16.6707 C   0  0  0  0  0  0  0  0  0  0  0  0
   -2.8361   -5.3846   18.4457 C   0  0  0  0  0  0  0  0  0  0  0  0
   -1.5902   -4.6469   18.6223 O   0  0  0  0  0  0  0  0  0  0  0  0
   -4.0155   -4.6022   19.0813 C   0  0  0  0  0  0  0  0  0  0  0  0
   -4.1090   -3.5583   18.0102 N   0  0  0  0  0  0  0  0  0  0  0  0
   -1.6749   -3.7682   18.2203 H   0  0  0  0  0  0  0  0  0  0  0  0
   -4.1252   -6.6811   16.6548 C   0  0  0  0  0  0  0  0  0  0  0  0
   -3.7645   -8.0658   17.7639 S   0  0  0  0  0  0  0  0  0  0  0  0
   -2.1219   -8.6283   17.1148 C   0  0  0  0  0  0  0  0  0  0  0  0
   -1.1905   -8.8448   18.2699 C   0  0  0  0  0  0  0  0  0  0  0  0
    0.1938   -8.6034   17.7181 C   0  0  0  0  0  0  0  0  0  0  0  0
    0.9776   -9.8377   17.6820 N   0  0  0  0  0  0  0  0  0  0  0  0
    1.0724  -10.2080   18.6277 H   0  0  0  0  0  0  0  0  0  0  0  0
    1.9026   -9.6420   17.2992 H   0  0  0  0  0  0  0  0  0  0  0  0
    1.6775   -7.9728   19.4857 O   0  0  0  0  0  0  0  0  0  0  0  0
    0.8829   -7.5713   18.6037 C   0  0  0  0  0  0  0  0  0  0  0  0
    0.6401   -6.3856   18.3464 O   0  0  0  0  0  0  0  0  0  0  0  0
    0.0305   -6.1687   17.6687 H   0  0  0  0  0  0  0  0  0  0  0  0
   -5.2465   -2.6729   18.0064 C   0  0  0  0  0  0  0  0  0  0  0  0
   -5.4615   -1.7427   19.2746 C   0  0  0  0  0  0  0  0  0  0  0  0
   -4.6315   -0.7528   19.6427 C   0  0  0  0  0  0  0  0  0  0  0  0
   -5.1142   -0.2051   20.7444 N   0  0  0  0  0  0  0  0  0  0  0  0
   -6.2285   -0.8632   21.1332 C   0  0  0  0  0  0  0  0  0  0  0  0
   -6.4416   -1.8293   20.1929 C   0  0  0  0  0  0  0  0  0  0  0  0
   -7.5116   -2.6549   20.2851 N   0  0  0  0  0  0  0  0  0  0  0  0
   -8.4062   -2.5092   21.3548 C   0  0  0  0  0  0  0  0  0  0  0  0
   -8.1948   -1.5079   22.2903 N   0  0  0  0  0  0  0  0  0  0  0  0
   -7.1012   -0.7284   22.1740 C   0  0  0  0  0  0  0  0  0  0  0  0
   -6.9094    0.2311   23.1064 N   0  0  0  0  0  0  0  0  0  0  0  0
   -4.7208    0.5668   21.2119 H   0  0  0  0  0  0  0  0  0  0  0  0
   -7.5422    0.3236   23.8549 H   0  0  0  0  0  0  0  0  0  0  0  0
   -6.1370    0.8375   23.0371 H   0  0  0  0  0  0  0  0  0  0  0  0
 16 17  2  0  0  0
 18 17  1  0  0  0
 17 12  1  0  0  0
 11 12  1  0  0  0
 11 10  1  0  0  0
 12 13  1  0  0  0
  9 10  1  0  0  0
  9  8  1  0  0  0
 27 28  2  0  0  0
 27 26  1  0  0  0
 28 29  1  0  0  0
  8  1  1  0  0  0
  3  5  1  0  0  0
  3  1  1  0  0  0
  3  4  1  0  0  0
 26 25  2  0  0  0
 29 30  1  0  0  0
 29 24  2  0  0  0
  5  6  1  0  0  0
  1  2  1  0  0  0
 25 24  1  0  0  0
 25 21  1  0  0  0
 24 23  1  0  0  0
  2  6  1  0  0  0
  6 20  1  0  0  0
 21 20  1  0  0  0
 21 22  2  0  0  0
 23 22  1  0  0  0
 18 19  1  0  0  0
 13 14  1  0  0  0
 13 15  1  0  0  0
  4  7  1  0  0  0
 23 31  1  0  0  0
 30 32  1  0  0  0
 30 33  1  0  0  0
M  END
> <minimizedAffinity>
-6.58947

$$$$
