2QU6_857_A_501


 38 42  0  0  0  0  0  0  0  0999 V2000
   38.8075   32.5860   13.5212 C   0  0  0  0  0  0  0  0  0  0  0  0
   37.9358   33.5869   13.0136 C   0  0  0  0  0  0  0  0  0  0  0  0
   36.5334   33.3240   12.7813 C   0  0  0  0  0  0  0  0  0  0  0  0
   35.9288   32.0431   13.1119 C   0  0  0  0  0  0  0  0  0  0  0  0
   36.7567   31.0000   13.6703 C   0  0  0  0  0  0  0  0  0  0  0  0
   38.1762   31.3019   13.8316 C   0  0  0  0  0  0  0  0  0  0  0  0
   36.9407   35.3492   12.3874 C   0  0  0  0  0  0  0  0  0  0  0  0
   38.1617   34.8832   12.7724 N   0  0  0  0  0  0  0  0  0  0  0  0
   35.9311   34.4207   12.3816 O   0  0  0  0  0  0  0  0  0  0  0  0
   36.6964   36.7168   12.0003 N   0  0  0  0  0  0  0  0  0  0  0  0
   35.7489   36.9728   11.9233 H   0  0  0  0  0  0  0  0  0  0  0  0
   39.4784   38.7175   10.4500 C   0  0  0  0  0  0  0  0  0  0  0  0
   38.6299   37.6071   10.7138 C   0  0  0  0  0  0  0  0  0  0  0  0
   37.5883   37.6962   11.7283 C   0  0  0  0  0  0  0  0  0  0  0  0
   37.3204   38.8635   12.4916 C   0  0  0  0  0  0  0  0  0  0  0  0
   38.1577   39.9983   12.2300 C   0  0  0  0  0  0  0  0  0  0  0  0
   39.2046   39.8872   11.2297 C   0  0  0  0  0  0  0  0  0  0  0  0
   40.2026   41.2504   10.9361 Cl  0  0  0  0  0  0  0  0  0  0  0  0
   37.9487   41.1713   12.9460 O   0  0  0  0  0  0  0  0  0  0  0  0
   36.6046   41.3766   13.4197 C   0  0  0  0  0  0  0  0  0  0  0  0
   37.0302   43.4106   12.0584 N   0  0  0  0  0  0  0  0  0  0  0  0
   37.2466   43.3215   10.5837 C   0  0  0  0  0  0  0  0  0  0  0  0
   36.2481   42.2671   10.1423 C   0  0  0  0  0  0  0  0  0  0  0  0
   35.3787   41.9329   11.3286 C   0  0  0  0  0  0  0  0  0  0  0  0
   35.9644   42.5037   12.6161 C   0  0  0  0  0  0  0  0  0  0  0  0
   37.2450   44.7277   12.6997 C   0  0  0  0  0  0  0  0  0  0  0  0
   38.9096   30.2422   14.2998 O   0  0  0  0  0  0  0  0  0  0  0  0
   40.9850   27.4749   13.4970 C   0  0  0  0  0  0  0  0  0  0  0  0
   40.9274   27.5014   12.1186 N   0  0  0  0  0  0  0  0  0  0  0  0
   40.3016   28.4450   14.2562 C   0  0  0  0  0  0  0  0  0  0  0  0
   39.5678   29.3717   13.4722 C   0  0  0  0  0  0  0  0  0  0  0  0
   39.5096   29.3625   12.0191 C   0  0  0  0  0  0  0  0  0  0  0  0
   40.2460   28.3636   11.3282 C   0  0  0  0  0  0  0  0  0  0  0  0
   41.6854   26.4169   14.2198 C   0  0  0  0  0  0  0  0  0  0  0  0
   41.6123   26.2973   15.4376 O   0  0  0  0  0  0  0  0  0  0  0  0
   42.4293   25.5683   13.4831 N   0  0  0  0  0  0  0  0  0  0  0  0
   43.1265   24.5411   14.2760 C   0  0  0  0  0  0  0  0  0  0  0  0
   42.5003   25.6293   12.5031 H   0  0  0  0  0  0  0  0  0  0  0  0
 37 36  1  0  0  0
 35 34  2  0  0  0
 36 34  1  0  0  0
 34 28  1  0  0  0
 28 29  2  0  0  0
 28 30  1  0  0  0
 29 33  1  0  0  0
 30 31  2  0  0  0
 33 32  2  0  0  0
 31 32  1  0  0  0
 31 27  1  0  0  0
 27  6  1  0  0  0
  5  6  2  0  0  0
  5  4  1  0  0  0
  6  1  1  0  0  0
  4  3  2  0  0  0
  1  2  2  0  0  0
  3  2  1  0  0  0
  3  9  1  0  0  0
  2  8  1  0  0  0
  9  7  1  0  0  0
  8  7  2  0  0  0
  7 10  1  0  0  0
 10 14  1  0  0  0
 14 13  2  0  0  0
 14 15  1  0  0  0
 13 12  1  0  0  0
 15 16  2  0  0  0
 12 17  2  0  0  0
 16 17  1  0  0  0
 16 19  1  0  0  0
 17 18  1  0  0  0
 20 19  1  0  0  0
 20 25  1  0  0  0
 25 21  1  0  0  0
 25 24  1  0  0  0
 26 21  1  0  0  0
 21 22  1  0  0  0
 24 23  1  0  0  0
 22 23  1  0  0  0
 10 11  1  0  0  0
 36 38  1  0  0  0
M  END
> <minimizedAffinity>
-11.28621

$$$$
2QU6_857_A_501


 38 42  0  0  0  0  0  0  0  0999 V2000
   38.7478   32.9643   13.2877 C   0  0  0  0  0  0  0  0  0  0  0  0
   37.8845   33.9819   12.7993 C   0  0  0  0  0  0  0  0  0  0  0  0
   36.4498   33.8070   12.7653 C   0  0  0  0  0  0  0  0  0  0  0  0
   35.8114   32.6078   13.2848 C   0  0  0  0  0  0  0  0  0  0  0  0
   36.6353   31.5560   13.8327 C   0  0  0  0  0  0  0  0  0  0  0  0
   38.0802   31.7623   13.7909 C   0  0  0  0  0  0  0  0  0  0  0  0
   36.9328   35.7553   12.1380 C   0  0  0  0  0  0  0  0  0  0  0  0
   38.1605   35.2325   12.4128 N   0  0  0  0  0  0  0  0  0  0  0  0
   35.8731   34.9086   12.3418 O   0  0  0  0  0  0  0  0  0  0  0  0
   36.7294   37.0999   11.6580 N   0  0  0  0  0  0  0  0  0  0  0  0
   35.8627   37.2681   11.2223 H   0  0  0  0  0  0  0  0  0  0  0  0
   39.6341   39.4286   11.1231 C   0  0  0  0  0  0  0  0  0  0  0  0
   38.8556   38.2404   11.0541 C   0  0  0  0  0  0  0  0  0  0  0  0
   37.5640   38.1619   11.7233 C   0  0  0  0  0  0  0  0  0  0  0  0
   36.9792   39.2331   12.4496 C   0  0  0  0  0  0  0  0  0  0  0  0
   37.7440   40.4444   12.5190 C   0  0  0  0  0  0  0  0  0  0  0  0
   39.0386   40.5002   11.8634 C   0  0  0  0  0  0  0  0  0  0  0  0
   39.9440   41.9530   11.9642 Cl  0  0  0  0  0  0  0  0  0  0  0  0
   37.2282   41.5298   13.2177 O   0  0  0  0  0  0  0  0  0  0  0  0
   36.9493   42.6999   12.4263 C   0  0  0  0  0  0  0  0  0  0  0  0
   36.1461   44.9930   12.9447 N   0  0  0  0  0  0  0  0  0  0  0  0
   35.0936   45.2275   13.9775 C   0  0  0  0  0  0  0  0  0  0  0  0
   35.4523   44.2457   15.0780 C   0  0  0  0  0  0  0  0  0  0  0  0
   36.7833   43.6291   14.7272 C   0  0  0  0  0  0  0  0  0  0  0  0
   37.1694   43.9410   13.2849 C   0  0  0  0  0  0  0  0  0  0  0  0
   36.5690   46.1532   12.1279 C   0  0  0  0  0  0  0  0  0  0  0  0
   38.7978   30.6934   14.2627 O   0  0  0  0  0  0  0  0  0  0  0  0
   40.7852   27.8604   13.4665 C   0  0  0  0  0  0  0  0  0  0  0  0
   40.6953   27.8618   12.0895 N   0  0  0  0  0  0  0  0  0  0  0  0
   40.1440   28.8616   14.2221 C   0  0  0  0  0  0  0  0  0  0  0  0
   39.4146   29.7910   13.4373 C   0  0  0  0  0  0  0  0  0  0  0  0
   39.3214   29.7553   11.9864 C   0  0  0  0  0  0  0  0  0  0  0  0
   40.0165   28.7254   11.2984 C   0  0  0  0  0  0  0  0  0  0  0  0
   41.4765   26.7993   14.1935 C   0  0  0  0  0  0  0  0  0  0  0  0
   41.4943   26.7495   15.4182 O   0  0  0  0  0  0  0  0  0  0  0  0
   42.1068   25.8668   13.4523 N   0  0  0  0  0  0  0  0  0  0  0  0
   42.8025   24.8404   14.2475 C   0  0  0  0  0  0  0  0  0  0  0  0
   42.1026   25.8711   12.4678 H   0  0  0  0  0  0  0  0  0  0  0  0
 37 36  1  0  0  0
 35 34  2  0  0  0
 36 34  1  0  0  0
 34 28  1  0  0  0
 28 29  2  0  0  0
 28 30  1  0  0  0
 29 33  1  0  0  0
 30 31  2  0  0  0
 33 32  2  0  0  0
 31 32  1  0  0  0
 31 27  1  0  0  0
 27  6  1  0  0  0
  5  6  2  0  0  0
  5  4  1  0  0  0
  6  1  1  0  0  0
  4  3  2  0  0  0
  1  2  2  0  0  0
  3  2  1  0  0  0
  3  9  1  0  0  0
  2  8  1  0  0  0
  9  7  1  0  0  0
  8  7  2  0  0  0
  7 10  1  0  0  0
 10 14  1  0  0  0
 14 13  2  0  0  0
 14 15  1  0  0  0
 13 12  1  0  0  0
 15 16  2  0  0  0
 12 17  2  0  0  0
 16 17  1  0  0  0
 16 19  1  0  0  0
 17 18  1  0  0  0
 20 19  1  0  0  0
 20 25  1  0  0  0
 25 21  1  0  0  0
 25 24  1  0  0  0
 26 21  1  0  0  0
 21 22  1  0  0  0
 24 23  1  0  0  0
 22 23  1  0  0  0
 10 11  1  0  0  0
 36 38  1  0  0  0
M  END
> <minimizedAffinity>
-10.11827

$$$$
2QU6_857_A_501


 38 42  0  0  0  0  0  0  0  0999 V2000
   37.9073   35.0886   12.0646 C   0  0  0  0  0  0  0  0  0  0  0  0
   37.7678   33.8870   12.8102 C   0  0  0  0  0  0  0  0  0  0  0  0
   36.4702   33.3840   13.2015 C   0  0  0  0  0  0  0  0  0  0  0  0
   35.2388   34.0464   12.8012 C   0  0  0  0  0  0  0  0  0  0  0  0
   35.3161   35.2497   12.0064 C   0  0  0  0  0  0  0  0  0  0  0  0
   36.6529   35.7429   11.6873 C   0  0  0  0  0  0  0  0  0  0  0  0
   37.9566   32.0155   13.7849 C   0  0  0  0  0  0  0  0  0  0  0  0
   38.6899   32.9902   13.1777 N   0  0  0  0  0  0  0  0  0  0  0  0
   36.6023   32.2303   13.8155 O   0  0  0  0  0  0  0  0  0  0  0  0
   38.5360   30.8317   14.3703 N   0  0  0  0  0  0  0  0  0  0  0  0
   38.4692   30.7673   15.3505 H   0  0  0  0  0  0  0  0  0  0  0  0
   40.1061   28.6040   11.7785 C   0  0  0  0  0  0  0  0  0  0  0  0
   39.3780   29.6975   12.3233 C   0  0  0  0  0  0  0  0  0  0  0  0
   39.1581   29.7979   13.7599 C   0  0  0  0  0  0  0  0  0  0  0  0
   39.6576   28.8650   14.7072 C   0  0  0  0  0  0  0  0  0  0  0  0
   40.4061   27.7622   14.1773 C   0  0  0  0  0  0  0  0  0  0  0  0
   40.5995   27.6656   12.7413 C   0  0  0  0  0  0  0  0  0  0  0  0
   41.4887   26.3357   12.1239 Cl  0  0  0  0  0  0  0  0  0  0  0  0
   40.9201   26.8122   15.0523 O   0  0  0  0  0  0  0  0  0  0  0  0
   41.8897   27.3014   15.9977 C   0  0  0  0  0  0  0  0  0  0  0  0
   43.7152   26.0443   17.1198 N   0  0  0  0  0  0  0  0  0  0  0  0
   43.6206   24.5692   17.3308 C   0  0  0  0  0  0  0  0  0  0  0  0
   42.9862   24.0677   16.0464 C   0  0  0  0  0  0  0  0  0  0  0  0
   42.9162   25.2279   15.0854 C   0  0  0  0  0  0  0  0  0  0  0  0
   43.1999   26.5472   15.7965 C   0  0  0  0  0  0  0  0  0  0  0  0
   44.8533   26.7507   17.7504 C   0  0  0  0  0  0  0  0  0  0  0  0
   36.6468   36.9248   10.9923 O   0  0  0  0  0  0  0  0  0  0  0  0
   37.7328   40.0311   12.3272 C   0  0  0  0  0  0  0  0  0  0  0  0
   39.0515   40.0388   11.9208 N   0  0  0  0  0  0  0  0  0  0  0  0
   36.8886   38.9572   11.9824 C   0  0  0  0  0  0  0  0  0  0  0  0
   37.5363   37.9365   11.2406 C   0  0  0  0  0  0  0  0  0  0  0  0
   38.9350   37.9629   10.8435 C   0  0  0  0  0  0  0  0  0  0  0  0
   39.7120   39.0934   11.2121 C   0  0  0  0  0  0  0  0  0  0  0  0
   37.1815   41.0817   13.1783 C   0  0  0  0  0  0  0  0  0  0  0  0
   37.2796   42.2708   12.8967 O   0  0  0  0  0  0  0  0  0  0  0  0
   36.5558   40.6851   14.3041 N   0  0  0  0  0  0  0  0  0  0  0  0
   36.0448   41.7948   15.1272 C   0  0  0  0  0  0  0  0  0  0  0  0
   36.4498   39.7388   14.5540 H   0  0  0  0  0  0  0  0  0  0  0  0
 37 36  1  0  0  0
 35 34  2  0  0  0
 36 34  1  0  0  0
 34 28  1  0  0  0
 28 29  2  0  0  0
 28 30  1  0  0  0
 29 33  1  0  0  0
 30 31  2  0  0  0
 33 32  2  0  0  0
 31 32  1  0  0  0
 31 27  1  0  0  0
 27  6  1  0  0  0
  5  6  2  0  0  0
  5  4  1  0  0  0
  6  1  1  0  0  0
  4  3  2  0  0  0
  1  2  2  0  0  0
  3  2  1  0  0  0
  3  9  1  0  0  0
  2  8  1  0  0  0
  9  7  1  0  0  0
  8  7  2  0  0  0
  7 10  1  0  0  0
 10 14  1  0  0  0
 14 13  2  0  0  0
 14 15  1  0  0  0
 13 12  1  0  0  0
 15 16  2  0  0  0
 12 17  2  0  0  0
 16 17  1  0  0  0
 16 19  1  0  0  0
 17 18  1  0  0  0
 20 19  1  0  0  0
 20 25  1  0  0  0
 25 21  1  0  0  0
 25 24  1  0  0  0
 26 21  1  0  0  0
 21 22  1  0  0  0
 24 23  1  0  0  0
 22 23  1  0  0  0
 10 11  1  0  0  0
 36 38  1  0  0  0
M  END
> <minimizedAffinity>
-9.04192

$$$$
2QU6_857_A_501


 38 42  0  0  0  0  0  0  0  0999 V2000
   36.8465   40.9895   12.2882 C   0  0  0  0  0  0  0  0  0  0  0  0
   37.3788   39.7385   11.8749 C   0  0  0  0  0  0  0  0  0  0  0  0
   38.8009   39.5363   11.7117 C   0  0  0  0  0  0  0  0  0  0  0  0
   39.7640   40.5816   12.0204 C   0  0  0  0  0  0  0  0  0  0  0  0
   39.2844   41.8620   12.4851 C   0  0  0  0  0  0  0  0  0  0  0  0
   37.8368   42.0283   12.5782 C   0  0  0  0  0  0  0  0  0  0  0  0
   37.7933   37.7199   11.3833 C   0  0  0  0  0  0  0  0  0  0  0  0
   36.7664   38.5656   11.6775 N   0  0  0  0  0  0  0  0  0  0  0  0
   39.0432   38.2848   11.3948 O   0  0  0  0  0  0  0  0  0  0  0  0
   37.6102   36.3241   11.0702 N   0  0  0  0  0  0  0  0  0  0  0  0
   37.9276   36.0438   10.1815 H   0  0  0  0  0  0  0  0  0  0  0  0
   35.1475   34.0484   12.7737 C   0  0  0  0  0  0  0  0  0  0  0  0
   35.6319   35.1487   12.0138 C   0  0  0  0  0  0  0  0  0  0  0  0
   37.0631   35.3469   11.8281 C   0  0  0  0  0  0  0  0  0  0  0  0
   38.0593   34.4762   12.3442 C   0  0  0  0  0  0  0  0  0  0  0  0
   37.5891   33.3531   13.1023 C   0  0  0  0  0  0  0  0  0  0  0  0
   36.1602   33.1804   13.2954 C   0  0  0  0  0  0  0  0  0  0  0  0
   35.6155   31.8376   14.2123 Cl  0  0  0  0  0  0  0  0  0  0  0  0
   38.5143   32.4643   13.6373 O   0  0  0  0  0  0  0  0  0  0  0  0
   39.3022   31.7373   12.6761 C   0  0  0  0  0  0  0  0  0  0  0  0
   39.9349   29.3657   12.2926 N   0  0  0  0  0  0  0  0  0  0  0  0
   40.3870   28.4953   13.4184 C   0  0  0  0  0  0  0  0  0  0  0  0
   39.4766   28.8972   14.5644 C   0  0  0  0  0  0  0  0  0  0  0  0
   38.4282   29.8304   14.0122 C   0  0  0  0  0  0  0  0  0  0  0  0
   38.7962   30.3001   12.6085 C   0  0  0  0  0  0  0  0  0  0  0  0
   40.0387   28.8150   10.9222 C   0  0  0  0  0  0  0  0  0  0  0  0
   37.4559   43.2897   12.9576 O   0  0  0  0  0  0  0  0  0  0  0  0
   37.1207   43.8523   16.4477 C   0  0  0  0  0  0  0  0  0  0  0  0
   35.7610   44.0665   16.5444 N   0  0  0  0  0  0  0  0  0  0  0  0
   37.7074   43.5574   15.2014 C   0  0  0  0  0  0  0  0  0  0  0  0
   36.7845   43.5429   14.1244 C   0  0  0  0  0  0  0  0  0  0  0  0
   35.3578   43.7927   14.2540 C   0  0  0  0  0  0  0  0  0  0  0  0
   34.8424   44.0605   15.5502 C   0  0  0  0  0  0  0  0  0  0  0  0
   38.0073   43.9900   17.5998 C   0  0  0  0  0  0  0  0  0  0  0  0
   37.8434   44.8561   18.4518 O   0  0  0  0  0  0  0  0  0  0  0  0
   39.0300   43.1166   17.6866 N   0  0  0  0  0  0  0  0  0  0  0  0
   39.8977   43.3261   18.8584 C   0  0  0  0  0  0  0  0  0  0  0  0
   39.1834   42.4028   17.0262 H   0  0  0  0  0  0  0  0  0  0  0  0
 37 36  1  0  0  0
 35 34  2  0  0  0
 36 34  1  0  0  0
 34 28  1  0  0  0
 28 29  2  0  0  0
 28 30  1  0  0  0
 29 33  1  0  0  0
 30 31  2  0  0  0
 33 32  2  0  0  0
 31 32  1  0  0  0
 31 27  1  0  0  0
 27  6  1  0  0  0
  5  6  2  0  0  0
  5  4  1  0  0  0
  6  1  1  0  0  0
  4  3  2  0  0  0
  1  2  2  0  0  0
  3  2  1  0  0  0
  3  9  1  0  0  0
  2  8  1  0  0  0
  9  7  1  0  0  0
  8  7  2  0  0  0
  7 10  1  0  0  0
 10 14  1  0  0  0
 14 13  2  0  0  0
 14 15  1  0  0  0
 13 12  1  0  0  0
 15 16  2  0  0  0
 12 17  2  0  0  0
 16 17  1  0  0  0
 16 19  1  0  0  0
 17 18  1  0  0  0
 20 19  1  0  0  0
 20 25  1  0  0  0
 25 21  1  0  0  0
 25 24  1  0  0  0
 26 21  1  0  0  0
 21 22  1  0  0  0
 24 23  1  0  0  0
 22 23  1  0  0  0
 10 11  1  0  0  0
 36 38  1  0  0  0
M  END
> <minimizedAffinity>
-8.89264

$$$$
2QU6_857_A_501


 38 42  0  0  0  0  0  0  0  0999 V2000
   36.4426   39.9645   11.7258 C   0  0  0  0  0  0  0  0  0  0  0  0
   37.2419   38.7914   11.6617 C   0  0  0  0  0  0  0  0  0  0  0  0
   38.5106   38.7755   10.9687 C   0  0  0  0  0  0  0  0  0  0  0  0
   39.0635   39.9724   10.3545 C   0  0  0  0  0  0  0  0  0  0  0  0
   38.3154   41.2056   10.4237 C   0  0  0  0  0  0  0  0  0  0  0  0
   37.0158   41.1508   11.0871 C   0  0  0  0  0  0  0  0  0  0  0  0
   38.1975   36.9156   11.8990 C   0  0  0  0  0  0  0  0  0  0  0  0
   37.0779   37.6046   12.2568 N   0  0  0  0  0  0  0  0  0  0  0  0
   39.0864   37.6037   11.1130 O   0  0  0  0  0  0  0  0  0  0  0  0
   38.4556   35.5539   12.2976 N   0  0  0  0  0  0  0  0  0  0  0  0
   39.4050   35.3157   12.4033 H   0  0  0  0  0  0  0  0  0  0  0  0
   35.2901   33.6424   12.9842 C   0  0  0  0  0  0  0  0  0  0  0  0
   36.1542   34.7572   12.8026 C   0  0  0  0  0  0  0  0  0  0  0  0
   37.5745   34.5587   12.5462 C   0  0  0  0  0  0  0  0  0  0  0  0
   38.1902   33.2842   12.4301 C   0  0  0  0  0  0  0  0  0  0  0  0
   37.3317   32.1475   12.5972 C   0  0  0  0  0  0  0  0  0  0  0  0
   35.9220   32.3621   12.8721 C   0  0  0  0  0  0  0  0  0  0  0  0
   34.9115   30.9921   13.0784 Cl  0  0  0  0  0  0  0  0  0  0  0  0
   37.8737   30.8713   12.4981 O   0  0  0  0  0  0  0  0  0  0  0  0
   38.4223   30.3351   13.7166 C   0  0  0  0  0  0  0  0  0  0  0  0
   39.9018   28.3395   13.7352 N   0  0  0  0  0  0  0  0  0  0  0  0
   40.0079   27.4456   12.5439 C   0  0  0  0  0  0  0  0  0  0  0  0
   39.9955   28.4122   11.3737 C   0  0  0  0  0  0  0  0  0  0  0  0
   40.0740   29.8108   11.9326 C   0  0  0  0  0  0  0  0  0  0  0  0
   39.8285   29.8146   13.4381 C   0  0  0  0  0  0  0  0  0  0  0  0
   40.5769   27.9008   14.9777 C   0  0  0  0  0  0  0  0  0  0  0  0
   36.3344   42.3401   11.0514 O   0  0  0  0  0  0  0  0  0  0  0  0
   37.1698   44.4763   13.7623 C   0  0  0  0  0  0  0  0  0  0  0  0
   37.6908   45.5598   13.0850 N   0  0  0  0  0  0  0  0  0  0  0  0
   36.6747   43.3648   13.0523 C   0  0  0  0  0  0  0  0  0  0  0  0
   36.8033   43.4822   11.6447 C   0  0  0  0  0  0  0  0  0  0  0  0
   37.3760   44.6298   10.9591 C   0  0  0  0  0  0  0  0  0  0  0  0
   37.8317   45.7193   11.7482 C   0  0  0  0  0  0  0  0  0  0  0  0
   37.1738   44.4034   15.2207 C   0  0  0  0  0  0  0  0  0  0  0  0
   36.2651   44.8655   15.9015 O   0  0  0  0  0  0  0  0  0  0  0  0
   38.2346   43.8028   15.7956 N   0  0  0  0  0  0  0  0  0  0  0  0
   38.1864   43.7844   17.2677 C   0  0  0  0  0  0  0  0  0  0  0  0
   38.9751   43.4116   15.2781 H   0  0  0  0  0  0  0  0  0  0  0  0
 37 36  1  0  0  0
 35 34  2  0  0  0
 36 34  1  0  0  0
 34 28  1  0  0  0
 28 29  2  0  0  0
 28 30  1  0  0  0
 29 33  1  0  0  0
 30 31  2  0  0  0
 33 32  2  0  0  0
 31 32  1  0  0  0
 31 27  1  0  0  0
 27  6  1  0  0  0
  5  6  2  0  0  0
  5  4  1  0  0  0
  6  1  1  0  0  0
  4  3  2  0  0  0
  1  2  2  0  0  0
  3  2  1  0  0  0
  3  9  1  0  0  0
  2  8  1  0  0  0
  9  7  1  0  0  0
  8  7  2  0  0  0
  7 10  1  0  0  0
 10 14  1  0  0  0
 14 13  2  0  0  0
 14 15  1  0  0  0
 13 12  1  0  0  0
 15 16  2  0  0  0
 12 17  2  0  0  0
 16 17  1  0  0  0
 16 19  1  0  0  0
 17 18  1  0  0  0
 20 19  1  0  0  0
 20 25  1  0  0  0
 25 21  1  0  0  0
 25 24  1  0  0  0
 26 21  1  0  0  0
 21 22  1  0  0  0
 24 23  1  0  0  0
 22 23  1  0  0  0
 10 11  1  0  0  0
 36 38  1  0  0  0
M  END
> <minimizedAffinity>
-8.77999

$$$$
2QU6_857_A_501


 38 42  0  0  0  0  0  0  0  0999 V2000
   40.8841   27.5839   12.4082 C   0  0  0  0  0  0  0  0  0  0  0  0
   40.1447   28.7836   12.5899 C   0  0  0  0  0  0  0  0  0  0  0  0
   39.6135   29.1587   13.8811 C   0  0  0  0  0  0  0  0  0  0  0  0
   39.8596   28.3609   15.0721 C   0  0  0  0  0  0  0  0  0  0  0  0
   40.6407   27.1517   14.9572 C   0  0  0  0  0  0  0  0  0  0  0  0
   41.1048   26.7925   13.6202 C   0  0  0  0  0  0  0  0  0  0  0  0
   39.2253   30.6898   12.4928 C   0  0  0  0  0  0  0  0  0  0  0  0
   39.8989   29.7812   11.7331 N   0  0  0  0  0  0  0  0  0  0  0  0
   39.0355   30.3357   13.8042 O   0  0  0  0  0  0  0  0  0  0  0  0
   38.7275   31.9427   11.9806 N   0  0  0  0  0  0  0  0  0  0  0  0
   39.3380   32.4273   11.3792 H   0  0  0  0  0  0  0  0  0  0  0  0
   35.2058   32.6331   13.1061 C   0  0  0  0  0  0  0  0  0  0  0  0
   36.3938   31.8981   12.8394 C   0  0  0  0  0  0  0  0  0  0  0  0
   37.5387   32.5442   12.2118 C   0  0  0  0  0  0  0  0  0  0  0  0
   37.5777   33.9178   11.8530 C   0  0  0  0  0  0  0  0  0  0  0  0
   36.3930   34.6786   12.1267 C   0  0  0  0  0  0  0  0  0  0  0  0
   35.2530   34.0153   12.7343 C   0  0  0  0  0  0  0  0  0  0  0  0
   33.8413   34.9376   13.0460 Cl  0  0  0  0  0  0  0  0  0  0  0  0
   36.3660   36.0286   11.7965 O   0  0  0  0  0  0  0  0  0  0  0  0
   37.6008   36.7408   11.9998 C   0  0  0  0  0  0  0  0  0  0  0  0
   37.8327   39.2008   11.7422 N   0  0  0  0  0  0  0  0  0  0  0  0
   39.1765   39.8428   11.6355 C   0  0  0  0  0  0  0  0  0  0  0  0
   39.9623   38.8774   10.7670 C   0  0  0  0  0  0  0  0  0  0  0  0
   39.0020   37.8315   10.2584 C   0  0  0  0  0  0  0  0  0  0  0  0
   37.6742   37.8957   11.0065 C   0  0  0  0  0  0  0  0  0  0  0  0
   36.6583   40.0948   11.8578 C   0  0  0  0  0  0  0  0  0  0  0  0
   41.7774   25.5984   13.5787 O   0  0  0  0  0  0  0  0  0  0  0  0
   43.8346   25.8505   16.4621 C   0  0  0  0  0  0  0  0  0  0  0  0
   43.9999   24.5174   16.7776 N   0  0  0  0  0  0  0  0  0  0  0  0
   43.0804   26.2259   15.3331 C   0  0  0  0  0  0  0  0  0  0  0  0
   42.5220   25.1291   14.6282 C   0  0  0  0  0  0  0  0  0  0  0  0
   42.6971   23.7332   14.9968 C   0  0  0  0  0  0  0  0  0  0  0  0
   43.4914   23.4388   16.1369 C   0  0  0  0  0  0  0  0  0  0  0  0
   44.3643   26.9153   17.3094 C   0  0  0  0  0  0  0  0  0  0  0  0
   45.5649   27.0500   17.5174 O   0  0  0  0  0  0  0  0  0  0  0  0
   43.4662   27.7528   17.8646 N   0  0  0  0  0  0  0  0  0  0  0  0
   44.0652   28.7876   18.7249 C   0  0  0  0  0  0  0  0  0  0  0  0
   42.4968   27.6795   17.7091 H   0  0  0  0  0  0  0  0  0  0  0  0
 37 36  1  0  0  0
 35 34  2  0  0  0
 36 34  1  0  0  0
 34 28  1  0  0  0
 28 29  2  0  0  0
 28 30  1  0  0  0
 29 33  1  0  0  0
 30 31  2  0  0  0
 33 32  2  0  0  0
 31 32  1  0  0  0
 31 27  1  0  0  0
 27  6  1  0  0  0
  5  6  2  0  0  0
  5  4  1  0  0  0
  6  1  1  0  0  0
  4  3  2  0  0  0
  1  2  2  0  0  0
  3  2  1  0  0  0
  3  9  1  0  0  0
  2  8  1  0  0  0
  9  7  1  0  0  0
  8  7  2  0  0  0
  7 10  1  0  0  0
 10 14  1  0  0  0
 14 13  2  0  0  0
 14 15  1  0  0  0
 13 12  1  0  0  0
 15 16  2  0  0  0
 12 17  2  0  0  0
 16 17  1  0  0  0
 16 19  1  0  0  0
 17 18  1  0  0  0
 20 19  1  0  0  0
 20 25  1  0  0  0
 25 21  1  0  0  0
 25 24  1  0  0  0
 26 21  1  0  0  0
 21 22  1  0  0  0
 24 23  1  0  0  0
 22 23  1  0  0  0
 10 11  1  0  0  0
 36 38  1  0  0  0
M  END
> <minimizedAffinity>
-8.60676

$$$$
2QU6_857_A_501


 38 42  0  0  0  0  0  0  0  0999 V2000
   36.4643   39.7667   12.1154 C   0  0  0  0  0  0  0  0  0  0  0  0
   37.2303   38.6095   11.8098 C   0  0  0  0  0  0  0  0  0  0  0  0
   38.3968   38.6755   10.9583 C   0  0  0  0  0  0  0  0  0  0  0  0
   38.8826   39.9366   10.4205 C   0  0  0  0  0  0  0  0  0  0  0  0
   38.1690   41.1530   10.7313 C   0  0  0  0  0  0  0  0  0  0  0  0
   36.9670   41.0200   11.5495 C   0  0  0  0  0  0  0  0  0  0  0  0
   38.1799   36.7190   11.6982 C   0  0  0  0  0  0  0  0  0  0  0  0
   37.1275   37.3608   12.2786 N   0  0  0  0  0  0  0  0  0  0  0  0
   38.9685   37.4950   10.8874 O   0  0  0  0  0  0  0  0  0  0  0  0
   38.4671   35.3198   11.8974 N   0  0  0  0  0  0  0  0  0  0  0  0
   39.3891   35.0427   11.6914 H   0  0  0  0  0  0  0  0  0  0  0  0
   35.4477   33.4218   13.0919 C   0  0  0  0  0  0  0  0  0  0  0  0
   36.2561   34.5310   12.7189 C   0  0  0  0  0  0  0  0  0  0  0  0
   37.6457   34.3357   12.3279 C   0  0  0  0  0  0  0  0  0  0  0  0
   38.2809   33.0673   12.2590 C   0  0  0  0  0  0  0  0  0  0  0  0
   37.4772   31.9351   12.6188 C   0  0  0  0  0  0  0  0  0  0  0  0
   36.0995   32.1483   13.0256 C   0  0  0  0  0  0  0  0  0  0  0  0
   35.1556   30.7848   13.4616 Cl  0  0  0  0  0  0  0  0  0  0  0  0
   38.0409   30.6653   12.5749 O   0  0  0  0  0  0  0  0  0  0  0  0
   38.6640   30.2217   13.7949 C   0  0  0  0  0  0  0  0  0  0  0  0
   40.0917   28.1916   13.9040 N   0  0  0  0  0  0  0  0  0  0  0  0
   40.0823   27.1810   12.8049 C   0  0  0  0  0  0  0  0  0  0  0  0
   40.0016   28.0265   11.5470 C   0  0  0  0  0  0  0  0  0  0  0  0
   40.1575   29.4704   11.9536 C   0  0  0  0  0  0  0  0  0  0  0  0
   40.0311   29.6315   13.4651 C   0  0  0  0  0  0  0  0  0  0  0  0
   40.8514   27.8571   15.1300 C   0  0  0  0  0  0  0  0  0  0  0  0
   36.3051   42.2052   11.7432 O   0  0  0  0  0  0  0  0  0  0  0  0
   36.8728   45.5300   12.8538 C   0  0  0  0  0  0  0  0  0  0  0  0
   37.4964   45.2947   14.0621 N   0  0  0  0  0  0  0  0  0  0  0  0
   36.4800   44.4533   12.0347 C   0  0  0  0  0  0  0  0  0  0  0  0
   36.7602   43.1794   12.5918 C   0  0  0  0  0  0  0  0  0  0  0  0
   37.4014   42.9621   13.8789 C   0  0  0  0  0  0  0  0  0  0  0  0
   37.7870   44.1022   14.6331 C   0  0  0  0  0  0  0  0  0  0  0  0
   36.5335   46.8793   12.4105 C   0  0  0  0  0  0  0  0  0  0  0  0
   35.4744   47.4194   12.7097 O   0  0  0  0  0  0  0  0  0  0  0  0
   37.4431   47.5134   11.6446 N   0  0  0  0  0  0  0  0  0  0  0  0
   37.0281   48.8594   11.2134 C   0  0  0  0  0  0  0  0  0  0  0  0
   38.3074   47.1130   11.3956 H   0  0  0  0  0  0  0  0  0  0  0  0
 37 36  1  0  0  0
 35 34  2  0  0  0
 36 34  1  0  0  0
 34 28  1  0  0  0
 28 29  2  0  0  0
 28 30  1  0  0  0
 29 33  1  0  0  0
 30 31  2  0  0  0
 33 32  2  0  0  0
 31 32  1  0  0  0
 31 27  1  0  0  0
 27  6  1  0  0  0
  5  6  2  0  0  0
  5  4  1  0  0  0
  6  1  1  0  0  0
  4  3  2  0  0  0
  1  2  2  0  0  0
  3  2  1  0  0  0
  3  9  1  0  0  0
  2  8  1  0  0  0
  9  7  1  0  0  0
  8  7  2  0  0  0
  7 10  1  0  0  0
 10 14  1  0  0  0
 14 13  2  0  0  0
 14 15  1  0  0  0
 13 12  1  0  0  0
 15 16  2  0  0  0
 12 17  2  0  0  0
 16 17  1  0  0  0
 16 19  1  0  0  0
 17 18  1  0  0  0
 20 19  1  0  0  0
 20 25  1  0  0  0
 25 21  1  0  0  0
 25 24  1  0  0  0
 26 21  1  0  0  0
 21 22  1  0  0  0
 24 23  1  0  0  0
 22 23  1  0  0  0
 10 11  1  0  0  0
 36 38  1  0  0  0
M  END
> <minimizedAffinity>
-8.60512

$$$$
2QU6_857_A_501


 38 42  0  0  0  0  0  0  0  0999 V2000
   36.4399   40.7213   11.8942 C   0  0  0  0  0  0  0  0  0  0  0  0
   37.2402   39.5596   11.7228 C   0  0  0  0  0  0  0  0  0  0  0  0
   38.6842   39.6287   11.7109 C   0  0  0  0  0  0  0  0  0  0  0  0
   39.3934   40.8787   11.9347 C   0  0  0  0  0  0  0  0  0  0  0  0
   38.6334   42.0863   12.1566 C   0  0  0  0  0  0  0  0  0  0  0  0
   37.1790   41.9679   12.1029 C   0  0  0  0  0  0  0  0  0  0  0  0
   38.0783   37.6191   11.5820 C   0  0  0  0  0  0  0  0  0  0  0  0
   36.8847   38.2717   11.6572 N   0  0  0  0  0  0  0  0  0  0  0  0
   39.1907   38.4209   11.6105 O   0  0  0  0  0  0  0  0  0  0  0  0
   38.1964   36.1859   11.4722 N   0  0  0  0  0  0  0  0  0  0  0  0
   38.8759   35.8640   10.8366 H   0  0  0  0  0  0  0  0  0  0  0  0
   35.4183   33.9908   12.7407 C   0  0  0  0  0  0  0  0  0  0  0  0
   36.0543   35.0793   12.0823 C   0  0  0  0  0  0  0  0  0  0  0  0
   37.5034   35.2230   12.1210 C   0  0  0  0  0  0  0  0  0  0  0  0
   38.3755   34.3082   12.7689 C   0  0  0  0  0  0  0  0  0  0  0  0
   37.7529   33.1964   13.4273 C   0  0  0  0  0  0  0  0  0  0  0  0
   36.3059   33.0781   13.3966 C   0  0  0  0  0  0  0  0  0  0  0  0
   35.5773   31.7480   14.1969 Cl  0  0  0  0  0  0  0  0  0  0  0  0
   38.5512   32.2662   14.0827 O   0  0  0  0  0  0  0  0  0  0  0  0
   39.4697   31.5391   13.2454 C   0  0  0  0  0  0  0  0  0  0  0  0
   39.9778   29.2552   12.4101 N   0  0  0  0  0  0  0  0  0  0  0  0
   40.5106   28.2001   13.3224 C   0  0  0  0  0  0  0  0  0  0  0  0
   39.7349   28.4192   14.6084 C   0  0  0  0  0  0  0  0  0  0  0  0
   38.6692   29.4500   14.3319 C   0  0  0  0  0  0  0  0  0  0  0  0
   38.9099   30.1428   12.9945 C   0  0  0  0  0  0  0  0  0  0  0  0
   39.9237   28.9413   10.9642 C   0  0  0  0  0  0  0  0  0  0  0  0
   36.5283   43.1656   12.2518 O   0  0  0  0  0  0  0  0  0  0  0  0
   34.9376   43.8205   15.3584 C   0  0  0  0  0  0  0  0  0  0  0  0
   35.7993   44.7541   15.8969 N   0  0  0  0  0  0  0  0  0  0  0  0
   35.1788   43.2854   14.0777 C   0  0  0  0  0  0  0  0  0  0  0  0
   36.3624   43.7740   13.4678 C   0  0  0  0  0  0  0  0  0  0  0  0
   37.2632   44.7444   14.0692 C   0  0  0  0  0  0  0  0  0  0  0  0
   36.9354   45.2518   15.3547 C   0  0  0  0  0  0  0  0  0  0  0  0
   33.7968   43.3009   16.1074 C   0  0  0  0  0  0  0  0  0  0  0  0
   32.9666   44.0367   16.6289 O   0  0  0  0  0  0  0  0  0  0  0  0
   33.6955   41.9608   16.2069 N   0  0  0  0  0  0  0  0  0  0  0  0
   32.5368   41.5052   16.9941 C   0  0  0  0  0  0  0  0  0  0  0  0
   34.3382   41.3418   15.7909 H   0  0  0  0  0  0  0  0  0  0  0  0
 37 36  1  0  0  0
 35 34  2  0  0  0
 36 34  1  0  0  0
 34 28  1  0  0  0
 28 29  2  0  0  0
 28 30  1  0  0  0
 29 33  1  0  0  0
 30 31  2  0  0  0
 33 32  2  0  0  0
 31 32  1  0  0  0
 31 27  1  0  0  0
 27  6  1  0  0  0
  5  6  2  0  0  0
  5  4  1  0  0  0
  6  1  1  0  0  0
  4  3  2  0  0  0
  1  2  2  0  0  0
  3  2  1  0  0  0
  3  9  1  0  0  0
  2  8  1  0  0  0
  9  7  1  0  0  0
  8  7  2  0  0  0
  7 10  1  0  0  0
 10 14  1  0  0  0
 14 13  2  0  0  0
 14 15  1  0  0  0
 13 12  1  0  0  0
 15 16  2  0  0  0
 12 17  2  0  0  0
 16 17  1  0  0  0
 16 19  1  0  0  0
 17 18  1  0  0  0
 20 19  1  0  0  0
 20 25  1  0  0  0
 25 21  1  0  0  0
 25 24  1  0  0  0
 26 21  1  0  0  0
 21 22  1  0  0  0
 24 23  1  0  0  0
 22 23  1  0  0  0
 10 11  1  0  0  0
 36 38  1  0  0  0
M  END
> <minimizedAffinity>
-8.56602

$$$$
