1W13_SM1_U_1245


 41 42  0  0  0  0  0  0  0  0999 V2000
   27.8107   10.9358   30.9700 C   0  0  0  0  0  0  0  0  0  0  0  0
   26.8302   12.0989   30.6806 C   0  0  0  0  0  0  0  0  0  0  0  0
   28.2080    8.6730   30.2445 N   0  0  0  0  0  0  0  0  0  0  0  0
   27.4527    9.7508   30.1887 C   0  0  0  0  0  0  0  0  0  0  0  0
   26.4322    9.8226   29.4881 O   0  0  0  0  0  0  0  0  0  0  0  0
   28.9669    8.6729   30.8715 H   0  0  0  0  0  0  0  0  0  0  0  0
   27.9968    7.5196   29.4619 C   0  0  0  0  0  0  0  0  0  0  0  0
   31.7229    6.0789   27.8896 C   0  0  0  0  0  0  0  0  0  0  0  0
   31.1578    7.2522   27.3567 C   0  0  0  0  0  0  0  0  0  0  0  0
   29.9260    7.7294   27.8498 C   0  0  0  0  0  0  0  0  0  0  0  0
   29.2524    7.0158   28.8597 C   0  0  0  0  0  0  0  0  0  0  0  0
   29.7811    5.7857   29.3128 C   0  0  0  0  0  0  0  0  0  0  0  0
   30.9875    5.2864   28.8025 C   0  0  0  0  0  0  0  0  0  0  0  0
   32.9873    5.7583   27.4964 N   0  0  0  0  0  0  0  0  0  0  0  0
   33.4650    6.4824   27.0308 H   0  0  0  0  0  0  0  0  0  0  0  0
   33.1126    3.4007   27.5268 N   0  0  0  0  0  0  0  0  0  0  0  0
   33.6997    4.6165   27.6353 C   0  0  0  0  0  0  0  0  0  0  0  0
   35.0155    4.6432   27.8798 N   0  0  0  0  0  0  0  0  0  0  0  0
   33.6508    2.5830   27.6316 H   0  0  0  0  0  0  0  0  0  0  0  0
   32.1476    3.3346   27.3432 H   0  0  0  0  0  0  0  0  0  0  0  0
   35.5152    3.8006   27.9775 H   0  0  0  0  0  0  0  0  0  0  0  0
   29.0912   11.4154   30.6352 N   0  0  0  0  0  0  0  0  0  0  0  0
   30.2441   11.1410   31.1895 C   0  0  0  0  0  0  0  0  0  0  0  0
   30.3010   10.3691   32.1486 O   0  0  0  0  0  0  0  0  0  0  0  0
   29.1236   12.0448   29.8788 H   0  0  0  0  0  0  0  0  0  0  0  0
   31.4775   11.7363   30.6763 C   0  0  0  0  0  0  0  0  0  0  0  0
   32.6284   11.7270   31.7218 C   0  0  0  0  0  0  0  0  0  0  0  0
   33.1749   10.4037   31.8394 O   0  0  0  0  0  0  0  0  0  0  0  0
   32.4803    9.7916   32.1289 H   0  0  0  0  0  0  0  0  0  0  0  0
   32.0229   11.0100   29.5001 N   0  0  0  0  0  0  0  0  0  0  0  0
   31.4900   10.1461   29.4000 H   0  0  0  0  0  0  0  0  0  0  0  0
   32.0008   13.3366   28.1914 O   0  0  0  0  0  0  0  0  0  0  0  0
   31.9858   11.8016   28.0128 S   0  0  0  0  0  0  0  0  0  0  0  0
   33.2354   11.2736   27.2479 O   0  0  0  0  0  0  0  0  0  0  0  0
   30.5307   11.3845   27.1313 C   0  0  0  0  0  0  0  0  0  0  0  0
   30.7062   11.5182   25.6667 C   0  0  0  0  0  0  0  0  0  0  0  0
   30.6855   12.7991   25.0560 C   0  0  0  0  0  0  0  0  0  0  0  0
   30.8005   12.9459   23.6562 C   0  0  0  0  0  0  0  0  0  0  0  0
   30.9822   11.7972   22.8578 C   0  0  0  0  0  0  0  0  0  0  0  0
   31.0643   10.5215   23.4625 C   0  0  0  0  0  0  0  0  0  0  0  0
   30.8929   10.3738   24.8607 C   0  0  0  0  0  0  0  0  0  0  0  0
 16 17  1  0  0  0
 17 18  2  0  0  0
 17 14  1  0  0  0
 14  8  1  0  0  0
  8  9  2  0  0  0
  8 13  1  0  0  0
  9 10  1  0  0  0
 10 11  2  0  0  0
 11 12  1  0  0  0
 11  7  1  0  0  0
 12 13  2  0  0  0
  7  3  1  0  0  0
  3  4  1  0  0  0
  4  5  2  0  0  0
  4  1  1  0  0  0
  1  2  1  0  0  0
  1 22  1  0  0  0
 22 23  1  0  0  0
 23 26  1  0  0  0
 23 24  2  0  0  0
 26 27  1  0  0  0
 26 30  1  0  0  0
 27 28  1  0  0  0
 30 33  1  0  0  0
 32 33  2  0  0  0
 33 34  2  0  0  0
 33 35  1  0  0  0
 35 36  1  0  0  0
 36 37  2  0  0  0
 36 41  1  0  0  0
 37 38  1  0  0  0
 38 39  2  0  0  0
 39 40  1  0  0  0
 40 41  2  0  0  0
 16 19  1  0  0  0
 16 20  1  0  0  0
 18 21  1  0  0  0
 14 15  1  0  0  0
  3  6  1  0  0  0
 22 25  1  0  0  0
 28 29  1  0  0  0
 30 31  1  0  0  0
M  END
> <minimizedAffinity>
-8.13975

$$$$
1W13_SM1_U_1245


 41 42  0  0  0  0  0  0  0  0999 V2000
   28.4411   10.7816   31.3288 C   0  0  0  0  0  0  0  0  0  0  0  0
   27.3299   11.8195   31.6222 C   0  0  0  0  0  0  0  0  0  0  0  0
   28.2064    8.6902   30.1559 N   0  0  0  0  0  0  0  0  0  0  0  0
   28.1196   10.0044   30.1307 C   0  0  0  0  0  0  0  0  0  0  0  0
   27.7786   10.6375   29.1206 O   0  0  0  0  0  0  0  0  0  0  0  0
   28.4244    8.2582   31.0133 H   0  0  0  0  0  0  0  0  0  0  0  0
   28.0066    7.8640   29.0313 C   0  0  0  0  0  0  0  0  0  0  0  0
   31.5957    6.0203   27.5647 C   0  0  0  0  0  0  0  0  0  0  0  0
   30.6353    5.2309   28.2236 C   0  0  0  0  0  0  0  0  0  0  0  0
   29.4589    5.8237   28.7266 C   0  0  0  0  0  0  0  0  0  0  0  0
   29.2597    7.2109   28.5885 C   0  0  0  0  0  0  0  0  0  0  0  0
   30.2785    8.0061   28.0162 C   0  0  0  0  0  0  0  0  0  0  0  0
   31.4663    7.4293   27.5454 C   0  0  0  0  0  0  0  0  0  0  0  0
   32.6270    5.3723   26.9544 N   0  0  0  0  0  0  0  0  0  0  0  0
   32.7534    5.6091   26.0072 H   0  0  0  0  0  0  0  0  0  0  0  0
   34.8019    4.7827   27.6598 N   0  0  0  0  0  0  0  0  0  0  0  0
   33.5075    4.4595   27.4255 C   0  0  0  0  0  0  0  0  0  0  0  0
   33.1326    3.2008   27.6847 N   0  0  0  0  0  0  0  0  0  0  0  0
   35.4250    4.1020   28.0027 H   0  0  0  0  0  0  0  0  0  0  0  0
   35.1196    5.6984   27.4870 H   0  0  0  0  0  0  0  0  0  0  0  0
   33.7893    2.5522   28.0271 H   0  0  0  0  0  0  0  0  0  0  0  0
   29.6292   11.5196   31.1700 N   0  0  0  0  0  0  0  0  0  0  0  0
   30.8414   11.0876   30.9336 C   0  0  0  0  0  0  0  0  0  0  0  0
   31.0576    9.8789   30.8284 O   0  0  0  0  0  0  0  0  0  0  0  0
   29.5350   12.4965   31.2477 H   0  0  0  0  0  0  0  0  0  0  0  0
   31.9508   12.0286   30.7824 C   0  0  0  0  0  0  0  0  0  0  0  0
   32.7689   12.2069   32.0926 C   0  0  0  0  0  0  0  0  0  0  0  0
   31.8927   12.5597   33.1750 O   0  0  0  0  0  0  0  0  0  0  0  0
   31.4425   13.3935   32.9678 H   0  0  0  0  0  0  0  0  0  0  0  0
   32.9443   11.5912   29.7673 N   0  0  0  0  0  0  0  0  0  0  0  0
   32.4445   11.0444   29.0661 H   0  0  0  0  0  0  0  0  0  0  0  0
   34.1571   13.9659   29.8940 O   0  0  0  0  0  0  0  0  0  0  0  0
   33.8033   12.7914   28.9540 S   0  0  0  0  0  0  0  0  0  0  0  0
   35.0645   12.0699   28.3935 O   0  0  0  0  0  0  0  0  0  0  0  0
   32.8532   13.4379   27.6320 C   0  0  0  0  0  0  0  0  0  0  0  0
   32.1720   12.3734   26.8597 C   0  0  0  0  0  0  0  0  0  0  0  0
   32.9144   11.5284   25.9942 C   0  0  0  0  0  0  0  0  0  0  0  0
   32.2783   10.5405   25.2110 C   0  0  0  0  0  0  0  0  0  0  0  0
   30.8834   10.3653   25.3264 C   0  0  0  0  0  0  0  0  0  0  0  0
   30.1431   11.1619   26.2304 C   0  0  0  0  0  0  0  0  0  0  0  0
   30.7765   12.1885   26.9726 C   0  0  0  0  0  0  0  0  0  0  0  0
 16 17  1  0  0  0
 17 18  2  0  0  0
 17 14  1  0  0  0
 14  8  1  0  0  0
  8  9  2  0  0  0
  8 13  1  0  0  0
  9 10  1  0  0  0
 10 11  2  0  0  0
 11 12  1  0  0  0
 11  7  1  0  0  0
 12 13  2  0  0  0
  7  3  1  0  0  0
  3  4  1  0  0  0
  4  5  2  0  0  0
  4  1  1  0  0  0
  1  2  1  0  0  0
  1 22  1  0  0  0
 22 23  1  0  0  0
 23 26  1  0  0  0
 23 24  2  0  0  0
 26 27  1  0  0  0
 26 30  1  0  0  0
 27 28  1  0  0  0
 30 33  1  0  0  0
 32 33  2  0  0  0
 33 34  2  0  0  0
 33 35  1  0  0  0
 35 36  1  0  0  0
 36 37  2  0  0  0
 36 41  1  0  0  0
 37 38  1  0  0  0
 38 39  2  0  0  0
 39 40  1  0  0  0
 40 41  2  0  0  0
 16 19  1  0  0  0
 16 20  1  0  0  0
 18 21  1  0  0  0
 14 15  1  0  0  0
  3  6  1  0  0  0
 22 25  1  0  0  0
 28 29  1  0  0  0
 30 31  1  0  0  0
M  END
> <minimizedAffinity>
-8.04397

$$$$
1W13_SM1_U_1245


 41 42  0  0  0  0  0  0  0  0999 V2000
   27.6689   10.7184   30.6649 C   0  0  0  0  0  0  0  0  0  0  0  0
   26.6864   11.8294   30.2197 C   0  0  0  0  0  0  0  0  0  0  0  0
   28.1215    8.3990   30.1957 N   0  0  0  0  0  0  0  0  0  0  0  0
   27.4196    9.4803   29.9248 C   0  0  0  0  0  0  0  0  0  0  0  0
   26.5410    9.5113   29.0505 O   0  0  0  0  0  0  0  0  0  0  0  0
   28.7579    8.4375   30.9459 H   0  0  0  0  0  0  0  0  0  0  0  0
   28.0178    7.1900   29.4780 C   0  0  0  0  0  0  0  0  0  0  0  0
   31.8500    5.9960   27.9549 C   0  0  0  0  0  0  0  0  0  0  0  0
   31.2760    7.2005   27.5084 C   0  0  0  0  0  0  0  0  0  0  0  0
   30.0103    7.5988   27.9855 C   0  0  0  0  0  0  0  0  0  0  0  0
   29.3130    6.7763   28.8911 C   0  0  0  0  0  0  0  0  0  0  0  0
   29.8558    5.5219   29.2511 C   0  0  0  0  0  0  0  0  0  0  0  0
   31.0975    5.1026   28.7536 C   0  0  0  0  0  0  0  0  0  0  0  0
   33.1393    5.7449   27.5933 N   0  0  0  0  0  0  0  0  0  0  0  0
   33.6145    6.5197   27.2149 H   0  0  0  0  0  0  0  0  0  0  0  0
   35.2196    4.6592   27.8558 N   0  0  0  0  0  0  0  0  0  0  0  0
   33.8793    4.6145   27.6646 C   0  0  0  0  0  0  0  0  0  0  0  0
   33.3149    3.4057   27.5548 N   0  0  0  0  0  0  0  0  0  0  0  0
   35.7380    3.8236   27.9044 H   0  0  0  0  0  0  0  0  0  0  0  0
   35.6753    5.5272   27.9461 H   0  0  0  0  0  0  0  0  0  0  0  0
   33.8717    2.5956   27.6095 H   0  0  0  0  0  0  0  0  0  0  0  0
   28.9606   11.2221   30.4210 N   0  0  0  0  0  0  0  0  0  0  0  0
   30.0617   11.0287   31.1007 C   0  0  0  0  0  0  0  0  0  0  0  0
   30.0483   10.3253   32.1125 O   0  0  0  0  0  0  0  0  0  0  0  0
   29.0474   11.8003   29.6289 H   0  0  0  0  0  0  0  0  0  0  0  0
   31.3204   11.6342   30.6669 C   0  0  0  0  0  0  0  0  0  0  0  0
   32.4001   11.6402   31.7858 C   0  0  0  0  0  0  0  0  0  0  0  0
   33.0043   10.3412   31.8928 O   0  0  0  0  0  0  0  0  0  0  0  0
   32.3244    9.6856   32.1135 H   0  0  0  0  0  0  0  0  0  0  0  0
   31.9489   10.9088   29.5323 N   0  0  0  0  0  0  0  0  0  0  0  0
   31.5629    9.9647   29.5215 H   0  0  0  0  0  0  0  0  0  0  0  0
   32.7859   10.9850   26.9986 O   0  0  0  0  0  0  0  0  0  0  0  0
   31.7459   11.5553   27.9894 S   0  0  0  0  0  0  0  0  0  0  0  0
   30.2822   11.1975   27.5957 O   0  0  0  0  0  0  0  0  0  0  0  0
   31.9429   13.2955   28.0218 C   0  0  0  0  0  0  0  0  0  0  0  0
   33.3655   13.6991   27.9396 C   0  0  0  0  0  0  0  0  0  0  0  0
   34.2325   13.5001   29.0454 C   0  0  0  0  0  0  0  0  0  0  0  0
   35.5793   13.9230   29.0066 C   0  0  0  0  0  0  0  0  0  0  0  0
   36.0794   14.5156   27.8281 C   0  0  0  0  0  0  0  0  0  0  0  0
   35.2398   14.6638   26.6999 C   0  0  0  0  0  0  0  0  0  0  0  0
   33.8753   14.2891   26.7622 C   0  0  0  0  0  0  0  0  0  0  0  0
 16 17  1  0  0  0
 17 18  2  0  0  0
 17 14  1  0  0  0
 14  8  1  0  0  0
  8  9  2  0  0  0
  8 13  1  0  0  0
  9 10  1  0  0  0
 10 11  2  0  0  0
 11 12  1  0  0  0
 11  7  1  0  0  0
 12 13  2  0  0  0
  7  3  1  0  0  0
  3  4  1  0  0  0
  4  5  2  0  0  0
  4  1  1  0  0  0
  1  2  1  0  0  0
  1 22  1  0  0  0
 22 23  1  0  0  0
 23 26  1  0  0  0
 23 24  2  0  0  0
 26 27  1  0  0  0
 26 30  1  0  0  0
 27 28  1  0  0  0
 30 33  1  0  0  0
 32 33  2  0  0  0
 33 34  2  0  0  0
 33 35  1  0  0  0
 35 36  1  0  0  0
 36 37  2  0  0  0
 36 41  1  0  0  0
 37 38  1  0  0  0
 38 39  2  0  0  0
 39 40  1  0  0  0
 40 41  2  0  0  0
 16 19  1  0  0  0
 16 20  1  0  0  0
 18 21  1  0  0  0
 14 15  1  0  0  0
  3  6  1  0  0  0
 22 25  1  0  0  0
 28 29  1  0  0  0
 30 31  1  0  0  0
M  END
> <minimizedAffinity>
-7.63694

$$$$
1W13_SM1_U_1245


 41 42  0  0  0  0  0  0  0  0999 V2000
   32.5466   11.7202   31.5107 C   0  0  0  0  0  0  0  0  0  0  0  0
   33.6342   10.8184   32.1446 C   0  0  0  0  0  0  0  0  0  0  0  0
   33.1899   11.5766   29.1934 N   0  0  0  0  0  0  0  0  0  0  0  0
   33.0332   12.3220   30.2682 C   0  0  0  0  0  0  0  0  0  0  0  0
   33.2878   13.5353   30.2893 O   0  0  0  0  0  0  0  0  0  0  0  0
   32.9074   10.6346   29.2395 H   0  0  0  0  0  0  0  0  0  0  0  0
   33.7370   12.0442   27.9812 C   0  0  0  0  0  0  0  0  0  0  0  0
   31.0973   11.7300   24.6100 C   0  0  0  0  0  0  0  0  0  0  0  0
   31.1451   12.9332   25.3380 C   0  0  0  0  0  0  0  0  0  0  0  0
   31.9938   13.0473   26.4582 C   0  0  0  0  0  0  0  0  0  0  0  0
   32.7748   11.9466   26.8598 C   0  0  0  0  0  0  0  0  0  0  0  0
   32.6400   10.7138   26.1816 C   0  0  0  0  0  0  0  0  0  0  0  0
   31.7720   10.5819   25.0887 C   0  0  0  0  0  0  0  0  0  0  0  0
   30.3914   11.7307   23.4449 N   0  0  0  0  0  0  0  0  0  0  0  0
   29.5983   11.1475   23.4488 H   0  0  0  0  0  0  0  0  0  0  0  0
   31.7392   12.2504   21.5771 N   0  0  0  0  0  0  0  0  0  0  0  0
   30.5923   12.3947   22.2833 C   0  0  0  0  0  0  0  0  0  0  0  0
   29.6622   13.2168   21.7823 N   0  0  0  0  0  0  0  0  0  0  0  0
   31.8635   12.7437   20.7342 H   0  0  0  0  0  0  0  0  0  0  0  0
   32.4483   11.6524   21.9067 H   0  0  0  0  0  0  0  0  0  0  0  0
   29.8286   13.6904   20.9354 H   0  0  0  0  0  0  0  0  0  0  0  0
   31.4337   10.8876   31.2876 N   0  0  0  0  0  0  0  0  0  0  0  0
   30.1637   11.1448   31.4680 C   0  0  0  0  0  0  0  0  0  0  0  0
   29.8103   12.2446   31.8974 O   0  0  0  0  0  0  0  0  0  0  0  0
   31.6397    9.9865   30.9486 H   0  0  0  0  0  0  0  0  0  0  0  0
   29.1487   10.1389   31.1561 C   0  0  0  0  0  0  0  0  0  0  0  0
   27.9655   10.1477   32.1649 C   0  0  0  0  0  0  0  0  0  0  0  0
   27.0081   11.1513   31.7909 O   0  0  0  0  0  0  0  0  0  0  0  0
   27.4343   12.0226   31.7964 H   0  0  0  0  0  0  0  0  0  0  0  0
   28.5193   10.3474   29.8260 N   0  0  0  0  0  0  0  0  0  0  0  0
   28.4696   11.3534   29.6655 H   0  0  0  0  0  0  0  0  0  0  0  0
   29.0811   10.5205   27.2221 O   0  0  0  0  0  0  0  0  0  0  0  0
   29.2817    9.6596   28.4898 S   0  0  0  0  0  0  0  0  0  0  0  0
   30.7784    9.5380   28.9025 O   0  0  0  0  0  0  0  0  0  0  0  0
   28.6262    8.0691   28.1598 C   0  0  0  0  0  0  0  0  0  0  0  0
   29.6610    7.0118   28.2309 C   0  0  0  0  0  0  0  0  0  0  0  0
   29.5456    5.9578   29.1741 C   0  0  0  0  0  0  0  0  0  0  0  0
   30.5454    4.9676   29.2929 C   0  0  0  0  0  0  0  0  0  0  0  0
   31.6576    5.0069   28.4260 C   0  0  0  0  0  0  0  0  0  0  0  0
   31.7521    6.0187   27.4426 C   0  0  0  0  0  0  0  0  0  0  0  0
   30.7753    7.0414   27.3638 C   0  0  0  0  0  0  0  0  0  0  0  0
 16 17  1  0  0  0
 17 18  2  0  0  0
 17 14  1  0  0  0
 14  8  1  0  0  0
  8  9  2  0  0  0
  8 13  1  0  0  0
  9 10  1  0  0  0
 10 11  2  0  0  0
 11 12  1  0  0  0
 11  7  1  0  0  0
 12 13  2  0  0  0
  7  3  1  0  0  0
  3  4  1  0  0  0
  4  5  2  0  0  0
  4  1  1  0  0  0
  1  2  1  0  0  0
  1 22  1  0  0  0
 22 23  1  0  0  0
 23 26  1  0  0  0
 23 24  2  0  0  0
 26 27  1  0  0  0
 26 30  1  0  0  0
 27 28  1  0  0  0
 30 33  1  0  0  0
 32 33  2  0  0  0
 33 34  2  0  0  0
 33 35  1  0  0  0
 35 36  1  0  0  0
 36 37  2  0  0  0
 36 41  1  0  0  0
 37 38  1  0  0  0
 38 39  2  0  0  0
 39 40  1  0  0  0
 40 41  2  0  0  0
 16 19  1  0  0  0
 16 20  1  0  0  0
 18 21  1  0  0  0
 14 15  1  0  0  0
  3  6  1  0  0  0
 22 25  1  0  0  0
 28 29  1  0  0  0
 30 31  1  0  0  0
M  END
> <minimizedAffinity>
-7.34036

$$$$
1W13_SM1_U_1245


 41 42  0  0  0  0  0  0  0  0999 V2000
   27.6943   11.4162   29.1137 C   0  0  0  0  0  0  0  0  0  0  0  0
   27.7622   12.1602   27.7573 C   0  0  0  0  0  0  0  0  0  0  0  0
   28.3116    9.1469   28.5902 N   0  0  0  0  0  0  0  0  0  0  0  0
   27.3649   10.0041   28.9132 C   0  0  0  0  0  0  0  0  0  0  0  0
   26.1778    9.6748   29.0541 O   0  0  0  0  0  0  0  0  0  0  0  0
   29.2395    9.4744   28.5576 H   0  0  0  0  0  0  0  0  0  0  0  0
   28.0785    7.7898   28.2882 C   0  0  0  0  0  0  0  0  0  0  0  0
   31.6331    5.3882   28.4566 C   0  0  0  0  0  0  0  0  0  0  0  0
   30.4862    4.9715   29.1572 C   0  0  0  0  0  0  0  0  0  0  0  0
   29.3159    5.7574   29.1265 C   0  0  0  0  0  0  0  0  0  0  0  0
   29.3062    6.9711   28.4127 C   0  0  0  0  0  0  0  0  0  0  0  0
   30.4954    7.4268   27.7994 C   0  0  0  0  0  0  0  0  0  0  0  0
   31.6730    6.6684   27.8550 C   0  0  0  0  0  0  0  0  0  0  0  0
   32.6743    4.5128   28.3829 N   0  0  0  0  0  0  0  0  0  0  0  0
   32.5801    3.7185   28.9568 H   0  0  0  0  0  0  0  0  0  0  0  0
   33.7901    4.5905   26.3033 N   0  0  0  0  0  0  0  0  0  0  0  0
   33.8156    4.5467   27.6569 C   0  0  0  0  0  0  0  0  0  0  0  0
   35.0164    4.5443   28.2485 N   0  0  0  0  0  0  0  0  0  0  0  0
   34.6332    4.6146   25.7956 H   0  0  0  0  0  0  0  0  0  0  0  0
   32.9284    4.5982   25.8272 H   0  0  0  0  0  0  0  0  0  0  0  0
   35.8346    4.5693   27.7016 H   0  0  0  0  0  0  0  0  0  0  0  0
   28.9596   11.5784   29.7090 N   0  0  0  0  0  0  0  0  0  0  0  0
   29.2727   11.6219   30.9786 C   0  0  0  0  0  0  0  0  0  0  0  0
   28.3934   11.5210   31.8362 O   0  0  0  0  0  0  0  0  0  0  0  0
   29.7137   11.6722   29.0830 H   0  0  0  0  0  0  0  0  0  0  0  0
   30.6651   11.7811   31.3970 C   0  0  0  0  0  0  0  0  0  0  0  0
   31.6121   10.7374   30.7400 C   0  0  0  0  0  0  0  0  0  0  0  0
   30.8990    9.5157   30.4899 O   0  0  0  0  0  0  0  0  0  0  0  0
   30.5672    9.1575   31.3281 H   0  0  0  0  0  0  0  0  0  0  0  0
   31.2328   13.1024   31.0222 N   0  0  0  0  0  0  0  0  0  0  0  0
   30.4741   13.6617   30.6324 H   0  0  0  0  0  0  0  0  0  0  0  0
   31.7563   13.3545   33.6276 O   0  0  0  0  0  0  0  0  0  0  0  0
   31.9552   14.0119   32.2432 S   0  0  0  0  0  0  0  0  0  0  0  0
   33.4548   14.1097   31.8346 O   0  0  0  0  0  0  0  0  0  0  0  0
   31.2533   15.6153   32.3118 C   0  0  0  0  0  0  0  0  0  0  0  0
   29.9358   15.6208   32.9883 C   0  0  0  0  0  0  0  0  0  0  0  0
   29.8059   16.1443   34.3010 C   0  0  0  0  0  0  0  0  0  0  0  0
   28.5700   16.1137   34.9836 C   0  0  0  0  0  0  0  0  0  0  0  0
   27.4359   15.5906   34.3277 C   0  0  0  0  0  0  0  0  0  0  0  0
   27.5418   15.1216   32.9978 C   0  0  0  0  0  0  0  0  0  0  0  0
   28.7946   15.1030   32.3373 C   0  0  0  0  0  0  0  0  0  0  0  0
 16 17  1  0  0  0
 17 18  2  0  0  0
 17 14  1  0  0  0
 14  8  1  0  0  0
  8  9  2  0  0  0
  8 13  1  0  0  0
  9 10  1  0  0  0
 10 11  2  0  0  0
 11 12  1  0  0  0
 11  7  1  0  0  0
 12 13  2  0  0  0
  7  3  1  0  0  0
  3  4  1  0  0  0
  4  5  2  0  0  0
  4  1  1  0  0  0
  1  2  1  0  0  0
  1 22  1  0  0  0
 22 23  1  0  0  0
 23 26  1  0  0  0
 23 24  2  0  0  0
 26 27  1  0  0  0
 26 30  1  0  0  0
 27 28  1  0  0  0
 30 33  1  0  0  0
 32 33  2  0  0  0
 33 34  2  0  0  0
 33 35  1  0  0  0
 35 36  1  0  0  0
 36 37  2  0  0  0
 36 41  1  0  0  0
 37 38  1  0  0  0
 38 39  2  0  0  0
 39 40  1  0  0  0
 40 41  2  0  0  0
 16 19  1  0  0  0
 16 20  1  0  0  0
 18 21  1  0  0  0
 14 15  1  0  0  0
  3  6  1  0  0  0
 22 25  1  0  0  0
 28 29  1  0  0  0
 30 31  1  0  0  0
M  END
> <minimizedAffinity>
-7.29087

$$$$
1W13_SM1_U_1245


 41 42  0  0  0  0  0  0  0  0999 V2000
   26.7873   11.8322   30.8020 C   0  0  0  0  0  0  0  0  0  0  0  0
   25.5682   12.7677   30.9935 C   0  0  0  0  0  0  0  0  0  0  0  0
   27.3793    9.9169   29.4656 N   0  0  0  0  0  0  0  0  0  0  0  0
   26.5908   10.9567   29.6454 C   0  0  0  0  0  0  0  0  0  0  0  0
   25.6714   11.2474   28.8658 O   0  0  0  0  0  0  0  0  0  0  0  0
   28.0465    9.7176   30.1616 H   0  0  0  0  0  0  0  0  0  0  0  0
   27.3271    9.0718   28.3385 C   0  0  0  0  0  0  0  0  0  0  0  0
   31.0545    6.9907   27.8837 C   0  0  0  0  0  0  0  0  0  0  0  0
   30.9334    8.3030   27.3906 C   0  0  0  0  0  0  0  0  0  0  0  0
   29.7109    8.9943   27.5163 C   0  0  0  0  0  0  0  0  0  0  0  0
   28.6058    8.3593   28.1150 C   0  0  0  0  0  0  0  0  0  0  0  0
   28.7122    7.0071   28.5126 C   0  0  0  0  0  0  0  0  0  0  0  0
   29.9137    6.3014   28.3589 C   0  0  0  0  0  0  0  0  0  0  0  0
   32.2984    6.4353   27.8869 N   0  0  0  0  0  0  0  0  0  0  0  0
   33.0357    7.0876   27.9007 H   0  0  0  0  0  0  0  0  0  0  0  0
   33.4613    4.6484   26.8721 N   0  0  0  0  0  0  0  0  0  0  0  0
   32.6954    5.1419   27.8744 C   0  0  0  0  0  0  0  0  0  0  0  0
   32.3515    4.2994   28.8561 N   0  0  0  0  0  0  0  0  0  0  0  0
   33.7384    3.7037   26.8838 H   0  0  0  0  0  0  0  0  0  0  0  0
   33.7409    5.2342   26.1320 H   0  0  0  0  0  0  0  0  0  0  0  0
   32.6510    3.3620   28.8277 H   0  0  0  0  0  0  0  0  0  0  0  0
   27.9016   12.6760   30.6356 N   0  0  0  0  0  0  0  0  0  0  0  0
   29.0955   12.5765   31.1614 C   0  0  0  0  0  0  0  0  0  0  0  0
   29.3592   11.6461   31.9253 O   0  0  0  0  0  0  0  0  0  0  0  0
   27.7634   13.4484   30.0409 H   0  0  0  0  0  0  0  0  0  0  0  0
   30.1325   13.5583   30.8452 C   0  0  0  0  0  0  0  0  0  0  0  0
   30.0316   14.8402   31.7194 C   0  0  0  0  0  0  0  0  0  0  0  0
   29.8114   14.4823   33.0930 O   0  0  0  0  0  0  0  0  0  0  0  0
   28.9833   13.9828   33.1683 H   0  0  0  0  0  0  0  0  0  0  0  0
   31.5064   13.0423   31.0795 N   0  0  0  0  0  0  0  0  0  0  0  0
   31.4410   12.3072   31.7836 H   0  0  0  0  0  0  0  0  0  0  0  0
   33.8521   12.3284   30.0241 O   0  0  0  0  0  0  0  0  0  0  0  0
   32.3318   12.4029   29.7567 S   0  0  0  0  0  0  0  0  0  0  0  0
   31.6931   11.0014   29.5266 O   0  0  0  0  0  0  0  0  0  0  0  0
   32.0910   13.4043   28.3399 C   0  0  0  0  0  0  0  0  0  0  0  0
   31.8656   12.5992   27.1174 C   0  0  0  0  0  0  0  0  0  0  0  0
   30.5894   12.5792   26.4971 C   0  0  0  0  0  0  0  0  0  0  0  0
   30.3392   11.7795   25.3604 C   0  0  0  0  0  0  0  0  0  0  0  0
   31.3928   11.0206   24.8091 C   0  0  0  0  0  0  0  0  0  0  0  0
   32.6833   11.0803   25.3841 C   0  0  0  0  0  0  0  0  0  0  0  0
   32.9161   11.8400   26.5566 C   0  0  0  0  0  0  0  0  0  0  0  0
 16 17  1  0  0  0
 17 18  2  0  0  0
 17 14  1  0  0  0
 14  8  1  0  0  0
  8  9  2  0  0  0
  8 13  1  0  0  0
  9 10  1  0  0  0
 10 11  2  0  0  0
 11 12  1  0  0  0
 11  7  1  0  0  0
 12 13  2  0  0  0
  7  3  1  0  0  0
  3  4  1  0  0  0
  4  5  2  0  0  0
  4  1  1  0  0  0
  1  2  1  0  0  0
  1 22  1  0  0  0
 22 23  1  0  0  0
 23 26  1  0  0  0
 23 24  2  0  0  0
 26 27  1  0  0  0
 26 30  1  0  0  0
 27 28  1  0  0  0
 30 33  1  0  0  0
 32 33  2  0  0  0
 33 34  2  0  0  0
 33 35  1  0  0  0
 35 36  1  0  0  0
 36 37  2  0  0  0
 36 41  1  0  0  0
 37 38  1  0  0  0
 38 39  2  0  0  0
 39 40  1  0  0  0
 40 41  2  0  0  0
 16 19  1  0  0  0
 16 20  1  0  0  0
 18 21  1  0  0  0
 14 15  1  0  0  0
  3  6  1  0  0  0
 22 25  1  0  0  0
 28 29  1  0  0  0
 30 31  1  0  0  0
M  END
> <minimizedAffinity>
-7.05617

$$$$
1W13_SM1_U_1245


 41 42  0  0  0  0  0  0  0  0999 V2000
   30.8618   12.0146   31.3148 C   0  0  0  0  0  0  0  0  0  0  0  0
   30.0874   13.3328   31.5613 C   0  0  0  0  0  0  0  0  0  0  0  0
   29.5857   10.6223   29.8189 N   0  0  0  0  0  0  0  0  0  0  0  0
   29.9355   10.9112   31.0556 C   0  0  0  0  0  0  0  0  0  0  0  0
   29.5077   10.2891   32.0392 O   0  0  0  0  0  0  0  0  0  0  0  0
   30.0163   11.1226   29.0885 H   0  0  0  0  0  0  0  0  0  0  0  0
   28.6331    9.6412   29.4765 C   0  0  0  0  0  0  0  0  0  0  0  0
   30.5409    6.1333   27.8999 C   0  0  0  0  0  0  0  0  0  0  0  0
   30.7733    7.3784   27.2870 C   0  0  0  0  0  0  0  0  0  0  0  0
   30.1410    8.5376   27.7816 C   0  0  0  0  0  0  0  0  0  0  0  0
   29.2587    8.4414   28.8748 C   0  0  0  0  0  0  0  0  0  0  0  0
   28.9561    7.1706   29.4146 C   0  0  0  0  0  0  0  0  0  0  0  0
   29.5535    6.0090   28.9058 C   0  0  0  0  0  0  0  0  0  0  0  0
   31.3034    5.0814   27.4897 N   0  0  0  0  0  0  0  0  0  0  0  0
   30.9270    4.5760   26.7334 H   0  0  0  0  0  0  0  0  0  0  0  0
   33.5975    4.6269   27.1647 N   0  0  0  0  0  0  0  0  0  0  0  0
   32.4887    4.6117   27.9425 C   0  0  0  0  0  0  0  0  0  0  0  0
   32.6140    4.1181   29.1805 N   0  0  0  0  0  0  0  0  0  0  0  0
   34.4495    4.2798   27.5152 H   0  0  0  0  0  0  0  0  0  0  0  0
   33.5515    4.9852   26.2489 H   0  0  0  0  0  0  0  0  0  0  0  0
   33.4857    3.7812   29.4902 H   0  0  0  0  0  0  0  0  0  0  0  0
   31.7042   12.2596   30.2139 N   0  0  0  0  0  0  0  0  0  0  0  0
   33.0085   12.1853   30.1427 C   0  0  0  0  0  0  0  0  0  0  0  0
   33.6652   11.8702   31.1369 O   0  0  0  0  0  0  0  0  0  0  0  0
   31.2486   12.5234   29.3820 H   0  0  0  0  0  0  0  0  0  0  0  0
   33.7026   12.4650   28.8861 C   0  0  0  0  0  0  0  0  0  0  0  0
   35.2489   12.4917   29.0479 C   0  0  0  0  0  0  0  0  0  0  0  0
   35.6690   13.7724   29.5448 O   0  0  0  0  0  0  0  0  0  0  0  0
   35.4050   14.4646   28.9186 H   0  0  0  0  0  0  0  0  0  0  0  0
   33.4445   11.4381   27.8432 N   0  0  0  0  0  0  0  0  0  0  0  0
   33.1900   10.5738   28.3215 H   0  0  0  0  0  0  0  0  0  0  0  0
   30.8316   11.6706   27.3487 O   0  0  0  0  0  0  0  0  0  0  0  0
   32.2374   11.7647   26.7137 S   0  0  0  0  0  0  0  0  0  0  0  0
   32.5624   13.1923   26.1831 O   0  0  0  0  0  0  0  0  0  0  0  0
   32.3019   10.6131   25.3954 C   0  0  0  0  0  0  0  0  0  0  0  0
   32.1227   11.2621   24.0762 C   0  0  0  0  0  0  0  0  0  0  0  0
   33.2505   11.5957   23.2820 C   0  0  0  0  0  0  0  0  0  0  0  0
   33.1050   12.2599   22.0443 C   0  0  0  0  0  0  0  0  0  0  0  0
   31.8092   12.5571   21.5725 C   0  0  0  0  0  0  0  0  0  0  0  0
   30.6766   12.1753   22.3283 C   0  0  0  0  0  0  0  0  0  0  0  0
   30.8289   11.5593   23.5946 C   0  0  0  0  0  0  0  0  0  0  0  0
 16 17  1  0  0  0
 17 18  2  0  0  0
 17 14  1  0  0  0
 14  8  1  0  0  0
  8  9  2  0  0  0
  8 13  1  0  0  0
  9 10  1  0  0  0
 10 11  2  0  0  0
 11 12  1  0  0  0
 11  7  1  0  0  0
 12 13  2  0  0  0
  7  3  1  0  0  0
  3  4  1  0  0  0
  4  5  2  0  0  0
  4  1  1  0  0  0
  1  2  1  0  0  0
  1 22  1  0  0  0
 22 23  1  0  0  0
 23 26  1  0  0  0
 23 24  2  0  0  0
 26 27  1  0  0  0
 26 30  1  0  0  0
 27 28  1  0  0  0
 30 33  1  0  0  0
 32 33  2  0  0  0
 33 34  2  0  0  0
 33 35  1  0  0  0
 35 36  1  0  0  0
 36 37  2  0  0  0
 36 41  1  0  0  0
 37 38  1  0  0  0
 38 39  2  0  0  0
 39 40  1  0  0  0
 40 41  2  0  0  0
 16 19  1  0  0  0
 16 20  1  0  0  0
 18 21  1  0  0  0
 14 15  1  0  0  0
  3  6  1  0  0  0
 22 25  1  0  0  0
 28 29  1  0  0  0
 30 31  1  0  0  0
M  END
> <minimizedAffinity>
-7.01882

$$$$
1W13_SM1_U_1245


 41 42  0  0  0  0  0  0  0  0999 V2000
   32.3935   12.5807   28.0431 C   0  0  0  0  0  0  0  0  0  0  0  0
   33.9309   12.4425   27.9196 C   0  0  0  0  0  0  0  0  0  0  0  0
   30.6198   11.0303   27.5378 N   0  0  0  0  0  0  0  0  0  0  0  0
   31.7162   11.6451   27.1437 C   0  0  0  0  0  0  0  0  0  0  0  0
   32.2242   11.4662   26.0269 O   0  0  0  0  0  0  0  0  0  0  0  0
   30.2448   11.2723   28.4153 H   0  0  0  0  0  0  0  0  0  0  0  0
   29.9502   10.0475   26.7808 C   0  0  0  0  0  0  0  0  0  0  0  0
   30.3578    6.0608   28.3209 C   0  0  0  0  0  0  0  0  0  0  0  0
   29.1805    6.7846   28.5854 C   0  0  0  0  0  0  0  0  0  0  0  0
   29.0377    8.1014   28.1017 C   0  0  0  0  0  0  0  0  0  0  0  0
   30.0857    8.6974   27.3741 C   0  0  0  0  0  0  0  0  0  0  0  0
   31.3010    7.9961   27.2043 C   0  0  0  0  0  0  0  0  0  0  0  0
   31.4640    6.6998   27.7125 C   0  0  0  0  0  0  0  0  0  0  0  0
   30.3732    4.7428   28.6654 N   0  0  0  0  0  0  0  0  0  0  0  0
   29.6349    4.2138   28.2856 H   0  0  0  0  0  0  0  0  0  0  0  0
   32.5168    3.8396   29.0708 N   0  0  0  0  0  0  0  0  0  0  0  0
   31.2282    4.0355   29.4395 C   0  0  0  0  0  0  0  0  0  0  0  0
   30.8357    3.5058   30.6045 N   0  0  0  0  0  0  0  0  0  0  0  0
   33.1212    3.3215   29.6501 H   0  0  0  0  0  0  0  0  0  0  0  0
   32.8490    4.2153   28.2236 H   0  0  0  0  0  0  0  0  0  0  0  0
   31.4740    2.9945   31.1527 H   0  0  0  0  0  0  0  0  0  0  0  0
   32.0878   12.3225   29.3927 N   0  0  0  0  0  0  0  0  0  0  0  0
   31.6754   13.1519   30.3166 C   0  0  0  0  0  0  0  0  0  0  0  0
   31.5138   14.3442   30.0499 O   0  0  0  0  0  0  0  0  0  0  0  0
   32.2000   11.3880   29.6814 H   0  0  0  0  0  0  0  0  0  0  0  0
   31.3928   12.6772   31.6709 C   0  0  0  0  0  0  0  0  0  0  0  0
   32.0176   13.5854   32.7675 C   0  0  0  0  0  0  0  0  0  0  0  0
   33.3345   14.0000   32.3708 O   0  0  0  0  0  0  0  0  0  0  0  0
   33.8966   13.2189   32.2496 H   0  0  0  0  0  0  0  0  0  0  0  0
   29.9396   12.6476   31.9806 N   0  0  0  0  0  0  0  0  0  0  0  0
   29.5757   13.5885   31.8304 H   0  0  0  0  0  0  0  0  0  0  0  0
   29.8272   10.4817   30.4242 O   0  0  0  0  0  0  0  0  0  0  0  0
   28.9778   11.5864   31.0925 S   0  0  0  0  0  0  0  0  0  0  0  0
   27.9551   11.0184   32.1205 O   0  0  0  0  0  0  0  0  0  0  0  0
   28.1285   12.4434   29.8227 C   0  0  0  0  0  0  0  0  0  0  0  0
   26.8271   11.8156   29.4976 C   0  0  0  0  0  0  0  0  0  0  0  0
   26.7717   10.6746   28.6555 C   0  0  0  0  0  0  0  0  0  0  0  0
   25.5383   10.0906   28.2923 C   0  0  0  0  0  0  0  0  0  0  0  0
   24.3433   10.6295   28.8135 C   0  0  0  0  0  0  0  0  0  0  0  0
   24.3916   11.7292   29.7011 C   0  0  0  0  0  0  0  0  0  0  0  0
   25.6265   12.3462   30.0185 C   0  0  0  0  0  0  0  0  0  0  0  0
 16 17  1  0  0  0
 17 18  2  0  0  0
 17 14  1  0  0  0
 14  8  1  0  0  0
  8  9  2  0  0  0
  8 13  1  0  0  0
  9 10  1  0  0  0
 10 11  2  0  0  0
 11 12  1  0  0  0
 11  7  1  0  0  0
 12 13  2  0  0  0
  7  3  1  0  0  0
  3  4  1  0  0  0
  4  5  2  0  0  0
  4  1  1  0  0  0
  1  2  1  0  0  0
  1 22  1  0  0  0
 22 23  1  0  0  0
 23 26  1  0  0  0
 23 24  2  0  0  0
 26 27  1  0  0  0
 26 30  1  0  0  0
 27 28  1  0  0  0
 30 33  1  0  0  0
 32 33  2  0  0  0
 33 34  2  0  0  0
 33 35  1  0  0  0
 35 36  1  0  0  0
 36 37  2  0  0  0
 36 41  1  0  0  0
 37 38  1  0  0  0
 38 39  2  0  0  0
 39 40  1  0  0  0
 40 41  2  0  0  0
 16 19  1  0  0  0
 16 20  1  0  0  0
 18 21  1  0  0  0
 14 15  1  0  0  0
  3  6  1  0  0  0
 22 25  1  0  0  0
 28 29  1  0  0  0
 30 31  1  0  0  0
M  END
> <minimizedAffinity>
-7.01610

$$$$
1W13_SM1_U_1245


 41 42  0  0  0  0  0  0  0  0999 V2000
   31.9671   10.2121   26.2168 C   0  0  0  0  0  0  0  0  0  0  0  0
   30.9185   10.9000   25.3085 C   0  0  0  0  0  0  0  0  0  0  0  0
   33.1437   11.3919   27.9571 N   0  0  0  0  0  0  0  0  0  0  0  0
   32.9717   11.1760   26.6690 C   0  0  0  0  0  0  0  0  0  0  0  0
   33.6254   11.7637   25.7945 O   0  0  0  0  0  0  0  0  0  0  0  0
   32.6292   10.8409   28.5903 H   0  0  0  0  0  0  0  0  0  0  0  0
   34.0187   12.3630   28.4850 C   0  0  0  0  0  0  0  0  0  0  0  0
   32.7302   13.4948   32.4208 C   0  0  0  0  0  0  0  0  0  0  0  0
   33.2760   14.4711   31.5671 C   0  0  0  0  0  0  0  0  0  0  0  0
   33.7199   14.1128   30.2776 C   0  0  0  0  0  0  0  0  0  0  0  0
   33.6374   12.7717   29.8563 C   0  0  0  0  0  0  0  0  0  0  0  0
   33.1824   11.7854   30.7607 C   0  0  0  0  0  0  0  0  0  0  0  0
   32.7722   12.1280   32.0567 C   0  0  0  0  0  0  0  0  0  0  0  0
   32.1659   13.9247   33.5838 N   0  0  0  0  0  0  0  0  0  0  0  0
   32.3960   13.3829   34.3729 H   0  0  0  0  0  0  0  0  0  0  0  0
   30.1062   15.0429   33.2960 N   0  0  0  0  0  0  0  0  0  0  0  0
   31.3438   14.9680   33.8415 C   0  0  0  0  0  0  0  0  0  0  0  0
   31.7191   15.9656   34.6512 N   0  0  0  0  0  0  0  0  0  0  0  0
   29.5251   15.8115   33.4976 H   0  0  0  0  0  0  0  0  0  0  0  0
   29.7879   14.3286   32.6979 H   0  0  0  0  0  0  0  0  0  0  0  0
   31.1055   16.7155   34.8254 H   0  0  0  0  0  0  0  0  0  0  0  0
   31.2467    9.6635   27.2946 N   0  0  0  0  0  0  0  0  0  0  0  0
   30.7159    8.4731   27.4092 C   0  0  0  0  0  0  0  0  0  0  0  0
   30.8100    7.6625   26.4857 O   0  0  0  0  0  0  0  0  0  0  0  0
   31.1253   10.2581   28.0698 H   0  0  0  0  0  0  0  0  0  0  0  0
   30.0141    8.0855   28.6325 C   0  0  0  0  0  0  0  0  0  0  0  0
   30.2175    6.5864   28.9915 C   0  0  0  0  0  0  0  0  0  0  0  0
   31.5777    6.2003   28.7376 O   0  0  0  0  0  0  0  0  0  0  0  0
   31.7807    6.3305   27.7980 H   0  0  0  0  0  0  0  0  0  0  0  0
   30.4833    8.8326   29.8284 N   0  0  0  0  0  0  0  0  0  0  0  0
   31.3797    9.2577   29.5912 H   0  0  0  0  0  0  0  0  0  0  0  0
   29.7964   10.3658   31.9029 O   0  0  0  0  0  0  0  0  0  0  0  0
   29.4859   10.0547   30.4213 S   0  0  0  0  0  0  0  0  0  0  0  0
   29.7453   11.2717   29.4849 O   0  0  0  0  0  0  0  0  0  0  0  0
   27.8036    9.5772   30.3211 C   0  0  0  0  0  0  0  0  0  0  0  0
   26.9080   10.7313   30.0773 C   0  0  0  0  0  0  0  0  0  0  0  0
   26.2381   10.8691   28.8338 C   0  0  0  0  0  0  0  0  0  0  0  0
   25.4194   11.9872   28.5620 C   0  0  0  0  0  0  0  0  0  0  0  0
   25.2329   12.9618   29.5645 C   0  0  0  0  0  0  0  0  0  0  0  0
   25.8479   12.8033   30.8280 C   0  0  0  0  0  0  0  0  0  0  0  0
   26.7124   11.7093   31.0771 C   0  0  0  0  0  0  0  0  0  0  0  0
 16 17  1  0  0  0
 17 18  2  0  0  0
 17 14  1  0  0  0
 14  8  1  0  0  0
  8  9  2  0  0  0
  8 13  1  0  0  0
  9 10  1  0  0  0
 10 11  2  0  0  0
 11 12  1  0  0  0
 11  7  1  0  0  0
 12 13  2  0  0  0
  7  3  1  0  0  0
  3  4  1  0  0  0
  4  5  2  0  0  0
  4  1  1  0  0  0
  1  2  1  0  0  0
  1 22  1  0  0  0
 22 23  1  0  0  0
 23 26  1  0  0  0
 23 24  2  0  0  0
 26 27  1  0  0  0
 26 30  1  0  0  0
 27 28  1  0  0  0
 30 33  1  0  0  0
 32 33  2  0  0  0
 33 34  2  0  0  0
 33 35  1  0  0  0
 35 36  1  0  0  0
 36 37  2  0  0  0
 36 41  1  0  0  0
 37 38  1  0  0  0
 38 39  2  0  0  0
 39 40  1  0  0  0
 40 41  2  0  0  0
 16 19  1  0  0  0
 16 20  1  0  0  0
 18 21  1  0  0  0
 14 15  1  0  0  0
  3  6  1  0  0  0
 22 25  1  0  0  0
 28 29  1  0  0  0
 30 31  1  0  0  0
M  END
> <minimizedAffinity>
-6.88192

$$$$
1W13_SM1_U_1245


 41 42  0  0  0  0  0  0  0  0999 V2000
   33.0610   12.5234   31.3007 C   0  0  0  0  0  0  0  0  0  0  0  0
   33.3549   11.1965   32.0429 C   0  0  0  0  0  0  0  0  0  0  0  0
   31.5255   12.0274   29.5116 N   0  0  0  0  0  0  0  0  0  0  0  0
   32.7635   12.2720   29.8896 C   0  0  0  0  0  0  0  0  0  0  0  0
   33.7173   12.2951   29.0978 O   0  0  0  0  0  0  0  0  0  0  0  0
   30.8150   12.0876   30.1904 H   0  0  0  0  0  0  0  0  0  0  0  0
   31.1550   11.6849   28.1952 C   0  0  0  0  0  0  0  0  0  0  0  0
   31.0025    7.4153   27.7722 C   0  0  0  0  0  0  0  0  0  0  0  0
   31.2371    8.2123   26.6366 C   0  0  0  0  0  0  0  0  0  0  0  0
   31.2731    9.6169   26.7551 C   0  0  0  0  0  0  0  0  0  0  0  0
   31.0500   10.2197   28.0080 C   0  0  0  0  0  0  0  0  0  0  0  0
   30.7145    9.4121   29.1184 C   0  0  0  0  0  0  0  0  0  0  0  0
   30.6420    8.0171   29.0012 C   0  0  0  0  0  0  0  0  0  0  0  0
   31.1450    6.0678   27.6318 N   0  0  0  0  0  0  0  0  0  0  0  0
   31.8138    5.7965   26.9622 H   0  0  0  0  0  0  0  0  0  0  0  0
   31.1091    4.3840   29.2868 N   0  0  0  0  0  0  0  0  0  0  0  0
   30.5260    5.0380   28.2539 C   0  0  0  0  0  0  0  0  0  0  0  0
   29.3088    4.6281   27.8765 N   0  0  0  0  0  0  0  0  0  0  0  0
   30.6399    3.6374   29.7245 H   0  0  0  0  0  0  0  0  0  0  0  0
   32.0022    4.6554   29.5999 H   0  0  0  0  0  0  0  0  0  0  0  0
   28.8760    3.8766   28.3427 H   0  0  0  0  0  0  0  0  0  0  0  0
   31.9688   13.1082   31.9691 N   0  0  0  0  0  0  0  0  0  0  0  0
   31.7331   14.3720   32.2122 C   0  0  0  0  0  0  0  0  0  0  0  0
   32.5343   15.2326   31.8432 O   0  0  0  0  0  0  0  0  0  0  0  0
   31.2877   12.4787   32.2995 H   0  0  0  0  0  0  0  0  0  0  0  0
   30.5169   14.7808   32.9142 C   0  0  0  0  0  0  0  0  0  0  0  0
   30.6979   16.1073   33.7051 C   0  0  0  0  0  0  0  0  0  0  0  0
   31.8430   16.0130   34.5674 O   0  0  0  0  0  0  0  0  0  0  0  0
   31.7154   15.2854   35.1960 H   0  0  0  0  0  0  0  0  0  0  0  0
   29.3777   15.0359   31.9945 N   0  0  0  0  0  0  0  0  0  0  0  0
   29.7648   15.3848   31.1177 H   0  0  0  0  0  0  0  0  0  0  0  0
   29.1274   12.3902   31.7424 O   0  0  0  0  0  0  0  0  0  0  0  0
   28.3745   13.7343   31.6214 S   0  0  0  0  0  0  0  0  0  0  0  0
   27.1845   13.8481   32.6195 O   0  0  0  0  0  0  0  0  0  0  0  0
   27.7843   13.8654   29.9774 C   0  0  0  0  0  0  0  0  0  0  0  0
   27.0259   12.6644   29.5577 C   0  0  0  0  0  0  0  0  0  0  0  0
   27.6748   11.6158   28.8552 C   0  0  0  0  0  0  0  0  0  0  0  0
   26.9605   10.4852   28.4020 C   0  0  0  0  0  0  0  0  0  0  0  0
   25.5841   10.3804   28.6928 C   0  0  0  0  0  0  0  0  0  0  0  0
   24.9411   11.3913   29.4440 C   0  0  0  0  0  0  0  0  0  0  0  0
   25.6488   12.5496   29.8485 C   0  0  0  0  0  0  0  0  0  0  0  0
 16 17  1  0  0  0
 17 18  2  0  0  0
 17 14  1  0  0  0
 14  8  1  0  0  0
  8  9  2  0  0  0
  8 13  1  0  0  0
  9 10  1  0  0  0
 10 11  2  0  0  0
 11 12  1  0  0  0
 11  7  1  0  0  0
 12 13  2  0  0  0
  7  3  1  0  0  0
  3  4  1  0  0  0
  4  5  2  0  0  0
  4  1  1  0  0  0
  1  2  1  0  0  0
  1 22  1  0  0  0
 22 23  1  0  0  0
 23 26  1  0  0  0
 23 24  2  0  0  0
 26 27  1  0  0  0
 26 30  1  0  0  0
 27 28  1  0  0  0
 30 33  1  0  0  0
 32 33  2  0  0  0
 33 34  2  0  0  0
 33 35  1  0  0  0
 35 36  1  0  0  0
 36 37  2  0  0  0
 36 41  1  0  0  0
 37 38  1  0  0  0
 38 39  2  0  0  0
 39 40  1  0  0  0
 40 41  2  0  0  0
 16 19  1  0  0  0
 16 20  1  0  0  0
 18 21  1  0  0  0
 14 15  1  0  0  0
  3  6  1  0  0  0
 22 25  1  0  0  0
 28 29  1  0  0  0
 30 31  1  0  0  0
M  END
> <minimizedAffinity>
-6.74066

$$$$
