5X62_SAH_A_501


 33 35  0  0  0  0  0  0  0  0999 V2000
   15.3839   40.3859  201.2486 C   0  0  0  0  0  0  0  0  0  0  0  0
   15.1036   41.7499  201.6202 O   0  0  0  0  0  0  0  0  0  0  0  0
   15.3267   39.6050  202.5462 C   0  0  0  0  0  0  0  0  0  0  0  0
   16.6801   39.4248  202.9625 O   0  0  0  0  0  0  0  0  0  0  0  0
   14.5745   40.5066  203.5122 C   0  0  0  0  0  0  0  0  0  0  0  0
   14.9441   40.2675  204.8715 O   0  0  0  0  0  0  0  0  0  0  0  0
   15.0538   41.8647  203.0461 C   0  0  0  0  0  0  0  0  0  0  0  0
   17.1166   40.2888  203.0260 H   0  0  0  0  0  0  0  0  0  0  0  0
   15.9036   40.3713  204.9688 H   0  0  0  0  0  0  0  0  0  0  0  0
   14.1533   42.9785  203.4161 N   0  0  0  0  0  0  0  0  0  0  0  0
   12.8229   43.0234  203.2131 C   0  0  0  0  0  0  0  0  0  0  0  0
   12.3097   44.2021  203.6402 N   0  0  0  0  0  0  0  0  0  0  0  0
   13.3346   44.9317  204.1265 C   0  0  0  0  0  0  0  0  0  0  0  0
   13.4838   46.2792  204.7253 C   0  0  0  0  0  0  0  0  0  0  0  0
   12.3879   47.0502  204.8944 N   0  0  0  0  0  0  0  0  0  0  0  0
   14.7180   46.6890  205.0983 N   0  0  0  0  0  0  0  0  0  0  0  0
   15.7943   45.8928  204.9281 C   0  0  0  0  0  0  0  0  0  0  0  0
   15.7304   44.6515  204.3899 N   0  0  0  0  0  0  0  0  0  0  0  0
   14.5494   44.1307  203.9706 C   0  0  0  0  0  0  0  0  0  0  0  0
   11.5050   46.7195  204.6110 H   0  0  0  0  0  0  0  0  0  0  0  0
   12.4720   47.9428  205.3010 H   0  0  0  0  0  0  0  0  0  0  0  0
   14.3545   39.8475  200.2466 C   0  0  0  0  0  0  0  0  0  0  0  0
   15.0621   38.6723  199.1239 S   0  0  0  0  0  0  0  0  0  0  0  0
   16.4300   39.4495  198.3014 C   0  0  0  0  0  0  0  0  0  0  0  0
   17.7522   38.8578  198.7809 C   0  0  0  0  0  0  0  0  0  0  0  0
   18.8468   40.6079  197.3518 N   0  0  0  0  0  0  0  0  0  0  0  0
   18.9295   39.2114  197.8676 C   0  0  0  0  0  0  0  0  0  0  0  0
   18.7876   41.2571  198.1363 H   0  0  0  0  0  0  0  0  0  0  0  0
   18.0173   40.7056  196.7663 H   0  0  0  0  0  0  0  0  0  0  0  0
   19.0178   38.2355  196.7241 C   0  0  0  0  0  0  0  0  0  0  0  0
   19.7417   37.2254  196.8714 O   0  0  0  0  0  0  0  0  0  0  0  0
   18.3659   38.4604  195.6777 O   0  0  0  0  0  0  0  0  0  0  0  0
   17.8365   39.2308  195.6120 H   0  0  0  0  0  0  0  0  0  0  0  0
 26 27  1  0  0  0
 27 25  1  0  0  0
 27 30  1  0  0  0
 25 24  1  0  0  0
 24 23  1  0  0  0
 23 22  1  0  0  0
 30 31  2  0  0  0
 30 32  1  0  0  0
 22  1  1  0  0  0
  1  2  1  0  0  0
  1  3  1  0  0  0
  2  7  1  0  0  0
  3  4  1  0  0  0
  3  5  1  0  0  0
  5  6  1  0  0  0
  5  7  1  0  0  0
  7 10  1  0  0  0
 10 11  1  0  0  0
 10 19  1  0  0  0
 11 12  2  0  0  0
 12 13  1  0  0  0
 13 14  1  0  0  0
 13 19  2  0  0  0
 14 15  1  0  0  0
 14 16  2  0  0  0
 16 17  1  0  0  0
 17 18  2  0  0  0
 18 19  1  0  0  0
 26 28  1  0  0  0
 26 29  1  0  0  0
 32 33  1  0  0  0
  4  8  1  0  0  0
  6  9  1  0  0  0
 15 20  1  0  0  0
 15 21  1  0  0  0
M  END
> <minimizedAffinity>
-10.30662

$$$$
5X62_SAH_A_501


 33 35  0  0  0  0  0  0  0  0999 V2000
   15.2848   40.3686  201.2011 C   0  0  0  0  0  0  0  0  0  0  0  0
   15.0273   41.7367  201.5741 O   0  0  0  0  0  0  0  0  0  0  0  0
   15.2637   39.5950  202.5042 C   0  0  0  0  0  0  0  0  0  0  0  0
   16.6284   39.4064  202.8775 O   0  0  0  0  0  0  0  0  0  0  0  0
   14.5501   40.5076  203.4890 C   0  0  0  0  0  0  0  0  0  0  0  0
   14.9616   40.2728  204.8370 O   0  0  0  0  0  0  0  0  0  0  0  0
   15.0246   41.8594  203.0002 C   0  0  0  0  0  0  0  0  0  0  0  0
   17.0734   40.2671  202.9221 H   0  0  0  0  0  0  0  0  0  0  0  0
   15.9246   40.3695  204.9026 H   0  0  0  0  0  0  0  0  0  0  0  0
   14.1451   42.9822  203.3930 N   0  0  0  0  0  0  0  0  0  0  0  0
   12.8130   43.0485  203.2074 C   0  0  0  0  0  0  0  0  0  0  0  0
   12.3226   44.2300  203.6530 N   0  0  0  0  0  0  0  0  0  0  0  0
   13.3641   44.9396  204.1337 C   0  0  0  0  0  0  0  0  0  0  0  0
   13.5405   46.2785  204.7443 C   0  0  0  0  0  0  0  0  0  0  0  0
   12.4581   47.0634  204.9351 N   0  0  0  0  0  0  0  0  0  0  0  0
   14.7851   46.6664  205.1057 N   0  0  0  0  0  0  0  0  0  0  0  0
   15.8474   45.8566  204.9137 C   0  0  0  0  0  0  0  0  0  0  0  0
   15.7586   44.6220  204.3637 N   0  0  0  0  0  0  0  0  0  0  0  0
   14.5650   44.1227  203.9542 C   0  0  0  0  0  0  0  0  0  0  0  0
   11.5670   46.7486  204.6597 H   0  0  0  0  0  0  0  0  0  0  0  0
   12.5603   47.9505  205.3498 H   0  0  0  0  0  0  0  0  0  0  0  0
   14.2194   39.8331  200.2359 C   0  0  0  0  0  0  0  0  0  0  0  0
   14.6811   38.2771  199.5232 S   0  0  0  0  0  0  0  0  0  0  0  0
   13.1959   37.4027  199.0977 C   0  0  0  0  0  0  0  0  0  0  0  0
   12.6726   37.8611  197.7396 C   0  0  0  0  0  0  0  0  0  0  0  0
   10.7584   36.6016  196.7133 N   0  0  0  0  0  0  0  0  0  0  0  0
   11.1526   37.7258  197.6101 C   0  0  0  0  0  0  0  0  0  0  0  0
   11.1730   35.7339  197.0535 H   0  0  0  0  0  0  0  0  0  0  0  0
   11.0904   36.7889  195.7672 H   0  0  0  0  0  0  0  0  0  0  0  0
   10.5504   39.0179  197.1251 C   0  0  0  0  0  0  0  0  0  0  0  0
    9.6795   39.5623  197.8401 O   0  0  0  0  0  0  0  0  0  0  0  0
   10.9414   39.5038  196.0381 O   0  0  0  0  0  0  0  0  0  0  0  0
   11.5964   39.0607  195.5355 H   0  0  0  0  0  0  0  0  0  0  0  0
 26 27  1  0  0  0
 27 25  1  0  0  0
 27 30  1  0  0  0
 25 24  1  0  0  0
 24 23  1  0  0  0
 23 22  1  0  0  0
 30 31  2  0  0  0
 30 32  1  0  0  0
 22  1  1  0  0  0
  1  2  1  0  0  0
  1  3  1  0  0  0
  2  7  1  0  0  0
  3  4  1  0  0  0
  3  5  1  0  0  0
  5  6  1  0  0  0
  5  7  1  0  0  0
  7 10  1  0  0  0
 10 11  1  0  0  0
 10 19  1  0  0  0
 11 12  2  0  0  0
 12 13  1  0  0  0
 13 14  1  0  0  0
 13 19  2  0  0  0
 14 15  1  0  0  0
 14 16  2  0  0  0
 16 17  1  0  0  0
 17 18  2  0  0  0
 18 19  1  0  0  0
 26 28  1  0  0  0
 26 29  1  0  0  0
 32 33  1  0  0  0
  4  8  1  0  0  0
  6  9  1  0  0  0
 15 20  1  0  0  0
 15 21  1  0  0  0
M  END
> <minimizedAffinity>
-9.30233

$$$$
5X62_SAH_A_501


 33 35  0  0  0  0  0  0  0  0999 V2000
   15.0371   40.2870  201.2613 C   0  0  0  0  0  0  0  0  0  0  0  0
   14.8167   41.6718  201.5940 O   0  0  0  0  0  0  0  0  0  0  0  0
   15.0832   39.5651  202.5931 C   0  0  0  0  0  0  0  0  0  0  0  0
   16.4651   39.3730  202.8943 O   0  0  0  0  0  0  0  0  0  0  0  0
   14.4381   40.5246  203.5804 C   0  0  0  0  0  0  0  0  0  0  0  0
   14.9245   40.3370  204.9107 O   0  0  0  0  0  0  0  0  0  0  0  0
   14.8981   41.8500  203.0119 C   0  0  0  0  0  0  0  0  0  0  0  0
   16.9213   40.2289  202.8791 H   0  0  0  0  0  0  0  0  0  0  0  0
   15.8907   40.4235  204.9169 H   0  0  0  0  0  0  0  0  0  0  0  0
   14.0554   42.9988  203.4098 N   0  0  0  0  0  0  0  0  0  0  0  0
   12.7234   43.1016  203.2403 C   0  0  0  0  0  0  0  0  0  0  0  0
   12.2718   44.2983  203.6860 N   0  0  0  0  0  0  0  0  0  0  0  0
   13.3385   44.9807  204.1504 C   0  0  0  0  0  0  0  0  0  0  0  0
   13.5599   46.3169  204.7521 C   0  0  0  0  0  0  0  0  0  0  0  0
   12.5023   47.1327  204.9524 N   0  0  0  0  0  0  0  0  0  0  0  0
   14.8192   46.6715  205.0964 N   0  0  0  0  0  0  0  0  0  0  0  0
   15.8560   45.8313  204.8954 C   0  0  0  0  0  0  0  0  0  0  0  0
   15.7260   44.5972  204.3527 N   0  0  0  0  0  0  0  0  0  0  0  0
   14.5138   44.1297  203.9602 C   0  0  0  0  0  0  0  0  0  0  0  0
   11.5994   46.8417  204.6894 H   0  0  0  0  0  0  0  0  0  0  0  0
   12.6344   48.0185  205.3614 H   0  0  0  0  0  0  0  0  0  0  0  0
   13.9116   39.7285  200.3811 C   0  0  0  0  0  0  0  0  0  0  0  0
   14.4924   38.4872  199.2568 S   0  0  0  0  0  0  0  0  0  0  0  0
   13.6550   36.9675  199.6320 C   0  0  0  0  0  0  0  0  0  0  0  0
   14.2764   36.2989  200.8547 C   0  0  0  0  0  0  0  0  0  0  0  0
   12.9149   36.7293  202.9198 N   0  0  0  0  0  0  0  0  0  0  0  0
   13.2308   35.7575  201.8339 C   0  0  0  0  0  0  0  0  0  0  0  0
   12.6061   37.6102  202.5085 H   0  0  0  0  0  0  0  0  0  0  0  0
   13.7490   36.8915  203.4841 H   0  0  0  0  0  0  0  0  0  0  0  0
   13.6893   34.4485  202.4201 C   0  0  0  0  0  0  0  0  0  0  0  0
   12.9899   33.9339  203.3213 O   0  0  0  0  0  0  0  0  0  0  0  0
   14.7398   33.9199  201.9868 O   0  0  0  0  0  0  0  0  0  0  0  0
   15.2320   34.3419  201.3103 H   0  0  0  0  0  0  0  0  0  0  0  0
 26 27  1  0  0  0
 27 25  1  0  0  0
 27 30  1  0  0  0
 25 24  1  0  0  0
 24 23  1  0  0  0
 23 22  1  0  0  0
 30 31  2  0  0  0
 30 32  1  0  0  0
 22  1  1  0  0  0
  1  2  1  0  0  0
  1  3  1  0  0  0
  2  7  1  0  0  0
  3  4  1  0  0  0
  3  5  1  0  0  0
  5  6  1  0  0  0
  5  7  1  0  0  0
  7 10  1  0  0  0
 10 11  1  0  0  0
 10 19  1  0  0  0
 11 12  2  0  0  0
 12 13  1  0  0  0
 13 14  1  0  0  0
 13 19  2  0  0  0
 14 15  1  0  0  0
 14 16  2  0  0  0
 16 17  1  0  0  0
 17 18  2  0  0  0
 18 19  1  0  0  0
 26 28  1  0  0  0
 26 29  1  0  0  0
 32 33  1  0  0  0
  4  8  1  0  0  0
  6  9  1  0  0  0
 15 20  1  0  0  0
 15 21  1  0  0  0
M  END
> <minimizedAffinity>
-7.92381

$$$$
5X62_SAH_A_501


 33 35  0  0  0  0  0  0  0  0999 V2000
   14.7765   39.7454  201.6265 C   0  0  0  0  0  0  0  0  0  0  0  0
   13.9082   39.7383  200.4762 O   0  0  0  0  0  0  0  0  0  0  0  0
   14.3055   38.5864  202.4819 C   0  0  0  0  0  0  0  0  0  0  0  0
   13.4873   39.1532  203.5049 O   0  0  0  0  0  0  0  0  0  0  0  0
   13.4825   37.7176  201.5441 C   0  0  0  0  0  0  0  0  0  0  0  0
   12.4805   36.9730  202.2393 O   0  0  0  0  0  0  0  0  0  0  0  0
   12.8612   38.7805  200.6635 C   0  0  0  0  0  0  0  0  0  0  0  0
   12.7772   39.6747  203.0991 H   0  0  0  0  0  0  0  0  0  0  0  0
   11.9157   37.5812  202.7412 H   0  0  0  0  0  0  0  0  0  0  0  0
   12.4134   38.2812  199.3450 N   0  0  0  0  0  0  0  0  0  0  0  0
   13.1895   37.6952  198.4136 C   0  0  0  0  0  0  0  0  0  0  0  0
   12.4684   37.3890  197.3085 N   0  0  0  0  0  0  0  0  0  0  0  0
   11.2005   37.7897  197.5346 C   0  0  0  0  0  0  0  0  0  0  0  0
    9.9324   37.7718  196.7677 C   0  0  0  0  0  0  0  0  0  0  0  0
    9.9168   37.2253  195.5327 N   0  0  0  0  0  0  0  0  0  0  0  0
    8.8227   38.2933  197.3392 N   0  0  0  0  0  0  0  0  0  0  0  0
    8.8646   38.8227  198.5799 C   0  0  0  0  0  0  0  0  0  0  0  0
    9.9870   38.8705  199.3365 N   0  0  0  0  0  0  0  0  0  0  0  0
   11.1658   38.3853  198.8709 C   0  0  0  0  0  0  0  0  0  0  0  0
   10.7439   36.8549  195.1479 H   0  0  0  0  0  0  0  0  0  0  0  0
    9.0785   37.1973  195.0174 H   0  0  0  0  0  0  0  0  0  0  0  0
   16.2469   39.5629  201.2291 C   0  0  0  0  0  0  0  0  0  0  0  0
   16.4331   39.1611  199.5126 S   0  0  0  0  0  0  0  0  0  0  0  0
   18.1188   38.6763  199.2390 C   0  0  0  0  0  0  0  0  0  0  0  0
   18.7530   39.5304  198.1451 C   0  0  0  0  0  0  0  0  0  0  0  0
   21.1094   39.7378  197.3037 N   0  0  0  0  0  0  0  0  0  0  0  0
   19.9312   38.8366  197.4552 C   0  0  0  0  0  0  0  0  0  0  0  0
   21.3835   40.0958  198.2186 H   0  0  0  0  0  0  0  0  0  0  0  0
   20.8650   40.5173  196.6929 H   0  0  0  0  0  0  0  0  0  0  0  0
   19.5096   38.2964  196.1143 C   0  0  0  0  0  0  0  0  0  0  0  0
   20.3893   37.7825  195.3876 O   0  0  0  0  0  0  0  0  0  0  0  0
   18.3050   38.3716  195.7769 O   0  0  0  0  0  0  0  0  0  0  0  0
   17.6805   38.7653  196.3541 H   0  0  0  0  0  0  0  0  0  0  0  0
 26 27  1  0  0  0
 27 25  1  0  0  0
 27 30  1  0  0  0
 25 24  1  0  0  0
 24 23  1  0  0  0
 23 22  1  0  0  0
 30 31  2  0  0  0
 30 32  1  0  0  0
 22  1  1  0  0  0
  1  2  1  0  0  0
  1  3  1  0  0  0
  2  7  1  0  0  0
  3  4  1  0  0  0
  3  5  1  0  0  0
  5  6  1  0  0  0
  5  7  1  0  0  0
  7 10  1  0  0  0
 10 11  1  0  0  0
 10 19  1  0  0  0
 11 12  2  0  0  0
 12 13  1  0  0  0
 13 14  1  0  0  0
 13 19  2  0  0  0
 14 15  1  0  0  0
 14 16  2  0  0  0
 16 17  1  0  0  0
 17 18  2  0  0  0
 18 19  1  0  0  0
 26 28  1  0  0  0
 26 29  1  0  0  0
 32 33  1  0  0  0
  4  8  1  0  0  0
  6  9  1  0  0  0
 15 20  1  0  0  0
 15 21  1  0  0  0
M  END
> <minimizedAffinity>
-7.73944

$$$$
5X62_SAH_A_501


 33 35  0  0  0  0  0  0  0  0999 V2000
   12.7163   39.6507  202.5216 C   0  0  0  0  0  0  0  0  0  0  0  0
   12.2780   41.0237  202.5202 O   0  0  0  0  0  0  0  0  0  0  0  0
   14.1693   39.7021  202.9493 C   0  0  0  0  0  0  0  0  0  0  0  0
   14.9404   39.6045  201.7521 O   0  0  0  0  0  0  0  0  0  0  0  0
   14.3381   41.0672  203.5969 C   0  0  0  0  0  0  0  0  0  0  0  0
   15.6790   41.5502  203.4949 O   0  0  0  0  0  0  0  0  0  0  0  0
   13.3944   41.8904  202.7465 C   0  0  0  0  0  0  0  0  0  0  0  0
   14.6721   40.3046  201.1367 H   0  0  0  0  0  0  0  0  0  0  0  0
   15.9461   41.5681  202.5626 H   0  0  0  0  0  0  0  0  0  0  0  0
   12.9253   43.1318  203.4002 N   0  0  0  0  0  0  0  0  0  0  0  0
   11.6427   43.4706  203.6311 C   0  0  0  0  0  0  0  0  0  0  0  0
   11.5641   44.6894  204.2169 N   0  0  0  0  0  0  0  0  0  0  0  0
   12.8252   45.1449  204.3634 C   0  0  0  0  0  0  0  0  0  0  0  0
   13.4498   46.3753  204.9041 C   0  0  0  0  0  0  0  0  0  0  0  0
   12.6614   47.3407  205.4242 N   0  0  0  0  0  0  0  0  0  0  0  0
   14.7978   46.4851  204.8718 N   0  0  0  0  0  0  0  0  0  0  0  0
   15.5621   45.4994  204.3566 C   0  0  0  0  0  0  0  0  0  0  0  0
   15.0588   44.3494  203.8478 N   0  0  0  0  0  0  0  0  0  0  0  0
   13.7208   44.1243  203.8176 C   0  0  0  0  0  0  0  0  0  0  0  0
   11.6835   47.2270  205.4311 H   0  0  0  0  0  0  0  0  0  0  0  0
   13.0645   48.1580  205.7966 H   0  0  0  0  0  0  0  0  0  0  0  0
   11.8954   38.7937  203.4937 C   0  0  0  0  0  0  0  0  0  0  0  0
   12.5989   37.1834  203.7269 S   0  0  0  0  0  0  0  0  0  0  0  0
   13.1212   37.0490  205.4182 C   0  0  0  0  0  0  0  0  0  0  0  0
   13.0152   35.6053  205.9005 C   0  0  0  0  0  0  0  0  0  0  0  0
   13.7620   33.2974  205.2529 N   0  0  0  0  0  0  0  0  0  0  0  0
   14.1655   34.7248  205.4037 C   0  0  0  0  0  0  0  0  0  0  0  0
   12.9597   33.2353  204.6260 H   0  0  0  0  0  0  0  0  0  0  0  0
   13.5107   32.9168  206.1652 H   0  0  0  0  0  0  0  0  0  0  0  0
   15.3499   34.8392  206.3266 C   0  0  0  0  0  0  0  0  0  0  0  0
   15.1983   35.4676  207.3981 O   0  0  0  0  0  0  0  0  0  0  0  0
   16.4336   34.3018  205.9988 O   0  0  0  0  0  0  0  0  0  0  0  0
   16.5009   33.8409  205.1857 H   0  0  0  0  0  0  0  0  0  0  0  0
 26 27  1  0  0  0
 27 25  1  0  0  0
 27 30  1  0  0  0
 25 24  1  0  0  0
 24 23  1  0  0  0
 23 22  1  0  0  0
 30 31  2  0  0  0
 30 32  1  0  0  0
 22  1  1  0  0  0
  1  2  1  0  0  0
  1  3  1  0  0  0
  2  7  1  0  0  0
  3  4  1  0  0  0
  3  5  1  0  0  0
  5  6  1  0  0  0
  5  7  1  0  0  0
  7 10  1  0  0  0
 10 11  1  0  0  0
 10 19  1  0  0  0
 11 12  2  0  0  0
 12 13  1  0  0  0
 13 14  1  0  0  0
 13 19  2  0  0  0
 14 15  1  0  0  0
 14 16  2  0  0  0
 16 17  1  0  0  0
 17 18  2  0  0  0
 18 19  1  0  0  0
 26 28  1  0  0  0
 26 29  1  0  0  0
 32 33  1  0  0  0
  4  8  1  0  0  0
  6  9  1  0  0  0
 15 20  1  0  0  0
 15 21  1  0  0  0
M  END
> <minimizedAffinity>
-7.62063

$$$$
5X62_SAH_A_501


 33 35  0  0  0  0  0  0  0  0999 V2000
   13.0807   37.1545  203.3313 C   0  0  0  0  0  0  0  0  0  0  0  0
   12.3626   37.6062  202.1662 O   0  0  0  0  0  0  0  0  0  0  0  0
   13.6000   35.7788  202.9645 C   0  0  0  0  0  0  0  0  0  0  0  0
   12.7014   34.8425  203.5590 O   0  0  0  0  0  0  0  0  0  0  0  0
   13.5207   35.7228  201.4472 C   0  0  0  0  0  0  0  0  0  0  0  0
   13.3585   34.3876  200.9648 O   0  0  0  0  0  0  0  0  0  0  0  0
   12.2724   36.5454  201.2094 C   0  0  0  0  0  0  0  0  0  0  0  0
   11.7970   35.0289  203.2620 H   0  0  0  0  0  0  0  0  0  0  0  0
   12.5735   33.9897  201.3726 H   0  0  0  0  0  0  0  0  0  0  0  0
   12.1822   37.1198  199.8491 N   0  0  0  0  0  0  0  0  0  0  0  0
   13.1231   37.0369  198.8893 C   0  0  0  0  0  0  0  0  0  0  0  0
   12.7343   37.7012  197.7747 N   0  0  0  0  0  0  0  0  0  0  0  0
   11.5168   38.2248  198.0253 C   0  0  0  0  0  0  0  0  0  0  0  0
   10.5450   39.0518  197.2715 C   0  0  0  0  0  0  0  0  0  0  0  0
   10.8328   39.4146  196.0028 N   0  0  0  0  0  0  0  0  0  0  0  0
    9.3885   39.4057  197.8777 N   0  0  0  0  0  0  0  0  0  0  0  0
    9.1218   39.0191  199.1429 C   0  0  0  0  0  0  0  0  0  0  0  0
    9.9626   38.2628  199.8883 N   0  0  0  0  0  0  0  0  0  0  0  0
   11.1572   37.8504  199.3935 C   0  0  0  0  0  0  0  0  0  0  0  0
   11.6846   39.1390  195.5933 H   0  0  0  0  0  0  0  0  0  0  0  0
   10.1909   39.9546  195.4876 H   0  0  0  0  0  0  0  0  0  0  0  0
   14.2403   38.0951  203.6835 C   0  0  0  0  0  0  0  0  0  0  0  0
   13.7878   39.8026  203.5355 S   0  0  0  0  0  0  0  0  0  0  0  0
   14.7357   40.5121  202.2127 C   0  0  0  0  0  0  0  0  0  0  0  0
   14.6365   39.6498  200.9577 C   0  0  0  0  0  0  0  0  0  0  0  0
   17.1296   39.8708  201.1553 N   0  0  0  0  0  0  0  0  0  0  0  0
   16.0052   39.2390  200.4071 C   0  0  0  0  0  0  0  0  0  0  0  0
   17.0517   39.6391  202.1456 H   0  0  0  0  0  0  0  0  0  0  0  0
   17.0891   40.8833  201.0388 H   0  0  0  0  0  0  0  0  0  0  0  0
   16.1013   39.5690  198.9410 C   0  0  0  0  0  0  0  0  0  0  0  0
   16.1594   38.6179  198.1297 O   0  0  0  0  0  0  0  0  0  0  0  0
   16.1127   40.7705  198.5850 O   0  0  0  0  0  0  0  0  0  0  0  0
   16.0673   41.4502  199.2283 H   0  0  0  0  0  0  0  0  0  0  0  0
 26 27  1  0  0  0
 27 25  1  0  0  0
 27 30  1  0  0  0
 25 24  1  0  0  0
 24 23  1  0  0  0
 23 22  1  0  0  0
 30 31  2  0  0  0
 30 32  1  0  0  0
 22  1  1  0  0  0
  1  2  1  0  0  0
  1  3  1  0  0  0
  2  7  1  0  0  0
  3  4  1  0  0  0
  3  5  1  0  0  0
  5  6  1  0  0  0
  5  7  1  0  0  0
  7 10  1  0  0  0
 10 11  1  0  0  0
 10 19  1  0  0  0
 11 12  2  0  0  0
 12 13  1  0  0  0
 13 14  1  0  0  0
 13 19  2  0  0  0
 14 15  1  0  0  0
 14 16  2  0  0  0
 16 17  1  0  0  0
 17 18  2  0  0  0
 18 19  1  0  0  0
 26 28  1  0  0  0
 26 29  1  0  0  0
 32 33  1  0  0  0
  4  8  1  0  0  0
  6  9  1  0  0  0
 15 20  1  0  0  0
 15 21  1  0  0  0
M  END
> <minimizedAffinity>
-7.55416

$$$$
5X62_SAH_A_501


 33 35  0  0  0  0  0  0  0  0999 V2000
   14.1656   39.7912  202.4263 C   0  0  0  0  0  0  0  0  0  0  0  0
   12.8065   40.0042  201.9967 O   0  0  0  0  0  0  0  0  0  0  0  0
   14.3148   38.2864  202.5276 C   0  0  0  0  0  0  0  0  0  0  0  0
   14.1732   37.9645  203.9110 O   0  0  0  0  0  0  0  0  0  0  0  0
   13.1592   37.7234  201.7157 C   0  0  0  0  0  0  0  0  0  0  0  0
   12.7559   36.4321  202.1756 O   0  0  0  0  0  0  0  0  0  0  0  0
   12.0953   38.7620  202.0002 C   0  0  0  0  0  0  0  0  0  0  0  0
   13.3296   38.3131  204.2394 H   0  0  0  0  0  0  0  0  0  0  0  0
   12.5325   36.4799  203.1184 H   0  0  0  0  0  0  0  0  0  0  0  0
   11.0188   38.8117  200.9868 N   0  0  0  0  0  0  0  0  0  0  0  0
    9.7188   39.0715  201.2230 C   0  0  0  0  0  0  0  0  0  0  0  0
    8.9983   39.0056  200.0777 N   0  0  0  0  0  0  0  0  0  0  0  0
    9.8550   38.6939  199.0837 C   0  0  0  0  0  0  0  0  0  0  0  0
    9.7429   38.4610  197.6243 C   0  0  0  0  0  0  0  0  0  0  0  0
    8.5373   38.5836  197.0282 N   0  0  0  0  0  0  0  0  0  0  0  0
   10.8612   38.1459  196.9312 N   0  0  0  0  0  0  0  0  0  0  0  0
   12.0553   38.0415  197.5510 C   0  0  0  0  0  0  0  0  0  0  0  0
   12.2303   38.2421  198.8791 N   0  0  0  0  0  0  0  0  0  0  0  0
   11.1831   38.5570  199.6829 C   0  0  0  0  0  0  0  0  0  0  0  0
    7.7443   38.8143  197.5641 H   0  0  0  0  0  0  0  0  0  0  0  0
    8.4514   38.4423  196.0576 H   0  0  0  0  0  0  0  0  0  0  0  0
   15.1745   40.3694  201.4256 C   0  0  0  0  0  0  0  0  0  0  0  0
   16.6048   39.3382  201.2434 S   0  0  0  0  0  0  0  0  0  0  0  0
   16.6852   38.7998  199.5536 C   0  0  0  0  0  0  0  0  0  0  0  0
   18.1277   38.8045  199.0560 C   0  0  0  0  0  0  0  0  0  0  0  0
   18.6575   37.4613  197.0021 N   0  0  0  0  0  0  0  0  0  0  0  0
   18.2311   38.7897  197.5281 C   0  0  0  0  0  0  0  0  0  0  0  0
   18.0119   36.7427  197.3297 H   0  0  0  0  0  0  0  0  0  0  0  0
   19.5984   37.2500  197.3345 H   0  0  0  0  0  0  0  0  0  0  0  0
   19.1721   39.8662  197.0557 C   0  0  0  0  0  0  0  0  0  0  0  0
   20.1583   39.5206  196.3672 O   0  0  0  0  0  0  0  0  0  0  0  0
   18.9359   41.0594  197.3576 O   0  0  0  0  0  0  0  0  0  0  0  0
   18.1846   41.2716  197.8758 H   0  0  0  0  0  0  0  0  0  0  0  0
 26 27  1  0  0  0
 27 25  1  0  0  0
 27 30  1  0  0  0
 25 24  1  0  0  0
 24 23  1  0  0  0
 23 22  1  0  0  0
 30 31  2  0  0  0
 30 32  1  0  0  0
 22  1  1  0  0  0
  1  2  1  0  0  0
  1  3  1  0  0  0
  2  7  1  0  0  0
  3  4  1  0  0  0
  3  5  1  0  0  0
  5  6  1  0  0  0
  5  7  1  0  0  0
  7 10  1  0  0  0
 10 11  1  0  0  0
 10 19  1  0  0  0
 11 12  2  0  0  0
 12 13  1  0  0  0
 13 14  1  0  0  0
 13 19  2  0  0  0
 14 15  1  0  0  0
 14 16  2  0  0  0
 16 17  1  0  0  0
 17 18  2  0  0  0
 18 19  1  0  0  0
 26 28  1  0  0  0
 26 29  1  0  0  0
 32 33  1  0  0  0
  4  8  1  0  0  0
  6  9  1  0  0  0
 15 20  1  0  0  0
 15 21  1  0  0  0
M  END
> <minimizedAffinity>
-7.52507

$$$$
5X62_SAH_A_501


 33 35  0  0  0  0  0  0  0  0999 V2000
    9.7493   36.5148  198.2463 C   0  0  0  0  0  0  0  0  0  0  0  0
   10.8736   36.9096  199.0569 O   0  0  0  0  0  0  0  0  0  0  0  0
    9.6097   37.6094  197.2075 C   0  0  0  0  0  0  0  0  0  0  0  0
    8.5612   38.4624  197.6662 O   0  0  0  0  0  0  0  0  0  0  0  0
   10.9466   38.3333  197.2204 C   0  0  0  0  0  0  0  0  0  0  0  0
   10.8240   39.6990  196.8184 O   0  0  0  0  0  0  0  0  0  0  0  0
   11.3005   38.2251  198.6882 C   0  0  0  0  0  0  0  0  0  0  0  0
    8.7665   38.7743  198.5614 H   0  0  0  0  0  0  0  0  0  0  0  0
   10.1768   40.1462  197.3859 H   0  0  0  0  0  0  0  0  0  0  0  0
   12.7459   38.3672  198.9692 N   0  0  0  0  0  0  0  0  0  0  0  0
   13.7524   37.9538  198.1758 C   0  0  0  0  0  0  0  0  0  0  0  0
   14.9533   38.2088  198.7484 N   0  0  0  0  0  0  0  0  0  0  0  0
   14.7123   38.7973  199.9379 C   0  0  0  0  0  0  0  0  0  0  0  0
   15.5439   39.3138  201.0507 C   0  0  0  0  0  0  0  0  0  0  0  0
   16.8893   39.2518  200.9517 N   0  0  0  0  0  0  0  0  0  0  0  0
   14.9241   39.8468  202.1287 N   0  0  0  0  0  0  0  0  0  0  0  0
   13.5776   39.9065  202.1959 C   0  0  0  0  0  0  0  0  0  0  0  0
   12.7579   39.4555  201.2165 N   0  0  0  0  0  0  0  0  0  0  0  0
   13.2597   38.8932  200.0878 C   0  0  0  0  0  0  0  0  0  0  0  0
   17.3064   38.8569  200.1521 H   0  0  0  0  0  0  0  0  0  0  0  0
   17.4531   39.6015  201.6791 H   0  0  0  0  0  0  0  0  0  0  0  0
    9.9837   35.1561  197.5735 C   0  0  0  0  0  0  0  0  0  0  0  0
   11.6460   34.5792  197.7879 S   0  0  0  0  0  0  0  0  0  0  0  0
   11.6962   33.5709  199.2482 C   0  0  0  0  0  0  0  0  0  0  0  0
   13.0628   33.6657  199.9202 C   0  0  0  0  0  0  0  0  0  0  0  0
   14.8733   35.3084  200.4922 N   0  0  0  0  0  0  0  0  0  0  0  0
   13.4031   35.0859  200.3812 C   0  0  0  0  0  0  0  0  0  0  0  0
   15.3172   35.1004  199.5977 H   0  0  0  0  0  0  0  0  0  0  0  0
   15.2565   34.6960  201.2124 H   0  0  0  0  0  0  0  0  0  0  0  0
   12.7277   35.3876  201.6928 C   0  0  0  0  0  0  0  0  0  0  0  0
   12.9587   34.6264  202.6588 O   0  0  0  0  0  0  0  0  0  0  0  0
   11.9709   36.3832  201.7751 O   0  0  0  0  0  0  0  0  0  0  0  0
   11.8271   36.9257  201.0248 H   0  0  0  0  0  0  0  0  0  0  0  0
 26 27  1  0  0  0
 27 25  1  0  0  0
 27 30  1  0  0  0
 25 24  1  0  0  0
 24 23  1  0  0  0
 23 22  1  0  0  0
 30 31  2  0  0  0
 30 32  1  0  0  0
 22  1  1  0  0  0
  1  2  1  0  0  0
  1  3  1  0  0  0
  2  7  1  0  0  0
  3  4  1  0  0  0
  3  5  1  0  0  0
  5  6  1  0  0  0
  5  7  1  0  0  0
  7 10  1  0  0  0
 10 11  1  0  0  0
 10 19  1  0  0  0
 11 12  2  0  0  0
 12 13  1  0  0  0
 13 14  1  0  0  0
 13 19  2  0  0  0
 14 15  1  0  0  0
 14 16  2  0  0  0
 16 17  1  0  0  0
 17 18  2  0  0  0
 18 19  1  0  0  0
 26 28  1  0  0  0
 26 29  1  0  0  0
 32 33  1  0  0  0
  4  8  1  0  0  0
  6  9  1  0  0  0
 15 20  1  0  0  0
 15 21  1  0  0  0
M  END
> <minimizedAffinity>
-7.46343

$$$$
5X62_SAH_A_501


 33 35  0  0  0  0  0  0  0  0999 V2000
   13.9126   39.6412  202.7253 C   0  0  0  0  0  0  0  0  0  0  0  0
   12.5624   39.8117  202.2508 O   0  0  0  0  0  0  0  0  0  0  0  0
   14.1845   38.1546  202.6122 C   0  0  0  0  0  0  0  0  0  0  0  0
   14.0047   37.6162  203.9218 O   0  0  0  0  0  0  0  0  0  0  0  0
   13.1214   37.6342  201.6579 C   0  0  0  0  0  0  0  0  0  0  0  0
   12.8080   36.2608  201.8971 O   0  0  0  0  0  0  0  0  0  0  0  0
   11.9604   38.5323  202.0281 C   0  0  0  0  0  0  0  0  0  0  0  0
   13.1197   37.8447  204.2467 H   0  0  0  0  0  0  0  0  0  0  0  0
   12.5364   36.1474  202.8214 H   0  0  0  0  0  0  0  0  0  0  0  0
   10.9334   38.6524  200.9702 N   0  0  0  0  0  0  0  0  0  0  0  0
    9.6326   38.9462  201.1574 C   0  0  0  0  0  0  0  0  0  0  0  0
    8.9636   38.9437  199.9796 N   0  0  0  0  0  0  0  0  0  0  0  0
    9.8547   38.6389  199.0141 C   0  0  0  0  0  0  0  0  0  0  0  0
    9.8023   38.4608  197.5437 C   0  0  0  0  0  0  0  0  0  0  0  0
    8.6295   38.6434  196.8992 N   0  0  0  0  0  0  0  0  0  0  0  0
   10.9407   38.1336  196.8901 N   0  0  0  0  0  0  0  0  0  0  0  0
   12.1015   37.9686  197.5584 C   0  0  0  0  0  0  0  0  0  0  0  0
   12.2216   38.1172  198.8993 N   0  0  0  0  0  0  0  0  0  0  0  0
   11.1491   38.4379  199.6666 C   0  0  0  0  0  0  0  0  0  0  0  0
    7.8204   38.8810  197.4073 H   0  0  0  0  0  0  0  0  0  0  0  0
    8.5837   38.5388  195.9213 H   0  0  0  0  0  0  0  0  0  0  0  0
   14.9153   40.4409  201.8835 C   0  0  0  0  0  0  0  0  0  0  0  0
   14.5025   42.1630  201.8051 S   0  0  0  0  0  0  0  0  0  0  0  0
   14.0295   42.6918  203.4324 C   0  0  0  0  0  0  0  0  0  0  0  0
   14.5610   44.0933  203.7180 C   0  0  0  0  0  0  0  0  0  0  0  0
   12.2549   45.0861  203.7037 N   0  0  0  0  0  0  0  0  0  0  0  0
   13.5448   44.9796  204.4441 C   0  0  0  0  0  0  0  0  0  0  0  0
   11.8756   44.1525  203.5456 H   0  0  0  0  0  0  0  0  0  0  0  0
   12.4147   45.5446  202.8067 H   0  0  0  0  0  0  0  0  0  0  0  0
   14.1227   46.3485  204.6883 C   0  0  0  0  0  0  0  0  0  0  0  0
   13.3449   47.2533  205.0656 O   0  0  0  0  0  0  0  0  0  0  0  0
   15.3501   46.5330  204.5146 O   0  0  0  0  0  0  0  0  0  0  0  0
   15.8947   45.8253  204.2310 H   0  0  0  0  0  0  0  0  0  0  0  0
 26 27  1  0  0  0
 27 25  1  0  0  0
 27 30  1  0  0  0
 25 24  1  0  0  0
 24 23  1  0  0  0
 23 22  1  0  0  0
 30 31  2  0  0  0
 30 32  1  0  0  0
 22  1  1  0  0  0
  1  2  1  0  0  0
  1  3  1  0  0  0
  2  7  1  0  0  0
  3  4  1  0  0  0
  3  5  1  0  0  0
  5  6  1  0  0  0
  5  7  1  0  0  0
  7 10  1  0  0  0
 10 11  1  0  0  0
 10 19  1  0  0  0
 11 12  2  0  0  0
 12 13  1  0  0  0
 13 14  1  0  0  0
 13 19  2  0  0  0
 14 15  1  0  0  0
 14 16  2  0  0  0
 16 17  1  0  0  0
 17 18  2  0  0  0
 18 19  1  0  0  0
 26 28  1  0  0  0
 26 29  1  0  0  0
 32 33  1  0  0  0
  4  8  1  0  0  0
  6  9  1  0  0  0
 15 20  1  0  0  0
 15 21  1  0  0  0
M  END
> <minimizedAffinity>
-7.45026

$$$$
5X62_SAH_A_501


 33 35  0  0  0  0  0  0  0  0999 V2000
   14.4922   40.8090  200.5983 C   0  0  0  0  0  0  0  0  0  0  0  0
   13.8073   39.6032  200.9908 O   0  0  0  0  0  0  0  0  0  0  0  0
   15.0911   41.3557  201.8787 C   0  0  0  0  0  0  0  0  0  0  0  0
   14.2112   42.3892  202.3202 O   0  0  0  0  0  0  0  0  0  0  0  0
   15.0832   40.1826  202.8459 C   0  0  0  0  0  0  0  0  0  0  0  0
   15.0054   40.6075  204.2079 O   0  0  0  0  0  0  0  0  0  0  0  0
   13.8100   39.4850  202.4172 C   0  0  0  0  0  0  0  0  0  0  0  0
   13.3134   42.0330  202.4102 H   0  0  0  0  0  0  0  0  0  0  0  0
   14.2221   41.1670  204.3278 H   0  0  0  0  0  0  0  0  0  0  0  0
   13.7548   38.0544  202.7898 N   0  0  0  0  0  0  0  0  0  0  0  0
   13.7278   37.0132  201.9363 C   0  0  0  0  0  0  0  0  0  0  0  0
   13.6437   35.8406  202.6092 N   0  0  0  0  0  0  0  0  0  0  0  0
   13.6137   36.1357  203.9250 C   0  0  0  0  0  0  0  0  0  0  0  0
   13.5197   35.3568  205.1824 C   0  0  0  0  0  0  0  0  0  0  0  0
   13.4659   34.0087  205.1199 N   0  0  0  0  0  0  0  0  0  0  0  0
   13.5057   36.0251  206.3585 N   0  0  0  0  0  0  0  0  0  0  0  0
   13.5725   37.3725  206.3918 C   0  0  0  0  0  0  0  0  0  0  0  0
   13.6613   38.1458  205.2833 N   0  0  0  0  0  0  0  0  0  0  0  0
   13.6773   37.5929  204.0440 C   0  0  0  0  0  0  0  0  0  0  0  0
   13.4781   33.5556  204.2460 H   0  0  0  0  0  0  0  0  0  0  0  0
   13.4144   33.4792  205.9483 H   0  0  0  0  0  0  0  0  0  0  0  0
   15.5897   40.5275  199.5639 C   0  0  0  0  0  0  0  0  0  0  0  0
   15.9712   38.8006  199.4436 S   0  0  0  0  0  0  0  0  0  0  0  0
   17.7378   38.6254  199.4297 C   0  0  0  0  0  0  0  0  0  0  0  0
   18.3424   39.3698  198.2429 C   0  0  0  0  0  0  0  0  0  0  0  0
   20.7907   39.3861  197.6868 N   0  0  0  0  0  0  0  0  0  0  0  0
   19.5144   38.6197  197.6032 C   0  0  0  0  0  0  0  0  0  0  0  0
   20.9904   39.6087  198.6620 H   0  0  0  0  0  0  0  0  0  0  0  0
   20.7041   40.2502  197.1517 H   0  0  0  0  0  0  0  0  0  0  0  0
   19.2005   38.2806  196.1700 C   0  0  0  0  0  0  0  0  0  0  0  0
   18.0081   38.3573  195.7982 O   0  0  0  0  0  0  0  0  0  0  0  0
   20.1333   37.9435  195.4039 O   0  0  0  0  0  0  0  0  0  0  0  0
   21.0119   37.8997  195.7265 H   0  0  0  0  0  0  0  0  0  0  0  0
 26 27  1  0  0  0
 27 25  1  0  0  0
 27 30  1  0  0  0
 25 24  1  0  0  0
 24 23  1  0  0  0
 23 22  1  0  0  0
 30 31  2  0  0  0
 30 32  1  0  0  0
 22  1  1  0  0  0
  1  2  1  0  0  0
  1  3  1  0  0  0
  2  7  1  0  0  0
  3  4  1  0  0  0
  3  5  1  0  0  0
  5  6  1  0  0  0
  5  7  1  0  0  0
  7 10  1  0  0  0
 10 11  1  0  0  0
 10 19  1  0  0  0
 11 12  2  0  0  0
 12 13  1  0  0  0
 13 14  1  0  0  0
 13 19  2  0  0  0
 14 15  1  0  0  0
 14 16  2  0  0  0
 16 17  1  0  0  0
 17 18  2  0  0  0
 18 19  1  0  0  0
 26 28  1  0  0  0
 26 29  1  0  0  0
 32 33  1  0  0  0
  4  8  1  0  0  0
  6  9  1  0  0  0
 15 20  1  0  0  0
 15 21  1  0  0  0
M  END
> <minimizedAffinity>
-7.40112

$$$$
