5I9Z_627_A_1001


 37 41  0  0  0  0  0  0  0  0999 V2000
 -102.1350  -16.0104   47.3200 N   0  0  0  0  0  0  0  0  0  0  0  0
 -102.6058  -15.2231   43.8092 N   0  0  0  0  0  0  0  0  0  0  0  0
 -100.5184  -15.4769   44.0759 C   0  0  0  0  0  0  0  0  0  0  0  0
 -101.5123  -15.1673   43.2280 N   0  0  0  0  0  0  0  0  0  0  0  0
 -102.4206  -15.5797   45.0913 C   0  0  0  0  0  0  0  0  0  0  0  0
 -101.0997  -15.7351   45.2709 C   0  0  0  0  0  0  0  0  0  0  0  0
 -100.8626  -16.1034   46.6279 C   0  0  0  0  0  0  0  0  0  0  0  0
 -103.1434  -15.8383   46.2734 C   0  0  0  0  0  0  0  0  0  0  0  0
 -102.4266  -16.1165   48.6304 C   0  0  0  0  0  0  0  0  0  0  0  0
 -103.5767  -16.0540   49.0799 O   0  0  0  0  0  0  0  0  0  0  0  0
 -103.4783  -15.0345   43.3940 H   0  0  0  0  0  0  0  0  0  0  0  0
  -99.2330  -15.4494   43.5986 N   0  0  0  0  0  0  0  0  0  0  0  0
  -98.1948  -14.9590   44.3329 C   0  0  0  0  0  0  0  0  0  0  0  0
  -98.3091  -14.5170   45.4720 O   0  0  0  0  0  0  0  0  0  0  0  0
  -99.0541  -15.7959   42.6946 H   0  0  0  0  0  0  0  0  0  0  0  0
  -96.9101  -14.9296   43.7556 C   0  0  0  0  0  0  0  0  0  0  0  0
  -96.6364  -14.4743   42.4686 C   0  0  0  0  0  0  0  0  0  0  0  0
  -95.3302  -14.4700   41.9629 C   0  0  0  0  0  0  0  0  0  0  0  0
  -94.5411  -15.3996   44.0265 C   0  0  0  0  0  0  0  0  0  0  0  0
  -95.8452  -15.3961   44.5244 C   0  0  0  0  0  0  0  0  0  0  0  0
  -94.2709  -14.9288   42.7441 C   0  0  0  0  0  0  0  0  0  0  0  0
  -93.0174  -14.9354   42.2556 N   0  0  0  0  0  0  0  0  0  0  0  0
  -92.6118  -13.5839   41.8187 C   0  0  0  0  0  0  0  0  0  0  0  0
  -91.2105  -13.5805   41.2163 C   0  0  0  0  0  0  0  0  0  0  0  0
  -91.1523  -14.5068   40.0761 N   0  0  0  0  0  0  0  0  0  0  0  0
  -91.4772  -15.8633   40.5525 C   0  0  0  0  0  0  0  0  0  0  0  0
  -92.8909  -15.8766   41.1285 C   0  0  0  0  0  0  0  0  0  0  0  0
  -89.8234  -14.4748   39.4486 C   0  0  0  0  0  0  0  0  0  0  0  0
 -101.2250  -16.3127   49.5792 C   0  0  0  0  0  0  0  0  0  0  0  0
 -100.5310  -15.0939   49.7306 C   0  0  0  0  0  0  0  0  0  0  0  0
  -99.1557  -15.0230   49.5043 C   0  0  0  0  0  0  0  0  0  0  0  0
 -101.2093  -13.9296   50.1000 C   0  0  0  0  0  0  0  0  0  0  0  0
  -98.4669  -13.8187   49.6378 C   0  0  0  0  0  0  0  0  0  0  0  0
 -100.5159  -12.7205   50.2419 C   0  0  0  0  0  0  0  0  0  0  0  0
  -99.1416  -12.6630   50.0135 C   0  0  0  0  0  0  0  0  0  0  0  0
 -100.7836  -17.4658   51.6362 C   0  0  0  0  0  0  0  0  0  0  0  0
 -101.7552  -16.7642   50.8380 O   0  0  0  0  0  0  0  0  0  0  0  0
  1  7  1  0  0  0
  1  8  1  0  0  0
  1  9  1  0  0  0
  2  4  1  0  0  0
  2  5  1  0  0  0
  3  4  2  0  0  0
  3 12  1  0  0  0
  3  6  1  0  0  0
 12 13  1  0  0  0
 13 16  1  0  0  0
 13 14  2  0  0  0
 16 17  1  0  0  0
 16 20  2  0  0  0
 17 18  2  0  0  0
 18 21  1  0  0  0
 19 20  1  0  0  0
 19 21  2  0  0  0
  5  6  2  0  0  0
  5  8  1  0  0  0
  6  7  1  0  0  0
 22 23  1  0  0  0
 22 27  1  0  0  0
 22 21  1  0  0  0
 23 24  1  0  0  0
 24 25  1  0  0  0
 25 26  1  0  0  0
 25 28  1  0  0  0
 26 27  1  0  0  0
  9 10  2  0  0  0
  9 29  1  0  0  0
 30 31  1  0  0  0
 30 32  2  0  0  0
 30 29  1  0  0  0
 31 33  2  0  0  0
 32 34  1  0  0  0
 33 35  1  0  0  0
 34 35  2  0  0  0
 29 37  1  0  0  0
 36 37  1  0  0  0
  2 11  1  0  0  0
 12 15  1  0  0  0
M  END
> <minimizedAffinity>
-9.06259

$$$$
5I9Z_627_A_1001


 37 41  0  0  0  0  0  0  0  0999 V2000
 -102.0413  -16.1225   47.3743 N   0  0  0  0  0  0  0  0  0  0  0  0
 -102.5741  -15.2976   43.8811 N   0  0  0  0  0  0  0  0  0  0  0  0
 -100.5012  -15.0313   44.2343 C   0  0  0  0  0  0  0  0  0  0  0  0
 -101.5110  -14.9382   43.3545 N   0  0  0  0  0  0  0  0  0  0  0  0
 -102.3491  -15.6623   45.1545 C   0  0  0  0  0  0  0  0  0  0  0  0
 -101.0391  -15.4893   45.3891 C   0  0  0  0  0  0  0  0  0  0  0  0
 -100.7636  -15.8561   46.7392 C   0  0  0  0  0  0  0  0  0  0  0  0
 -103.0234  -16.1556   46.2897 C   0  0  0  0  0  0  0  0  0  0  0  0
 -102.3418  -16.3665   48.6641 C   0  0  0  0  0  0  0  0  0  0  0  0
 -103.4850  -16.6190   49.0615 O   0  0  0  0  0  0  0  0  0  0  0  0
 -103.4509  -15.3134   43.4337 H   0  0  0  0  0  0  0  0  0  0  0  0
  -99.2490  -14.6564   43.8192 N   0  0  0  0  0  0  0  0  0  0  0  0
  -98.1150  -15.1836   44.3611 C   0  0  0  0  0  0  0  0  0  0  0  0
  -98.1089  -16.0356   45.2443 O   0  0  0  0  0  0  0  0  0  0  0  0
  -99.1664  -13.9834   43.1054 H   0  0  0  0  0  0  0  0  0  0  0  0
  -96.8658  -14.7168   43.9069 C   0  0  0  0  0  0  0  0  0  0  0  0
  -96.5694  -14.4306   42.5769 C   0  0  0  0  0  0  0  0  0  0  0  0
  -95.3038  -13.9638   42.1998 C   0  0  0  0  0  0  0  0  0  0  0  0
  -94.5935  -14.0782   44.4863 C   0  0  0  0  0  0  0  0  0  0  0  0
  -95.8590  -14.5385   44.8541 C   0  0  0  0  0  0  0  0  0  0  0  0
  -94.3072  -13.7789   43.1568 C   0  0  0  0  0  0  0  0  0  0  0  0
  -93.0878  -13.3410   42.7943 N   0  0  0  0  0  0  0  0  0  0  0  0
  -92.0393  -14.3012   43.1946 C   0  0  0  0  0  0  0  0  0  0  0  0
  -90.6447  -13.7988   42.8353 C   0  0  0  0  0  0  0  0  0  0  0  0
  -90.3978  -12.5004   43.4793 N   0  0  0  0  0  0  0  0  0  0  0  0
  -91.4043  -11.5362   42.9997 C   0  0  0  0  0  0  0  0  0  0  0  0
  -92.7996  -12.0216   43.3845 C   0  0  0  0  0  0  0  0  0  0  0  0
  -89.0368  -12.0271   43.1887 C   0  0  0  0  0  0  0  0  0  0  0  0
 -101.1635  -16.3030   49.6591 C   0  0  0  0  0  0  0  0  0  0  0  0
 -100.9794  -14.9751   50.0984 C   0  0  0  0  0  0  0  0  0  0  0  0
 -101.8958  -14.3766   50.9642 C   0  0  0  0  0  0  0  0  0  0  0  0
  -99.8691  -14.2355   49.6835 C   0  0  0  0  0  0  0  0  0  0  0  0
 -101.7118  -13.0701   51.4135 C   0  0  0  0  0  0  0  0  0  0  0  0
  -99.6879  -12.9195   50.1287 C   0  0  0  0  0  0  0  0  0  0  0  0
 -100.6111  -12.3326   50.9933 C   0  0  0  0  0  0  0  0  0  0  0  0
 -100.3372  -17.7084   51.4192 C   0  0  0  0  0  0  0  0  0  0  0  0
 -101.4973  -17.1686   50.7587 O   0  0  0  0  0  0  0  0  0  0  0  0
  1  7  1  0  0  0
  1  8  1  0  0  0
  1  9  1  0  0  0
  2  4  1  0  0  0
  2  5  1  0  0  0
  3  4  2  0  0  0
  3 12  1  0  0  0
  3  6  1  0  0  0
 12 13  1  0  0  0
 13 16  1  0  0  0
 13 14  2  0  0  0
 16 17  1  0  0  0
 16 20  2  0  0  0
 17 18  2  0  0  0
 18 21  1  0  0  0
 19 20  1  0  0  0
 19 21  2  0  0  0
  5  6  2  0  0  0
  5  8  1  0  0  0
  6  7  1  0  0  0
 22 23  1  0  0  0
 22 27  1  0  0  0
 22 21  1  0  0  0
 23 24  1  0  0  0
 24 25  1  0  0  0
 25 26  1  0  0  0
 25 28  1  0  0  0
 26 27  1  0  0  0
  9 10  2  0  0  0
  9 29  1  0  0  0
 30 31  1  0  0  0
 30 32  2  0  0  0
 30 29  1  0  0  0
 31 33  2  0  0  0
 32 34  1  0  0  0
 33 35  1  0  0  0
 34 35  2  0  0  0
 29 37  1  0  0  0
 36 37  1  0  0  0
  2 11  1  0  0  0
 12 15  1  0  0  0
M  END
> <minimizedAffinity>
-8.83134

$$$$
5I9Z_627_A_1001


 37 41  0  0  0  0  0  0  0  0999 V2000
 -102.8834  -16.0334   49.7747 N   0  0  0  0  0  0  0  0  0  0  0  0
 -104.0676  -16.1957   46.3486 N   0  0  0  0  0  0  0  0  0  0  0  0
 -101.9521  -16.1327   46.2328 C   0  0  0  0  0  0  0  0  0  0  0  0
 -103.1129  -16.1588   45.5587 N   0  0  0  0  0  0  0  0  0  0  0  0
 -103.6111  -16.2014   47.6122 C   0  0  0  0  0  0  0  0  0  0  0  0
 -102.2714  -16.1538   47.5482 C   0  0  0  0  0  0  0  0  0  0  0  0
 -101.7499  -16.1462   48.8753 C   0  0  0  0  0  0  0  0  0  0  0  0
 -104.0702  -16.2424   48.9442 C   0  0  0  0  0  0  0  0  0  0  0  0
 -102.9259  -15.8461   51.1076 C   0  0  0  0  0  0  0  0  0  0  0  0
 -103.9772  -15.8082   51.7573 O   0  0  0  0  0  0  0  0  0  0  0  0
 -105.0170  -16.2176   46.0891 H   0  0  0  0  0  0  0  0  0  0  0  0
 -100.7886  -16.0753   45.5092 N   0  0  0  0  0  0  0  0  0  0  0  0
  -99.6818  -15.4215   45.9623 C   0  0  0  0  0  0  0  0  0  0  0  0
  -99.6204  -14.8458   47.0443 O   0  0  0  0  0  0  0  0  0  0  0  0
 -100.7514  -16.5216   44.6325 H   0  0  0  0  0  0  0  0  0  0  0  0
  -98.5380  -15.3750   45.1412 C   0  0  0  0  0  0  0  0  0  0  0  0
  -98.5601  -15.1004   43.7764 C   0  0  0  0  0  0  0  0  0  0  0  0
  -97.3792  -15.0659   43.0239 C   0  0  0  0  0  0  0  0  0  0  0  0
  -96.1227  -15.6021   44.9935 C   0  0  0  0  0  0  0  0  0  0  0  0
  -97.3039  -15.6298   45.7370 C   0  0  0  0  0  0  0  0  0  0  0  0
  -96.1492  -15.3117   43.6319 C   0  0  0  0  0  0  0  0  0  0  0  0
  -95.0153  -15.2897   42.9080 N   0  0  0  0  0  0  0  0  0  0  0  0
  -93.8468  -15.6353   43.7427 C   0  0  0  0  0  0  0  0  0  0  0  0
  -92.5453  -15.5678   42.9503 C   0  0  0  0  0  0  0  0  0  0  0  0
  -92.3697  -14.2209   42.3876 N   0  0  0  0  0  0  0  0  0  0  0  0
  -93.5040  -13.9317   41.4918 C   0  0  0  0  0  0  0  0  0  0  0  0
  -94.8056  -13.9688   42.2887 C   0  0  0  0  0  0  0  0  0  0  0  0
  -91.0926  -14.1219   41.6666 C   0  0  0  0  0  0  0  0  0  0  0  0
 -101.5642  -15.6620   51.8107 C   0  0  0  0  0  0  0  0  0  0  0  0
 -100.8901  -14.5498   51.2640 C   0  0  0  0  0  0  0  0  0  0  0  0
  -99.5510  -14.6439   50.8827 C   0  0  0  0  0  0  0  0  0  0  0  0
 -101.5536  -13.3336   51.0833 C   0  0  0  0  0  0  0  0  0  0  0  0
  -98.8837  -13.5530   50.3283 C   0  0  0  0  0  0  0  0  0  0  0  0
 -100.8809  -12.2345   50.5334 C   0  0  0  0  0  0  0  0  0  0  0  0
  -99.5426  -12.3412   50.1568 C   0  0  0  0  0  0  0  0  0  0  0  0
 -100.9594  -16.2154   54.0654 C   0  0  0  0  0  0  0  0  0  0  0  0
 -101.8387  -15.4628   53.2087 O   0  0  0  0  0  0  0  0  0  0  0  0
  1  7  1  0  0  0
  1  8  1  0  0  0
  1  9  1  0  0  0
  2  4  1  0  0  0
  2  5  1  0  0  0
  3  4  2  0  0  0
  3 12  1  0  0  0
  3  6  1  0  0  0
 12 13  1  0  0  0
 13 16  1  0  0  0
 13 14  2  0  0  0
 16 17  1  0  0  0
 16 20  2  0  0  0
 17 18  2  0  0  0
 18 21  1  0  0  0
 19 20  1  0  0  0
 19 21  2  0  0  0
  5  6  2  0  0  0
  5  8  1  0  0  0
  6  7  1  0  0  0
 22 23  1  0  0  0
 22 27  1  0  0  0
 22 21  1  0  0  0
 23 24  1  0  0  0
 24 25  1  0  0  0
 25 26  1  0  0  0
 25 28  1  0  0  0
 26 27  1  0  0  0
  9 10  2  0  0  0
  9 29  1  0  0  0
 30 31  1  0  0  0
 30 32  2  0  0  0
 30 29  1  0  0  0
 31 33  2  0  0  0
 32 34  1  0  0  0
 33 35  1  0  0  0
 34 35  2  0  0  0
 29 37  1  0  0  0
 36 37  1  0  0  0
  2 11  1  0  0  0
 12 15  1  0  0  0
M  END
> <minimizedAffinity>
-8.76784

$$$$
5I9Z_627_A_1001


 37 41  0  0  0  0  0  0  0  0999 V2000
  -92.5850  -15.9083   42.5260 N   0  0  0  0  0  0  0  0  0  0  0  0
  -95.2946  -13.9326   41.1398 N   0  0  0  0  0  0  0  0  0  0  0  0
  -96.1190  -14.9790   42.7885 C   0  0  0  0  0  0  0  0  0  0  0  0
  -96.3445  -14.1390   41.7657 N   0  0  0  0  0  0  0  0  0  0  0  0
  -94.2872  -14.6193   41.7045 C   0  0  0  0  0  0  0  0  0  0  0  0
  -94.8025  -15.2914   42.7457 C   0  0  0  0  0  0  0  0  0  0  0  0
  -93.7616  -16.0440   43.3648 C   0  0  0  0  0  0  0  0  0  0  0  0
  -92.9046  -14.8535   41.5631 C   0  0  0  0  0  0  0  0  0  0  0  0
  -91.3908  -16.5276   42.5891 C   0  0  0  0  0  0  0  0  0  0  0  0
  -90.4538  -16.2810   41.8211 O   0  0  0  0  0  0  0  0  0  0  0  0
  -95.2115  -13.3530   40.3484 H   0  0  0  0  0  0  0  0  0  0  0  0
  -97.1823  -15.3286   43.5809 N   0  0  0  0  0  0  0  0  0  0  0  0
  -97.2350  -15.0167   44.9067 C   0  0  0  0  0  0  0  0  0  0  0  0
  -96.3593  -14.3947   45.5001 O   0  0  0  0  0  0  0  0  0  0  0  0
  -97.9332  -15.8219   43.1784 H   0  0  0  0  0  0  0  0  0  0  0  0
  -98.3446  -15.4463   45.6609 C   0  0  0  0  0  0  0  0  0  0  0  0
  -98.2714  -15.9184   46.9687 C   0  0  0  0  0  0  0  0  0  0  0  0
  -99.4206  -16.3242   47.6591 C   0  0  0  0  0  0  0  0  0  0  0  0
 -100.7467  -15.8093   45.7299 C   0  0  0  0  0  0  0  0  0  0  0  0
  -99.5970  -15.4023   45.0508 C   0  0  0  0  0  0  0  0  0  0  0  0
 -100.6697  -16.2661   47.0431 C   0  0  0  0  0  0  0  0  0  0  0  0
 -101.7728  -16.6658   47.7015 N   0  0  0  0  0  0  0  0  0  0  0  0
 -102.9421  -16.7073   46.8000 C   0  0  0  0  0  0  0  0  0  0  0  0
 -104.2131  -17.1116   47.5399 C   0  0  0  0  0  0  0  0  0  0  0  0
 -104.4719  -16.1737   48.6421 N   0  0  0  0  0  0  0  0  0  0  0  0
 -103.3299  -16.2124   49.5732 C   0  0  0  0  0  0  0  0  0  0  0  0
 -102.0614  -15.7791   48.8428 C   0  0  0  0  0  0  0  0  0  0  0  0
 -105.7239  -16.5160   49.3320 C   0  0  0  0  0  0  0  0  0  0  0  0
  -91.2407  -17.6017   43.6875 C   0  0  0  0  0  0  0  0  0  0  0  0
  -90.6234  -18.7512   43.1512 C   0  0  0  0  0  0  0  0  0  0  0  0
  -89.4414  -19.2488   43.7016 C   0  0  0  0  0  0  0  0  0  0  0  0
  -91.1894  -19.4215   42.0639 C   0  0  0  0  0  0  0  0  0  0  0  0
  -88.8346  -20.3926   43.1857 C   0  0  0  0  0  0  0  0  0  0  0  0
  -90.5756  -20.5667   41.5400 C   0  0  0  0  0  0  0  0  0  0  0  0
  -89.3944  -21.0537   42.0986 C   0  0  0  0  0  0  0  0  0  0  0  0
  -91.1742  -16.7965   45.9464 C   0  0  0  0  0  0  0  0  0  0  0  0
  -90.4365  -17.0235   44.7308 O   0  0  0  0  0  0  0  0  0  0  0  0
  1  7  1  0  0  0
  1  8  1  0  0  0
  1  9  1  0  0  0
  2  4  1  0  0  0
  2  5  1  0  0  0
  3  4  2  0  0  0
  3 12  1  0  0  0
  3  6  1  0  0  0
 12 13  1  0  0  0
 13 16  1  0  0  0
 13 14  2  0  0  0
 16 17  1  0  0  0
 16 20  2  0  0  0
 17 18  2  0  0  0
 18 21  1  0  0  0
 19 20  1  0  0  0
 19 21  2  0  0  0
  5  6  2  0  0  0
  5  8  1  0  0  0
  6  7  1  0  0  0
 22 23  1  0  0  0
 22 27  1  0  0  0
 22 21  1  0  0  0
 23 24  1  0  0  0
 24 25  1  0  0  0
 25 26  1  0  0  0
 25 28  1  0  0  0
 26 27  1  0  0  0
  9 10  2  0  0  0
  9 29  1  0  0  0
 30 31  1  0  0  0
 30 32  2  0  0  0
 30 29  1  0  0  0
 31 33  2  0  0  0
 32 34  1  0  0  0
 33 35  1  0  0  0
 34 35  2  0  0  0
 29 37  1  0  0  0
 36 37  1  0  0  0
  2 11  1  0  0  0
 12 15  1  0  0  0
M  END
> <minimizedAffinity>
-8.56296

$$$$
5I9Z_627_A_1001


 37 41  0  0  0  0  0  0  0  0999 V2000
  -98.5510  -14.5614   50.4904 N   0  0  0  0  0  0  0  0  0  0  0  0
  -94.9708  -14.9457   50.9392 N   0  0  0  0  0  0  0  0  0  0  0  0
  -95.2178  -13.7796   49.1865 C   0  0  0  0  0  0  0  0  0  0  0  0
  -94.3571  -14.3916   50.0155 N   0  0  0  0  0  0  0  0  0  0  0  0
  -96.2906  -14.7390   50.7953 C   0  0  0  0  0  0  0  0  0  0  0  0
  -96.4566  -14.0073   49.6826 C   0  0  0  0  0  0  0  0  0  0  0  0
  -97.8505  -13.7772   49.4900 C   0  0  0  0  0  0  0  0  0  0  0  0
  -97.5209  -15.0313   51.4178 C   0  0  0  0  0  0  0  0  0  0  0  0
  -99.8666  -14.8018   50.6485 C   0  0  0  0  0  0  0  0  0  0  0  0
 -100.3307  -15.4658   51.5825 O   0  0  0  0  0  0  0  0  0  0  0  0
  -94.5539  -15.4596   51.6682 H   0  0  0  0  0  0  0  0  0  0  0  0
  -94.7058  -13.1258   48.0951 N   0  0  0  0  0  0  0  0  0  0  0  0
  -94.7179  -13.6738   46.8472 C   0  0  0  0  0  0  0  0  0  0  0  0
  -95.1905  -14.7759   46.5868 O   0  0  0  0  0  0  0  0  0  0  0  0
  -94.3162  -12.2300   48.2171 H   0  0  0  0  0  0  0  0  0  0  0  0
  -94.1365  -12.9541   45.7848 C   0  0  0  0  0  0  0  0  0  0  0  0
  -93.5926  -11.6779   45.9040 C   0  0  0  0  0  0  0  0  0  0  0  0
  -93.0255  -11.0250   44.8022 C   0  0  0  0  0  0  0  0  0  0  0  0
  -93.5544  -12.9146   43.4255 C   0  0  0  0  0  0  0  0  0  0  0  0
  -94.1133  -13.5601   44.5298 C   0  0  0  0  0  0  0  0  0  0  0  0
  -92.9981  -11.6445   43.5538 C   0  0  0  0  0  0  0  0  0  0  0  0
  -92.4635  -11.0139   42.4923 N   0  0  0  0  0  0  0  0  0  0  0  0
  -93.2533  -11.2699   41.2707 C   0  0  0  0  0  0  0  0  0  0  0  0
  -92.6347  -10.6026   40.0466 C   0  0  0  0  0  0  0  0  0  0  0  0
  -91.2585  -11.0831   39.8550 N   0  0  0  0  0  0  0  0  0  0  0  0
  -90.4680  -10.7410   41.0511 C   0  0  0  0  0  0  0  0  0  0  0  0
  -91.0672  -11.4320   42.2733 C   0  0  0  0  0  0  0  0  0  0  0  0
  -90.6656  -10.4919   38.6468 C   0  0  0  0  0  0  0  0  0  0  0  0
 -100.7994  -14.2053   49.5730 C   0  0  0  0  0  0  0  0  0  0  0  0
 -101.2794  -15.2322   48.7333 C   0  0  0  0  0  0  0  0  0  0  0  0
 -102.4854  -15.8767   49.0123 C   0  0  0  0  0  0  0  0  0  0  0  0
 -100.5616  -15.6177   47.5983 C   0  0  0  0  0  0  0  0  0  0  0  0
 -102.9723  -16.8819   48.1785 C   0  0  0  0  0  0  0  0  0  0  0  0
 -101.0468  -16.6334   46.7643 C   0  0  0  0  0  0  0  0  0  0  0  0
 -102.2530  -17.2700   47.0543 C   0  0  0  0  0  0  0  0  0  0  0  0
 -101.4589  -12.3949   51.0024 C   0  0  0  0  0  0  0  0  0  0  0  0
 -101.8807  -13.5598   50.2684 O   0  0  0  0  0  0  0  0  0  0  0  0
  1  7  1  0  0  0
  1  8  1  0  0  0
  1  9  1  0  0  0
  2  4  1  0  0  0
  2  5  1  0  0  0
  3  4  2  0  0  0
  3 12  1  0  0  0
  3  6  1  0  0  0
 12 13  1  0  0  0
 13 16  1  0  0  0
 13 14  2  0  0  0
 16 17  1  0  0  0
 16 20  2  0  0  0
 17 18  2  0  0  0
 18 21  1  0  0  0
 19 20  1  0  0  0
 19 21  2  0  0  0
  5  6  2  0  0  0
  5  8  1  0  0  0
  6  7  1  0  0  0
 22 23  1  0  0  0
 22 27  1  0  0  0
 22 21  1  0  0  0
 23 24  1  0  0  0
 24 25  1  0  0  0
 25 26  1  0  0  0
 25 28  1  0  0  0
 26 27  1  0  0  0
  9 10  2  0  0  0
  9 29  1  0  0  0
 30 31  1  0  0  0
 30 32  2  0  0  0
 30 29  1  0  0  0
 31 33  2  0  0  0
 32 34  1  0  0  0
 33 35  1  0  0  0
 34 35  2  0  0  0
 29 37  1  0  0  0
 36 37  1  0  0  0
  2 11  1  0  0  0
 12 15  1  0  0  0
M  END
> <minimizedAffinity>
-8.40178

$$$$
5I9Z_627_A_1001


 37 41  0  0  0  0  0  0  0  0999 V2000
  -92.9504  -12.7079   40.9771 N   0  0  0  0  0  0  0  0  0  0  0  0
  -94.0024  -16.1495   40.5131 N   0  0  0  0  0  0  0  0  0  0  0  0
  -95.0179  -15.4562   42.2396 C   0  0  0  0  0  0  0  0  0  0  0  0
  -94.7762  -16.4912   41.4193 N   0  0  0  0  0  0  0  0  0  0  0  0
  -93.6737  -14.8552   40.6611 C   0  0  0  0  0  0  0  0  0  0  0  0
  -94.3069  -14.4099   41.7574 C   0  0  0  0  0  0  0  0  0  0  0  0
  -93.9717  -13.0380   41.9541 C   0  0  0  0  0  0  0  0  0  0  0  0
  -92.9037  -13.8426   40.0540 C   0  0  0  0  0  0  0  0  0  0  0  0
  -92.2056  -11.5950   40.8338 C   0  0  0  0  0  0  0  0  0  0  0  0
  -91.3898  -11.4342   39.9188 O   0  0  0  0  0  0  0  0  0  0  0  0
  -93.6777  -16.7378   39.7936 H   0  0  0  0  0  0  0  0  0  0  0  0
  -95.8472  -15.6646   43.3118 N   0  0  0  0  0  0  0  0  0  0  0  0
  -97.1081  -15.1501   43.3669 C   0  0  0  0  0  0  0  0  0  0  0  0
  -97.6136  -14.4768   42.4741 O   0  0  0  0  0  0  0  0  0  0  0  0
  -95.5205  -16.2042   44.0676 H   0  0  0  0  0  0  0  0  0  0  0  0
  -97.8832  -15.3768   44.5212 C   0  0  0  0  0  0  0  0  0  0  0  0
  -99.2689  -15.2524   44.5750 C   0  0  0  0  0  0  0  0  0  0  0  0
  -99.9742  -15.4996   45.7596 C   0  0  0  0  0  0  0  0  0  0  0  0
  -97.9084  -15.9853   46.8740 C   0  0  0  0  0  0  0  0  0  0  0  0
  -97.2137  -15.7418   45.6880 C   0  0  0  0  0  0  0  0  0  0  0  0
  -99.2958  -15.8744   46.9182 C   0  0  0  0  0  0  0  0  0  0  0  0
  -99.9711  -16.1015   48.0594 N   0  0  0  0  0  0  0  0  0  0  0  0
 -101.4296  -16.0650   47.8284 C   0  0  0  0  0  0  0  0  0  0  0  0
 -102.2126  -16.2720   49.1209 C   0  0  0  0  0  0  0  0  0  0  0  0
 -101.8419  -15.2422   50.1026 N   0  0  0  0  0  0  0  0  0  0  0  0
 -100.3987  -15.3532   50.3813 C   0  0  0  0  0  0  0  0  0  0  0  0
  -99.6111  -15.1166   49.0951 C   0  0  0  0  0  0  0  0  0  0  0  0
 -102.6280  -15.3931   51.3354 C   0  0  0  0  0  0  0  0  0  0  0  0
  -92.4105  -10.4992   41.9013 C   0  0  0  0  0  0  0  0  0  0  0  0
  -91.9505  -10.9589   43.1532 C   0  0  0  0  0  0  0  0  0  0  0  0
  -92.7009  -10.7475   44.3106 C   0  0  0  0  0  0  0  0  0  0  0  0
  -90.7381  -11.6454   43.2577 C   0  0  0  0  0  0  0  0  0  0  0  0
  -92.2589  -11.2121   45.5481 C   0  0  0  0  0  0  0  0  0  0  0  0
  -90.2897  -12.1057   44.5026 C   0  0  0  0  0  0  0  0  0  0  0  0
  -91.0485  -11.8876   45.6519 C   0  0  0  0  0  0  0  0  0  0  0  0
  -92.5034   -8.2931   40.9632 C   0  0  0  0  0  0  0  0  0  0  0  0
  -91.6639   -9.3484   41.4682 O   0  0  0  0  0  0  0  0  0  0  0  0
  1  7  1  0  0  0
  1  8  1  0  0  0
  1  9  1  0  0  0
  2  4  1  0  0  0
  2  5  1  0  0  0
  3  4  2  0  0  0
  3 12  1  0  0  0
  3  6  1  0  0  0
 12 13  1  0  0  0
 13 16  1  0  0  0
 13 14  2  0  0  0
 16 17  1  0  0  0
 16 20  2  0  0  0
 17 18  2  0  0  0
 18 21  1  0  0  0
 19 20  1  0  0  0
 19 21  2  0  0  0
  5  6  2  0  0  0
  5  8  1  0  0  0
  6  7  1  0  0  0
 22 23  1  0  0  0
 22 27  1  0  0  0
 22 21  1  0  0  0
 23 24  1  0  0  0
 24 25  1  0  0  0
 25 26  1  0  0  0
 25 28  1  0  0  0
 26 27  1  0  0  0
  9 10  2  0  0  0
  9 29  1  0  0  0
 30 31  1  0  0  0
 30 32  2  0  0  0
 30 29  1  0  0  0
 31 33  2  0  0  0
 32 34  1  0  0  0
 33 35  1  0  0  0
 34 35  2  0  0  0
 29 37  1  0  0  0
 36 37  1  0  0  0
  2 11  1  0  0  0
 12 15  1  0  0  0
M  END
> <minimizedAffinity>
-8.02749

$$$$
5I9Z_627_A_1001


 37 41  0  0  0  0  0  0  0  0999 V2000
 -100.0958  -15.8158   46.4230 N   0  0  0  0  0  0  0  0  0  0  0  0
  -98.7376  -14.9478   43.1720 N   0  0  0  0  0  0  0  0  0  0  0  0
  -97.0712  -15.1489   44.4663 C   0  0  0  0  0  0  0  0  0  0  0  0
  -97.5037  -14.8451   43.2322 N   0  0  0  0  0  0  0  0  0  0  0  0
  -99.2195  -15.3334   44.3655 C   0  0  0  0  0  0  0  0  0  0  0  0
  -98.1708  -15.4558   45.1939 C   0  0  0  0  0  0  0  0  0  0  0  0
  -98.6460  -15.8536   46.4780 C   0  0  0  0  0  0  0  0  0  0  0  0
 -100.4341  -15.6443   45.0095 C   0  0  0  0  0  0  0  0  0  0  0  0
 -101.0115  -15.9655   47.3991 C   0  0  0  0  0  0  0  0  0  0  0  0
 -102.2312  -15.9480   47.1979 O   0  0  0  0  0  0  0  0  0  0  0  0
  -99.2822  -14.7731   42.3707 H   0  0  0  0  0  0  0  0  0  0  0  0
  -95.7244  -15.0719   44.7137 N   0  0  0  0  0  0  0  0  0  0  0  0
  -95.2011  -14.2066   45.6274 C   0  0  0  0  0  0  0  0  0  0  0  0
  -95.8740  -13.4402   46.3099 O   0  0  0  0  0  0  0  0  0  0  0  0
  -95.1148  -15.6618   44.2140 H   0  0  0  0  0  0  0  0  0  0  0  0
  -93.8030  -14.1606   45.7947 C   0  0  0  0  0  0  0  0  0  0  0  0
  -93.1350  -14.5668   46.9468 C   0  0  0  0  0  0  0  0  0  0  0  0
  -91.7391  -14.4968   47.0391 C   0  0  0  0  0  0  0  0  0  0  0  0
  -91.6501  -13.5895   44.8223 C   0  0  0  0  0  0  0  0  0  0  0  0
  -93.0413  -13.6671   44.7369 C   0  0  0  0  0  0  0  0  0  0  0  0
  -90.9861  -14.0115   45.9712 C   0  0  0  0  0  0  0  0  0  0  0  0
  -89.6461  -13.9336   46.0627 N   0  0  0  0  0  0  0  0  0  0  0  0
  -89.1890  -14.2506   47.4311 C   0  0  0  0  0  0  0  0  0  0  0  0
  -87.6754  -14.1198   47.5667 C   0  0  0  0  0  0  0  0  0  0  0  0
  -87.2554  -12.7571   47.2087 N   0  0  0  0  0  0  0  0  0  0  0  0
  -87.6464  -12.4940   45.8120 C   0  0  0  0  0  0  0  0  0  0  0  0
  -89.1640  -12.5945   45.6796 C   0  0  0  0  0  0  0  0  0  0  0  0
  -85.8052  -12.5970   47.3871 C   0  0  0  0  0  0  0  0  0  0  0  0
 -100.4564  -16.1528   48.8272 C   0  0  0  0  0  0  0  0  0  0  0  0
 -100.2917  -14.8954   49.4451 C   0  0  0  0  0  0  0  0  0  0  0  0
  -99.0198  -14.4200   49.7676 C   0  0  0  0  0  0  0  0  0  0  0  0
 -101.3991  -14.0952   49.7371 C   0  0  0  0  0  0  0  0  0  0  0  0
  -98.8494  -13.1722   50.3647 C   0  0  0  0  0  0  0  0  0  0  0  0
 -101.2288  -12.8442   50.3445 C   0  0  0  0  0  0  0  0  0  0  0  0
  -99.9526  -12.3807   50.6623 C   0  0  0  0  0  0  0  0  0  0  0  0
 -100.8609  -17.5413   50.7414 C   0  0  0  0  0  0  0  0  0  0  0  0
 -101.4084  -16.9589   49.5437 O   0  0  0  0  0  0  0  0  0  0  0  0
  1  7  1  0  0  0
  1  8  1  0  0  0
  1  9  1  0  0  0
  2  4  1  0  0  0
  2  5  1  0  0  0
  3  4  2  0  0  0
  3 12  1  0  0  0
  3  6  1  0  0  0
 12 13  1  0  0  0
 13 16  1  0  0  0
 13 14  2  0  0  0
 16 17  1  0  0  0
 16 20  2  0  0  0
 17 18  2  0  0  0
 18 21  1  0  0  0
 19 20  1  0  0  0
 19 21  2  0  0  0
  5  6  2  0  0  0
  5  8  1  0  0  0
  6  7  1  0  0  0
 22 23  1  0  0  0
 22 27  1  0  0  0
 22 21  1  0  0  0
 23 24  1  0  0  0
 24 25  1  0  0  0
 25 26  1  0  0  0
 25 28  1  0  0  0
 26 27  1  0  0  0
  9 10  2  0  0  0
  9 29  1  0  0  0
 30 31  1  0  0  0
 30 32  2  0  0  0
 30 29  1  0  0  0
 31 33  2  0  0  0
 32 34  1  0  0  0
 33 35  1  0  0  0
 34 35  2  0  0  0
 29 37  1  0  0  0
 36 37  1  0  0  0
  2 11  1  0  0  0
 12 15  1  0  0  0
M  END
> <minimizedAffinity>
-7.55985

$$$$
5I9Z_627_A_1001


 37 41  0  0  0  0  0  0  0  0999 V2000
  -93.8615  -14.6941   43.2670 N   0  0  0  0  0  0  0  0  0  0  0  0
  -97.4213  -14.8407   42.5793 N   0  0  0  0  0  0  0  0  0  0  0  0
  -97.2296  -14.9363   44.6880 C   0  0  0  0  0  0  0  0  0  0  0  0
  -98.0611  -14.9613   43.6342 N   0  0  0  0  0  0  0  0  0  0  0  0
  -96.1115  -14.7216   42.8540 C   0  0  0  0  0  0  0  0  0  0  0  0
  -95.9803  -14.7889   44.1879 C   0  0  0  0  0  0  0  0  0  0  0  0
  -94.5975  -14.6778   44.5179 C   0  0  0  0  0  0  0  0  0  0  0  0
  -94.8675  -14.5514   42.2137 C   0  0  0  0  0  0  0  0  0  0  0  0
  -92.5366  -14.7555   43.0336 C   0  0  0  0  0  0  0  0  0  0  0  0
  -92.0419  -14.7214   41.9010 O   0  0  0  0  0  0  0  0  0  0  0  0
  -97.8138  -14.8333   41.6764 H   0  0  0  0  0  0  0  0  0  0  0  0
  -97.7726  -15.0733   45.9399 N   0  0  0  0  0  0  0  0  0  0  0  0
  -97.4908  -14.2070   46.9537 C   0  0  0  0  0  0  0  0  0  0  0  0
  -96.7499  -13.2354   46.8395 O   0  0  0  0  0  0  0  0  0  0  0  0
  -98.3869  -15.8230   46.1122 H   0  0  0  0  0  0  0  0  0  0  0  0
  -98.0584  -14.4396   48.2219 C   0  0  0  0  0  0  0  0  0  0  0  0
  -97.4475  -14.1112   49.4292 C   0  0  0  0  0  0  0  0  0  0  0  0
  -98.0762  -14.3683   50.6541 C   0  0  0  0  0  0  0  0  0  0  0  0
  -99.9437  -15.3110   49.4840 C   0  0  0  0  0  0  0  0  0  0  0  0
  -99.3121  -15.0469   48.2675 C   0  0  0  0  0  0  0  0  0  0  0  0
  -99.3349  -14.9664   50.6880 C   0  0  0  0  0  0  0  0  0  0  0  0
  -99.9350  -15.2238   51.8643 N   0  0  0  0  0  0  0  0  0  0  0  0
  -99.3200  -16.3908   52.5289 C   0  0  0  0  0  0  0  0  0  0  0  0
 -100.0194  -16.7281   53.8417 C   0  0  0  0  0  0  0  0  0  0  0  0
 -101.4448  -16.9929   53.5973 N   0  0  0  0  0  0  0  0  0  0  0  0
 -102.0561  -15.7856   53.0129 C   0  0  0  0  0  0  0  0  0  0  0  0
 -101.3781  -15.4630   51.6837 C   0  0  0  0  0  0  0  0  0  0  0  0
 -102.1233  -17.3741   54.8443 C   0  0  0  0  0  0  0  0  0  0  0  0
  -91.6336  -14.8872   44.2785 C   0  0  0  0  0  0  0  0  0  0  0  0
  -90.9816  -16.1381   44.2663 C   0  0  0  0  0  0  0  0  0  0  0  0
  -91.7000  -17.3190   44.4584 C   0  0  0  0  0  0  0  0  0  0  0  0
  -89.6037  -16.2205   44.0507 C   0  0  0  0  0  0  0  0  0  0  0  0
  -91.0639  -18.5590   44.4327 C   0  0  0  0  0  0  0  0  0  0  0  0
  -88.9627  -17.4662   44.0326 C   0  0  0  0  0  0  0  0  0  0  0  0
  -89.6917  -18.6389   44.2264 C   0  0  0  0  0  0  0  0  0  0  0  0
  -91.2096  -12.5695   44.7307 C   0  0  0  0  0  0  0  0  0  0  0  0
  -90.6827  -13.8092   44.2216 O   0  0  0  0  0  0  0  0  0  0  0  0
  1  7  1  0  0  0
  1  8  1  0  0  0
  1  9  1  0  0  0
  2  4  1  0  0  0
  2  5  1  0  0  0
  3  4  2  0  0  0
  3 12  1  0  0  0
  3  6  1  0  0  0
 12 13  1  0  0  0
 13 16  1  0  0  0
 13 14  2  0  0  0
 16 17  1  0  0  0
 16 20  2  0  0  0
 17 18  2  0  0  0
 18 21  1  0  0  0
 19 20  1  0  0  0
 19 21  2  0  0  0
  5  6  2  0  0  0
  5  8  1  0  0  0
  6  7  1  0  0  0
 22 23  1  0  0  0
 22 27  1  0  0  0
 22 21  1  0  0  0
 23 24  1  0  0  0
 24 25  1  0  0  0
 25 26  1  0  0  0
 25 28  1  0  0  0
 26 27  1  0  0  0
  9 10  2  0  0  0
  9 29  1  0  0  0
 30 31  1  0  0  0
 30 32  2  0  0  0
 30 29  1  0  0  0
 31 33  2  0  0  0
 32 34  1  0  0  0
 33 35  1  0  0  0
 34 35  2  0  0  0
 29 37  1  0  0  0
 36 37  1  0  0  0
  2 11  1  0  0  0
 12 15  1  0  0  0
M  END
> <minimizedAffinity>
-7.39659

$$$$
5I9Z_627_A_1001


 37 41  0  0  0  0  0  0  0  0999 V2000
  -92.5353  -16.0232   42.2515 N   0  0  0  0  0  0  0  0  0  0  0  0
  -95.3979  -14.1724   41.0076 N   0  0  0  0  0  0  0  0  0  0  0  0
  -95.9799  -14.9517   42.8908 C   0  0  0  0  0  0  0  0  0  0  0  0
  -96.3453  -14.2554   41.8027 N   0  0  0  0  0  0  0  0  0  0  0  0
  -94.3258  -14.8063   41.5116 C   0  0  0  0  0  0  0  0  0  0  0  0
  -94.6882  -15.3098   42.7017 C   0  0  0  0  0  0  0  0  0  0  0  0
  -93.5756  -16.0024   43.2635 C   0  0  0  0  0  0  0  0  0  0  0  0
  -92.9823  -15.1028   41.2051 C   0  0  0  0  0  0  0  0  0  0  0  0
  -91.3523  -16.6663   42.2277 C   0  0  0  0  0  0  0  0  0  0  0  0
  -90.5372  -16.5596   41.3042 O   0  0  0  0  0  0  0  0  0  0  0  0
  -95.4267  -13.7116   40.1381 H   0  0  0  0  0  0  0  0  0  0  0  0
  -96.9175  -15.1529   43.8713 N   0  0  0  0  0  0  0  0  0  0  0  0
  -96.7235  -14.7463   45.1576 C   0  0  0  0  0  0  0  0  0  0  0  0
  -95.7173  -14.1622   45.5478 O   0  0  0  0  0  0  0  0  0  0  0  0
  -97.7595  -15.6065   43.6380 H   0  0  0  0  0  0  0  0  0  0  0  0
  -97.7188  -15.0256   46.1146 C   0  0  0  0  0  0  0  0  0  0  0  0
  -98.8377  -15.8195   45.8770 C   0  0  0  0  0  0  0  0  0  0  0  0
  -99.7849  -16.0578   46.8809 C   0  0  0  0  0  0  0  0  0  0  0  0
  -98.5164  -14.6895   48.3857 C   0  0  0  0  0  0  0  0  0  0  0  0
  -97.5748  -14.4610   47.3808 C   0  0  0  0  0  0  0  0  0  0  0  0
  -99.6256  -15.4968   48.1470 C   0  0  0  0  0  0  0  0  0  0  0  0
 -100.5403  -15.7161   49.1089 N   0  0  0  0  0  0  0  0  0  0  0  0
 -100.9151  -14.4554   49.7813 C   0  0  0  0  0  0  0  0  0  0  0  0
 -101.9155  -14.6907   50.9083 C   0  0  0  0  0  0  0  0  0  0  0  0
 -101.3520  -15.6269   51.8920 N   0  0  0  0  0  0  0  0  0  0  0  0
 -101.0653  -16.9055   51.2170 C   0  0  0  0  0  0  0  0  0  0  0  0
 -100.0413  -16.6782   50.1078 C   0  0  0  0  0  0  0  0  0  0  0  0
 -102.2810  -15.8223   53.0142 C   0  0  0  0  0  0  0  0  0  0  0  0
  -91.0530  -17.5813   43.4342 C   0  0  0  0  0  0  0  0  0  0  0  0
  -90.4995  -18.7988   42.9854 C   0  0  0  0  0  0  0  0  0  0  0  0
  -91.0980  -19.5152   41.9480 C   0  0  0  0  0  0  0  0  0  0  0  0
  -89.3337  -19.3070   43.5640 C   0  0  0  0  0  0  0  0  0  0  0  0
  -90.5479  -20.7111   41.4901 C   0  0  0  0  0  0  0  0  0  0  0  0
  -88.7848  -20.5131   43.1094 C   0  0  0  0  0  0  0  0  0  0  0  0
  -89.3927  -21.2198   42.0723 C   0  0  0  0  0  0  0  0  0  0  0  0
  -90.7171  -16.4354   45.5150 C   0  0  0  0  0  0  0  0  0  0  0  0
  -90.1266  -16.8730   44.2767 O   0  0  0  0  0  0  0  0  0  0  0  0
  1  7  1  0  0  0
  1  8  1  0  0  0
  1  9  1  0  0  0
  2  4  1  0  0  0
  2  5  1  0  0  0
  3  4  2  0  0  0
  3 12  1  0  0  0
  3  6  1  0  0  0
 12 13  1  0  0  0
 13 16  1  0  0  0
 13 14  2  0  0  0
 16 17  1  0  0  0
 16 20  2  0  0  0
 17 18  2  0  0  0
 18 21  1  0  0  0
 19 20  1  0  0  0
 19 21  2  0  0  0
  5  6  2  0  0  0
  5  8  1  0  0  0
  6  7  1  0  0  0
 22 23  1  0  0  0
 22 27  1  0  0  0
 22 21  1  0  0  0
 23 24  1  0  0  0
 24 25  1  0  0  0
 25 26  1  0  0  0
 25 28  1  0  0  0
 26 27  1  0  0  0
  9 10  2  0  0  0
  9 29  1  0  0  0
 30 31  1  0  0  0
 30 32  2  0  0  0
 30 29  1  0  0  0
 31 33  2  0  0  0
 32 34  1  0  0  0
 33 35  1  0  0  0
 34 35  2  0  0  0
 29 37  1  0  0  0
 36 37  1  0  0  0
  2 11  1  0  0  0
 12 15  1  0  0  0
M  END
> <minimizedAffinity>
-7.39094

$$$$
5I9Z_627_A_1001


 37 41  0  0  0  0  0  0  0  0999 V2000
  -93.4347  -15.3229   42.5311 N   0  0  0  0  0  0  0  0  0  0  0  0
  -96.9062  -14.3611   42.0943 N   0  0  0  0  0  0  0  0  0  0  0  0
  -96.7542  -15.1195   44.0677 C   0  0  0  0  0  0  0  0  0  0  0  0
  -97.5592  -14.6228   43.1149 N   0  0  0  0  0  0  0  0  0  0  0  0
  -95.6119  -14.6613   42.2943 C   0  0  0  0  0  0  0  0  0  0  0  0
  -95.5079  -15.1499   43.5400 C   0  0  0  0  0  0  0  0  0  0  0  0
  -94.1456  -15.4920   43.7851 C   0  0  0  0  0  0  0  0  0  0  0  0
  -94.3642  -14.6279   41.6395 C   0  0  0  0  0  0  0  0  0  0  0  0
  -92.1711  -15.6433   42.1929 C   0  0  0  0  0  0  0  0  0  0  0  0
  -91.6804  -15.4021   41.0840 O   0  0  0  0  0  0  0  0  0  0  0  0
  -97.2795  -13.9893   41.2627 H   0  0  0  0  0  0  0  0  0  0  0  0
  -97.3189  -15.4788   45.2647 N   0  0  0  0  0  0  0  0  0  0  0  0
  -98.6616  -15.6627   45.4094 C   0  0  0  0  0  0  0  0  0  0  0  0
  -99.4729  -15.5391   44.4970 O   0  0  0  0  0  0  0  0  0  0  0  0
  -96.7344  -15.6083   46.0463 H   0  0  0  0  0  0  0  0  0  0  0  0
  -99.1677  -15.9928   46.6820 C   0  0  0  0  0  0  0  0  0  0  0  0
  -98.4406  -16.6491   47.6715 C   0  0  0  0  0  0  0  0  0  0  0  0
  -99.0098  -16.9401   48.9178 C   0  0  0  0  0  0  0  0  0  0  0  0
 -101.0644  -15.9354   48.2005 C   0  0  0  0  0  0  0  0  0  0  0  0
 -100.4879  -15.6450   46.9628 C   0  0  0  0  0  0  0  0  0  0  0  0
 -100.3277  -16.5783   49.1920 C   0  0  0  0  0  0  0  0  0  0  0  0
 -100.8790  -16.8670   50.3848 N   0  0  0  0  0  0  0  0  0  0  0  0
 -101.4566  -15.6588   51.0081 C   0  0  0  0  0  0  0  0  0  0  0  0
 -102.0434  -15.9571   52.3840 C   0  0  0  0  0  0  0  0  0  0  0  0
 -101.0054  -16.5177   53.2614 N   0  0  0  0  0  0  0  0  0  0  0  0
 -100.5041  -17.7673   52.6614 C   0  0  0  0  0  0  0  0  0  0  0  0
  -99.8889  -17.4670   51.2969 C   0  0  0  0  0  0  0  0  0  0  0  0
 -101.5398  -16.7597   54.6091 C   0  0  0  0  0  0  0  0  0  0  0  0
  -91.3389  -16.3588   43.2783 C   0  0  0  0  0  0  0  0  0  0  0  0
  -90.7944  -17.5506   42.7554 C   0  0  0  0  0  0  0  0  0  0  0  0
  -89.4129  -17.7407   42.7023 C   0  0  0  0  0  0  0  0  0  0  0  0
  -91.6286  -18.5700   42.2895 C   0  0  0  0  0  0  0  0  0  0  0  0
  -88.8691  -18.9218   42.2006 C   0  0  0  0  0  0  0  0  0  0  0  0
  -91.0822  -19.7542   41.7778 C   0  0  0  0  0  0  0  0  0  0  0  0
  -89.6999  -19.9317   41.7297 C   0  0  0  0  0  0  0  0  0  0  0  0
  -90.6347  -14.6963   44.8581 C   0  0  0  0  0  0  0  0  0  0  0  0
  -90.2992  -15.4479   43.6765 O   0  0  0  0  0  0  0  0  0  0  0  0
  1  7  1  0  0  0
  1  8  1  0  0  0
  1  9  1  0  0  0
  2  4  1  0  0  0
  2  5  1  0  0  0
  3  4  2  0  0  0
  3 12  1  0  0  0
  3  6  1  0  0  0
 12 13  1  0  0  0
 13 16  1  0  0  0
 13 14  2  0  0  0
 16 17  1  0  0  0
 16 20  2  0  0  0
 17 18  2  0  0  0
 18 21  1  0  0  0
 19 20  1  0  0  0
 19 21  2  0  0  0
  5  6  2  0  0  0
  5  8  1  0  0  0
  6  7  1  0  0  0
 22 23  1  0  0  0
 22 27  1  0  0  0
 22 21  1  0  0  0
 23 24  1  0  0  0
 24 25  1  0  0  0
 25 26  1  0  0  0
 25 28  1  0  0  0
 26 27  1  0  0  0
  9 10  2  0  0  0
  9 29  1  0  0  0
 30 31  1  0  0  0
 30 32  2  0  0  0
 30 29  1  0  0  0
 31 33  2  0  0  0
 32 34  1  0  0  0
 33 35  1  0  0  0
 34 35  2  0  0  0
 29 37  1  0  0  0
 36 37  1  0  0  0
  2 11  1  0  0  0
 12 15  1  0  0  0
M  END
> <minimizedAffinity>
-7.36567

$$$$
