4YGF_AZM_A_303


 16 16  0  0  0  0  0  0  0  0999 V2000
   -8.7778  -40.5267  -77.9183 C   0  0  0  0  0  0  0  0  0  0  0  0
   -8.3532  -42.3129  -79.6327 C   0  0  0  0  0  0  0  0  0  0  0  0
   -7.3202  -42.0445  -78.7770 N   0  0  0  0  0  0  0  0  0  0  0  0
   -7.5394  -41.0901  -77.8676 N   0  0  0  0  0  0  0  0  0  0  0  0
   -9.6276  -41.2402  -79.1841 S   0  0  0  0  0  0  0  0  0  0  0  0
  -10.7259  -39.8346  -76.0557 N   0  0  0  0  0  0  0  0  0  0  0  0
   -8.3412  -38.7913  -76.0253 O   0  0  0  0  0  0  0  0  0  0  0  0
   -9.8799  -38.1744  -77.8585 O   0  0  0  0  0  0  0  0  0  0  0  0
   -9.4437  -39.2538  -76.9251 S   0  0  0  0  0  0  0  0  0  0  0  0
  -10.4046  -40.5698  -75.4259 H   0  0  0  0  0  0  0  0  0  0  0  0
  -11.4249  -40.2150  -76.6937 H   0  0  0  0  0  0  0  0  0  0  0  0
   -8.9901  -44.5697  -80.5600 C   0  0  0  0  0  0  0  0  0  0  0  0
   -8.9578  -45.5643  -81.7295 C   0  0  0  0  0  0  0  0  0  0  0  0
   -8.3644  -43.2839  -80.6878 N   0  0  0  0  0  0  0  0  0  0  0  0
   -9.5421  -44.8924  -79.5477 O   0  0  0  0  0  0  0  0  0  0  0  0
   -7.9230  -43.0586  -81.5384 H   0  0  0  0  0  0  0  0  0  0  0  0
  1  4  2  0  0  0
  1  9  1  0  0  0
  1  5  1  0  0  0
  2  3  2  0  0  0
  2 14  1  0  0  0
  2  5  1  0  0  0
 12 13  1  0  0  0
 12 14  1  0  0  0
 12 15  2  0  0  0
  6  9  1  0  0  0
  3  4  1  0  0  0
  7  9  2  0  0  0
  8  9  2  0  0  0
  6 10  1  0  0  0
  6 11  1  0  0  0
 14 16  1  0  0  0
M  END
> <minimizedAffinity>
-5.64671

$$$$
4YGF_AZM_A_303


 16 16  0  0  0  0  0  0  0  0999 V2000
   -7.3551  -40.6291  -77.8791 C   0  0  0  0  0  0  0  0  0  0  0  0
   -9.8561  -40.3957  -77.8953 C   0  0  0  0  0  0  0  0  0  0  0  0
   -9.1908  -39.6616  -76.9520 N   0  0  0  0  0  0  0  0  0  0  0  0
   -7.8606  -39.7880  -76.9354 N   0  0  0  0  0  0  0  0  0  0  0  0
   -8.6420  -41.2671  -78.7569 S   0  0  0  0  0  0  0  0  0  0  0  0
   -5.6137  -42.1602  -79.4177 N   0  0  0  0  0  0  0  0  0  0  0  0
   -4.9670  -39.8057  -78.5152 O   0  0  0  0  0  0  0  0  0  0  0  0
   -5.1818  -41.6714  -76.9084 O   0  0  0  0  0  0  0  0  0  0  0  0
   -5.6914  -41.0702  -78.1754 S   0  0  0  0  0  0  0  0  0  0  0  0
   -5.9664  -41.7281  -80.2717 H   0  0  0  0  0  0  0  0  0  0  0  0
   -6.1817  -42.9763  -79.1900 H   0  0  0  0  0  0  0  0  0  0  0  0
  -12.0877  -41.5626  -77.7657 C   0  0  0  0  0  0  0  0  0  0  0  0
  -13.5996  -41.5363  -78.0334 C   0  0  0  0  0  0  0  0  0  0  0  0
  -11.2730  -40.4326  -78.1128 N   0  0  0  0  0  0  0  0  0  0  0  0
  -11.6103  -42.5414  -77.2681 O   0  0  0  0  0  0  0  0  0  0  0  0
  -11.7067  -39.6475  -78.5185 H   0  0  0  0  0  0  0  0  0  0  0  0
  1  4  2  0  0  0
  1  9  1  0  0  0
  1  5  1  0  0  0
  2  3  2  0  0  0
  2 14  1  0  0  0
  2  5  1  0  0  0
 12 13  1  0  0  0
 12 14  1  0  0  0
 12 15  2  0  0  0
  6  9  1  0  0  0
  3  4  1  0  0  0
  7  9  2  0  0  0
  8  9  2  0  0  0
  6 10  1  0  0  0
  6 11  1  0  0  0
 14 16  1  0  0  0
M  END
> <minimizedAffinity>
-5.52372

$$$$
4YGF_AZM_A_303


 16 16  0  0  0  0  0  0  0  0999 V2000
   -9.1670  -41.3909  -80.7039 C   0  0  0  0  0  0  0  0  0  0  0  0
   -9.4757  -40.7048  -78.3073 C   0  0  0  0  0  0  0  0  0  0  0  0
   -8.2044  -41.0529  -78.6730 N   0  0  0  0  0  0  0  0  0  0  0  0
   -8.0369  -41.4251  -79.9455 N   0  0  0  0  0  0  0  0  0  0  0  0
  -10.4429  -40.8982  -79.7226 S   0  0  0  0  0  0  0  0  0  0  0  0
   -8.5582  -40.7241  -83.3361 N   0  0  0  0  0  0  0  0  0  0  0  0
   -8.8233  -43.1927  -82.5536 O   0  0  0  0  0  0  0  0  0  0  0  0
  -10.8360  -41.7622  -82.6606 O   0  0  0  0  0  0  0  0  0  0  0  0
   -9.3698  -41.8096  -82.3873 S   0  0  0  0  0  0  0  0  0  0  0  0
   -7.5600  -40.7743  -83.1325 H   0  0  0  0  0  0  0  0  0  0  0  0
   -8.8980  -39.7822  -83.1420 H   0  0  0  0  0  0  0  0  0  0  0  0
   -9.7741  -38.9214  -76.5498 C   0  0  0  0  0  0  0  0  0  0  0  0
  -10.2540  -38.5318  -75.1441 C   0  0  0  0  0  0  0  0  0  0  0  0
   -9.9089  -40.2746  -77.0098 N   0  0  0  0  0  0  0  0  0  0  0  0
   -9.2862  -38.0765  -77.2439 O   0  0  0  0  0  0  0  0  0  0  0  0
  -10.3173  -40.9373  -76.4071 H   0  0  0  0  0  0  0  0  0  0  0  0
  1  4  2  0  0  0
  1  9  1  0  0  0
  1  5  1  0  0  0
  2  3  2  0  0  0
  2 14  1  0  0  0
  2  5  1  0  0  0
 12 13  1  0  0  0
 12 14  1  0  0  0
 12 15  2  0  0  0
  6  9  1  0  0  0
  3  4  1  0  0  0
  7  9  2  0  0  0
  8  9  2  0  0  0
  6 10  1  0  0  0
  6 11  1  0  0  0
 14 16  1  0  0  0
M  END
> <minimizedAffinity>
-5.48766

$$$$
4YGF_AZM_A_303


 16 16  0  0  0  0  0  0  0  0999 V2000
   -9.8830  -40.5080  -77.2079 C   0  0  0  0  0  0  0  0  0  0  0  0
  -11.3572  -42.4981  -77.6273 C   0  0  0  0  0  0  0  0  0  0  0  0
  -10.0778  -42.5879  -78.1030 N   0  0  0  0  0  0  0  0  0  0  0  0
   -9.2921  -41.5286  -77.8881 N   0  0  0  0  0  0  0  0  0  0  0  0
  -11.4768  -40.9445  -76.8871 S   0  0  0  0  0  0  0  0  0  0  0  0
   -9.7146  -38.5666  -75.2213 N   0  0  0  0  0  0  0  0  0  0  0  0
   -7.7212  -39.1118  -76.8041 O   0  0  0  0  0  0  0  0  0  0  0  0
   -9.7022  -37.9720  -77.7449 O   0  0  0  0  0  0  0  0  0  0  0  0
   -9.2091  -38.9644  -76.7456 S   0  0  0  0  0  0  0  0  0  0  0  0
   -9.3664  -39.2575  -74.5566 H   0  0  0  0  0  0  0  0  0  0  0  0
  -10.7341  -38.5523  -75.1941 H   0  0  0  0  0  0  0  0  0  0  0  0
  -13.1615  -43.6919  -78.9226 C   0  0  0  0  0  0  0  0  0  0  0  0
  -14.2515  -44.7729  -78.9623 C   0  0  0  0  0  0  0  0  0  0  0  0
  -12.3844  -43.4932  -77.7320 N   0  0  0  0  0  0  0  0  0  0  0  0
  -12.9808  -43.0235  -79.8994 O   0  0  0  0  0  0  0  0  0  0  0  0
  -12.5649  -44.0661  -76.9519 H   0  0  0  0  0  0  0  0  0  0  0  0
  1  4  2  0  0  0
  1  9  1  0  0  0
  1  5  1  0  0  0
  2  3  2  0  0  0
  2 14  1  0  0  0
  2  5  1  0  0  0
 12 13  1  0  0  0
 12 14  1  0  0  0
 12 15  2  0  0  0
  6  9  1  0  0  0
  3  4  1  0  0  0
  7  9  2  0  0  0
  8  9  2  0  0  0
  6 10  1  0  0  0
  6 11  1  0  0  0
 14 16  1  0  0  0
M  END
> <minimizedAffinity>
-5.18346

$$$$
4YGF_AZM_A_303


 16 16  0  0  0  0  0  0  0  0999 V2000
   -9.5186  -42.6574  -79.8316 C   0  0  0  0  0  0  0  0  0  0  0  0
  -10.3179  -41.1125  -78.0194 C   0  0  0  0  0  0  0  0  0  0  0  0
  -10.9415  -40.9901  -79.2308 N   0  0  0  0  0  0  0  0  0  0  0  0
  -10.5147  -41.8054  -80.1998 N   0  0  0  0  0  0  0  0  0  0  0  0
   -9.1353  -42.3521  -78.2212 S   0  0  0  0  0  0  0  0  0  0  0  0
   -8.8669  -43.5014  -82.4020 N   0  0  0  0  0  0  0  0  0  0  0  0
   -7.2503  -43.8123  -80.3854 O   0  0  0  0  0  0  0  0  0  0  0  0
   -9.3149  -45.1686  -80.4676 O   0  0  0  0  0  0  0  0  0  0  0  0
   -8.6888  -43.8544  -80.7955 S   0  0  0  0  0  0  0  0  0  0  0  0
   -8.4322  -42.6006  -82.6024 H   0  0  0  0  0  0  0  0  0  0  0  0
   -9.8595  -43.4587  -82.6327 H   0  0  0  0  0  0  0  0  0  0  0  0
  -10.1983  -38.9863  -76.6690 C   0  0  0  0  0  0  0  0  0  0  0  0
  -10.5194  -38.2396  -75.3662 C   0  0  0  0  0  0  0  0  0  0  0  0
  -10.5923  -40.3571  -76.8319 N   0  0  0  0  0  0  0  0  0  0  0  0
   -9.6136  -38.4024  -77.5356 O   0  0  0  0  0  0  0  0  0  0  0  0
  -11.0728  -40.7986  -76.0947 H   0  0  0  0  0  0  0  0  0  0  0  0
  1  4  2  0  0  0
  1  9  1  0  0  0
  1  5  1  0  0  0
  2  3  2  0  0  0
  2 14  1  0  0  0
  2  5  1  0  0  0
 12 13  1  0  0  0
 12 14  1  0  0  0
 12 15  2  0  0  0
  6  9  1  0  0  0
  3  4  1  0  0  0
  7  9  2  0  0  0
  8  9  2  0  0  0
  6 10  1  0  0  0
  6 11  1  0  0  0
 14 16  1  0  0  0
M  END
> <minimizedAffinity>
-5.08442

$$$$
4YGF_AZM_A_303


 16 16  0  0  0  0  0  0  0  0999 V2000
  -10.3489  -43.8437  -79.0099 C   0  0  0  0  0  0  0  0  0  0  0  0
   -8.1940  -42.7889  -78.2662 C   0  0  0  0  0  0  0  0  0  0  0  0
   -8.3154  -44.1320  -78.0369 N   0  0  0  0  0  0  0  0  0  0  0  0
   -9.4631  -44.6960  -78.4248 N   0  0  0  0  0  0  0  0  0  0  0  0
   -9.6709  -42.3030  -79.0135 S   0  0  0  0  0  0  0  0  0  0  0  0
  -12.7433  -42.7614  -79.9261 N   0  0  0  0  0  0  0  0  0  0  0  0
  -11.7564  -44.9683  -80.8915 O   0  0  0  0  0  0  0  0  0  0  0  0
  -12.6475  -44.9789  -78.5862 O   0  0  0  0  0  0  0  0  0  0  0  0
  -11.9453  -44.1807  -79.6332 S   0  0  0  0  0  0  0  0  0  0  0  0
  -12.2462  -42.2336  -80.6436 H   0  0  0  0  0  0  0  0  0  0  0  0
  -12.7857  -42.2118  -79.0679 H   0  0  0  0  0  0  0  0  0  0  0  0
   -6.2677  -41.3071  -78.9388 C   0  0  0  0  0  0  0  0  0  0  0  0
   -5.0719  -40.4391  -78.5209 C   0  0  0  0  0  0  0  0  0  0  0  0
   -7.0690  -41.9605  -77.9429 N   0  0  0  0  0  0  0  0  0  0  0  0
   -6.5100  -41.4264  -80.1053 O   0  0  0  0  0  0  0  0  0  0  0  0
   -6.8356  -41.8342  -76.9948 H   0  0  0  0  0  0  0  0  0  0  0  0
  1  4  2  0  0  0
  1  9  1  0  0  0
  1  5  1  0  0  0
  2  3  2  0  0  0
  2 14  1  0  0  0
  2  5  1  0  0  0
 12 13  1  0  0  0
 12 14  1  0  0  0
 12 15  2  0  0  0
  6  9  1  0  0  0
  3  4  1  0  0  0
  7  9  2  0  0  0
  8  9  2  0  0  0
  6 10  1  0  0  0
  6 11  1  0  0  0
 14 16  1  0  0  0
M  END
> <minimizedAffinity>
-5.07880

$$$$
4YGF_AZM_A_303


 16 16  0  0  0  0  0  0  0  0999 V2000
   -9.6837  -44.1089  -80.0955 C   0  0  0  0  0  0  0  0  0  0  0  0
  -12.0013  -44.1175  -79.1268 C   0  0  0  0  0  0  0  0  0  0  0  0
  -11.0127  -44.6145  -78.3225 N   0  0  0  0  0  0  0  0  0  0  0  0
   -9.7791  -44.6182  -78.8365 N   0  0  0  0  0  0  0  0  0  0  0  0
  -11.2261  -43.6601  -80.5985 S   0  0  0  0  0  0  0  0  0  0  0  0
   -8.3850  -42.5743  -82.0196 N   0  0  0  0  0  0  0  0  0  0  0  0
   -7.0889  -43.8996  -80.1920 O   0  0  0  0  0  0  0  0  0  0  0  0
   -8.2372  -45.1625  -81.9795 O   0  0  0  0  0  0  0  0  0  0  0  0
   -8.2702  -43.9509  -81.1092 S   0  0  0  0  0  0  0  0  0  0  0  0
   -8.4059  -41.7608  -81.4047 H   0  0  0  0  0  0  0  0  0  0  0  0
   -9.2408  -42.6037  -82.5739 H   0  0  0  0  0  0  0  0  0  0  0  0
  -14.2790  -45.1388  -78.7698 C   0  0  0  0  0  0  0  0  0  0  0  0
  -15.7634  -44.9476  -78.4263 C   0  0  0  0  0  0  0  0  0  0  0  0
  -13.3949  -44.0083  -78.8073 N   0  0  0  0  0  0  0  0  0  0  0  0
  -13.8828  -46.2436  -79.0066 O   0  0  0  0  0  0  0  0  0  0  0  0
  -13.7621  -43.1177  -78.6043 H   0  0  0  0  0  0  0  0  0  0  0  0
  1  4  2  0  0  0
  1  9  1  0  0  0
  1  5  1  0  0  0
  2  3  2  0  0  0
  2 14  1  0  0  0
  2  5  1  0  0  0
 12 13  1  0  0  0
 12 14  1  0  0  0
 12 15  2  0  0  0
  6  9  1  0  0  0
  3  4  1  0  0  0
  7  9  2  0  0  0
  8  9  2  0  0  0
  6 10  1  0  0  0
  6 11  1  0  0  0
 14 16  1  0  0  0
M  END
> <minimizedAffinity>
-5.07672

$$$$
4YGF_AZM_A_303


 16 16  0  0  0  0  0  0  0  0999 V2000
   -9.7137  -44.1443  -79.9757 C   0  0  0  0  0  0  0  0  0  0  0  0
  -12.0267  -44.1203  -78.9962 C   0  0  0  0  0  0  0  0  0  0  0  0
  -11.0378  -44.6114  -78.1885 N   0  0  0  0  0  0  0  0  0  0  0  0
   -9.8068  -44.6324  -78.7081 N   0  0  0  0  0  0  0  0  0  0  0  0
  -11.2553  -43.6924  -80.4787 S   0  0  0  0  0  0  0  0  0  0  0  0
   -8.3162  -45.2227  -82.1269 N   0  0  0  0  0  0  0  0  0  0  0  0
   -8.3679  -42.6651  -81.6450 O   0  0  0  0  0  0  0  0  0  0  0  0
   -7.1183  -44.1356  -80.1007 O   0  0  0  0  0  0  0  0  0  0  0  0
   -8.3040  -44.0130  -80.9983 S   0  0  0  0  0  0  0  0  0  0  0  0
   -9.1338  -45.1188  -82.7279 H   0  0  0  0  0  0  0  0  0  0  0  0
   -8.3532  -46.1267  -81.6559 H   0  0  0  0  0  0  0  0  0  0  0  0
  -14.3268  -45.1070  -78.6889 C   0  0  0  0  0  0  0  0  0  0  0  0
  -15.8071  -44.8998  -78.3368 C   0  0  0  0  0  0  0  0  0  0  0  0
  -13.4179  -43.9958  -78.6720 N   0  0  0  0  0  0  0  0  0  0  0  0
  -13.9547  -46.2076  -78.9784 O   0  0  0  0  0  0  0  0  0  0  0  0
  -13.7656  -43.1081  -78.4266 H   0  0  0  0  0  0  0  0  0  0  0  0
  1  4  2  0  0  0
  1  9  1  0  0  0
  1  5  1  0  0  0
  2  3  2  0  0  0
  2 14  1  0  0  0
  2  5  1  0  0  0
 12 13  1  0  0  0
 12 14  1  0  0  0
 12 15  2  0  0  0
  6  9  1  0  0  0
  3  4  1  0  0  0
  7  9  2  0  0  0
  8  9  2  0  0  0
  6 10  1  0  0  0
  6 11  1  0  0  0
 14 16  1  0  0  0
M  END
> <minimizedAffinity>
-5.06129

$$$$
4YGF_AZM_A_303


 16 16  0  0  0  0  0  0  0  0999 V2000
   -9.6919  -39.9075  -76.5059 C   0  0  0  0  0  0  0  0  0  0  0  0
   -8.4878  -41.1213  -78.3462 C   0  0  0  0  0  0  0  0  0  0  0  0
   -7.7450  -40.2179  -77.6367 N   0  0  0  0  0  0  0  0  0  0  0  0
   -8.3835  -39.5649  -76.6611 N   0  0  0  0  0  0  0  0  0  0  0  0
  -10.0731  -41.0639  -77.6682 S   0  0  0  0  0  0  0  0  0  0  0  0
  -12.3253  -40.0122  -75.6125 N   0  0  0  0  0  0  0  0  0  0  0  0
  -10.3273  -39.5779  -74.0012 O   0  0  0  0  0  0  0  0  0  0  0  0
  -10.9496  -37.8145  -75.6174 O   0  0  0  0  0  0  0  0  0  0  0  0
  -10.8605  -39.2830  -75.3680 S   0  0  0  0  0  0  0  0  0  0  0  0
  -12.2403  -41.0133  -75.4365 H   0  0  0  0  0  0  0  0  0  0  0  0
  -12.6241  -39.8605  -76.5758 H   0  0  0  0  0  0  0  0  0  0  0  0
   -7.8111  -43.3521  -79.3074 C   0  0  0  0  0  0  0  0  0  0  0  0
   -7.3196  -44.1668  -80.5128 C   0  0  0  0  0  0  0  0  0  0  0  0
   -8.0358  -41.9398  -79.4333 N   0  0  0  0  0  0  0  0  0  0  0  0
   -7.9969  -43.9191  -78.2693 O   0  0  0  0  0  0  0  0  0  0  0  0
   -7.8721  -41.5139  -80.3057 H   0  0  0  0  0  0  0  0  0  0  0  0
  1  4  2  0  0  0
  1  9  1  0  0  0
  1  5  1  0  0  0
  2  3  2  0  0  0
  2 14  1  0  0  0
  2  5  1  0  0  0
 12 13  1  0  0  0
 12 14  1  0  0  0
 12 15  2  0  0  0
  6  9  1  0  0  0
  3  4  1  0  0  0
  7  9  2  0  0  0
  8  9  2  0  0  0
  6 10  1  0  0  0
  6 11  1  0  0  0
 14 16  1  0  0  0
M  END
> <minimizedAffinity>
-5.03641

$$$$
4YGF_AZM_A_303


 16 16  0  0  0  0  0  0  0  0999 V2000
   -8.3483  -42.6771  -79.6516 C   0  0  0  0  0  0  0  0  0  0  0  0
   -8.6795  -40.8093  -78.0050 C   0  0  0  0  0  0  0  0  0  0  0  0
   -7.5236  -41.5287  -77.8721 N   0  0  0  0  0  0  0  0  0  0  0  0
   -7.3465  -42.5278  -78.7418 N   0  0  0  0  0  0  0  0  0  0  0  0
   -9.5263  -41.5184  -79.3301 S   0  0  0  0  0  0  0  0  0  0  0  0
   -7.0982  -44.7261  -81.0597 N   0  0  0  0  0  0  0  0  0  0  0  0
   -9.6541  -44.7374  -80.5659 O   0  0  0  0  0  0  0  0  0  0  0  0
   -8.7680  -43.0910  -82.1823 O   0  0  0  0  0  0  0  0  0  0  0  0
   -8.5001  -43.8572  -80.9302 S   0  0  0  0  0  0  0  0  0  0  0  0
   -6.9359  -45.2406  -80.1940 H   0  0  0  0  0  0  0  0  0  0  0  0
   -6.3186  -44.0904  -81.2286 H   0  0  0  0  0  0  0  0  0  0  0  0
  -10.2955  -39.7137  -76.4092 C   0  0  0  0  0  0  0  0  0  0  0  0
  -10.6861  -38.4849  -75.5751 C   0  0  0  0  0  0  0  0  0  0  0  0
   -9.0973  -39.6987  -77.1999 N   0  0  0  0  0  0  0  0  0  0  0  0
  -11.0108  -40.6736  -76.3859 O   0  0  0  0  0  0  0  0  0  0  0  0
   -8.5371  -38.8893  -77.1888 H   0  0  0  0  0  0  0  0  0  0  0  0
  1  4  2  0  0  0
  1  9  1  0  0  0
  1  5  1  0  0  0
  2  3  2  0  0  0
  2 14  1  0  0  0
  2  5  1  0  0  0
 12 13  1  0  0  0
 12 14  1  0  0  0
 12 15  2  0  0  0
  6  9  1  0  0  0
  3  4  1  0  0  0
  7  9  2  0  0  0
  8  9  2  0  0  0
  6 10  1  0  0  0
  6 11  1  0  0  0
 14 16  1  0  0  0
M  END
> <minimizedAffinity>
-4.91757

$$$$
