3EXH_TPP_A_1502


 31 32  0  0  0  0  0  0  0  0999 V2000
  -33.7094   61.4126   22.0365 N   0  0  0  0  0  0  0  0  0  0  0  0
  -32.6843   60.5167   21.7431 C   0  0  0  0  0  0  0  0  0  0  0  0
  -31.2451   61.2245   21.8622 S   0  0  0  0  0  0  0  0  0  0  0  0
  -31.8462   62.6678   22.3245 C   0  0  0  0  0  0  0  0  0  0  0  0
  -33.2414   62.6767   22.3927 C   0  0  0  0  0  0  0  0  0  0  0  0
  -34.0471   63.8847   22.7498 C   0  0  0  0  0  0  0  0  0  0  0  0
  -35.0653   60.9385   21.9714 C   0  0  0  0  0  0  0  0  0  0  0  0
  -35.4406   60.0214   18.3770 N   0  0  0  0  0  0  0  0  0  0  0  0
  -36.2745   60.9742   17.8654 C   0  0  0  0  0  0  0  0  0  0  0  0
  -36.6557   60.9024   16.3908 C   0  0  0  0  0  0  0  0  0  0  0  0
  -36.7251   61.9826   18.7236 N   0  0  0  0  0  0  0  0  0  0  0  0
  -36.3748   62.0390   20.0524 C   0  0  0  0  0  0  0  0  0  0  0  0
  -36.8698   63.0162   20.7956 N   0  0  0  0  0  0  0  0  0  0  0  0
  -35.5395   61.0440   20.5385 C   0  0  0  0  0  0  0  0  0  0  0  0
  -35.0925   60.0684   19.6834 C   0  0  0  0  0  0  0  0  0  0  0  0
  -37.4582   63.6934   20.3902 H   0  0  0  0  0  0  0  0  0  0  0  0
  -36.6494   63.0658   21.7539 H   0  0  0  0  0  0  0  0  0  0  0  0
  -30.8316   63.7401   22.6146 C   0  0  0  0  0  0  0  0  0  0  0  0
  -30.2587   64.2080   21.2657 C   0  0  0  0  0  0  0  0  0  0  0  0
  -29.4224   65.3271   21.4838 O   0  0  0  0  0  0  0  0  0  0  0  0
  -29.0179   66.5400   20.5027 P   0  0  0  0  0  0  0  0  0  0  0  0
  -29.7269   66.5337   19.1609 O   0  0  0  0  0  0  0  0  0  0  0  0
  -27.5391   66.6432   20.3767 O   0  0  0  0  0  0  0  0  0  0  0  0
  -27.1929   65.8377   19.9618 H   0  0  0  0  0  0  0  0  0  0  0  0
  -29.7278   67.8187   21.1801 O   0  0  0  0  0  0  0  0  0  0  0  0
  -28.9974   69.0475   21.9557 P   0  0  0  0  0  0  0  0  0  0  0  0
  -28.6335   68.5351   23.3162 O   0  0  0  0  0  0  0  0  0  0  0  0
  -27.6982   69.2622   21.2036 O   0  0  0  0  0  0  0  0  0  0  0  0
  -29.8234   70.2866   22.0052 O   0  0  0  0  0  0  0  0  0  0  0  0
  -27.1903   68.4359   21.1932 H   0  0  0  0  0  0  0  0  0  0  0  0
  -30.6431   70.1095   22.4927 H   0  0  0  0  0  0  0  0  0  0  0  0
  8  9  2  0  0  0
  8 15  1  0  0  0
  9 10  1  0  0  0
  9 11  1  0  0  0
 11 12  2  0  0  0
 12 13  1  0  0  0
 12 14  1  0  0  0
 14 15  2  0  0  0
 14  7  1  0  0  0
  7  1  1  0  0  0
  1  2  2  0  0  0
  1  5  1  0  0  0
  2  3  1  0  0  0
  3  4  1  0  0  0
  4  5  2  0  0  0
  4 18  1  0  0  0
  5  6  1  0  0  0
 18 19  1  0  0  0
 19 20  1  0  0  0
 20 21  1  0  0  0
 21 22  2  0  0  0
 21 23  1  0  0  0
 21 25  1  0  0  0
 25 26  1  0  0  0
 26 27  2  0  0  0
 26 28  1  0  0  0
 26 29  1  0  0  0
 13 16  1  0  0  0
 13 17  1  0  0  0
 23 24  1  0  0  0
 28 30  1  0  0  0
 29 31  1  0  0  0
M  CHG 1   1   1
M  END
> <minimizedAffinity>
-10.27374

$$$$
3EXH_TPP_A_1502


 31 32  0  0  0  0  0  0  0  0999 V2000
  -33.3128   62.2816   23.4389 N   0  0  0  0  0  0  0  0  0  0  0  0
  -32.3141   62.2316   22.4694 C   0  0  0  0  0  0  0  0  0  0  0  0
  -31.2164   63.3821   22.7093 S   0  0  0  0  0  0  0  0  0  0  0  0
  -31.9259   63.9618   24.0579 C   0  0  0  0  0  0  0  0  0  0  0  0
  -33.0995   63.2799   24.3883 C   0  0  0  0  0  0  0  0  0  0  0  0
  -33.9666   63.6367   25.5532 C   0  0  0  0  0  0  0  0  0  0  0  0
  -34.3791   61.3196   23.3660 C   0  0  0  0  0  0  0  0  0  0  0  0
  -34.8280   60.0951   19.8730 N   0  0  0  0  0  0  0  0  0  0  0  0
  -35.7099   60.9743   19.3123 C   0  0  0  0  0  0  0  0  0  0  0  0
  -36.1319   60.7677   17.8617 C   0  0  0  0  0  0  0  0  0  0  0  0
  -36.1702   62.0351   20.0991 N   0  0  0  0  0  0  0  0  0  0  0  0
  -35.7830   62.2132   21.4067 C   0  0  0  0  0  0  0  0  0  0  0  0
  -36.2900   63.2320   22.0830 N   0  0  0  0  0  0  0  0  0  0  0  0
  -34.8989   61.2901   21.9454 C   0  0  0  0  0  0  0  0  0  0  0  0
  -34.4432   60.2620   21.1592 C   0  0  0  0  0  0  0  0  0  0  0  0
  -36.9138   63.8535   21.6426 H   0  0  0  0  0  0  0  0  0  0  0  0
  -36.0432   63.3683   23.0262 H   0  0  0  0  0  0  0  0  0  0  0  0
  -31.2187   65.1050   24.7334 C   0  0  0  0  0  0  0  0  0  0  0  0
  -29.9100   65.3549   23.9644 C   0  0  0  0  0  0  0  0  0  0  0  0
  -29.7595   66.7445   23.7507 O   0  0  0  0  0  0  0  0  0  0  0  0
  -28.9406   67.5480   22.6189 P   0  0  0  0  0  0  0  0  0  0  0  0
  -28.6116   66.7377   21.3786 O   0  0  0  0  0  0  0  0  0  0  0  0
  -27.7491   68.2168   23.2076 O   0  0  0  0  0  0  0  0  0  0  0  0
  -27.1393   67.5460   23.5526 H   0  0  0  0  0  0  0  0  0  0  0  0
  -30.0422   68.5515   22.0047 O   0  0  0  0  0  0  0  0  0  0  0  0
  -29.7645   69.9477   21.2182 P   0  0  0  0  0  0  0  0  0  0  0  0
  -28.2773   70.1287   21.1857 O   0  0  0  0  0  0  0  0  0  0  0  0
  -30.2076   69.6832   19.7923 O   0  0  0  0  0  0  0  0  0  0  0  0
  -30.4769   71.1119   21.8158 O   0  0  0  0  0  0  0  0  0  0  0  0
  -29.7231   68.9207   19.4393 H   0  0  0  0  0  0  0  0  0  0  0  0
  -30.1673   71.2486   22.7248 H   0  0  0  0  0  0  0  0  0  0  0  0
  8  9  2  0  0  0
  8 15  1  0  0  0
  9 10  1  0  0  0
  9 11  1  0  0  0
 11 12  2  0  0  0
 12 13  1  0  0  0
 12 14  1  0  0  0
 14 15  2  0  0  0
 14  7  1  0  0  0
  7  1  1  0  0  0
  1  2  2  0  0  0
  1  5  1  0  0  0
  2  3  1  0  0  0
  3  4  1  0  0  0
  4  5  2  0  0  0
  4 18  1  0  0  0
  5  6  1  0  0  0
 18 19  1  0  0  0
 19 20  1  0  0  0
 20 21  1  0  0  0
 21 22  2  0  0  0
 21 23  1  0  0  0
 21 25  1  0  0  0
 25 26  1  0  0  0
 26 27  2  0  0  0
 26 28  1  0  0  0
 26 29  1  0  0  0
 13 16  1  0  0  0
 13 17  1  0  0  0
 23 24  1  0  0  0
 28 30  1  0  0  0
 29 31  1  0  0  0
M  CHG 1   1   1
M  END
> <minimizedAffinity>
-8.75114

$$$$
3EXH_TPP_A_1502


 31 32  0  0  0  0  0  0  0  0999 V2000
  -33.6449   61.3640   21.9075 N   0  0  0  0  0  0  0  0  0  0  0  0
  -32.6304   60.4299   21.7124 C   0  0  0  0  0  0  0  0  0  0  0  0
  -31.1831   61.1296   21.7567 S   0  0  0  0  0  0  0  0  0  0  0  0
  -31.7670   62.6209   22.0617 C   0  0  0  0  0  0  0  0  0  0  0  0
  -33.1621   62.6533   22.1273 C   0  0  0  0  0  0  0  0  0  0  0  0
  -33.9535   63.9018   22.3526 C   0  0  0  0  0  0  0  0  0  0  0  0
  -35.0063   60.9015   21.8920 C   0  0  0  0  0  0  0  0  0  0  0  0
  -35.5006   59.9934   18.3097 N   0  0  0  0  0  0  0  0  0  0  0  0
  -36.3577   60.9426   17.8306 C   0  0  0  0  0  0  0  0  0  0  0  0
  -36.7894   60.8731   16.3699 C   0  0  0  0  0  0  0  0  0  0  0  0
  -36.7844   61.9453   18.7074 N   0  0  0  0  0  0  0  0  0  0  0  0
  -36.3886   61.9997   20.0234 C   0  0  0  0  0  0  0  0  0  0  0  0
  -36.8635   62.9714   20.7867 N   0  0  0  0  0  0  0  0  0  0  0  0
  -35.5306   61.0085   20.4768 C   0  0  0  0  0  0  0  0  0  0  0  0
  -35.1075   60.0385   19.6034 C   0  0  0  0  0  0  0  0  0  0  0  0
  -37.4699   63.6461   20.4043 H   0  0  0  0  0  0  0  0  0  0  0  0
  -36.6103   63.0193   21.7369 H   0  0  0  0  0  0  0  0  0  0  0  0
  -30.7399   63.7061   22.2367 C   0  0  0  0  0  0  0  0  0  0  0  0
  -30.3326   64.1843   20.8325 C   0  0  0  0  0  0  0  0  0  0  0  0
  -29.2036   65.0285   20.9429 O   0  0  0  0  0  0  0  0  0  0  0  0
  -29.0209   66.5873   20.5768 P   0  0  0  0  0  0  0  0  0  0  0  0
  -27.6329   66.9671   20.0949 O   0  0  0  0  0  0  0  0  0  0  0  0
  -29.5043   67.4486   21.6895 O   0  0  0  0  0  0  0  0  0  0  0  0
  -28.9604   67.2941   22.4777 H   0  0  0  0  0  0  0  0  0  0  0  0
  -29.8406   66.7440   19.1980 O   0  0  0  0  0  0  0  0  0  0  0  0
  -31.2422   67.5388   18.9769 P   0  0  0  0  0  0  0  0  0  0  0  0
  -32.3375   66.5549   19.2564 O   0  0  0  0  0  0  0  0  0  0  0  0
  -31.2818   68.5698   20.0882 O   0  0  0  0  0  0  0  0  0  0  0  0
  -31.3572   68.1666   17.6306 O   0  0  0  0  0  0  0  0  0  0  0  0
  -31.2045   68.1238   20.9460 H   0  0  0  0  0  0  0  0  0  0  0  0
  -31.3280   67.4772   16.9488 H   0  0  0  0  0  0  0  0  0  0  0  0
  8  9  2  0  0  0
  8 15  1  0  0  0
  9 10  1  0  0  0
  9 11  1  0  0  0
 11 12  2  0  0  0
 12 13  1  0  0  0
 12 14  1  0  0  0
 14 15  2  0  0  0
 14  7  1  0  0  0
  7  1  1  0  0  0
  1  2  2  0  0  0
  1  5  1  0  0  0
  2  3  1  0  0  0
  3  4  1  0  0  0
  4  5  2  0  0  0
  4 18  1  0  0  0
  5  6  1  0  0  0
 18 19  1  0  0  0
 19 20  1  0  0  0
 20 21  1  0  0  0
 21 22  2  0  0  0
 21 23  1  0  0  0
 21 25  1  0  0  0
 25 26  1  0  0  0
 26 27  2  0  0  0
 26 28  1  0  0  0
 26 29  1  0  0  0
 13 16  1  0  0  0
 13 17  1  0  0  0
 23 24  1  0  0  0
 28 30  1  0  0  0
 29 31  1  0  0  0
M  CHG 1   1   1
M  END
> <minimizedAffinity>
-8.43287

$$$$
3EXH_TPP_A_1502


 31 32  0  0  0  0  0  0  0  0999 V2000
  -32.1697   62.6451   22.9443 N   0  0  0  0  0  0  0  0  0  0  0  0
  -31.4725   62.5527   21.7423 C   0  0  0  0  0  0  0  0  0  0  0  0
  -30.3705   63.7177   21.6213 S   0  0  0  0  0  0  0  0  0  0  0  0
  -30.6949   64.3583   23.0849 C   0  0  0  0  0  0  0  0  0  0  0  0
  -31.7224   63.6884   23.7536 C   0  0  0  0  0  0  0  0  0  0  0  0
  -32.2449   64.0970   25.0938 C   0  0  0  0  0  0  0  0  0  0  0  0
  -33.1991   61.6765   23.2088 C   0  0  0  0  0  0  0  0  0  0  0  0
  -34.2857   60.2208   19.9526 N   0  0  0  0  0  0  0  0  0  0  0  0
  -35.3833   60.9526   19.5993 C   0  0  0  0  0  0  0  0  0  0  0  0
  -36.1016   60.6181   18.2966 C   0  0  0  0  0  0  0  0  0  0  0  0
  -35.7838   61.9888   20.4492 N   0  0  0  0  0  0  0  0  0  0  0  0
  -35.1286   62.2831   21.6220 C   0  0  0  0  0  0  0  0  0  0  0  0
  -35.5943   63.2659   22.3768 N   0  0  0  0  0  0  0  0  0  0  0  0
  -34.0282   61.5069   21.9545 C   0  0  0  0  0  0  0  0  0  0  0  0
  -33.6364   60.5026   21.1055 C   0  0  0  0  0  0  0  0  0  0  0  0
  -36.3808   63.7808   22.0844 H   0  0  0  0  0  0  0  0  0  0  0  0
  -35.1541   63.4820   23.2305 H   0  0  0  0  0  0  0  0  0  0  0  0
  -29.8497   65.5352   23.4896 C   0  0  0  0  0  0  0  0  0  0  0  0
  -29.0732   65.9938   22.2433 C   0  0  0  0  0  0  0  0  0  0  0  0
  -29.5259   67.2790   21.8656 O   0  0  0  0  0  0  0  0  0  0  0  0
  -28.9732   68.7415   22.2564 P   0  0  0  0  0  0  0  0  0  0  0  0
  -28.0149   69.3477   21.2477 O   0  0  0  0  0  0  0  0  0  0  0  0
  -28.4348   68.7464   23.6433 O   0  0  0  0  0  0  0  0  0  0  0  0
  -27.6717   68.1499   23.6961 H   0  0  0  0  0  0  0  0  0  0  0  0
  -30.2513   69.6959   22.0259 O   0  0  0  0  0  0  0  0  0  0  0  0
  -30.8943   70.1442   20.6010 P   0  0  0  0  0  0  0  0  0  0  0  0
  -32.2983   70.5830   20.8874 O   0  0  0  0  0  0  0  0  0  0  0  0
  -30.1185   71.3836   20.1992 O   0  0  0  0  0  0  0  0  0  0  0  0
  -30.8209   69.0799   19.5609 O   0  0  0  0  0  0  0  0  0  0  0  0
  -30.1902   72.0511   20.8994 H   0  0  0  0  0  0  0  0  0  0  0  0
  -31.3275   68.3062   19.8535 H   0  0  0  0  0  0  0  0  0  0  0  0
  8  9  2  0  0  0
  8 15  1  0  0  0
  9 10  1  0  0  0
  9 11  1  0  0  0
 11 12  2  0  0  0
 12 13  1  0  0  0
 12 14  1  0  0  0
 14 15  2  0  0  0
 14  7  1  0  0  0
  7  1  1  0  0  0
  1  2  2  0  0  0
  1  5  1  0  0  0
  2  3  1  0  0  0
  3  4  1  0  0  0
  4  5  2  0  0  0
  4 18  1  0  0  0
  5  6  1  0  0  0
 18 19  1  0  0  0
 19 20  1  0  0  0
 20 21  1  0  0  0
 21 22  2  0  0  0
 21 23  1  0  0  0
 21 25  1  0  0  0
 25 26  1  0  0  0
 26 27  2  0  0  0
 26 28  1  0  0  0
 26 29  1  0  0  0
 13 16  1  0  0  0
 13 17  1  0  0  0
 23 24  1  0  0  0
 28 30  1  0  0  0
 29 31  1  0  0  0
M  CHG 1   1   1
M  END
> <minimizedAffinity>
-8.31788

$$$$
3EXH_TPP_A_1502


 31 32  0  0  0  0  0  0  0  0999 V2000
  -32.6153   62.4212   23.0583 N   0  0  0  0  0  0  0  0  0  0  0  0
  -31.6363   62.1239   22.1134 C   0  0  0  0  0  0  0  0  0  0  0  0
  -30.4824   63.2441   22.1034 S   0  0  0  0  0  0  0  0  0  0  0  0
  -31.1416   64.1229   23.3080 C   0  0  0  0  0  0  0  0  0  0  0  0
  -32.3400   63.5819   23.7798 C   0  0  0  0  0  0  0  0  0  0  0  0
  -33.1701   64.2128   24.8518 C   0  0  0  0  0  0  0  0  0  0  0  0
  -33.7262   61.5182   23.1927 C   0  0  0  0  0  0  0  0  0  0  0  0
  -34.5827   60.1923   19.8147 N   0  0  0  0  0  0  0  0  0  0  0  0
  -35.5789   61.0122   19.3671 C   0  0  0  0  0  0  0  0  0  0  0  0
  -36.1837   60.7511   17.9921 C   0  0  0  0  0  0  0  0  0  0  0  0
  -35.9834   62.0661   20.1930 N   0  0  0  0  0  0  0  0  0  0  0  0
  -35.4309   62.2938   21.4317 C   0  0  0  0  0  0  0  0  0  0  0  0
  -35.8945   63.3007   22.1553 N   0  0  0  0  0  0  0  0  0  0  0  0
  -34.4332   61.4295   21.8579 C   0  0  0  0  0  0  0  0  0  0  0  0
  -34.0350   60.4081   21.0328 C   0  0  0  0  0  0  0  0  0  0  0  0
  -36.6051   63.8793   21.7954 H   0  0  0  0  0  0  0  0  0  0  0  0
  -35.5286   63.4711   23.0532 H   0  0  0  0  0  0  0  0  0  0  0  0
  -30.3709   65.3446   23.7283 C   0  0  0  0  0  0  0  0  0  0  0  0
  -29.2150   65.5253   22.7293 C   0  0  0  0  0  0  0  0  0  0  0  0
  -29.7390   65.9739   21.4950 O   0  0  0  0  0  0  0  0  0  0  0  0
  -29.0769   66.8905   20.3466 P   0  0  0  0  0  0  0  0  0  0  0  0
  -29.7355   66.7744   18.9843 O   0  0  0  0  0  0  0  0  0  0  0  0
  -27.6037   66.6888   20.2976 O   0  0  0  0  0  0  0  0  0  0  0  0
  -27.4110   65.7708   20.0505 H   0  0  0  0  0  0  0  0  0  0  0  0
  -29.5404   68.3812   20.7474 O   0  0  0  0  0  0  0  0  0  0  0  0
  -28.6257   69.5415   21.4272 P   0  0  0  0  0  0  0  0  0  0  0  0
  -29.4125   70.8134   21.3319 O   0  0  0  0  0  0  0  0  0  0  0  0
  -28.5613   69.1721   22.8966 O   0  0  0  0  0  0  0  0  0  0  0  0
  -27.2691   69.6526   20.8211 O   0  0  0  0  0  0  0  0  0  0  0  0
  -29.4609   69.1095   23.2540 H   0  0  0  0  0  0  0  0  0  0  0  0
  -27.3521   69.8894   19.8841 H   0  0  0  0  0  0  0  0  0  0  0  0
  8  9  2  0  0  0
  8 15  1  0  0  0
  9 10  1  0  0  0
  9 11  1  0  0  0
 11 12  2  0  0  0
 12 13  1  0  0  0
 12 14  1  0  0  0
 14 15  2  0  0  0
 14  7  1  0  0  0
  7  1  1  0  0  0
  1  2  2  0  0  0
  1  5  1  0  0  0
  2  3  1  0  0  0
  3  4  1  0  0  0
  4  5  2  0  0  0
  4 18  1  0  0  0
  5  6  1  0  0  0
 18 19  1  0  0  0
 19 20  1  0  0  0
 20 21  1  0  0  0
 21 22  2  0  0  0
 21 23  1  0  0  0
 21 25  1  0  0  0
 25 26  1  0  0  0
 26 27  2  0  0  0
 26 28  1  0  0  0
 26 29  1  0  0  0
 13 16  1  0  0  0
 13 17  1  0  0  0
 23 24  1  0  0  0
 28 30  1  0  0  0
 29 31  1  0  0  0
M  CHG 1   1   1
M  END
> <minimizedAffinity>
-8.01669

$$$$
3EXH_TPP_A_1502


 31 32  0  0  0  0  0  0  0  0999 V2000
  -30.2542   64.3319   22.1787 N   0  0  0  0  0  0  0  0  0  0  0  0
  -29.6558   65.1784   23.1087 C   0  0  0  0  0  0  0  0  0  0  0  0
  -29.0190   66.4690   22.3909 S   0  0  0  0  0  0  0  0  0  0  0  0
  -29.5022   66.0392   20.8944 C   0  0  0  0  0  0  0  0  0  0  0  0
  -30.1878   64.8223   20.8753 C   0  0  0  0  0  0  0  0  0  0  0  0
  -30.7018   64.1788   19.6271 C   0  0  0  0  0  0  0  0  0  0  0  0
  -30.8698   63.1237   22.6572 C   0  0  0  0  0  0  0  0  0  0  0  0
  -34.5533   63.6169   22.3556 N   0  0  0  0  0  0  0  0  0  0  0  0
  -34.9575   63.9589   23.6144 C   0  0  0  0  0  0  0  0  0  0  0  0
  -36.4368   64.2328   23.8625 C   0  0  0  0  0  0  0  0  0  0  0  0
  -33.9835   64.0568   24.6135 N   0  0  0  0  0  0  0  0  0  0  0  0
  -32.6512   63.8084   24.3795 C   0  0  0  0  0  0  0  0  0  0  0  0
  -31.8036   63.9008   25.3920 N   0  0  0  0  0  0  0  0  0  0  0  0
  -32.2824   63.4477   23.0919 C   0  0  0  0  0  0  0  0  0  0  0  0
  -33.2449   63.3692   22.1171 C   0  0  0  0  0  0  0  0  0  0  0  0
  -32.1285   64.1623   26.2838 H   0  0  0  0  0  0  0  0  0  0  0  0
  -30.8481   63.7081   25.2533 H   0  0  0  0  0  0  0  0  0  0  0  0
  -29.1578   67.0016   19.7905 C   0  0  0  0  0  0  0  0  0  0  0  0
  -30.4504   67.7415   19.4057 C   0  0  0  0  0  0  0  0  0  0  0  0
  -30.7370   68.7121   20.3934 O   0  0  0  0  0  0  0  0  0  0  0  0
  -31.2720   70.2256   20.2511 P   0  0  0  0  0  0  0  0  0  0  0  0
  -32.6964   70.4422   20.7278 O   0  0  0  0  0  0  0  0  0  0  0  0
  -31.0366   70.7390   18.8747 O   0  0  0  0  0  0  0  0  0  0  0  0
  -31.5505   70.2137   18.2414 H   0  0  0  0  0  0  0  0  0  0  0  0
  -30.4742   71.0124   21.4097 O   0  0  0  0  0  0  0  0  0  0  0  0
  -28.8670   71.0222   21.6585 P   0  0  0  0  0  0  0  0  0  0  0  0
  -28.5877   69.9567   22.6747 O   0  0  0  0  0  0  0  0  0  0  0  0
  -28.2696   70.5486   20.3477 O   0  0  0  0  0  0  0  0  0  0  0  0
  -28.3414   72.3574   22.0598 O   0  0  0  0  0  0  0  0  0  0  0  0
  -28.6352   69.6791   20.1212 H   0  0  0  0  0  0  0  0  0  0  0  0
  -28.7458   72.6249   22.8999 H   0  0  0  0  0  0  0  0  0  0  0  0
  8  9  2  0  0  0
  8 15  1  0  0  0
  9 10  1  0  0  0
  9 11  1  0  0  0
 11 12  2  0  0  0
 12 13  1  0  0  0
 12 14  1  0  0  0
 14 15  2  0  0  0
 14  7  1  0  0  0
  7  1  1  0  0  0
  1  2  2  0  0  0
  1  5  1  0  0  0
  2  3  1  0  0  0
  3  4  1  0  0  0
  4  5  2  0  0  0
  4 18  1  0  0  0
  5  6  1  0  0  0
 18 19  1  0  0  0
 19 20  1  0  0  0
 20 21  1  0  0  0
 21 22  2  0  0  0
 21 23  1  0  0  0
 21 25  1  0  0  0
 25 26  1  0  0  0
 26 27  2  0  0  0
 26 28  1  0  0  0
 26 29  1  0  0  0
 13 16  1  0  0  0
 13 17  1  0  0  0
 23 24  1  0  0  0
 28 30  1  0  0  0
 29 31  1  0  0  0
M  CHG 1   1   1
M  END
> <minimizedAffinity>
-7.35747

$$$$
