2XDK_XDK_A_1226


 15 16  0  0  0  0  0  0  0  0999 V2000
    7.1768    0.1200    9.5975 C   0  0  0  0  0  0  0  0  0  0  0  0
    7.9965   -0.8512    9.1648 N   0  0  0  0  0  0  0  0  0  0  0  0
    6.8309    1.1797    8.7791 C   0  0  0  0  0  0  0  0  0  0  0  0
    7.3389    1.2224    7.5015 C   0  0  0  0  0  0  0  0  0  0  0  0
    8.1534    0.2689    7.0480 N   0  0  0  0  0  0  0  0  0  0  0  0
    8.4519   -0.7453    7.8943 C   0  0  0  0  0  0  0  0  0  0  0  0
    9.2749   -1.7449    7.4320 N   0  0  0  0  0  0  0  0  0  0  0  0
    9.5130   -2.4978    8.0199 H   0  0  0  0  0  0  0  0  0  0  0  0
    9.6262   -1.7077    6.5130 H   0  0  0  0  0  0  0  0  0  0  0  0
    5.8018    0.9238   13.0087 C   0  0  0  0  0  0  0  0  0  0  0  0
    5.7281   -0.3513   13.5390 C   0  0  0  0  0  0  0  0  0  0  0  0
    6.0820   -1.4387   12.8449 N   0  0  0  0  0  0  0  0  0  0  0  0
    6.5418   -1.2643   11.5962 C   0  0  0  0  0  0  0  0  0  0  0  0
    6.6578   -0.0156   10.9873 C   0  0  0  0  0  0  0  0  0  0  0  0
    6.2766    1.0977   11.7256 C   0  0  0  0  0  0  0  0  0  0  0  0
 10 11  1  0  0  0
 10 15  2  0  0  0
 11 12  2  0  0  0
 12 13  1  0  0  0
 13 14  2  0  0  0
 14  1  1  0  0  0
 14 15  1  0  0  0
  1  2  2  0  0  0
  1  3  1  0  0  0
  2  6  1  0  0  0
  3  4  2  0  0  0
  4  5  1  0  0  0
  5  6  2  0  0  0
  6  7  1  0  0  0
  7  8  1  0  0  0
  7  9  1  0  0  0
M  END
> <minimizedAffinity>
-6.47044

$$$$
2XDK_XDK_A_1226


 15 16  0  0  0  0  0  0  0  0999 V2000
    6.8929    0.3484   10.4100 C   0  0  0  0  0  0  0  0  0  0  0  0
    6.2656    0.2646   11.5941 N   0  0  0  0  0  0  0  0  0  0  0  0
    7.6231   -0.7151    9.9120 C   0  0  0  0  0  0  0  0  0  0  0  0
    7.6940   -1.8731   10.6511 C   0  0  0  0  0  0  0  0  0  0  0  0
    7.0783   -1.9814   11.8290 N   0  0  0  0  0  0  0  0  0  0  0  0
    6.3750   -0.9081   12.2616 C   0  0  0  0  0  0  0  0  0  0  0  0
    5.7193   -1.0142   13.4654 N   0  0  0  0  0  0  0  0  0  0  0  0
    5.1983   -0.2536   13.8108 H   0  0  0  0  0  0  0  0  0  0  0  0
    5.7708   -1.8507   13.9820 H   0  0  0  0  0  0  0  0  0  0  0  0
    6.2189    3.9587    9.5832 C   0  0  0  0  0  0  0  0  0  0  0  0
    6.4910    3.9443    8.2274 C   0  0  0  0  0  0  0  0  0  0  0  0
    6.8920    2.8400    7.5876 N   0  0  0  0  0  0  0  0  0  0  0  0
    7.0097    1.7092    8.3008 C   0  0  0  0  0  0  0  0  0  0  0  0
    6.7472    1.6318    9.6677 C   0  0  0  0  0  0  0  0  0  0  0  0
    6.3399    2.7936   10.3111 C   0  0  0  0  0  0  0  0  0  0  0  0
 10 11  1  0  0  0
 10 15  2  0  0  0
 11 12  2  0  0  0
 12 13  1  0  0  0
 13 14  2  0  0  0
 14  1  1  0  0  0
 14 15  1  0  0  0
  1  2  2  0  0  0
  1  3  1  0  0  0
  2  6  1  0  0  0
  3  4  2  0  0  0
  4  5  1  0  0  0
  5  6  2  0  0  0
  6  7  1  0  0  0
  7  8  1  0  0  0
  7  9  1  0  0  0
M  END
> <minimizedAffinity>
-6.33561

$$$$
2XDK_XDK_A_1226


 15 16  0  0  0  0  0  0  0  0999 V2000
    6.9757    0.1473   10.7404 C   0  0  0  0  0  0  0  0  0  0  0  0
    6.6427   -0.7646   11.6678 N   0  0  0  0  0  0  0  0  0  0  0  0
    6.7155    1.4915   10.9350 C   0  0  0  0  0  0  0  0  0  0  0  0
    6.1099    1.8857   12.1054 C   0  0  0  0  0  0  0  0  0  0  0  0
    5.7711    0.9993   13.0424 N   0  0  0  0  0  0  0  0  0  0  0  0
    6.0557   -0.3017   12.7965 C   0  0  0  0  0  0  0  0  0  0  0  0
    5.7293   -1.2231   13.7633 N   0  0  0  0  0  0  0  0  0  0  0  0
    5.9217   -2.1777   13.6185 H   0  0  0  0  0  0  0  0  0  0  0  0
    5.3032   -0.9283   14.6004 H   0  0  0  0  0  0  0  0  0  0  0  0
    9.1527   -1.8517    8.4087 C   0  0  0  0  0  0  0  0  0  0  0  0
    8.8410   -1.2362    7.2102 C   0  0  0  0  0  0  0  0  0  0  0  0
    7.9601   -0.2328    7.1265 N   0  0  0  0  0  0  0  0  0  0  0  0
    7.3825    0.1915    8.2611 C   0  0  0  0  0  0  0  0  0  0  0  0
    7.6452   -0.3648    9.5121 C   0  0  0  0  0  0  0  0  0  0  0  0
    8.5575   -1.4107    9.5719 C   0  0  0  0  0  0  0  0  0  0  0  0
 10 11  1  0  0  0
 10 15  2  0  0  0
 11 12  2  0  0  0
 12 13  1  0  0  0
 13 14  2  0  0  0
 14  1  1  0  0  0
 14 15  1  0  0  0
  1  2  2  0  0  0
  1  3  1  0  0  0
  2  6  1  0  0  0
  3  4  2  0  0  0
  4  5  1  0  0  0
  5  6  2  0  0  0
  6  7  1  0  0  0
  7  8  1  0  0  0
  7  9  1  0  0  0
M  END
> <minimizedAffinity>
-6.33392

$$$$
2XDK_XDK_A_1226


 15 16  0  0  0  0  0  0  0  0999 V2000
    7.3683   -0.9872    9.6643 C   0  0  0  0  0  0  0  0  0  0  0  0
    6.5345   -0.9537    8.6125 N   0  0  0  0  0  0  0  0  0  0  0  0
    8.6874   -1.3755    9.5177 C   0  0  0  0  0  0  0  0  0  0  0  0
    9.1393   -1.7249    8.2663 C   0  0  0  0  0  0  0  0  0  0  0  0
    8.3311   -1.6981    7.2059 N   0  0  0  0  0  0  0  0  0  0  0  0
    7.0517   -1.3049    7.4117 C   0  0  0  0  0  0  0  0  0  0  0  0
    6.2137   -1.2540    6.3229 N   0  0  0  0  0  0  0  0  0  0  0  0
    5.2770   -0.9726    6.4354 H   0  0  0  0  0  0  0  0  0  0  0  0
    6.5504   -1.4989    5.4307 H   0  0  0  0  0  0  0  0  0  0  0  0
    6.1134    1.1015   12.5339 C   0  0  0  0  0  0  0  0  0  0  0  0
    5.7633    0.0985   13.4194 C   0  0  0  0  0  0  0  0  0  0  0  0
    5.8985   -1.1992   13.1239 N   0  0  0  0  0  0  0  0  0  0  0  0
    6.4130   -1.5199   11.9266 C   0  0  0  0  0  0  0  0  0  0  0  0
    6.8008   -0.5744   10.9784 C   0  0  0  0  0  0  0  0  0  0  0  0
    6.6432    0.7664   11.3056 C   0  0  0  0  0  0  0  0  0  0  0  0
 10 11  1  0  0  0
 10 15  2  0  0  0
 11 12  2  0  0  0
 12 13  1  0  0  0
 13 14  2  0  0  0
 14  1  1  0  0  0
 14 15  1  0  0  0
  1  2  2  0  0  0
  1  3  1  0  0  0
  2  6  1  0  0  0
  3  4  2  0  0  0
  4  5  1  0  0  0
  5  6  2  0  0  0
  6  7  1  0  0  0
  7  8  1  0  0  0
  7  9  1  0  0  0
M  END
> <minimizedAffinity>
-6.17493

$$$$
2XDK_XDK_A_1226


 15 16  0  0  0  0  0  0  0  0999 V2000
    7.0165   -1.0172    8.7448 C   0  0  0  0  0  0  0  0  0  0  0  0
    8.2900   -1.0598    8.3221 N   0  0  0  0  0  0  0  0  0  0  0  0
    5.9750   -1.3835    7.9121 C   0  0  0  0  0  0  0  0  0  0  0  0
    6.2652   -1.8015    6.6341 C   0  0  0  0  0  0  0  0  0  0  0  0
    7.5220   -1.8542    6.1914 N   0  0  0  0  0  0  0  0  0  0  0  0
    8.4989   -1.4874    7.0547 C   0  0  0  0  0  0  0  0  0  0  0  0
    9.8004   -1.5562    6.6168 N   0  0  0  0  0  0  0  0  0  0  0  0
   10.5362   -1.2974    7.2174 H   0  0  0  0  0  0  0  0  0  0  0  0
    9.9965   -1.8644    5.7025 H   0  0  0  0  0  0  0  0  0  0  0  0
    6.4518    1.1412   11.7772 C   0  0  0  0  0  0  0  0  0  0  0  0
    6.4041    0.1647   12.7553 C   0  0  0  0  0  0  0  0  0  0  0  0
    6.5276   -1.1377   12.4759 N   0  0  0  0  0  0  0  0  0  0  0  0
    6.7242   -1.4890   11.1956 C   0  0  0  0  0  0  0  0  0  0  0  0
    6.7947   -0.5711   10.1488 C   0  0  0  0  0  0  0  0  0  0  0  0
    6.6556    0.7748   10.4634 C   0  0  0  0  0  0  0  0  0  0  0  0
 10 11  1  0  0  0
 10 15  2  0  0  0
 11 12  2  0  0  0
 12 13  1  0  0  0
 13 14  2  0  0  0
 14  1  1  0  0  0
 14 15  1  0  0  0
  1  2  2  0  0  0
  1  3  1  0  0  0
  2  6  1  0  0  0
  3  4  2  0  0  0
  4  5  1  0  0  0
  5  6  2  0  0  0
  6  7  1  0  0  0
  7  8  1  0  0  0
  7  9  1  0  0  0
M  END
> <minimizedAffinity>
-6.03157

$$$$
2XDK_XDK_A_1226


 15 16  0  0  0  0  0  0  0  0999 V2000
    6.9295   -0.5207   10.3579 C   0  0  0  0  0  0  0  0  0  0  0  0
    6.9493    0.8153   10.4892 N   0  0  0  0  0  0  0  0  0  0  0  0
    6.5955   -1.3379   11.4222 C   0  0  0  0  0  0  0  0  0  0  0  0
    6.2753   -0.7573   12.6274 C   0  0  0  0  0  0  0  0  0  0  0  0
    6.2860    0.5671   12.7824 N   0  0  0  0  0  0  0  0  0  0  0  0
    6.6167    1.3147   11.7028 C   0  0  0  0  0  0  0  0  0  0  0  0
    6.6121    2.6823   11.8443 N   0  0  0  0  0  0  0  0  0  0  0  0
    6.8473    3.2570   11.0804 H   0  0  0  0  0  0  0  0  0  0  0  0
    6.3737    3.0868   12.7096 H   0  0  0  0  0  0  0  0  0  0  0  0
    6.6450   -1.8542    6.8488 C   0  0  0  0  0  0  0  0  0  0  0  0
    7.9821   -2.0712    6.5705 C   0  0  0  0  0  0  0  0  0  0  0  0
    8.9523   -1.7928    7.4485 N   0  0  0  0  0  0  0  0  0  0  0  0
    8.5938   -1.3039    8.6459 C   0  0  0  0  0  0  0  0  0  0  0  0
    7.2707   -1.0634    9.0131 C   0  0  0  0  0  0  0  0  0  0  0  0
    6.2820   -1.3531    8.0813 C   0  0  0  0  0  0  0  0  0  0  0  0
 10 11  1  0  0  0
 10 15  2  0  0  0
 11 12  2  0  0  0
 12 13  1  0  0  0
 13 14  2  0  0  0
 14  1  1  0  0  0
 14 15  1  0  0  0
  1  2  2  0  0  0
  1  3  1  0  0  0
  2  6  1  0  0  0
  3  4  2  0  0  0
  4  5  1  0  0  0
  5  6  2  0  0  0
  6  7  1  0  0  0
  7  8  1  0  0  0
  7  9  1  0  0  0
M  END
> <minimizedAffinity>
-5.86206

$$$$
2XDK_XDK_A_1226


 15 16  0  0  0  0  0  0  0  0999 V2000
    7.1208    0.7368    9.3788 C   0  0  0  0  0  0  0  0  0  0  0  0
    7.9507   -0.0208    8.6442 N   0  0  0  0  0  0  0  0  0  0  0  0
    6.7884    0.3826   10.6735 C   0  0  0  0  0  0  0  0  0  0  0  0
    7.3295   -0.7647   11.2054 C   0  0  0  0  0  0  0  0  0  0  0  0
    8.1576   -1.5329   10.4965 N   0  0  0  0  0  0  0  0  0  0  0  0
    8.4490   -1.1316    9.2364 C   0  0  0  0  0  0  0  0  0  0  0  0
    9.3172   -1.9045    8.5021 N   0  0  0  0  0  0  0  0  0  0  0  0
    9.5516   -1.6430    7.5824 H   0  0  0  0  0  0  0  0  0  0  0  0
    9.7044   -2.7195    8.8960 H   0  0  0  0  0  0  0  0  0  0  0  0
    5.8578    4.2402    8.8277 C   0  0  0  0  0  0  0  0  0  0  0  0
    5.6204    4.1932    7.4661 C   0  0  0  0  0  0  0  0  0  0  0  0
    5.8641    3.1014    6.7324 N   0  0  0  0  0  0  0  0  0  0  0  0
    6.3376    2.0149    7.3620 C   0  0  0  0  0  0  0  0  0  0  0  0
    6.5964    1.9717    8.7311 C   0  0  0  0  0  0  0  0  0  0  0  0
    6.3429    3.1204    9.4700 C   0  0  0  0  0  0  0  0  0  0  0  0
 10 11  1  0  0  0
 10 15  2  0  0  0
 11 12  2  0  0  0
 12 13  1  0  0  0
 13 14  2  0  0  0
 14  1  1  0  0  0
 14 15  1  0  0  0
  1  2  2  0  0  0
  1  3  1  0  0  0
  2  6  1  0  0  0
  3  4  2  0  0  0
  4  5  1  0  0  0
  5  6  2  0  0  0
  6  7  1  0  0  0
  7  8  1  0  0  0
  7  9  1  0  0  0
M  END
> <minimizedAffinity>
-5.84516

$$$$
2XDK_XDK_A_1226


 15 16  0  0  0  0  0  0  0  0999 V2000
    6.5712    2.6430   10.0979 C   0  0  0  0  0  0  0  0  0  0  0  0
    6.2871    1.3719   10.4240 N   0  0  0  0  0  0  0  0  0  0  0  0
    7.2146    3.4820   10.9891 C   0  0  0  0  0  0  0  0  0  0  0  0
    7.5680    2.9900   12.2241 C   0  0  0  0  0  0  0  0  0  0  0  0
    7.2986    1.7309   12.5708 N   0  0  0  0  0  0  0  0  0  0  0  0
    6.6710    0.9565   11.6540 C   0  0  0  0  0  0  0  0  0  0  0  0
    6.4052   -0.3494   11.9921 N   0  0  0  0  0  0  0  0  0  0  0  0
    5.9503   -0.9412   11.3502 H   0  0  0  0  0  0  0  0  0  0  0  0
    6.6698   -0.6926   12.8760 H   0  0  0  0  0  0  0  0  0  0  0  0
    5.1959    4.6815    7.2474 C   0  0  0  0  0  0  0  0  0  0  0  0
    5.4528    3.8198    6.1966 C   0  0  0  0  0  0  0  0  0  0  0  0
    6.0560    2.6382    6.3685 N   0  0  0  0  0  0  0  0  0  0  0  0
    6.3995    2.2845    7.6167 C   0  0  0  0  0  0  0  0  0  0  0  0
    6.1701    3.0867    8.7335 C   0  0  0  0  0  0  0  0  0  0  0  0
    5.5495    4.3124    8.5283 C   0  0  0  0  0  0  0  0  0  0  0  0
 10 11  1  0  0  0
 10 15  2  0  0  0
 11 12  2  0  0  0
 12 13  1  0  0  0
 13 14  2  0  0  0
 14  1  1  0  0  0
 14 15  1  0  0  0
  1  2  2  0  0  0
  1  3  1  0  0  0
  2  6  1  0  0  0
  3  4  2  0  0  0
  4  5  1  0  0  0
  5  6  2  0  0  0
  6  7  1  0  0  0
  7  8  1  0  0  0
  7  9  1  0  0  0
M  END
> <minimizedAffinity>
-5.60971

$$$$
2XDK_XDK_A_1226


 15 16  0  0  0  0  0  0  0  0999 V2000
    6.8213   -0.0977    8.9264 C   0  0  0  0  0  0  0  0  0  0  0  0
    6.4038   -0.5070   10.1349 N   0  0  0  0  0  0  0  0  0  0  0  0
    8.0498   -0.4879    8.4254 C   0  0  0  0  0  0  0  0  0  0  0  0
    8.8433   -1.3136    9.1875 C   0  0  0  0  0  0  0  0  0  0  0  0
    8.4501   -1.7350   10.3901 N   0  0  0  0  0  0  0  0  0  0  0  0
    7.2354   -1.3230   10.8244 C   0  0  0  0  0  0  0  0  0  0  0  0
    6.8100   -1.7667   12.0543 N   0  0  0  0  0  0  0  0  0  0  0  0
    5.9323   -1.4873   12.4018 H   0  0  0  0  0  0  0  0  0  0  0  0
    7.3832   -2.3637   12.5875 H   0  0  0  0  0  0  0  0  0  0  0  0
    4.2265    1.1123    6.4819 C   0  0  0  0  0  0  0  0  0  0  0  0
    4.2204    2.4598    6.7932 C   0  0  0  0  0  0  0  0  0  0  0  0
    4.9937    2.9779    7.7540 N   0  0  0  0  0  0  0  0  0  0  0  0
    5.8136    2.1470    8.4160 C   0  0  0  0  0  0  0  0  0  0  0  0
    5.8908    0.7786    8.1611 C   0  0  0  0  0  0  0  0  0  0  0  0
    5.0722    0.2631    7.1642 C   0  0  0  0  0  0  0  0  0  0  0  0
 10 11  1  0  0  0
 10 15  2  0  0  0
 11 12  2  0  0  0
 12 13  1  0  0  0
 13 14  2  0  0  0
 14  1  1  0  0  0
 14 15  1  0  0  0
  1  2  2  0  0  0
  1  3  1  0  0  0
  2  6  1  0  0  0
  3  4  2  0  0  0
  4  5  1  0  0  0
  5  6  2  0  0  0
  6  7  1  0  0  0
  7  8  1  0  0  0
  7  9  1  0  0  0
M  END
> <minimizedAffinity>
-5.54969

$$$$
2XDK_XDK_A_1226


 15 16  0  0  0  0  0  0  0  0999 V2000
    6.1193    1.1787    8.7738 C   0  0  0  0  0  0  0  0  0  0  0  0
    6.1157   -0.1599    8.6704 N   0  0  0  0  0  0  0  0  0  0  0  0
    5.6977    1.9769    7.7263 C   0  0  0  0  0  0  0  0  0  0  0  0
    5.2652    1.3746    6.5677 C   0  0  0  0  0  0  0  0  0  0  0  0
    5.2506    0.0472    6.4412 N   0  0  0  0  0  0  0  0  0  0  0  0
    5.6708   -0.6811    7.5028 C   0  0  0  0  0  0  0  0  0  0  0  0
    5.6418   -2.0512    7.3921 N   0  0  0  0  0  0  0  0  0  0  0  0
    5.9400   -2.6123    8.1441 H   0  0  0  0  0  0  0  0  0  0  0  0
    5.3229   -2.4713    6.5608 H   0  0  0  0  0  0  0  0  0  0  0  0
    7.4668    3.5356   11.3819 C   0  0  0  0  0  0  0  0  0  0  0  0
    7.4355    2.7055   12.4876 C   0  0  0  0  0  0  0  0  0  0  0  0
    6.9890    1.4460   12.4271 N   0  0  0  0  0  0  0  0  0  0  0  0
    6.5789    0.9820   11.2365 C   0  0  0  0  0  0  0  0  0  0  0  0
    6.5849    1.7458   10.0703 C   0  0  0  0  0  0  0  0  0  0  0  0
    7.0456    3.0532   10.1604 C   0  0  0  0  0  0  0  0  0  0  0  0
 10 11  1  0  0  0
 10 15  2  0  0  0
 11 12  2  0  0  0
 12 13  1  0  0  0
 13 14  2  0  0  0
 14  1  1  0  0  0
 14 15  1  0  0  0
  1  2  2  0  0  0
  1  3  1  0  0  0
  2  6  1  0  0  0
  3  4  2  0  0  0
  4  5  1  0  0  0
  5  6  2  0  0  0
  6  7  1  0  0  0
  7  8  1  0  0  0
  7  9  1  0  0  0
M  END
> <minimizedAffinity>
-5.47986

$$$$
