2JDP_MFU_A_1115


 15 15  0  0  0  0  0  0  0  0999 V2000
  -34.5261    9.2659  -42.5315 C   0  0  0  0  0  0  0  0  0  0  0  0
  -33.5894    8.8864  -41.4088 C   0  0  0  0  0  0  0  0  0  0  0  0
  -33.6977    9.9163  -40.2944 C   0  0  0  0  0  0  0  0  0  0  0  0
  -35.1284   10.0851  -39.7819 C   0  0  0  0  0  0  0  0  0  0  0  0
  -36.0827   10.3191  -40.9610 C   0  0  0  0  0  0  0  0  0  0  0  0
  -37.5602   10.3567  -40.5594 C   0  0  0  0  0  0  0  0  0  0  0  0
  -32.2454    8.8866  -41.8786 O   0  0  0  0  0  0  0  0  0  0  0  0
  -32.8360    9.5106  -39.2169 O   0  0  0  0  0  0  0  0  0  0  0  0
  -35.4573    8.8998  -39.0397 O   0  0  0  0  0  0  0  0  0  0  0  0
  -35.8501    9.3494  -41.9815 O   0  0  0  0  0  0  0  0  0  0  0  0
  -32.0154    9.7725  -42.1999 H   0  0  0  0  0  0  0  0  0  0  0  0
  -33.1256    8.6490  -38.8783 H   0  0  0  0  0  0  0  0  0  0  0  0
  -35.3745    8.1240  -39.6160 H   0  0  0  0  0  0  0  0  0  0  0  0
  -34.0888   10.5097  -43.1125 O   0  0  0  0  0  0  0  0  0  0  0  0
  -34.0810   10.4294  -44.5413 C   0  0  0  0  0  0  0  0  0  0  0  0
  1  2  1  0  0  0
  1 14  1  0  0  0
  1 10  1  0  0  0
  2  3  1  0  0  0
  2  7  1  0  0  0
  3  4  1  0  0  0
  3  8  1  0  0  0
  4  5  1  0  0  0
  4  9  1  0  0  0
  5  6  1  0  0  0
  5 10  1  0  0  0
 14 15  1  0  0  0
  7 11  1  0  0  0
  8 12  1  0  0  0
  9 13  1  0  0  0
M  END
> <minimizedAffinity>
-6.76889

$$$$
2JDP_MFU_A_1115


 15 15  0  0  0  0  0  0  0  0999 V2000
  -36.0293   10.8531  -40.8750 C   0  0  0  0  0  0  0  0  0  0  0  0
  -34.8494   10.8279  -39.9319 C   0  0  0  0  0  0  0  0  0  0  0  0
  -34.1160    9.5034  -40.0802 C   0  0  0  0  0  0  0  0  0  0  0  0
  -33.6747    9.2294  -41.5184 C   0  0  0  0  0  0  0  0  0  0  0  0
  -34.8620    9.4109  -42.4739 C   0  0  0  0  0  0  0  0  0  0  0  0
  -34.4844    9.2978  -43.9539 C   0  0  0  0  0  0  0  0  0  0  0  0
  -35.3030   10.9310  -38.5863 O   0  0  0  0  0  0  0  0  0  0  0  0
  -32.9704    9.5199  -39.2111 O   0  0  0  0  0  0  0  0  0  0  0  0
  -32.5948   10.1306  -41.8114 O   0  0  0  0  0  0  0  0  0  0  0  0
  -35.5262   10.6445  -42.2038 O   0  0  0  0  0  0  0  0  0  0  0  0
  -35.8884   10.1844  -38.3843 H   0  0  0  0  0  0  0  0  0  0  0  0
  -32.3758   10.2399  -39.4734 H   0  0  0  0  0  0  0  0  0  0  0  0
  -32.8977   11.0453  -41.6997 H   0  0  0  0  0  0  0  0  0  0  0  0
  -36.9751    9.8419  -40.4765 O   0  0  0  0  0  0  0  0  0  0  0  0
  -38.2863   10.3981  -40.3364 C   0  0  0  0  0  0  0  0  0  0  0  0
  1  2  1  0  0  0
  1 14  1  0  0  0
  1 10  1  0  0  0
  2  3  1  0  0  0
  2  7  1  0  0  0
  3  4  1  0  0  0
  3  8  1  0  0  0
  4  5  1  0  0  0
  4  9  1  0  0  0
  5  6  1  0  0  0
  5 10  1  0  0  0
 14 15  1  0  0  0
  7 11  1  0  0  0
  8 12  1  0  0  0
  9 13  1  0  0  0
M  END
> <minimizedAffinity>
-5.80061

$$$$
2JDP_MFU_A_1115


 15 15  0  0  0  0  0  0  0  0999 V2000
  -34.7682   11.0654  -41.0328 C   0  0  0  0  0  0  0  0  0  0  0  0
  -33.5631   10.2023  -40.7413 C   0  0  0  0  0  0  0  0  0  0  0  0
  -32.9821    9.6919  -42.0514 C   0  0  0  0  0  0  0  0  0  0  0  0
  -32.6274   10.8202  -43.0206 C   0  0  0  0  0  0  0  0  0  0  0  0
  -33.8237   11.7684  -43.1805 C   0  0  0  0  0  0  0  0  0  0  0  0
  -33.5165   13.0110  -44.0217 C   0  0  0  0  0  0  0  0  0  0  0  0
  -33.9519    9.0747  -39.9639 O   0  0  0  0  0  0  0  0  0  0  0  0
  -31.8094    8.9143  -41.7546 O   0  0  0  0  0  0  0  0  0  0  0  0
  -31.4689   11.4861  -42.4929 O   0  0  0  0  0  0  0  0  0  0  0  0
  -34.3409   12.1273  -41.9001 O   0  0  0  0  0  0  0  0  0  0  0  0
  -34.6060    8.5534  -40.4551 H   0  0  0  0  0  0  0  0  0  0  0  0
  -31.1513    9.4761  -41.3163 H   0  0  0  0  0  0  0  0  0  0  0  0
  -31.6675   11.8269  -41.6067 H   0  0  0  0  0  0  0  0  0  0  0  0
  -35.8014   10.2520  -41.6217 O   0  0  0  0  0  0  0  0  0  0  0  0
  -37.0928   10.6483  -41.1493 C   0  0  0  0  0  0  0  0  0  0  0  0
  1  2  1  0  0  0
  1 14  1  0  0  0
  1 10  1  0  0  0
  2  3  1  0  0  0
  2  7  1  0  0  0
  3  4  1  0  0  0
  3  8  1  0  0  0
  4  5  1  0  0  0
  4  9  1  0  0  0
  5  6  1  0  0  0
  5 10  1  0  0  0
 14 15  1  0  0  0
  7 11  1  0  0  0
  8 12  1  0  0  0
  9 13  1  0  0  0
M  END
> <minimizedAffinity>
-5.55000

$$$$
2JDP_MFU_A_1115


 15 15  0  0  0  0  0  0  0  0999 V2000
  -34.1550    9.7627  -41.3182 C   0  0  0  0  0  0  0  0  0  0  0  0
  -34.2228    9.7175  -39.8098 C   0  0  0  0  0  0  0  0  0  0  0  0
  -34.7085   11.0616  -39.2883 C   0  0  0  0  0  0  0  0  0  0  0  0
  -36.0534   11.4769  -39.8857 C   0  0  0  0  0  0  0  0  0  0  0  0
  -36.0027   11.3676  -41.4157 C   0  0  0  0  0  0  0  0  0  0  0  0
  -37.3502   11.6256  -42.0966 C   0  0  0  0  0  0  0  0  0  0  0  0
  -32.9252    9.4808  -39.2738 O   0  0  0  0  0  0  0  0  0  0  0  0
  -34.8124   10.9814  -37.8562 O   0  0  0  0  0  0  0  0  0  0  0  0
  -37.0564   10.6246  -39.3098 O   0  0  0  0  0  0  0  0  0  0  0  0
  -35.4640   10.1036  -41.8006 O   0  0  0  0  0  0  0  0  0  0  0  0
  -32.3281   10.1957  -39.5447 H   0  0  0  0  0  0  0  0  0  0  0  0
  -35.4586   10.2988  -37.6166 H   0  0  0  0  0  0  0  0  0  0  0  0
  -36.8480    9.6988  -39.5106 H   0  0  0  0  0  0  0  0  0  0  0  0
  -33.1522   10.7166  -41.7184 O   0  0  0  0  0  0  0  0  0  0  0  0
  -32.3721   10.2094  -42.8057 C   0  0  0  0  0  0  0  0  0  0  0  0
  1  2  1  0  0  0
  1 14  1  0  0  0
  1 10  1  0  0  0
  2  3  1  0  0  0
  2  7  1  0  0  0
  3  4  1  0  0  0
  3  8  1  0  0  0
  4  5  1  0  0  0
  4  9  1  0  0  0
  5  6  1  0  0  0
  5 10  1  0  0  0
 14 15  1  0  0  0
  7 11  1  0  0  0
  8 12  1  0  0  0
  9 13  1  0  0  0
M  END
> <minimizedAffinity>
-5.54384

$$$$
2JDP_MFU_A_1115


 15 15  0  0  0  0  0  0  0  0999 V2000
  -34.5853   11.0496  -40.2890 C   0  0  0  0  0  0  0  0  0  0  0  0
  -34.1044    9.6181  -40.2501 C   0  0  0  0  0  0  0  0  0  0  0  0
  -33.9873    9.0888  -41.6715 C   0  0  0  0  0  0  0  0  0  0  0  0
  -33.0785    9.9492  -42.5502 C   0  0  0  0  0  0  0  0  0  0  0  0
  -33.4969   11.4225  -42.4512 C   0  0  0  0  0  0  0  0  0  0  0  0
  -32.5544   12.3811  -43.1852 C   0  0  0  0  0  0  0  0  0  0  0  0
  -35.0482    8.8091  -39.5560 O   0  0  0  0  0  0  0  0  0  0  0  0
  -33.4822    7.7435  -41.6140 O   0  0  0  0  0  0  0  0  0  0  0  0
  -31.7291    9.7333  -42.1067 O   0  0  0  0  0  0  0  0  0  0  0  0
  -33.6525   11.7985  -41.0836 O   0  0  0  0  0  0  0  0  0  0  0  0
  -35.9032    8.8457  -40.0127 H   0  0  0  0  0  0  0  0  0  0  0  0
  -32.6024    7.7456  -41.2056 H   0  0  0  0  0  0  0  0  0  0  0  0
  -31.6537    9.9763  -41.1707 H   0  0  0  0  0  0  0  0  0  0  0  0
  -35.9222   11.0852  -40.8249 O   0  0  0  0  0  0  0  0  0  0  0  0
  -36.7652   11.9297  -40.0348 C   0  0  0  0  0  0  0  0  0  0  0  0
  1  2  1  0  0  0
  1 14  1  0  0  0
  1 10  1  0  0  0
  2  3  1  0  0  0
  2  7  1  0  0  0
  3  4  1  0  0  0
  3  8  1  0  0  0
  4  5  1  0  0  0
  4  9  1  0  0  0
  5  6  1  0  0  0
  5 10  1  0  0  0
 14 15  1  0  0  0
  7 11  1  0  0  0
  8 12  1  0  0  0
  9 13  1  0  0  0
M  END
> <minimizedAffinity>
-5.40786

$$$$
2JDP_MFU_A_1115


 15 15  0  0  0  0  0  0  0  0999 V2000
  -35.2566   11.8855  -40.9899 C   0  0  0  0  0  0  0  0  0  0  0  0
  -35.4570   11.0115  -39.7741 C   0  0  0  0  0  0  0  0  0  0  0  0
  -35.1718    9.5637  -40.1437 C   0  0  0  0  0  0  0  0  0  0  0  0
  -33.7755    9.3683  -40.7357 C   0  0  0  0  0  0  0  0  0  0  0  0
  -33.5433   10.3737  -41.8718 C   0  0  0  0  0  0  0  0  0  0  0  0
  -32.1181   10.3512  -42.4324 C   0  0  0  0  0  0  0  0  0  0  0  0
  -36.8088   11.0952  -39.3353 O   0  0  0  0  0  0  0  0  0  0  0  0
  -35.3204    8.7567  -38.9627 O   0  0  0  0  0  0  0  0  0  0  0  0
  -32.8325    9.5277  -39.6636 O   0  0  0  0  0  0  0  0  0  0  0  0
  -33.9107   11.6861  -41.4495 O   0  0  0  0  0  0  0  0  0  0  0  0
  -37.3982   10.7944  -40.0446 H   0  0  0  0  0  0  0  0  0  0  0  0
  -34.6796    9.0426  -38.2930 H   0  0  0  0  0  0  0  0  0  0  0  0
  -32.9335   10.4096  -39.2726 H   0  0  0  0  0  0  0  0  0  0  0  0
  -36.2384   11.5416  -41.9867 O   0  0  0  0  0  0  0  0  0  0  0  0
  -36.4246   12.6185  -42.9107 C   0  0  0  0  0  0  0  0  0  0  0  0
  1  2  1  0  0  0
  1 14  1  0  0  0
  1 10  1  0  0  0
  2  3  1  0  0  0
  2  7  1  0  0  0
  3  4  1  0  0  0
  3  8  1  0  0  0
  4  5  1  0  0  0
  4  9  1  0  0  0
  5  6  1  0  0  0
  5 10  1  0  0  0
 14 15  1  0  0  0
  7 11  1  0  0  0
  8 12  1  0  0  0
  9 13  1  0  0  0
M  END
> <minimizedAffinity>
-5.39253

$$$$
2JDP_MFU_A_1115


 15 15  0  0  0  0  0  0  0  0999 V2000
  -34.5074   11.2890  -40.5406 C   0  0  0  0  0  0  0  0  0  0  0  0
  -33.6492   10.0850  -40.8505 C   0  0  0  0  0  0  0  0  0  0  0  0
  -34.5112    9.0033  -41.4837 C   0  0  0  0  0  0  0  0  0  0  0  0
  -35.2469    9.4889  -42.7332 C   0  0  0  0  0  0  0  0  0  0  0  0
  -35.9884   10.7977  -42.4285 C   0  0  0  0  0  0  0  0  0  0  0  0
  -36.6381   11.4382  -43.6588 C   0  0  0  0  0  0  0  0  0  0  0  0
  -33.0987    9.5602  -39.6470 O   0  0  0  0  0  0  0  0  0  0  0  0
  -33.6671    7.8871  -41.8150 O   0  0  0  0  0  0  0  0  0  0  0  0
  -34.2658    9.6454  -43.7709 O   0  0  0  0  0  0  0  0  0  0  0  0
  -35.1163   11.7148  -41.7696 O   0  0  0  0  0  0  0  0  0  0  0  0
  -33.8171    9.2948  -39.0517 H   0  0  0  0  0  0  0  0  0  0  0  0
  -32.9951    8.1688  -42.4553 H   0  0  0  0  0  0  0  0  0  0  0  0
  -33.5912   10.2811  -43.4849 H   0  0  0  0  0  0  0  0  0  0  0  0
  -35.4776   10.9326  -39.5369 O   0  0  0  0  0  0  0  0  0  0  0  0
  -35.5308   11.9234  -38.5056 C   0  0  0  0  0  0  0  0  0  0  0  0
  1  2  1  0  0  0
  1 14  1  0  0  0
  1 10  1  0  0  0
  2  3  1  0  0  0
  2  7  1  0  0  0
  3  4  1  0  0  0
  3  8  1  0  0  0
  4  5  1  0  0  0
  4  9  1  0  0  0
  5  6  1  0  0  0
  5 10  1  0  0  0
 14 15  1  0  0  0
  7 11  1  0  0  0
  8 12  1  0  0  0
  9 13  1  0  0  0
M  END
> <minimizedAffinity>
-5.33830

$$$$
2JDP_MFU_A_1115


 15 15  0  0  0  0  0  0  0  0999 V2000
  -34.2178   11.3822  -43.2536 C   0  0  0  0  0  0  0  0  0  0  0  0
  -33.0141   10.4761  -43.3647 C   0  0  0  0  0  0  0  0  0  0  0  0
  -32.5105   10.1365  -41.9700 C   0  0  0  0  0  0  0  0  0  0  0  0
  -33.5901    9.5089  -41.0876 C   0  0  0  0  0  0  0  0  0  0  0  0
  -34.8569   10.3750  -41.1144 C   0  0  0  0  0  0  0  0  0  0  0  0
  -36.0443    9.7525  -40.3738 C   0  0  0  0  0  0  0  0  0  0  0  0
  -31.9670   11.1451  -44.0596 O   0  0  0  0  0  0  0  0  0  0  0  0
  -31.3968    9.2356  -42.0971 O   0  0  0  0  0  0  0  0  0  0  0  0
  -33.8255    8.1809  -41.5826 O   0  0  0  0  0  0  0  0  0  0  0  0
  -35.2016   10.7002  -42.4603 O   0  0  0  0  0  0  0  0  0  0  0  0
  -31.7182   11.9474  -43.5745 H   0  0  0  0  0  0  0  0  0  0  0  0
  -31.6889    8.4199  -42.5333 H   0  0  0  0  0  0  0  0  0  0  0  0
  -34.1054    8.2264  -42.5102 H   0  0  0  0  0  0  0  0  0  0  0  0
  -33.8129   12.6375  -42.6738 O   0  0  0  0  0  0  0  0  0  0  0  0
  -34.7041   13.6882  -43.0611 C   0  0  0  0  0  0  0  0  0  0  0  0
  1  2  1  0  0  0
  1 14  1  0  0  0
  1 10  1  0  0  0
  2  3  1  0  0  0
  2  7  1  0  0  0
  3  4  1  0  0  0
  3  8  1  0  0  0
  4  5  1  0  0  0
  4  9  1  0  0  0
  5  6  1  0  0  0
  5 10  1  0  0  0
 14 15  1  0  0  0
  7 11  1  0  0  0
  8 12  1  0  0  0
  9 13  1  0  0  0
M  END
> <minimizedAffinity>
-5.21032

$$$$
2JDP_MFU_A_1115


 15 15  0  0  0  0  0  0  0  0999 V2000
  -35.2345   11.6502  -41.7134 C   0  0  0  0  0  0  0  0  0  0  0  0
  -34.2293   11.3570  -40.6245 C   0  0  0  0  0  0  0  0  0  0  0  0
  -34.2833    9.8770  -40.2765 C   0  0  0  0  0  0  0  0  0  0  0  0
  -34.0561    8.9752  -41.4902 C   0  0  0  0  0  0  0  0  0  0  0  0
  -34.9874    9.3948  -42.6358 C   0  0  0  0  0  0  0  0  0  0  0  0
  -34.7322    8.6410  -43.9445 C   0  0  0  0  0  0  0  0  0  0  0  0
  -34.5556   12.0964  -39.4525 O   0  0  0  0  0  0  0  0  0  0  0  0
  -33.2866    9.6104  -39.2747 O   0  0  0  0  0  0  0  0  0  0  0  0
  -32.6685    9.0827  -41.8467 O   0  0  0  0  0  0  0  0  0  0  0  0
  -34.9199   10.8065  -42.8321 O   0  0  0  0  0  0  0  0  0  0  0  0
  -35.4404   11.8430  -39.1462 H   0  0  0  0  0  0  0  0  0  0  0  0
  -32.4080    9.8183  -39.6293 H   0  0  0  0  0  0  0  0  0  0  0  0
  -32.4566   10.0081  -42.0457 H   0  0  0  0  0  0  0  0  0  0  0  0
  -36.5631   11.4221  -41.2048 O   0  0  0  0  0  0  0  0  0  0  0  0
  -37.4781   12.3970  -41.7152 C   0  0  0  0  0  0  0  0  0  0  0  0
  1  2  1  0  0  0
  1 14  1  0  0  0
  1 10  1  0  0  0
  2  3  1  0  0  0
  2  7  1  0  0  0
  3  4  1  0  0  0
  3  8  1  0  0  0
  4  5  1  0  0  0
  4  9  1  0  0  0
  5  6  1  0  0  0
  5 10  1  0  0  0
 14 15  1  0  0  0
  7 11  1  0  0  0
  8 12  1  0  0  0
  9 13  1  0  0  0
M  END
> <minimizedAffinity>
-5.14118

$$$$
2JDP_MFU_A_1115


 15 15  0  0  0  0  0  0  0  0999 V2000
  -33.9547   12.0917  -42.3649 C   0  0  0  0  0  0  0  0  0  0  0  0
  -33.0669   10.8780  -42.5098 C   0  0  0  0  0  0  0  0  0  0  0  0
  -33.2392    9.9815  -41.2929 C   0  0  0  0  0  0  0  0  0  0  0  0
  -34.6942    9.5724  -41.0607 C   0  0  0  0  0  0  0  0  0  0  0  0
  -35.5951   10.8150  -41.0696 C   0  0  0  0  0  0  0  0  0  0  0  0
  -37.0902   10.4924  -40.9879 C   0  0  0  0  0  0  0  0  0  0  0  0
  -31.7026   11.2805  -42.5697 O   0  0  0  0  0  0  0  0  0  0  0  0
  -32.4241    8.8106  -41.4735 O   0  0  0  0  0  0  0  0  0  0  0  0
  -35.0434    8.6369  -42.0937 O   0  0  0  0  0  0  0  0  0  0  0  0
  -35.3037   11.6252  -42.2073 O   0  0  0  0  0  0  0  0  0  0  0  0
  -31.4683   11.7512  -41.7546 H   0  0  0  0  0  0  0  0  0  0  0  0
  -32.7190    8.3299  -42.2627 H   0  0  0  0  0  0  0  0  0  0  0  0
  -34.9246    9.0540  -42.9613 H   0  0  0  0  0  0  0  0  0  0  0  0
  -33.5054   12.8751  -41.2423 O   0  0  0  0  0  0  0  0  0  0  0  0
  -33.5256   14.2715  -41.5552 C   0  0  0  0  0  0  0  0  0  0  0  0
  1  2  1  0  0  0
  1 14  1  0  0  0
  1 10  1  0  0  0
  2  3  1  0  0  0
  2  7  1  0  0  0
  3  4  1  0  0  0
  3  8  1  0  0  0
  4  5  1  0  0  0
  4  9  1  0  0  0
  5  6  1  0  0  0
  5 10  1  0  0  0
 14 15  1  0  0  0
  7 11  1  0  0  0
  8 12  1  0  0  0
  9 13  1  0  0  0
M  END
> <minimizedAffinity>
-5.12774

$$$$
