3RYX_RYX_B_1


 24 24  0  0  0  0  0  0  0  0999 V2000
   16.4272    3.8645   14.7117 C   0  0  0  0  0  0  0  0  0  0  0  0
   14.7147    2.6736   16.0472 C   0  0  0  0  0  0  0  0  0  0  0  0
   15.1408    3.7649   15.2868 C   0  0  0  0  0  0  0  0  0  0  0  0
   15.6605    1.6618   16.3677 C   0  0  0  0  0  0  0  0  0  0  0  0
   17.3831    2.8732   14.9708 C   0  0  0  0  0  0  0  0  0  0  0  0
   16.9778    1.8395   15.8284 C   0  0  0  0  0  0  0  0  0  0  0  0
   15.2453    0.3411   17.3249 S   0  0  0  0  0  0  0  0  0  0  0  0
   13.7970    0.2099   17.1549 O   0  0  0  0  0  0  0  0  0  0  0  0
   15.6924    0.6499   18.6505 O   0  0  0  0  0  0  0  0  0  0  0  0
   16.0758   -0.8882   16.7619 N   0  0  0  0  0  0  0  0  0  0  0  0
   15.7586   -1.1092   15.8180 H   0  0  0  0  0  0  0  0  0  0  0  0
   15.9360   -1.6982   17.3659 H   0  0  0  0  0  0  0  0  0  0  0  0
   16.2367    5.2362   12.6660 N   0  0  0  0  0  0  0  0  0  0  0  0
   17.5300    5.8964   14.3525 O   0  0  0  0  0  0  0  0  0  0  0  0
   16.7729    5.0564   13.8827 C   0  0  0  0  0  0  0  0  0  0  0  0
   15.6203    4.5652   12.2932 H   0  0  0  0  0  0  0  0  0  0  0  0
   16.5674    6.4173   11.9066 C   0  0  0  0  0  0  0  0  0  0  0  0
   15.6191    4.9741   10.6707 F   0  0  0  0  0  0  0  0  0  0  0  0
   15.9185    6.9682    9.5878 F   0  0  0  0  0  0  0  0  0  0  0  0
   15.6067    6.3055   10.7194 C   0  0  0  0  0  0  0  0  0  0  0  0
   14.7385    8.3598   11.1279 F   0  0  0  0  0  0  0  0  0  0  0  0
   13.6783    6.6468   12.0858 F   0  0  0  0  0  0  0  0  0  0  0  0
   13.6995    6.6125    9.9514 F   0  0  0  0  0  0  0  0  0  0  0  0
   14.3610    7.0679   11.0179 C   0  0  0  0  0  0  0  0  0  0  0  0
  4  7  1  0  0  0
 10  7  1  0  0  0
  8  7  2  0  0  0
  7  9  2  0  0  0
 17 13  1  0  0  0
 13 15  1  0  0  0
 14 15  2  0  0  0
 15  1  1  0  0  0
  1  5  2  0  0  0
  1  3  1  0  0  0
  3  2  2  0  0  0
  2  4  1  0  0  0
  6  4  2  0  0  0
  5  6  1  0  0  0
 18 20  1  0  0  0
 21 24  1  0  0  0
 20 19  1  0  0  0
 24 22  1  0  0  0
 24 23  1  0  0  0
 17 20  1  0  0  0
 24 20  1  0  0  0
 13 16  1  0  0  0
 10 11  1  0  0  0
 10 12  1  0  0  0
M  END
> <minimizedAffinity>
-7.70436

$$$$
3RYX_RYX_B_1


 24 24  0  0  0  0  0  0  0  0999 V2000
   16.6400    3.9813   14.8560 C   0  0  0  0  0  0  0  0  0  0  0  0
   17.1037    1.7644   15.8583 C   0  0  0  0  0  0  0  0  0  0  0  0
   17.4850    2.8770   15.1050 C   0  0  0  0  0  0  0  0  0  0  0  0
   15.7545    1.6745   16.2971 C   0  0  0  0  0  0  0  0  0  0  0  0
   15.3110    3.9536   15.2994 C   0  0  0  0  0  0  0  0  0  0  0  0
   14.9081    2.7814   15.9567 C   0  0  0  0  0  0  0  0  0  0  0  0
   15.1978    0.3424   17.1621 S   0  0  0  0  0  0  0  0  0  0  0  0
   13.7437    0.3824   16.9954 O   0  0  0  0  0  0  0  0  0  0  0  0
   15.6768    0.5054   18.5024 O   0  0  0  0  0  0  0  0  0  0  0  0
   15.8884   -0.9272   16.5067 N   0  0  0  0  0  0  0  0  0  0  0  0
   15.5483   -1.0445   15.5523 H   0  0  0  0  0  0  0  0  0  0  0  0
   15.6611   -1.7579   17.0532 H   0  0  0  0  0  0  0  0  0  0  0  0
   18.1310    5.9269   14.5497 N   0  0  0  0  0  0  0  0  0  0  0  0
   16.6976    5.3397   12.9519 O   0  0  0  0  0  0  0  0  0  0  0  0
   17.1556    5.1405   14.0699 C   0  0  0  0  0  0  0  0  0  0  0  0
   18.5055    5.7600   15.4448 H   0  0  0  0  0  0  0  0  0  0  0  0
   18.6285    7.0183   13.7482 C   0  0  0  0  0  0  0  0  0  0  0  0
   18.4090    7.4298   15.8198 F   0  0  0  0  0  0  0  0  0  0  0  0
   18.8041    9.3286   14.6045 F   0  0  0  0  0  0  0  0  0  0  0  0
   19.0602    8.0229   14.8202 C   0  0  0  0  0  0  0  0  0  0  0  0
   20.8077    9.4401   14.5403 F   0  0  0  0  0  0  0  0  0  0  0  0
   21.1816    7.3122   13.9855 F   0  0  0  0  0  0  0  0  0  0  0  0
   20.6987    7.6354   16.0396 F   0  0  0  0  0  0  0  0  0  0  0  0
   20.5459    8.1441   14.8147 C   0  0  0  0  0  0  0  0  0  0  0  0
  4  7  1  0  0  0
 10  7  1  0  0  0
  8  7  2  0  0  0
  7  9  2  0  0  0
 17 13  1  0  0  0
 13 15  1  0  0  0
 14 15  2  0  0  0
 15  1  1  0  0  0
  1  5  2  0  0  0
  1  3  1  0  0  0
  3  2  2  0  0  0
  2  4  1  0  0  0
  6  4  2  0  0  0
  5  6  1  0  0  0
 18 20  1  0  0  0
 21 24  1  0  0  0
 20 19  1  0  0  0
 24 22  1  0  0  0
 24 23  1  0  0  0
 17 20  1  0  0  0
 24 20  1  0  0  0
 13 16  1  0  0  0
 10 11  1  0  0  0
 10 12  1  0  0  0
M  END
> <minimizedAffinity>
-7.61856

$$$$
3RYX_RYX_B_1


 24 24  0  0  0  0  0  0  0  0999 V2000
   17.6146    3.7207   14.4986 C   0  0  0  0  0  0  0  0  0  0  0  0
   17.8298    6.1660   14.8276 C   0  0  0  0  0  0  0  0  0  0  0  0
   17.0844    4.9849   14.8390 C   0  0  0  0  0  0  0  0  0  0  0  0
   19.1604    6.1215   14.3292 C   0  0  0  0  0  0  0  0  0  0  0  0
   18.9333    3.6219   14.0348 C   0  0  0  0  0  0  0  0  0  0  0  0
   19.6355    4.8312   13.9207 C   0  0  0  0  0  0  0  0  0  0  0  0
   20.1089    7.5082   14.2289 S   0  0  0  0  0  0  0  0  0  0  0  0
   21.2551    7.1064   13.4112 O   0  0  0  0  0  0  0  0  0  0  0  0
   20.4075    7.8886   15.5775 O   0  0  0  0  0  0  0  0  0  0  0  0
   19.1947    8.6186   13.5585 N   0  0  0  0  0  0  0  0  0  0  0  0
   18.9813    8.3490   12.5982 H   0  0  0  0  0  0  0  0  0  0  0  0
   19.6881    9.5113   13.5594 H   0  0  0  0  0  0  0  0  0  0  0  0
   16.9832    1.5413   15.4753 N   0  0  0  0  0  0  0  0  0  0  0  0
   15.7749    2.4366   13.8348 O   0  0  0  0  0  0  0  0  0  0  0  0
   16.7442    2.5110   14.5794 C   0  0  0  0  0  0  0  0  0  0  0  0
   17.7571    1.6068   16.0803 H   0  0  0  0  0  0  0  0  0  0  0  0
   16.1011    0.4021   15.5480 C   0  0  0  0  0  0  0  0  0  0  0  0
   16.8411    1.0358   17.4348 F   0  0  0  0  0  0  0  0  0  0  0  0
   15.5358   -0.8362   17.6091 F   0  0  0  0  0  0  0  0  0  0  0  0
   15.7596    0.3651   17.0403 C   0  0  0  0  0  0  0  0  0  0  0  0
   13.5449   -0.1108   16.9451 F   0  0  0  0  0  0  0  0  0  0  0  0
   14.1008    2.0157   16.5648 F   0  0  0  0  0  0  0  0  0  0  0  0
   14.6080    1.2859   18.5057 F   0  0  0  0  0  0  0  0  0  0  0  0
   14.3847    0.9028   17.2464 C   0  0  0  0  0  0  0  0  0  0  0  0
  4  7  1  0  0  0
 10  7  1  0  0  0
  8  7  2  0  0  0
  7  9  2  0  0  0
 17 13  1  0  0  0
 13 15  1  0  0  0
 14 15  2  0  0  0
 15  1  1  0  0  0
  1  5  2  0  0  0
  1  3  1  0  0  0
  3  2  2  0  0  0
  2  4  1  0  0  0
  6  4  2  0  0  0
  5  6  1  0  0  0
 18 20  1  0  0  0
 21 24  1  0  0  0
 20 19  1  0  0  0
 24 22  1  0  0  0
 24 23  1  0  0  0
 17 20  1  0  0  0
 24 20  1  0  0  0
 13 16  1  0  0  0
 10 11  1  0  0  0
 10 12  1  0  0  0
M  END
> <minimizedAffinity>
-7.53517

$$$$
3RYX_RYX_B_1


 24 24  0  0  0  0  0  0  0  0999 V2000
   17.8472    2.7702   13.6881 C   0  0  0  0  0  0  0  0  0  0  0  0
   19.0940    3.6045   11.7175 C   0  0  0  0  0  0  0  0  0  0  0  0
   18.1090    2.8041   12.3005 C   0  0  0  0  0  0  0  0  0  0  0  0
   19.9663    4.3335   12.5711 C   0  0  0  0  0  0  0  0  0  0  0  0
   18.6589    3.5001   14.5668 C   0  0  0  0  0  0  0  0  0  0  0  0
   19.7156    4.2109   13.9782 C   0  0  0  0  0  0  0  0  0  0  0  0
   21.2146    5.2783   11.9535 S   0  0  0  0  0  0  0  0  0  0  0  0
   21.1411    6.5240   12.7195 O   0  0  0  0  0  0  0  0  0  0  0  0
   20.9708    5.3957   10.5466 O   0  0  0  0  0  0  0  0  0  0  0  0
   22.5490    4.4526   12.1896 N   0  0  0  0  0  0  0  0  0  0  0  0
   22.7239    4.3682   13.1910 H   0  0  0  0  0  0  0  0  0  0  0  0
   23.3308    4.9361   11.7475 H   0  0  0  0  0  0  0  0  0  0  0  0
   16.9703    0.9948   15.1652 N   0  0  0  0  0  0  0  0  0  0  0  0
   15.6136    2.0788   13.7734 O   0  0  0  0  0  0  0  0  0  0  0  0
   16.7454    1.9085   14.2088 C   0  0  0  0  0  0  0  0  0  0  0  0
   17.8788    0.8654   15.5216 H   0  0  0  0  0  0  0  0  0  0  0  0
   15.8748    0.2027   15.6687 C   0  0  0  0  0  0  0  0  0  0  0  0
   17.0013    1.2705   17.1179 F   0  0  0  0  0  0  0  0  0  0  0  0
   15.6978   -0.3526   18.0691 F   0  0  0  0  0  0  0  0  0  0  0  0
   15.8411    0.6161   17.1428 C   0  0  0  0  0  0  0  0  0  0  0  0
   13.5824    0.4183   17.1472 F   0  0  0  0  0  0  0  0  0  0  0  0
   14.3791    2.4719   16.7950 F   0  0  0  0  0  0  0  0  0  0  0  0
   14.8825    1.6234   18.6881 F   0  0  0  0  0  0  0  0  0  0  0  0
   14.5546    1.3112   17.4321 C   0  0  0  0  0  0  0  0  0  0  0  0
  4  7  1  0  0  0
 10  7  1  0  0  0
  8  7  2  0  0  0
  7  9  2  0  0  0
 17 13  1  0  0  0
 13 15  1  0  0  0
 14 15  2  0  0  0
 15  1  1  0  0  0
  1  5  2  0  0  0
  1  3  1  0  0  0
  3  2  2  0  0  0
  2  4  1  0  0  0
  6  4  2  0  0  0
  5  6  1  0  0  0
 18 20  1  0  0  0
 21 24  1  0  0  0
 20 19  1  0  0  0
 24 22  1  0  0  0
 24 23  1  0  0  0
 17 20  1  0  0  0
 24 20  1  0  0  0
 13 16  1  0  0  0
 10 11  1  0  0  0
 10 12  1  0  0  0
M  END
> <minimizedAffinity>
-7.16055

$$$$
3RYX_RYX_B_1


 24 24  0  0  0  0  0  0  0  0999 V2000
   16.5770    3.7201   14.6388 C   0  0  0  0  0  0  0  0  0  0  0  0
   17.0289    1.7269   16.0378 C   0  0  0  0  0  0  0  0  0  0  0  0
   17.4051    2.6595   15.0686 C   0  0  0  0  0  0  0  0  0  0  0  0
   15.6971    1.7661   16.5335 C   0  0  0  0  0  0  0  0  0  0  0  0
   15.2670    3.8205   15.1262 C   0  0  0  0  0  0  0  0  0  0  0  0
   14.8638    2.8116   16.0138 C   0  0  0  0  0  0  0  0  0  0  0  0
   15.1451    0.6454   17.6613 S   0  0  0  0  0  0  0  0  0  0  0  0
   15.0703    1.3980   18.9151 O   0  0  0  0  0  0  0  0  0  0  0  0
   16.0803   -0.4396   17.6399 O   0  0  0  0  0  0  0  0  0  0  0  0
   13.7392    0.1397   17.1267 N   0  0  0  0  0  0  0  0  0  0  0  0
   13.0723    0.9113   17.1414 H   0  0  0  0  0  0  0  0  0  0  0  0
   13.3998   -0.6146   17.7236 H   0  0  0  0  0  0  0  0  0  0  0  0
   16.6194    4.6873   12.3661 N   0  0  0  0  0  0  0  0  0  0  0  0
   17.9184    5.5170   13.9713 O   0  0  0  0  0  0  0  0  0  0  0  0
   17.0872    4.6878   13.6236 C   0  0  0  0  0  0  0  0  0  0  0  0
   15.9437    4.0265   12.0902 H   0  0  0  0  0  0  0  0  0  0  0  0
   17.1108    5.6593   11.4202 C   0  0  0  0  0  0  0  0  0  0  0  0
   16.4615    7.6783   11.5248 F   0  0  0  0  0  0  0  0  0  0  0  0
   14.7405    6.2050   11.8502 F   0  0  0  0  0  0  0  0  0  0  0  0
   15.8719    6.5303   11.1938 C   0  0  0  0  0  0  0  0  0  0  0  0
   15.0882    7.5098    9.3052 F   0  0  0  0  0  0  0  0  0  0  0  0
   14.2792    5.4807    9.7571 F   0  0  0  0  0  0  0  0  0  0  0  0
   16.3875    5.5572    9.4307 F   0  0  0  0  0  0  0  0  0  0  0  0
   15.3411    6.2882    9.8221 C   0  0  0  0  0  0  0  0  0  0  0  0
  4  7  1  0  0  0
 10  7  1  0  0  0
  8  7  2  0  0  0
  7  9  2  0  0  0
 17 13  1  0  0  0
 13 15  1  0  0  0
 14 15  2  0  0  0
 15  1  1  0  0  0
  1  5  2  0  0  0
  1  3  1  0  0  0
  3  2  2  0  0  0
  2  4  1  0  0  0
  6  4  2  0  0  0
  5  6  1  0  0  0
 18 20  1  0  0  0
 21 24  1  0  0  0
 20 19  1  0  0  0
 24 22  1  0  0  0
 24 23  1  0  0  0
 17 20  1  0  0  0
 24 20  1  0  0  0
 13 16  1  0  0  0
 10 11  1  0  0  0
 10 12  1  0  0  0
M  END
> <minimizedAffinity>
-7.05977

$$$$
3RYX_RYX_B_1


 24 24  0  0  0  0  0  0  0  0999 V2000
   17.8020    4.1251   14.3234 C   0  0  0  0  0  0  0  0  0  0  0  0
   19.8749    5.2421   13.5554 C   0  0  0  0  0  0  0  0  0  0  0  0
   19.0805    4.1056   13.7232 C   0  0  0  0  0  0  0  0  0  0  0  0
   19.4337    6.4664   14.1277 C   0  0  0  0  0  0  0  0  0  0  0  0
   17.3093    5.3172   14.8711 C   0  0  0  0  0  0  0  0  0  0  0  0
   18.1654    6.4263   14.7965 C   0  0  0  0  0  0  0  0  0  0  0  0
   20.3559    7.8702   14.0203 S   0  0  0  0  0  0  0  0  0  0  0  0
   19.5459    8.7756   13.2029 O   0  0  0  0  0  0  0  0  0  0  0  0
   21.6152    7.4811   13.4589 O   0  0  0  0  0  0  0  0  0  0  0  0
   20.5749    8.3675   15.5112 N   0  0  0  0  0  0  0  0  0  0  0  0
   19.6790    8.6448   15.9122 H   0  0  0  0  0  0  0  0  0  0  0  0
   21.2101    9.1655   15.5135 H   0  0  0  0  0  0  0  0  0  0  0  0
   16.9563    2.1654   15.5672 N   0  0  0  0  0  0  0  0  0  0  0  0
   16.3846    2.4864   13.4405 O   0  0  0  0  0  0  0  0  0  0  0  0
   17.0150    2.8608   14.4212 C   0  0  0  0  0  0  0  0  0  0  0  0
   17.4556    2.4727   16.3581 H   0  0  0  0  0  0  0  0  0  0  0  0
   16.1584    0.9656   15.6351 C   0  0  0  0  0  0  0  0  0  0  0  0
   14.2446    1.8847   15.5908 F   0  0  0  0  0  0  0  0  0  0  0  0
   15.3137    2.2234   17.5860 F   0  0  0  0  0  0  0  0  0  0  0  0
   15.0184    1.3995   16.5609 C   0  0  0  0  0  0  0  0  0  0  0  0
   15.4771   -0.7450   17.1361 F   0  0  0  0  0  0  0  0  0  0  0  0
   13.3287   -0.1516   17.2252 F   0  0  0  0  0  0  0  0  0  0  0  0
   14.6157    0.9256   18.5445 F   0  0  0  0  0  0  0  0  0  0  0  0
   14.5933    0.2418   17.3981 C   0  0  0  0  0  0  0  0  0  0  0  0
  4  7  1  0  0  0
 10  7  1  0  0  0
  8  7  2  0  0  0
  7  9  2  0  0  0
 17 13  1  0  0  0
 13 15  1  0  0  0
 14 15  2  0  0  0
 15  1  1  0  0  0
  1  5  2  0  0  0
  1  3  1  0  0  0
  3  2  2  0  0  0
  2  4  1  0  0  0
  6  4  2  0  0  0
  5  6  1  0  0  0
 18 20  1  0  0  0
 21 24  1  0  0  0
 20 19  1  0  0  0
 24 22  1  0  0  0
 24 23  1  0  0  0
 17 20  1  0  0  0
 24 20  1  0  0  0
 13 16  1  0  0  0
 10 11  1  0  0  0
 10 12  1  0  0  0
M  END
> <minimizedAffinity>
-6.92457

$$$$
3RYX_RYX_B_1


 24 24  0  0  0  0  0  0  0  0999 V2000
   16.7272    3.6723   14.7630 C   0  0  0  0  0  0  0  0  0  0  0  0
   16.9635    1.6082   16.1113 C   0  0  0  0  0  0  0  0  0  0  0  0
   17.4533    2.5394   15.1929 C   0  0  0  0  0  0  0  0  0  0  0  0
   15.6162    1.7323   16.5475 C   0  0  0  0  0  0  0  0  0  0  0  0
   15.4065    3.8560   15.1939 C   0  0  0  0  0  0  0  0  0  0  0  0
   14.8880    2.8533   16.0270 C   0  0  0  0  0  0  0  0  0  0  0  0
   14.9297    0.6220   17.6098 S   0  0  0  0  0  0  0  0  0  0  0  0
   13.6020    0.3579   17.0520 O   0  0  0  0  0  0  0  0  0  0  0  0
   14.9517    1.2376   18.9033 O   0  0  0  0  0  0  0  0  0  0  0  0
   15.8927   -0.6392   17.6104 N   0  0  0  0  0  0  0  0  0  0  0  0
   15.8781   -1.0786   16.6900 H   0  0  0  0  0  0  0  0  0  0  0  0
   15.5759   -1.3086   18.3117 H   0  0  0  0  0  0  0  0  0  0  0  0
   18.6829    4.8225   13.7858 N   0  0  0  0  0  0  0  0  0  0  0  0
   16.6361    5.2121   13.0039 O   0  0  0  0  0  0  0  0  0  0  0  0
   17.3552    4.6298   13.8059 C   0  0  0  0  0  0  0  0  0  0  0  0
   19.2613    4.3464   14.4245 H   0  0  0  0  0  0  0  0  0  0  0  0
   19.2589    5.7306   12.8242 C   0  0  0  0  0  0  0  0  0  0  0  0
   20.6238    4.1402   13.1665 F   0  0  0  0  0  0  0  0  0  0  0  0
   21.2132    5.4015   11.3498 F   0  0  0  0  0  0  0  0  0  0  0  0
   20.2446    4.8208   12.0856 C   0  0  0  0  0  0  0  0  0  0  0  0
   18.6929    5.0801   10.4530 F   0  0  0  0  0  0  0  0  0  0  0  0
   18.9371    3.0086   11.2437 F   0  0  0  0  0  0  0  0  0  0  0  0
   20.6743    3.8269   10.3111 F   0  0  0  0  0  0  0  0  0  0  0  0
   19.5479    4.1586   10.9463 C   0  0  0  0  0  0  0  0  0  0  0  0
  4  7  1  0  0  0
 10  7  1  0  0  0
  8  7  2  0  0  0
  7  9  2  0  0  0
 17 13  1  0  0  0
 13 15  1  0  0  0
 14 15  2  0  0  0
 15  1  1  0  0  0
  1  5  2  0  0  0
  1  3  1  0  0  0
  3  2  2  0  0  0
  2  4  1  0  0  0
  6  4  2  0  0  0
  5  6  1  0  0  0
 18 20  1  0  0  0
 21 24  1  0  0  0
 20 19  1  0  0  0
 24 22  1  0  0  0
 24 23  1  0  0  0
 17 20  1  0  0  0
 24 20  1  0  0  0
 13 16  1  0  0  0
 10 11  1  0  0  0
 10 12  1  0  0  0
M  END
> <minimizedAffinity>
-6.89893

$$$$
3RYX_RYX_B_1


 24 24  0  0  0  0  0  0  0  0999 V2000
   16.9859    3.6718   13.8592 C   0  0  0  0  0  0  0  0  0  0  0  0
   18.2720    3.2510   11.7848 C   0  0  0  0  0  0  0  0  0  0  0  0
   17.2089    2.9787   12.6487 C   0  0  0  0  0  0  0  0  0  0  0  0
   19.2565    4.1896   12.1983 C   0  0  0  0  0  0  0  0  0  0  0  0
   17.9111    4.6314   14.2914 C   0  0  0  0  0  0  0  0  0  0  0  0
   19.0335    4.8148   13.4699 C   0  0  0  0  0  0  0  0  0  0  0  0
   20.5984    4.5352   11.2431 S   0  0  0  0  0  0  0  0  0  0  0  0
   20.7002    3.3932   10.3324 O   0  0  0  0  0  0  0  0  0  0  0  0
   21.6974    4.7141   12.1446 O   0  0  0  0  0  0  0  0  0  0  0  0
   20.2807    5.9116   10.5201 N   0  0  0  0  0  0  0  0  0  0  0  0
   19.4983    5.7857    9.8779 H   0  0  0  0  0  0  0  0  0  0  0  0
   21.1019    6.2196    9.9994 H   0  0  0  0  0  0  0  0  0  0  0  0
   15.9116    2.5518   15.7811 N   0  0  0  0  0  0  0  0  0  0  0  0
   14.7122    3.8114   14.3929 O   0  0  0  0  0  0  0  0  0  0  0  0
   15.7972    3.3308   14.6948 C   0  0  0  0  0  0  0  0  0  0  0  0
   16.7863    2.1738   16.0287 H   0  0  0  0  0  0  0  0  0  0  0  0
   14.7471    2.2705   16.5848 C   0  0  0  0  0  0  0  0  0  0  0  0
   14.8363    1.7828   18.6496 F   0  0  0  0  0  0  0  0  0  0  0  0
   16.5873    0.8868   17.4794 F   0  0  0  0  0  0  0  0  0  0  0  0
   15.2765    1.1951   17.5379 C   0  0  0  0  0  0  0  0  0  0  0  0
   13.4322   -0.0180   17.0208 F   0  0  0  0  0  0  0  0  0  0  0  0
   15.1426   -1.1646   17.8784 F   0  0  0  0  0  0  0  0  0  0  0  0
   15.5490   -0.1978   16.0190 F   0  0  0  0  0  0  0  0  0  0  0  0
   14.7745   -0.1399   17.1049 C   0  0  0  0  0  0  0  0  0  0  0  0
  4  7  1  0  0  0
 10  7  1  0  0  0
  8  7  2  0  0  0
  7  9  2  0  0  0
 17 13  1  0  0  0
 13 15  1  0  0  0
 14 15  2  0  0  0
 15  1  1  0  0  0
  1  5  2  0  0  0
  1  3  1  0  0  0
  3  2  2  0  0  0
  2  4  1  0  0  0
  6  4  2  0  0  0
  5  6  1  0  0  0
 18 20  1  0  0  0
 21 24  1  0  0  0
 20 19  1  0  0  0
 24 22  1  0  0  0
 24 23  1  0  0  0
 17 20  1  0  0  0
 24 20  1  0  0  0
 13 16  1  0  0  0
 10 11  1  0  0  0
 10 12  1  0  0  0
M  END
> <minimizedAffinity>
-6.79476

$$$$
3RYX_RYX_B_1


 24 24  0  0  0  0  0  0  0  0999 V2000
   16.4614    3.7351   14.5169 C   0  0  0  0  0  0  0  0  0  0  0  0
   16.7359    1.5418   15.6343 C   0  0  0  0  0  0  0  0  0  0  0  0
   17.1432    2.5145   14.7184 C   0  0  0  0  0  0  0  0  0  0  0  0
   15.5017    1.7279   16.3148 C   0  0  0  0  0  0  0  0  0  0  0  0
   15.2579    3.9788   15.1921 C   0  0  0  0  0  0  0  0  0  0  0  0
   14.8012    2.9454   16.0239 C   0  0  0  0  0  0  0  0  0  0  0  0
   14.9100    0.5792   17.3932 S   0  0  0  0  0  0  0  0  0  0  0  0
   13.5121    0.3955   16.9981 O   0  0  0  0  0  0  0  0  0  0  0  0
   15.1222    1.1137   18.7054 O   0  0  0  0  0  0  0  0  0  0  0  0
   15.8114   -0.7121   17.1984 N   0  0  0  0  0  0  0  0  0  0  0  0
   15.6613   -1.0938   16.2645 H   0  0  0  0  0  0  0  0  0  0  0  0
   15.5586   -1.4117   17.8963 H   0  0  0  0  0  0  0  0  0  0  0  0
   18.2851    4.6967   13.1561 N   0  0  0  0  0  0  0  0  0  0  0  0
   16.2325    5.5512   13.0597 O   0  0  0  0  0  0  0  0  0  0  0  0
   16.9999    4.7268   13.5402 C   0  0  0  0  0  0  0  0  0  0  0  0
   18.8991    4.0272   13.5356 H   0  0  0  0  0  0  0  0  0  0  0  0
   18.7632    5.6498   12.1844 C   0  0  0  0  0  0  0  0  0  0  0  0
   20.7582    6.3748   12.1252 F   0  0  0  0  0  0  0  0  0  0  0  0
   20.0227    6.0590   14.2695 F   0  0  0  0  0  0  0  0  0  0  0  0
   19.7653    6.4623   13.0094 C   0  0  0  0  0  0  0  0  0  0  0  0
   18.7384    7.6367   14.6546 F   0  0  0  0  0  0  0  0  0  0  0  0
   18.1815    8.1939   12.5677 F   0  0  0  0  0  0  0  0  0  0  0  0
   20.2382    8.4860   13.0591 F   0  0  0  0  0  0  0  0  0  0  0  0
   19.1561    7.7720   13.3776 C   0  0  0  0  0  0  0  0  0  0  0  0
  4  7  1  0  0  0
 10  7  1  0  0  0
  8  7  2  0  0  0
  7  9  2  0  0  0
 17 13  1  0  0  0
 13 15  1  0  0  0
 14 15  2  0  0  0
 15  1  1  0  0  0
  1  5  2  0  0  0
  1  3  1  0  0  0
  3  2  2  0  0  0
  2  4  1  0  0  0
  6  4  2  0  0  0
  5  6  1  0  0  0
 18 20  1  0  0  0
 21 24  1  0  0  0
 20 19  1  0  0  0
 24 22  1  0  0  0
 24 23  1  0  0  0
 17 20  1  0  0  0
 24 20  1  0  0  0
 13 16  1  0  0  0
 10 11  1  0  0  0
 10 12  1  0  0  0
M  END
> <minimizedAffinity>
-6.78903

$$$$
3RYX_RYX_B_1


 24 24  0  0  0  0  0  0  0  0999 V2000
   16.9808    3.5845   13.5313 C   0  0  0  0  0  0  0  0  0  0  0  0
   17.0254    3.6303   11.0554 C   0  0  0  0  0  0  0  0  0  0  0  0
   17.3171    3.0237   12.2792 C   0  0  0  0  0  0  0  0  0  0  0  0
   16.4717    4.9396   11.0642 C   0  0  0  0  0  0  0  0  0  0  0  0
   16.4010    4.8589   13.5891 C   0  0  0  0  0  0  0  0  0  0  0  0
   16.2169    5.5053   12.3575 C   0  0  0  0  0  0  0  0  0  0  0  0
   16.1416    5.7647    9.6349 S   0  0  0  0  0  0  0  0  0  0  0  0
   14.7155    5.5300    9.4006 O   0  0  0  0  0  0  0  0  0  0  0  0
   17.0322    5.2301    8.6482 O   0  0  0  0  0  0  0  0  0  0  0  0
   16.5099    7.2837    9.9090 N   0  0  0  0  0  0  0  0  0  0  0  0
   15.8766    7.6656   10.6115 H   0  0  0  0  0  0  0  0  0  0  0  0
   16.4197    7.8168    9.0441 H   0  0  0  0  0  0  0  0  0  0  0  0
   16.3443    2.2192   15.4892 N   0  0  0  0  0  0  0  0  0  0  0  0
   18.4728    2.7642   15.1360 O   0  0  0  0  0  0  0  0  0  0  0  0
   17.3027    2.8379   14.7829 C   0  0  0  0  0  0  0  0  0  0  0  0
   15.4049    2.2707   15.1990 H   0  0  0  0  0  0  0  0  0  0  0  0
   16.6965    1.4782   16.6758 C   0  0  0  0  0  0  0  0  0  0  0  0
   14.6524    2.0175   16.4751 F   0  0  0  0  0  0  0  0  0  0  0  0
   15.1766    1.4227   18.6222 F   0  0  0  0  0  0  0  0  0  0  0  0
   15.3229    1.2131   17.2987 C   0  0  0  0  0  0  0  0  0  0  0  0
   15.5978   -0.6880   18.5033 F   0  0  0  0  0  0  0  0  0  0  0  0
   15.5370   -0.9397   16.2877 F   0  0  0  0  0  0  0  0  0  0  0  0
   13.7549   -0.1439   17.1526 F   0  0  0  0  0  0  0  0  0  0  0  0
   15.0725   -0.2559   17.3367 C   0  0  0  0  0  0  0  0  0  0  0  0
  4  7  1  0  0  0
 10  7  1  0  0  0
  8  7  2  0  0  0
  7  9  2  0  0  0
 17 13  1  0  0  0
 13 15  1  0  0  0
 14 15  2  0  0  0
 15  1  1  0  0  0
  1  5  2  0  0  0
  1  3  1  0  0  0
  3  2  2  0  0  0
  2  4  1  0  0  0
  6  4  2  0  0  0
  5  6  1  0  0  0
 18 20  1  0  0  0
 21 24  1  0  0  0
 20 19  1  0  0  0
 24 22  1  0  0  0
 24 23  1  0  0  0
 17 20  1  0  0  0
 24 20  1  0  0  0
 13 16  1  0  0  0
 10 11  1  0  0  0
 10 12  1  0  0  0
M  END
> <minimizedAffinity>
-6.75486

$$$$
