5V79_8Y4_A_301


 27 29  0  0  0  0  0  0  0  0999 V2000
  -18.3147    9.1523  103.6852 C   0  0  0  0  0  0  0  0  0  0  0  0
  -17.9970    8.9310  104.9945 C   0  0  0  0  0  0  0  0  0  0  0  0
  -19.8516    7.8921  104.4232 C   0  0  0  0  0  0  0  0  0  0  0  0
  -17.4531    9.9847  102.9026 C   0  0  0  0  0  0  0  0  0  0  0  0
  -16.1523   10.1544  105.0022 C   0  0  0  0  0  0  0  0  0  0  0  0
  -19.0595    7.6358  106.8168 C   0  0  0  0  0  0  0  0  0  0  0  0
  -19.4708    8.5065  103.3193 N   0  0  0  0  0  0  0  0  0  0  0  0
  -16.9467    9.3962  105.7050 N   0  0  0  0  0  0  0  0  0  0  0  0
  -18.9862    8.1206  105.4534 N   0  0  0  0  0  0  0  0  0  0  0  0
  -16.3850   10.4359  103.6502 N   0  0  0  0  0  0  0  0  0  0  0  0
  -15.0207   10.7313  105.5428 N   0  0  0  0  0  0  0  0  0  0  0  0
  -17.6267   10.2715  101.7253 O   0  0  0  0  0  0  0  0  0  0  0  0
  -15.7271   11.0073  103.1920 H   0  0  0  0  0  0  0  0  0  0  0  0
  -14.7934   10.5773  106.4883 H   0  0  0  0  0  0  0  0  0  0  0  0
  -14.4410   11.2967  104.9829 H   0  0  0  0  0  0  0  0  0  0  0  0
  -21.2684    6.8990  104.6400 S   0  0  0  0  0  0  0  0  0  0  0  0
  -21.3063    5.8661  103.1455 C   0  0  0  0  0  0  0  0  0  0  0  0
  -22.1872    6.4522  102.0761 C   0  0  0  0  0  0  0  0  0  0  0  0
  -22.7594    7.6290  102.5443 N   0  0  0  0  0  0  0  0  0  0  0  0
  -22.3394    5.9445  100.9679 O   0  0  0  0  0  0  0  0  0  0  0  0
  -22.3600    8.0388  103.3455 H   0  0  0  0  0  0  0  0  0  0  0  0
  -25.9546    9.7114  100.7650 C   0  0  0  0  0  0  0  0  0  0  0  0
  -26.2026    8.5021  101.3789 C   0  0  0  0  0  0  0  0  0  0  0  0
  -24.6692   10.2147  100.7547 C   0  0  0  0  0  0  0  0  0  0  0  0
  -25.1767    7.7886  101.9735 C   0  0  0  0  0  0  0  0  0  0  0  0
  -23.6353    9.5137  101.3446 C   0  0  0  0  0  0  0  0  0  0  0  0
  -23.8791    8.2915  101.9575 C   0  0  0  0  0  0  0  0  0  0  0  0
  6  9  1  0  0  0
 11  5  1  0  0  0
  8  5  2  0  0  0
  8  2  1  0  0  0
  9  2  1  0  0  0
  9  3  1  0  0  0
  5 10  1  0  0  0
  2  1  2  0  0  0
 16  3  1  0  0  0
 16 17  1  0  0  0
  3  7  2  0  0  0
 10  4  1  0  0  0
  1  7  1  0  0  0
  1  4  1  0  0  0
  4 12  2  0  0  0
 17 18  1  0  0  0
 18 20  2  0  0  0
 18 19  1  0  0  0
 19 27  1  0  0  0
 25 27  2  0  0  0
 25 23  1  0  0  0
 27 26  1  0  0  0
 23 22  2  0  0  0
 26 24  2  0  0  0
 22 24  1  0  0  0
 10 13  1  0  0  0
 11 14  1  0  0  0
 11 15  1  0  0  0
 19 21  1  0  0  0
M  END
> <minimizedAffinity>
-8.42206

$$$$
5V79_8Y4_A_301


 27 29  0  0  0  0  0  0  0  0999 V2000
  -20.9355    2.6295  105.8419 C   0  0  0  0  0  0  0  0  0  0  0  0
  -22.2930    2.6288  105.9881 C   0  0  0  0  0  0  0  0  0  0  0  0
  -21.6988    3.1514  103.9341 C   0  0  0  0  0  0  0  0  0  0  0  0
  -20.1242    2.3126  106.9773 C   0  0  0  0  0  0  0  0  0  0  0  0
  -22.3018    2.0712  108.1302 C   0  0  0  0  0  0  0  0  0  0  0  0
  -24.1787    3.0911  104.4526 C   0  0  0  0  0  0  0  0  0  0  0  0
  -20.5554    2.9537  104.5621 N   0  0  0  0  0  0  0  0  0  0  0  0
  -23.0297    2.3640  107.0888 N   0  0  0  0  0  0  0  0  0  0  0  0
  -22.7688    2.9606  104.7595 N   0  0  0  0  0  0  0  0  0  0  0  0
  -20.9026    2.0366  108.0824 N   0  0  0  0  0  0  0  0  0  0  0  0
  -22.8619    1.7704  109.3555 N   0  0  0  0  0  0  0  0  0  0  0  0
  -18.9005    2.2878  106.9860 O   0  0  0  0  0  0  0  0  0  0  0  0
  -20.4320    1.7933  108.9123 H   0  0  0  0  0  0  0  0  0  0  0  0
  -23.8404    1.7751  109.4639 H   0  0  0  0  0  0  0  0  0  0  0  0
  -22.2829    1.5513  110.1209 H   0  0  0  0  0  0  0  0  0  0  0  0
  -21.9182    3.6085  102.2657 S   0  0  0  0  0  0  0  0  0  0  0  0
  -21.3049    5.3177  102.2005 C   0  0  0  0  0  0  0  0  0  0  0  0
  -22.3049    6.2979  102.7506 C   0  0  0  0  0  0  0  0  0  0  0  0
  -23.2000    6.6539  101.7488 N   0  0  0  0  0  0  0  0  0  0  0  0
  -22.3037    6.6876  103.9155 O   0  0  0  0  0  0  0  0  0  0  0  0
  -23.2314    6.0840  100.9466 H   0  0  0  0  0  0  0  0  0  0  0  0
  -25.9200    9.8619  101.8972 C   0  0  0  0  0  0  0  0  0  0  0  0
  -24.5863   10.1249  101.6674 C   0  0  0  0  0  0  0  0  0  0  0  0
  -26.3336    8.5556  102.0650 C   0  0  0  0  0  0  0  0  0  0  0  0
  -23.6628    9.0957  101.6130 C   0  0  0  0  0  0  0  0  0  0  0  0
  -25.4231    7.5180  102.0129 C   0  0  0  0  0  0  0  0  0  0  0  0
  -24.0775    7.7788  101.7891 C   0  0  0  0  0  0  0  0  0  0  0  0
  6  9  1  0  0  0
 11  5  1  0  0  0
  8  5  2  0  0  0
  8  2  1  0  0  0
  9  2  1  0  0  0
  9  3  1  0  0  0
  5 10  1  0  0  0
  2  1  2  0  0  0
 16  3  1  0  0  0
 16 17  1  0  0  0
  3  7  2  0  0  0
 10  4  1  0  0  0
  1  7  1  0  0  0
  1  4  1  0  0  0
  4 12  2  0  0  0
 17 18  1  0  0  0
 18 20  2  0  0  0
 18 19  1  0  0  0
 19 27  1  0  0  0
 25 27  2  0  0  0
 25 23  1  0  0  0
 27 26  1  0  0  0
 23 22  2  0  0  0
 26 24  2  0  0  0
 22 24  1  0  0  0
 10 13  1  0  0  0
 11 14  1  0  0  0
 11 15  1  0  0  0
 19 21  1  0  0  0
M  END
> <minimizedAffinity>
-7.68671

$$$$
5V79_8Y4_A_301


 27 29  0  0  0  0  0  0  0  0999 V2000
  -22.7228    4.3949  105.6391 C   0  0  0  0  0  0  0  0  0  0  0  0
  -23.3991    3.2405  105.9116 C   0  0  0  0  0  0  0  0  0  0  0  0
  -24.0609    4.1398  104.0146 C   0  0  0  0  0  0  0  0  0  0  0  0
  -21.7330    4.8447  106.5696 C   0  0  0  0  0  0  0  0  0  0  0  0
  -22.3765    2.8116  107.8273 C   0  0  0  0  0  0  0  0  0  0  0  0
  -25.1810    1.9849  104.7389 C   0  0  0  0  0  0  0  0  0  0  0  0
  -23.1288    4.9628  104.4559 N   0  0  0  0  0  0  0  0  0  0  0  0
  -23.2774    2.4139  106.9729 N   0  0  0  0  0  0  0  0  0  0  0  0
  -24.2491    3.0872  104.8628 N   0  0  0  0  0  0  0  0  0  0  0  0
  -21.6231    3.9766  107.6362 N   0  0  0  0  0  0  0  0  0  0  0  0
  -22.0990    2.1075  108.9818 N   0  0  0  0  0  0  0  0  0  0  0  0
  -21.0649    5.8636  106.4523 O   0  0  0  0  0  0  0  0  0  0  0  0
  -20.9548    4.1959  108.3251 H   0  0  0  0  0  0  0  0  0  0  0  0
  -22.5899    1.2781  109.1824 H   0  0  0  0  0  0  0  0  0  0  0  0
  -21.4103    2.4349  109.6045 H   0  0  0  0  0  0  0  0  0  0  0  0
  -24.9952    4.2951  102.5505 S   0  0  0  0  0  0  0  0  0  0  0  0
  -23.7768    4.0292  101.2289 C   0  0  0  0  0  0  0  0  0  0  0  0
  -23.3324    5.3225  100.6018 C   0  0  0  0  0  0  0  0  0  0  0  0
  -24.1334    6.3589  101.0665 N   0  0  0  0  0  0  0  0  0  0  0  0
  -22.3927    5.4083   99.8154 O   0  0  0  0  0  0  0  0  0  0  0  0
  -24.6768    6.1859  101.8690 H   0  0  0  0  0  0  0  0  0  0  0  0
  -24.5024   10.1042   99.1828 C   0  0  0  0  0  0  0  0  0  0  0  0
  -23.8986   10.0336  100.4203 C   0  0  0  0  0  0  0  0  0  0  0  0
  -24.9637    8.9474   98.5874 C   0  0  0  0  0  0  0  0  0  0  0  0
  -23.7606    8.8198  101.0704 C   0  0  0  0  0  0  0  0  0  0  0  0
  -24.8325    7.7286   99.2243 C   0  0  0  0  0  0  0  0  0  0  0  0
  -24.2318    7.6537  100.4742 C   0  0  0  0  0  0  0  0  0  0  0  0
  6  9  1  0  0  0
 11  5  1  0  0  0
  8  5  2  0  0  0
  8  2  1  0  0  0
  9  2  1  0  0  0
  9  3  1  0  0  0
  5 10  1  0  0  0
  2  1  2  0  0  0
 16  3  1  0  0  0
 16 17  1  0  0  0
  3  7  2  0  0  0
 10  4  1  0  0  0
  1  7  1  0  0  0
  1  4  1  0  0  0
  4 12  2  0  0  0
 17 18  1  0  0  0
 18 20  2  0  0  0
 18 19  1  0  0  0
 19 27  1  0  0  0
 25 27  2  0  0  0
 25 23  1  0  0  0
 27 26  1  0  0  0
 23 22  2  0  0  0
 26 24  2  0  0  0
 22 24  1  0  0  0
 10 13  1  0  0  0
 11 14  1  0  0  0
 11 15  1  0  0  0
 19 21  1  0  0  0
M  END
> <minimizedAffinity>
-7.46346

$$$$
5V79_8Y4_A_301


 27 29  0  0  0  0  0  0  0  0999 V2000
  -22.1536    2.4810  106.5989 C   0  0  0  0  0  0  0  0  0  0  0  0
  -21.1148    2.5491  105.7156 C   0  0  0  0  0  0  0  0  0  0  0  0
  -23.0326    3.0366  104.7513 C   0  0  0  0  0  0  0  0  0  0  0  0
  -21.8766    2.1192  107.9554 C   0  0  0  0  0  0  0  0  0  0  0  0
  -19.5353    1.9890  107.1616 C   0  0  0  0  0  0  0  0  0  0  0  0
  -20.9518    3.0895  103.3055 C   0  0  0  0  0  0  0  0  0  0  0  0
  -23.3550    2.7850  106.0058 N   0  0  0  0  0  0  0  0  0  0  0  0
  -19.8012    2.3173  105.9281 N   0  0  0  0  0  0  0  0  0  0  0  0
  -21.6905    2.9090  104.5387 N   0  0  0  0  0  0  0  0  0  0  0  0
  -20.5280    1.8994  108.1454 N   0  0  0  0  0  0  0  0  0  0  0  0
  -18.2517    1.7097  107.5858 N   0  0  0  0  0  0  0  0  0  0  0  0
  -22.7132    2.0114  108.8425 O   0  0  0  0  0  0  0  0  0  0  0  0
  -20.2372    1.6576  109.0543 H   0  0  0  0  0  0  0  0  0  0  0  0
  -17.5023    1.7528  106.9487 H   0  0  0  0  0  0  0  0  0  0  0  0
  -18.0856    1.4674  108.5255 H   0  0  0  0  0  0  0  0  0  0  0  0
  -24.1124    3.4761  103.4546 S   0  0  0  0  0  0  0  0  0  0  0  0
  -24.9175    4.9901  104.0557 C   0  0  0  0  0  0  0  0  0  0  0  0
  -25.3476    5.8874  102.9273 C   0  0  0  0  0  0  0  0  0  0  0  0
  -24.2245    6.4503  102.3328 N   0  0  0  0  0  0  0  0  0  0  0  0
  -26.5205    6.0580  102.6046 O   0  0  0  0  0  0  0  0  0  0  0  0
  -23.3529    6.0375  102.5307 H   0  0  0  0  0  0  0  0  0  0  0  0
  -24.1866    9.8740   99.8856 C   0  0  0  0  0  0  0  0  0  0  0  0
  -24.6244    8.6781   99.3574 C   0  0  0  0  0  0  0  0  0  0  0  0
  -23.7794    9.9234  101.2038 C   0  0  0  0  0  0  0  0  0  0  0  0
  -24.6498    7.5314  100.1316 C   0  0  0  0  0  0  0  0  0  0  0  0
  -23.7997    8.7869  101.9887 C   0  0  0  0  0  0  0  0  0  0  0  0
  -24.2327    7.5784  101.4586 C   0  0  0  0  0  0  0  0  0  0  0  0
  6  9  1  0  0  0
 11  5  1  0  0  0
  8  5  2  0  0  0
  8  2  1  0  0  0
  9  2  1  0  0  0
  9  3  1  0  0  0
  5 10  1  0  0  0
  2  1  2  0  0  0
 16  3  1  0  0  0
 16 17  1  0  0  0
  3  7  2  0  0  0
 10  4  1  0  0  0
  1  7  1  0  0  0
  1  4  1  0  0  0
  4 12  2  0  0  0
 17 18  1  0  0  0
 18 20  2  0  0  0
 18 19  1  0  0  0
 19 27  1  0  0  0
 25 27  2  0  0  0
 25 23  1  0  0  0
 27 26  1  0  0  0
 23 22  2  0  0  0
 26 24  2  0  0  0
 22 24  1  0  0  0
 10 13  1  0  0  0
 11 14  1  0  0  0
 11 15  1  0  0  0
 19 21  1  0  0  0
M  END
> <minimizedAffinity>
-7.42301

$$$$
5V79_8Y4_A_301


 27 29  0  0  0  0  0  0  0  0999 V2000
  -24.6730    8.2254  101.5579 C   0  0  0  0  0  0  0  0  0  0  0  0
  -24.7153    7.9065  100.2310 C   0  0  0  0  0  0  0  0  0  0  0  0
  -24.0416    6.2043  101.4532 C   0  0  0  0  0  0  0  0  0  0  0  0
  -25.0467    9.5480  101.9567 C   0  0  0  0  0  0  0  0  0  0  0  0
  -25.4161    9.8864   99.5322 C   0  0  0  0  0  0  0  0  0  0  0  0
  -24.1946    5.8548   98.9478 C   0  0  0  0  0  0  0  0  0  0  0  0
  -24.2545    7.1681  102.3288 N   0  0  0  0  0  0  0  0  0  0  0  0
  -25.0709    8.6790   99.1816 N   0  0  0  0  0  0  0  0  0  0  0  0
  -24.3125    6.6100  100.1786 N   0  0  0  0  0  0  0  0  0  0  0  0
  -25.4148   10.3099  100.8670 N   0  0  0  0  0  0  0  0  0  0  0  0
  -25.8119   10.8333   98.6090 N   0  0  0  0  0  0  0  0  0  0  0  0
  -25.0435    9.9661  103.1071 O   0  0  0  0  0  0  0  0  0  0  0  0
  -25.7025   11.2347  101.0438 H   0  0  0  0  0  0  0  0  0  0  0  0
  -25.8374   10.6066   97.6513 H   0  0  0  0  0  0  0  0  0  0  0  0
  -26.0686   11.7354   98.9083 H   0  0  0  0  0  0  0  0  0  0  0  0
  -23.4782    4.5874  101.7835 S   0  0  0  0  0  0  0  0  0  0  0  0
  -23.4251    4.5094  103.5981 C   0  0  0  0  0  0  0  0  0  0  0  0
  -22.0828    4.9166  104.1419 C   0  0  0  0  0  0  0  0  0  0  0  0
  -22.0993    6.2738  104.4409 N   0  0  0  0  0  0  0  0  0  0  0  0
  -21.1469    4.1358  104.2953 O   0  0  0  0  0  0  0  0  0  0  0  0
  -22.9782    6.7133  104.5003 H   0  0  0  0  0  0  0  0  0  0  0  0
  -18.6924    8.6931  104.9423 C   0  0  0  0  0  0  0  0  0  0  0  0
  -19.2359    8.0655  106.0430 C   0  0  0  0  0  0  0  0  0  0  0  0
  -19.2711    8.5080  103.7027 C   0  0  0  0  0  0  0  0  0  0  0  0
  -20.3564    7.2633  105.9167 C   0  0  0  0  0  0  0  0  0  0  0  0
  -20.3896    7.7098  103.5614 C   0  0  0  0  0  0  0  0  0  0  0  0
  -20.9450    7.0817  104.6686 C   0  0  0  0  0  0  0  0  0  0  0  0
  6  9  1  0  0  0
 11  5  1  0  0  0
  8  5  2  0  0  0
  8  2  1  0  0  0
  9  2  1  0  0  0
  9  3  1  0  0  0
  5 10  1  0  0  0
  2  1  2  0  0  0
 16  3  1  0  0  0
 16 17  1  0  0  0
  3  7  2  0  0  0
 10  4  1  0  0  0
  1  7  1  0  0  0
  1  4  1  0  0  0
  4 12  2  0  0  0
 17 18  1  0  0  0
 18 20  2  0  0  0
 18 19  1  0  0  0
 19 27  1  0  0  0
 25 27  2  0  0  0
 25 23  1  0  0  0
 27 26  1  0  0  0
 23 22  2  0  0  0
 26 24  2  0  0  0
 22 24  1  0  0  0
 10 13  1  0  0  0
 11 14  1  0  0  0
 11 15  1  0  0  0
 19 21  1  0  0  0
M  END
> <minimizedAffinity>
-7.37460

$$$$
5V79_8Y4_A_301


 27 29  0  0  0  0  0  0  0  0999 V2000
  -22.5626    4.5145  105.5526 C   0  0  0  0  0  0  0  0  0  0  0  0
  -23.3122    3.3813  105.6874 C   0  0  0  0  0  0  0  0  0  0  0  0
  -23.7593    4.4303  103.8046 C   0  0  0  0  0  0  0  0  0  0  0  0
  -21.6411    4.8540  106.5935 C   0  0  0  0  0  0  0  0  0  0  0  0
  -22.4865    2.7816  107.6516 C   0  0  0  0  0  0  0  0  0  0  0  0
  -25.0364    2.2942  104.2830 C   0  0  0  0  0  0  0  0  0  0  0  0
  -22.8343    5.1754  104.3793 N   0  0  0  0  0  0  0  0  0  0  0  0
  -23.3240    2.4847  106.6975 N   0  0  0  0  0  0  0  0  0  0  0  0
  -24.0705    3.3377  104.5609 N   0  0  0  0  0  0  0  0  0  0  0  0
  -21.6670    3.9163  107.6051 N   0  0  0  0  0  0  0  0  0  0  0  0
  -22.3462    1.9933  108.7761 N   0  0  0  0  0  0  0  0  0  0  0  0
  -20.9198    5.8428  106.6032 O   0  0  0  0  0  0  0  0  0  0  0  0
  -21.0542    4.0575  108.3626 H   0  0  0  0  0  0  0  0  0  0  0  0
  -22.8902    1.1790  108.8774 H   0  0  0  0  0  0  0  0  0  0  0  0
  -21.7022    2.2454  109.4768 H   0  0  0  0  0  0  0  0  0  0  0  0
  -24.5501    4.7246  102.2786 S   0  0  0  0  0  0  0  0  0  0  0  0
  -25.7695    6.0153  102.6644 C   0  0  0  0  0  0  0  0  0  0  0  0
  -25.3959    7.3430  102.0635 C   0  0  0  0  0  0  0  0  0  0  0  0
  -26.3032    7.6670  101.0619 N   0  0  0  0  0  0  0  0  0  0  0  0
  -24.4367    8.0124  102.4388 O   0  0  0  0  0  0  0  0  0  0  0  0
  -27.1501    7.1655  101.0390 H   0  0  0  0  0  0  0  0  0  0  0  0
  -25.8622   10.7030   98.1810 C   0  0  0  0  0  0  0  0  0  0  0  0
  -24.9679    9.6537   98.1903 C   0  0  0  0  0  0  0  0  0  0  0  0
  -26.8841   10.7302   99.1087 C   0  0  0  0  0  0  0  0  0  0  0  0
  -25.0809    8.6380   99.1234 C   0  0  0  0  0  0  0  0  0  0  0  0
  -27.0095    9.7230  100.0458 C   0  0  0  0  0  0  0  0  0  0  0  0
  -26.1065    8.6680  100.0638 C   0  0  0  0  0  0  0  0  0  0  0  0
  6  9  1  0  0  0
 11  5  1  0  0  0
  8  5  2  0  0  0
  8  2  1  0  0  0
  9  2  1  0  0  0
  9  3  1  0  0  0
  5 10  1  0  0  0
  2  1  2  0  0  0
 16  3  1  0  0  0
 16 17  1  0  0  0
  3  7  2  0  0  0
 10  4  1  0  0  0
  1  7  1  0  0  0
  1  4  1  0  0  0
  4 12  2  0  0  0
 17 18  1  0  0  0
 18 20  2  0  0  0
 18 19  1  0  0  0
 19 27  1  0  0  0
 25 27  2  0  0  0
 25 23  1  0  0  0
 27 26  1  0  0  0
 23 22  2  0  0  0
 26 24  2  0  0  0
 22 24  1  0  0  0
 10 13  1  0  0  0
 11 14  1  0  0  0
 11 15  1  0  0  0
 19 21  1  0  0  0
M  END
> <minimizedAffinity>
-7.19671

$$$$
5V79_8Y4_A_301


 27 29  0  0  0  0  0  0  0  0999 V2000
  -21.2895    6.2921  103.6458 C   0  0  0  0  0  0  0  0  0  0  0  0
  -21.6281    5.6357  104.7941 C   0  0  0  0  0  0  0  0  0  0  0  0
  -22.5313    4.6904  103.0232 C   0  0  0  0  0  0  0  0  0  0  0  0
  -20.4445    7.4432  103.7385 C   0  0  0  0  0  0  0  0  0  0  0  0
  -20.5031    6.9594  106.1658 C   0  0  0  0  0  0  0  0  0  0  0  0
  -23.0233    3.6499  105.2811 C   0  0  0  0  0  0  0  0  0  0  0  0
  -21.8481    5.7081  102.5348 N   0  0  0  0  0  0  0  0  0  0  0  0
  -21.2755    5.9136  106.0680 N   0  0  0  0  0  0  0  0  0  0  0  0
  -22.4194    4.6114  104.3811 N   0  0  0  0  0  0  0  0  0  0  0  0
  -20.0920    7.6964  105.0481 N   0  0  0  0  0  0  0  0  0  0  0  0
  -20.0321    7.4123  107.3818 N   0  0  0  0  0  0  0  0  0  0  0  0
  -20.0755    8.1265  102.7923 O   0  0  0  0  0  0  0  0  0  0  0  0
  -19.4981    8.4643  105.2117 H   0  0  0  0  0  0  0  0  0  0  0  0
  -20.2800    6.9434  108.2113 H   0  0  0  0  0  0  0  0  0  0  0  0
  -19.4483    8.2041  107.4196 H   0  0  0  0  0  0  0  0  0  0  0  0
  -23.4919    3.5415  102.1300 S   0  0  0  0  0  0  0  0  0  0  0  0
  -25.1998    4.0960  102.4079 C   0  0  0  0  0  0  0  0  0  0  0  0
  -25.3180    5.5956  102.3832 C   0  0  0  0  0  0  0  0  0  0  0  0
  -24.9208    6.0685  101.1381 N   0  0  0  0  0  0  0  0  0  0  0  0
  -25.7210    6.2608  103.3340 O   0  0  0  0  0  0  0  0  0  0  0  0
  -24.8611    5.4153  100.4040 H   0  0  0  0  0  0  0  0  0  0  0  0
  -24.0250   10.0462  100.0956 C   0  0  0  0  0  0  0  0  0  0  0  0
  -23.6591    9.5818  101.3410 C   0  0  0  0  0  0  0  0  0  0  0  0
  -24.6678    9.1965   99.2179 C   0  0  0  0  0  0  0  0  0  0  0  0
  -23.9380    8.2801  101.7192 C   0  0  0  0  0  0  0  0  0  0  0  0
  -24.9524    7.8945   99.5815 C   0  0  0  0  0  0  0  0  0  0  0  0
  -24.5924    7.4246  100.8378 C   0  0  0  0  0  0  0  0  0  0  0  0
  6  9  1  0  0  0
 11  5  1  0  0  0
  8  5  2  0  0  0
  8  2  1  0  0  0
  9  2  1  0  0  0
  9  3  1  0  0  0
  5 10  1  0  0  0
  2  1  2  0  0  0
 16  3  1  0  0  0
 16 17  1  0  0  0
  3  7  2  0  0  0
 10  4  1  0  0  0
  1  7  1  0  0  0
  1  4  1  0  0  0
  4 12  2  0  0  0
 17 18  1  0  0  0
 18 20  2  0  0  0
 18 19  1  0  0  0
 19 27  1  0  0  0
 25 27  2  0  0  0
 25 23  1  0  0  0
 27 26  1  0  0  0
 23 22  2  0  0  0
 26 24  2  0  0  0
 22 24  1  0  0  0
 10 13  1  0  0  0
 11 14  1  0  0  0
 11 15  1  0  0  0
 19 21  1  0  0  0
M  END
> <minimizedAffinity>
-7.16975

$$$$
5V79_8Y4_A_301


 27 29  0  0  0  0  0  0  0  0999 V2000
  -24.9504    8.3199  101.0585 C   0  0  0  0  0  0  0  0  0  0  0  0
  -25.2754    8.1906   99.7387 C   0  0  0  0  0  0  0  0  0  0  0  0
  -24.3805    6.3452  100.5382 C   0  0  0  0  0  0  0  0  0  0  0  0
  -25.2150    9.5661  101.7101 C   0  0  0  0  0  0  0  0  0  0  0  0
  -26.0830   10.2365   99.4905 C   0  0  0  0  0  0  0  0  0  0  0  0
  -25.0627    6.3499   98.0974 C   0  0  0  0  0  0  0  0  0  0  0  0
  -24.3920    7.1720  101.5664 N   0  0  0  0  0  0  0  0  0  0  0  0
  -25.8345    9.0969   98.9078 N   0  0  0  0  0  0  0  0  0  0  0  0
  -24.9090    6.9217   99.4197 N   0  0  0  0  0  0  0  0  0  0  0  0
  -25.7950   10.4675  100.8414 N   0  0  0  0  0  0  0  0  0  0  0  0
  -26.6526   11.2970   98.8148 N   0  0  0  0  0  0  0  0  0  0  0  0
  -24.9641    9.8179  102.8814 O   0  0  0  0  0  0  0  0  0  0  0  0
  -26.0273   11.3529  101.2039 H   0  0  0  0  0  0  0  0  0  0  0  0
  -26.8822   11.2071   97.8617 H   0  0  0  0  0  0  0  0  0  0  0  0
  -26.8291   12.1431   99.2861 H   0  0  0  0  0  0  0  0  0  0  0  0
  -23.7805    4.7082  100.5102 S   0  0  0  0  0  0  0  0  0  0  0  0
  -21.9766    4.9093  100.4255 C   0  0  0  0  0  0  0  0  0  0  0  0
  -21.3314    4.7959  101.7798 C   0  0  0  0  0  0  0  0  0  0  0  0
  -22.0475    5.5565  102.6964 N   0  0  0  0  0  0  0  0  0  0  0  0
  -20.3340    4.1142  102.0019 O   0  0  0  0  0  0  0  0  0  0  0  0
  -22.9524    5.8446  102.4365 H   0  0  0  0  0  0  0  0  0  0  0  0
  -20.5968    6.8731  106.4211 C   0  0  0  0  0  0  0  0  0  0  0  0
  -21.2589    5.6660  106.3491 C   0  0  0  0  0  0  0  0  0  0  0  0
  -20.4178    7.6169  105.2720 C   0  0  0  0  0  0  0  0  0  0  0  0
  -21.7508    5.2013  105.1419 C   0  0  0  0  0  0  0  0  0  0  0  0
  -20.9029    7.1656  104.0600 C   0  0  0  0  0  0  0  0  0  0  0  0
  -21.5772    5.9538  103.9840 C   0  0  0  0  0  0  0  0  0  0  0  0
  6  9  1  0  0  0
 11  5  1  0  0  0
  8  5  2  0  0  0
  8  2  1  0  0  0
  9  2  1  0  0  0
  9  3  1  0  0  0
  5 10  1  0  0  0
  2  1  2  0  0  0
 16  3  1  0  0  0
 16 17  1  0  0  0
  3  7  2  0  0  0
 10  4  1  0  0  0
  1  7  1  0  0  0
  1  4  1  0  0  0
  4 12  2  0  0  0
 17 18  1  0  0  0
 18 20  2  0  0  0
 18 19  1  0  0  0
 19 27  1  0  0  0
 25 27  2  0  0  0
 25 23  1  0  0  0
 27 26  1  0  0  0
 23 22  2  0  0  0
 26 24  2  0  0  0
 22 24  1  0  0  0
 10 13  1  0  0  0
 11 14  1  0  0  0
 11 15  1  0  0  0
 19 21  1  0  0  0
M  END
> <minimizedAffinity>
-7.07391

$$$$
5V79_8Y4_A_301


 27 29  0  0  0  0  0  0  0  0999 V2000
  -23.3789    4.4675  103.4568 C   0  0  0  0  0  0  0  0  0  0  0  0
  -22.1519    4.9637  103.1217 C   0  0  0  0  0  0  0  0  0  0  0  0
  -23.1751    4.0868  101.3811 C   0  0  0  0  0  0  0  0  0  0  0  0
  -23.8123    4.5728  104.8165 C   0  0  0  0  0  0  0  0  0  0  0  0
  -21.6193    5.6725  105.1498 C   0  0  0  0  0  0  0  0  0  0  0  0
  -20.8695    5.0701  101.0071 C   0  0  0  0  0  0  0  0  0  0  0  0
  -24.0256    3.9189  102.3759 N   0  0  0  0  0  0  0  0  0  0  0  0
  -21.2352    5.5681  103.9083 N   0  0  0  0  0  0  0  0  0  0  0  0
  -22.0359    4.7169  101.7907 N   0  0  0  0  0  0  0  0  0  0  0  0
  -22.8620    5.2029  105.5933 N   0  0  0  0  0  0  0  0  0  0  0  0
  -20.8266    6.2585  106.1161 N   0  0  0  0  0  0  0  0  0  0  0  0
  -24.8800    4.1614  105.2513 O   0  0  0  0  0  0  0  0  0  0  0  0
  -23.0768    5.3344  106.5450 H   0  0  0  0  0  0  0  0  0  0  0  0
  -19.9392    6.6116  105.8772 H   0  0  0  0  0  0  0  0  0  0  0  0
  -21.1486    6.3233  107.0442 H   0  0  0  0  0  0  0  0  0  0  0  0
  -23.3853    3.5940   99.7218 S   0  0  0  0  0  0  0  0  0  0  0  0
  -25.1234    3.9897   99.3692 C   0  0  0  0  0  0  0  0  0  0  0  0
  -25.4851    5.3833   99.8053 C   0  0  0  0  0  0  0  0  0  0  0  0
  -24.5091    6.2708   99.3679 N   0  0  0  0  0  0  0  0  0  0  0  0
  -26.5029    5.6544  100.4376 O   0  0  0  0  0  0  0  0  0  0  0  0
  -23.8898    5.9547   98.6709 H   0  0  0  0  0  0  0  0  0  0  0  0
  -23.9167   10.1345  100.9274 C   0  0  0  0  0  0  0  0  0  0  0  0
  -24.4964    9.9959   99.6842 C   0  0  0  0  0  0  0  0  0  0  0  0
  -23.5521    9.0063  101.6344 C   0  0  0  0  0  0  0  0  0  0  0  0
  -24.7058    8.7413   99.1388 C   0  0  0  0  0  0  0  0  0  0  0  0
  -23.7555    7.7476  101.1027 C   0  0  0  0  0  0  0  0  0  0  0  0
  -24.3321    7.6033   99.8475 C   0  0  0  0  0  0  0  0  0  0  0  0
  6  9  1  0  0  0
 11  5  1  0  0  0
  8  5  2  0  0  0
  8  2  1  0  0  0
  9  2  1  0  0  0
  9  3  1  0  0  0
  5 10  1  0  0  0
  2  1  2  0  0  0
 16  3  1  0  0  0
 16 17  1  0  0  0
  3  7  2  0  0  0
 10  4  1  0  0  0
  1  7  1  0  0  0
  1  4  1  0  0  0
  4 12  2  0  0  0
 17 18  1  0  0  0
 18 20  2  0  0  0
 18 19  1  0  0  0
 19 27  1  0  0  0
 25 27  2  0  0  0
 25 23  1  0  0  0
 27 26  1  0  0  0
 23 22  2  0  0  0
 26 24  2  0  0  0
 22 24  1  0  0  0
 10 13  1  0  0  0
 11 14  1  0  0  0
 11 15  1  0  0  0
 19 21  1  0  0  0
M  END
> <minimizedAffinity>
-7.01961

$$$$
5V79_8Y4_A_301


 27 29  0  0  0  0  0  0  0  0999 V2000
  -21.3969    3.3581  103.9879 C   0  0  0  0  0  0  0  0  0  0  0  0
  -21.4611    4.6651  104.3777 C   0  0  0  0  0  0  0  0  0  0  0  0
  -21.2750    4.4788  102.1923 C   0  0  0  0  0  0  0  0  0  0  0  0
  -21.4519    2.3403  104.9923 C   0  0  0  0  0  0  0  0  0  0  0  0
  -21.6270    4.2588  106.5473 C   0  0  0  0  0  0  0  0  0  0  0  0
  -21.4054    6.8183  103.1580 C   0  0  0  0  0  0  0  0  0  0  0  0
  -21.2817    3.2322  102.6247 N   0  0  0  0  0  0  0  0  0  0  0  0
  -21.5734    5.1766  105.6228 N   0  0  0  0  0  0  0  0  0  0  0  0
  -21.3858    5.3709  103.2193 N   0  0  0  0  0  0  0  0  0  0  0  0
  -21.5773    2.8909  106.2511 N   0  0  0  0  0  0  0  0  0  0  0  0
  -21.7408    4.5727  107.8867 N   0  0  0  0  0  0  0  0  0  0  0  0
  -21.3940    1.1360  104.7812 O   0  0  0  0  0  0  0  0  0  0  0  0
  -21.6371    2.2659  107.0094 H   0  0  0  0  0  0  0  0  0  0  0  0
  -21.7814    5.5147  108.1698 H   0  0  0  0  0  0  0  0  0  0  0  0
  -21.7813    3.8545  108.5589 H   0  0  0  0  0  0  0  0  0  0  0  0
  -21.1383    5.0194  100.5402 S   0  0  0  0  0  0  0  0  0  0  0  0
  -22.7831    4.6931   99.8401 C   0  0  0  0  0  0  0  0  0  0  0  0
  -23.8453    5.5532  100.4688 C   0  0  0  0  0  0  0  0  0  0  0  0
  -23.9031    6.7728   99.8049 N   0  0  0  0  0  0  0  0  0  0  0  0
  -24.5418    5.1904  101.4133 O   0  0  0  0  0  0  0  0  0  0  0  0
  -23.4662    6.8299   98.9245 H   0  0  0  0  0  0  0  0  0  0  0  0
  -25.6490   10.2804  101.3412 C   0  0  0  0  0  0  0  0  0  0  0  0
  -26.3912    9.4738  100.5049 C   0  0  0  0  0  0  0  0  0  0  0  0
  -24.3565    9.9164  101.6616 C   0  0  0  0  0  0  0  0  0  0  0  0
  -25.8501    8.3134   99.9798 C   0  0  0  0  0  0  0  0  0  0  0  0
  -23.8033    8.7607  101.1453 C   0  0  0  0  0  0  0  0  0  0  0  0
  -24.5446    7.9492  100.2964 C   0  0  0  0  0  0  0  0  0  0  0  0
  6  9  1  0  0  0
 11  5  1  0  0  0
  8  5  2  0  0  0
  8  2  1  0  0  0
  9  2  1  0  0  0
  9  3  1  0  0  0
  5 10  1  0  0  0
  2  1  2  0  0  0
 16  3  1  0  0  0
 16 17  1  0  0  0
  3  7  2  0  0  0
 10  4  1  0  0  0
  1  7  1  0  0  0
  1  4  1  0  0  0
  4 12  2  0  0  0
 17 18  1  0  0  0
 18 20  2  0  0  0
 18 19  1  0  0  0
 19 27  1  0  0  0
 25 27  2  0  0  0
 25 23  1  0  0  0
 27 26  1  0  0  0
 23 22  2  0  0  0
 26 24  2  0  0  0
 22 24  1  0  0  0
 10 13  1  0  0  0
 11 14  1  0  0  0
 11 15  1  0  0  0
 19 21  1  0  0  0
M  END
> <minimizedAffinity>
-6.96094

$$$$
