6HT1_GQ5_A_210


 31 35  0  0  0  0  0  0  0  0999 V2000
  -14.5669    3.7755   49.0688 C   0  0  0  0  0  0  0  0  0  0  0  0
  -15.3577    1.6094   49.7626 C   0  0  0  0  0  0  0  0  0  0  0  0
  -13.9141    5.0074   49.0771 N   0  0  0  0  0  0  0  0  0  0  0  0
  -15.0753    4.8141   47.1864 N   0  0  0  0  0  0  0  0  0  0  0  0
  -14.2441    5.5760   47.9323 C   0  0  0  0  0  0  0  0  0  0  0  0
  -14.5833    2.7474   50.0080 C   0  0  0  0  0  0  0  0  0  0  0  0
  -16.1173    1.5094   48.5877 C   0  0  0  0  0  0  0  0  0  0  0  0
  -16.1009    2.5312   47.6454 C   0  0  0  0  0  0  0  0  0  0  0  0
  -15.3104    3.6510   47.8988 C   0  0  0  0  0  0  0  0  0  0  0  0
  -13.3336    5.3734   49.7830 H   0  0  0  0  0  0  0  0  0  0  0  0
  -15.4379    0.5633   50.7116 N   0  0  0  0  0  0  0  0  0  0  0  0
  -15.3359    0.6533   52.0626 C   0  0  0  0  0  0  0  0  0  0  0  0
  -15.3536    1.7187   52.6756 O   0  0  0  0  0  0  0  0  0  0  0  0
  -15.5857   -0.3397   50.3483 H   0  0  0  0  0  0  0  0  0  0  0  0
  -16.6100   -4.7645   54.3915 N   0  0  0  0  0  0  0  0  0  0  0  0
  -15.3107   -0.6454   52.7976 C   0  0  0  0  0  0  0  0  0  0  0  0
  -14.2366   -0.9175   53.6510 C   0  0  0  0  0  0  0  0  0  0  0  0
  -14.1711   -2.1054   54.3664 C   0  0  0  0  0  0  0  0  0  0  0  0
  -15.2101   -3.0090   54.2338 C   0  0  0  0  0  0  0  0  0  0  0  0
  -15.4066   -4.2399   54.7664 N   0  0  0  0  0  0  0  0  0  0  0  0
  -14.4808   -5.0323   55.5554 C   0  0  0  0  0  0  0  0  0  0  0  0
  -17.1610   -3.8772   53.5907 C   0  0  0  0  0  0  0  0  0  0  0  0
  -16.3229   -2.7396   53.4246 C   0  0  0  0  0  0  0  0  0  0  0  0
  -16.3574   -1.5645   52.6779 C   0  0  0  0  0  0  0  0  0  0  0  0
  -13.7224    6.8922   47.4523 C   0  0  0  0  0  0  0  0  0  0  0  0
  -15.4786   10.1247   47.7394 C   0  0  0  0  0  0  0  0  0  0  0  0
  -13.6256    8.9745   48.7632 C   0  0  0  0  0  0  0  0  0  0  0  0
  -14.4740    8.0281   48.0076 N   0  0  0  0  0  0  0  0  0  0  0  0
  -15.1373    8.8585   46.9655 C   0  0  0  0  0  0  0  0  0  0  0  0
  -16.3428    8.1856   46.3449 C   0  0  0  0  0  0  0  0  0  0  0  0
  -14.2017   10.3733   48.4672 C   0  0  0  0  0  0  0  0  0  0  0  0
 31 27  1  0  0  0
 31 26  1  0  0  0
 27 28  1  0  0  0
 26 29  1  0  0  0
 29 28  1  0  0  0
 29 30  1  0  0  0
  4  9  1  0  0  0
  4  5  2  0  0  0
 28 25  1  0  0  0
  8  9  2  0  0  0
  8  7  1  0  0  0
 25  5  1  0  0  0
  9  1  1  0  0  0
  5  3  1  0  0  0
  7  2  2  0  0  0
  1  3  1  0  0  0
  1  6  2  0  0  0
  2  6  1  0  0  0
  2 11  1  0  0  0
 11 12  1  0  0  0
 12 13  2  0  0  0
 12 16  1  0  0  0
 24 16  2  0  0  0
 24 23  1  0  0  0
 16 17  1  0  0  0
 22 23  1  0  0  0
 22 15  2  0  0  0
 23 19  2  0  0  0
 15 20  1  0  0  0
 17 18  2  0  0  0
 19 18  1  0  0  0
 19 20  1  0  0  0
 20 21  1  0  0  0
  3 10  1  0  0  0
 11 14  1  0  0  0
M  END
> <minimizedAffinity>
-8.75666

$$$$
6HT1_GQ5_A_210


 31 35  0  0  0  0  0  0  0  0999 V2000
  -17.2867    2.3071   48.0651 C   0  0  0  0  0  0  0  0  0  0  0  0
  -16.0466    1.1534   49.7767 C   0  0  0  0  0  0  0  0  0  0  0  0
  -18.3278    2.6912   47.2212 N   0  0  0  0  0  0  0  0  0  0  0  0
  -16.5043    3.8602   46.7026 N   0  0  0  0  0  0  0  0  0  0  0  0
  -17.8090    3.6212   46.4409 C   0  0  0  0  0  0  0  0  0  0  0  0
  -17.2478    1.3702   49.0947 C   0  0  0  0  0  0  0  0  0  0  0  0
  -14.8915    1.8649   49.4206 C   0  0  0  0  0  0  0  0  0  0  0  0
  -14.9264    2.8040   48.3964 C   0  0  0  0  0  0  0  0  0  0  0  0
  -16.1364    3.0192   47.7384 C   0  0  0  0  0  0  0  0  0  0  0  0
  -19.2492    2.3445   47.2096 H   0  0  0  0  0  0  0  0  0  0  0  0
  -15.9533    0.1783   50.7975 N   0  0  0  0  0  0  0  0  0  0  0  0
  -15.4609    0.3306   52.0537 C   0  0  0  0  0  0  0  0  0  0  0  0
  -15.1992    1.4231   52.5528 O   0  0  0  0  0  0  0  0  0  0  0  0
  -16.2857   -0.7198   50.5692 H   0  0  0  0  0  0  0  0  0  0  0  0
  -16.4514   -4.9373   54.8227 N   0  0  0  0  0  0  0  0  0  0  0  0
  -15.3528   -0.9191   52.8623 C   0  0  0  0  0  0  0  0  0  0  0  0
  -14.2014   -1.1309   53.6273 C   0  0  0  0  0  0  0  0  0  0  0  0
  -14.0562   -2.2712   54.4057 C   0  0  0  0  0  0  0  0  0  0  0  0
  -15.0925   -3.1872   54.4267 C   0  0  0  0  0  0  0  0  0  0  0  0
  -15.2246   -4.3833   55.0506 N   0  0  0  0  0  0  0  0  0  0  0  0
  -14.2207   -5.1193   55.7977 C   0  0  0  0  0  0  0  0  0  0  0  0
  -17.0844   -4.1053   54.0232 C   0  0  0  0  0  0  0  0  0  0  0  0
  -16.2785   -2.9756   53.7096 C   0  0  0  0  0  0  0  0  0  0  0  0
  -16.3955   -1.8500   52.8979 C   0  0  0  0  0  0  0  0  0  0  0  0
  -18.5704    4.3925   45.4112 C   0  0  0  0  0  0  0  0  0  0  0  0
  -17.2517    7.2609   43.5010 C   0  0  0  0  0  0  0  0  0  0  0  0
  -17.8160    4.9476   43.1338 C   0  0  0  0  0  0  0  0  0  0  0  0
  -17.6941    5.2319   44.5797 N   0  0  0  0  0  0  0  0  0  0  0  0
  -17.9808    6.6869   44.7082 C   0  0  0  0  0  0  0  0  0  0  0  0
  -17.5209    7.2710   46.0266 C   0  0  0  0  0  0  0  0  0  0  0  0
  -17.6697    6.3115   42.4306 C   0  0  0  0  0  0  0  0  0  0  0  0
 31 27  1  0  0  0
 31 26  1  0  0  0
 27 28  1  0  0  0
 26 29  1  0  0  0
 29 28  1  0  0  0
 29 30  1  0  0  0
  4  9  1  0  0  0
  4  5  2  0  0  0
 28 25  1  0  0  0
  8  9  2  0  0  0
  8  7  1  0  0  0
 25  5  1  0  0  0
  9  1  1  0  0  0
  5  3  1  0  0  0
  7  2  2  0  0  0
  1  3  1  0  0  0
  1  6  2  0  0  0
  2  6  1  0  0  0
  2 11  1  0  0  0
 11 12  1  0  0  0
 12 13  2  0  0  0
 12 16  1  0  0  0
 24 16  2  0  0  0
 24 23  1  0  0  0
 16 17  1  0  0  0
 22 23  1  0  0  0
 22 15  2  0  0  0
 23 19  2  0  0  0
 15 20  1  0  0  0
 17 18  2  0  0  0
 19 18  1  0  0  0
 19 20  1  0  0  0
 20 21  1  0  0  0
  3 10  1  0  0  0
 11 14  1  0  0  0
M  END
> <minimizedAffinity>
-8.40369

$$$$
6HT1_GQ5_A_210


 31 35  0  0  0  0  0  0  0  0999 V2000
  -16.0022   -3.5140   54.2784 C   0  0  0  0  0  0  0  0  0  0  0  0
  -15.1305   -1.7468   52.8944 C   0  0  0  0  0  0  0  0  0  0  0  0
  -16.8682   -4.4670   54.8130 N   0  0  0  0  0  0  0  0  0  0  0  0
  -14.9683   -4.4796   55.9753 N   0  0  0  0  0  0  0  0  0  0  0  0
  -16.1987   -5.0150   55.8102 C   0  0  0  0  0  0  0  0  0  0  0  0
  -16.1624   -2.6362   53.2093 C   0  0  0  0  0  0  0  0  0  0  0  0
  -13.9513   -1.7327   53.6536 C   0  0  0  0  0  0  0  0  0  0  0  0
  -13.7851   -2.6098   54.7191 C   0  0  0  0  0  0  0  0  0  0  0  0
  -14.8173   -3.5008   55.0085 C   0  0  0  0  0  0  0  0  0  0  0  0
  -17.7802   -4.6840   54.5123 H   0  0  0  0  0  0  0  0  0  0  0  0
  -15.2716   -0.8080   51.8455 N   0  0  0  0  0  0  0  0  0  0  0  0
  -15.4398    0.5356   51.9460 C   0  0  0  0  0  0  0  0  0  0  0  0
  -15.2935    1.1620   52.9936 O   0  0  0  0  0  0  0  0  0  0  0  0
  -15.2445   -1.1732   50.9317 H   0  0  0  0  0  0  0  0  0  0  0  0
  -17.6026    2.3458   46.6127 N   0  0  0  0  0  0  0  0  0  0  0  0
  -15.7112    1.2515   50.6649 C   0  0  0  0  0  0  0  0  0  0  0  0
  -14.8802    2.3142   50.2961 C   0  0  0  0  0  0  0  0  0  0  0  0
  -15.0826    3.0054   49.1093 C   0  0  0  0  0  0  0  0  0  0  0  0
  -16.1161    2.6017   48.2832 C   0  0  0  0  0  0  0  0  0  0  0  0
  -16.5702    3.0919   47.1039 N   0  0  0  0  0  0  0  0  0  0  0  0
  -16.1575    4.3039   46.4196 C   0  0  0  0  0  0  0  0  0  0  0  0
  -17.8253    1.4013   47.5017 C   0  0  0  0  0  0  0  0  0  0  0  0
  -16.9323    1.5079   48.6041 C   0  0  0  0  0  0  0  0  0  0  0  0
  -16.7481    0.8496   49.8175 C   0  0  0  0  0  0  0  0  0  0  0  0
  -16.6932   -6.1509   56.6469 C   0  0  0  0  0  0  0  0  0  0  0  0
  -14.5644   -8.3421   58.7162 C   0  0  0  0  0  0  0  0  0  0  0  0
  -16.1758   -6.5764   59.0165 C   0  0  0  0  0  0  0  0  0  0  0  0
  -15.6895   -6.6071   57.6205 N   0  0  0  0  0  0  0  0  0  0  0  0
  -15.2537   -8.0131   57.3990 C   0  0  0  0  0  0  0  0  0  0  0  0
  -14.3575   -8.1761   56.1902 C   0  0  0  0  0  0  0  0  0  0  0  0
  -15.5477   -7.8068   59.7003 C   0  0  0  0  0  0  0  0  0  0  0  0
 31 27  1  0  0  0
 31 26  1  0  0  0
 27 28  1  0  0  0
 26 29  1  0  0  0
 29 28  1  0  0  0
 29 30  1  0  0  0
  4  9  1  0  0  0
  4  5  2  0  0  0
 28 25  1  0  0  0
  8  9  2  0  0  0
  8  7  1  0  0  0
 25  5  1  0  0  0
  9  1  1  0  0  0
  5  3  1  0  0  0
  7  2  2  0  0  0
  1  3  1  0  0  0
  1  6  2  0  0  0
  2  6  1  0  0  0
  2 11  1  0  0  0
 11 12  1  0  0  0
 12 13  2  0  0  0
 12 16  1  0  0  0
 24 16  2  0  0  0
 24 23  1  0  0  0
 16 17  1  0  0  0
 22 23  1  0  0  0
 22 15  2  0  0  0
 23 19  2  0  0  0
 15 20  1  0  0  0
 17 18  2  0  0  0
 19 18  1  0  0  0
 19 20  1  0  0  0
 20 21  1  0  0  0
  3 10  1  0  0  0
 11 14  1  0  0  0
M  END
> <minimizedAffinity>
-8.05821

$$$$
6HT1_GQ5_A_210


 31 35  0  0  0  0  0  0  0  0999 V2000
  -15.6350   -3.6286   54.5131 C   0  0  0  0  0  0  0  0  0  0  0  0
  -16.4781   -1.8761   53.0931 C   0  0  0  0  0  0  0  0  0  0  0  0
  -14.7958   -4.6043   55.0492 N   0  0  0  0  0  0  0  0  0  0  0  0
  -16.7062   -4.5814   56.1940 N   0  0  0  0  0  0  0  0  0  0  0  0
  -15.4792   -5.1302   56.0489 C   0  0  0  0  0  0  0  0  0  0  0  0
  -15.4462   -2.7497   53.4495 C   0  0  0  0  0  0  0  0  0  0  0  0
  -17.6934   -1.8923   53.7930 C   0  0  0  0  0  0  0  0  0  0  0  0
  -17.8851   -2.7650   54.8579 C   0  0  0  0  0  0  0  0  0  0  0  0
  -16.8397   -3.6172   55.2100 C   0  0  0  0  0  0  0  0  0  0  0  0
  -13.8908   -4.8480   54.7480 H   0  0  0  0  0  0  0  0  0  0  0  0
  -16.3436   -1.0000   51.9904 N   0  0  0  0  0  0  0  0  0  0  0  0
  -15.7235    0.2074   51.9555 C   0  0  0  0  0  0  0  0  0  0  0  0
  -15.0037    0.6278   52.8591 O   0  0  0  0  0  0  0  0  0  0  0  0
  -16.7490   -1.3025   51.1458 H   0  0  0  0  0  0  0  0  0  0  0  0
  -15.1512    4.1041   47.3853 N   0  0  0  0  0  0  0  0  0  0  0  0
  -15.8727    0.9751   50.6843 C   0  0  0  0  0  0  0  0  0  0  0  0
  -16.9358    0.6662   49.8298 C   0  0  0  0  0  0  0  0  0  0  0  0
  -17.1259    1.3579   48.6413 C   0  0  0  0  0  0  0  0  0  0  0  0
  -16.2489    2.3816   48.3307 C   0  0  0  0  0  0  0  0  0  0  0  0
  -16.1610    3.1954   47.2503 N   0  0  0  0  0  0  0  0  0  0  0  0
  -16.9191    3.1274   46.0140 C   0  0  0  0  0  0  0  0  0  0  0  0
  -14.5760    3.8413   48.5394 C   0  0  0  0  0  0  0  0  0  0  0  0
  -15.2052    2.7455   49.1931 C   0  0  0  0  0  0  0  0  0  0  0  0
  -14.9974    2.0165   50.3615 C   0  0  0  0  0  0  0  0  0  0  0  0
  -14.9583   -6.1771   56.9804 C   0  0  0  0  0  0  0  0  0  0  0  0
  -12.1251   -8.4114   56.2083 C   0  0  0  0  0  0  0  0  0  0  0  0
  -12.6390   -6.5890   57.6980 C   0  0  0  0  0  0  0  0  0  0  0  0
  -13.6214   -6.6540   56.5948 N   0  0  0  0  0  0  0  0  0  0  0  0
  -13.6096   -8.0765   56.1566 C   0  0  0  0  0  0  0  0  0  0  0  0
  -14.2295   -8.2851   54.7916 C   0  0  0  0  0  0  0  0  0  0  0  0
  -11.7421   -7.8309   57.5267 C   0  0  0  0  0  0  0  0  0  0  0  0
 31 27  1  0  0  0
 31 26  1  0  0  0
 27 28  1  0  0  0
 26 29  1  0  0  0
 29 28  1  0  0  0
 29 30  1  0  0  0
  4  9  1  0  0  0
  4  5  2  0  0  0
 28 25  1  0  0  0
  8  9  2  0  0  0
  8  7  1  0  0  0
 25  5  1  0  0  0
  9  1  1  0  0  0
  5  3  1  0  0  0
  7  2  2  0  0  0
  1  3  1  0  0  0
  1  6  2  0  0  0
  2  6  1  0  0  0
  2 11  1  0  0  0
 11 12  1  0  0  0
 12 13  2  0  0  0
 12 16  1  0  0  0
 24 16  2  0  0  0
 24 23  1  0  0  0
 16 17  1  0  0  0
 22 23  1  0  0  0
 22 15  2  0  0  0
 23 19  2  0  0  0
 15 20  1  0  0  0
 17 18  2  0  0  0
 19 18  1  0  0  0
 19 20  1  0  0  0
 20 21  1  0  0  0
  3 10  1  0  0  0
 11 14  1  0  0  0
M  END
> <minimizedAffinity>
-7.88733

$$$$
6HT1_GQ5_A_210


 31 35  0  0  0  0  0  0  0  0999 V2000
  -17.0975    2.6249   47.6519 C   0  0  0  0  0  0  0  0  0  0  0  0
  -16.0902    1.4581   49.5019 C   0  0  0  0  0  0  0  0  0  0  0  0
  -18.0147    3.0067   46.6738 N   0  0  0  0  0  0  0  0  0  0  0  0
  -16.1639    4.2250   46.4482 N   0  0  0  0  0  0  0  0  0  0  0  0
  -17.4110    3.9650   45.9955 C   0  0  0  0  0  0  0  0  0  0  0  0
  -17.1852    1.6656   48.6575 C   0  0  0  0  0  0  0  0  0  0  0  0
  -14.9132    2.2015   49.3312 C   0  0  0  0  0  0  0  0  0  0  0  0
  -14.8223    3.1631   48.3315 C   0  0  0  0  0  0  0  0  0  0  0  0
  -15.9293    3.3681   47.5095 C   0  0  0  0  0  0  0  0  0  0  0  0
  -18.9161    2.6412   46.5219 H   0  0  0  0  0  0  0  0  0  0  0  0
  -16.1220    0.4619   50.5059 N   0  0  0  0  0  0  0  0  0  0  0  0
  -15.6314    0.5358   51.7698 C   0  0  0  0  0  0  0  0  0  0  0  0
  -15.2527    1.5827   52.2913 O   0  0  0  0  0  0  0  0  0  0  0  0
  -16.5521   -0.3883   50.2580 H   0  0  0  0  0  0  0  0  0  0  0  0
  -14.4014   -4.1657   55.3450 N   0  0  0  0  0  0  0  0  0  0  0  0
  -15.6772   -0.7314   52.5570 C   0  0  0  0  0  0  0  0  0  0  0  0
  -16.7957   -1.5620   52.4350 C   0  0  0  0  0  0  0  0  0  0  0  0
  -16.8826   -2.7569   53.1364 C   0  0  0  0  0  0  0  0  0  0  0  0
  -15.8211   -3.1213   53.9451 C   0  0  0  0  0  0  0  0  0  0  0  0
  -15.6347   -4.1884   54.7598 N   0  0  0  0  0  0  0  0  0  0  0  0
  -16.5919   -5.2195   55.1180 C   0  0  0  0  0  0  0  0  0  0  0  0
  -13.8194   -3.0622   54.9262 C   0  0  0  0  0  0  0  0  0  0  0  0
  -14.6665   -2.3325   54.0465 C   0  0  0  0  0  0  0  0  0  0  0  0
  -14.6085   -1.1149   53.3728 C   0  0  0  0  0  0  0  0  0  0  0  0
  -18.0339    4.7439   44.8819 C   0  0  0  0  0  0  0  0  0  0  0  0
  -17.9103    2.1290   42.2814 C   0  0  0  0  0  0  0  0  0  0  0  0
  -16.4749    3.8258   43.2115 C   0  0  0  0  0  0  0  0  0  0  0  0
  -17.8849    4.0756   43.5800 N   0  0  0  0  0  0  0  0  0  0  0  0
  -18.5355    2.7378   43.5292 C   0  0  0  0  0  0  0  0  0  0  0  0
  -20.0463    2.8112   43.4744 C   0  0  0  0  0  0  0  0  0  0  0  0
  -16.4726    2.4679   42.4818 C   0  0  0  0  0  0  0  0  0  0  0  0
 31 27  1  0  0  0
 31 26  1  0  0  0
 27 28  1  0  0  0
 26 29  1  0  0  0
 29 28  1  0  0  0
 29 30  1  0  0  0
  4  9  1  0  0  0
  4  5  2  0  0  0
 28 25  1  0  0  0
  8  9  2  0  0  0
  8  7  1  0  0  0
 25  5  1  0  0  0
  9  1  1  0  0  0
  5  3  1  0  0  0
  7  2  2  0  0  0
  1  3  1  0  0  0
  1  6  2  0  0  0
  2  6  1  0  0  0
  2 11  1  0  0  0
 11 12  1  0  0  0
 12 13  2  0  0  0
 12 16  1  0  0  0
 24 16  2  0  0  0
 24 23  1  0  0  0
 16 17  1  0  0  0
 22 23  1  0  0  0
 22 15  2  0  0  0
 23 19  2  0  0  0
 15 20  1  0  0  0
 17 18  2  0  0  0
 19 18  1  0  0  0
 19 20  1  0  0  0
 20 21  1  0  0  0
  3 10  1  0  0  0
 11 14  1  0  0  0
M  END
> <minimizedAffinity>
-7.80495

$$$$
6HT1_GQ5_A_210


 31 35  0  0  0  0  0  0  0  0999 V2000
  -16.2946   -3.5941   54.5285 C   0  0  0  0  0  0  0  0  0  0  0  0
  -15.2875   -1.9457   53.0907 C   0  0  0  0  0  0  0  0  0  0  0  0
  -17.2381   -4.4436   55.1046 N   0  0  0  0  0  0  0  0  0  0  0  0
  -15.3130   -4.6431   56.2068 N   0  0  0  0  0  0  0  0  0  0  0  0
  -16.5978   -5.0473   56.0886 C   0  0  0  0  0  0  0  0  0  0  0  0
  -16.3965   -2.7171   53.4515 C   0  0  0  0  0  0  0  0  0  0  0  0
  -14.0891   -2.0473   53.8123 C   0  0  0  0  0  0  0  0  0  0  0  0
  -13.9813   -2.9242   54.8855 C   0  0  0  0  0  0  0  0  0  0  0  0
  -15.0916   -3.6974   55.2207 C   0  0  0  0  0  0  0  0  0  0  0  0
  -18.1773   -4.5665   54.8361 H   0  0  0  0  0  0  0  0  0  0  0  0
  -15.3633   -1.0099   52.0325 N   0  0  0  0  0  0  0  0  0  0  0  0
  -15.4576    0.3418   52.1197 C   0  0  0  0  0  0  0  0  0  0  0  0
  -15.2893    0.9684   53.1639 O   0  0  0  0  0  0  0  0  0  0  0  0
  -15.3455   -1.3843   51.1221 H   0  0  0  0  0  0  0  0  0  0  0  0
  -15.1904    4.1218   47.4251 N   0  0  0  0  0  0  0  0  0  0  0  0
  -15.6730    1.0602   50.8293 C   0  0  0  0  0  0  0  0  0  0  0  0
  -16.7317    0.6653   50.0053 C   0  0  0  0  0  0  0  0  0  0  0  0
  -16.9821    1.3081   48.8005 C   0  0  0  0  0  0  0  0  0  0  0  0
  -16.1708    2.3697   48.4426 C   0  0  0  0  0  0  0  0  0  0  0  0
  -16.1488    3.1535   47.3369 N   0  0  0  0  0  0  0  0  0  0  0  0
  -16.9236    3.0045   46.1182 C   0  0  0  0  0  0  0  0  0  0  0  0
  -14.5808    3.9278   48.5752 C   0  0  0  0  0  0  0  0  0  0  0  0
  -15.1345    2.8187   49.2734 C   0  0  0  0  0  0  0  0  0  0  0  0
  -14.8647    2.1391   50.4586 C   0  0  0  0  0  0  0  0  0  0  0  0
  -17.1814   -6.1144   56.9579 C   0  0  0  0  0  0  0  0  0  0  0  0
  -15.4491   -9.0136   55.4716 C   0  0  0  0  0  0  0  0  0  0  0  0
  -17.4131   -7.6774   55.0692 C   0  0  0  0  0  0  0  0  0  0  0  0
  -16.9104   -7.4655   56.4435 N   0  0  0  0  0  0  0  0  0  0  0  0
  -15.4585   -7.7861   56.3726 C   0  0  0  0  0  0  0  0  0  0  0  0
  -14.8342   -8.0274   57.7301 C   0  0  0  0  0  0  0  0  0  0  0  0
  -16.3705   -8.5817   54.3824 C   0  0  0  0  0  0  0  0  0  0  0  0
 31 27  1  0  0  0
 31 26  1  0  0  0
 27 28  1  0  0  0
 26 29  1  0  0  0
 29 28  1  0  0  0
 29 30  1  0  0  0
  4  9  1  0  0  0
  4  5  2  0  0  0
 28 25  1  0  0  0
  8  9  2  0  0  0
  8  7  1  0  0  0
 25  5  1  0  0  0
  9  1  1  0  0  0
  5  3  1  0  0  0
  7  2  2  0  0  0
  1  3  1  0  0  0
  1  6  2  0  0  0
  2  6  1  0  0  0
  2 11  1  0  0  0
 11 12  1  0  0  0
 12 13  2  0  0  0
 12 16  1  0  0  0
 24 16  2  0  0  0
 24 23  1  0  0  0
 16 17  1  0  0  0
 22 23  1  0  0  0
 22 15  2  0  0  0
 23 19  2  0  0  0
 15 20  1  0  0  0
 17 18  2  0  0  0
 19 18  1  0  0  0
 19 20  1  0  0  0
 20 21  1  0  0  0
  3 10  1  0  0  0
 11 14  1  0  0  0
M  END
> <minimizedAffinity>
-7.62202

$$$$
6HT1_GQ5_A_210


 31 35  0  0  0  0  0  0  0  0999 V2000
  -15.3112    1.6564   50.8942 C   0  0  0  0  0  0  0  0  0  0  0  0
  -15.4647    2.7466   48.7526 C   0  0  0  0  0  0  0  0  0  0  0  0
  -14.9125    1.3521   52.1950 N   0  0  0  0  0  0  0  0  0  0  0  0
  -16.4132   -0.1512   51.5255 N   0  0  0  0  0  0  0  0  0  0  0  0
  -15.6053    0.2768   52.5214 C   0  0  0  0  0  0  0  0  0  0  0  0
  -14.9234    2.6859   50.0404 C   0  0  0  0  0  0  0  0  0  0  0  0
  -16.3806    1.7753   48.3228 C   0  0  0  0  0  0  0  0  0  0  0  0
  -16.7738    0.7481   49.1728 C   0  0  0  0  0  0  0  0  0  0  0  0
  -16.2367    0.7126   50.4586 C   0  0  0  0  0  0  0  0  0  0  0  0
  -14.2570    1.8341   52.7494 H   0  0  0  0  0  0  0  0  0  0  0  0
  -15.0626    3.7492   47.8391 N   0  0  0  0  0  0  0  0  0  0  0  0
  -14.3233    4.8597   48.0918 C   0  0  0  0  0  0  0  0  0  0  0  0
  -13.7204    5.0489   49.1463 O   0  0  0  0  0  0  0  0  0  0  0  0
  -15.3544    3.6269   46.9068 H   0  0  0  0  0  0  0  0  0  0  0  0
  -12.3591    8.9168   44.0817 N   0  0  0  0  0  0  0  0  0  0  0  0
  -14.1834    5.8166   46.9550 C   0  0  0  0  0  0  0  0  0  0  0  0
  -15.2958    6.0724   46.1469 C   0  0  0  0  0  0  0  0  0  0  0  0
  -15.2217    6.9624   45.0841 C   0  0  0  0  0  0  0  0  0  0  0  0
  -14.0224    7.6127   44.8557 C   0  0  0  0  0  0  0  0  0  0  0  0
  -13.6432    8.4918   43.8962 N   0  0  0  0  0  0  0  0  0  0  0  0
  -14.3868    8.9118   42.7222 C   0  0  0  0  0  0  0  0  0  0  0  0
  -11.9130    8.2774   45.1419 C   0  0  0  0  0  0  0  0  0  0  0  0
  -12.9065    7.4133   45.6808 C   0  0  0  0  0  0  0  0  0  0  0  0
  -12.9790    6.4857   46.7170 C   0  0  0  0  0  0  0  0  0  0  0  0
  -15.5720   -0.3848   53.8616 C   0  0  0  0  0  0  0  0  0  0  0  0
  -15.8963   -3.9955   54.5495 C   0  0  0  0  0  0  0  0  0  0  0  0
  -14.1573   -2.3396   54.3525 C   0  0  0  0  0  0  0  0  0  0  0  0
  -15.4189   -1.8443   53.7615 N   0  0  0  0  0  0  0  0  0  0  0  0
  -16.4922   -2.5967   54.4669 C   0  0  0  0  0  0  0  0  0  0  0  0
  -17.8243   -2.5482   53.7500 C   0  0  0  0  0  0  0  0  0  0  0  0
  -14.5080   -3.6936   55.0005 C   0  0  0  0  0  0  0  0  0  0  0  0
 31 27  1  0  0  0
 31 26  1  0  0  0
 27 28  1  0  0  0
 26 29  1  0  0  0
 29 28  1  0  0  0
 29 30  1  0  0  0
  4  9  1  0  0  0
  4  5  2  0  0  0
 28 25  1  0  0  0
  8  9  2  0  0  0
  8  7  1  0  0  0
 25  5  1  0  0  0
  9  1  1  0  0  0
  5  3  1  0  0  0
  7  2  2  0  0  0
  1  3  1  0  0  0
  1  6  2  0  0  0
  2  6  1  0  0  0
  2 11  1  0  0  0
 11 12  1  0  0  0
 12 13  2  0  0  0
 12 16  1  0  0  0
 24 16  2  0  0  0
 24 23  1  0  0  0
 16 17  1  0  0  0
 22 23  1  0  0  0
 22 15  2  0  0  0
 23 19  2  0  0  0
 15 20  1  0  0  0
 17 18  2  0  0  0
 19 18  1  0  0  0
 19 20  1  0  0  0
 20 21  1  0  0  0
  3 10  1  0  0  0
 11 14  1  0  0  0
M  END
> <minimizedAffinity>
-7.54127

$$$$
6HT1_GQ5_A_210


 31 35  0  0  0  0  0  0  0  0999 V2000
  -14.3445    4.8308   48.5668 C   0  0  0  0  0  0  0  0  0  0  0  0
  -15.1101    2.6067   49.0825 C   0  0  0  0  0  0  0  0  0  0  0  0
  -13.7243    6.0739   48.6845 N   0  0  0  0  0  0  0  0  0  0  0  0
  -14.7947    5.9786   46.7336 N   0  0  0  0  0  0  0  0  0  0  0  0
  -14.0173    6.7086   47.5646 C   0  0  0  0  0  0  0  0  0  0  0  0
  -14.3766    3.7434   49.4362 C   0  0  0  0  0  0  0  0  0  0  0  0
  -15.8137    2.5668   47.8698 C   0  0  0  0  0  0  0  0  0  0  0  0
  -15.7814    3.6481   46.9970 C   0  0  0  0  0  0  0  0  0  0  0  0
  -15.0316    4.7664   47.3581 C   0  0  0  0  0  0  0  0  0  0  0  0
  -13.1854    6.4060   49.4384 H   0  0  0  0  0  0  0  0  0  0  0  0
  -15.2059    1.4992   49.9575 N   0  0  0  0  0  0  0  0  0  0  0  0
  -16.3285    0.8532   50.3652 C   0  0  0  0  0  0  0  0  0  0  0  0
  -17.4349    1.0288   49.8591 O   0  0  0  0  0  0  0  0  0  0  0  0
  -14.3553    1.1551   50.3142 H   0  0  0  0  0  0  0  0  0  0  0  0
  -14.1515   -2.7097   54.7202 N   0  0  0  0  0  0  0  0  0  0  0  0
  -16.1299   -0.1906   51.4133 C   0  0  0  0  0  0  0  0  0  0  0  0
  -17.1314   -1.1462   51.6128 C   0  0  0  0  0  0  0  0  0  0  0  0
  -16.9910   -2.1449   52.5668 C   0  0  0  0  0  0  0  0  0  0  0  0
  -15.8210   -2.1884   53.3034 C   0  0  0  0  0  0  0  0  0  0  0  0
  -15.4181   -3.0067   54.3061 N   0  0  0  0  0  0  0  0  0  0  0  0
  -16.1897   -4.0250   54.9956 C   0  0  0  0  0  0  0  0  0  0  0  0
  -13.7654   -1.6775   54.0008 C   0  0  0  0  0  0  0  0  0  0  0  0
  -14.7801   -1.2741   53.0889 C   0  0  0  0  0  0  0  0  0  0  0  0
  -14.9495   -0.2502   52.1602 C   0  0  0  0  0  0  0  0  0  0  0  0
  -13.5083    8.0648   47.1949 C   0  0  0  0  0  0  0  0  0  0  0  0
  -10.0607    9.3620   46.9788 C   0  0  0  0  0  0  0  0  0  0  0  0
  -11.4323    7.6839   45.9265 C   0  0  0  0  0  0  0  0  0  0  0  0
  -12.0389    8.1312   47.1986 N   0  0  0  0  0  0  0  0  0  0  0  0
  -11.5142    9.5083   47.4083 C   0  0  0  0  0  0  0  0  0  0  0  0
  -11.6781    9.9986   48.8309 C   0  0  0  0  0  0  0  0  0  0  0  0
  -10.2087    8.5959   45.7088 C   0  0  0  0  0  0  0  0  0  0  0  0
 31 27  1  0  0  0
 31 26  1  0  0  0
 27 28  1  0  0  0
 26 29  1  0  0  0
 29 28  1  0  0  0
 29 30  1  0  0  0
  4  9  1  0  0  0
  4  5  2  0  0  0
 28 25  1  0  0  0
  8  9  2  0  0  0
  8  7  1  0  0  0
 25  5  1  0  0  0
  9  1  1  0  0  0
  5  3  1  0  0  0
  7  2  2  0  0  0
  1  3  1  0  0  0
  1  6  2  0  0  0
  2  6  1  0  0  0
  2 11  1  0  0  0
 11 12  1  0  0  0
 12 13  2  0  0  0
 12 16  1  0  0  0
 24 16  2  0  0  0
 24 23  1  0  0  0
 16 17  1  0  0  0
 22 23  1  0  0  0
 22 15  2  0  0  0
 23 19  2  0  0  0
 15 20  1  0  0  0
 17 18  2  0  0  0
 19 18  1  0  0  0
 19 20  1  0  0  0
 20 21  1  0  0  0
  3 10  1  0  0  0
 11 14  1  0  0  0
M  END
> <minimizedAffinity>
-7.51004

$$$$
6HT1_GQ5_A_210


 31 35  0  0  0  0  0  0  0  0999 V2000
  -15.0743    2.2144   50.9062 C   0  0  0  0  0  0  0  0  0  0  0  0
  -14.8319    3.3894   48.8183 C   0  0  0  0  0  0  0  0  0  0  0  0
  -15.0097    1.9110   52.2654 N   0  0  0  0  0  0  0  0  0  0  0  0
  -15.9117    0.1884   51.1793 N   0  0  0  0  0  0  0  0  0  0  0  0
  -15.5287    0.7016   52.3700 C   0  0  0  0  0  0  0  0  0  0  0  0
  -14.6806    3.3531   50.2079 C   0  0  0  0  0  0  0  0  0  0  0  0
  -15.3651    2.2868   48.1349 C   0  0  0  0  0  0  0  0  0  0  0  0
  -15.7633    1.1496   48.8280 C   0  0  0  0  0  0  0  0  0  0  0  0
  -15.6206    1.1373   50.2146 C   0  0  0  0  0  0  0  0  0  0  0  0
  -14.6545    2.4755   52.9895 H   0  0  0  0  0  0  0  0  0  0  0  0
  -14.4022    4.5084   48.0669 N   0  0  0  0  0  0  0  0  0  0  0  0
  -15.0633    5.1442   47.0657 C   0  0  0  0  0  0  0  0  0  0  0  0
  -16.2468    4.9450   46.7995 O   0  0  0  0  0  0  0  0  0  0  0  0
  -13.5163    4.8702   48.2981 H   0  0  0  0  0  0  0  0  0  0  0  0
  -10.9406    9.1825   45.3065 N   0  0  0  0  0  0  0  0  0  0  0  0
  -14.2934    6.2064   46.3541 C   0  0  0  0  0  0  0  0  0  0  0  0
  -14.8840    6.8526   45.2635 C   0  0  0  0  0  0  0  0  0  0  0  0
  -14.2150    7.8552   44.5746 C   0  0  0  0  0  0  0  0  0  0  0  0
  -12.9531    8.2196   45.0087 C   0  0  0  0  0  0  0  0  0  0  0  0
  -12.0612    9.1204   44.5290 N   0  0  0  0  0  0  0  0  0  0  0  0
  -12.1395    9.8917   43.3016 C   0  0  0  0  0  0  0  0  0  0  0  0
  -11.1095    8.2925   46.2612 C   0  0  0  0  0  0  0  0  0  0  0  0
  -12.3583    7.6237   46.1297 C   0  0  0  0  0  0  0  0  0  0  0  0
  -13.0200    6.5891   46.7864 C   0  0  0  0  0  0  0  0  0  0  0  0
  -15.7434   -0.0258   53.6583 C   0  0  0  0  0  0  0  0  0  0  0  0
  -15.3572   -3.6073   54.4577 C   0  0  0  0  0  0  0  0  0  0  0  0
  -13.9651   -1.6861   54.0387 C   0  0  0  0  0  0  0  0  0  0  0  0
  -15.3474   -1.4399   53.5751 N   0  0  0  0  0  0  0  0  0  0  0  0
  -16.1947   -2.3366   54.4080 C   0  0  0  0  0  0  0  0  0  0  0  0
  -17.5804   -2.5475   53.8368 C   0  0  0  0  0  0  0  0  0  0  0  0
  -14.0050   -3.0527   54.7507 C   0  0  0  0  0  0  0  0  0  0  0  0
 31 27  1  0  0  0
 31 26  1  0  0  0
 27 28  1  0  0  0
 26 29  1  0  0  0
 29 28  1  0  0  0
 29 30  1  0  0  0
  4  9  1  0  0  0
  4  5  2  0  0  0
 28 25  1  0  0  0
  8  9  2  0  0  0
  8  7  1  0  0  0
 25  5  1  0  0  0
  9  1  1  0  0  0
  5  3  1  0  0  0
  7  2  2  0  0  0
  1  3  1  0  0  0
  1  6  2  0  0  0
  2  6  1  0  0  0
  2 11  1  0  0  0
 11 12  1  0  0  0
 12 13  2  0  0  0
 12 16  1  0  0  0
 24 16  2  0  0  0
 24 23  1  0  0  0
 16 17  1  0  0  0
 22 23  1  0  0  0
 22 15  2  0  0  0
 23 19  2  0  0  0
 15 20  1  0  0  0
 17 18  2  0  0  0
 19 18  1  0  0  0
 19 20  1  0  0  0
 20 21  1  0  0  0
  3 10  1  0  0  0
 11 14  1  0  0  0
M  END
> <minimizedAffinity>
-7.40013

$$$$
6HT1_GQ5_A_210


 31 35  0  0  0  0  0  0  0  0999 V2000
  -16.1992   -1.4160   52.7486 C   0  0  0  0  0  0  0  0  0  0  0  0
  -15.4200    0.6715   51.8355 C   0  0  0  0  0  0  0  0  0  0  0  0
  -16.8969   -2.6140   52.8957 N   0  0  0  0  0  0  0  0  0  0  0  0
  -15.6134   -2.2970   54.6881 N   0  0  0  0  0  0  0  0  0  0  0  0
  -16.5029   -3.0976   54.0592 C   0  0  0  0  0  0  0  0  0  0  0  0
  -16.2051   -0.4795   51.7180 C   0  0  0  0  0  0  0  0  0  0  0  0
  -14.6429    0.8846   52.9835 C   0  0  0  0  0  0  0  0  0  0  0  0
  -14.6305   -0.0492   54.0131 C   0  0  0  0  0  0  0  0  0  0  0  0
  -15.4064   -1.1986   53.8717 C   0  0  0  0  0  0  0  0  0  0  0  0
  -17.5427   -3.0125   52.2685 H   0  0  0  0  0  0  0  0  0  0  0  0
  -15.4331    1.6688   50.8322 N   0  0  0  0  0  0  0  0  0  0  0  0
  -15.7637    1.5299   49.5226 C   0  0  0  0  0  0  0  0  0  0  0  0
  -16.3003    0.5250   49.0603 O   0  0  0  0  0  0  0  0  0  0  0  0
  -15.1706    2.5735   51.1183 H   0  0  0  0  0  0  0  0  0  0  0  0
  -15.9355    5.7394   45.2041 N   0  0  0  0  0  0  0  0  0  0  0  0
  -15.5384    2.7320   48.6672 C   0  0  0  0  0  0  0  0  0  0  0  0
  -14.5172    3.6235   49.0109 C   0  0  0  0  0  0  0  0  0  0  0  0
  -14.2591    4.7504   48.2423 C   0  0  0  0  0  0  0  0  0  0  0  0
  -15.0235    4.9602   47.1086 C   0  0  0  0  0  0  0  0  0  0  0  0
  -15.0284    5.9652   46.1991 N   0  0  0  0  0  0  0  0  0  0  0  0
  -14.2864    7.2124   46.2388 C   0  0  0  0  0  0  0  0  0  0  0  0
  -16.5311    4.6049   45.5042 C   0  0  0  0  0  0  0  0  0  0  0  0
  -16.0195    4.0562   46.7131 C   0  0  0  0  0  0  0  0  0  0  0  0
  -16.2992    2.9525   47.5150 C   0  0  0  0  0  0  0  0  0  0  0  0
  -16.9262   -4.4164   54.6219 C   0  0  0  0  0  0  0  0  0  0  0  0
  -15.8722   -5.8467   57.8559 C   0  0  0  0  0  0  0  0  0  0  0  0
  -17.7863   -4.7326   56.9075 C   0  0  0  0  0  0  0  0  0  0  0  0
  -16.5965   -4.5473   56.0494 N   0  0  0  0  0  0  0  0  0  0  0  0
  -15.7261   -5.7179   56.3458 C   0  0  0  0  0  0  0  0  0  0  0  0
  -14.2953   -5.5274   55.8906 C   0  0  0  0  0  0  0  0  0  0  0  0
  -17.3474   -5.7074   58.0181 C   0  0  0  0  0  0  0  0  0  0  0  0
 31 27  1  0  0  0
 31 26  1  0  0  0
 27 28  1  0  0  0
 26 29  1  0  0  0
 29 28  1  0  0  0
 29 30  1  0  0  0
  4  9  1  0  0  0
  4  5  2  0  0  0
 28 25  1  0  0  0
  8  9  2  0  0  0
  8  7  1  0  0  0
 25  5  1  0  0  0
  9  1  1  0  0  0
  5  3  1  0  0  0
  7  2  2  0  0  0
  1  3  1  0  0  0
  1  6  2  0  0  0
  2  6  1  0  0  0
  2 11  1  0  0  0
 11 12  1  0  0  0
 12 13  2  0  0  0
 12 16  1  0  0  0
 24 16  2  0  0  0
 24 23  1  0  0  0
 16 17  1  0  0  0
 22 23  1  0  0  0
 22 15  2  0  0  0
 23 19  2  0  0  0
 15 20  1  0  0  0
 17 18  2  0  0  0
 19 18  1  0  0  0
 19 20  1  0  0  0
 20 21  1  0  0  0
  3 10  1  0  0  0
 11 14  1  0  0  0
M  END
> <minimizedAffinity>
-7.31080

$$$$
