2QDT_I38_A_501


 14 13  0  0  0  0  0  0  0  0999 V2000
   13.2993   27.1055   29.9616 C   0  0  0  0  0  0  0  0  0  0  0  0
   12.1927   27.0206   29.5127 O   0  0  0  0  0  0  0  0  0  0  0  0
   13.9154   28.2756   30.1948 N   0  0  0  0  0  0  0  0  0  0  0  0
   14.8025   28.2326   30.6195 H   0  0  0  0  0  0  0  0  0  0  0  0
   13.3988   29.6095   29.8800 C   0  0  0  0  0  0  0  0  0  0  0  0
   14.2384   30.1706   28.7333 C   0  0  0  0  0  0  0  0  0  0  0  0
   13.4060   30.5660   31.0644 C   0  0  0  0  0  0  0  0  0  0  0  0
   13.7915   30.1077   32.1854 O   0  0  0  0  0  0  0  0  0  0  0  0
   13.0367   31.7779   30.9070 O   0  0  0  0  0  0  0  0  0  0  0  0
   12.7591   32.0773   30.0637 H   0  0  0  0  0  0  0  0  0  0  0  0
   13.9960   25.7972   30.2810 C   0  0  0  0  0  0  0  0  0  0  0  0
   16.1073   24.7465   31.4404 S   0  0  0  0  0  0  0  0  0  0  0  0
   14.9091   25.9130   31.4951 C   0  0  0  0  0  0  0  0  0  0  0  0
   16.9092   24.8686   32.5320 H   0  0  0  0  0  0  0  0  0  0  0  0
 12 13  1  0  0  0
 13 11  1  0  0  0
 11  1  1  0  0  0
  1  2  2  0  0  0
  1  3  1  0  0  0
  3  5  1  0  0  0
  5  6  1  0  0  0
  5  7  1  0  0  0
  7  8  2  0  0  0
  7  9  1  0  0  0
 12 14  1  0  0  0
  3  4  1  0  0  0
  9 10  1  0  0  0
M  END
> <minimizedAffinity>
-4.70323

$$$$
2QDT_I38_A_501


 14 13  0  0  0  0  0  0  0  0999 V2000
   11.5718   29.0941   33.3399 C   0  0  0  0  0  0  0  0  0  0  0  0
   10.6502   28.4947   32.8661 O   0  0  0  0  0  0  0  0  0  0  0  0
   12.6245   29.5196   32.6232 N   0  0  0  0  0  0  0  0  0  0  0  0
   13.2997   30.0533   33.1012 H   0  0  0  0  0  0  0  0  0  0  0  0
   12.8682   29.2687   31.2009 C   0  0  0  0  0  0  0  0  0  0  0  0
   13.8451   28.0981   31.0997 C   0  0  0  0  0  0  0  0  0  0  0  0
   13.4043   30.4779   30.4471 C   0  0  0  0  0  0  0  0  0  0  0  0
   14.1700   30.2589   29.4568 O   0  0  0  0  0  0  0  0  0  0  0  0
   13.0774   31.6554   30.8167 O   0  0  0  0  0  0  0  0  0  0  0  0
   12.5100   31.7749   31.5527 H   0  0  0  0  0  0  0  0  0  0  0  0
   11.4950   29.3762   34.8277 C   0  0  0  0  0  0  0  0  0  0  0  0
    9.9682   30.6831   36.5209 S   0  0  0  0  0  0  0  0  0  0  0  0
   10.0584   29.5313   35.3106 C   0  0  0  0  0  0  0  0  0  0  0  0
    8.6788   30.8045   36.9360 H   0  0  0  0  0  0  0  0  0  0  0  0
 12 13  1  0  0  0
 13 11  1  0  0  0
 11  1  1  0  0  0
  1  2  2  0  0  0
  1  3  1  0  0  0
  3  5  1  0  0  0
  5  6  1  0  0  0
  5  7  1  0  0  0
  7  8  2  0  0  0
  7  9  1  0  0  0
 12 14  1  0  0  0
  3  4  1  0  0  0
  9 10  1  0  0  0
M  END
> <minimizedAffinity>
-4.42241

$$$$
2QDT_I38_A_501


 14 13  0  0  0  0  0  0  0  0999 V2000
   11.2388   29.3806   35.3624 C   0  0  0  0  0  0  0  0  0  0  0  0
   11.4338   28.4668   36.1109 O   0  0  0  0  0  0  0  0  0  0  0  0
   10.6550   30.5308   35.7354 N   0  0  0  0  0  0  0  0  0  0  0  0
   10.5951   31.2389   35.0540 H   0  0  0  0  0  0  0  0  0  0  0  0
   10.0983   30.8367   37.0551 C   0  0  0  0  0  0  0  0  0  0  0  0
    8.6206   30.4480   37.0339 C   0  0  0  0  0  0  0  0  0  0  0  0
   10.2611   32.2931   37.4677 C   0  0  0  0  0  0  0  0  0  0  0  0
    9.5747   33.1599   36.8411 O   0  0  0  0  0  0  0  0  0  0  0  0
   11.0617   32.6019   38.4129 O   0  0  0  0  0  0  0  0  0  0  0  0
   11.5504   31.9327   38.8504 H   0  0  0  0  0  0  0  0  0  0  0  0
   11.7052   29.1880   33.9325 C   0  0  0  0  0  0  0  0  0  0  0  0
   13.2329   30.1172   32.0068 S   0  0  0  0  0  0  0  0  0  0  0  0
   12.2819   30.4669   33.3382 C   0  0  0  0  0  0  0  0  0  0  0  0
   13.7363   31.2716   31.4935 H   0  0  0  0  0  0  0  0  0  0  0  0
 12 13  1  0  0  0
 13 11  1  0  0  0
 11  1  1  0  0  0
  1  2  2  0  0  0
  1  3  1  0  0  0
  3  5  1  0  0  0
  5  6  1  0  0  0
  5  7  1  0  0  0
  7  8  2  0  0  0
  7  9  1  0  0  0
 12 14  1  0  0  0
  3  4  1  0  0  0
  9 10  1  0  0  0
M  END
> <minimizedAffinity>
-4.31107

$$$$
2QDT_I38_A_501


 14 13  0  0  0  0  0  0  0  0999 V2000
   13.2422   26.8394   30.2478 C   0  0  0  0  0  0  0  0  0  0  0  0
   14.0342   26.3690   31.0125 O   0  0  0  0  0  0  0  0  0  0  0  0
   12.9448   28.1480   30.2026 N   0  0  0  0  0  0  0  0  0  0  0  0
   12.3223   28.4370   29.4968 H   0  0  0  0  0  0  0  0  0  0  0  0
   13.4546   29.1882   31.0988 C   0  0  0  0  0  0  0  0  0  0  0  0
   12.5279   29.2461   32.3125 C   0  0  0  0  0  0  0  0  0  0  0  0
   13.5665   30.5595   30.4471 C   0  0  0  0  0  0  0  0  0  0  0  0
   13.1489   31.5596   31.1108 O   0  0  0  0  0  0  0  0  0  0  0  0
   14.0681   30.6705   29.2784 O   0  0  0  0  0  0  0  0  0  0  0  0
   14.3648   29.9081   28.8215 H   0  0  0  0  0  0  0  0  0  0  0  0
   12.5763   25.8701   29.2907 C   0  0  0  0  0  0  0  0  0  0  0  0
   10.2291   25.2589   28.2793 S   0  0  0  0  0  0  0  0  0  0  0  0
   11.1181   25.6158   29.6511 C   0  0  0  0  0  0  0  0  0  0  0  0
    8.9327   25.0360   28.6245 H   0  0  0  0  0  0  0  0  0  0  0  0
 12 13  1  0  0  0
 13 11  1  0  0  0
 11  1  1  0  0  0
  1  2  2  0  0  0
  1  3  1  0  0  0
  3  5  1  0  0  0
  5  6  1  0  0  0
  5  7  1  0  0  0
  7  8  2  0  0  0
  7  9  1  0  0  0
 12 14  1  0  0  0
  3  4  1  0  0  0
  9 10  1  0  0  0
M  END
> <minimizedAffinity>
-4.22844

$$$$
2QDT_I38_A_501


 14 13  0  0  0  0  0  0  0  0999 V2000
   12.6099   27.6837   30.5585 C   0  0  0  0  0  0  0  0  0  0  0  0
   13.6927   27.4911   31.0314 O   0  0  0  0  0  0  0  0  0  0  0  0
   12.2073   28.8774   30.0937 N   0  0  0  0  0  0  0  0  0  0  0  0
   11.3181   28.9122   29.6726 H   0  0  0  0  0  0  0  0  0  0  0  0
   12.9595   30.1328   30.1510 C   0  0  0  0  0  0  0  0  0  0  0  0
   14.1614   29.9934   29.2178 C   0  0  0  0  0  0  0  0  0  0  0  0
   13.4140   30.5128   31.5534 C   0  0  0  0  0  0  0  0  0  0  0  0
   12.6735   31.3061   32.2146 O   0  0  0  0  0  0  0  0  0  0  0  0
   14.5008   30.0346   32.0224 O   0  0  0  0  0  0  0  0  0  0  0  0
   15.0192   29.4522   31.5027 H   0  0  0  0  0  0  0  0  0  0  0  0
   11.6850   26.4842   30.4890 C   0  0  0  0  0  0  0  0  0  0  0  0
   10.4865   25.2493   28.5029 S   0  0  0  0  0  0  0  0  0  0  0  0
   11.9339   25.6368   29.2476 C   0  0  0  0  0  0  0  0  0  0  0  0
   10.7326   24.4939   27.3991 H   0  0  0  0  0  0  0  0  0  0  0  0
 12 13  1  0  0  0
 13 11  1  0  0  0
 11  1  1  0  0  0
  1  2  2  0  0  0
  1  3  1  0  0  0
  3  5  1  0  0  0
  5  6  1  0  0  0
  5  7  1  0  0  0
  7  8  2  0  0  0
  7  9  1  0  0  0
 12 14  1  0  0  0
  3  4  1  0  0  0
  9 10  1  0  0  0
M  END
> <minimizedAffinity>
-4.02357

$$$$
2QDT_I38_A_501


 14 13  0  0  0  0  0  0  0  0999 V2000
   12.1333   29.6520   32.3243 C   0  0  0  0  0  0  0  0  0  0  0  0
   12.4954   30.7847   32.4619 O   0  0  0  0  0  0  0  0  0  0  0  0
   11.7954   28.8536   33.3497 N   0  0  0  0  0  0  0  0  0  0  0  0
   11.4562   27.9580   33.1212 H   0  0  0  0  0  0  0  0  0  0  0  0
   11.8813   29.1826   34.7744 C   0  0  0  0  0  0  0  0  0  0  0  0
   11.9312   27.8666   35.5495 C   0  0  0  0  0  0  0  0  0  0  0  0
   10.7363   30.0529   35.2737 C   0  0  0  0  0  0  0  0  0  0  0  0
   11.0270   31.2113   35.7080 O   0  0  0  0  0  0  0  0  0  0  0  0
    9.5391   29.6105   35.2422 O   0  0  0  0  0  0  0  0  0  0  0  0
    9.3661   28.7499   34.9143 H   0  0  0  0  0  0  0  0  0  0  0  0
   12.0543   29.1411   30.8989 C   0  0  0  0  0  0  0  0  0  0  0  0
   13.9655   29.9686   29.2962 S   0  0  0  0  0  0  0  0  0  0  0  0
   13.4249   28.7786   30.3409 C   0  0  0  0  0  0  0  0  0  0  0  0
   15.1885   29.6244   28.8110 H   0  0  0  0  0  0  0  0  0  0  0  0
 12 13  1  0  0  0
 13 11  1  0  0  0
 11  1  1  0  0  0
  1  2  2  0  0  0
  1  3  1  0  0  0
  3  5  1  0  0  0
  5  6  1  0  0  0
  5  7  1  0  0  0
  7  8  2  0  0  0
  7  9  1  0  0  0
 12 14  1  0  0  0
  3  4  1  0  0  0
  9 10  1  0  0  0
M  END
> <minimizedAffinity>
-3.97214

$$$$
2QDT_I38_A_501


 14 13  0  0  0  0  0  0  0  0999 V2000
   11.5938   29.6393   34.3321 C   0  0  0  0  0  0  0  0  0  0  0  0
   12.7338   29.7370   34.6844 O   0  0  0  0  0  0  0  0  0  0  0  0
   11.2304   29.3781   33.0661 N   0  0  0  0  0  0  0  0  0  0  0  0
   10.2677   29.2615   32.8963 H   0  0  0  0  0  0  0  0  0  0  0  0
   12.1239   29.2495   31.9127 C   0  0  0  0  0  0  0  0  0  0  0  0
   12.7429   27.8533   31.9622 C   0  0  0  0  0  0  0  0  0  0  0  0
   13.2113   30.3135   31.8567 C   0  0  0  0  0  0  0  0  0  0  0  0
   12.8497   31.5092   31.6230 O   0  0  0  0  0  0  0  0  0  0  0  0
   14.4314   29.9882   32.0445 O   0  0  0  0  0  0  0  0  0  0  0  0
   14.6573   29.0948   32.2142 H   0  0  0  0  0  0  0  0  0  0  0  0
   10.5413   29.8134   35.4096 C   0  0  0  0  0  0  0  0  0  0  0  0
    8.1930   28.6553   35.1858 S   0  0  0  0  0  0  0  0  0  0  0  0
    9.7834   28.5213   35.6878 C   0  0  0  0  0  0  0  0  0  0  0  0
    7.5367   27.4923   35.4436 H   0  0  0  0  0  0  0  0  0  0  0  0
 12 13  1  0  0  0
 13 11  1  0  0  0
 11  1  1  0  0  0
  1  2  2  0  0  0
  1  3  1  0  0  0
  3  5  1  0  0  0
  5  6  1  0  0  0
  5  7  1  0  0  0
  7  8  2  0  0  0
  7  9  1  0  0  0
 12 14  1  0  0  0
  3  4  1  0  0  0
  9 10  1  0  0  0
M  END
> <minimizedAffinity>
-3.80559

$$$$
2QDT_I38_A_501


 14 13  0  0  0  0  0  0  0  0999 V2000
   12.0965   27.0493   32.0139 C   0  0  0  0  0  0  0  0  0  0  0  0
   13.1821   26.5677   32.1650 O   0  0  0  0  0  0  0  0  0  0  0  0
   11.8853   28.3678   31.8720 N   0  0  0  0  0  0  0  0  0  0  0  0
   10.9594   28.6520   31.6957 H   0  0  0  0  0  0  0  0  0  0  0  0
   12.8956   29.4251   31.9533 C   0  0  0  0  0  0  0  0  0  0  0  0
   12.4783   30.3767   33.0738 C   0  0  0  0  0  0  0  0  0  0  0  0
   13.0920   30.1882   30.6507 C   0  0  0  0  0  0  0  0  0  0  0  0
   13.2029   29.5071   29.5835 O   0  0  0  0  0  0  0  0  0  0  0  0
   13.1364   31.4641   30.6601 O   0  0  0  0  0  0  0  0  0  0  0  0
   13.0506   31.9299   31.4686 H   0  0  0  0  0  0  0  0  0  0  0  0
   10.9318   26.0794   31.9731 C   0  0  0  0  0  0  0  0  0  0  0  0
    9.9148   25.0966   34.1879 S   0  0  0  0  0  0  0  0  0  0  0  0
   11.0799   24.9591   32.9950 C   0  0  0  0  0  0  0  0  0  0  0  0
   10.0659   24.0879   35.0876 H   0  0  0  0  0  0  0  0  0  0  0  0
 12 13  1  0  0  0
 13 11  1  0  0  0
 11  1  1  0  0  0
  1  2  2  0  0  0
  1  3  1  0  0  0
  3  5  1  0  0  0
  5  6  1  0  0  0
  5  7  1  0  0  0
  7  8  2  0  0  0
  7  9  1  0  0  0
 12 14  1  0  0  0
  3  4  1  0  0  0
  9 10  1  0  0  0
M  END
> <minimizedAffinity>
-3.79699

$$$$
2QDT_I38_A_501


 14 13  0  0  0  0  0  0  0  0999 V2000
   10.6841   28.2236   33.1360 C   0  0  0  0  0  0  0  0  0  0  0  0
   10.7105   27.0568   32.8692 O   0  0  0  0  0  0  0  0  0  0  0  0
   11.5766   29.1102   32.6665 N   0  0  0  0  0  0  0  0  0  0  0  0
   11.4290   30.0547   32.9018 H   0  0  0  0  0  0  0  0  0  0  0  0
   12.7477   28.8118   31.8392 C   0  0  0  0  0  0  0  0  0  0  0  0
   13.8032   29.8772   32.1325 C   0  0  0  0  0  0  0  0  0  0  0  0
   12.4475   28.7546   30.3478 C   0  0  0  0  0  0  0  0  0  0  0  0
   11.9745   27.6690   29.8865 O   0  0  0  0  0  0  0  0  0  0  0  0
   12.6693   29.7751   29.6135 O   0  0  0  0  0  0  0  0  0  0  0  0
   13.0190   30.5576   29.9922 H   0  0  0  0  0  0  0  0  0  0  0  0
    9.5578   28.6792   34.0432 C   0  0  0  0  0  0  0  0  0  0  0  0
    7.0546   28.2269   34.7029 S   0  0  0  0  0  0  0  0  0  0  0  0
    8.5407   27.5737   34.2974 C   0  0  0  0  0  0  0  0  0  0  0  0
    6.1638   27.2235   34.9250 H   0  0  0  0  0  0  0  0  0  0  0  0
 12 13  1  0  0  0
 13 11  1  0  0  0
 11  1  1  0  0  0
  1  2  2  0  0  0
  1  3  1  0  0  0
  3  5  1  0  0  0
  5  6  1  0  0  0
  5  7  1  0  0  0
  7  8  2  0  0  0
  7  9  1  0  0  0
 12 14  1  0  0  0
  3  4  1  0  0  0
  9 10  1  0  0  0
M  END
> <minimizedAffinity>
-3.72772

$$$$
2QDT_I38_A_501


 14 13  0  0  0  0  0  0  0  0999 V2000
   11.7896   28.0719   33.6124 C   0  0  0  0  0  0  0  0  0  0  0  0
   10.9139   27.5068   33.0233 O   0  0  0  0  0  0  0  0  0  0  0  0
   12.6526   28.9156   33.0238 N   0  0  0  0  0  0  0  0  0  0  0  0
   13.2980   29.3710   33.6115 H   0  0  0  0  0  0  0  0  0  0  0  0
   12.7292   29.2257   31.5944 C   0  0  0  0  0  0  0  0  0  0  0  0
   13.7746   28.2980   30.9766 C   0  0  0  0  0  0  0  0  0  0  0  0
   13.0658   30.6807   31.2990 C   0  0  0  0  0  0  0  0  0  0  0  0
   12.6691   31.5547   32.1320 O   0  0  0  0  0  0  0  0  0  0  0  0
   13.7256   30.9814   30.2483 O   0  0  0  0  0  0  0  0  0  0  0  0
   14.0001   30.3071   29.6585 H   0  0  0  0  0  0  0  0  0  0  0  0
   11.8805   27.8002   35.1014 C   0  0  0  0  0  0  0  0  0  0  0  0
   11.4648   25.3851   36.0503 S   0  0  0  0  0  0  0  0  0  0  0  0
   10.7948   26.8441   35.5792 C   0  0  0  0  0  0  0  0  0  0  0  0
   10.4789   24.5487   36.4723 H   0  0  0  0  0  0  0  0  0  0  0  0
 12 13  1  0  0  0
 13 11  1  0  0  0
 11  1  1  0  0  0
  1  2  2  0  0  0
  1  3  1  0  0  0
  3  5  1  0  0  0
  5  6  1  0  0  0
  5  7  1  0  0  0
  7  8  2  0  0  0
  7  9  1  0  0  0
 12 14  1  0  0  0
  3  4  1  0  0  0
  9 10  1  0  0  0
M  END
> <minimizedAffinity>
-3.68305

$$$$
