4YTC_4HW_A_4000


 30 33  0  0  0  0  0  0  0  0999 V2000
   18.1511    8.7679    6.1099 N   0  0  0  0  0  0  0  0  0  0  0  0
   17.1963    9.1445    5.2597 C   0  0  0  0  0  0  0  0  0  0  0  0
   16.1804    8.3868    4.8256 N   0  0  0  0  0  0  0  0  0  0  0  0
   15.4237    9.2575    4.0822 C   0  0  0  0  0  0  0  0  0  0  0  0
   15.9146   10.4840    4.0203 N   0  0  0  0  0  0  0  0  0  0  0  0
   17.0699   10.4102    4.7881 N   0  0  0  0  0  0  0  0  0  0  0  0
   18.1945    7.8343    6.4192 H   0  0  0  0  0  0  0  0  0  0  0  0
   18.8129    9.4234    6.4286 H   0  0  0  0  0  0  0  0  0  0  0  0
   18.7902   11.5713    5.8618 N   0  0  0  0  0  0  0  0  0  0  0  0
   17.4831   12.7309    4.1937 C   0  0  0  0  0  0  0  0  0  0  0  0
   18.1276   13.9124    4.5712 C   0  0  0  0  0  0  0  0  0  0  0  0
   19.1114   13.9402    5.4976 N   0  0  0  0  0  0  0  0  0  0  0  0
   17.8308   11.5887    4.9181 C   0  0  0  0  0  0  0  0  0  0  0  0
   19.3811   12.7586    6.0785 C   0  0  0  0  0  0  0  0  0  0  0  0
   17.5538   15.0764    4.0904 N   0  0  0  0  0  0  0  0  0  0  0  0
   18.1159   15.8732    4.2261 H   0  0  0  0  0  0  0  0  0  0  0  0
   14.8649   15.3191    1.5154 C   0  0  0  0  0  0  0  0  0  0  0  0
   16.1432   15.4280    2.0598 C   0  0  0  0  0  0  0  0  0  0  0  0
   16.3269   15.3596    3.4442 C   0  0  0  0  0  0  0  0  0  0  0  0
   13.9399   15.0935    3.7161 C   0  0  0  0  0  0  0  0  0  0  0  0
   15.2152   15.2177    4.2728 C   0  0  0  0  0  0  0  0  0  0  0  0
   13.7669   15.1420    2.3415 C   0  0  0  0  0  0  0  0  0  0  0  0
   14.2676    8.8233    3.4631 N   0  0  0  0  0  0  0  0  0  0  0  0
   14.1157    7.8526    3.5266 H   0  0  0  0  0  0  0  0  0  0  0  0
   13.2560    9.5275    2.7496 C   0  0  0  0  0  0  0  0  0  0  0  0
   12.6730   10.7104    3.2229 C   0  0  0  0  0  0  0  0  0  0  0  0
   11.7224   11.3779    2.4446 C   0  0  0  0  0  0  0  0  0  0  0  0
   11.3534   10.8714    1.1996 C   0  0  0  0  0  0  0  0  0  0  0  0
   11.9197    9.7015    0.7345 C   0  0  0  0  0  0  0  0  0  0  0  0
   12.8680    9.0219    1.5032 C   0  0  0  0  0  0  0  0  0  0  0  0
  1  2  1  0  0  0
  2  3  2  0  0  0
  2  6  1  0  0  0
  9 14  2  0  0  0
  9 13  1  0  0  0
 14 12  1  0  0  0
  3  4  1  0  0  0
  6 13  1  0  0  0
  6  5  1  0  0  0
 12 11  2  0  0  0
 13 10  2  0  0  0
  4  5  2  0  0  0
  4 23  1  0  0  0
 23 25  1  0  0  0
 11 10  1  0  0  0
 11 15  1  0  0  0
 15 19  1  0  0  0
 21 20  2  0  0  0
 21 19  1  0  0  0
 25 30  2  0  0  0
 25 26  1  0  0  0
 20 22  1  0  0  0
 30 29  1  0  0  0
 19 18  2  0  0  0
 26 27  2  0  0  0
 29 28  2  0  0  0
 22 17  2  0  0  0
 18 17  1  0  0  0
 27 28  1  0  0  0
  1  7  1  0  0  0
  1  8  1  0  0  0
 23 24  1  0  0  0
 15 16  1  0  0  0
M  END
> <minimizedAffinity>
-8.79207

$$$$
4YTC_4HW_A_4000


 30 33  0  0  0  0  0  0  0  0999 V2000
   16.6028   16.5164    2.9316 N   0  0  0  0  0  0  0  0  0  0  0  0
   15.8340   15.4941    3.3054 C   0  0  0  0  0  0  0  0  0  0  0  0
   14.5519   15.3037    2.9668 N   0  0  0  0  0  0  0  0  0  0  0  0
   14.2600   14.0696    3.4912 C   0  0  0  0  0  0  0  0  0  0  0  0
   15.2661   13.5043    4.1370 N   0  0  0  0  0  0  0  0  0  0  0  0
   16.2921   14.4328    4.0156 N   0  0  0  0  0  0  0  0  0  0  0  0
   16.2158   17.2609    2.4166 H   0  0  0  0  0  0  0  0  0  0  0  0
   17.5579   16.5273    3.1705 H   0  0  0  0  0  0  0  0  0  0  0  0
   18.4062   15.1187    4.7370 N   0  0  0  0  0  0  0  0  0  0  0  0
   17.8316   12.7788    4.9123 C   0  0  0  0  0  0  0  0  0  0  0  0
   19.1603   12.5225    5.2629 C   0  0  0  0  0  0  0  0  0  0  0  0
   20.0738   13.5061    5.4200 N   0  0  0  0  0  0  0  0  0  0  0  0
   17.5258   14.1083    4.6135 C   0  0  0  0  0  0  0  0  0  0  0  0
   19.6292   14.7455    5.1505 C   0  0  0  0  0  0  0  0  0  0  0  0
   19.5305   11.1892    5.2349 N   0  0  0  0  0  0  0  0  0  0  0  0
   20.1320   10.9672    4.4878 H   0  0  0  0  0  0  0  0  0  0  0  0
   19.0170    9.0083    8.2181 C   0  0  0  0  0  0  0  0  0  0  0  0
   19.6686    9.9026    7.3708 C   0  0  0  0  0  0  0  0  0  0  0  0
   19.2242   10.0786    6.0569 C   0  0  0  0  0  0  0  0  0  0  0  0
   17.4908    8.4422    6.4574 C   0  0  0  0  0  0  0  0  0  0  0  0
   18.1469    9.3242    5.5952 C   0  0  0  0  0  0  0  0  0  0  0  0
   17.9240    8.2873    7.7651 C   0  0  0  0  0  0  0  0  0  0  0  0
   12.9987   13.5272    3.3373 N   0  0  0  0  0  0  0  0  0  0  0  0
   12.2830   14.0368    3.7816 H   0  0  0  0  0  0  0  0  0  0  0  0
   12.5479   12.3633    2.6514 C   0  0  0  0  0  0  0  0  0  0  0  0
   11.4526   12.3703    1.7776 C   0  0  0  0  0  0  0  0  0  0  0  0
   11.0978   11.2017    1.0968 C   0  0  0  0  0  0  0  0  0  0  0  0
   11.8299   10.0304    1.2837 C   0  0  0  0  0  0  0  0  0  0  0  0
   12.9041   10.0184    2.1506 C   0  0  0  0  0  0  0  0  0  0  0  0
   13.2677   11.1777    2.8404 C   0  0  0  0  0  0  0  0  0  0  0  0
  1  2  1  0  0  0
  2  3  2  0  0  0
  2  6  1  0  0  0
  9 14  2  0  0  0
  9 13  1  0  0  0
 14 12  1  0  0  0
  3  4  1  0  0  0
  6 13  1  0  0  0
  6  5  1  0  0  0
 12 11  2  0  0  0
 13 10  2  0  0  0
  4  5  2  0  0  0
  4 23  1  0  0  0
 23 25  1  0  0  0
 11 10  1  0  0  0
 11 15  1  0  0  0
 15 19  1  0  0  0
 21 20  2  0  0  0
 21 19  1  0  0  0
 25 30  2  0  0  0
 25 26  1  0  0  0
 20 22  1  0  0  0
 30 29  1  0  0  0
 19 18  2  0  0  0
 26 27  2  0  0  0
 29 28  2  0  0  0
 22 17  2  0  0  0
 18 17  1  0  0  0
 27 28  1  0  0  0
  1  7  1  0  0  0
  1  8  1  0  0  0
 23 24  1  0  0  0
 15 16  1  0  0  0
M  END
> <minimizedAffinity>
-8.74147

$$$$
4YTC_4HW_A_4000


 30 33  0  0  0  0  0  0  0  0999 V2000
   19.6600    9.7254    6.2143 N   0  0  0  0  0  0  0  0  0  0  0  0
   18.5168    9.8927    5.5500 C   0  0  0  0  0  0  0  0  0  0  0  0
   17.6178    8.9395    5.2708 N   0  0  0  0  0  0  0  0  0  0  0  0
   16.5830    9.6317    4.6935 C   0  0  0  0  0  0  0  0  0  0  0  0
   16.7950   10.9328    4.5873 N   0  0  0  0  0  0  0  0  0  0  0  0
   18.0554   11.1027    5.1458 N   0  0  0  0  0  0  0  0  0  0  0  0
   19.9457    8.8223    6.4828 H   0  0  0  0  0  0  0  0  0  0  0  0
   20.2188   10.5049    6.4365 H   0  0  0  0  0  0  0  0  0  0  0  0
   19.5474   12.6400    6.0791 N   0  0  0  0  0  0  0  0  0  0  0  0
   17.9763   13.4210    4.4185 C   0  0  0  0  0  0  0  0  0  0  0  0
   18.3857   14.7262    4.7065 C   0  0  0  0  0  0  0  0  0  0  0  0
   19.3769   15.0007    5.5833 N   0  0  0  0  0  0  0  0  0  0  0  0
   18.5705   12.4136    5.1816 C   0  0  0  0  0  0  0  0  0  0  0  0
   19.8973   13.9310    6.2089 C   0  0  0  0  0  0  0  0  0  0  0  0
   17.5745   15.7245    4.1959 N   0  0  0  0  0  0  0  0  0  0  0  0
   17.9558   16.6266    4.2972 H   0  0  0  0  0  0  0  0  0  0  0  0
   14.8689   15.2553    1.6703 C   0  0  0  0  0  0  0  0  0  0  0  0
   16.1065   15.6474    2.1771 C   0  0  0  0  0  0  0  0  0  0  0  0
   16.3110   15.7184    3.5585 C   0  0  0  0  0  0  0  0  0  0  0  0
   14.0223   15.0205    3.9014 C   0  0  0  0  0  0  0  0  0  0  0  0
   15.2541   15.4279    4.4195 C   0  0  0  0  0  0  0  0  0  0  0  0
   13.8322   14.9328    2.5310 C   0  0  0  0  0  0  0  0  0  0  0  0
   15.4510    8.9651    4.2658 N   0  0  0  0  0  0  0  0  0  0  0  0
   15.4102    8.0209    4.5412 H   0  0  0  0  0  0  0  0  0  0  0  0
   14.3326    9.3987    3.4979 C   0  0  0  0  0  0  0  0  0  0  0  0
   13.5770    8.5327    2.6965 C   0  0  0  0  0  0  0  0  0  0  0  0
   12.4589    9.0168    2.0106 C   0  0  0  0  0  0  0  0  0  0  0  0
   12.0930   10.3572    2.1217 C   0  0  0  0  0  0  0  0  0  0  0  0
   12.8408   11.2146    2.9036 C   0  0  0  0  0  0  0  0  0  0  0  0
   13.9627   10.7455    3.5915 C   0  0  0  0  0  0  0  0  0  0  0  0
  1  2  1  0  0  0
  2  3  2  0  0  0
  2  6  1  0  0  0
  9 14  2  0  0  0
  9 13  1  0  0  0
 14 12  1  0  0  0
  3  4  1  0  0  0
  6 13  1  0  0  0
  6  5  1  0  0  0
 12 11  2  0  0  0
 13 10  2  0  0  0
  4  5  2  0  0  0
  4 23  1  0  0  0
 23 25  1  0  0  0
 11 10  1  0  0  0
 11 15  1  0  0  0
 15 19  1  0  0  0
 21 20  2  0  0  0
 21 19  1  0  0  0
 25 30  2  0  0  0
 25 26  1  0  0  0
 20 22  1  0  0  0
 30 29  1  0  0  0
 19 18  2  0  0  0
 26 27  2  0  0  0
 29 28  2  0  0  0
 22 17  2  0  0  0
 18 17  1  0  0  0
 27 28  1  0  0  0
  1  7  1  0  0  0
  1  8  1  0  0  0
 23 24  1  0  0  0
 15 16  1  0  0  0
M  END
> <minimizedAffinity>
-8.46158

$$$$
4YTC_4HW_A_4000


 30 33  0  0  0  0  0  0  0  0999 V2000
   15.4892    7.3118    3.8135 N   0  0  0  0  0  0  0  0  0  0  0  0
   15.1041    8.5833    3.7096 C   0  0  0  0  0  0  0  0  0  0  0  0
   13.9784    9.0239    3.1319 N   0  0  0  0  0  0  0  0  0  0  0  0
   13.9883   10.3711    3.3928 C   0  0  0  0  0  0  0  0  0  0  0  0
   15.0454   10.7829    4.0726 N   0  0  0  0  0  0  0  0  0  0  0  0
   15.7724    9.6175    4.2792 N   0  0  0  0  0  0  0  0  0  0  0  0
   14.9645    6.6014    3.3784 H   0  0  0  0  0  0  0  0  0  0  0  0
   16.2985    7.0828    4.3252 H   0  0  0  0  0  0  0  0  0  0  0  0
   17.1041    8.9409    6.0762 N   0  0  0  0  0  0  0  0  0  0  0  0
   17.9048   10.7225    4.6548 C   0  0  0  0  0  0  0  0  0  0  0  0
   18.9443   10.9258    5.5670 C   0  0  0  0  0  0  0  0  0  0  0  0
   19.1211   10.1429    6.6544 N   0  0  0  0  0  0  0  0  0  0  0  0
   16.9804    9.7326    4.9949 C   0  0  0  0  0  0  0  0  0  0  0  0
   18.1860    9.1939    6.8319 C   0  0  0  0  0  0  0  0  0  0  0  0
   19.6537   12.1024    5.3997 N   0  0  0  0  0  0  0  0  0  0  0  0
   20.5611   11.9633    5.0442 H   0  0  0  0  0  0  0  0  0  0  0  0
   19.4797   15.8148    5.0728 C   0  0  0  0  0  0  0  0  0  0  0  0
   20.0634   14.5504    5.1241 C   0  0  0  0  0  0  0  0  0  0  0  0
   19.3459   13.4638    5.6334 C   0  0  0  0  0  0  0  0  0  0  0  0
   17.4745   14.9358    6.0506 C   0  0  0  0  0  0  0  0  0  0  0  0
   18.0562   13.6675    6.1212 C   0  0  0  0  0  0  0  0  0  0  0  0
   18.1842   16.0047    5.5259 C   0  0  0  0  0  0  0  0  0  0  0  0
   12.9603   11.1763    2.9417 N   0  0  0  0  0  0  0  0  0  0  0  0
   12.1652   10.6827    2.6359 H   0  0  0  0  0  0  0  0  0  0  0  0
   12.8441   12.5921    2.8395 C   0  0  0  0  0  0  0  0  0  0  0  0
   13.7726   13.4755    3.4058 C   0  0  0  0  0  0  0  0  0  0  0  0
   13.6246   14.8535    3.2210 C   0  0  0  0  0  0  0  0  0  0  0  0
   12.5574   15.3514    2.4752 C   0  0  0  0  0  0  0  0  0  0  0  0
   11.6362   14.4837    1.9235 C   0  0  0  0  0  0  0  0  0  0  0  0
   11.7695   13.1046    2.1032 C   0  0  0  0  0  0  0  0  0  0  0  0
  1  2  1  0  0  0
  2  3  2  0  0  0
  2  6  1  0  0  0
  9 14  2  0  0  0
  9 13  1  0  0  0
 14 12  1  0  0  0
  3  4  1  0  0  0
  6 13  1  0  0  0
  6  5  1  0  0  0
 12 11  2  0  0  0
 13 10  2  0  0  0
  4  5  2  0  0  0
  4 23  1  0  0  0
 23 25  1  0  0  0
 11 10  1  0  0  0
 11 15  1  0  0  0
 15 19  1  0  0  0
 21 20  2  0  0  0
 21 19  1  0  0  0
 25 30  2  0  0  0
 25 26  1  0  0  0
 20 22  1  0  0  0
 30 29  1  0  0  0
 19 18  2  0  0  0
 26 27  2  0  0  0
 29 28  2  0  0  0
 22 17  2  0  0  0
 18 17  1  0  0  0
 27 28  1  0  0  0
  1  7  1  0  0  0
  1  8  1  0  0  0
 23 24  1  0  0  0
 15 16  1  0  0  0
M  END
> <minimizedAffinity>
-8.17688

$$$$
4YTC_4HW_A_4000


 30 33  0  0  0  0  0  0  0  0999 V2000
   14.5433   16.6518    5.6378 N   0  0  0  0  0  0  0  0  0  0  0  0
   15.1666   15.5953    5.1168 C   0  0  0  0  0  0  0  0  0  0  0  0
   16.3221   15.0690    5.5440 N   0  0  0  0  0  0  0  0  0  0  0  0
   16.4690   13.9443    4.7713 C   0  0  0  0  0  0  0  0  0  0  0  0
   15.4955   13.7585    3.8957 N   0  0  0  0  0  0  0  0  0  0  0  0
   14.6465   14.8346    4.1212 N   0  0  0  0  0  0  0  0  0  0  0  0
   14.9692   17.1678    6.3600 H   0  0  0  0  0  0  0  0  0  0  0  0
   13.6570   16.9162    5.3005 H   0  0  0  0  0  0  0  0  0  0  0  0
   12.7771   16.0542    3.4298 N   0  0  0  0  0  0  0  0  0  0  0  0
   13.0595   13.8052    2.5944 C   0  0  0  0  0  0  0  0  0  0  0  0
   11.7785   13.8949    2.0421 C   0  0  0  0  0  0  0  0  0  0  0  0
   11.0372   15.0233    2.1040 N   0  0  0  0  0  0  0  0  0  0  0  0
   13.4876   14.9161    3.3243 C   0  0  0  0  0  0  0  0  0  0  0  0
   11.5939   16.0342    2.7929 C   0  0  0  0  0  0  0  0  0  0  0  0
   11.2365   12.6960    1.6126 N   0  0  0  0  0  0  0  0  0  0  0  0
   10.4367   12.8091    1.0498 H   0  0  0  0  0  0  0  0  0  0  0  0
   12.3808    9.1949    1.0198 C   0  0  0  0  0  0  0  0  0  0  0  0
   11.6584   10.3684    0.8121 C   0  0  0  0  0  0  0  0  0  0  0  0
   11.5929   11.3413    1.8142 C   0  0  0  0  0  0  0  0  0  0  0  0
   12.9619    9.9350    3.2252 C   0  0  0  0  0  0  0  0  0  0  0  0
   12.2272   11.1077    3.0331 C   0  0  0  0  0  0  0  0  0  0  0  0
   13.0395    8.9834    2.2201 C   0  0  0  0  0  0  0  0  0  0  0  0
   17.5710   13.1269    4.9323 N   0  0  0  0  0  0  0  0  0  0  0  0
   18.4345   13.5933    4.8554 H   0  0  0  0  0  0  0  0  0  0  0  0
   17.6822   11.7305    5.1895 C   0  0  0  0  0  0  0  0  0  0  0  0
   16.5960   10.8501    5.0980 C   0  0  0  0  0  0  0  0  0  0  0  0
   16.7888    9.4820    5.3128 C   0  0  0  0  0  0  0  0  0  0  0  0
   18.0574    8.9909    5.6169 C   0  0  0  0  0  0  0  0  0  0  0  0
   19.1276    9.8571    5.7164 C   0  0  0  0  0  0  0  0  0  0  0  0
   18.9489   11.2270    5.5080 C   0  0  0  0  0  0  0  0  0  0  0  0
  1  2  1  0  0  0
  2  3  2  0  0  0
  2  6  1  0  0  0
  9 14  2  0  0  0
  9 13  1  0  0  0
 14 12  1  0  0  0
  3  4  1  0  0  0
  6 13  1  0  0  0
  6  5  1  0  0  0
 12 11  2  0  0  0
 13 10  2  0  0  0
  4  5  2  0  0  0
  4 23  1  0  0  0
 23 25  1  0  0  0
 11 10  1  0  0  0
 11 15  1  0  0  0
 15 19  1  0  0  0
 21 20  2  0  0  0
 21 19  1  0  0  0
 25 30  2  0  0  0
 25 26  1  0  0  0
 20 22  1  0  0  0
 30 29  1  0  0  0
 19 18  2  0  0  0
 26 27  2  0  0  0
 29 28  2  0  0  0
 22 17  2  0  0  0
 18 17  1  0  0  0
 27 28  1  0  0  0
  1  7  1  0  0  0
  1  8  1  0  0  0
 23 24  1  0  0  0
 15 16  1  0  0  0
M  END
> <minimizedAffinity>
-8.05052

$$$$
4YTC_4HW_A_4000


 30 33  0  0  0  0  0  0  0  0999 V2000
   17.1186   17.6106    6.0356 N   0  0  0  0  0  0  0  0  0  0  0  0
   16.4501   16.6069    5.4683 C   0  0  0  0  0  0  0  0  0  0  0  0
   15.1857   16.6483    5.0274 N   0  0  0  0  0  0  0  0  0  0  0  0
   15.0133   15.4258    4.4282 C   0  0  0  0  0  0  0  0  0  0  0  0
   16.0751   14.6396    4.4872 N   0  0  0  0  0  0  0  0  0  0  0  0
   17.0116   15.4097    5.1650 N   0  0  0  0  0  0  0  0  0  0  0  0
   16.6590   18.4585    6.2334 H   0  0  0  0  0  0  0  0  0  0  0  0
   18.0720   17.5042    6.2568 H   0  0  0  0  0  0  0  0  0  0  0  0
   19.3387   15.6172    5.1211 N   0  0  0  0  0  0  0  0  0  0  0  0
   18.3831   13.4814    5.7220 C   0  0  0  0  0  0  0  0  0  0  0  0
   19.6707   12.9394    5.6734 C   0  0  0  0  0  0  0  0  0  0  0  0
   20.7676   13.6913    5.4323 N   0  0  0  0  0  0  0  0  0  0  0  0
   18.2777   14.8330    5.3867 C   0  0  0  0  0  0  0  0  0  0  0  0
   20.5250   14.9884    5.1772 C   0  0  0  0  0  0  0  0  0  0  0  0
   19.7288   11.5567    5.6805 N   0  0  0  0  0  0  0  0  0  0  0  0
   20.6095   11.2048    5.9448 H   0  0  0  0  0  0  0  0  0  0  0  0
   17.3377    8.7148    6.0344 C   0  0  0  0  0  0  0  0  0  0  0  0
   18.5237    9.4298    6.1908 C   0  0  0  0  0  0  0  0  0  0  0  0
   18.7856   10.5433    5.3868 C   0  0  0  0  0  0  0  0  0  0  0  0
   16.6720   10.1928    4.2675 C   0  0  0  0  0  0  0  0  0  0  0  0
   17.8650   10.9067    4.4054 C   0  0  0  0  0  0  0  0  0  0  0  0
   16.4094    9.1018    5.0815 C   0  0  0  0  0  0  0  0  0  0  0  0
   13.8039   15.0993    3.8456 N   0  0  0  0  0  0  0  0  0  0  0  0
   13.1855   15.8588    3.7460 H   0  0  0  0  0  0  0  0  0  0  0  0
   13.2910   13.8612    3.3634 C   0  0  0  0  0  0  0  0  0  0  0  0
   13.9099   12.6298    3.6165 C   0  0  0  0  0  0  0  0  0  0  0  0
   13.3218   11.4476    3.1565 C   0  0  0  0  0  0  0  0  0  0  0  0
   12.1223   11.4896    2.4478 C   0  0  0  0  0  0  0  0  0  0  0  0
   11.5149   12.7020    2.1894 C   0  0  0  0  0  0  0  0  0  0  0  0
   12.0931   13.8915    2.6397 C   0  0  0  0  0  0  0  0  0  0  0  0
  1  2  1  0  0  0
  2  3  2  0  0  0
  2  6  1  0  0  0
  9 14  2  0  0  0
  9 13  1  0  0  0
 14 12  1  0  0  0
  3  4  1  0  0  0
  6 13  1  0  0  0
  6  5  1  0  0  0
 12 11  2  0  0  0
 13 10  2  0  0  0
  4  5  2  0  0  0
  4 23  1  0  0  0
 23 25  1  0  0  0
 11 10  1  0  0  0
 11 15  1  0  0  0
 15 19  1  0  0  0
 21 20  2  0  0  0
 21 19  1  0  0  0
 25 30  2  0  0  0
 25 26  1  0  0  0
 20 22  1  0  0  0
 30 29  1  0  0  0
 19 18  2  0  0  0
 26 27  2  0  0  0
 29 28  2  0  0  0
 22 17  2  0  0  0
 18 17  1  0  0  0
 27 28  1  0  0  0
  1  7  1  0  0  0
  1  8  1  0  0  0
 23 24  1  0  0  0
 15 16  1  0  0  0
M  END
> <minimizedAffinity>
-7.80356

$$$$
4YTC_4HW_A_4000


 30 33  0  0  0  0  0  0  0  0999 V2000
   19.8019   15.8983    5.7228 N   0  0  0  0  0  0  0  0  0  0  0  0
   19.3829   14.6550    5.4887 C   0  0  0  0  0  0  0  0  0  0  0  0
   20.1459   13.5540    5.4689 N   0  0  0  0  0  0  0  0  0  0  0  0
   19.2389   12.5362    5.3117 C   0  0  0  0  0  0  0  0  0  0  0  0
   17.9830   12.9401    5.2185 N   0  0  0  0  0  0  0  0  0  0  0  0
   18.0771   14.3212    5.3341 N   0  0  0  0  0  0  0  0  0  0  0  0
   20.7634   16.0823    5.8266 H   0  0  0  0  0  0  0  0  0  0  0  0
   19.1498   16.6326    5.7921 H   0  0  0  0  0  0  0  0  0  0  0  0
   16.6790   15.9485    6.2602 N   0  0  0  0  0  0  0  0  0  0  0  0
   15.9089   14.7378    4.3167 C   0  0  0  0  0  0  0  0  0  0  0  0
   14.6584   15.3379    4.4909 C   0  0  0  0  0  0  0  0  0  0  0  0
   14.4206   16.2573    5.4526 N   0  0  0  0  0  0  0  0  0  0  0  0
   16.8752   15.0538    5.2741 C   0  0  0  0  0  0  0  0  0  0  0  0
   15.4562   16.5056    6.2726 C   0  0  0  0  0  0  0  0  0  0  0  0
   13.6290   14.7797    3.7534 N   0  0  0  0  0  0  0  0  0  0  0  0
   12.9132   15.4199    3.5364 H   0  0  0  0  0  0  0  0  0  0  0  0
   13.3662   11.0694    3.4639 C   0  0  0  0  0  0  0  0  0  0  0  0
   13.9455   12.3025    3.7572 C   0  0  0  0  0  0  0  0  0  0  0  0
   13.3911   13.4800    3.2462 C   0  0  0  0  0  0  0  0  0  0  0  0
   11.6942   12.1629    2.1379 C   0  0  0  0  0  0  0  0  0  0  0  0
   12.2766   13.4027    2.4128 C   0  0  0  0  0  0  0  0  0  0  0  0
   12.2369   11.0009    2.6642 C   0  0  0  0  0  0  0  0  0  0  0  0
   19.6673   11.2244    5.2468 N   0  0  0  0  0  0  0  0  0  0  0  0
   20.5325   11.1041    4.7927 H   0  0  0  0  0  0  0  0  0  0  0  0
   19.0821   10.0148    5.7190 C   0  0  0  0  0  0  0  0  0  0  0  0
   19.6798    9.2112    6.6989 C   0  0  0  0  0  0  0  0  0  0  0  0
   19.0230    8.0636    7.1535 C   0  0  0  0  0  0  0  0  0  0  0  0
   17.7761    7.7167    6.6362 C   0  0  0  0  0  0  0  0  0  0  0  0
   17.1889    8.5018    5.6644 C   0  0  0  0  0  0  0  0  0  0  0  0
   17.8354    9.6492    5.1980 C   0  0  0  0  0  0  0  0  0  0  0  0
  1  2  1  0  0  0
  2  3  2  0  0  0
  2  6  1  0  0  0
  9 14  2  0  0  0
  9 13  1  0  0  0
 14 12  1  0  0  0
  3  4  1  0  0  0
  6 13  1  0  0  0
  6  5  1  0  0  0
 12 11  2  0  0  0
 13 10  2  0  0  0
  4  5  2  0  0  0
  4 23  1  0  0  0
 23 25  1  0  0  0
 11 10  1  0  0  0
 11 15  1  0  0  0
 15 19  1  0  0  0
 21 20  2  0  0  0
 21 19  1  0  0  0
 25 30  2  0  0  0
 25 26  1  0  0  0
 20 22  1  0  0  0
 30 29  1  0  0  0
 19 18  2  0  0  0
 26 27  2  0  0  0
 29 28  2  0  0  0
 22 17  2  0  0  0
 18 17  1  0  0  0
 27 28  1  0  0  0
  1  7  1  0  0  0
  1  8  1  0  0  0
 23 24  1  0  0  0
 15 16  1  0  0  0
M  END
> <minimizedAffinity>
-7.77349

$$$$
4YTC_4HW_A_4000


 30 33  0  0  0  0  0  0  0  0999 V2000
   14.2122   14.5201    2.6388 N   0  0  0  0  0  0  0  0  0  0  0  0
   15.3869   14.9326    3.1140 C   0  0  0  0  0  0  0  0  0  0  0  0
   15.8554   16.1873    3.0842 N   0  0  0  0  0  0  0  0  0  0  0  0
   17.0260   16.1112    3.7965 C   0  0  0  0  0  0  0  0  0  0  0  0
   17.3101   14.8990    4.2426 N   0  0  0  0  0  0  0  0  0  0  0  0
   16.2415   14.1310    3.7979 N   0  0  0  0  0  0  0  0  0  0  0  0
   13.6318   15.1468    2.1492 H   0  0  0  0  0  0  0  0  0  0  0  0
   13.9247   13.5888    2.7773 H   0  0  0  0  0  0  0  0  0  0  0  0
   17.4692   12.2081    4.3035 N   0  0  0  0  0  0  0  0  0  0  0  0
   15.0678   12.0258    4.1143 C   0  0  0  0  0  0  0  0  0  0  0  0
   15.2089   10.6378    4.2010 C   0  0  0  0  0  0  0  0  0  0  0  0
   16.4041   10.0393    4.4010 N   0  0  0  0  0  0  0  0  0  0  0  0
   16.2551   12.7609    4.1258 C   0  0  0  0  0  0  0  0  0  0  0  0
   17.4584   10.8718    4.4451 C   0  0  0  0  0  0  0  0  0  0  0  0
   14.0825    9.9085    3.8620 N   0  0  0  0  0  0  0  0  0  0  0  0
   14.0503    9.0210    4.2868 H   0  0  0  0  0  0  0  0  0  0  0  0
   11.4010   11.6821    1.9691 C   0  0  0  0  0  0  0  0  0  0  0  0
   12.2063   11.3460    3.0557 C   0  0  0  0  0  0  0  0  0  0  0  0
   12.9674   10.1734    3.0317 C   0  0  0  0  0  0  0  0  0  0  0  0
   12.0851    9.6831    0.8354 C   0  0  0  0  0  0  0  0  0  0  0  0
   12.8832    9.3289    1.9260 C   0  0  0  0  0  0  0  0  0  0  0  0
   11.3486   10.8573    0.8572 C   0  0  0  0  0  0  0  0  0  0  0  0
   17.8040   17.2377    3.9816 N   0  0  0  0  0  0  0  0  0  0  0  0
   17.7929   17.8653    3.2232 H   0  0  0  0  0  0  0  0  0  0  0  0
   18.6193   17.6541    5.0727 C   0  0  0  0  0  0  0  0  0  0  0  0
   19.7118   16.9087    5.5353 C   0  0  0  0  0  0  0  0  0  0  0  0
   20.5011   17.4041    6.5777 C   0  0  0  0  0  0  0  0  0  0  0  0
   20.2056   18.6366    7.1576 C   0  0  0  0  0  0  0  0  0  0  0  0
   19.1246   19.3691    6.7097 C   0  0  0  0  0  0  0  0  0  0  0  0
   18.3250   18.8847    5.6715 C   0  0  0  0  0  0  0  0  0  0  0  0
  1  2  1  0  0  0
  2  3  2  0  0  0
  2  6  1  0  0  0
  9 14  2  0  0  0
  9 13  1  0  0  0
 14 12  1  0  0  0
  3  4  1  0  0  0
  6 13  1  0  0  0
  6  5  1  0  0  0
 12 11  2  0  0  0
 13 10  2  0  0  0
  4  5  2  0  0  0
  4 23  1  0  0  0
 23 25  1  0  0  0
 11 10  1  0  0  0
 11 15  1  0  0  0
 15 19  1  0  0  0
 21 20  2  0  0  0
 21 19  1  0  0  0
 25 30  2  0  0  0
 25 26  1  0  0  0
 20 22  1  0  0  0
 30 29  1  0  0  0
 19 18  2  0  0  0
 26 27  2  0  0  0
 29 28  2  0  0  0
 22 17  2  0  0  0
 18 17  1  0  0  0
 27 28  1  0  0  0
  1  7  1  0  0  0
  1  8  1  0  0  0
 23 24  1  0  0  0
 15 16  1  0  0  0
M  END
> <minimizedAffinity>
-7.59382

$$$$
4YTC_4HW_A_4000


 30 33  0  0  0  0  0  0  0  0999 V2000
   16.2668   16.0729    2.2857 N   0  0  0  0  0  0  0  0  0  0  0  0
   15.6101   15.3427    3.1866 C   0  0  0  0  0  0  0  0  0  0  0  0
   14.8324   14.2824    2.9301 N   0  0  0  0  0  0  0  0  0  0  0  0
   14.4974   13.8191    4.1777 C   0  0  0  0  0  0  0  0  0  0  0  0
   15.0017   14.5301    5.1723 N   0  0  0  0  0  0  0  0  0  0  0  0
   15.7270   15.5230    4.5261 N   0  0  0  0  0  0  0  0  0  0  0  0
   16.1429   15.8973    1.3249 H   0  0  0  0  0  0  0  0  0  0  0  0
   16.8758   16.7879    2.5809 H   0  0  0  0  0  0  0  0  0  0  0  0
   16.6714   17.6468    4.7673 N   0  0  0  0  0  0  0  0  0  0  0  0
   16.8637   16.0849    6.6002 C   0  0  0  0  0  0  0  0  0  0  0  0
   17.7306   16.9877    7.2228 C   0  0  0  0  0  0  0  0  0  0  0  0
   18.0166   18.2004    6.6991 N   0  0  0  0  0  0  0  0  0  0  0  0
   16.3988   16.4586    5.3375 C   0  0  0  0  0  0  0  0  0  0  0  0
   17.4585   18.4506    5.5023 C   0  0  0  0  0  0  0  0  0  0  0  0
   18.4369   16.4798    8.2992 N   0  0  0  0  0  0  0  0  0  0  0  0
   18.2185   16.9209    9.1518 H   0  0  0  0  0  0  0  0  0  0  0  0
   20.0553   13.1580    8.8144 C   0  0  0  0  0  0  0  0  0  0  0  0
   19.2058   14.2326    9.0708 C   0  0  0  0  0  0  0  0  0  0  0  0
   19.4078   15.4583    8.4291 C   0  0  0  0  0  0  0  0  0  0  0  0
   21.3239   14.5143    7.2977 C   0  0  0  0  0  0  0  0  0  0  0  0
   20.4877   15.6024    7.5598 C   0  0  0  0  0  0  0  0  0  0  0  0
   21.1060   13.2959    7.9219 C   0  0  0  0  0  0  0  0  0  0  0  0
   13.6855   12.7098    4.3147 N   0  0  0  0  0  0  0  0  0  0  0  0
   13.0195   12.7835    5.0360 H   0  0  0  0  0  0  0  0  0  0  0  0
   13.6389   11.4789    3.5999 C   0  0  0  0  0  0  0  0  0  0  0  0
   12.6684   11.1979    2.6291 C   0  0  0  0  0  0  0  0  0  0  0  0
   12.7145    9.9889    1.9283 C   0  0  0  0  0  0  0  0  0  0  0  0
   13.7223    9.0627    2.1914 C   0  0  0  0  0  0  0  0  0  0  0  0
   14.6746    9.3331    3.1536 C   0  0  0  0  0  0  0  0  0  0  0  0
   14.6387   10.5354    3.8642 C   0  0  0  0  0  0  0  0  0  0  0  0
  1  2  1  0  0  0
  2  3  2  0  0  0
  2  6  1  0  0  0
  9 14  2  0  0  0
  9 13  1  0  0  0
 14 12  1  0  0  0
  3  4  1  0  0  0
  6 13  1  0  0  0
  6  5  1  0  0  0
 12 11  2  0  0  0
 13 10  2  0  0  0
  4  5  2  0  0  0
  4 23  1  0  0  0
 23 25  1  0  0  0
 11 10  1  0  0  0
 11 15  1  0  0  0
 15 19  1  0  0  0
 21 20  2  0  0  0
 21 19  1  0  0  0
 25 30  2  0  0  0
 25 26  1  0  0  0
 20 22  1  0  0  0
 30 29  1  0  0  0
 19 18  2  0  0  0
 26 27  2  0  0  0
 29 28  2  0  0  0
 22 17  2  0  0  0
 18 17  1  0  0  0
 27 28  1  0  0  0
  1  7  1  0  0  0
  1  8  1  0  0  0
 23 24  1  0  0  0
 15 16  1  0  0  0
M  END
> <minimizedAffinity>
-7.58006

$$$$
4YTC_4HW_A_4000


 30 33  0  0  0  0  0  0  0  0999 V2000
   12.6470   11.7505    2.6923 N   0  0  0  0  0  0  0  0  0  0  0  0
   12.4879   13.0731    2.7321 C   0  0  0  0  0  0  0  0  0  0  0  0
   11.3752   13.7457    2.4093 N   0  0  0  0  0  0  0  0  0  0  0  0
   11.6783   15.0443    2.7332 C   0  0  0  0  0  0  0  0  0  0  0  0
   12.8989   15.2114    3.2139 N   0  0  0  0  0  0  0  0  0  0  0  0
   13.4264   13.9263    3.2134 N   0  0  0  0  0  0  0  0  0  0  0  0
   11.9309   11.1792    2.3317 H   0  0  0  0  0  0  0  0  0  0  0  0
   13.4807   11.3448    3.0234 H   0  0  0  0  0  0  0  0  0  0  0  0
   15.6812   14.5236    3.0737 N   0  0  0  0  0  0  0  0  0  0  0  0
   15.0427   12.7881    4.6281 C   0  0  0  0  0  0  0  0  0  0  0  0
   16.4015   12.5415    4.8452 C   0  0  0  0  0  0  0  0  0  0  0  0
   17.3757   13.2821    4.2717 N   0  0  0  0  0  0  0  0  0  0  0  0
   14.7454   13.7735    3.6843 C   0  0  0  0  0  0  0  0  0  0  0  0
   16.9454   14.2327    3.4245 C   0  0  0  0  0  0  0  0  0  0  0  0
   16.6871   11.3653    5.5163 N   0  0  0  0  0  0  0  0  0  0  0  0
   17.2811   11.4928    6.2910 H   0  0  0  0  0  0  0  0  0  0  0  0
   15.3946    8.2256    3.9700 C   0  0  0  0  0  0  0  0  0  0  0  0
   15.4105    9.5685    4.3422 C   0  0  0  0  0  0  0  0  0  0  0  0
   16.3030   10.0173    5.3205 C   0  0  0  0  0  0  0  0  0  0  0  0
   17.1362    7.7601    5.5511 C   0  0  0  0  0  0  0  0  0  0  0  0
   17.1491    9.1011    5.9428 C   0  0  0  0  0  0  0  0  0  0  0  0
   16.2628    7.3254    4.5662 C   0  0  0  0  0  0  0  0  0  0  0  0
   10.7495   16.0475    2.5342 N   0  0  0  0  0  0  0  0  0  0  0  0
   10.5326   16.5635    3.3441 H   0  0  0  0  0  0  0  0  0  0  0  0
   10.0495   16.4694    1.3678 C   0  0  0  0  0  0  0  0  0  0  0  0
   10.1924   15.8400    0.1242 C   0  0  0  0  0  0  0  0  0  0  0  0
    9.4335   16.2742   -0.9670 C   0  0  0  0  0  0  0  0  0  0  0  0
    8.5352   17.3300   -0.8219 C   0  0  0  0  0  0  0  0  0  0  0  0
    8.3987   17.9577    0.4001 C   0  0  0  0  0  0  0  0  0  0  0  0
    9.1533   17.5368    1.4980 C   0  0  0  0  0  0  0  0  0  0  0  0
  1  2  1  0  0  0
  2  3  2  0  0  0
  2  6  1  0  0  0
  9 14  2  0  0  0
  9 13  1  0  0  0
 14 12  1  0  0  0
  3  4  1  0  0  0
  6 13  1  0  0  0
  6  5  1  0  0  0
 12 11  2  0  0  0
 13 10  2  0  0  0
  4  5  2  0  0  0
  4 23  1  0  0  0
 23 25  1  0  0  0
 11 10  1  0  0  0
 11 15  1  0  0  0
 15 19  1  0  0  0
 21 20  2  0  0  0
 21 19  1  0  0  0
 25 30  2  0  0  0
 25 26  1  0  0  0
 20 22  1  0  0  0
 30 29  1  0  0  0
 19 18  2  0  0  0
 26 27  2  0  0  0
 29 28  2  0  0  0
 22 17  2  0  0  0
 18 17  1  0  0  0
 27 28  1  0  0  0
  1  7  1  0  0  0
  1  8  1  0  0  0
 23 24  1  0  0  0
 15 16  1  0  0  0
M  END
> <minimizedAffinity>
-7.29420

$$$$
