3MFW_B3U_A_600


 18 18  0  0  0  0  0  0  0  0999 V2000
    2.3478   24.9281   29.7942 C   0  0  0  0  0  0  0  0  0  0  0  0
    1.3546   24.0036   29.1923 C   0  0  0  0  0  0  0  0  0  0  0  0
    1.4032   23.0921   28.1962 C   0  0  0  0  0  0  0  0  0  0  0  0
    0.1491   22.5629   28.1193 N   0  0  0  0  0  0  0  0  0  0  0  0
   -0.6361   23.1141   29.0248 C   0  0  0  0  0  0  0  0  0  0  0  0
    0.0713   24.0023   29.6946 N   0  0  0  0  0  0  0  0  0  0  0  0
   -2.0093   22.8692   29.3026 N   0  0  0  0  0  0  0  0  0  0  0  0
   -0.2606   24.5683   30.4286 H   0  0  0  0  0  0  0  0  0  0  0  0
   -2.5049   22.1975   28.7806 H   0  0  0  0  0  0  0  0  0  0  0  0
   -2.4642   23.3713   30.0169 H   0  0  0  0  0  0  0  0  0  0  0  0
    2.1543   24.7872   32.2787 N   0  0  0  0  0  0  0  0  0  0  0  0
    2.9256   24.4066   31.0869 C   0  0  0  0  0  0  0  0  0  0  0  0
    1.1766   24.5274   32.1482 H   0  0  0  0  0  0  0  0  0  0  0  0
    2.2224   25.7951   32.4201 H   0  0  0  0  0  0  0  0  0  0  0  0
    4.3915   24.8114   31.3162 C   0  0  0  0  0  0  0  0  0  0  0  0
    5.2258   24.0753   31.8504 O   0  0  0  0  0  0  0  0  0  0  0  0
    4.6731   25.9524   30.9068 O   0  0  0  0  0  0  0  0  0  0  0  0
    4.9765   23.2220   32.1464 H   0  0  0  0  0  0  0  0  0  0  0  0
 11 12  1  0  0  0
 12  1  1  0  0  0
 12 15  1  0  0  0
  1  2  1  0  0  0
  2  3  2  0  0  0
  2  6  1  0  0  0
  3  4  1  0  0  0
  4  5  2  0  0  0
  5  6  1  0  0  0
  5  7  1  0  0  0
 15 16  1  0  0  0
 15 17  2  0  0  0
 11 13  1  0  0  0
 11 14  1  0  0  0
  6  8  1  0  0  0
  7  9  1  0  0  0
  7 10  1  0  0  0
 16 18  1  0  0  0
M  END
> <minimizedAffinity>
-7.38430

$$$$
3MFW_B3U_A_600


 18 18  0  0  0  0  0  0  0  0999 V2000
    2.9419   25.0729   29.8876 C   0  0  0  0  0  0  0  0  0  0  0  0
    1.9146   24.1888   29.2823 C   0  0  0  0  0  0  0  0  0  0  0  0
    1.9069   23.3413   28.2301 C   0  0  0  0  0  0  0  0  0  0  0  0
    0.6482   22.8192   28.1865 N   0  0  0  0  0  0  0  0  0  0  0  0
   -0.0859   23.3134   29.1648 C   0  0  0  0  0  0  0  0  0  0  0  0
    0.6595   24.1573   29.8505 N   0  0  0  0  0  0  0  0  0  0  0  0
   -1.4437   23.0529   29.4987 N   0  0  0  0  0  0  0  0  0  0  0  0
    0.3690   24.6766   30.6348 H   0  0  0  0  0  0  0  0  0  0  0  0
   -1.9689   22.4157   28.9627 H   0  0  0  0  0  0  0  0  0  0  0  0
   -1.8584   23.5098   30.2658 H   0  0  0  0  0  0  0  0  0  0  0  0
    3.3266   26.1952   32.0835 N   0  0  0  0  0  0  0  0  0  0  0  0
    3.0216   24.9367   31.3882 C   0  0  0  0  0  0  0  0  0  0  0  0
    2.6697   26.9162   31.7853 H   0  0  0  0  0  0  0  0  0  0  0  0
    4.2774   26.4869   31.8572 H   0  0  0  0  0  0  0  0  0  0  0  0
    4.0281   23.8736   31.8596 C   0  0  0  0  0  0  0  0  0  0  0  0
    3.9255   23.2650   32.9284 O   0  0  0  0  0  0  0  0  0  0  0  0
    4.9611   23.6687   31.0619 O   0  0  0  0  0  0  0  0  0  0  0  0
    3.2087   23.4464   33.5040 H   0  0  0  0  0  0  0  0  0  0  0  0
 11 12  1  0  0  0
 12  1  1  0  0  0
 12 15  1  0  0  0
  1  2  1  0  0  0
  2  3  2  0  0  0
  2  6  1  0  0  0
  3  4  1  0  0  0
  4  5  2  0  0  0
  5  6  1  0  0  0
  5  7  1  0  0  0
 15 16  1  0  0  0
 15 17  2  0  0  0
 11 13  1  0  0  0
 11 14  1  0  0  0
  6  8  1  0  0  0
  7  9  1  0  0  0
  7 10  1  0  0  0
 16 18  1  0  0  0
M  END
> <minimizedAffinity>
-7.20666

$$$$
3MFW_B3U_A_600


 18 18  0  0  0  0  0  0  0  0999 V2000
    3.0201   24.6087   29.4987 C   0  0  0  0  0  0  0  0  0  0  0  0
    1.7837   23.9093   29.0682 C   0  0  0  0  0  0  0  0  0  0  0  0
    1.5105   22.9775   28.1287 C   0  0  0  0  0  0  0  0  0  0  0  0
    0.1717   22.7386   28.2249 N   0  0  0  0  0  0  0  0  0  0  0  0
   -0.3578   23.4802   29.1788 C   0  0  0  0  0  0  0  0  0  0  0  0
    0.6024   24.2102   29.7109 N   0  0  0  0  0  0  0  0  0  0  0  0
   -1.7067   23.5564   29.6233 N   0  0  0  0  0  0  0  0  0  0  0  0
    0.4940   24.8597   30.4428 H   0  0  0  0  0  0  0  0  0  0  0  0
   -2.3965   22.9951   29.2012 H   0  0  0  0  0  0  0  0  0  0  0  0
   -1.9505   24.1704   30.3533 H   0  0  0  0  0  0  0  0  0  0  0  0
    3.2387   26.4088   27.7836 N   0  0  0  0  0  0  0  0  0  0  0  0
    2.9927   26.0868   29.1964 C   0  0  0  0  0  0  0  0  0  0  0  0
    2.6002   25.8722   27.1964 H   0  0  0  0  0  0  0  0  0  0  0  0
    4.2014   26.1722   27.5435 H   0  0  0  0  0  0  0  0  0  0  0  0
    3.9696   26.9107   30.0519 C   0  0  0  0  0  0  0  0  0  0  0  0
    4.4320   27.9996   29.6998 O   0  0  0  0  0  0  0  0  0  0  0  0
    4.2528   26.3876   31.1451 O   0  0  0  0  0  0  0  0  0  0  0  0
    4.1956   28.3623   28.8688 H   0  0  0  0  0  0  0  0  0  0  0  0
 11 12  1  0  0  0
 12  1  1  0  0  0
 12 15  1  0  0  0
  1  2  1  0  0  0
  2  3  2  0  0  0
  2  6  1  0  0  0
  3  4  1  0  0  0
  4  5  2  0  0  0
  5  6  1  0  0  0
  5  7  1  0  0  0
 15 16  1  0  0  0
 15 17  2  0  0  0
 11 13  1  0  0  0
 11 14  1  0  0  0
  6  8  1  0  0  0
  7  9  1  0  0  0
  7 10  1  0  0  0
 16 18  1  0  0  0
M  END
> <minimizedAffinity>
-6.99678

$$$$
3MFW_B3U_A_600


 18 18  0  0  0  0  0  0  0  0999 V2000
    1.5906   24.8852   29.1924 C   0  0  0  0  0  0  0  0  0  0  0  0
    2.8154   25.0767   30.0089 C   0  0  0  0  0  0  0  0  0  0  0  0
    3.5344   26.1573   30.3842 C   0  0  0  0  0  0  0  0  0  0  0  0
    4.5620   25.6727   31.1379 N   0  0  0  0  0  0  0  0  0  0  0  0
    4.4818   24.3592   31.2298 C   0  0  0  0  0  0  0  0  0  0  0  0
    3.4258   23.9643   30.5464 N   0  0  0  0  0  0  0  0  0  0  0  0
    5.3324   23.4454   31.9112 N   0  0  0  0  0  0  0  0  0  0  0  0
    3.1247   23.0332   30.4384 H   0  0  0  0  0  0  0  0  0  0  0  0
    6.1122   23.7783   32.4116 H   0  0  0  0  0  0  0  0  0  0  0  0
    5.1414   22.4800   31.8826 H   0  0  0  0  0  0  0  0  0  0  0  0
    1.7690   22.7151   27.9723 N   0  0  0  0  0  0  0  0  0  0  0  0
    1.1677   23.4397   29.1008 C   0  0  0  0  0  0  0  0  0  0  0  0
    2.7822   22.8309   27.9951 H   0  0  0  0  0  0  0  0  0  0  0  0
    1.4038   23.0875   27.0958 H   0  0  0  0  0  0  0  0  0  0  0  0
   -0.3565   23.2447   29.0368 C   0  0  0  0  0  0  0  0  0  0  0  0
   -1.1655   24.0312   29.5372 O   0  0  0  0  0  0  0  0  0  0  0  0
   -0.7122   22.2212   28.4245 O   0  0  0  0  0  0  0  0  0  0  0  0
   -0.8600   24.7918   29.9911 H   0  0  0  0  0  0  0  0  0  0  0  0
 11 12  1  0  0  0
 12  1  1  0  0  0
 12 15  1  0  0  0
  1  2  1  0  0  0
  2  3  2  0  0  0
  2  6  1  0  0  0
  3  4  1  0  0  0
  4  5  2  0  0  0
  5  6  1  0  0  0
  5  7  1  0  0  0
 15 16  1  0  0  0
 15 17  2  0  0  0
 11 13  1  0  0  0
 11 14  1  0  0  0
  6  8  1  0  0  0
  7  9  1  0  0  0
  7 10  1  0  0  0
 16 18  1  0  0  0
M  END
> <minimizedAffinity>
-6.96998

$$$$
3MFW_B3U_A_600


 18 18  0  0  0  0  0  0  0  0999 V2000
    3.4404   24.0487   29.5216 C   0  0  0  0  0  0  0  0  0  0  0  0
    4.0746   25.3893   29.4596 C   0  0  0  0  0  0  0  0  0  0  0  0
    5.3193   25.8269   29.1682 C   0  0  0  0  0  0  0  0  0  0  0  0
    5.2700   27.1842   29.2867 N   0  0  0  0  0  0  0  0  0  0  0  0
    4.0557   27.5695   29.6290 C   0  0  0  0  0  0  0  0  0  0  0  0
    3.3023   26.4941   29.7462 N   0  0  0  0  0  0  0  0  0  0  0  0
    3.5528   28.8797   29.8601 N   0  0  0  0  0  0  0  0  0  0  0  0
    2.3500   26.4822   29.9960 H   0  0  0  0  0  0  0  0  0  0  0  0
    4.1463   29.6591   29.7627 H   0  0  0  0  0  0  0  0  0  0  0  0
    2.6111   29.0072   30.1175 H   0  0  0  0  0  0  0  0  0  0  0  0
    2.4625   24.8768   27.3798 N   0  0  0  0  0  0  0  0  0  0  0  0
    2.4983   23.7924   28.3712 C   0  0  0  0  0  0  0  0  0  0  0  0
    3.4121   25.0898   27.0744 H   0  0  0  0  0  0  0  0  0  0  0  0
    2.0459   25.7078   27.7996 H   0  0  0  0  0  0  0  0  0  0  0  0
    1.0540   23.4970   28.8094 C   0  0  0  0  0  0  0  0  0  0  0  0
    0.5143   24.0318   29.7820 O   0  0  0  0  0  0  0  0  0  0  0  0
    0.4640   22.6709   28.0895 O   0  0  0  0  0  0  0  0  0  0  0  0
    0.9906   24.6496   30.3011 H   0  0  0  0  0  0  0  0  0  0  0  0
 11 12  1  0  0  0
 12  1  1  0  0  0
 12 15  1  0  0  0
  1  2  1  0  0  0
  2  3  2  0  0  0
  2  6  1  0  0  0
  3  4  1  0  0  0
  4  5  2  0  0  0
  5  6  1  0  0  0
  5  7  1  0  0  0
 15 16  1  0  0  0
 15 17  2  0  0  0
 11 13  1  0  0  0
 11 14  1  0  0  0
  6  8  1  0  0  0
  7  9  1  0  0  0
  7 10  1  0  0  0
 16 18  1  0  0  0
M  END
> <minimizedAffinity>
-6.08924

$$$$
3MFW_B3U_A_600


 18 18  0  0  0  0  0  0  0  0999 V2000
    2.5528   24.7730   28.2579 C   0  0  0  0  0  0  0  0  0  0  0  0
    3.7436   25.5042   28.7584 C   0  0  0  0  0  0  0  0  0  0  0  0
    4.9879   25.1305   29.1294 C   0  0  0  0  0  0  0  0  0  0  0  0
    5.6231   26.2790   29.4984 N   0  0  0  0  0  0  0  0  0  0  0  0
    4.8161   27.3131   29.3585 C   0  0  0  0  0  0  0  0  0  0  0  0
    3.6575   26.8711   28.9111 N   0  0  0  0  0  0  0  0  0  0  0  0
    5.0549   28.6903   29.6215 N   0  0  0  0  0  0  0  0  0  0  0  0
    2.8655   27.4235   28.7188 H   0  0  0  0  0  0  0  0  0  0  0  0
    5.9338   28.9826   29.9551 H   0  0  0  0  0  0  0  0  0  0  0  0
    4.3413   29.3514   29.4698 H   0  0  0  0  0  0  0  0  0  0  0  0
    1.9960   24.4720   30.6722 N   0  0  0  0  0  0  0  0  0  0  0  0
    1.4773   24.6183   29.3048 C   0  0  0  0  0  0  0  0  0  0  0  0
    2.6398   25.2366   30.8753 H   0  0  0  0  0  0  0  0  0  0  0  0
    2.4876   23.5822   30.7559 H   0  0  0  0  0  0  0  0  0  0  0  0
    0.5123   23.4523   29.0318 C   0  0  0  0  0  0  0  0  0  0  0  0
   -0.5480   23.2886   29.6419 O   0  0  0  0  0  0  0  0  0  0  0  0
    0.8884   22.6828   28.1289 O   0  0  0  0  0  0  0  0  0  0  0  0
   -0.7981   23.8892   30.3162 H   0  0  0  0  0  0  0  0  0  0  0  0
 11 12  1  0  0  0
 12  1  1  0  0  0
 12 15  1  0  0  0
  1  2  1  0  0  0
  2  3  2  0  0  0
  2  6  1  0  0  0
  3  4  1  0  0  0
  4  5  2  0  0  0
  5  6  1  0  0  0
  5  7  1  0  0  0
 15 16  1  0  0  0
 15 17  2  0  0  0
 11 13  1  0  0  0
 11 14  1  0  0  0
  6  8  1  0  0  0
  7  9  1  0  0  0
  7 10  1  0  0  0
 16 18  1  0  0  0
M  END
> <minimizedAffinity>
-6.07955

$$$$
3MFW_B3U_A_600


 18 18  0  0  0  0  0  0  0  0999 V2000
    3.4166   24.5208   29.0844 C   0  0  0  0  0  0  0  0  0  0  0  0
    3.9482   25.8862   29.3217 C   0  0  0  0  0  0  0  0  0  0  0  0
    5.1897   26.3976   29.4723 C   0  0  0  0  0  0  0  0  0  0  0  0
    5.0161   27.7362   29.6645 N   0  0  0  0  0  0  0  0  0  0  0  0
    3.7330   28.0405   29.6298 C   0  0  0  0  0  0  0  0  0  0  0  0
    3.0536   26.9293   29.4255 N   0  0  0  0  0  0  0  0  0  0  0  0
    3.0975   29.3039   29.7811 N   0  0  0  0  0  0  0  0  0  0  0  0
    2.0741   26.8570   29.3585 H   0  0  0  0  0  0  0  0  0  0  0  0
    3.6387   30.1122   29.9324 H   0  0  0  0  0  0  0  0  0  0  0  0
    2.1163   29.3700   29.7345 H   0  0  0  0  0  0  0  0  0  0  0  0
    1.0793   24.6288   29.9533 N   0  0  0  0  0  0  0  0  0  0  0  0
    2.4314   24.0838   30.1404 C   0  0  0  0  0  0  0  0  0  0  0  0
    0.7598   24.4277   29.0057 H   0  0  0  0  0  0  0  0  0  0  0  0
    1.0963   25.6381   30.0994 H   0  0  0  0  0  0  0  0  0  0  0  0
    2.8817   24.4036   31.5758 C   0  0  0  0  0  0  0  0  0  0  0  0
    2.3208   25.2338   32.2966 O   0  0  0  0  0  0  0  0  0  0  0  0
    3.8645   23.7431   31.9586 O   0  0  0  0  0  0  0  0  0  0  0  0
    1.5830   25.7124   31.9734 H   0  0  0  0  0  0  0  0  0  0  0  0
 11 12  1  0  0  0
 12  1  1  0  0  0
 12 15  1  0  0  0
  1  2  1  0  0  0
  2  3  2  0  0  0
  2  6  1  0  0  0
  3  4  1  0  0  0
  4  5  2  0  0  0
  5  6  1  0  0  0
  5  7  1  0  0  0
 15 16  1  0  0  0
 15 17  2  0  0  0
 11 13  1  0  0  0
 11 14  1  0  0  0
  6  8  1  0  0  0
  7  9  1  0  0  0
  7 10  1  0  0  0
 16 18  1  0  0  0
M  END
> <minimizedAffinity>
-6.06059

$$$$
3MFW_B3U_A_600


 18 18  0  0  0  0  0  0  0  0999 V2000
    3.4881   26.6427   29.1954 C   0  0  0  0  0  0  0  0  0  0  0  0
    3.0132   25.5933   28.2592 C   0  0  0  0  0  0  0  0  0  0  0  0
    3.1211   25.4060   26.9255 C   0  0  0  0  0  0  0  0  0  0  0  0
    2.4646   24.2404   26.6626 N   0  0  0  0  0  0  0  0  0  0  0  0
    1.9787   23.7280   27.7769 C   0  0  0  0  0  0  0  0  0  0  0  0
    2.2945   24.5346   28.7707 N   0  0  0  0  0  0  0  0  0  0  0  0
    1.2317   22.5339   27.9743 N   0  0  0  0  0  0  0  0  0  0  0  0
    2.0572   24.4031   29.7171 H   0  0  0  0  0  0  0  0  0  0  0  0
    1.0149   21.9563   27.2070 H   0  0  0  0  0  0  0  0  0  0  0  0
    0.9313   22.2848   28.8781 H   0  0  0  0  0  0  0  0  0  0  0  0
    5.2156   24.9756   29.8782 N   0  0  0  0  0  0  0  0  0  0  0  0
    4.3588   26.0933   30.2986 C   0  0  0  0  0  0  0  0  0  0  0  0
    5.7477   25.2472   29.0515 H   0  0  0  0  0  0  0  0  0  0  0  0
    4.6351   24.1663   29.6582 H   0  0  0  0  0  0  0  0  0  0  0  0
    3.5725   25.6512   31.5442 C   0  0  0  0  0  0  0  0  0  0  0  0
    3.1616   26.4354   32.4042 O   0  0  0  0  0  0  0  0  0  0  0  0
    3.3747   24.4243   31.6106 O   0  0  0  0  0  0  0  0  0  0  0  0
    3.3301   27.3532   32.3201 H   0  0  0  0  0  0  0  0  0  0  0  0
 11 12  1  0  0  0
 12  1  1  0  0  0
 12 15  1  0  0  0
  1  2  1  0  0  0
  2  3  2  0  0  0
  2  6  1  0  0  0
  3  4  1  0  0  0
  4  5  2  0  0  0
  5  6  1  0  0  0
  5  7  1  0  0  0
 15 16  1  0  0  0
 15 17  2  0  0  0
 11 13  1  0  0  0
 11 14  1  0  0  0
  6  8  1  0  0  0
  7  9  1  0  0  0
  7 10  1  0  0  0
 16 18  1  0  0  0
M  END
> <minimizedAffinity>
-5.95034

$$$$
3MFW_B3U_A_600


 18 18  0  0  0  0  0  0  0  0999 V2000
    2.7079   24.8013   30.1546 C   0  0  0  0  0  0  0  0  0  0  0  0
    2.8179   25.4250   28.8122 C   0  0  0  0  0  0  0  0  0  0  0  0
    2.2866   26.5293   28.2433 C   0  0  0  0  0  0  0  0  0  0  0  0
    2.7755   26.5601   26.9710 N   0  0  0  0  0  0  0  0  0  0  0  0
    3.5735   25.5305   26.7627 C   0  0  0  0  0  0  0  0  0  0  0  0
    3.6169   24.8152   27.8693 N   0  0  0  0  0  0  0  0  0  0  0  0
    4.2957   25.1665   25.5927 N   0  0  0  0  0  0  0  0  0  0  0  0
    4.1322   23.9866   27.9998 H   0  0  0  0  0  0  0  0  0  0  0  0
    4.2384   25.7262   24.7848 H   0  0  0  0  0  0  0  0  0  0  0  0
    4.8530   24.3550   25.5908 H   0  0  0  0  0  0  0  0  0  0  0  0
    4.7085   26.2284   30.5911 N   0  0  0  0  0  0  0  0  0  0  0  0
    3.9062   25.0775   31.0290 C   0  0  0  0  0  0  0  0  0  0  0  0
    4.1034   27.0419   30.4794 H   0  0  0  0  0  0  0  0  0  0  0  0
    5.1553   26.0121   29.7000 H   0  0  0  0  0  0  0  0  0  0  0  0
    4.8468   23.8711   31.1873 C   0  0  0  0  0  0  0  0  0  0  0  0
    5.4254   23.5921   32.2412 O   0  0  0  0  0  0  0  0  0  0  0  0
    4.9719   23.1860   30.1559 O   0  0  0  0  0  0  0  0  0  0  0  0
    5.3068   24.1319   32.9979 H   0  0  0  0  0  0  0  0  0  0  0  0
 11 12  1  0  0  0
 12  1  1  0  0  0
 12 15  1  0  0  0
  1  2  1  0  0  0
  2  3  2  0  0  0
  2  6  1  0  0  0
  3  4  1  0  0  0
  4  5  2  0  0  0
  5  6  1  0  0  0
  5  7  1  0  0  0
 15 16  1  0  0  0
 15 17  2  0  0  0
 11 13  1  0  0  0
 11 14  1  0  0  0
  6  8  1  0  0  0
  7  9  1  0  0  0
  7 10  1  0  0  0
 16 18  1  0  0  0
M  END
> <minimizedAffinity>
-5.76822

$$$$
3MFW_B3U_A_600


 18 18  0  0  0  0  0  0  0  0999 V2000
    2.1683   25.1912   29.1185 C   0  0  0  0  0  0  0  0  0  0  0  0
    2.9913   24.6041   30.2055 C   0  0  0  0  0  0  0  0  0  0  0  0
    2.8412   24.4975   31.5440 C   0  0  0  0  0  0  0  0  0  0  0  0
    3.9537   23.8470   31.9890 N   0  0  0  0  0  0  0  0  0  0  0  0
    4.7508   23.5602   30.9778 C   0  0  0  0  0  0  0  0  0  0  0  0
    4.1915   24.0139   29.8735 N   0  0  0  0  0  0  0  0  0  0  0  0
    6.0070   22.8933   30.9757 N   0  0  0  0  0  0  0  0  0  0  0  0
    4.5672   23.9431   28.9663 H   0  0  0  0  0  0  0  0  0  0  0  0
    6.3932   22.5683   31.8210 H   0  0  0  0  0  0  0  0  0  0  0  0
    6.4905   22.7566   30.1291 H   0  0  0  0  0  0  0  0  0  0  0  0
    2.1777   27.5264   28.2373 N   0  0  0  0  0  0  0  0  0  0  0  0
    2.9025   26.2515   28.3352 C   0  0  0  0  0  0  0  0  0  0  0  0
    1.9097   27.8377   29.1709 H   0  0  0  0  0  0  0  0  0  0  0  0
    1.3409   27.3989   27.6680 H   0  0  0  0  0  0  0  0  0  0  0  0
    3.2909   25.8116   26.9136 C   0  0  0  0  0  0  0  0  0  0  0  0
    2.5737   25.9905   25.9253 O   0  0  0  0  0  0  0  0  0  0  0  0
    4.4047   25.2613   26.8390 O   0  0  0  0  0  0  0  0  0  0  0  0
    1.7406   26.4087   26.0206 H   0  0  0  0  0  0  0  0  0  0  0  0
 11 12  1  0  0  0
 12  1  1  0  0  0
 12 15  1  0  0  0
  1  2  1  0  0  0
  2  3  2  0  0  0
  2  6  1  0  0  0
  3  4  1  0  0  0
  4  5  2  0  0  0
  5  6  1  0  0  0
  5  7  1  0  0  0
 15 16  1  0  0  0
 15 17  2  0  0  0
 11 13  1  0  0  0
 11 14  1  0  0  0
  6  8  1  0  0  0
  7  9  1  0  0  0
  7 10  1  0  0  0
 16 18  1  0  0  0
M  END
> <minimizedAffinity>
-5.71683

$$$$
