3IPH_G11_A_361


 28 31  0  0  0  0  0  0  0  0999 V2000
   40.6143   31.2401   32.3949 C   0  0  0  0  0  0  0  0  0  0  0  0
   40.5318   30.3643   33.4732 C   0  0  0  0  0  0  0  0  0  0  0  0
   39.5397   31.3795   31.5268 C   0  0  0  0  0  0  0  0  0  0  0  0
   39.4121   29.5707   33.7387 C   0  0  0  0  0  0  0  0  0  0  0  0
   38.4131   30.5987   31.7752 C   0  0  0  0  0  0  0  0  0  0  0  0
   39.5723   32.3288   30.3336 C   0  0  0  0  0  0  0  0  0  0  0  0
   38.3432   29.7063   32.8569 C   0  0  0  0  0  0  0  0  0  0  0  0
   41.8755   31.9984   32.2608 C   0  0  0  0  0  0  0  0  0  0  0  0
   42.7839   31.6773   31.2729 C   0  0  0  0  0  0  0  0  0  0  0  0
   42.1218   33.0517   33.0827 N   0  0  0  0  0  0  0  0  0  0  0  0
   43.2626   33.7440   32.9463 C   0  0  0  0  0  0  0  0  0  0  0  0
   43.9620   32.3926   31.1229 C   0  0  0  0  0  0  0  0  0  0  0  0
   44.2185   33.4654   31.9651 C   0  0  0  0  0  0  0  0  0  0  0  0
   45.4858   34.2141   31.8196 C   0  0  0  0  0  0  0  0  0  0  0  0
   46.4044   33.5869   31.0304 N   0  0  0  0  0  0  0  0  0  0  0  0
   45.6725   35.3363   32.2841 O   0  0  0  0  0  0  0  0  0  0  0  0
   46.1551   32.7086   30.6622 H   0  0  0  0  0  0  0  0  0  0  0  0
   47.7239   34.1036   30.6839 C   0  0  0  0  0  0  0  0  0  0  0  0
   47.7379   34.2917   29.1794 C   0  0  0  0  0  0  0  0  0  0  0  0
   49.0749   34.0707   28.5898 C   0  0  0  0  0  0  0  0  0  0  0  0
   48.5035   35.4415   28.6555 C   0  0  0  0  0  0  0  0  0  0  0  0
   39.4862   28.6732   34.9413 C   0  0  0  0  0  0  0  0  0  0  0  0
   38.4388   27.8300   35.2303 N   0  0  0  0  0  0  0  0  0  0  0  0
   40.4921   28.7139   35.6700 O   0  0  0  0  0  0  0  0  0  0  0  0
   37.6319   27.8860   34.6690 H   0  0  0  0  0  0  0  0  0  0  0  0
   38.4502   26.8755   36.2980 C   0  0  0  0  0  0  0  0  0  0  0  0
   37.9767   27.5750   37.5229 C   0  0  0  0  0  0  0  0  0  0  0  0
   37.0412   26.7003   36.7351 C   0  0  0  0  0  0  0  0  0  0  0  0
  3  1  2  0  0  0
  8  1  1  0  0  0
  1  2  1  0  0  0
 10  8  2  0  0  0
  8  9  1  0  0  0
  2  4  2  0  0  0
  6  3  1  0  0  0
  3  5  1  0  0  0
 12  9  2  0  0  0
 11 10  1  0  0  0
  7  4  1  0  0  0
  4 22  1  0  0  0
  5  7  2  0  0  0
 11 13  2  0  0  0
 13 12  1  0  0  0
 22 23  1  0  0  0
 22 24  2  0  0  0
 14 13  1  0  0  0
 23 26  1  0  0  0
 15 14  1  0  0  0
 14 16  2  0  0  0
 26 28  1  0  0  0
 26 27  1  0  0  0
 18 15  1  0  0  0
 28 27  1  0  0  0
 18 19  1  0  0  0
 19 21  1  0  0  0
 19 20  1  0  0  0
 21 20  1  0  0  0
 23 25  1  0  0  0
 15 17  1  0  0  0
M  END
> <minimizedAffinity>
-10.87766

$$$$
3IPH_G11_A_361


 28 31  0  0  0  0  0  0  0  0999 V2000
   40.6250   31.2427   32.4159 C   0  0  0  0  0  0  0  0  0  0  0  0
   40.5346   30.3681   33.4945 C   0  0  0  0  0  0  0  0  0  0  0  0
   39.5638   31.3675   31.5293 C   0  0  0  0  0  0  0  0  0  0  0  0
   39.4202   29.5615   33.7424 C   0  0  0  0  0  0  0  0  0  0  0  0
   38.4426   30.5736   31.7600 C   0  0  0  0  0  0  0  0  0  0  0  0
   39.6053   32.3149   30.3349 C   0  0  0  0  0  0  0  0  0  0  0  0
   38.3650   29.6824   32.8422 C   0  0  0  0  0  0  0  0  0  0  0  0
   41.8790   32.0160   32.3018 C   0  0  0  0  0  0  0  0  0  0  0  0
   42.8189   31.6887   31.3458 C   0  0  0  0  0  0  0  0  0  0  0  0
   42.0882   33.0883   33.1093 N   0  0  0  0  0  0  0  0  0  0  0  0
   43.2228   33.7938   32.9908 C   0  0  0  0  0  0  0  0  0  0  0  0
   43.9909   32.4175   31.2143 C   0  0  0  0  0  0  0  0  0  0  0  0
   44.2093   33.5098   32.0421 C   0  0  0  0  0  0  0  0  0  0  0  0
   45.4699   34.2734   31.9168 C   0  0  0  0  0  0  0  0  0  0  0  0
   46.4084   33.6570   31.1426 N   0  0  0  0  0  0  0  0  0  0  0  0
   45.6360   35.3977   32.3841 O   0  0  0  0  0  0  0  0  0  0  0  0
   46.1755   32.7758   30.7706 H   0  0  0  0  0  0  0  0  0  0  0  0
   47.7272   34.1891   30.8174 C   0  0  0  0  0  0  0  0  0  0  0  0
   48.7124   33.5161   31.7532 C   0  0  0  0  0  0  0  0  0  0  0  0
   48.9247   34.2784   33.0014 C   0  0  0  0  0  0  0  0  0  0  0  0
   50.0001   34.2047   31.9777 C   0  0  0  0  0  0  0  0  0  0  0  0
   39.4846   28.6672   34.9481 C   0  0  0  0  0  0  0  0  0  0  0  0
   38.4377   27.8200   35.2271 N   0  0  0  0  0  0  0  0  0  0  0  0
   40.4818   28.7142   35.6881 O   0  0  0  0  0  0  0  0  0  0  0  0
   37.6371   27.8710   34.6564 H   0  0  0  0  0  0  0  0  0  0  0  0
   38.4411   26.8681   36.2972 C   0  0  0  0  0  0  0  0  0  0  0  0
   38.0565   27.5943   37.5375 C   0  0  0  0  0  0  0  0  0  0  0  0
   37.0437   26.7701   36.7919 C   0  0  0  0  0  0  0  0  0  0  0  0
  3  1  2  0  0  0
  8  1  1  0  0  0
  1  2  1  0  0  0
 10  8  2  0  0  0
  8  9  1  0  0  0
  2  4  2  0  0  0
  6  3  1  0  0  0
  3  5  1  0  0  0
 12  9  2  0  0  0
 11 10  1  0  0  0
  7  4  1  0  0  0
  4 22  1  0  0  0
  5  7  2  0  0  0
 11 13  2  0  0  0
 13 12  1  0  0  0
 22 23  1  0  0  0
 22 24  2  0  0  0
 14 13  1  0  0  0
 23 26  1  0  0  0
 15 14  1  0  0  0
 14 16  2  0  0  0
 26 28  1  0  0  0
 26 27  1  0  0  0
 18 15  1  0  0  0
 28 27  1  0  0  0
 18 19  1  0  0  0
 19 21  1  0  0  0
 19 20  1  0  0  0
 21 20  1  0  0  0
 23 25  1  0  0  0
 15 17  1  0  0  0
M  END
> <minimizedAffinity>
-10.73957

$$$$
3IPH_G11_A_361


 28 31  0  0  0  0  0  0  0  0999 V2000
   42.6385   30.2822   32.9592 C   0  0  0  0  0  0  0  0  0  0  0  0
   41.5086   29.5729   33.3551 C   0  0  0  0  0  0  0  0  0  0  0  0
   42.6566   31.6679   33.0446 C   0  0  0  0  0  0  0  0  0  0  0  0
   40.3420   30.1812   33.8271 C   0  0  0  0  0  0  0  0  0  0  0  0
   41.5041   32.2935   33.5146 C   0  0  0  0  0  0  0  0  0  0  0  0
   43.8693   32.4954   32.6315 C   0  0  0  0  0  0  0  0  0  0  0  0
   40.3626   31.5715   33.8982 C   0  0  0  0  0  0  0  0  0  0  0  0
   43.7826   29.4792   32.4800 C   0  0  0  0  0  0  0  0  0  0  0  0
   44.3113   29.6938   31.2235 C   0  0  0  0  0  0  0  0  0  0  0  0
   44.3518   28.5570   33.2992 N   0  0  0  0  0  0  0  0  0  0  0  0
   45.3987   27.8412   32.8624 C   0  0  0  0  0  0  0  0  0  0  0  0
   45.3969   28.9615   30.7683 C   0  0  0  0  0  0  0  0  0  0  0  0
   45.9764   28.0147   31.6014 C   0  0  0  0  0  0  0  0  0  0  0  0
   47.1203   27.2177   31.1072 C   0  0  0  0  0  0  0  0  0  0  0  0
   46.9147   25.8707   31.1658 N   0  0  0  0  0  0  0  0  0  0  0  0
   48.1280   27.7094   30.6045 O   0  0  0  0  0  0  0  0  0  0  0  0
   46.0592   25.5630   31.5436 H   0  0  0  0  0  0  0  0  0  0  0  0
   47.8513   24.8460   30.7178 C   0  0  0  0  0  0  0  0  0  0  0  0
   47.1186   23.5208   30.7955 C   0  0  0  0  0  0  0  0  0  0  0  0
   45.8027   23.6352   31.4585 C   0  0  0  0  0  0  0  0  0  0  0  0
   46.9261   22.9400   32.1402 C   0  0  0  0  0  0  0  0  0  0  0  0
   39.2088   29.2712   34.2085 C   0  0  0  0  0  0  0  0  0  0  0  0
   39.2155   28.6486   35.4348 N   0  0  0  0  0  0  0  0  0  0  0  0
   38.2825   29.0820   33.4020 O   0  0  0  0  0  0  0  0  0  0  0  0
   40.0056   28.7685   36.0098 H   0  0  0  0  0  0  0  0  0  0  0  0
   38.1432   27.8363   35.9264 C   0  0  0  0  0  0  0  0  0  0  0  0
   38.7280   26.5312   36.3369 C   0  0  0  0  0  0  0  0  0  0  0  0
   38.4174   27.5840   37.3645 C   0  0  0  0  0  0  0  0  0  0  0  0
  3  1  2  0  0  0
  8  1  1  0  0  0
  1  2  1  0  0  0
 10  8  2  0  0  0
  8  9  1  0  0  0
  2  4  2  0  0  0
  6  3  1  0  0  0
  3  5  1  0  0  0
 12  9  2  0  0  0
 11 10  1  0  0  0
  7  4  1  0  0  0
  4 22  1  0  0  0
  5  7  2  0  0  0
 11 13  2  0  0  0
 13 12  1  0  0  0
 22 23  1  0  0  0
 22 24  2  0  0  0
 14 13  1  0  0  0
 23 26  1  0  0  0
 15 14  1  0  0  0
 14 16  2  0  0  0
 26 28  1  0  0  0
 26 27  1  0  0  0
 18 15  1  0  0  0
 28 27  1  0  0  0
 18 19  1  0  0  0
 19 21  1  0  0  0
 19 20  1  0  0  0
 21 20  1  0  0  0
 23 25  1  0  0  0
 15 17  1  0  0  0
M  END
> <minimizedAffinity>
-8.00310

$$$$
3IPH_G11_A_361


 28 31  0  0  0  0  0  0  0  0999 V2000
   46.3794   32.3663   32.2971 C   0  0  0  0  0  0  0  0  0  0  0  0
   47.1343   31.2079   32.1403 C   0  0  0  0  0  0  0  0  0  0  0  0
   46.9976   33.5584   32.6501 C   0  0  0  0  0  0  0  0  0  0  0  0
   48.5163   31.1543   32.3433 C   0  0  0  0  0  0  0  0  0  0  0  0
   48.3751   33.5267   32.8551 C   0  0  0  0  0  0  0  0  0  0  0  0
   46.2211   34.8588   32.8287 C   0  0  0  0  0  0  0  0  0  0  0  0
   49.1277   32.3503   32.7095 C   0  0  0  0  0  0  0  0  0  0  0  0
   44.9282   32.2423   32.0475 C   0  0  0  0  0  0  0  0  0  0  0  0
   44.4634   31.5450   30.9511 C   0  0  0  0  0  0  0  0  0  0  0  0
   44.0424   32.7746   32.9293 N   0  0  0  0  0  0  0  0  0  0  0  0
   42.7265   32.6464   32.7034 C   0  0  0  0  0  0  0  0  0  0  0  0
   43.1046   31.4038   30.7152 C   0  0  0  0  0  0  0  0  0  0  0  0
   42.1978   31.9518   31.6116 C   0  0  0  0  0  0  0  0  0  0  0  0
   40.7484   31.8206   31.3477 C   0  0  0  0  0  0  0  0  0  0  0  0
   40.1698   30.7624   31.9845 N   0  0  0  0  0  0  0  0  0  0  0  0
   40.0977   32.6324   30.6938 O   0  0  0  0  0  0  0  0  0  0  0  0
   40.7582   30.1869   32.5247 H   0  0  0  0  0  0  0  0  0  0  0  0
   38.7554   30.4086   31.9354 C   0  0  0  0  0  0  0  0  0  0  0  0
   38.3210   30.1469   33.3644 C   0  0  0  0  0  0  0  0  0  0  0  0
   39.2254   30.7641   34.3570 C   0  0  0  0  0  0  0  0  0  0  0  0
   39.1996   29.2878   34.1845 C   0  0  0  0  0  0  0  0  0  0  0  0
   49.1812   29.8227   32.1376 C   0  0  0  0  0  0  0  0  0  0  0  0
   48.6231   28.6891   32.6807 N   0  0  0  0  0  0  0  0  0  0  0  0
   50.2387   29.7645   31.4874 O   0  0  0  0  0  0  0  0  0  0  0  0
   47.8272   28.7932   33.2507 H   0  0  0  0  0  0  0  0  0  0  0  0
   49.1290   27.3662   32.4675 C   0  0  0  0  0  0  0  0  0  0  0  0
   48.1495   26.4162   33.0606 C   0  0  0  0  0  0  0  0  0  0  0  0
   48.1615   26.6723   31.5790 C   0  0  0  0  0  0  0  0  0  0  0  0
  3  1  2  0  0  0
  8  1  1  0  0  0
  1  2  1  0  0  0
 10  8  2  0  0  0
  8  9  1  0  0  0
  2  4  2  0  0  0
  6  3  1  0  0  0
  3  5  1  0  0  0
 12  9  2  0  0  0
 11 10  1  0  0  0
  7  4  1  0  0  0
  4 22  1  0  0  0
  5  7  2  0  0  0
 11 13  2  0  0  0
 13 12  1  0  0  0
 22 23  1  0  0  0
 22 24  2  0  0  0
 14 13  1  0  0  0
 23 26  1  0  0  0
 15 14  1  0  0  0
 14 16  2  0  0  0
 26 28  1  0  0  0
 26 27  1  0  0  0
 18 15  1  0  0  0
 28 27  1  0  0  0
 18 19  1  0  0  0
 19 21  1  0  0  0
 19 20  1  0  0  0
 21 20  1  0  0  0
 23 25  1  0  0  0
 15 17  1  0  0  0
M  END
> <minimizedAffinity>
-7.99492

$$$$
