6EEO_J6V_A_302


 31 32  0  0  0  0  0  0  0  0999 V2000
   -4.5560    1.5201   13.1418 C   0  0  0  0  0  0  0  0  0  0  0  0
   -4.5777    2.4144   12.0836 C   0  0  0  0  0  0  0  0  0  0  0  0
   -4.5316    3.8071   12.3302 C   0  0  0  0  0  0  0  0  0  0  0  0
   -4.4130    4.2226   13.6656 C   0  0  0  0  0  0  0  0  0  0  0  0
   -4.4296    3.3386   14.6645 C   0  0  0  0  0  0  0  0  0  0  0  0
   -4.4599    2.0332   14.4131 C   0  0  0  0  0  0  0  0  0  0  0  0
   -4.5501    4.7277   11.2734 O   0  0  0  0  0  0  0  0  0  0  0  0
   -4.6301    4.4254   10.3901 H   0  0  0  0  0  0  0  0  0  0  0  0
   -4.4331    5.4378   14.4235 N   0  0  0  0  0  0  0  0  0  0  0  0
   -3.8414    6.7230   14.5800 C   0  0  0  0  0  0  0  0  0  0  0  0
   -2.9345    7.3862   13.6639 N   0  0  0  0  0  0  0  0  0  0  0  0
   -4.2454    7.2410   15.5647 O   0  0  0  0  0  0  0  0  0  0  0  0
   -5.1349    5.3489   15.1082 H   0  0  0  0  0  0  0  0  0  0  0  0
   -2.6043    6.9383   12.8517 H   0  0  0  0  0  0  0  0  0  0  0  0
   -3.3569    9.8033   13.6130 C   0  0  0  0  0  0  0  0  0  0  0  0
   -1.8658   11.3789   14.5550 C   0  0  0  0  0  0  0  0  0  0  0  0
   -1.3436    9.0208   14.6579 C   0  0  0  0  0  0  0  0  0  0  0  0
   -1.0138   10.3433   14.9379 C   0  0  0  0  0  0  0  0  0  0  0  0
   -2.5336    8.7488   14.0012 C   0  0  0  0  0  0  0  0  0  0  0  0
   -3.0468   11.1119   13.8968 C   0  0  0  0  0  0  0  0  0  0  0  0
    0.2930   10.6661   15.6701 C   0  0  0  0  0  0  0  0  0  0  0  0
   -1.5505   12.6775   14.8221 F   0  0  0  0  0  0  0  0  0  0  0  0
   -4.4702    1.1189   15.9452 S   0  0  0  0  0  0  0  0  0  0  0  0
   -4.5862   -0.3295   15.8088 O   0  0  0  0  0  0  0  0  0  0  0  0
   -3.2158    1.3310   16.6584 O   0  0  0  0  0  0  0  0  0  0  0  0
   -5.8150    1.7060   16.7796 N   0  0  0  0  0  0  0  0  0  0  0  0
   -5.7389    2.7184   16.8777 H   0  0  0  0  0  0  0  0  0  0  0  0
   -5.8555    1.2769   17.7041 H   0  0  0  0  0  0  0  0  0  0  0  0
   -4.6952    1.7842   10.7765 N   0  0  0  0  0  0  0  0  0  0  0  0
   -5.6359    2.0099   10.0990 O   0  0  0  0  0  0  0  0  0  0  0  0
   -3.6500    1.0079   10.2636 O   0  0  0  0  0  0  0  0  0  0  0  0
 31 29  2  0  0  0
  7  3  1  0  0  0
 29 30  2  0  0  0
 29  2  1  0  0  0
  3  2  2  0  0  0
  3  4  1  0  0  0
  2  1  1  0  0  0
  4  9  1  0  0  0
  4  5  2  0  0  0
 15 20  2  0  0  0
 15 19  1  0  0  0
  1  6  2  0  0  0
 11 19  1  0  0  0
 11 10  1  0  0  0
  9 10  1  0  0  0
 20 16  1  0  0  0
 19 17  2  0  0  0
 10 12  2  0  0  0
 16 22  1  0  0  0
 16 18  2  0  0  0
 17 18  1  0  0  0
 18 21  1  0  0  0
  5  6  1  0  0  0
  6 23  1  0  0  0
 23 26  1  0  0  0
 23 25  2  0  0  0
 23 24  2  0  0  0
  7  8  1  0  0  0
  9 13  1  0  0  0
 11 14  1  0  0  0
 26 27  1  0  0  0
 26 28  1  0  0  0
M  END
> <minimizedAffinity>
-8.84048

$$$$
6EEO_J6V_A_302


 31 32  0  0  0  0  0  0  0  0999 V2000
   -4.4724    1.3148   13.0345 C   0  0  0  0  0  0  0  0  0  0  0  0
   -4.4857    2.1669   11.9419 C   0  0  0  0  0  0  0  0  0  0  0  0
   -4.4762    3.5688   12.1349 C   0  0  0  0  0  0  0  0  0  0  0  0
   -4.4016    4.0381   13.4556 C   0  0  0  0  0  0  0  0  0  0  0  0
   -4.4253    3.1930   14.4876 C   0  0  0  0  0  0  0  0  0  0  0  0
   -4.4208    1.8787   14.2867 C   0  0  0  0  0  0  0  0  0  0  0  0
   -4.4869    4.4473   11.0428 O   0  0  0  0  0  0  0  0  0  0  0  0
   -4.5373    4.1094   10.1702 H   0  0  0  0  0  0  0  0  0  0  0  0
   -4.4679    5.2809   14.1646 N   0  0  0  0  0  0  0  0  0  0  0  0
   -3.8311    6.5360   14.3772 C   0  0  0  0  0  0  0  0  0  0  0  0
   -2.7506    7.1117   13.6008 N   0  0  0  0  0  0  0  0  0  0  0  0
   -4.3545    7.1134   15.2682 O   0  0  0  0  0  0  0  0  0  0  0  0
   -5.2741    5.2578   14.7292 H   0  0  0  0  0  0  0  0  0  0  0  0
   -2.3230    6.6151   12.8661 H   0  0  0  0  0  0  0  0  0  0  0  0
   -1.1565    8.6203   14.6993 C   0  0  0  0  0  0  0  0  0  0  0  0
   -1.4333   10.9689   14.7254 C   0  0  0  0  0  0  0  0  0  0  0  0
   -3.0718    9.5790   13.6174 C   0  0  0  0  0  0  0  0  0  0  0  0
   -2.6178   10.8371   14.0009 C   0  0  0  0  0  0  0  0  0  0  0  0
   -2.3258    8.4617   13.9588 C   0  0  0  0  0  0  0  0  0  0  0  0
   -0.6925    9.8595   15.0712 C   0  0  0  0  0  0  0  0  0  0  0  0
   -3.4227   12.0863   13.6272 C   0  0  0  0  0  0  0  0  0  0  0  0
   -0.9817   12.1964   15.1081 F   0  0  0  0  0  0  0  0  0  0  0  0
   -4.4513    1.0241   15.8527 S   0  0  0  0  0  0  0  0  0  0  0  0
   -4.4485   -0.4331   15.7706 O   0  0  0  0  0  0  0  0  0  0  0  0
   -3.2608    1.3603   16.6251 O   0  0  0  0  0  0  0  0  0  0  0  0
   -5.8837    1.5347   16.5857 N   0  0  0  0  0  0  0  0  0  0  0  0
   -5.8908    2.5529   16.6456 H   0  0  0  0  0  0  0  0  0  0  0  0
   -5.9456    1.1384   17.5236 H   0  0  0  0  0  0  0  0  0  0  0  0
   -4.5553    1.4843   10.6579 N   0  0  0  0  0  0  0  0  0  0  0  0
   -3.6857    0.7537   10.3341 O   0  0  0  0  0  0  0  0  0  0  0  0
   -5.6967    1.5914    9.8553 O   0  0  0  0  0  0  0  0  0  0  0  0
 31 29  2  0  0  0
  7  3  1  0  0  0
 29 30  2  0  0  0
 29  2  1  0  0  0
  3  2  2  0  0  0
  3  4  1  0  0  0
  2  1  1  0  0  0
  4  9  1  0  0  0
  4  5  2  0  0  0
 15 20  2  0  0  0
 15 19  1  0  0  0
  1  6  2  0  0  0
 11 19  1  0  0  0
 11 10  1  0  0  0
  9 10  1  0  0  0
 20 16  1  0  0  0
 19 17  2  0  0  0
 10 12  2  0  0  0
 16 22  1  0  0  0
 16 18  2  0  0  0
 17 18  1  0  0  0
 18 21  1  0  0  0
  5  6  1  0  0  0
  6 23  1  0  0  0
 23 26  1  0  0  0
 23 25  2  0  0  0
 23 24  2  0  0  0
  7  8  1  0  0  0
  9 13  1  0  0  0
 11 14  1  0  0  0
 26 27  1  0  0  0
 26 28  1  0  0  0
M  END
> <minimizedAffinity>
-8.73297

$$$$
6EEO_J6V_A_302


 31 32  0  0  0  0  0  0  0  0999 V2000
   -4.3344    0.7756   13.1735 C   0  0  0  0  0  0  0  0  0  0  0  0
   -4.3709    1.3477   11.9120 C   0  0  0  0  0  0  0  0  0  0  0  0
   -4.5439    2.7451   11.7710 C   0  0  0  0  0  0  0  0  0  0  0  0
   -4.6220    3.5077   12.9468 C   0  0  0  0  0  0  0  0  0  0  0  0
   -4.6186    2.9237   14.1463 C   0  0  0  0  0  0  0  0  0  0  0  0
   -4.4416    1.6108   14.2596 C   0  0  0  0  0  0  0  0  0  0  0  0
   -4.5810    3.3431   10.5039 O   0  0  0  0  0  0  0  0  0  0  0  0
   -4.5272    2.8123    9.7336 H   0  0  0  0  0  0  0  0  0  0  0  0
   -4.8882    4.8587   13.3411 N   0  0  0  0  0  0  0  0  0  0  0  0
   -4.7271    6.2284   12.9885 C   0  0  0  0  0  0  0  0  0  0  0  0
   -4.2799    6.7573   11.7150 N   0  0  0  0  0  0  0  0  0  0  0  0
   -5.0786    6.9232   13.8800 O   0  0  0  0  0  0  0  0  0  0  0  0
   -5.3766    4.8277   14.1954 H   0  0  0  0  0  0  0  0  0  0  0  0
   -3.9860    6.1646   10.9859 H   0  0  0  0  0  0  0  0  0  0  0  0
   -3.1727    8.9302   11.9912 C   0  0  0  0  0  0  0  0  0  0  0  0
   -4.1896   10.9695   11.3586 C   0  0  0  0  0  0  0  0  0  0  0  0
   -5.3778    8.8875   11.0460 C   0  0  0  0  0  0  0  0  0  0  0  0
   -5.3240   10.2740   10.9409 C   0  0  0  0  0  0  0  0  0  0  0  0
   -4.2854    8.2093   11.5637 C   0  0  0  0  0  0  0  0  0  0  0  0
   -3.1043   10.2984   11.8791 C   0  0  0  0  0  0  0  0  0  0  0  0
   -6.5172   11.0432   10.3641 C   0  0  0  0  0  0  0  0  0  0  0  0
   -4.1283   12.3275   11.2624 F   0  0  0  0  0  0  0  0  0  0  0  0
   -4.4825    1.1380   15.9796 S   0  0  0  0  0  0  0  0  0  0  0  0
   -4.7303   -0.2777   16.2337 O   0  0  0  0  0  0  0  0  0  0  0  0
   -3.1918    1.4121   16.6007 O   0  0  0  0  0  0  0  0  0  0  0  0
   -5.7424    2.0477   16.6389 N   0  0  0  0  0  0  0  0  0  0  0  0
   -5.5742    3.0384   16.4640 H   0  0  0  0  0  0  0  0  0  0  0  0
   -5.7905    1.8833   17.6444 H   0  0  0  0  0  0  0  0  0  0  0  0
   -4.2649    0.3883   10.8221 N   0  0  0  0  0  0  0  0  0  0  0  0
   -3.5831   -0.5680   10.9467 O   0  0  0  0  0  0  0  0  0  0  0  0
   -5.0539    0.5243    9.6744 O   0  0  0  0  0  0  0  0  0  0  0  0
 31 29  2  0  0  0
  7  3  1  0  0  0
 29 30  2  0  0  0
 29  2  1  0  0  0
  3  2  2  0  0  0
  3  4  1  0  0  0
  2  1  1  0  0  0
  4  9  1  0  0  0
  4  5  2  0  0  0
 15 20  2  0  0  0
 15 19  1  0  0  0
  1  6  2  0  0  0
 11 19  1  0  0  0
 11 10  1  0  0  0
  9 10  1  0  0  0
 20 16  1  0  0  0
 19 17  2  0  0  0
 10 12  2  0  0  0
 16 22  1  0  0  0
 16 18  2  0  0  0
 17 18  1  0  0  0
 18 21  1  0  0  0
  5  6  1  0  0  0
  6 23  1  0  0  0
 23 26  1  0  0  0
 23 25  2  0  0  0
 23 24  2  0  0  0
  7  8  1  0  0  0
  9 13  1  0  0  0
 11 14  1  0  0  0
 26 27  1  0  0  0
 26 28  1  0  0  0
M  END
> <minimizedAffinity>
-8.29112

$$$$
6EEO_J6V_A_302


 31 32  0  0  0  0  0  0  0  0999 V2000
   -4.2190    1.5344   14.0099 C   0  0  0  0  0  0  0  0  0  0  0  0
   -4.8603    1.6658   15.2311 C   0  0  0  0  0  0  0  0  0  0  0  0
   -5.5669    2.8530   15.5378 C   0  0  0  0  0  0  0  0  0  0  0  0
   -5.6262    3.8435   14.5451 C   0  0  0  0  0  0  0  0  0  0  0  0
   -4.9692    3.7019   13.3927 C   0  0  0  0  0  0  0  0  0  0  0  0
   -4.3217    2.5738   13.1167 C   0  0  0  0  0  0  0  0  0  0  0  0
   -6.2242    3.0042   16.7665 O   0  0  0  0  0  0  0  0  0  0  0  0
   -6.1695    2.3284   17.4133 H   0  0  0  0  0  0  0  0  0  0  0  0
   -6.0892    5.1901   14.3906 N   0  0  0  0  0  0  0  0  0  0  0  0
   -5.7343    6.5029   13.9701 C   0  0  0  0  0  0  0  0  0  0  0  0
   -4.5489    6.8953   13.2337 N   0  0  0  0  0  0  0  0  0  0  0  0
   -6.5936    7.2673   14.2504 O   0  0  0  0  0  0  0  0  0  0  0  0
   -7.0244    5.2193   14.6969 H   0  0  0  0  0  0  0  0  0  0  0  0
   -3.8414    6.2472   13.0134 H   0  0  0  0  0  0  0  0  0  0  0  0
   -4.7335    8.6346   11.5119 C   0  0  0  0  0  0  0  0  0  0  0  0
   -4.2748   10.9136   11.9466 C   0  0  0  0  0  0  0  0  0  0  0  0
   -4.0533    9.2848   13.7192 C   0  0  0  0  0  0  0  0  0  0  0  0
   -3.9692   10.5993   13.2706 C   0  0  0  0  0  0  0  0  0  0  0  0
   -4.4527    8.2961   12.8337 C   0  0  0  0  0  0  0  0  0  0  0  0
   -4.6665    9.9317   11.0624 C   0  0  0  0  0  0  0  0  0  0  0  0
   -3.5376   11.7094   14.2347 C   0  0  0  0  0  0  0  0  0  0  0  0
   -4.1928   12.1974   11.4968 F   0  0  0  0  0  0  0  0  0  0  0  0
   -3.5534    2.6911   11.5106 S   0  0  0  0  0  0  0  0  0  0  0  0
   -2.1757    3.1727   11.5096 O   0  0  0  0  0  0  0  0  0  0  0  0
   -3.4919    1.3718   10.8921 O   0  0  0  0  0  0  0  0  0  0  0  0
   -4.5210    3.7795   10.6569 N   0  0  0  0  0  0  0  0  0  0  0  0
   -5.4855    3.4475   10.6545 H   0  0  0  0  0  0  0  0  0  0  0  0
   -4.1844    3.8531    9.6969 H   0  0  0  0  0  0  0  0  0  0  0  0
   -4.6864    0.5248   16.1184 N   0  0  0  0  0  0  0  0  0  0  0  0
   -4.2720   -0.4944   15.6890 O   0  0  0  0  0  0  0  0  0  0  0  0
   -4.8917    0.6564   17.4964 O   0  0  0  0  0  0  0  0  0  0  0  0
 31 29  2  0  0  0
  7  3  1  0  0  0
 29 30  2  0  0  0
 29  2  1  0  0  0
  3  2  2  0  0  0
  3  4  1  0  0  0
  2  1  1  0  0  0
  4  9  1  0  0  0
  4  5  2  0  0  0
 15 20  2  0  0  0
 15 19  1  0  0  0
  1  6  2  0  0  0
 11 19  1  0  0  0
 11 10  1  0  0  0
  9 10  1  0  0  0
 20 16  1  0  0  0
 19 17  2  0  0  0
 10 12  2  0  0  0
 16 22  1  0  0  0
 16 18  2  0  0  0
 17 18  1  0  0  0
 18 21  1  0  0  0
  5  6  1  0  0  0
  6 23  1  0  0  0
 23 26  1  0  0  0
 23 25  2  0  0  0
 23 24  2  0  0  0
  7  8  1  0  0  0
  9 13  1  0  0  0
 11 14  1  0  0  0
 26 27  1  0  0  0
 26 28  1  0  0  0
M  END
> <minimizedAffinity>
-8.24668

$$$$
6EEO_J6V_A_302


 31 32  0  0  0  0  0  0  0  0999 V2000
   -5.6983    3.4034   15.9069 C   0  0  0  0  0  0  0  0  0  0  0  0
   -5.3675    2.0610   15.9986 C   0  0  0  0  0  0  0  0  0  0  0  0
   -4.7392    1.4088   14.9112 C   0  0  0  0  0  0  0  0  0  0  0  0
   -4.4296    2.1858   13.7840 C   0  0  0  0  0  0  0  0  0  0  0  0
   -4.7923    3.4676   13.7122 C   0  0  0  0  0  0  0  0  0  0  0  0
   -5.3698    4.0670   14.7491 C   0  0  0  0  0  0  0  0  0  0  0  0
   -4.3945    0.0522   14.9853 O   0  0  0  0  0  0  0  0  0  0  0  0
   -4.6122   -0.4454   15.7488 H   0  0  0  0  0  0  0  0  0  0  0  0
   -3.9247    2.0070   12.4556 N   0  0  0  0  0  0  0  0  0  0  0  0
   -3.4095    2.6701   11.3062 C   0  0  0  0  0  0  0  0  0  0  0  0
   -2.9896    4.0542   11.2093 N   0  0  0  0  0  0  0  0  0  0  0  0
   -3.2986    1.9053   10.4095 O   0  0  0  0  0  0  0  0  0  0  0  0
   -3.9400    1.0423   12.2597 H   0  0  0  0  0  0  0  0  0  0  0  0
   -3.0941    4.6781   11.9637 H   0  0  0  0  0  0  0  0  0  0  0  0
   -1.0245    4.6534    9.8665 C   0  0  0  0  0  0  0  0  0  0  0  0
   -1.1810    5.3155    7.6015 C   0  0  0  0  0  0  0  0  0  0  0  0
   -3.1861    4.7536    8.8295 C   0  0  0  0  0  0  0  0  0  0  0  0
   -2.5670    5.1690    7.6547 C   0  0  0  0  0  0  0  0  0  0  0  0
   -2.4048    4.4803    9.9414 C   0  0  0  0  0  0  0  0  0  0  0  0
   -0.4021    5.0502    8.7071 C   0  0  0  0  0  0  0  0  0  0  0  0
   -3.4107    5.4688    6.4112 C   0  0  0  0  0  0  0  0  0  0  0  0
   -0.5654    5.7245    6.4565 F   0  0  0  0  0  0  0  0  0  0  0  0
   -5.7278    5.7679   14.3462 S   0  0  0  0  0  0  0  0  0  0  0  0
   -6.9946    5.9945   13.6577 O   0  0  0  0  0  0  0  0  0  0  0  0
   -5.8161    6.5596   15.5679 O   0  0  0  0  0  0  0  0  0  0  0  0
   -4.4580    6.2408   13.3395 N   0  0  0  0  0  0  0  0  0  0  0  0
   -3.5699    6.0844   13.8162 H   0  0  0  0  0  0  0  0  0  0  0  0
   -4.5533    7.2311   13.1144 H   0  0  0  0  0  0  0  0  0  0  0  0
   -5.7651    1.4362   17.2521 N   0  0  0  0  0  0  0  0  0  0  0  0
   -6.7711    1.7632   17.7772 O   0  0  0  0  0  0  0  0  0  0  0  0
   -5.0300    0.3691   17.7805 O   0  0  0  0  0  0  0  0  0  0  0  0
 31 29  2  0  0  0
  7  3  1  0  0  0
 29 30  2  0  0  0
 29  2  1  0  0  0
  3  2  2  0  0  0
  3  4  1  0  0  0
  2  1  1  0  0  0
  4  9  1  0  0  0
  4  5  2  0  0  0
 15 20  2  0  0  0
 15 19  1  0  0  0
  1  6  2  0  0  0
 11 19  1  0  0  0
 11 10  1  0  0  0
  9 10  1  0  0  0
 20 16  1  0  0  0
 19 17  2  0  0  0
 10 12  2  0  0  0
 16 22  1  0  0  0
 16 18  2  0  0  0
 17 18  1  0  0  0
 18 21  1  0  0  0
  5  6  1  0  0  0
  6 23  1  0  0  0
 23 26  1  0  0  0
 23 25  2  0  0  0
 23 24  2  0  0  0
  7  8  1  0  0  0
  9 13  1  0  0  0
 11 14  1  0  0  0
 26 27  1  0  0  0
 26 28  1  0  0  0
M  END
> <minimizedAffinity>
-7.90991

$$$$
6EEO_J6V_A_302


 31 32  0  0  0  0  0  0  0  0999 V2000
   -4.4352    1.3618   13.6670 C   0  0  0  0  0  0  0  0  0  0  0  0
   -4.5844    1.4309   15.0428 C   0  0  0  0  0  0  0  0  0  0  0  0
   -4.8606    2.6713   15.6654 C   0  0  0  0  0  0  0  0  0  0  0  0
   -5.0230    3.7895   14.8328 C   0  0  0  0  0  0  0  0  0  0  0  0
   -4.8389    3.6974   13.5147 C   0  0  0  0  0  0  0  0  0  0  0  0
   -4.5931    2.5210   12.9459 C   0  0  0  0  0  0  0  0  0  0  0  0
   -5.0175    2.7615   17.0553 O   0  0  0  0  0  0  0  0  0  0  0  0
   -4.9038    2.0005   17.5900 H   0  0  0  0  0  0  0  0  0  0  0  0
   -5.1946    5.2066   14.9503 N   0  0  0  0  0  0  0  0  0  0  0  0
   -4.5287    6.4647   14.9482 C   0  0  0  0  0  0  0  0  0  0  0  0
   -3.1589    6.7290   14.5542 N   0  0  0  0  0  0  0  0  0  0  0  0
   -5.2798    7.3244   15.2613 O   0  0  0  0  0  0  0  0  0  0  0  0
   -6.1542    5.3791   15.0867 H   0  0  0  0  0  0  0  0  0  0  0  0
   -2.5461    6.0011   14.3016 H   0  0  0  0  0  0  0  0  0  0  0  0
   -1.6743    8.5023   15.3760 C   0  0  0  0  0  0  0  0  0  0  0  0
   -1.8460   10.7471   14.6517 C   0  0  0  0  0  0  0  0  0  0  0  0
   -3.3678    9.0840   13.7785 C   0  0  0  0  0  0  0  0  0  0  0  0
   -2.9179   10.3997   13.8297 C   0  0  0  0  0  0  0  0  0  0  0  0
   -2.7300    8.1245   14.5492 C   0  0  0  0  0  0  0  0  0  0  0  0
   -1.2138    9.7965   15.4235 C   0  0  0  0  0  0  0  0  0  0  0  0
   -3.6031   11.4750   12.9799 C   0  0  0  0  0  0  0  0  0  0  0  0
   -1.3998   12.0335   14.7110 F   0  0  0  0  0  0  0  0  0  0  0  0
   -4.4002    2.7259   11.1840 S   0  0  0  0  0  0  0  0  0  0  0  0
   -4.2537    4.1042   10.7266 O   0  0  0  0  0  0  0  0  0  0  0  0
   -3.1889    2.0491   10.7350 O   0  0  0  0  0  0  0  0  0  0  0  0
   -5.8093    2.0706   10.5248 N   0  0  0  0  0  0  0  0  0  0  0  0
   -5.9166    1.1070   10.8414 H   0  0  0  0  0  0  0  0  0  0  0  0
   -5.7491    2.0893    9.5068 H   0  0  0  0  0  0  0  0  0  0  0  0
   -4.3862    0.1605   15.7257 N   0  0  0  0  0  0  0  0  0  0  0  0
   -3.4478   -0.5067   15.4628 O   0  0  0  0  0  0  0  0  0  0  0  0
   -5.2296   -0.2235   16.7743 O   0  0  0  0  0  0  0  0  0  0  0  0
 31 29  2  0  0  0
  7  3  1  0  0  0
 29 30  2  0  0  0
 29  2  1  0  0  0
  3  2  2  0  0  0
  3  4  1  0  0  0
  2  1  1  0  0  0
  4  9  1  0  0  0
  4  5  2  0  0  0
 15 20  2  0  0  0
 15 19  1  0  0  0
  1  6  2  0  0  0
 11 19  1  0  0  0
 11 10  1  0  0  0
  9 10  1  0  0  0
 20 16  1  0  0  0
 19 17  2  0  0  0
 10 12  2  0  0  0
 16 22  1  0  0  0
 16 18  2  0  0  0
 17 18  1  0  0  0
 18 21  1  0  0  0
  5  6  1  0  0  0
  6 23  1  0  0  0
 23 26  1  0  0  0
 23 25  2  0  0  0
 23 24  2  0  0  0
  7  8  1  0  0  0
  9 13  1  0  0  0
 11 14  1  0  0  0
 26 27  1  0  0  0
 26 28  1  0  0  0
M  END
> <minimizedAffinity>
-7.65680

$$$$
6EEO_J6V_A_302


 31 32  0  0  0  0  0  0  0  0999 V2000
   -5.5761    3.4687   15.9271 C   0  0  0  0  0  0  0  0  0  0  0  0
   -5.2872    2.1146   15.9828 C   0  0  0  0  0  0  0  0  0  0  0  0
   -4.6893    1.4702   14.8738 C   0  0  0  0  0  0  0  0  0  0  0  0
   -4.3650    2.2648   13.7632 C   0  0  0  0  0  0  0  0  0  0  0  0
   -4.6875    3.5588   13.7263 C   0  0  0  0  0  0  0  0  0  0  0  0
   -5.2367    4.1502   14.7829 C   0  0  0  0  0  0  0  0  0  0  0  0
   -4.3870    0.1021   14.9115 O   0  0  0  0  0  0  0  0  0  0  0  0
   -4.6138   -0.4073   15.6645 H   0  0  0  0  0  0  0  0  0  0  0  0
   -3.8774    2.1032   12.4261 N   0  0  0  0  0  0  0  0  0  0  0  0
   -3.3183    2.7728   11.3013 C   0  0  0  0  0  0  0  0  0  0  0  0
   -2.7995    4.1257   11.2572 N   0  0  0  0  0  0  0  0  0  0  0  0
   -3.2652    2.0385   10.3744 O   0  0  0  0  0  0  0  0  0  0  0  0
   -3.9631    1.1508   12.1921 H   0  0  0  0  0  0  0  0  0  0  0  0
   -2.8567    4.7248   12.0363 H   0  0  0  0  0  0  0  0  0  0  0  0
   -3.0151    4.8343    8.9173 C   0  0  0  0  0  0  0  0  0  0  0  0
   -1.1463    5.3574    7.5656 C   0  0  0  0  0  0  0  0  0  0  0  0
   -0.8140    4.6634    9.8573 C   0  0  0  0  0  0  0  0  0  0  0  0
   -0.2947    5.0690    8.6318 C   0  0  0  0  0  0  0  0  0  0  0  0
   -2.1883    4.5587   10.0041 C   0  0  0  0  0  0  0  0  0  0  0  0
   -2.5128    5.2486    7.7068 C   0  0  0  0  0  0  0  0  0  0  0  0
    1.2212    5.1993    8.4499 C   0  0  0  0  0  0  0  0  0  0  0  0
   -0.6474    5.7527    6.3605 F   0  0  0  0  0  0  0  0  0  0  0  0
   -5.5443    5.8709   14.4252 S   0  0  0  0  0  0  0  0  0  0  0  0
   -6.6971    6.1360   13.5703 O   0  0  0  0  0  0  0  0  0  0  0  0
   -5.8179    6.5939   15.6619 O   0  0  0  0  0  0  0  0  0  0  0  0
   -4.1433    6.3980   13.6448 N   0  0  0  0  0  0  0  0  0  0  0  0
   -3.3342    6.2150   14.2383 H   0  0  0  0  0  0  0  0  0  0  0  0
   -4.2118    7.3993   13.4627 H   0  0  0  0  0  0  0  0  0  0  0  0
   -5.6935    1.4718   17.2242 N   0  0  0  0  0  0  0  0  0  0  0  0
   -6.7575    1.7012   17.6827 O   0  0  0  0  0  0  0  0  0  0  0  0
   -4.8863    0.4948   17.8176 O   0  0  0  0  0  0  0  0  0  0  0  0
 31 29  2  0  0  0
  7  3  1  0  0  0
 29 30  2  0  0  0
 29  2  1  0  0  0
  3  2  2  0  0  0
  3  4  1  0  0  0
  2  1  1  0  0  0
  4  9  1  0  0  0
  4  5  2  0  0  0
 15 20  2  0  0  0
 15 19  1  0  0  0
  1  6  2  0  0  0
 11 19  1  0  0  0
 11 10  1  0  0  0
  9 10  1  0  0  0
 20 16  1  0  0  0
 19 17  2  0  0  0
 10 12  2  0  0  0
 16 22  1  0  0  0
 16 18  2  0  0  0
 17 18  1  0  0  0
 18 21  1  0  0  0
  5  6  1  0  0  0
  6 23  1  0  0  0
 23 26  1  0  0  0
 23 25  2  0  0  0
 23 24  2  0  0  0
  7  8  1  0  0  0
  9 13  1  0  0  0
 11 14  1  0  0  0
 26 27  1  0  0  0
 26 28  1  0  0  0
M  END
> <minimizedAffinity>
-7.43410

$$$$
6EEO_J6V_A_302


 31 32  0  0  0  0  0  0  0  0999 V2000
   -5.0885    2.5830   13.6256 C   0  0  0  0  0  0  0  0  0  0  0  0
   -5.3827    3.4407   14.6733 C   0  0  0  0  0  0  0  0  0  0  0  0
   -5.0944    4.8218   14.5624 C   0  0  0  0  0  0  0  0  0  0  0  0
   -4.5571    5.2735   13.3470 C   0  0  0  0  0  0  0  0  0  0  0  0
   -4.2528    4.4177   12.3699 C   0  0  0  0  0  0  0  0  0  0  0  0
   -4.5432    3.1255   12.4867 C   0  0  0  0  0  0  0  0  0  0  0  0
   -5.3867    5.7059   15.6100 O   0  0  0  0  0  0  0  0  0  0  0  0
   -5.7450    5.3799   16.4120 H   0  0  0  0  0  0  0  0  0  0  0  0
   -4.0178    6.4760   12.7862 N   0  0  0  0  0  0  0  0  0  0  0  0
   -3.5114    7.7735   13.0801 C   0  0  0  0  0  0  0  0  0  0  0  0
   -3.1551    8.2991   14.3833 N   0  0  0  0  0  0  0  0  0  0  0  0
   -3.3467    8.3836   12.0792 O   0  0  0  0  0  0  0  0  0  0  0  0
   -3.9838    6.3586   11.8093 H   0  0  0  0  0  0  0  0  0  0  0  0
   -3.3038    7.7797   15.2063 H   0  0  0  0  0  0  0  0  0  0  0  0
   -3.3624   10.7260   14.0814 C   0  0  0  0  0  0  0  0  0  0  0  0
   -1.5540   12.2124   14.4184 C   0  0  0  0  0  0  0  0  0  0  0  0
   -1.2324    9.8379   14.7390 C   0  0  0  0  0  0  0  0  0  0  0  0
   -0.7291   11.1351   14.7416 C   0  0  0  0  0  0  0  0  0  0  0  0
   -2.5656    9.6342   14.4189 C   0  0  0  0  0  0  0  0  0  0  0  0
   -2.8784   12.0123   14.0941 C   0  0  0  0  0  0  0  0  0  0  0  0
    0.7397   11.3840   15.1003 C   0  0  0  0  0  0  0  0  0  0  0  0
   -1.0699   13.4863   14.4153 F   0  0  0  0  0  0  0  0  0  0  0  0
   -4.0194    2.2498   11.0230 S   0  0  0  0  0  0  0  0  0  0  0  0
   -3.0552    2.9542   10.1838 O   0  0  0  0  0  0  0  0  0  0  0  0
   -3.3548    1.0072   11.3990 O   0  0  0  0  0  0  0  0  0  0  0  0
   -5.4405    2.0029   10.1460 N   0  0  0  0  0  0  0  0  0  0  0  0
   -6.1181    1.5107   10.7282 H   0  0  0  0  0  0  0  0  0  0  0  0
   -5.2358    1.4451    9.3170 H   0  0  0  0  0  0  0  0  0  0  0  0
   -5.9432    2.7788   15.8426 N   0  0  0  0  0  0  0  0  0  0  0  0
   -5.6275    1.6693   16.0961 O   0  0  0  0  0  0  0  0  0  0  0  0
   -6.7594    3.4816   16.7359 O   0  0  0  0  0  0  0  0  0  0  0  0
 31 29  2  0  0  0
  7  3  1  0  0  0
 29 30  2  0  0  0
 29  2  1  0  0  0
  3  2  2  0  0  0
  3  4  1  0  0  0
  2  1  1  0  0  0
  4  9  1  0  0  0
  4  5  2  0  0  0
 15 20  2  0  0  0
 15 19  1  0  0  0
  1  6  2  0  0  0
 11 19  1  0  0  0
 11 10  1  0  0  0
  9 10  1  0  0  0
 20 16  1  0  0  0
 19 17  2  0  0  0
 10 12  2  0  0  0
 16 22  1  0  0  0
 16 18  2  0  0  0
 17 18  1  0  0  0
 18 21  1  0  0  0
  5  6  1  0  0  0
  6 23  1  0  0  0
 23 26  1  0  0  0
 23 25  2  0  0  0
 23 24  2  0  0  0
  7  8  1  0  0  0
  9 13  1  0  0  0
 11 14  1  0  0  0
 26 27  1  0  0  0
 26 28  1  0  0  0
M  END
> <minimizedAffinity>
-7.16182

$$$$
6EEO_J6V_A_302


 31 32  0  0  0  0  0  0  0  0999 V2000
   -3.1941    3.1268   12.9814 C   0  0  0  0  0  0  0  0  0  0  0  0
   -3.9685    2.4381   12.0616 C   0  0  0  0  0  0  0  0  0  0  0  0
   -4.3727    3.0683   10.8607 C   0  0  0  0  0  0  0  0  0  0  0  0
   -3.9163    4.3758   10.6326 C   0  0  0  0  0  0  0  0  0  0  0  0
   -3.2009    5.0245   11.5531 C   0  0  0  0  0  0  0  0  0  0  0  0
   -2.8191    4.4117   12.6696 C   0  0  0  0  0  0  0  0  0  0  0  0
   -5.1540    2.3878    9.9167 O   0  0  0  0  0  0  0  0  0  0  0  0
   -5.4466    1.5152   10.0923 H   0  0  0  0  0  0  0  0  0  0  0  0
   -4.1090    5.4371    9.6902 N   0  0  0  0  0  0  0  0  0  0  0  0
   -4.9296    6.5446    9.3347 C   0  0  0  0  0  0  0  0  0  0  0  0
   -5.9670    7.1589   10.1397 N   0  0  0  0  0  0  0  0  0  0  0  0
   -4.6080    6.9677    8.2771 O   0  0  0  0  0  0  0  0  0  0  0  0
   -3.3872    5.3765    9.0234 H   0  0  0  0  0  0  0  0  0  0  0  0
   -6.2254    6.7904   11.0153 H   0  0  0  0  0  0  0  0  0  0  0  0
   -7.6755    8.1865    8.7084 C   0  0  0  0  0  0  0  0  0  0  0  0
   -7.8929   10.5286    8.4622 C   0  0  0  0  0  0  0  0  0  0  0  0
   -6.1673    9.6269    9.8952 C   0  0  0  0  0  0  0  0  0  0  0  0
   -6.8168   10.7194    9.3287 C   0  0  0  0  0  0  0  0  0  0  0  0
   -6.6108    8.3492    9.5920 C   0  0  0  0  0  0  0  0  0  0  0  0
   -8.3323    9.2592    8.1542 C   0  0  0  0  0  0  0  0  0  0  0  0
   -6.3483   12.1410    9.6566 C   0  0  0  0  0  0  0  0  0  0  0  0
   -8.5338   11.5919    7.9001 F   0  0  0  0  0  0  0  0  0  0  0  0
   -1.8800    5.5350   13.6891 S   0  0  0  0  0  0  0  0  0  0  0  0
   -0.7977    6.2405   13.0101 O   0  0  0  0  0  0  0  0  0  0  0  0
   -2.7511    6.5860   14.2025 O   0  0  0  0  0  0  0  0  0  0  0  0
   -1.2292    4.5606   14.9042 N   0  0  0  0  0  0  0  0  0  0  0  0
   -1.9817    4.0650   15.3822 H   0  0  0  0  0  0  0  0  0  0  0  0
   -0.7262    5.1426   15.5740 H   0  0  0  0  0  0  0  0  0  0  0  0
   -4.3301    1.0915   12.4804 N   0  0  0  0  0  0  0  0  0  0  0  0
   -4.5766    0.2708   11.6677 O   0  0  0  0  0  0  0  0  0  0  0  0
   -4.2733    0.7260   13.8300 O   0  0  0  0  0  0  0  0  0  0  0  0
 31 29  2  0  0  0
  7  3  1  0  0  0
 29 30  2  0  0  0
 29  2  1  0  0  0
  3  2  2  0  0  0
  3  4  1  0  0  0
  2  1  1  0  0  0
  4  9  1  0  0  0
  4  5  2  0  0  0
 15 20  2  0  0  0
 15 19  1  0  0  0
  1  6  2  0  0  0
 11 19  1  0  0  0
 11 10  1  0  0  0
  9 10  1  0  0  0
 20 16  1  0  0  0
 19 17  2  0  0  0
 10 12  2  0  0  0
 16 22  1  0  0  0
 16 18  2  0  0  0
 17 18  1  0  0  0
 18 21  1  0  0  0
  5  6  1  0  0  0
  6 23  1  0  0  0
 23 26  1  0  0  0
 23 25  2  0  0  0
 23 24  2  0  0  0
  7  8  1  0  0  0
  9 13  1  0  0  0
 11 14  1  0  0  0
 26 27  1  0  0  0
 26 28  1  0  0  0
M  END
> <minimizedAffinity>
-7.11020

$$$$
6EEO_J6V_A_302


 31 32  0  0  0  0  0  0  0  0999 V2000
   -3.2059    3.4781   12.8303 C   0  0  0  0  0  0  0  0  0  0  0  0
   -2.7806    4.7690   13.1000 C   0  0  0  0  0  0  0  0  0  0  0  0
   -3.0780    5.8175   12.1973 C   0  0  0  0  0  0  0  0  0  0  0  0
   -3.8510    5.4989   11.0699 C   0  0  0  0  0  0  0  0  0  0  0  0
   -4.2158    4.2402   10.8201 C   0  0  0  0  0  0  0  0  0  0  0  0
   -3.9389    3.2703   11.6865 C   0  0  0  0  0  0  0  0  0  0  0  0
   -2.6589    7.1303   12.4534 O   0  0  0  0  0  0  0  0  0  0  0  0
   -2.1434    7.3177   13.2130 H   0  0  0  0  0  0  0  0  0  0  0  0
   -4.3123    6.1232    9.8662 N   0  0  0  0  0  0  0  0  0  0  0  0
   -5.2531    7.0385    9.3154 C   0  0  0  0  0  0  0  0  0  0  0  0
   -6.1131    7.9521   10.0413 N   0  0  0  0  0  0  0  0  0  0  0  0
   -5.2048    7.0111    8.1330 O   0  0  0  0  0  0  0  0  0  0  0  0
   -3.7588    5.7850    9.1256 H   0  0  0  0  0  0  0  0  0  0  0  0
   -6.1445    7.9578   11.0253 H   0  0  0  0  0  0  0  0  0  0  0  0
   -8.1018    8.3792    8.6678 C   0  0  0  0  0  0  0  0  0  0  0  0
   -8.5483   10.4858    7.6901 C   0  0  0  0  0  0  0  0  0  0  0  0
   -6.5531   10.1780    9.0199 C   0  0  0  0  0  0  0  0  0  0  0  0
   -7.3708   10.9909    8.2411 C   0  0  0  0  0  0  0  0  0  0  0  0
   -6.9305    8.8635    9.2460 C   0  0  0  0  0  0  0  0  0  0  0  0
   -8.9231    9.1777    7.9082 C   0  0  0  0  0  0  0  0  0  0  0  0
   -6.9769   12.4495    7.9852 C   0  0  0  0  0  0  0  0  0  0  0  0
   -9.3545   11.2731    6.9236 F   0  0  0  0  0  0  0  0  0  0  0  0
   -4.5566    1.7127   11.0735 S   0  0  0  0  0  0  0  0  0  0  0  0
   -3.6957    1.0337   10.1102 O   0  0  0  0  0  0  0  0  0  0  0  0
   -4.7062    0.7695   12.1757 O   0  0  0  0  0  0  0  0  0  0  0  0
   -6.0212    2.1013   10.3296 N   0  0  0  0  0  0  0  0  0  0  0  0
   -6.6269    2.5764   10.9988 H   0  0  0  0  0  0  0  0  0  0  0  0
   -6.4756    1.2472   10.0065 H   0  0  0  0  0  0  0  0  0  0  0  0
   -2.0001    4.8934   14.3226 N   0  0  0  0  0  0  0  0  0  0  0  0
   -1.2614    5.8051   14.4567 O   0  0  0  0  0  0  0  0  0  0  0  0
   -2.2028    4.0112   15.3898 O   0  0  0  0  0  0  0  0  0  0  0  0
 31 29  2  0  0  0
  7  3  1  0  0  0
 29 30  2  0  0  0
 29  2  1  0  0  0
  3  2  2  0  0  0
  3  4  1  0  0  0
  2  1  1  0  0  0
  4  9  1  0  0  0
  4  5  2  0  0  0
 15 20  2  0  0  0
 15 19  1  0  0  0
  1  6  2  0  0  0
 11 19  1  0  0  0
 11 10  1  0  0  0
  9 10  1  0  0  0
 20 16  1  0  0  0
 19 17  2  0  0  0
 10 12  2  0  0  0
 16 22  1  0  0  0
 16 18  2  0  0  0
 17 18  1  0  0  0
 18 21  1  0  0  0
  5  6  1  0  0  0
  6 23  1  0  0  0
 23 26  1  0  0  0
 23 25  2  0  0  0
 23 24  2  0  0  0
  7  8  1  0  0  0
  9 13  1  0  0  0
 11 14  1  0  0  0
 26 27  1  0  0  0
 26 28  1  0  0  0
M  END
> <minimizedAffinity>
-7.10502

$$$$
