4CRL_C1I_A_1360


 37 43  0  0  0  0  0  0  0  0999 V2000
    2.3232   15.6211   -3.5652 C   0  0  0  0  0  0  0  0  0  0  0  0
    0.8271   15.4601   -3.7594 C   0  0  0  0  0  0  0  0  0  0  0  0
    0.4626   14.6337   -4.9854 C   0  0  0  0  0  0  0  0  0  0  0  0
    0.5070   13.1179   -4.7671 C   0  0  0  0  0  0  0  0  0  0  0  0
   -0.5804   12.6173   -5.7606 C   0  0  0  0  0  0  0  0  0  0  0  0
   -1.2779   13.8834   -6.2869 C   0  0  0  0  0  0  0  0  0  0  0  0
   -0.9255   14.8916   -5.3213 O   0  0  0  0  0  0  0  0  0  0  0  0
   -0.5959   14.3325   -7.5829 C   0  0  0  0  0  0  0  0  0  0  0  0
    0.7695   14.7993   -7.4191 C   0  0  0  0  0  0  0  0  0  0  0  0
    1.3232   14.9709   -6.1834 C   0  0  0  0  0  0  0  0  0  0  0  0
    2.7388   15.4398   -6.0359 C   0  0  0  0  0  0  0  0  0  0  0  0
    3.0931   16.2228   -7.1683 O   0  0  0  0  0  0  0  0  0  0  0  0
    2.9340   16.2922   -4.7925 C   0  0  0  0  0  0  0  0  0  0  0  0
    4.3287   16.4611   -4.5780 O   0  0  0  0  0  0  0  0  0  0  0  0
   -1.1999   14.3119   -8.7454 C   0  0  0  0  0  0  0  0  0  0  0  0
   -2.6137   13.8470   -8.9450 C   0  0  0  0  0  0  0  0  0  0  0  0
   -3.1538   13.0809   -7.7625 C   0  0  0  0  0  0  0  0  0  0  0  0
   -2.6325   11.6462   -7.7869 C   0  0  0  0  0  0  0  0  0  0  0  0
   -4.6554   13.0844   -7.5388 C   0  0  0  0  0  0  0  0  0  0  0  0
   -4.8004   12.5188   -6.1093 C   0  0  0  0  0  0  0  0  0  0  0  0
   -3.4987   12.9342   -5.3854 C   0  0  0  0  0  0  0  0  0  0  0  0
   -2.7738   13.7865   -6.4331 C   0  0  0  0  0  0  0  0  0  0  0  0
    2.5166   17.0015   -7.2161 H   0  0  0  0  0  0  0  0  0  0  0  0
    4.7433   15.5938   -4.4481 H   0  0  0  0  0  0  0  0  0  0  0  0
   -5.4480   12.3249   -8.5715 C   0  0  0  0  0  0  0  0  0  0  0  0
   -6.0506   11.1455   -8.2771 C   0  0  0  0  0  0  0  0  0  0  0  0
   -6.7938   10.4897   -9.2614 C   0  0  0  0  0  0  0  0  0  0  0  0
   -7.4336    9.2677   -9.0307 C   0  0  0  0  0  0  0  0  0  0  0  0
   -8.1209    8.6993   -9.9832 N   0  0  0  0  0  0  0  0  0  0  0  0
   -8.2441    9.2162  -11.1853 C   0  0  0  0  0  0  0  0  0  0  0  0
   -7.6649   10.3964  -11.5043 C   0  0  0  0  0  0  0  0  0  0  0  0
   -6.9148   11.0721  -10.5386 C   0  0  0  0  0  0  0  0  0  0  0  0
   -6.2904   12.2905  -10.8031 C   0  0  0  0  0  0  0  0  0  0  0  0
   -5.5782   12.8952   -9.8259 C   0  0  0  0  0  0  0  0  0  0  0  0
    1.9663   17.8121   -2.5918 C   0  0  0  0  0  0  0  0  0  0  0  0
    2.5425   16.4784   -2.3965 N   0  0  0  0  0  0  0  0  0  0  0  0
    1.9681   15.8824   -1.1889 C   0  0  0  0  0  0  0  0  0  0  0  0
 35 36  1  0  0  0
 36 37  1  0  0  0
 36  1  1  0  0  0
  1  2  1  0  0  0
  1 13  1  0  0  0
  2  3  1  0  0  0
  3  4  1  0  0  0
  3  7  1  0  0  0
  3 10  1  0  0  0
  4  5  1  0  0  0
  5  6  1  0  0  0
  6  7  1  0  0  0
  6  8  1  0  0  0
  6 22  1  0  0  0
  8  9  1  0  0  0
  8 15  2  0  0  0
  9 10  2  0  0  0
 10 11  1  0  0  0
 11 12  1  0  0  0
 11 13  1  0  0  0
 13 14  1  0  0  0
 15 16  1  0  0  0
 16 17  1  0  0  0
 17 18  1  0  0  0
 17 19  1  0  0  0
 17 22  1  0  0  0
 19 20  1  0  0  0
 19 25  1  0  0  0
 20 21  1  0  0  0
 21 22  1  0  0  0
 25 26  1  0  0  0
 25 34  2  0  0  0
 26 27  2  0  0  0
 27 28  1  0  0  0
 27 32  1  0  0  0
 28 29  2  0  0  0
 29 30  1  0  0  0
 30 31  2  0  0  0
 31 32  1  0  0  0
 32 33  2  0  0  0
 33 34  1  0  0  0
 12 23  1  0  0  0
 14 24  1  0  0  0
M  END
> <minimizedAffinity>
-11.50533

$$$$
4CRL_C1I_A_1360


 37 43  0  0  0  0  0  0  0  0999 V2000
   -6.4163   11.5011   -9.4690 C   0  0  0  0  0  0  0  0  0  0  0  0
   -5.1645   11.2368   -8.6535 C   0  0  0  0  0  0  0  0  0  0  0  0
   -4.2949   12.4724   -8.4640 C   0  0  0  0  0  0  0  0  0  0  0  0
   -4.7369   13.3924   -7.3215 C   0  0  0  0  0  0  0  0  0  0  0  0
   -3.3849   14.0124   -6.8656 C   0  0  0  0  0  0  0  0  0  0  0  0
   -2.2950   13.2441   -7.6327 C   0  0  0  0  0  0  0  0  0  0  0  0
   -2.9657   12.0463   -8.0670 O   0  0  0  0  0  0  0  0  0  0  0  0
   -1.9655   13.9949   -8.9265 C   0  0  0  0  0  0  0  0  0  0  0  0
   -3.0416   14.0241   -9.9013 C   0  0  0  0  0  0  0  0  0  0  0  0
   -4.1836   13.2972   -9.7278 C   0  0  0  0  0  0  0  0  0  0  0  0
   -5.2887   13.3522  -10.7384 C   0  0  0  0  0  0  0  0  0  0  0  0
   -4.7414   13.6581  -12.0144 O   0  0  0  0  0  0  0  0  0  0  0  0
   -6.0322   12.0309  -10.8479 C   0  0  0  0  0  0  0  0  0  0  0  0
   -7.2159   12.2428  -11.6053 O   0  0  0  0  0  0  0  0  0  0  0  0
   -0.8007   14.5539   -9.1444 C   0  0  0  0  0  0  0  0  0  0  0  0
    0.3349   14.5302   -8.1623 C   0  0  0  0  0  0  0  0  0  0  0  0
   -0.0948   14.1183   -6.7757 C   0  0  0  0  0  0  0  0  0  0  0  0
   -0.7473   15.2977   -6.0587 C   0  0  0  0  0  0  0  0  0  0  0  0
    0.9404   13.4703   -5.8737 C   0  0  0  0  0  0  0  0  0  0  0  0
    0.0914   12.8937   -4.7200 C   0  0  0  0  0  0  0  0  0  0  0  0
   -1.2810   12.5772   -5.3583 C   0  0  0  0  0  0  0  0  0  0  0  0
   -1.0605   12.9048   -6.8394 C   0  0  0  0  0  0  0  0  0  0  0  0
   -4.1220   12.9591  -12.2765 H   0  0  0  0  0  0  0  0  0  0  0  0
   -7.7747   12.8961  -11.1560 H   0  0  0  0  0  0  0  0  0  0  0  0
    2.0393   14.3925   -5.4117 C   0  0  0  0  0  0  0  0  0  0  0  0
    3.0700   14.7318   -6.2261 C   0  0  0  0  0  0  0  0  0  0  0  0
    4.0530   15.6083   -5.7606 C   0  0  0  0  0  0  0  0  0  0  0  0
    5.1471   15.9939   -6.5417 C   0  0  0  0  0  0  0  0  0  0  0  0
    6.0349   16.8206   -6.0611 N   0  0  0  0  0  0  0  0  0  0  0  0
    5.9664   17.3205   -4.8474 C   0  0  0  0  0  0  0  0  0  0  0  0
    4.9443   17.0100   -4.0173 C   0  0  0  0  0  0  0  0  0  0  0  0
    3.9487   16.1344   -4.4577 C   0  0  0  0  0  0  0  0  0  0  0  0
    2.8703   15.7718   -3.6516 C   0  0  0  0  0  0  0  0  0  0  0  0
    1.9389   14.9199   -4.1359 C   0  0  0  0  0  0  0  0  0  0  0  0
   -6.3037    9.0916   -9.2305 C   0  0  0  0  0  0  0  0  0  0  0  0
   -7.1329   10.2325   -9.6302 N   0  0  0  0  0  0  0  0  0  0  0  0
   -8.3699   10.2212   -8.8470 C   0  0  0  0  0  0  0  0  0  0  0  0
 35 36  1  0  0  0
 36 37  1  0  0  0
 36  1  1  0  0  0
  1  2  1  0  0  0
  1 13  1  0  0  0
  2  3  1  0  0  0
  3  4  1  0  0  0
  3  7  1  0  0  0
  3 10  1  0  0  0
  4  5  1  0  0  0
  5  6  1  0  0  0
  6  7  1  0  0  0
  6  8  1  0  0  0
  6 22  1  0  0  0
  8  9  1  0  0  0
  8 15  2  0  0  0
  9 10  2  0  0  0
 10 11  1  0  0  0
 11 12  1  0  0  0
 11 13  1  0  0  0
 13 14  1  0  0  0
 15 16  1  0  0  0
 16 17  1  0  0  0
 17 18  1  0  0  0
 17 19  1  0  0  0
 17 22  1  0  0  0
 19 20  1  0  0  0
 19 25  1  0  0  0
 20 21  1  0  0  0
 21 22  1  0  0  0
 25 26  1  0  0  0
 25 34  2  0  0  0
 26 27  2  0  0  0
 27 28  1  0  0  0
 27 32  1  0  0  0
 28 29  2  0  0  0
 29 30  1  0  0  0
 30 31  2  0  0  0
 31 32  1  0  0  0
 32 33  2  0  0  0
 33 34  1  0  0  0
 12 23  1  0  0  0
 14 24  1  0  0  0
M  END
> <minimizedAffinity>
-11.01422

$$$$
4CRL_C1I_A_1360


 37 43  0  0  0  0  0  0  0  0999 V2000
   -6.2693   11.7831  -12.1065 C   0  0  0  0  0  0  0  0  0  0  0  0
   -5.5202   12.8168  -11.2866 C   0  0  0  0  0  0  0  0  0  0  0  0
   -5.0089   12.2783   -9.9571 C   0  0  0  0  0  0  0  0  0  0  0  0
   -3.6818   11.5182  -10.0466 C   0  0  0  0  0  0  0  0  0  0  0  0
   -3.0569   11.7953   -8.6491 C   0  0  0  0  0  0  0  0  0  0  0  0
   -3.9691   12.8412   -7.9853 C   0  0  0  0  0  0  0  0  0  0  0  0
   -4.7037   13.4011   -9.0898 O   0  0  0  0  0  0  0  0  0  0  0  0
   -5.0263   12.1236   -7.1404 C   0  0  0  0  0  0  0  0  0  0  0  0
   -5.9850   11.3438   -7.9032 C   0  0  0  0  0  0  0  0  0  0  0  0
   -6.0231   11.3926   -9.2667 C   0  0  0  0  0  0  0  0  0  0  0  0
   -7.0105   10.5690  -10.0362 C   0  0  0  0  0  0  0  0  0  0  0  0
   -8.1573   10.3375   -9.2286 O   0  0  0  0  0  0  0  0  0  0  0  0
   -7.4631   11.2602  -11.3121 C   0  0  0  0  0  0  0  0  0  0  0  0
   -8.1679   10.3172  -12.1083 O   0  0  0  0  0  0  0  0  0  0  0  0
   -5.0728   12.2171   -5.8344 C   0  0  0  0  0  0  0  0  0  0  0  0
   -4.1044   13.0247   -5.0190 C   0  0  0  0  0  0  0  0  0  0  0  0
   -2.8746   13.4276   -5.7948 C   0  0  0  0  0  0  0  0  0  0  0  0
   -1.8987   12.2561   -5.8731 C   0  0  0  0  0  0  0  0  0  0  0  0
   -2.1423   14.6857   -5.3635 C   0  0  0  0  0  0  0  0  0  0  0  0
   -1.1880   14.9612   -6.5458 C   0  0  0  0  0  0  0  0  0  0  0  0
   -1.9138   14.3840   -7.7831 C   0  0  0  0  0  0  0  0  0  0  0  0
   -3.2606   13.9236   -7.2141 C   0  0  0  0  0  0  0  0  0  0  0  0
   -8.5733   11.1854   -9.0072 H   0  0  0  0  0  0  0  0  0  0  0  0
   -7.5809    9.5768  -12.3282 H   0  0  0  0  0  0  0  0  0  0  0  0
   -1.4411   14.5820   -4.0335 C   0  0  0  0  0  0  0  0  0  0  0  0
   -2.1340   14.4515   -2.8743 C   0  0  0  0  0  0  0  0  0  0  0  0
   -1.4390   14.3358   -1.6682 C   0  0  0  0  0  0  0  0  0  0  0  0
   -2.0879   14.2074   -0.4361 C   0  0  0  0  0  0  0  0  0  0  0  0
   -1.3913   14.0966    0.6616 N   0  0  0  0  0  0  0  0  0  0  0  0
   -0.0772   14.1085    0.6813 C   0  0  0  0  0  0  0  0  0  0  0  0
    0.6407   14.2250   -0.4594 C   0  0  0  0  0  0  0  0  0  0  0  0
   -0.0301   14.3437   -1.6792 C   0  0  0  0  0  0  0  0  0  0  0  0
    0.6496   14.4694   -2.8903 C   0  0  0  0  0  0  0  0  0  0  0  0
   -0.0570   14.5806   -4.0375 C   0  0  0  0  0  0  0  0  0  0  0  0
   -7.5138   13.6523  -13.0192 C   0  0  0  0  0  0  0  0  0  0  0  0
   -6.7583   12.4339  -13.3256 N   0  0  0  0  0  0  0  0  0  0  0  0
   -5.6526   12.7711  -14.2243 C   0  0  0  0  0  0  0  0  0  0  0  0
 35 36  1  0  0  0
 36 37  1  0  0  0
 36  1  1  0  0  0
  1  2  1  0  0  0
  1 13  1  0  0  0
  2  3  1  0  0  0
  3  4  1  0  0  0
  3  7  1  0  0  0
  3 10  1  0  0  0
  4  5  1  0  0  0
  5  6  1  0  0  0
  6  7  1  0  0  0
  6  8  1  0  0  0
  6 22  1  0  0  0
  8  9  1  0  0  0
  8 15  2  0  0  0
  9 10  2  0  0  0
 10 11  1  0  0  0
 11 12  1  0  0  0
 11 13  1  0  0  0
 13 14  1  0  0  0
 15 16  1  0  0  0
 16 17  1  0  0  0
 17 18  1  0  0  0
 17 19  1  0  0  0
 17 22  1  0  0  0
 19 20  1  0  0  0
 19 25  1  0  0  0
 20 21  1  0  0  0
 21 22  1  0  0  0
 25 26  1  0  0  0
 25 34  2  0  0  0
 26 27  2  0  0  0
 27 28  1  0  0  0
 27 32  1  0  0  0
 28 29  2  0  0  0
 29 30  1  0  0  0
 30 31  2  0  0  0
 31 32  1  0  0  0
 32 33  2  0  0  0
 33 34  1  0  0  0
 12 23  1  0  0  0
 14 24  1  0  0  0
M  END
> <minimizedAffinity>
-10.88072

$$$$
4CRL_C1I_A_1360


 37 43  0  0  0  0  0  0  0  0999 V2000
    3.4987   16.5488   -4.9941 C   0  0  0  0  0  0  0  0  0  0  0  0
    1.9957   16.3670   -4.8944 C   0  0  0  0  0  0  0  0  0  0  0  0
    1.4336   15.4046   -5.9320 C   0  0  0  0  0  0  0  0  0  0  0  0
    1.5478   13.9241   -5.5546 C   0  0  0  0  0  0  0  0  0  0  0  0
    0.3099   13.3125   -6.2712 C   0  0  0  0  0  0  0  0  0  0  0  0
   -0.4970   14.5095   -6.8027 C   0  0  0  0  0  0  0  0  0  0  0  0
    0.0027   15.6224   -6.0380 O   0  0  0  0  0  0  0  0  0  0  0  0
   -0.0688   14.8056   -8.2434 C   0  0  0  0  0  0  0  0  0  0  0  0
    1.2938   15.2878   -8.3838 C   0  0  0  0  0  0  0  0  0  0  0  0
    2.0573   15.6008   -7.2966 C   0  0  0  0  0  0  0  0  0  0  0  0
    3.4664   16.0832   -7.4623 C   0  0  0  0  0  0  0  0  0  0  0  0
    3.5948   16.7300   -8.7217 O   0  0  0  0  0  0  0  0  0  0  0  0
    3.8646   17.0734   -6.3800 C   0  0  0  0  0  0  0  0  0  0  0  0
    5.2714   17.2656   -6.4423 O   0  0  0  0  0  0  0  0  0  0  0  0
   -0.8716   14.6511   -9.2672 C   0  0  0  0  0  0  0  0  0  0  0  0
   -2.2884   14.1667   -9.1531 C   0  0  0  0  0  0  0  0  0  0  0  0
   -2.5908   13.5426   -7.8130 C   0  0  0  0  0  0  0  0  0  0  0  0
   -2.0530   12.1144   -7.7682 C   0  0  0  0  0  0  0  0  0  0  0  0
   -4.0274   13.5723   -7.3229 C   0  0  0  0  0  0  0  0  0  0  0  0
   -3.9010   13.1757   -5.8359 C   0  0  0  0  0  0  0  0  0  0  0  0
   -2.4991   13.6715   -5.4118 C   0  0  0  0  0  0  0  0  0  0  0  0
   -1.9924   14.3969   -6.6635 C   0  0  0  0  0  0  0  0  0  0  0  0
    3.0032   17.4981   -8.7525 H   0  0  0  0  0  0  0  0  0  0  0  0
    5.7204   16.4190   -6.2920 H   0  0  0  0  0  0  0  0  0  0  0  0
   -4.9772   12.6989   -8.1017 C   0  0  0  0  0  0  0  0  0  0  0  0
   -5.1840   12.8837   -9.4298 C   0  0  0  0  0  0  0  0  0  0  0  0
   -6.0566   12.0340  -10.1136 C   0  0  0  0  0  0  0  0  0  0  0  0
   -6.3236   12.1718  -11.4794 C   0  0  0  0  0  0  0  0  0  0  0  0
   -7.1430   11.3472  -12.0721 N   0  0  0  0  0  0  0  0  0  0  0  0
   -7.7587   10.3716  -11.4424 C   0  0  0  0  0  0  0  0  0  0  0  0
   -7.5629   10.1553  -10.1214 C   0  0  0  0  0  0  0  0  0  0  0  0
   -6.6962   10.9919   -9.4136 C   0  0  0  0  0  0  0  0  0  0  0  0
   -6.4524   10.8249   -8.0509 C   0  0  0  0  0  0  0  0  0  0  0  0
   -5.6025   11.6677   -7.4224 C   0  0  0  0  0  0  0  0  0  0  0  0
    2.9770   18.6672   -3.9379 C   0  0  0  0  0  0  0  0  0  0  0  0
    3.9071   17.5353   -3.9897 N   0  0  0  0  0  0  0  0  0  0  0  0
    3.9962   16.9294   -2.6598 C   0  0  0  0  0  0  0  0  0  0  0  0
 35 36  1  0  0  0
 36 37  1  0  0  0
 36  1  1  0  0  0
  1  2  1  0  0  0
  1 13  1  0  0  0
  2  3  1  0  0  0
  3  4  1  0  0  0
  3  7  1  0  0  0
  3 10  1  0  0  0
  4  5  1  0  0  0
  5  6  1  0  0  0
  6  7  1  0  0  0
  6  8  1  0  0  0
  6 22  1  0  0  0
  8  9  1  0  0  0
  8 15  2  0  0  0
  9 10  2  0  0  0
 10 11  1  0  0  0
 11 12  1  0  0  0
 11 13  1  0  0  0
 13 14  1  0  0  0
 15 16  1  0  0  0
 16 17  1  0  0  0
 17 18  1  0  0  0
 17 19  1  0  0  0
 17 22  1  0  0  0
 19 20  1  0  0  0
 19 25  1  0  0  0
 20 21  1  0  0  0
 21 22  1  0  0  0
 25 26  1  0  0  0
 25 34  2  0  0  0
 26 27  2  0  0  0
 27 28  1  0  0  0
 27 32  1  0  0  0
 28 29  2  0  0  0
 29 30  1  0  0  0
 30 31  2  0  0  0
 31 32  1  0  0  0
 32 33  2  0  0  0
 33 34  1  0  0  0
 12 23  1  0  0  0
 14 24  1  0  0  0
M  END
> <minimizedAffinity>
-10.54816

$$$$
4CRL_C1I_A_1360


 37 43  0  0  0  0  0  0  0  0999 V2000
   -6.6045   11.7552  -11.1336 C   0  0  0  0  0  0  0  0  0  0  0  0
   -5.5260   11.3967  -10.1285 C   0  0  0  0  0  0  0  0  0  0  0  0
   -4.6544   12.5800   -9.7299 C   0  0  0  0  0  0  0  0  0  0  0  0
   -5.2522   13.4708   -8.6362 C   0  0  0  0  0  0  0  0  0  0  0  0
   -3.9771   14.0052   -7.9231 C   0  0  0  0  0  0  0  0  0  0  0  0
   -2.8014   13.2188   -8.5279 C   0  0  0  0  0  0  0  0  0  0  0  0
   -3.4330   12.0741   -9.1311 O   0  0  0  0  0  0  0  0  0  0  0  0
   -2.2211   14.0072   -9.7061 C   0  0  0  0  0  0  0  0  0  0  0  0
   -3.1082   14.1293  -10.8494 C   0  0  0  0  0  0  0  0  0  0  0  0
   -4.2910   13.4513  -10.9125 C   0  0  0  0  0  0  0  0  0  0  0  0
   -5.1994   13.6022  -12.0947 C   0  0  0  0  0  0  0  0  0  0  0  0
   -4.4257   13.9353  -13.2400 O   0  0  0  0  0  0  0  0  0  0  0  0
   -5.9644   12.3240  -12.3971 C   0  0  0  0  0  0  0  0  0  0  0  0
   -6.9881   12.6244  -13.3360 O   0  0  0  0  0  0  0  0  0  0  0  0
   -1.0148   14.5184   -9.6912 C   0  0  0  0  0  0  0  0  0  0  0  0
   -0.0702   14.3985   -8.5301 C   0  0  0  0  0  0  0  0  0  0  0  0
   -0.7517   13.9492   -7.2609 C   0  0  0  0  0  0  0  0  0  0  0  0
   -1.4720   15.1271   -6.6093 C   0  0  0  0  0  0  0  0  0  0  0  0
    0.0831   13.2146   -6.2274 C   0  0  0  0  0  0  0  0  0  0  0  0
   -0.9768   12.6309   -5.2681 C   0  0  0  0  0  0  0  0  0  0  0  0
   -2.2280   12.4081   -6.1489 C   0  0  0  0  0  0  0  0  0  0  0  0
   -1.7391   12.7873   -7.5514 C   0  0  0  0  0  0  0  0  0  0  0  0
   -3.7985   13.2192  -13.4259 H   0  0  0  0  0  0  0  0  0  0  0  0
   -7.5903   13.2841  -12.9578 H   0  0  0  0  0  0  0  0  0  0  0  0
    1.1203   14.0625   -5.5368 C   0  0  0  0  0  0  0  0  0  0  0  0
    0.9442   14.5040   -4.2660 C   0  0  0  0  0  0  0  0  0  0  0  0
    1.9441   15.2682   -3.6599 C   0  0  0  0  0  0  0  0  0  0  0  0
    1.8261   15.7634   -2.3574 C   0  0  0  0  0  0  0  0  0  0  0  0
    2.7926   16.4676   -1.8354 N   0  0  0  0  0  0  0  0  0  0  0  0
    3.8995   16.7567   -2.4823 C   0  0  0  0  0  0  0  0  0  0  0  0
    4.1084   16.3203   -3.7456 C   0  0  0  0  0  0  0  0  0  0  0  0
    3.1234   15.5554   -4.3754 C   0  0  0  0  0  0  0  0  0  0  0  0
    3.2749   15.0767   -5.6763 C   0  0  0  0  0  0  0  0  0  0  0  0
    2.2850   14.3415   -6.2306 C   0  0  0  0  0  0  0  0  0  0  0  0
   -7.4893    9.6514  -10.3170 C   0  0  0  0  0  0  0  0  0  0  0  0
   -7.3319   10.5304  -11.4796 N   0  0  0  0  0  0  0  0  0  0  0  0
   -8.6541   10.8383  -12.0279 C   0  0  0  0  0  0  0  0  0  0  0  0
 35 36  1  0  0  0
 36 37  1  0  0  0
 36  1  1  0  0  0
  1  2  1  0  0  0
  1 13  1  0  0  0
  2  3  1  0  0  0
  3  4  1  0  0  0
  3  7  1  0  0  0
  3 10  1  0  0  0
  4  5  1  0  0  0
  5  6  1  0  0  0
  6  7  1  0  0  0
  6  8  1  0  0  0
  6 22  1  0  0  0
  8  9  1  0  0  0
  8 15  2  0  0  0
  9 10  2  0  0  0
 10 11  1  0  0  0
 11 12  1  0  0  0
 11 13  1  0  0  0
 13 14  1  0  0  0
 15 16  1  0  0  0
 16 17  1  0  0  0
 17 18  1  0  0  0
 17 19  1  0  0  0
 17 22  1  0  0  0
 19 20  1  0  0  0
 19 25  1  0  0  0
 20 21  1  0  0  0
 21 22  1  0  0  0
 25 26  1  0  0  0
 25 34  2  0  0  0
 26 27  2  0  0  0
 27 28  1  0  0  0
 27 32  1  0  0  0
 28 29  2  0  0  0
 29 30  1  0  0  0
 30 31  2  0  0  0
 31 32  1  0  0  0
 32 33  2  0  0  0
 33 34  1  0  0  0
 12 23  1  0  0  0
 14 24  1  0  0  0
M  END
> <minimizedAffinity>
-10.36052

$$$$
4CRL_C1I_A_1360


 37 43  0  0  0  0  0  0  0  0999 V2000
   -6.1417   11.3546  -11.2926 C   0  0  0  0  0  0  0  0  0  0  0  0
   -5.3100   12.5226  -10.7967 C   0  0  0  0  0  0  0  0  0  0  0  0
   -4.5804   12.2335   -9.4916 C   0  0  0  0  0  0  0  0  0  0  0  0
   -3.2582   11.4774   -9.6559 C   0  0  0  0  0  0  0  0  0  0  0  0
   -2.4337   12.0036   -8.4462 C   0  0  0  0  0  0  0  0  0  0  0  0
   -3.2667   13.1460   -7.8400 C   0  0  0  0  0  0  0  0  0  0  0  0
   -4.1826   13.4951   -8.8947 O   0  0  0  0  0  0  0  0  0  0  0  0
   -4.1548   12.5850   -6.7251 C   0  0  0  0  0  0  0  0  0  0  0  0
   -5.1932   11.6758   -7.1769 C   0  0  0  0  0  0  0  0  0  0  0  0
   -5.4443   11.4797   -8.5041 C   0  0  0  0  0  0  0  0  0  0  0  0
   -6.5106   10.5261   -8.9501 C   0  0  0  0  0  0  0  0  0  0  0  0
   -7.5095   10.4362   -7.9426 O   0  0  0  0  0  0  0  0  0  0  0  0
   -7.1792   10.9753  -10.2392 C   0  0  0  0  0  0  0  0  0  0  0  0
   -7.9665    9.9010  -10.7351 O   0  0  0  0  0  0  0  0  0  0  0  0
   -4.0010   12.9103   -5.4653 C   0  0  0  0  0  0  0  0  0  0  0  0
   -2.9458   13.8563   -4.9689 C   0  0  0  0  0  0  0  0  0  0  0  0
   -1.8659   14.1211   -5.9889 C   0  0  0  0  0  0  0  0  0  0  0  0
   -0.8747   12.9602   -6.0141 C   0  0  0  0  0  0  0  0  0  0  0  0
   -1.1188   15.4403   -5.9072 C   0  0  0  0  0  0  0  0  0  0  0  0
   -0.3696   15.5054   -7.2558 C   0  0  0  0  0  0  0  0  0  0  0  0
   -1.2587   14.7120   -8.2412 C   0  0  0  0  0  0  0  0  0  0  0  0
   -2.4843   14.3530   -7.3936 C   0  0  0  0  0  0  0  0  0  0  0  0
   -7.9147   11.3075   -7.8103 H   0  0  0  0  0  0  0  0  0  0  0  0
   -7.3960    9.1367  -10.9119 H   0  0  0  0  0  0  0  0  0  0  0  0
   -0.2163   15.5802   -4.7082 C   0  0  0  0  0  0  0  0  0  0  0  0
   -0.6921   15.9925   -3.5064 C   0  0  0  0  0  0  0  0  0  0  0  0
    0.1788   16.0847   -2.4182 C   0  0  0  0  0  0  0  0  0  0  0  0
   -0.2406   16.5105   -1.1538 C   0  0  0  0  0  0  0  0  0  0  0  0
    0.6125   16.5733   -0.1686 N   0  0  0  0  0  0  0  0  0  0  0  0
    1.8825   16.2605   -0.2985 C   0  0  0  0  0  0  0  0  0  0  0  0
    2.3828   15.8348   -1.4811 C   0  0  0  0  0  0  0  0  0  0  0  0
    1.5333   15.7350   -2.5858 C   0  0  0  0  0  0  0  0  0  0  0  0
    1.9857   15.3056   -3.8329 C   0  0  0  0  0  0  0  0  0  0  0  0
    1.1138   15.2303   -4.8633 C   0  0  0  0  0  0  0  0  0  0  0  0
   -7.7593   12.8827  -12.2538 C   0  0  0  0  0  0  0  0  0  0  0  0
   -6.8360   11.7741  -12.5136 N   0  0  0  0  0  0  0  0  0  0  0  0
   -5.8842   12.1784  -13.5501 C   0  0  0  0  0  0  0  0  0  0  0  0
 35 36  1  0  0  0
 36 37  1  0  0  0
 36  1  1  0  0  0
  1  2  1  0  0  0
  1 13  1  0  0  0
  2  3  1  0  0  0
  3  4  1  0  0  0
  3  7  1  0  0  0
  3 10  1  0  0  0
  4  5  1  0  0  0
  5  6  1  0  0  0
  6  7  1  0  0  0
  6  8  1  0  0  0
  6 22  1  0  0  0
  8  9  1  0  0  0
  8 15  2  0  0  0
  9 10  2  0  0  0
 10 11  1  0  0  0
 11 12  1  0  0  0
 11 13  1  0  0  0
 13 14  1  0  0  0
 15 16  1  0  0  0
 16 17  1  0  0  0
 17 18  1  0  0  0
 17 19  1  0  0  0
 17 22  1  0  0  0
 19 20  1  0  0  0
 19 25  1  0  0  0
 20 21  1  0  0  0
 21 22  1  0  0  0
 25 26  1  0  0  0
 25 34  2  0  0  0
 26 27  2  0  0  0
 27 28  1  0  0  0
 27 32  1  0  0  0
 28 29  2  0  0  0
 29 30  1  0  0  0
 30 31  2  0  0  0
 31 32  1  0  0  0
 32 33  2  0  0  0
 33 34  1  0  0  0
 12 23  1  0  0  0
 14 24  1  0  0  0
M  END
> <minimizedAffinity>
-9.80984

$$$$
4CRL_C1I_A_1360


 37 43  0  0  0  0  0  0  0  0999 V2000
    2.5165   16.3847   -4.1668 C   0  0  0  0  0  0  0  0  0  0  0  0
    2.1170   15.6245   -5.4175 C   0  0  0  0  0  0  0  0  0  0  0  0
    0.6384   15.2627   -5.4580 C   0  0  0  0  0  0  0  0  0  0  0  0
   -0.2779   16.3851   -5.9557 C   0  0  0  0  0  0  0  0  0  0  0  0
   -1.4357   15.5855   -6.6192 C   0  0  0  0  0  0  0  0  0  0  0  0
   -0.9768   14.1172   -6.6264 C   0  0  0  0  0  0  0  0  0  0  0  0
    0.4473   14.2054   -6.4336 O   0  0  0  0  0  0  0  0  0  0  0  0
   -1.4965   13.4210   -5.3648 C   0  0  0  0  0  0  0  0  0  0  0  0
   -0.9147   13.9015   -4.1240 C   0  0  0  0  0  0  0  0  0  0  0  0
    0.1259   14.7846   -4.1169 C   0  0  0  0  0  0  0  0  0  0  0  0
    0.7027   15.2797   -2.8255 C   0  0  0  0  0  0  0  0  0  0  0  0
    0.5011   14.2991   -1.8162 O   0  0  0  0  0  0  0  0  0  0  0  0
    2.1949   15.5499   -2.9301 C   0  0  0  0  0  0  0  0  0  0  0  0
    2.6041   16.2660   -1.7726 O   0  0  0  0  0  0  0  0  0  0  0  0
   -2.3841   12.4579   -5.4014 C   0  0  0  0  0  0  0  0  0  0  0  0
   -2.9943   11.9311   -6.6683 C   0  0  0  0  0  0  0  0  0  0  0  0
   -2.7642   12.8365   -7.8532 C   0  0  0  0  0  0  0  0  0  0  0  0
   -3.7451   14.0059   -7.8158 C   0  0  0  0  0  0  0  0  0  0  0  0
   -2.7558   12.2097   -9.2360 C   0  0  0  0  0  0  0  0  0  0  0  0
   -2.1716   13.3277  -10.1265 C   0  0  0  0  0  0  0  0  0  0  0  0
   -1.2411   14.1336   -9.1907 C   0  0  0  0  0  0  0  0  0  0  0  0
   -1.2974   13.3436   -7.8783 C   0  0  0  0  0  0  0  0  0  0  0  0
    0.9613   13.4817   -2.0631 H   0  0  0  0  0  0  0  0  0  0  0  0
    2.1223   17.1065   -1.7253 H   0  0  0  0  0  0  0  0  0  0  0  0
   -4.0948   11.7018   -9.7058 C   0  0  0  0  0  0  0  0  0  0  0  0
   -4.7809   10.7611   -9.0092 C   0  0  0  0  0  0  0  0  0  0  0  0
   -6.0291   10.3383   -9.4724 C   0  0  0  0  0  0  0  0  0  0  0  0
   -6.7868    9.3670   -8.8105 C   0  0  0  0  0  0  0  0  0  0  0  0
   -7.9503    9.0115   -9.2822 N   0  0  0  0  0  0  0  0  0  0  0  0
   -8.4646    9.5192  -10.3800 C   0  0  0  0  0  0  0  0  0  0  0  0
   -7.8093   10.4671  -11.0887 C   0  0  0  0  0  0  0  0  0  0  0  0
   -6.5585   10.9065  -10.6480 C   0  0  0  0  0  0  0  0  0  0  0  0
   -5.8301   11.8784  -11.3331 C   0  0  0  0  0  0  0  0  0  0  0  0
   -4.6248   12.2615  -10.8553 C   0  0  0  0  0  0  0  0  0  0  0  0
    4.5775   15.9463   -5.3649 C   0  0  0  0  0  0  0  0  0  0  0  0
    3.9624   16.6207   -4.2178 N   0  0  0  0  0  0  0  0  0  0  0  0
    4.2619   18.0521   -4.2887 C   0  0  0  0  0  0  0  0  0  0  0  0
 35 36  1  0  0  0
 36 37  1  0  0  0
 36  1  1  0  0  0
  1  2  1  0  0  0
  1 13  1  0  0  0
  2  3  1  0  0  0
  3  4  1  0  0  0
  3  7  1  0  0  0
  3 10  1  0  0  0
  4  5  1  0  0  0
  5  6  1  0  0  0
  6  7  1  0  0  0
  6  8  1  0  0  0
  6 22  1  0  0  0
  8  9  1  0  0  0
  8 15  2  0  0  0
  9 10  2  0  0  0
 10 11  1  0  0  0
 11 12  1  0  0  0
 11 13  1  0  0  0
 13 14  1  0  0  0
 15 16  1  0  0  0
 16 17  1  0  0  0
 17 18  1  0  0  0
 17 19  1  0  0  0
 17 22  1  0  0  0
 19 20  1  0  0  0
 19 25  1  0  0  0
 20 21  1  0  0  0
 21 22  1  0  0  0
 25 26  1  0  0  0
 25 34  2  0  0  0
 26 27  2  0  0  0
 27 28  1  0  0  0
 27 32  1  0  0  0
 28 29  2  0  0  0
 29 30  1  0  0  0
 30 31  2  0  0  0
 31 32  1  0  0  0
 32 33  2  0  0  0
 33 34  1  0  0  0
 12 23  1  0  0  0
 14 24  1  0  0  0
M  END
> <minimizedAffinity>
-9.63304

$$$$
4CRL_C1I_A_1360


 37 43  0  0  0  0  0  0  0  0999 V2000
   -4.9837   12.3506  -10.2980 C   0  0  0  0  0  0  0  0  0  0  0  0
   -4.1444   13.4918   -9.7547 C   0  0  0  0  0  0  0  0  0  0  0  0
   -3.3760   13.1282   -8.4913 C   0  0  0  0  0  0  0  0  0  0  0  0
   -2.0549   12.3931   -8.7394 C   0  0  0  0  0  0  0  0  0  0  0  0
   -1.1988   12.8498   -7.5234 C   0  0  0  0  0  0  0  0  0  0  0  0
   -2.0203   13.9467   -6.8245 C   0  0  0  0  0  0  0  0  0  0  0  0
   -2.9680   14.3534   -7.8291 O   0  0  0  0  0  0  0  0  0  0  0  0
   -2.8729   13.3117   -5.7216 C   0  0  0  0  0  0  0  0  0  0  0  0
   -3.9189   12.4246   -6.1990 C   0  0  0  0  0  0  0  0  0  0  0  0
   -4.2070   12.3088   -7.5280 C   0  0  0  0  0  0  0  0  0  0  0  0
   -5.2805   11.3767   -8.0017 C   0  0  0  0  0  0  0  0  0  0  0  0
   -6.2495   11.2178   -6.9737 O   0  0  0  0  0  0  0  0  0  0  0  0
   -5.9883   11.8996   -9.2411 C   0  0  0  0  0  0  0  0  0  0  0  0
   -6.7838   10.8523   -9.7798 O   0  0  0  0  0  0  0  0  0  0  0  0
   -2.6846   13.5599   -4.4489 C   0  0  0  0  0  0  0  0  0  0  0  0
   -1.6207   14.4811   -3.9252 C   0  0  0  0  0  0  0  0  0  0  0  0
   -0.5720   14.8160   -4.9572 C   0  0  0  0  0  0  0  0  0  0  0  0
    0.4243   13.6660   -5.0822 C   0  0  0  0  0  0  0  0  0  0  0  0
    0.1699   16.1330   -4.8154 C   0  0  0  0  0  0  0  0  0  0  0  0
    0.8796   16.2865   -6.1782 C   0  0  0  0  0  0  0  0  0  0  0  0
   -0.0332   15.5489   -7.1851 C   0  0  0  0  0  0  0  0  0  0  0  0
   -1.2319   15.1295   -6.3267 C   0  0  0  0  0  0  0  0  0  0  0  0
   -6.6554   12.0764   -6.7764 H   0  0  0  0  0  0  0  0  0  0  0  0
   -6.2144   10.1045  -10.0196 H   0  0  0  0  0  0  0  0  0  0  0  0
    1.1057   16.2053   -3.6362 C   0  0  0  0  0  0  0  0  0  0  0  0
    2.4271   16.4692   -3.7943 C   0  0  0  0  0  0  0  0  0  0  0  0
    3.2507   16.5489   -2.6689 C   0  0  0  0  0  0  0  0  0  0  0  0
    4.6221   16.8083   -2.7580 C   0  0  0  0  0  0  0  0  0  0  0  0
    5.3462   16.8784   -1.6748 N   0  0  0  0  0  0  0  0  0  0  0  0
    4.8520   16.7051   -0.4693 C   0  0  0  0  0  0  0  0  0  0  0  0
    3.5364   16.4528   -0.2799 C   0  0  0  0  0  0  0  0  0  0  0  0
    2.6910   16.3665   -1.3888 C   0  0  0  0  0  0  0  0  0  0  0  0
    1.3268   16.1069   -1.2630 C   0  0  0  0  0  0  0  0  0  0  0  0
    0.5613   16.0356   -2.3750 C   0  0  0  0  0  0  0  0  0  0  0  0
   -5.2981   14.1959  -11.8380 C   0  0  0  0  0  0  0  0  0  0  0  0
   -5.7152   12.8394  -11.4706 N   0  0  0  0  0  0  0  0  0  0  0  0
   -5.5232   11.9532  -12.6202 C   0  0  0  0  0  0  0  0  0  0  0  0
 35 36  1  0  0  0
 36 37  1  0  0  0
 36  1  1  0  0  0
  1  2  1  0  0  0
  1 13  1  0  0  0
  2  3  1  0  0  0
  3  4  1  0  0  0
  3  7  1  0  0  0
  3 10  1  0  0  0
  4  5  1  0  0  0
  5  6  1  0  0  0
  6  7  1  0  0  0
  6  8  1  0  0  0
  6 22  1  0  0  0
  8  9  1  0  0  0
  8 15  2  0  0  0
  9 10  2  0  0  0
 10 11  1  0  0  0
 11 12  1  0  0  0
 11 13  1  0  0  0
 13 14  1  0  0  0
 15 16  1  0  0  0
 16 17  1  0  0  0
 17 18  1  0  0  0
 17 19  1  0  0  0
 17 22  1  0  0  0
 19 20  1  0  0  0
 19 25  1  0  0  0
 20 21  1  0  0  0
 21 22  1  0  0  0
 25 26  1  0  0  0
 25 34  2  0  0  0
 26 27  2  0  0  0
 27 28  1  0  0  0
 27 32  1  0  0  0
 28 29  2  0  0  0
 29 30  1  0  0  0
 30 31  2  0  0  0
 31 32  1  0  0  0
 32 33  2  0  0  0
 33 34  1  0  0  0
 12 23  1  0  0  0
 14 24  1  0  0  0
M  END
> <minimizedAffinity>
-9.26783

$$$$
4CRL_C1I_A_1360


 37 43  0  0  0  0  0  0  0  0999 V2000
    1.4082   16.5636   -2.5859 C   0  0  0  0  0  0  0  0  0  0  0  0
    1.2402   15.8146   -3.8946 C   0  0  0  0  0  0  0  0  0  0  0  0
   -0.2047   15.4384   -4.1940 C   0  0  0  0  0  0  0  0  0  0  0  0
   -1.0347   16.5575   -4.8311 C   0  0  0  0  0  0  0  0  0  0  0  0
   -2.0506   15.7544   -5.6931 C   0  0  0  0  0  0  0  0  0  0  0  0
   -1.5797   14.2910   -5.6359 C   0  0  0  0  0  0  0  0  0  0  0  0
   -0.2115   14.3913   -5.1988 O   0  0  0  0  0  0  0  0  0  0  0  0
   -2.3011   13.5742   -4.4904 C   0  0  0  0  0  0  0  0  0  0  0  0
   -1.9485   14.0454   -3.1628 C   0  0  0  0  0  0  0  0  0  0  0  0
   -0.9355   14.9389   -2.9667 C   0  0  0  0  0  0  0  0  0  0  0  0
   -0.5966   15.4240   -1.5900 C   0  0  0  0  0  0  0  0  0  0  0  0
   -0.9578   14.4291   -0.6410 O   0  0  0  0  0  0  0  0  0  0  0  0
    0.8878   15.7105   -1.4321 C   0  0  0  0  0  0  0  0  0  0  0  0
    1.0822   16.4165   -0.2140 O   0  0  0  0  0  0  0  0  0  0  0  0
   -3.1573   12.6027   -4.6900 C   0  0  0  0  0  0  0  0  0  0  0  0
   -3.5330   12.0853   -6.0486 C   0  0  0  0  0  0  0  0  0  0  0  0
   -3.1125   13.0074   -7.1665 C   0  0  0  0  0  0  0  0  0  0  0  0
   -4.0991   14.1662   -7.2873 C   0  0  0  0  0  0  0  0  0  0  0  0
   -2.8576   12.3976   -8.5334 C   0  0  0  0  0  0  0  0  0  0  0  0
   -2.1418   13.5323   -9.2979 C   0  0  0  0  0  0  0  0  0  0  0  0
   -1.3969   14.3361   -8.2069 C   0  0  0  0  0  0  0  0  0  0  0  0
   -1.6697   13.5296   -6.9323 C   0  0  0  0  0  0  0  0  0  0  0  0
   -0.4519   13.6195   -0.8129 H   0  0  0  0  0  0  0  0  0  0  0  0
    0.5893   17.2515   -0.2421 H   0  0  0  0  0  0  0  0  0  0  0  0
   -4.0890   11.8820   -9.2329 C   0  0  0  0  0  0  0  0  0  0  0  0
   -4.8008   10.8379   -8.7389 C   0  0  0  0  0  0  0  0  0  0  0  0
   -5.9485   10.4103   -9.4105 C   0  0  0  0  0  0  0  0  0  0  0  0
   -6.7245    9.3361   -8.9637 C   0  0  0  0  0  0  0  0  0  0  0  0
   -7.7915    8.9804   -9.6251 N   0  0  0  0  0  0  0  0  0  0  0  0
   -8.1878    9.5822  -10.7243 C   0  0  0  0  0  0  0  0  0  0  0  0
   -7.5055   10.6334  -11.2338 C   0  0  0  0  0  0  0  0  0  0  0  0
   -6.3532   11.0801  -10.5821 C   0  0  0  0  0  0  0  0  0  0  0  0
   -5.6032   12.1560  -11.0557 C   0  0  0  0  0  0  0  0  0  0  0  0
   -4.4973   12.5405  -10.3797 C   0  0  0  0  0  0  0  0  0  0  0  0
    3.6360   16.3203   -3.5098 C   0  0  0  0  0  0  0  0  0  0  0  0
    2.8383   16.8147   -2.3836 N   0  0  0  0  0  0  0  0  0  0  0  0
    3.1031   18.2432   -2.2017 C   0  0  0  0  0  0  0  0  0  0  0  0
 35 36  1  0  0  0
 36 37  1  0  0  0
 36  1  1  0  0  0
  1  2  1  0  0  0
  1 13  1  0  0  0
  2  3  1  0  0  0
  3  4  1  0  0  0
  3  7  1  0  0  0
  3 10  1  0  0  0
  4  5  1  0  0  0
  5  6  1  0  0  0
  6  7  1  0  0  0
  6  8  1  0  0  0
  6 22  1  0  0  0
  8  9  1  0  0  0
  8 15  2  0  0  0
  9 10  2  0  0  0
 10 11  1  0  0  0
 11 12  1  0  0  0
 11 13  1  0  0  0
 13 14  1  0  0  0
 15 16  1  0  0  0
 16 17  1  0  0  0
 17 18  1  0  0  0
 17 19  1  0  0  0
 17 22  1  0  0  0
 19 20  1  0  0  0
 19 25  1  0  0  0
 20 21  1  0  0  0
 21 22  1  0  0  0
 25 26  1  0  0  0
 25 34  2  0  0  0
 26 27  2  0  0  0
 27 28  1  0  0  0
 27 32  1  0  0  0
 28 29  2  0  0  0
 29 30  1  0  0  0
 30 31  2  0  0  0
 31 32  1  0  0  0
 32 33  2  0  0  0
 33 34  1  0  0  0
 12 23  1  0  0  0
 14 24  1  0  0  0
M  END
> <minimizedAffinity>
-9.20832

$$$$
4CRL_C1I_A_1360


 37 43  0  0  0  0  0  0  0  0999 V2000
    1.5785   17.4452  -11.0696 C   0  0  0  0  0  0  0  0  0  0  0  0
    1.1849   17.8285   -9.6554 C   0  0  0  0  0  0  0  0  0  0  0  0
    0.9727   16.6291   -8.7414 C   0  0  0  0  0  0  0  0  0  0  0  0
    2.2574   16.0574   -8.1333 C   0  0  0  0  0  0  0  0  0  0  0  0
    1.7473   15.4897   -6.7777 C   0  0  0  0  0  0  0  0  0  0  0  0
    0.2916   15.9696   -6.6468 C   0  0  0  0  0  0  0  0  0  0  0  0
    0.2071   17.0580   -7.5855 O   0  0  0  0  0  0  0  0  0  0  0  0
   -0.6449   14.8970   -7.2114 C   0  0  0  0  0  0  0  0  0  0  0  0
   -0.5348   14.6894   -8.6445 C   0  0  0  0  0  0  0  0  0  0  0  0
    0.2268   15.5064   -9.4289 C   0  0  0  0  0  0  0  0  0  0  0  0
    0.3390   15.2667  -10.9039 C   0  0  0  0  0  0  0  0  0  0  0  0
   -0.8378   14.6146  -11.3631 O   0  0  0  0  0  0  0  0  0  0  0  0
    0.4971   16.5611  -11.6850 C   0  0  0  0  0  0  0  0  0  0  0  0
    0.8700   16.2388  -13.0180 O   0  0  0  0  0  0  0  0  0  0  0  0
   -1.4897   14.2294   -6.4647 C   0  0  0  0  0  0  0  0  0  0  0  0
   -1.6357   14.4299   -4.9837 C   0  0  0  0  0  0  0  0  0  0  0  0
   -0.4909   15.2049   -4.3790 C   0  0  0  0  0  0  0  0  0  0  0  0
    0.7136   14.2882   -4.1800 C   0  0  0  0  0  0  0  0  0  0  0  0
   -0.7584   15.9940   -3.1098 C   0  0  0  0  0  0  0  0  0  0  0  0
    0.4891   16.8955   -2.9855 C   0  0  0  0  0  0  0  0  0  0  0  0
    0.9581   17.1252   -4.4409 C   0  0  0  0  0  0  0  0  0  0  0  0
   -0.1213   16.4207   -5.2704 C   0  0  0  0  0  0  0  0  0  0  0  0
   -1.6064   15.1846  -11.2038 H   0  0  0  0  0  0  0  0  0  0  0  0
    1.7116   15.7566  -13.0107 H   0  0  0  0  0  0  0  0  0  0  0  0
   -1.0186   15.1519   -1.8873 C   0  0  0  0  0  0  0  0  0  0  0  0
   -2.1378   14.3935   -1.7733 C   0  0  0  0  0  0  0  0  0  0  0  0
   -2.3239   13.6116   -0.6308 C   0  0  0  0  0  0  0  0  0  0  0  0
   -3.4568   12.8134   -0.4427 C   0  0  0  0  0  0  0  0  0  0  0  0
   -3.5793   12.0968    0.6408 N   0  0  0  0  0  0  0  0  0  0  0  0
   -2.6802   12.0868    1.5995 C   0  0  0  0  0  0  0  0  0  0  0  0
   -1.5490   12.8231    1.5084 C   0  0  0  0  0  0  0  0  0  0  0  0
   -1.3391   13.6151    0.3767 C   0  0  0  0  0  0  0  0  0  0  0  0
   -0.1963   14.3990    0.2216 C   0  0  0  0  0  0  0  0  0  0  0  0
   -0.0514   15.1438   -0.8972 C   0  0  0  0  0  0  0  0  0  0  0  0
    0.3905   19.3162  -12.0511 C   0  0  0  0  0  0  0  0  0  0  0  0
    1.6944   18.6740  -11.8605 N   0  0  0  0  0  0  0  0  0  0  0  0
    2.6075   19.6265  -11.2259 C   0  0  0  0  0  0  0  0  0  0  0  0
 35 36  1  0  0  0
 36 37  1  0  0  0
 36  1  1  0  0  0
  1  2  1  0  0  0
  1 13  1  0  0  0
  2  3  1  0  0  0
  3  4  1  0  0  0
  3  7  1  0  0  0
  3 10  1  0  0  0
  4  5  1  0  0  0
  5  6  1  0  0  0
  6  7  1  0  0  0
  6  8  1  0  0  0
  6 22  1  0  0  0
  8  9  1  0  0  0
  8 15  2  0  0  0
  9 10  2  0  0  0
 10 11  1  0  0  0
 11 12  1  0  0  0
 11 13  1  0  0  0
 13 14  1  0  0  0
 15 16  1  0  0  0
 16 17  1  0  0  0
 17 18  1  0  0  0
 17 19  1  0  0  0
 17 22  1  0  0  0
 19 20  1  0  0  0
 19 25  1  0  0  0
 20 21  1  0  0  0
 21 22  1  0  0  0
 25 26  1  0  0  0
 25 34  2  0  0  0
 26 27  2  0  0  0
 27 28  1  0  0  0
 27 32  1  0  0  0
 28 29  2  0  0  0
 29 30  1  0  0  0
 30 31  2  0  0  0
 31 32  1  0  0  0
 32 33  2  0  0  0
 33 34  1  0  0  0
 12 23  1  0  0  0
 14 24  1  0  0  0
M  END
> <minimizedAffinity>
-9.12540

$$$$
