3SPF_B50_A_501


 40 43  0  0  0  0  0  0  0  0999 V2000
   30.9502   13.3610  -23.2070 C   0  0  0  0  0  0  0  0  0  0  0  0
   30.2064   12.5834  -22.4153 C   0  0  0  0  0  0  0  0  0  0  0  0
   30.0578   11.3932  -23.0096 C   0  0  0  0  0  0  0  0  0  0  0  0
   30.7562   11.4354  -24.1424 C   0  0  0  0  0  0  0  0  0  0  0  0
   31.2952   12.6491  -24.2791 N   0  0  0  0  0  0  0  0  0  0  0  0
   27.9248   14.5910  -17.4329 Cl  0  0  0  0  0  0  0  0  0  0  0  0
   29.8022   13.2936  -18.8593 C   0  0  0  0  0  0  0  0  0  0  0  0
   27.9223   14.2127  -20.0781 C   0  0  0  0  0  0  0  0  0  0  0  0
   30.3455   12.8095  -20.0519 C   0  0  0  0  0  0  0  0  0  0  0  0
   28.4692   13.7368  -21.2687 C   0  0  0  0  0  0  0  0  0  0  0  0
   28.5878   13.9872  -18.8749 C   0  0  0  0  0  0  0  0  0  0  0  0
   29.6679   13.0124  -21.2647 C   0  0  0  0  0  0  0  0  0  0  0  0
   27.9729    8.1111  -21.5993 C   0  0  0  0  0  0  0  0  0  0  0  0
   29.3458    8.2174  -21.3710 C   0  0  0  0  0  0  0  0  0  0  0  0
   27.2996    9.1138  -22.3032 C   0  0  0  0  0  0  0  0  0  0  0  0
   30.0490    9.3261  -21.8412 C   0  0  0  0  0  0  0  0  0  0  0  0
   28.0093   10.2203  -22.7753 C   0  0  0  0  0  0  0  0  0  0  0  0
   29.3830   10.3284  -22.5492 C   0  0  0  0  0  0  0  0  0  0  0  0
   30.0557   10.3610  -25.9640 O   0  0  0  0  0  0  0  0  0  0  0  0
   31.9049    9.6202  -24.8565 N   0  0  0  0  0  0  0  0  0  0  0  0
   30.8658   10.4526  -25.0415 C   0  0  0  0  0  0  0  0  0  0  0  0
   32.5072    9.7845  -24.0952 H   0  0  0  0  0  0  0  0  0  0  0  0
   32.1858    8.4740  -25.7378 C   0  0  0  0  0  0  0  0  0  0  0  0
   33.6146    8.5597  -26.2849 C   0  0  0  0  0  0  0  0  0  0  0  0
   33.9951   10.0181  -26.5699 C   0  0  0  0  0  0  0  0  0  0  0  0
   30.6253   10.5389  -29.7390 C   0  0  0  0  0  0  0  0  0  0  0  0
   32.7527    9.4286  -29.6471 C   0  0  0  0  0  0  0  0  0  0  0  0
   32.4766   11.6330  -28.6559 C   0  0  0  0  0  0  0  0  0  0  0  0
   33.9914    9.0932  -28.8122 C   0  0  0  0  0  0  0  0  0  0  0  0
   34.0004   11.5327  -28.4636 C   0  0  0  0  0  0  0  0  0  0  0  0
   31.8367   10.3323  -28.9330 N   0  0  0  0  0  0  0  0  0  0  0  0
   34.4377   10.2140  -27.9606 N   0  0  0  0  0  0  0  0  0  0  0  0
   32.1280   13.1345  -25.4116 C   0  0  0  0  0  0  0  0  0  0  0  0
   33.6129   13.2650  -25.0414 C   0  0  0  0  0  0  0  0  0  0  0  0
   34.0154   15.5900  -24.4872 O   0  0  0  0  0  0  0  0  0  0  0  0
   34.2032   14.6060  -25.5088 C   0  0  0  0  0  0  0  0  0  0  0  0
   34.3874   16.4363  -24.7811 H   0  0  0  0  0  0  0  0  0  0  0  0
   32.8822   16.3384  -26.5772 O   0  0  0  0  0  0  0  0  0  0  0  0
   33.5411   15.0928  -26.8027 C   0  0  0  0  0  0  0  0  0  0  0  0
   32.4666   16.6382  -27.4008 H   0  0  0  0  0  0  0  0  0  0  0  0
 26 31  1  0  0  0
 19 21  2  0  0  0
 38 39  1  0  0  0
 35 36  1  0  0  0
  6 11  1  0  0  0
 13 14  2  0  0  0
 13 15  1  0  0  0
 14 16  1  0  0  0
 15 17  2  0  0  0
 16 18  2  0  0  0
 17 18  1  0  0  0
  7  9  2  0  0  0
  7 11  1  0  0  0
  8 10  1  0  0  0
  8 11  2  0  0  0
  9 12  1  0  0  0
 10 12  2  0  0  0
  1  2  2  0  0  0
  1  5  1  0  0  0
 39 36  1  0  0  0
 24 23  1  0  0  0
 24 25  1  0  0  0
 23 20  1  0  0  0
 34 33  1  0  0  0
 34 36  1  0  0  0
 25 32  1  0  0  0
 27 29  1  0  0  0
 27 31  1  0  0  0
 28 30  1  0  0  0
 28 31  1  0  0  0
 29 32  1  0  0  0
 30 32  1  0  0  0
 33  5  1  0  0  0
 20 21  1  0  0  0
 21  4  1  0  0  0
 12  2  1  0  0  0
 18  3  1  0  0  0
  2  3  1  0  0  0
  3  4  2  0  0  0
  4  5  1  0  0  0
 38 40  1  0  0  0
 35 37  1  0  0  0
 20 22  1  0  0  0
M  END
> <minimizedAffinity>
-7.52590

$$$$
3SPF_B50_A_501


 40 43  0  0  0  0  0  0  0  0999 V2000
   30.7644   13.6416  -23.3694 C   0  0  0  0  0  0  0  0  0  0  0  0
   30.1747   12.7700  -22.5463 C   0  0  0  0  0  0  0  0  0  0  0  0
   30.1847   11.5647  -23.1284 C   0  0  0  0  0  0  0  0  0  0  0  0
   30.8274   11.6986  -24.2868 C   0  0  0  0  0  0  0  0  0  0  0  0
   31.1731   12.9777  -24.4499 N   0  0  0  0  0  0  0  0  0  0  0  0
   27.8108   14.4651  -17.4868 Cl  0  0  0  0  0  0  0  0  0  0  0  0
   29.7668   13.3607  -18.9690 C   0  0  0  0  0  0  0  0  0  0  0  0
   27.7998   14.1501  -20.1403 C   0  0  0  0  0  0  0  0  0  0  0  0
   30.3301   12.9512  -20.1801 C   0  0  0  0  0  0  0  0  0  0  0  0
   28.3660   13.7490  -21.3492 C   0  0  0  0  0  0  0  0  0  0  0  0
   28.4995   13.9520  -18.9517 C   0  0  0  0  0  0  0  0  0  0  0  0
   29.6201   13.1260  -21.3787 C   0  0  0  0  0  0  0  0  0  0  0  0
   28.6784    8.0257  -21.6069 C   0  0  0  0  0  0  0  0  0  0  0  0
   27.8480    8.8859  -22.3271 C   0  0  0  0  0  0  0  0  0  0  0  0
   30.0206    8.3573  -21.3997 C   0  0  0  0  0  0  0  0  0  0  0  0
   28.3559   10.0769  -22.8453 C   0  0  0  0  0  0  0  0  0  0  0  0
   30.5233    9.5531  -21.9176 C   0  0  0  0  0  0  0  0  0  0  0  0
   29.6943   10.4159  -22.6375 C   0  0  0  0  0  0  0  0  0  0  0  0
   30.2522   10.5417  -26.1017 O   0  0  0  0  0  0  0  0  0  0  0  0
   32.1838   10.0339  -25.0033 N   0  0  0  0  0  0  0  0  0  0  0  0
   31.0503   10.7336  -25.1842 C   0  0  0  0  0  0  0  0  0  0  0  0
   32.7659   10.2724  -24.2460 H   0  0  0  0  0  0  0  0  0  0  0  0
   32.5967    8.9275  -25.8836 C   0  0  0  0  0  0  0  0  0  0  0  0
   34.0063    9.1783  -26.4297 C   0  0  0  0  0  0  0  0  0  0  0  0
   33.9396    9.7198  -27.8633 C   0  0  0  0  0  0  0  0  0  0  0  0
   35.3643   12.5792  -31.2491 C   0  0  0  0  0  0  0  0  0  0  0  0
   34.7060   12.8162  -28.9519 C   0  0  0  0  0  0  0  0  0  0  0  0
   33.4958   11.3042  -30.4241 C   0  0  0  0  0  0  0  0  0  0  0  0
   34.2303   12.1204  -27.6738 C   0  0  0  0  0  0  0  0  0  0  0  0
   32.5526   11.1796  -29.2143 C   0  0  0  0  0  0  0  0  0  0  0  0
   34.8113   11.8788  -30.0815 N   0  0  0  0  0  0  0  0  0  0  0  0
   33.2693   11.0291  -27.9309 N   0  0  0  0  0  0  0  0  0  0  0  0
   31.8821   13.5700  -25.6153 C   0  0  0  0  0  0  0  0  0  0  0  0
   32.0981   15.0837  -25.4704 C   0  0  0  0  0  0  0  0  0  0  0  0
   34.2348   14.8059  -24.3603 O   0  0  0  0  0  0  0  0  0  0  0  0
   33.5916   15.4504  -25.4640 C   0  0  0  0  0  0  0  0  0  0  0  0
   35.1770   15.0366  -24.3555 H   0  0  0  0  0  0  0  0  0  0  0  0
   33.5033   17.5937  -26.5981 O   0  0  0  0  0  0  0  0  0  0  0  0
   33.7995   16.9648  -25.3517 C   0  0  0  0  0  0  0  0  0  0  0  0
   33.6376   18.5510  -26.5173 H   0  0  0  0  0  0  0  0  0  0  0  0
 26 31  1  0  0  0
 19 21  2  0  0  0
 38 39  1  0  0  0
 35 36  1  0  0  0
  6 11  1  0  0  0
 13 14  2  0  0  0
 13 15  1  0  0  0
 14 16  1  0  0  0
 15 17  2  0  0  0
 16 18  2  0  0  0
 17 18  1  0  0  0
  7  9  2  0  0  0
  7 11  1  0  0  0
  8 10  1  0  0  0
  8 11  2  0  0  0
  9 12  1  0  0  0
 10 12  2  0  0  0
  1  2  2  0  0  0
  1  5  1  0  0  0
 39 36  1  0  0  0
 24 23  1  0  0  0
 24 25  1  0  0  0
 23 20  1  0  0  0
 34 33  1  0  0  0
 34 36  1  0  0  0
 25 32  1  0  0  0
 27 29  1  0  0  0
 27 31  1  0  0  0
 28 30  1  0  0  0
 28 31  1  0  0  0
 29 32  1  0  0  0
 30 32  1  0  0  0
 33  5  1  0  0  0
 20 21  1  0  0  0
 21  4  1  0  0  0
 12  2  1  0  0  0
 18  3  1  0  0  0
  2  3  1  0  0  0
  3  4  2  0  0  0
  4  5  1  0  0  0
 38 40  1  0  0  0
 35 37  1  0  0  0
 20 22  1  0  0  0
M  END
> <minimizedAffinity>
-7.52020

$$$$
3SPF_B50_A_501


 40 43  0  0  0  0  0  0  0  0999 V2000
   30.9062   13.6201  -23.4752 C   0  0  0  0  0  0  0  0  0  0  0  0
   30.3287   12.7527  -22.6392 C   0  0  0  0  0  0  0  0  0  0  0  0
   30.3548   11.5393  -23.2037 C   0  0  0  0  0  0  0  0  0  0  0  0
   30.9951   11.6650  -24.3644 C   0  0  0  0  0  0  0  0  0  0  0  0
   31.3234   12.9462  -24.5462 N   0  0  0  0  0  0  0  0  0  0  0  0
   27.8420   14.1974  -17.5609 Cl  0  0  0  0  0  0  0  0  0  0  0  0
   27.9003   14.0550  -20.2477 C   0  0  0  0  0  0  0  0  0  0  0  0
   29.8168   13.1855  -19.0497 C   0  0  0  0  0  0  0  0  0  0  0  0
   28.4982   13.7129  -21.4631 C   0  0  0  0  0  0  0  0  0  0  0  0
   30.4090   12.8366  -20.2623 C   0  0  0  0  0  0  0  0  0  0  0  0
   28.5649   13.7974  -19.0444 C   0  0  0  0  0  0  0  0  0  0  0  0
   29.7698   13.1180  -21.4765 C   0  0  0  0  0  0  0  0  0  0  0  0
   28.8977    8.0023  -21.6305 C   0  0  0  0  0  0  0  0  0  0  0  0
   28.0366    8.8803  -22.2906 C   0  0  0  0  0  0  0  0  0  0  0  0
   30.2540    8.3154  -21.5011 C   0  0  0  0  0  0  0  0  0  0  0  0
   28.5275   10.0707  -22.8263 C   0  0  0  0  0  0  0  0  0  0  0  0
   30.7399    9.5106  -22.0362 C   0  0  0  0  0  0  0  0  0  0  0  0
   29.8802   10.3912  -22.6959 C   0  0  0  0  0  0  0  0  0  0  0  0
   32.2707   10.0343  -25.1870 O   0  0  0  0  0  0  0  0  0  0  0  0
   30.2615   10.4964  -26.1590 N   0  0  0  0  0  0  0  0  0  0  0  0
   31.2307   10.6902  -25.2478 C   0  0  0  0  0  0  0  0  0  0  0  0
   29.4585   11.0644  -26.1169 H   0  0  0  0  0  0  0  0  0  0  0  0
   30.3433    9.4752  -27.2172 C   0  0  0  0  0  0  0  0  0  0  0  0
   29.9772   10.0839  -28.5749 C   0  0  0  0  0  0  0  0  0  0  0  0
   30.0269   11.6156  -28.5090 C   0  0  0  0  0  0  0  0  0  0  0  0
   27.3236   12.9147  -24.9489 C   0  0  0  0  0  0  0  0  0  0  0  0
   26.9782   11.9087  -27.1019 C   0  0  0  0  0  0  0  0  0  0  0  0
   28.5887   13.7125  -26.8359 C   0  0  0  0  0  0  0  0  0  0  0  0
   27.6145   11.3905  -28.3944 C   0  0  0  0  0  0  0  0  0  0  0  0
   28.6672   13.6186  -28.3701 C   0  0  0  0  0  0  0  0  0  0  0  0
   27.9718   12.5271  -26.2096 N   0  0  0  0  0  0  0  0  0  0  0  0
   28.7360   12.2280  -28.8650 N   0  0  0  0  0  0  0  0  0  0  0  0
   32.0238   13.5312  -25.7205 C   0  0  0  0  0  0  0  0  0  0  0  0
   32.2073   15.0515  -25.6038 C   0  0  0  0  0  0  0  0  0  0  0  0
   34.2188   14.8293  -24.2699 O   0  0  0  0  0  0  0  0  0  0  0  0
   33.6876   15.4390  -25.4503 C   0  0  0  0  0  0  0  0  0  0  0  0
   35.1525   15.0732  -24.1722 H   0  0  0  0  0  0  0  0  0  0  0  0
   33.5112   17.5724  -26.5928 O   0  0  0  0  0  0  0  0  0  0  0  0
   33.8654   16.9584  -25.3542 C   0  0  0  0  0  0  0  0  0  0  0  0
   33.6268   18.5329  -26.5222 H   0  0  0  0  0  0  0  0  0  0  0  0
 26 31  1  0  0  0
 19 21  2  0  0  0
 38 39  1  0  0  0
 35 36  1  0  0  0
  6 11  1  0  0  0
 13 14  2  0  0  0
 13 15  1  0  0  0
 14 16  1  0  0  0
 15 17  2  0  0  0
 16 18  2  0  0  0
 17 18  1  0  0  0
  7  9  2  0  0  0
  7 11  1  0  0  0
  8 10  1  0  0  0
  8 11  2  0  0  0
  9 12  1  0  0  0
 10 12  2  0  0  0
  1  2  2  0  0  0
  1  5  1  0  0  0
 39 36  1  0  0  0
 24 23  1  0  0  0
 24 25  1  0  0  0
 23 20  1  0  0  0
 34 33  1  0  0  0
 34 36  1  0  0  0
 25 32  1  0  0  0
 27 29  1  0  0  0
 27 31  1  0  0  0
 28 30  1  0  0  0
 28 31  1  0  0  0
 29 32  1  0  0  0
 30 32  1  0  0  0
 33  5  1  0  0  0
 20 21  1  0  0  0
 21  4  1  0  0  0
 12  2  1  0  0  0
 18  3  1  0  0  0
  2  3  1  0  0  0
  3  4  2  0  0  0
  4  5  1  0  0  0
 38 40  1  0  0  0
 35 37  1  0  0  0
 20 22  1  0  0  0
M  END
> <minimizedAffinity>
-7.32364

$$$$
3SPF_B50_A_501


 40 43  0  0  0  0  0  0  0  0999 V2000
   31.1045   13.5259  -23.4899 C   0  0  0  0  0  0  0  0  0  0  0  0
   30.4791   12.6537  -22.6943 C   0  0  0  0  0  0  0  0  0  0  0  0
   30.4651   11.4611  -23.3020 C   0  0  0  0  0  0  0  0  0  0  0  0
   31.1285   11.6017  -24.4478 C   0  0  0  0  0  0  0  0  0  0  0  0
   31.5112   12.8739  -24.5784 N   0  0  0  0  0  0  0  0  0  0  0  0
   27.9755   14.0164  -17.6017 Cl  0  0  0  0  0  0  0  0  0  0  0  0
   28.0525   13.9368  -20.2906 C   0  0  0  0  0  0  0  0  0  0  0  0
   29.9459   13.0092  -19.0994 C   0  0  0  0  0  0  0  0  0  0  0  0
   28.6545   13.6143  -21.5093 C   0  0  0  0  0  0  0  0  0  0  0  0
   30.5421   12.6800  -20.3156 C   0  0  0  0  0  0  0  0  0  0  0  0
   28.7037   13.6404  -19.0889 C   0  0  0  0  0  0  0  0  0  0  0  0
   29.9169   13.0000  -21.5274 C   0  0  0  0  0  0  0  0  0  0  0  0
   28.8306    7.9312  -21.8961 C   0  0  0  0  0  0  0  0  0  0  0  0
   30.1683    8.2335  -21.6368 C   0  0  0  0  0  0  0  0  0  0  0  0
   28.0402    8.8209  -22.6297 C   0  0  0  0  0  0  0  0  0  0  0  0
   30.7193    9.4259  -22.1055 C   0  0  0  0  0  0  0  0  0  0  0  0
   28.5979   10.0119  -23.1001 C   0  0  0  0  0  0  0  0  0  0  0  0
   29.9363   10.3161  -22.8430 C   0  0  0  0  0  0  0  0  0  0  0  0
   30.5612   10.5137  -26.3073 O   0  0  0  0  0  0  0  0  0  0  0  0
   32.4364    9.8996  -25.1665 N   0  0  0  0  0  0  0  0  0  0  0  0
   31.3385   10.6500  -25.3624 C   0  0  0  0  0  0  0  0  0  0  0  0
   33.0048   10.0953  -24.3868 H   0  0  0  0  0  0  0  0  0  0  0  0
   32.8300    8.7984  -26.0621 C   0  0  0  0  0  0  0  0  0  0  0  0
   31.8818    7.6070  -25.8906 C   0  0  0  0  0  0  0  0  0  0  0  0
   31.5560    6.9782  -27.2513 C   0  0  0  0  0  0  0  0  0  0  0  0
   31.3794    3.1698  -29.9223 C   0  0  0  0  0  0  0  0  0  0  0  0
   33.0251    4.2269  -28.5291 C   0  0  0  0  0  0  0  0  0  0  0  0
   31.5763    5.5694  -29.9494 C   0  0  0  0  0  0  0  0  0  0  0  0
   33.3575    5.3898  -27.5904 C   0  0  0  0  0  0  0  0  0  0  0  0
   32.4861    6.7167  -29.4753 C   0  0  0  0  0  0  0  0  0  0  0  0
   31.6802    4.3584  -29.1121 N   0  0  0  0  0  0  0  0  0  0  0  0
   32.7705    6.6729  -28.0260 N   0  0  0  0  0  0  0  0  0  0  0  0
   32.2534   13.4710  -25.7205 C   0  0  0  0  0  0  0  0  0  0  0  0
   32.3534   15.0007  -25.6269 C   0  0  0  0  0  0  0  0  0  0  0  0
   34.5272   14.7432  -24.5862 O   0  0  0  0  0  0  0  0  0  0  0  0
   33.8152   15.4771  -25.5870 C   0  0  0  0  0  0  0  0  0  0  0  0
   35.4494   15.0429  -24.5603 H   0  0  0  0  0  0  0  0  0  0  0  0
   33.6076   17.7386  -26.4416 O   0  0  0  0  0  0  0  0  0  0  0  0
   33.9115   16.9747  -25.2751 C   0  0  0  0  0  0  0  0  0  0  0  0
   33.6711   18.6841  -26.2345 H   0  0  0  0  0  0  0  0  0  0  0  0
 26 31  1  0  0  0
 19 21  2  0  0  0
 38 39  1  0  0  0
 35 36  1  0  0  0
  6 11  1  0  0  0
 13 14  2  0  0  0
 13 15  1  0  0  0
 14 16  1  0  0  0
 15 17  2  0  0  0
 16 18  2  0  0  0
 17 18  1  0  0  0
  7  9  2  0  0  0
  7 11  1  0  0  0
  8 10  1  0  0  0
  8 11  2  0  0  0
  9 12  1  0  0  0
 10 12  2  0  0  0
  1  2  2  0  0  0
  1  5  1  0  0  0
 39 36  1  0  0  0
 24 23  1  0  0  0
 24 25  1  0  0  0
 23 20  1  0  0  0
 34 33  1  0  0  0
 34 36  1  0  0  0
 25 32  1  0  0  0
 27 29  1  0  0  0
 27 31  1  0  0  0
 28 30  1  0  0  0
 28 31  1  0  0  0
 29 32  1  0  0  0
 30 32  1  0  0  0
 33  5  1  0  0  0
 20 21  1  0  0  0
 21  4  1  0  0  0
 12  2  1  0  0  0
 18  3  1  0  0  0
  2  3  1  0  0  0
  3  4  2  0  0  0
  4  5  1  0  0  0
 38 40  1  0  0  0
 35 37  1  0  0  0
 20 22  1  0  0  0
M  END
> <minimizedAffinity>
-7.27988

$$$$
3SPF_B50_A_501


 40 43  0  0  0  0  0  0  0  0999 V2000
   30.7864   12.6923  -21.6039 C   0  0  0  0  0  0  0  0  0  0  0  0
   30.8573   12.3293  -22.8876 C   0  0  0  0  0  0  0  0  0  0  0  0
   30.5130   11.0392  -22.9825 C   0  0  0  0  0  0  0  0  0  0  0  0
   30.1847   10.6343  -21.7573 C   0  0  0  0  0  0  0  0  0  0  0  0
   30.3661   11.6417  -20.9003 N   0  0  0  0  0  0  0  0  0  0  0  0
   32.7680   15.9996  -27.0033 Cl  0  0  0  0  0  0  0  0  0  0  0  0
   30.8764   15.0060  -25.3670 C   0  0  0  0  0  0  0  0  0  0  0  0
   33.0667   13.9764  -25.2835 C   0  0  0  0  0  0  0  0  0  0  0  0
   30.4186   14.1242  -24.3850 C   0  0  0  0  0  0  0  0  0  0  0  0
   32.6116   13.1024  -24.2975 C   0  0  0  0  0  0  0  0  0  0  0  0
   32.1974   14.9244  -25.8192 C   0  0  0  0  0  0  0  0  0  0  0  0
   31.2825   13.1509  -23.8582 C   0  0  0  0  0  0  0  0  0  0  0  0
   30.3304    8.7201  -26.4024 C   0  0  0  0  0  0  0  0  0  0  0  0
   29.2194    9.4648  -26.0034 C   0  0  0  0  0  0  0  0  0  0  0  0
   31.5071    8.7576  -25.6486 C   0  0  0  0  0  0  0  0  0  0  0  0
   29.2813   10.2515  -24.8534 C   0  0  0  0  0  0  0  0  0  0  0  0
   31.5626    9.5441  -24.4957 C   0  0  0  0  0  0  0  0  0  0  0  0
   30.4521   10.2891  -24.0937 C   0  0  0  0  0  0  0  0  0  0  0  0
   30.6164    8.5013  -21.2809 O   0  0  0  0  0  0  0  0  0  0  0  0
   28.4692    9.2626  -21.2094 N   0  0  0  0  0  0  0  0  0  0  0  0
   29.7909    9.4055  -21.4090 C   0  0  0  0  0  0  0  0  0  0  0  0
   27.8903   10.0507  -21.3233 H   0  0  0  0  0  0  0  0  0  0  0  0
   27.8456    7.9837  -20.8286 C   0  0  0  0  0  0  0  0  0  0  0  0
   26.3775    8.1995  -20.4464 C   0  0  0  0  0  0  0  0  0  0  0  0
   25.5295    8.4660  -21.6966 C   0  0  0  0  0  0  0  0  0  0  0  0
   27.2517   12.6723  -22.7018 C   0  0  0  0  0  0  0  0  0  0  0  0
   25.8042   11.7562  -21.0188 C   0  0  0  0  0  0  0  0  0  0  0  0
   25.6062   11.0316  -23.3327 C   0  0  0  0  0  0  0  0  0  0  0  0
   25.1120   10.5104  -20.4597 C   0  0  0  0  0  0  0  0  0  0  0  0
   24.3691   10.2876  -22.7989 C   0  0  0  0  0  0  0  0  0  0  0  0
   26.5289   11.4688  -22.2671 N   0  0  0  0  0  0  0  0  0  0  0  0
   24.6122    9.6030  -21.5122 N   0  0  0  0  0  0  0  0  0  0  0  0
   30.1460   11.6145  -19.4297 C   0  0  0  0  0  0  0  0  0  0  0  0
   28.7690   12.1623  -19.0267 C   0  0  0  0  0  0  0  0  0  0  0  0
   30.0780   14.1242  -18.4675 O   0  0  0  0  0  0  0  0  0  0  0  0
   28.7805   13.6941  -18.8901 C   0  0  0  0  0  0  0  0  0  0  0  0
   30.0862   15.0903  -18.3811 H   0  0  0  0  0  0  0  0  0  0  0  0
   26.4675   14.3232  -18.5129 O   0  0  0  0  0  0  0  0  0  0  0  0
   27.7367   14.1774  -17.8769 C   0  0  0  0  0  0  0  0  0  0  0  0
   25.8141   14.6290  -17.8644 H   0  0  0  0  0  0  0  0  0  0  0  0
 26 31  1  0  0  0
 19 21  2  0  0  0
 38 39  1  0  0  0
 35 36  1  0  0  0
  6 11  1  0  0  0
 13 14  2  0  0  0
 13 15  1  0  0  0
 14 16  1  0  0  0
 15 17  2  0  0  0
 16 18  2  0  0  0
 17 18  1  0  0  0
  7  9  2  0  0  0
  7 11  1  0  0  0
  8 10  1  0  0  0
  8 11  2  0  0  0
  9 12  1  0  0  0
 10 12  2  0  0  0
  1  2  2  0  0  0
  1  5  1  0  0  0
 39 36  1  0  0  0
 24 23  1  0  0  0
 24 25  1  0  0  0
 23 20  1  0  0  0
 34 33  1  0  0  0
 34 36  1  0  0  0
 25 32  1  0  0  0
 27 29  1  0  0  0
 27 31  1  0  0  0
 28 30  1  0  0  0
 28 31  1  0  0  0
 29 32  1  0  0  0
 30 32  1  0  0  0
 33  5  1  0  0  0
 20 21  1  0  0  0
 21  4  1  0  0  0
 12  2  1  0  0  0
 18  3  1  0  0  0
  2  3  1  0  0  0
  3  4  2  0  0  0
  4  5  1  0  0  0
 38 40  1  0  0  0
 35 37  1  0  0  0
 20 22  1  0  0  0
M  END
> <minimizedAffinity>
-7.25920

$$$$
3SPF_B50_A_501


 40 43  0  0  0  0  0  0  0  0999 V2000
   26.2093   11.7249  -20.1756 C   0  0  0  0  0  0  0  0  0  0  0  0
   26.6762   10.5894  -20.7025 C   0  0  0  0  0  0  0  0  0  0  0  0
   27.8231   10.8580  -21.3384 C   0  0  0  0  0  0  0  0  0  0  0  0
   28.0757   12.1521  -21.1528 C   0  0  0  0  0  0  0  0  0  0  0  0
   27.0784   12.6963  -20.4517 N   0  0  0  0  0  0  0  0  0  0  0  0
   23.9221    5.4492  -20.4732 Cl  0  0  0  0  0  0  0  0  0  0  0  0
   24.3860    7.8756  -21.5407 C   0  0  0  0  0  0  0  0  0  0  0  0
   25.6875    7.2530  -19.5958 C   0  0  0  0  0  0  0  0  0  0  0  0
   25.0426    9.1076  -21.5923 C   0  0  0  0  0  0  0  0  0  0  0  0
   26.3482    8.4790  -19.6529 C   0  0  0  0  0  0  0  0  0  0  0  0
   24.7049    6.9547  -20.5376 C   0  0  0  0  0  0  0  0  0  0  0  0
   26.0167    9.4242  -20.6319 C   0  0  0  0  0  0  0  0  0  0  0  0
   30.2552    8.2101  -23.3832 C   0  0  0  0  0  0  0  0  0  0  0  0
   30.4931    8.4780  -22.0342 C   0  0  0  0  0  0  0  0  0  0  0  0
   29.1941    8.8345  -24.0454 C   0  0  0  0  0  0  0  0  0  0  0  0
   29.6706    9.3664  -21.3420 C   0  0  0  0  0  0  0  0  0  0  0  0
   28.3756    9.7263  -23.3486 C   0  0  0  0  0  0  0  0  0  0  0  0
   28.6123    9.9969  -21.9993 C   0  0  0  0  0  0  0  0  0  0  0  0
   30.1241   13.0007  -20.9361 O   0  0  0  0  0  0  0  0  0  0  0  0
   28.9877   13.2775  -22.8923 N   0  0  0  0  0  0  0  0  0  0  0  0
   29.1228   12.8306  -21.6318 C   0  0  0  0  0  0  0  0  0  0  0  0
   28.1520   13.0783  -23.3731 H   0  0  0  0  0  0  0  0  0  0  0  0
   30.0298   14.0510  -23.5889 C   0  0  0  0  0  0  0  0  0  0  0  0
   31.0689   13.1096  -24.2070 C   0  0  0  0  0  0  0  0  0  0  0  0
   32.3077   13.8953  -24.6554 C   0  0  0  0  0  0  0  0  0  0  0  0
   35.0828   17.0386  -26.6774 C   0  0  0  0  0  0  0  0  0  0  0  0
   33.1516   15.7680  -27.3277 C   0  0  0  0  0  0  0  0  0  0  0  0
   34.9073   14.7354  -25.9974 C   0  0  0  0  0  0  0  0  0  0  0  0
   32.0929   14.7404  -26.9188 C   0  0  0  0  0  0  0  0  0  0  0  0
   34.0860   13.4575  -26.2446 C   0  0  0  0  0  0  0  0  0  0  0  0
   34.1540   15.9749  -26.2703 N   0  0  0  0  0  0  0  0  0  0  0  0
   32.6323   13.6576  -26.0718 N   0  0  0  0  0  0  0  0  0  0  0  0
   26.9449   14.1208  -20.0459 C   0  0  0  0  0  0  0  0  0  0  0  0
   26.7016   14.2869  -18.5386 C   0  0  0  0  0  0  0  0  0  0  0  0
   27.7801   14.5880  -16.3889 O   0  0  0  0  0  0  0  0  0  0  0  0
   28.0015   14.1408  -17.7298 C   0  0  0  0  0  0  0  0  0  0  0  0
   28.5995   14.4962  -15.8779 H   0  0  0  0  0  0  0  0  0  0  0  0
   30.3234   14.1548  -18.4347 O   0  0  0  0  0  0  0  0  0  0  0  0
   29.1443   14.9541  -18.3481 C   0  0  0  0  0  0  0  0  0  0  0  0
   31.0403   14.6775  -18.8267 H   0  0  0  0  0  0  0  0  0  0  0  0
 26 31  1  0  0  0
 19 21  2  0  0  0
 38 39  1  0  0  0
 35 36  1  0  0  0
  6 11  1  0  0  0
 13 14  2  0  0  0
 13 15  1  0  0  0
 14 16  1  0  0  0
 15 17  2  0  0  0
 16 18  2  0  0  0
 17 18  1  0  0  0
  7  9  2  0  0  0
  7 11  1  0  0  0
  8 10  1  0  0  0
  8 11  2  0  0  0
  9 12  1  0  0  0
 10 12  2  0  0  0
  1  2  2  0  0  0
  1  5  1  0  0  0
 39 36  1  0  0  0
 24 23  1  0  0  0
 24 25  1  0  0  0
 23 20  1  0  0  0
 34 33  1  0  0  0
 34 36  1  0  0  0
 25 32  1  0  0  0
 27 29  1  0  0  0
 27 31  1  0  0  0
 28 30  1  0  0  0
 28 31  1  0  0  0
 29 32  1  0  0  0
 30 32  1  0  0  0
 33  5  1  0  0  0
 20 21  1  0  0  0
 21  4  1  0  0  0
 12  2  1  0  0  0
 18  3  1  0  0  0
  2  3  1  0  0  0
  3  4  2  0  0  0
  4  5  1  0  0  0
 38 40  1  0  0  0
 35 37  1  0  0  0
 20 22  1  0  0  0
M  END
> <minimizedAffinity>
-7.12430

$$$$
3SPF_B50_A_501


 40 43  0  0  0  0  0  0  0  0999 V2000
   30.8860   13.5889  -23.2605 C   0  0  0  0  0  0  0  0  0  0  0  0
   30.2423   12.7369  -22.4578 C   0  0  0  0  0  0  0  0  0  0  0  0
   30.1996   11.5407  -23.0571 C   0  0  0  0  0  0  0  0  0  0  0  0
   30.8638   11.6581  -24.2051 C   0  0  0  0  0  0  0  0  0  0  0  0
   31.2755   12.9203  -24.3452 N   0  0  0  0  0  0  0  0  0  0  0  0
   27.8952   14.4795  -17.4066 Cl  0  0  0  0  0  0  0  0  0  0  0  0
   29.8275   13.3237  -18.8806 C   0  0  0  0  0  0  0  0  0  0  0  0
   27.8931   14.1766  -20.0615 C   0  0  0  0  0  0  0  0  0  0  0  0
   30.3867   12.9029  -20.0897 C   0  0  0  0  0  0  0  0  0  0  0  0
   28.4554   13.7642  -21.2684 C   0  0  0  0  0  0  0  0  0  0  0  0
   28.5784   13.9525  -18.8692 C   0  0  0  0  0  0  0  0  0  0  0  0
   29.6905   13.1040  -21.2923 C   0  0  0  0  0  0  0  0  0  0  0  0
   28.4975    8.0611  -21.6068 C   0  0  0  0  0  0  0  0  0  0  0  0
   27.7079    9.0003  -22.2721 C   0  0  0  0  0  0  0  0  0  0  0  0
   29.8647    8.2934  -21.4307 C   0  0  0  0  0  0  0  0  0  0  0  0
   28.2816   10.1715  -22.7664 C   0  0  0  0  0  0  0  0  0  0  0  0
   30.4336    9.4696  -21.9244 C   0  0  0  0  0  0  0  0  0  0  0  0
   29.6456   10.4114  -22.5893 C   0  0  0  0  0  0  0  0  0  0  0  0
   30.2335   10.5299  -26.0197 O   0  0  0  0  0  0  0  0  0  0  0  0
   32.1697    9.9684  -24.9562 N   0  0  0  0  0  0  0  0  0  0  0  0
   31.0501   10.6957  -25.1135 C   0  0  0  0  0  0  0  0  0  0  0  0
   32.7690   10.1871  -24.2064 H   0  0  0  0  0  0  0  0  0  0  0  0
   32.5429    8.8601  -25.8517 C   0  0  0  0  0  0  0  0  0  0  0  0
   33.9305    9.1052  -26.4535 C   0  0  0  0  0  0  0  0  0  0  0  0
   33.9313   10.3834  -27.3016 C   0  0  0  0  0  0  0  0  0  0  0  0
   30.8797    9.0662  -30.5608 C   0  0  0  0  0  0  0  0  0  0  0  0
   33.1427    8.5044  -29.9864 C   0  0  0  0  0  0  0  0  0  0  0  0
   32.3917   10.8164  -29.8914 C   0  0  0  0  0  0  0  0  0  0  0  0
   34.3241    8.7396  -29.0414 C   0  0  0  0  0  0  0  0  0  0  0  0
   33.8810   11.0938  -29.6194 C   0  0  0  0  0  0  0  0  0  0  0  0
   32.0155    9.4034  -29.6913 N   0  0  0  0  0  0  0  0  0  0  0  0
   34.4800   10.1546  -28.6487 N   0  0  0  0  0  0  0  0  0  0  0  0
   32.0290   13.4923  -25.4927 C   0  0  0  0  0  0  0  0  0  0  0  0
   31.3389   14.7225  -26.1003 C   0  0  0  0  0  0  0  0  0  0  0  0
   30.3666   15.3242  -28.2375 O   0  0  0  0  0  0  0  0  0  0  0  0
   30.3443   14.3323  -27.2065 C   0  0  0  0  0  0  0  0  0  0  0  0
   29.7396   15.0789  -28.9357 H   0  0  0  0  0  0  0  0  0  0  0  0
   28.5226   12.8348  -26.6346 O   0  0  0  0  0  0  0  0  0  0  0  0
   28.9170   14.2061  -26.6621 C   0  0  0  0  0  0  0  0  0  0  0  0
   27.6189   12.7651  -26.2890 H   0  0  0  0  0  0  0  0  0  0  0  0
 26 31  1  0  0  0
 19 21  2  0  0  0
 38 39  1  0  0  0
 35 36  1  0  0  0
  6 11  1  0  0  0
 13 14  2  0  0  0
 13 15  1  0  0  0
 14 16  1  0  0  0
 15 17  2  0  0  0
 16 18  2  0  0  0
 17 18  1  0  0  0
  7  9  2  0  0  0
  7 11  1  0  0  0
  8 10  1  0  0  0
  8 11  2  0  0  0
  9 12  1  0  0  0
 10 12  2  0  0  0
  1  2  2  0  0  0
  1  5  1  0  0  0
 39 36  1  0  0  0
 24 23  1  0  0  0
 24 25  1  0  0  0
 23 20  1  0  0  0
 34 33  1  0  0  0
 34 36  1  0  0  0
 25 32  1  0  0  0
 27 29  1  0  0  0
 27 31  1  0  0  0
 28 30  1  0  0  0
 28 31  1  0  0  0
 29 32  1  0  0  0
 30 32  1  0  0  0
 33  5  1  0  0  0
 20 21  1  0  0  0
 21  4  1  0  0  0
 12  2  1  0  0  0
 18  3  1  0  0  0
  2  3  1  0  0  0
  3  4  2  0  0  0
  4  5  1  0  0  0
 38 40  1  0  0  0
 35 37  1  0  0  0
 20 22  1  0  0  0
M  END
> <minimizedAffinity>
-6.99824

$$$$
3SPF_B50_A_501


 40 43  0  0  0  0  0  0  0  0999 V2000
   31.0611   13.3322  -23.5478 C   0  0  0  0  0  0  0  0  0  0  0  0
   30.4383   12.5153  -22.6936 C   0  0  0  0  0  0  0  0  0  0  0  0
   30.4410   11.2805  -23.2104 C   0  0  0  0  0  0  0  0  0  0  0  0
   31.1119   11.3421  -24.3588 C   0  0  0  0  0  0  0  0  0  0  0  0
   31.4829   12.6050  -24.5816 N   0  0  0  0  0  0  0  0  0  0  0  0
   27.9970   14.5137  -17.7838 Cl  0  0  0  0  0  0  0  0  0  0  0  0
   29.9320   13.2405  -19.1538 C   0  0  0  0  0  0  0  0  0  0  0  0
   28.0678   14.1188  -20.4256 C   0  0  0  0  0  0  0  0  0  0  0  0
   30.5136   12.7586  -20.3290 C   0  0  0  0  0  0  0  0  0  0  0  0
   28.6528   13.6452  -21.5988 C   0  0  0  0  0  0  0  0  0  0  0  0
   28.7066   13.9126  -19.2046 C   0  0  0  0  0  0  0  0  0  0  0  0
   29.8635   12.9419  -21.5599 C   0  0  0  0  0  0  0  0  0  0  0  0
   28.8294    7.8497  -21.5550 C   0  0  0  0  0  0  0  0  0  0  0  0
   30.2109    8.0480  -21.5443 C   0  0  0  0  0  0  0  0  0  0  0  0
   27.9876    8.8104  -22.1234 C   0  0  0  0  0  0  0  0  0  0  0  0
   30.7553    9.2068  -22.0973 C   0  0  0  0  0  0  0  0  0  0  0  0
   28.5382    9.9674  -22.6792 C   0  0  0  0  0  0  0  0  0  0  0  0
   29.9202   10.1675  -22.6708 C   0  0  0  0  0  0  0  0  0  0  0  0
   32.4127    9.7260  -25.1707 O   0  0  0  0  0  0  0  0  0  0  0  0
   30.3231   10.0321  -26.0280 N   0  0  0  0  0  0  0  0  0  0  0  0
   31.3387   10.3271  -25.1982 C   0  0  0  0  0  0  0  0  0  0  0  0
   29.4965   10.5631  -25.9641 H   0  0  0  0  0  0  0  0  0  0  0  0
   30.3874    8.9528  -27.0282 C   0  0  0  0  0  0  0  0  0  0  0  0
   29.7490    7.6745  -26.4748 C   0  0  0  0  0  0  0  0  0  0  0  0
   28.4138    7.9926  -25.7901 C   0  0  0  0  0  0  0  0  0  0  0  0
   23.8730    7.2062  -25.1325 C   0  0  0  0  0  0  0  0  0  0  0  0
   25.3130    7.5288  -27.0270 C   0  0  0  0  0  0  0  0  0  0  0  0
   25.6040    8.8763  -25.0226 C   0  0  0  0  0  0  0  0  0  0  0  0
   26.7369    7.7808  -27.5298 C   0  0  0  0  0  0  0  0  0  0  0  0
   26.6240    9.6249  -25.8990 C   0  0  0  0  0  0  0  0  0  0  0  0
   25.2370    7.5507  -25.5575 N   0  0  0  0  0  0  0  0  0  0  0  0
   27.4942    8.7213  -26.6797 N   0  0  0  0  0  0  0  0  0  0  0  0
   32.2280   13.1230  -25.7598 C   0  0  0  0  0  0  0  0  0  0  0  0
   33.7358   13.2512  -25.4974 C   0  0  0  0  0  0  0  0  0  0  0  0
   34.0467   15.2825  -24.2121 O   0  0  0  0  0  0  0  0  0  0  0  0
   34.1973   14.7181  -25.5182 C   0  0  0  0  0  0  0  0  0  0  0  0
   34.3376   16.2078  -24.2242 H   0  0  0  0  0  0  0  0  0  0  0  0
   33.1121   16.8394  -25.9770 O   0  0  0  0  0  0  0  0  0  0  0  0
   33.3886   15.5491  -26.5206 C   0  0  0  0  0  0  0  0  0  0  0  0
   32.6004   17.3574  -26.6179 H   0  0  0  0  0  0  0  0  0  0  0  0
 26 31  1  0  0  0
 19 21  2  0  0  0
 38 39  1  0  0  0
 35 36  1  0  0  0
  6 11  1  0  0  0
 13 14  2  0  0  0
 13 15  1  0  0  0
 14 16  1  0  0  0
 15 17  2  0  0  0
 16 18  2  0  0  0
 17 18  1  0  0  0
  7  9  2  0  0  0
  7 11  1  0  0  0
  8 10  1  0  0  0
  8 11  2  0  0  0
  9 12  1  0  0  0
 10 12  2  0  0  0
  1  2  2  0  0  0
  1  5  1  0  0  0
 39 36  1  0  0  0
 24 23  1  0  0  0
 24 25  1  0  0  0
 23 20  1  0  0  0
 34 33  1  0  0  0
 34 36  1  0  0  0
 25 32  1  0  0  0
 27 29  1  0  0  0
 27 31  1  0  0  0
 28 30  1  0  0  0
 28 31  1  0  0  0
 29 32  1  0  0  0
 30 32  1  0  0  0
 33  5  1  0  0  0
 20 21  1  0  0  0
 21  4  1  0  0  0
 12  2  1  0  0  0
 18  3  1  0  0  0
  2  3  1  0  0  0
  3  4  2  0  0  0
  4  5  1  0  0  0
 38 40  1  0  0  0
 35 37  1  0  0  0
 20 22  1  0  0  0
M  END
> <minimizedAffinity>
-6.94594

$$$$
3SPF_B50_A_501


 40 43  0  0  0  0  0  0  0  0999 V2000
   27.2303    9.5110  -19.6561 C   0  0  0  0  0  0  0  0  0  0  0  0
   27.6194    8.7915  -20.7124 C   0  0  0  0  0  0  0  0  0  0  0  0
   28.4723    9.5277  -21.4351 C   0  0  0  0  0  0  0  0  0  0  0  0
   28.6376   10.6786  -20.7862 C   0  0  0  0  0  0  0  0  0  0  0  0
   27.8637   10.6825  -19.6984 N   0  0  0  0  0  0  0  0  0  0  0  0
   25.4633    3.4680  -21.7477 Cl  0  0  0  0  0  0  0  0  0  0  0  0
   27.4299    5.1624  -21.0379 C   0  0  0  0  0  0  0  0  0  0  0  0
   25.2906    6.1319  -21.6274 C   0  0  0  0  0  0  0  0  0  0  0  0
   27.9466    6.4373  -20.7945 C   0  0  0  0  0  0  0  0  0  0  0  0
   25.8042    7.4031  -21.3762 C   0  0  0  0  0  0  0  0  0  0  0  0
   26.1053    5.0138  -21.4613 C   0  0  0  0  0  0  0  0  0  0  0  0
   27.1382    7.5697  -20.9831 C   0  0  0  0  0  0  0  0  0  0  0  0
   30.3950    8.4392  -24.9317 C   0  0  0  0  0  0  0  0  0  0  0  0
   29.0865    8.9228  -24.9756 C   0  0  0  0  0  0  0  0  0  0  0  0
   31.0589    8.3233  -23.7069 C   0  0  0  0  0  0  0  0  0  0  0  0
   28.4388    9.2953  -23.7980 C   0  0  0  0  0  0  0  0  0  0  0  0
   30.4045    8.6942  -22.5301 C   0  0  0  0  0  0  0  0  0  0  0  0
   29.0949    9.1771  -22.5712 C   0  0  0  0  0  0  0  0  0  0  0  0
   30.5087   11.8811  -20.6596 O   0  0  0  0  0  0  0  0  0  0  0  0
   28.8825   12.4744  -22.1424 N   0  0  0  0  0  0  0  0  0  0  0  0
   29.4044   11.7024  -21.1737 C   0  0  0  0  0  0  0  0  0  0  0  0
   27.9956   12.2414  -22.5005 H   0  0  0  0  0  0  0  0  0  0  0  0
   29.5739   13.6523  -22.6940 C   0  0  0  0  0  0  0  0  0  0  0  0
   30.6988   13.2163  -23.6387 C   0  0  0  0  0  0  0  0  0  0  0  0
   30.7958   14.1699  -24.8363 C   0  0  0  0  0  0  0  0  0  0  0  0
   34.2663   17.2188  -25.4102 C   0  0  0  0  0  0  0  0  0  0  0  0
   33.0200   15.7343  -26.8277 C   0  0  0  0  0  0  0  0  0  0  0  0
   33.7102   15.0178  -24.6077 C   0  0  0  0  0  0  0  0  0  0  0  0
   31.9020   14.6933  -26.9304 C   0  0  0  0  0  0  0  0  0  0  0  0
   33.1545   13.6611  -25.0760 C   0  0  0  0  0  0  0  0  0  0  0  0
   33.2563   16.1516  -25.4364 N   0  0  0  0  0  0  0  0  0  0  0  0
   31.8580   13.7737  -25.7759 N   0  0  0  0  0  0  0  0  0  0  0  0
   27.7213   11.7819  -18.7071 C   0  0  0  0  0  0  0  0  0  0  0  0
   26.5971   12.7637  -19.0689 C   0  0  0  0  0  0  0  0  0  0  0  0
   27.8275   14.6716  -19.9180 O   0  0  0  0  0  0  0  0  0  0  0  0
   27.0141   14.2244  -18.8291 C   0  0  0  0  0  0  0  0  0  0  0  0
   28.0911   15.5929  -19.7676 H   0  0  0  0  0  0  0  0  0  0  0  0
   29.0863   14.9327  -17.7838 O   0  0  0  0  0  0  0  0  0  0  0  0
   27.7975   14.3792  -17.5206 C   0  0  0  0  0  0  0  0  0  0  0  0
   29.5740   15.0268  -16.9507 H   0  0  0  0  0  0  0  0  0  0  0  0
 26 31  1  0  0  0
 19 21  2  0  0  0
 38 39  1  0  0  0
 35 36  1  0  0  0
  6 11  1  0  0  0
 13 14  2  0  0  0
 13 15  1  0  0  0
 14 16  1  0  0  0
 15 17  2  0  0  0
 16 18  2  0  0  0
 17 18  1  0  0  0
  7  9  2  0  0  0
  7 11  1  0  0  0
  8 10  1  0  0  0
  8 11  2  0  0  0
  9 12  1  0  0  0
 10 12  2  0  0  0
  1  2  2  0  0  0
  1  5  1  0  0  0
 39 36  1  0  0  0
 24 23  1  0  0  0
 24 25  1  0  0  0
 23 20  1  0  0  0
 34 33  1  0  0  0
 34 36  1  0  0  0
 25 32  1  0  0  0
 27 29  1  0  0  0
 27 31  1  0  0  0
 28 30  1  0  0  0
 28 31  1  0  0  0
 29 32  1  0  0  0
 30 32  1  0  0  0
 33  5  1  0  0  0
 20 21  1  0  0  0
 21  4  1  0  0  0
 12  2  1  0  0  0
 18  3  1  0  0  0
  2  3  1  0  0  0
  3  4  2  0  0  0
  4  5  1  0  0  0
 38 40  1  0  0  0
 35 37  1  0  0  0
 20 22  1  0  0  0
M  END
> <minimizedAffinity>
-6.93340

$$$$
3SPF_B50_A_501


 40 43  0  0  0  0  0  0  0  0999 V2000
   29.0512   14.3137  -23.4206 C   0  0  0  0  0  0  0  0  0  0  0  0
   28.9950   13.3459  -22.5014 C   0  0  0  0  0  0  0  0  0  0  0  0
   29.1444   12.1672  -23.1180 C   0  0  0  0  0  0  0  0  0  0  0  0
   29.3414   12.4270  -24.4090 C   0  0  0  0  0  0  0  0  0  0  0  0
   29.2691   13.7454  -24.6058 N   0  0  0  0  0  0  0  0  0  0  0  0
   27.9615   14.5242  -16.8797 Cl  0  0  0  0  0  0  0  0  0  0  0  0
   29.5382   13.7411  -18.9151 C   0  0  0  0  0  0  0  0  0  0  0  0
   27.2455   14.3122  -19.4453 C   0  0  0  0  0  0  0  0  0  0  0  0
   29.7836   13.4550  -20.2603 C   0  0  0  0  0  0  0  0  0  0  0  0
   27.4933   14.0348  -20.7887 C   0  0  0  0  0  0  0  0  0  0  0  0
   28.2673   14.1615  -18.5101 C   0  0  0  0  0  0  0  0  0  0  0  0
   28.7519   13.5817  -21.2041 C   0  0  0  0  0  0  0  0  0  0  0  0
   29.1558    8.4042  -21.4010 C   0  0  0  0  0  0  0  0  0  0  0  0
   30.3592    9.0790  -21.6129 C   0  0  0  0  0  0  0  0  0  0  0  0
   27.9447    8.9990  -21.7669 C   0  0  0  0  0  0  0  0  0  0  0  0
   30.3564   10.3501  -22.1867 C   0  0  0  0  0  0  0  0  0  0  0  0
   27.9478   10.2706  -22.3447 C   0  0  0  0  0  0  0  0  0  0  0  0
   29.1504   10.9472  -22.5588 C   0  0  0  0  0  0  0  0  0  0  0  0
   28.5618   11.0728  -25.9970 O   0  0  0  0  0  0  0  0  0  0  0  0
   30.8052   11.1865  -25.6101 N   0  0  0  0  0  0  0  0  0  0  0  0
   29.5252   11.5256  -25.3785 C   0  0  0  0  0  0  0  0  0  0  0  0
   31.5085   11.6151  -25.0707 H   0  0  0  0  0  0  0  0  0  0  0  0
   31.2061   10.2046  -26.6322 C   0  0  0  0  0  0  0  0  0  0  0  0
   31.7235    8.9245  -25.9677 C   0  0  0  0  0  0  0  0  0  0  0  0
   33.2549    8.8658  -26.0320 C   0  0  0  0  0  0  0  0  0  0  0  0
   32.9670    8.4296  -30.6576 C   0  0  0  0  0  0  0  0  0  0  0  0
   32.6257    6.9938  -28.7632 C   0  0  0  0  0  0  0  0  0  0  0  0
   34.4898    8.5565  -28.7968 C   0  0  0  0  0  0  0  0  0  0  0  0
   32.6327    6.8557  -27.2385 C   0  0  0  0  0  0  0  0  0  0  0  0
   34.8823    7.8274  -27.4994 C   0  0  0  0  0  0  0  0  0  0  0  0
   33.0888    8.3216  -29.1970 N   0  0  0  0  0  0  0  0  0  0  0  0
   33.7379    7.5935  -26.5944 N   0  0  0  0  0  0  0  0  0  0  0  0
   29.4033   14.4642  -25.9009 C   0  0  0  0  0  0  0  0  0  0  0  0
   30.8338   14.4187  -26.4580 C   0  0  0  0  0  0  0  0  0  0  0  0
   32.4837   16.1592  -26.1071 O   0  0  0  0  0  0  0  0  0  0  0  0
   31.8475   15.0401  -25.4827 C   0  0  0  0  0  0  0  0  0  0  0  0
   33.1234   16.5519  -25.4926 H   0  0  0  0  0  0  0  0  0  0  0  0
   32.4606   13.2732  -23.9366 O   0  0  0  0  0  0  0  0  0  0  0  0
   32.9167   14.0264  -25.0597 C   0  0  0  0  0  0  0  0  0  0  0  0
   33.1433   12.6350  -23.6765 H   0  0  0  0  0  0  0  0  0  0  0  0
 26 31  1  0  0  0
 19 21  2  0  0  0
 38 39  1  0  0  0
 35 36  1  0  0  0
  6 11  1  0  0  0
 13 14  2  0  0  0
 13 15  1  0  0  0
 14 16  1  0  0  0
 15 17  2  0  0  0
 16 18  2  0  0  0
 17 18  1  0  0  0
  7  9  2  0  0  0
  7 11  1  0  0  0
  8 10  1  0  0  0
  8 11  2  0  0  0
  9 12  1  0  0  0
 10 12  2  0  0  0
  1  2  2  0  0  0
  1  5  1  0  0  0
 39 36  1  0  0  0
 24 23  1  0  0  0
 24 25  1  0  0  0
 23 20  1  0  0  0
 34 33  1  0  0  0
 34 36  1  0  0  0
 25 32  1  0  0  0
 27 29  1  0  0  0
 27 31  1  0  0  0
 28 30  1  0  0  0
 28 31  1  0  0  0
 29 32  1  0  0  0
 30 32  1  0  0  0
 33  5  1  0  0  0
 20 21  1  0  0  0
 21  4  1  0  0  0
 12  2  1  0  0  0
 18  3  1  0  0  0
  2  3  1  0  0  0
  3  4  2  0  0  0
  4  5  1  0  0  0
 38 40  1  0  0  0
 35 37  1  0  0  0
 20 22  1  0  0  0
M  END
> <minimizedAffinity>
-6.90894

$$$$
