1UHO_VDN_A_1000


 35 38  0  0  0  0  0  0  0  0999 V2000
    3.9037   66.6411   85.0343 C   0  0  0  0  0  0  0  0  0  0  0  0
    4.7545   67.5704   84.4579 C   0  0  0  0  0  0  0  0  0  0  0  0
    4.2815   68.5032   83.4195 C   0  0  0  0  0  0  0  0  0  0  0  0
    2.9660   68.4529   83.0009 C   0  0  0  0  0  0  0  0  0  0  0  0
    2.0320   67.4624   83.6020 C   0  0  0  0  0  0  0  0  0  0  0  0
    2.4288   66.5959   84.5526 C   0  0  0  0  0  0  0  0  0  0  0  0
    1.4565   65.6450   85.1201 C   0  0  0  0  0  0  0  0  0  0  0  0
    1.2373   65.5566   86.4640 N   0  0  0  0  0  0  0  0  0  0  0  0
    0.3290   64.6946   87.1250 C   0  0  0  0  0  0  0  0  0  0  0  0
   -0.4288   63.8276   86.1864 C   0  0  0  0  0  0  0  0  0  0  0  0
   -0.1454   63.9721   84.7874 N   0  0  0  0  0  0  0  0  0  0  0  0
    0.7484   64.8404   84.2901 N   0  0  0  0  0  0  0  0  0  0  0  0
    0.2070   64.6925   88.3330 O   0  0  0  0  0  0  0  0  0  0  0  0
   -1.4030   62.8338   86.1493 C   0  0  0  0  0  0  0  0  0  0  0  0
   -1.7027   62.3912   84.8117 N   0  0  0  0  0  0  0  0  0  0  0  0
   -0.9243   63.1122   84.0725 C   0  0  0  0  0  0  0  0  0  0  0  0
   -2.0978   62.2598   87.3794 C   0  0  0  0  0  0  0  0  0  0  0  0
    0.8908   64.8935   83.3174 H   0  0  0  0  0  0  0  0  0  0  0  0
   -0.8050   63.0882   82.5545 C   0  0  0  0  0  0  0  0  0  0  0  0
   -0.1337   61.8333   81.9415 C   0  0  0  0  0  0  0  0  0  0  0  0
    1.3404   61.7606   82.3422 C   0  0  0  0  0  0  0  0  0  0  0  0
    2.3460   69.5187   81.7680 S   0  0  0  0  0  0  0  0  0  0  0  0
    1.3055   70.3122   82.3860 O   0  0  0  0  0  0  0  0  0  0  0  0
    3.4811   70.2871   81.2950 O   0  0  0  0  0  0  0  0  0  0  0  0
    1.7290   68.5915   80.5350 N   0  0  0  0  0  0  0  0  0  0  0  0
    0.3052   68.2026   80.7216 C   0  0  0  0  0  0  0  0  0  0  0  0
   -0.2178   67.2860   79.5920 C   0  0  0  0  0  0  0  0  0  0  0  0
    0.6187   66.0685   79.4823 N   0  0  0  0  0  0  0  0  0  0  0  0
    2.0272   66.4652   79.2331 C   0  0  0  0  0  0  0  0  0  0  0  0
    2.5787   67.3960   80.3343 C   0  0  0  0  0  0  0  0  0  0  0  0
    0.9050   63.8735   78.2057 C   0  0  0  0  0  0  0  0  0  0  0  0
    0.0982   65.1750   78.4364 C   0  0  0  0  0  0  0  0  0  0  0  0
    4.2296   65.7231   86.0122 O   0  0  0  0  0  0  0  0  0  0  0  0
    5.7617   65.9544   87.7569 C   0  0  0  0  0  0  0  0  0  0  0  0
    5.5465   65.2976   86.3890 C   0  0  0  0  0  0  0  0  0  0  0  0
 34 35  1  0  0  0
 35 33  1  0  0  0
 33  1  1  0  0  0
  1  2  2  0  0  0
  1  6  1  0  0  0
  2  3  1  0  0  0
  3  4  2  0  0  0
  4  5  1  0  0  0
  4 22  1  0  0  0
  5  6  2  0  0  0
  6  7  1  0  0  0
 22 23  2  0  0  0
 22 24  2  0  0  0
 22 25  1  0  0  0
 31 32  1  0  0  0
 25 26  1  0  0  0
 25 30  1  0  0  0
 26 27  1  0  0  0
 27 28  1  0  0  0
 28 29  1  0  0  0
 28 32  1  0  0  0
 29 30  1  0  0  0
  7  8  2  0  0  0
  7 12  1  0  0  0
  8  9  1  0  0  0
  9 10  1  0  0  0
  9 13  2  0  0  0
 10 11  1  0  0  0
 10 14  2  0  0  0
 11 12  1  0  0  0
 11 16  1  0  0  0
 14 15  1  0  0  0
 14 17  1  0  0  0
 15 16  2  0  0  0
 16 19  1  0  0  0
 19 20  1  0  0  0
 20 21  1  0  0  0
 12 18  1  0  0  0
M  END
> <minimizedAffinity>
-9.88051

$$$$
1UHO_VDN_A_1000


 35 38  0  0  0  0  0  0  0  0999 V2000
    1.6525   67.0770   82.7628 C   0  0  0  0  0  0  0  0  0  0  0  0
    1.8805   67.6564   81.5250 C   0  0  0  0  0  0  0  0  0  0  0  0
    1.5183   66.9641   80.2755 C   0  0  0  0  0  0  0  0  0  0  0  0
    0.9454   65.7083   80.3291 C   0  0  0  0  0  0  0  0  0  0  0  0
    0.6922   65.0623   81.6457 C   0  0  0  0  0  0  0  0  0  0  0  0
    1.0094   65.6650   82.8068 C   0  0  0  0  0  0  0  0  0  0  0  0
    0.7245   64.9819   84.0811 C   0  0  0  0  0  0  0  0  0  0  0  0
    1.5083   65.1604   85.1837 N   0  0  0  0  0  0  0  0  0  0  0  0
    1.3333   64.5705   86.4589 C   0  0  0  0  0  0  0  0  0  0  0  0
    0.1481   63.6772   86.5223 C   0  0  0  0  0  0  0  0  0  0  0  0
   -0.6292   63.5343   85.3249 N   0  0  0  0  0  0  0  0  0  0  0  0
   -0.3503   64.1608   84.1717 N   0  0  0  0  0  0  0  0  0  0  0  0
    2.0904   64.7951   87.3812 O   0  0  0  0  0  0  0  0  0  0  0  0
   -0.5600   62.8483   87.3881 C   0  0  0  0  0  0  0  0  0  0  0  0
   -1.7029   62.2312   86.7651 N   0  0  0  0  0  0  0  0  0  0  0  0
   -1.6734   62.6897   85.5564 C   0  0  0  0  0  0  0  0  0  0  0  0
   -0.1888   62.6052   88.8470 C   0  0  0  0  0  0  0  0  0  0  0  0
   -0.9291   64.0234   83.3873 H   0  0  0  0  0  0  0  0  0  0  0  0
   -2.6487   62.3866   84.4268 C   0  0  0  0  0  0  0  0  0  0  0  0
   -2.1100   61.4951   83.2795 C   0  0  0  0  0  0  0  0  0  0  0  0
   -3.1695   60.4835   82.8401 C   0  0  0  0  0  0  0  0  0  0  0  0
    0.5052   64.8298   78.8886 S   0  0  0  0  0  0  0  0  0  0  0  0
   -0.0052   65.8019   77.9458 O   0  0  0  0  0  0  0  0  0  0  0  0
    1.7084   64.1490   78.4513 O   0  0  0  0  0  0  0  0  0  0  0  0
   -0.6665   63.7214   79.2877 N   0  0  0  0  0  0  0  0  0  0  0  0
   -0.1796   62.3168   79.3440 C   0  0  0  0  0  0  0  0  0  0  0  0
   -1.3068   61.3045   79.6514 C   0  0  0  0  0  0  0  0  0  0  0  0
   -2.3907   61.4141   78.6479 N   0  0  0  0  0  0  0  0  0  0  0  0
   -2.9131   62.8035   78.6437 C   0  0  0  0  0  0  0  0  0  0  0  0
   -1.8102   63.8446   78.3560 C   0  0  0  0  0  0  0  0  0  0  0  0
   -2.9560   59.0499   79.4357 C   0  0  0  0  0  0  0  0  0  0  0  0
   -3.4448   60.4234   78.9137 C   0  0  0  0  0  0  0  0  0  0  0  0
    1.9448   67.6268   83.9947 O   0  0  0  0  0  0  0  0  0  0  0  0
    4.1600   68.1212   84.5363 C   0  0  0  0  0  0  0  0  0  0  0  0
    2.7927   68.7540   84.2550 C   0  0  0  0  0  0  0  0  0  0  0  0
 34 35  1  0  0  0
 35 33  1  0  0  0
 33  1  1  0  0  0
  1  2  2  0  0  0
  1  6  1  0  0  0
  2  3  1  0  0  0
  3  4  2  0  0  0
  4  5  1  0  0  0
  4 22  1  0  0  0
  5  6  2  0  0  0
  6  7  1  0  0  0
 22 23  2  0  0  0
 22 24  2  0  0  0
 22 25  1  0  0  0
 31 32  1  0  0  0
 25 26  1  0  0  0
 25 30  1  0  0  0
 26 27  1  0  0  0
 27 28  1  0  0  0
 28 29  1  0  0  0
 28 32  1  0  0  0
 29 30  1  0  0  0
  7  8  2  0  0  0
  7 12  1  0  0  0
  8  9  1  0  0  0
  9 10  1  0  0  0
  9 13  2  0  0  0
 10 11  1  0  0  0
 10 14  2  0  0  0
 11 12  1  0  0  0
 11 16  1  0  0  0
 14 15  1  0  0  0
 14 17  1  0  0  0
 15 16  2  0  0  0
 16 19  1  0  0  0
 19 20  1  0  0  0
 20 21  1  0  0  0
 12 18  1  0  0  0
M  END
> <minimizedAffinity>
-9.83671

$$$$
1UHO_VDN_A_1000


 35 38  0  0  0  0  0  0  0  0999 V2000
    0.9782   65.9247   81.5548 C   0  0  0  0  0  0  0  0  0  0  0  0
    1.3778   66.8218   80.5774 C   0  0  0  0  0  0  0  0  0  0  0  0
    2.0731   68.0742   80.9236 C   0  0  0  0  0  0  0  0  0  0  0  0
    2.3301   68.3718   82.2479 C   0  0  0  0  0  0  0  0  0  0  0  0
    1.9091   67.4265   83.3175 C   0  0  0  0  0  0  0  0  0  0  0  0
    1.2728   66.2737   83.0383 C   0  0  0  0  0  0  0  0  0  0  0  0
    0.8901   65.3705   84.1381 C   0  0  0  0  0  0  0  0  0  0  0  0
    1.5152   65.4087   85.3504 N   0  0  0  0  0  0  0  0  0  0  0  0
    1.2335   64.6037   86.4807 C   0  0  0  0  0  0  0  0  0  0  0  0
    0.1264   63.6425   86.2415 C   0  0  0  0  0  0  0  0  0  0  0  0
   -0.4834   63.6557   84.9429 N   0  0  0  0  0  0  0  0  0  0  0  0
   -0.1169   64.4824   83.9518 N   0  0  0  0  0  0  0  0  0  0  0  0
    1.8505   64.7157   87.5204 O   0  0  0  0  0  0  0  0  0  0  0  0
   -0.6127   62.6388   86.8616 C   0  0  0  0  0  0  0  0  0  0  0  0
   -1.6160   62.0670   86.0005 N   0  0  0  0  0  0  0  0  0  0  0  0
   -1.4756   62.7227   84.8948 C   0  0  0  0  0  0  0  0  0  0  0  0
   -0.4051   62.1773   88.3001 C   0  0  0  0  0  0  0  0  0  0  0  0
   -0.5817   64.4439   83.0848 H   0  0  0  0  0  0  0  0  0  0  0  0
   -2.2765   62.5549   83.6105 C   0  0  0  0  0  0  0  0  0  0  0  0
   -3.1988   61.3119   83.5376 C   0  0  0  0  0  0  0  0  0  0  0  0
   -2.7490   60.3720   82.4181 C   0  0  0  0  0  0  0  0  0  0  0  0
    3.1369   69.8418   82.7261 S   0  0  0  0  0  0  0  0  0  0  0  0
    3.6941   69.6042   84.0403 O   0  0  0  0  0  0  0  0  0  0  0  0
    4.1243   70.1093   81.6985 O   0  0  0  0  0  0  0  0  0  0  0  0
    2.0135   71.0653   82.7724 N   0  0  0  0  0  0  0  0  0  0  0  0
    0.9710   70.9728   81.7153 C   0  0  0  0  0  0  0  0  0  0  0  0
   -0.0179   72.1607   81.7444 C   0  0  0  0  0  0  0  0  0  0  0  0
    0.7091   73.4446   81.6133 N   0  0  0  0  0  0  0  0  0  0  0  0
    1.7036   73.5562   82.7095 C   0  0  0  0  0  0  0  0  0  0  0  0
    2.6990   72.3763   82.7217 C   0  0  0  0  0  0  0  0  0  0  0  0
    0.2898   75.8896   82.2259 C   0  0  0  0  0  0  0  0  0  0  0  0
   -0.2328   74.5740   81.5984 C   0  0  0  0  0  0  0  0  0  0  0  0
    0.3260   64.7251   81.3530 O   0  0  0  0  0  0  0  0  0  0  0  0
    0.6198   62.4368   81.0031 C   0  0  0  0  0  0  0  0  0  0  0  0
    0.5519   63.7908   80.2884 C   0  0  0  0  0  0  0  0  0  0  0  0
 34 35  1  0  0  0
 35 33  1  0  0  0
 33  1  1  0  0  0
  1  2  2  0  0  0
  1  6  1  0  0  0
  2  3  1  0  0  0
  3  4  2  0  0  0
  4  5  1  0  0  0
  4 22  1  0  0  0
  5  6  2  0  0  0
  6  7  1  0  0  0
 22 23  2  0  0  0
 22 24  2  0  0  0
 22 25  1  0  0  0
 31 32  1  0  0  0
 25 26  1  0  0  0
 25 30  1  0  0  0
 26 27  1  0  0  0
 27 28  1  0  0  0
 28 29  1  0  0  0
 28 32  1  0  0  0
 29 30  1  0  0  0
  7  8  2  0  0  0
  7 12  1  0  0  0
  8  9  1  0  0  0
  9 10  1  0  0  0
  9 13  2  0  0  0
 10 11  1  0  0  0
 10 14  2  0  0  0
 11 12  1  0  0  0
 11 16  1  0  0  0
 14 15  1  0  0  0
 14 17  1  0  0  0
 15 16  2  0  0  0
 16 19  1  0  0  0
 19 20  1  0  0  0
 20 21  1  0  0  0
 12 18  1  0  0  0
M  END
> <minimizedAffinity>
-9.79920

$$$$
1UHO_VDN_A_1000


 35 38  0  0  0  0  0  0  0  0999 V2000
    0.0729   63.6009   85.3025 C   0  0  0  0  0  0  0  0  0  0  0  0
   -0.8364   62.5592   85.3911 C   0  0  0  0  0  0  0  0  0  0  0  0
   -1.6724   62.1707   84.2413 C   0  0  0  0  0  0  0  0  0  0  0  0
   -1.5589   62.8578   83.0482 C   0  0  0  0  0  0  0  0  0  0  0  0
   -0.5917   63.9825   82.9272 C   0  0  0  0  0  0  0  0  0  0  0  0
    0.1879   64.3643   83.9560 C   0  0  0  0  0  0  0  0  0  0  0  0
    1.1362   65.4777   83.7743 C   0  0  0  0  0  0  0  0  0  0  0  0
    0.9260   66.4575   82.8482 N   0  0  0  0  0  0  0  0  0  0  0  0
    1.7541   67.5760   82.5872 C   0  0  0  0  0  0  0  0  0  0  0  0
    2.9583   67.6161   83.4562 C   0  0  0  0  0  0  0  0  0  0  0  0
    3.1166   66.5522   84.4057 N   0  0  0  0  0  0  0  0  0  0  0  0
    2.2443   65.5433   84.5523 N   0  0  0  0  0  0  0  0  0  0  0  0
    1.4773   68.3970   81.7367 O   0  0  0  0  0  0  0  0  0  0  0  0
    4.0989   68.3687   83.7219 C   0  0  0  0  0  0  0  0  0  0  0  0
    4.9117   67.8053   84.7693 N   0  0  0  0  0  0  0  0  0  0  0  0
    4.2621   66.7432   85.1188 C   0  0  0  0  0  0  0  0  0  0  0  0
    4.4700   69.6586   82.9982 C   0  0  0  0  0  0  0  0  0  0  0  0
    2.4099   64.8471   85.2285 H   0  0  0  0  0  0  0  0  0  0  0  0
    4.6418   65.7386   86.1984 C   0  0  0  0  0  0  0  0  0  0  0  0
    5.9719   66.0088   86.9460 C   0  0  0  0  0  0  0  0  0  0  0  0
    5.7841   65.8480   88.4553 C   0  0  0  0  0  0  0  0  0  0  0  0
   -2.5269   62.4576   81.6543 S   0  0  0  0  0  0  0  0  0  0  0  0
   -3.2657   61.2590   81.9886 O   0  0  0  0  0  0  0  0  0  0  0  0
   -3.3572   63.6181   81.3966 O   0  0  0  0  0  0  0  0  0  0  0  0
   -1.5090   62.1857   80.3695 N   0  0  0  0  0  0  0  0  0  0  0  0
   -1.4405   63.3120   79.4000 C   0  0  0  0  0  0  0  0  0  0  0  0
   -0.5383   63.0009   78.1839 C   0  0  0  0  0  0  0  0  0  0  0  0
   -1.0047   61.7776   77.4910 N   0  0  0  0  0  0  0  0  0  0  0  0
   -1.0093   60.6452   78.4506 C   0  0  0  0  0  0  0  0  0  0  0  0
   -1.8883   60.9276   79.6879 C   0  0  0  0  0  0  0  0  0  0  0  0
    0.1309   60.0092   76.0375 C   0  0  0  0  0  0  0  0  0  0  0  0
   -0.1735   61.5030   76.3091 C   0  0  0  0  0  0  0  0  0  0  0  0
    0.9076   64.0514   86.3052 O   0  0  0  0  0  0  0  0  0  0  0  0
    0.8471   63.5637   88.5863 C   0  0  0  0  0  0  0  0  0  0  0  0
    0.5149   64.6438   87.5511 C   0  0  0  0  0  0  0  0  0  0  0  0
 34 35  1  0  0  0
 35 33  1  0  0  0
 33  1  1  0  0  0
  1  2  2  0  0  0
  1  6  1  0  0  0
  2  3  1  0  0  0
  3  4  2  0  0  0
  4  5  1  0  0  0
  4 22  1  0  0  0
  5  6  2  0  0  0
  6  7  1  0  0  0
 22 23  2  0  0  0
 22 24  2  0  0  0
 22 25  1  0  0  0
 31 32  1  0  0  0
 25 26  1  0  0  0
 25 30  1  0  0  0
 26 27  1  0  0  0
 27 28  1  0  0  0
 28 29  1  0  0  0
 28 32  1  0  0  0
 29 30  1  0  0  0
  7  8  2  0  0  0
  7 12  1  0  0  0
  8  9  1  0  0  0
  9 10  1  0  0  0
  9 13  2  0  0  0
 10 11  1  0  0  0
 10 14  2  0  0  0
 11 12  1  0  0  0
 11 16  1  0  0  0
 14 15  1  0  0  0
 14 17  1  0  0  0
 15 16  2  0  0  0
 16 19  1  0  0  0
 19 20  1  0  0  0
 20 21  1  0  0  0
 12 18  1  0  0  0
M  END
> <minimizedAffinity>
-9.73592

$$$$
1UHO_VDN_A_1000


 35 38  0  0  0  0  0  0  0  0999 V2000
    3.5352   67.5540   84.0862 C   0  0  0  0  0  0  0  0  0  0  0  0
    4.3095   68.6846   83.8812 C   0  0  0  0  0  0  0  0  0  0  0  0
    3.9386   69.6965   82.8761 C   0  0  0  0  0  0  0  0  0  0  0  0
    2.8009   69.5195   82.1129 C   0  0  0  0  0  0  0  0  0  0  0  0
    1.9529   68.3126   82.3113 C   0  0  0  0  0  0  0  0  0  0  0  0
    2.2605   67.3685   83.2202 C   0  0  0  0  0  0  0  0  0  0  0  0
    1.3770   66.2000   83.3809 C   0  0  0  0  0  0  0  0  0  0  0  0
    0.7542   65.6175   82.3158 N   0  0  0  0  0  0  0  0  0  0  0  0
   -0.1057   64.4928   82.3414 C   0  0  0  0  0  0  0  0  0  0  0  0
   -0.2981   63.9461   83.7092 C   0  0  0  0  0  0  0  0  0  0  0  0
    0.3850   64.6101   84.7820 N   0  0  0  0  0  0  0  0  0  0  0  0
    1.1814   65.6770   84.6162 N   0  0  0  0  0  0  0  0  0  0  0  0
   -0.6131   64.0477   81.3322 O   0  0  0  0  0  0  0  0  0  0  0  0
   -0.9534   62.9363   84.4085 C   0  0  0  0  0  0  0  0  0  0  0  0
   -0.6923   62.9738   85.8247 N   0  0  0  0  0  0  0  0  0  0  0  0
    0.1049   63.9830   85.9592 C   0  0  0  0  0  0  0  0  0  0  0  0
   -1.8545   61.8866   83.7670 C   0  0  0  0  0  0  0  0  0  0  0  0
    1.6261   66.0821   85.3955 H   0  0  0  0  0  0  0  0  0  0  0  0
    0.7262   64.5074   87.2468 C   0  0  0  0  0  0  0  0  0  0  0  0
    0.0264   64.0870   88.5639 C   0  0  0  0  0  0  0  0  0  0  0  0
    0.7269   62.8772   89.1840 C   0  0  0  0  0  0  0  0  0  0  0  0
    2.3129   70.6716   80.8984 S   0  0  0  0  0  0  0  0  0  0  0  0
    3.5159   71.0893   80.2112 O   0  0  0  0  0  0  0  0  0  0  0  0
    1.3529   69.9842   80.0569 O   0  0  0  0  0  0  0  0  0  0  0  0
    1.5886   71.9596   81.6583 N   0  0  0  0  0  0  0  0  0  0  0  0
    0.2767   72.3494   81.0751 C   0  0  0  0  0  0  0  0  0  0  0  0
   -0.3380   73.5910   81.7609 C   0  0  0  0  0  0  0  0  0  0  0  0
    0.5964   74.7382   81.6915 N   0  0  0  0  0  0  0  0  0  0  0  0
    1.8810   74.3607   82.3323 C   0  0  0  0  0  0  0  0  0  0  0  0
    2.5166   73.1127   81.6830 C   0  0  0  0  0  0  0  0  0  0  0  0
   -0.6240   76.9524   81.3202 C   0  0  0  0  0  0  0  0  0  0  0  0
   -0.0030   75.9324   82.3061 C   0  0  0  0  0  0  0  0  0  0  0  0
    3.7784   66.5444   84.9955 O   0  0  0  0  0  0  0  0  0  0  0  0
    4.7087   65.4405   86.8287 C   0  0  0  0  0  0  0  0  0  0  0  0
    5.0544   66.1359   85.5075 C   0  0  0  0  0  0  0  0  0  0  0  0
 34 35  1  0  0  0
 35 33  1  0  0  0
 33  1  1  0  0  0
  1  2  2  0  0  0
  1  6  1  0  0  0
  2  3  1  0  0  0
  3  4  2  0  0  0
  4  5  1  0  0  0
  4 22  1  0  0  0
  5  6  2  0  0  0
  6  7  1  0  0  0
 22 23  2  0  0  0
 22 24  2  0  0  0
 22 25  1  0  0  0
 31 32  1  0  0  0
 25 26  1  0  0  0
 25 30  1  0  0  0
 26 27  1  0  0  0
 27 28  1  0  0  0
 28 29  1  0  0  0
 28 32  1  0  0  0
 29 30  1  0  0  0
  7  8  2  0  0  0
  7 12  1  0  0  0
  8  9  1  0  0  0
  9 10  1  0  0  0
  9 13  2  0  0  0
 10 11  1  0  0  0
 10 14  2  0  0  0
 11 12  1  0  0  0
 11 16  1  0  0  0
 14 15  1  0  0  0
 14 17  1  0  0  0
 15 16  2  0  0  0
 16 19  1  0  0  0
 19 20  1  0  0  0
 20 21  1  0  0  0
 12 18  1  0  0  0
M  END
> <minimizedAffinity>
-9.54845

$$$$
1UHO_VDN_A_1000


 35 38  0  0  0  0  0  0  0  0999 V2000
    0.5867   65.0439   83.4598 C   0  0  0  0  0  0  0  0  0  0  0  0
    1.1377   65.8771   84.4200 C   0  0  0  0  0  0  0  0  0  0  0  0
    1.8122   67.1339   84.0494 C   0  0  0  0  0  0  0  0  0  0  0  0
    1.9080   67.4939   82.7192 C   0  0  0  0  0  0  0  0  0  0  0  0
    1.3268   66.6154   81.6677 C   0  0  0  0  0  0  0  0  0  0  0  0
    0.7035   65.4612   81.9693 C   0  0  0  0  0  0  0  0  0  0  0  0
    0.1367   64.6374   80.8867 C   0  0  0  0  0  0  0  0  0  0  0  0
    0.7788   64.4775   79.6934 N   0  0  0  0  0  0  0  0  0  0  0  0
    0.3428   63.7092   78.5868 C   0  0  0  0  0  0  0  0  0  0  0  0
   -0.9588   63.0359   78.8303 C   0  0  0  0  0  0  0  0  0  0  0  0
   -1.5786   63.2504   80.1064 N   0  0  0  0  0  0  0  0  0  0  0  0
   -1.0491   64.0091   81.0780 N   0  0  0  0  0  0  0  0  0  0  0  0
    0.9909   63.6300   77.5631 O   0  0  0  0  0  0  0  0  0  0  0  0
   -1.8919   62.1950   78.2301 C   0  0  0  0  0  0  0  0  0  0  0  0
   -3.0181   61.9081   79.0813 N   0  0  0  0  0  0  0  0  0  0  0  0
   -2.7538   62.5628   80.1646 C   0  0  0  0  0  0  0  0  0  0  0  0
   -1.7582   61.6213   76.8236 C   0  0  0  0  0  0  0  0  0  0  0  0
   -1.5243   64.1101   81.9343 H   0  0  0  0  0  0  0  0  0  0  0  0
   -3.5933   62.6320   81.4332 C   0  0  0  0  0  0  0  0  0  0  0  0
   -3.1212   61.7471   82.6143 C   0  0  0  0  0  0  0  0  0  0  0  0
   -2.9160   60.3023   82.1569 C   0  0  0  0  0  0  0  0  0  0  0  0
    2.7038   68.9602   82.2124 S   0  0  0  0  0  0  0  0  0  0  0  0
    3.8361   69.1473   83.0939 O   0  0  0  0  0  0  0  0  0  0  0  0
    3.0575   68.7634   80.8201 O   0  0  0  0  0  0  0  0  0  0  0  0
    1.6276   70.2179   82.3570 N   0  0  0  0  0  0  0  0  0  0  0  0
    0.6504   70.3124   81.2394 C   0  0  0  0  0  0  0  0  0  0  0  0
   -0.2920   71.5309   81.3698 C   0  0  0  0  0  0  0  0  0  0  0  0
    0.4906   72.7859   81.4521 N   0  0  0  0  0  0  0  0  0  0  0  0
    1.4182   72.7075   82.6082 C   0  0  0  0  0  0  0  0  0  0  0  0
    2.3648   71.4912   82.5201 C   0  0  0  0  0  0  0  0  0  0  0  0
   -1.0369   74.4034   80.1951 C   0  0  0  0  0  0  0  0  0  0  0  0
   -0.4045   73.9500   81.5339 C   0  0  0  0  0  0  0  0  0  0  0  0
   -0.0684   63.8500   83.6849 O   0  0  0  0  0  0  0  0  0  0  0  0
   -1.3789   63.2626   85.5241 C   0  0  0  0  0  0  0  0  0  0  0  0
   -0.0093   63.0460   84.8712 C   0  0  0  0  0  0  0  0  0  0  0  0
 34 35  1  0  0  0
 35 33  1  0  0  0
 33  1  1  0  0  0
  1  2  2  0  0  0
  1  6  1  0  0  0
  2  3  1  0  0  0
  3  4  2  0  0  0
  4  5  1  0  0  0
  4 22  1  0  0  0
  5  6  2  0  0  0
  6  7  1  0  0  0
 22 23  2  0  0  0
 22 24  2  0  0  0
 22 25  1  0  0  0
 31 32  1  0  0  0
 25 26  1  0  0  0
 25 30  1  0  0  0
 26 27  1  0  0  0
 27 28  1  0  0  0
 28 29  1  0  0  0
 28 32  1  0  0  0
 29 30  1  0  0  0
  7  8  2  0  0  0
  7 12  1  0  0  0
  8  9  1  0  0  0
  9 10  1  0  0  0
  9 13  2  0  0  0
 10 11  1  0  0  0
 10 14  2  0  0  0
 11 12  1  0  0  0
 11 16  1  0  0  0
 14 15  1  0  0  0
 14 17  1  0  0  0
 15 16  2  0  0  0
 16 19  1  0  0  0
 19 20  1  0  0  0
 20 21  1  0  0  0
 12 18  1  0  0  0
M  END
> <minimizedAffinity>
-9.44666

$$$$
1UHO_VDN_A_1000


 35 38  0  0  0  0  0  0  0  0999 V2000
    1.6261   65.8708   84.3527 C   0  0  0  0  0  0  0  0  0  0  0  0
    2.3596   67.0442   84.4217 C   0  0  0  0  0  0  0  0  0  0  0  0
    2.3783   68.0040   83.3035 C   0  0  0  0  0  0  0  0  0  0  0  0
    1.6581   67.7336   82.1560 C   0  0  0  0  0  0  0  0  0  0  0  0
    0.8640   66.4789   82.0552 C   0  0  0  0  0  0  0  0  0  0  0  0
    0.8232   65.5802   83.0565 C   0  0  0  0  0  0  0  0  0  0  0  0
    0.0099   64.3606   82.9050 C   0  0  0  0  0  0  0  0  0  0  0  0
    0.1100   63.5618   81.8034 N   0  0  0  0  0  0  0  0  0  0  0  0
   -0.6067   62.3676   81.5481 C   0  0  0  0  0  0  0  0  0  0  0  0
   -1.5454   62.0140   82.6438 C   0  0  0  0  0  0  0  0  0  0  0  0
   -1.6006   62.9005   83.7706 N   0  0  0  0  0  0  0  0  0  0  0  0
   -0.8556   64.0101   83.8877 N   0  0  0  0  0  0  0  0  0  0  0  0
   -0.4444   61.7246   80.5310 O   0  0  0  0  0  0  0  0  0  0  0  0
   -2.4800   61.0554   83.0257 C   0  0  0  0  0  0  0  0  0  0  0  0
   -3.0760   61.3320   84.3077 N   0  0  0  0  0  0  0  0  0  0  0  0
   -2.5019   62.4299   84.6781 C   0  0  0  0  0  0  0  0  0  0  0  0
   -2.8492   59.8308   82.1954 C   0  0  0  0  0  0  0  0  0  0  0  0
   -0.9378   64.5726   84.6915 H   0  0  0  0  0  0  0  0  0  0  0  0
   -2.7304   63.2047   85.9690 C   0  0  0  0  0  0  0  0  0  0  0  0
   -2.3599   62.4697   87.2819 C   0  0  0  0  0  0  0  0  0  0  0  0
   -0.8807   62.0810   87.2830 C   0  0  0  0  0  0  0  0  0  0  0  0
    1.6478   68.8202   80.7924 S   0  0  0  0  0  0  0  0  0  0  0  0
    2.7425   68.4232   79.9333 O   0  0  0  0  0  0  0  0  0  0  0  0
    0.3367   68.6908   80.1870 O   0  0  0  0  0  0  0  0  0  0  0  0
    1.8684   70.3685   81.3540 N   0  0  0  0  0  0  0  0  0  0  0  0
    0.6512   71.2206   81.2795 C   0  0  0  0  0  0  0  0  0  0  0  0
    0.9072   72.6720   81.7461 C   0  0  0  0  0  0  0  0  0  0  0  0
    1.9941   73.2887   80.9508 N   0  0  0  0  0  0  0  0  0  0  0  0
    3.2223   72.4656   81.0823 C   0  0  0  0  0  0  0  0  0  0  0  0
    2.9992   71.0034   80.6403 C   0  0  0  0  0  0  0  0  0  0  0  0
    1.0002   75.3793   82.0331 C   0  0  0  0  0  0  0  0  0  0  0  0
    2.2112   74.6833   81.3644 C   0  0  0  0  0  0  0  0  0  0  0  0
    1.5297   64.9025   85.3317 O   0  0  0  0  0  0  0  0  0  0  0  0
    1.9812   64.3311   87.5486 C   0  0  0  0  0  0  0  0  0  0  0  0
    0.9788   65.0596   86.6466 C   0  0  0  0  0  0  0  0  0  0  0  0
 34 35  1  0  0  0
 35 33  1  0  0  0
 33  1  1  0  0  0
  1  2  2  0  0  0
  1  6  1  0  0  0
  2  3  1  0  0  0
  3  4  2  0  0  0
  4  5  1  0  0  0
  4 22  1  0  0  0
  5  6  2  0  0  0
  6  7  1  0  0  0
 22 23  2  0  0  0
 22 24  2  0  0  0
 22 25  1  0  0  0
 31 32  1  0  0  0
 25 26  1  0  0  0
 25 30  1  0  0  0
 26 27  1  0  0  0
 27 28  1  0  0  0
 28 29  1  0  0  0
 28 32  1  0  0  0
 29 30  1  0  0  0
  7  8  2  0  0  0
  7 12  1  0  0  0
  8  9  1  0  0  0
  9 10  1  0  0  0
  9 13  2  0  0  0
 10 11  1  0  0  0
 10 14  2  0  0  0
 11 12  1  0  0  0
 11 16  1  0  0  0
 14 15  1  0  0  0
 14 17  1  0  0  0
 15 16  2  0  0  0
 16 19  1  0  0  0
 19 20  1  0  0  0
 20 21  1  0  0  0
 12 18  1  0  0  0
M  END
> <minimizedAffinity>
-9.44475

$$$$
1UHO_VDN_A_1000


 35 38  0  0  0  0  0  0  0  0999 V2000
    3.5855   67.2598   84.4232 C   0  0  0  0  0  0  0  0  0  0  0  0
    4.2304   68.2723   83.7312 C   0  0  0  0  0  0  0  0  0  0  0  0
    3.5530   69.0188   82.6562 C   0  0  0  0  0  0  0  0  0  0  0  0
    2.2504   68.7051   82.3196 C   0  0  0  0  0  0  0  0  0  0  0  0
    1.5358   67.6200   83.0455 C   0  0  0  0  0  0  0  0  0  0  0  0
    2.1226   66.9180   84.0327 C   0  0  0  0  0  0  0  0  0  0  0  0
    1.3618   65.8623   84.7244 C   0  0  0  0  0  0  0  0  0  0  0  0
    1.3205   65.7802   86.0858 N   0  0  0  0  0  0  0  0  0  0  0  0
    0.6221   64.8235   86.8616 C   0  0  0  0  0  0  0  0  0  0  0  0
   -0.1209   63.8407   86.0315 C   0  0  0  0  0  0  0  0  0  0  0  0
   -0.0306   63.9855   84.6070 N   0  0  0  0  0  0  0  0  0  0  0  0
    0.6724   64.9508   83.9954 N   0  0  0  0  0  0  0  0  0  0  0  0
    0.6484   64.8361   88.0754 O   0  0  0  0  0  0  0  0  0  0  0  0
   -0.9509   62.7269   86.1239 C   0  0  0  0  0  0  0  0  0  0  0  0
   -1.3484   62.2148   84.8375 N   0  0  0  0  0  0  0  0  0  0  0  0
   -0.7684   63.0127   84.0014 C   0  0  0  0  0  0  0  0  0  0  0  0
   -1.4090   62.0981   87.4355 C   0  0  0  0  0  0  0  0  0  0  0  0
    0.6878   64.9973   83.0121 H   0  0  0  0  0  0  0  0  0  0  0  0
   -0.8313   62.9659   82.4806 C   0  0  0  0  0  0  0  0  0  0  0  0
   -0.0496   61.8144   81.7994 C   0  0  0  0  0  0  0  0  0  0  0  0
    1.4054   61.7984   82.2702 C   0  0  0  0  0  0  0  0  0  0  0  0
    1.3961   69.5404   81.0496 S   0  0  0  0  0  0  0  0  0  0  0  0
    2.3352   69.7221   79.9636 O   0  0  0  0  0  0  0  0  0  0  0  0
    0.2556   68.7081   80.7195 O   0  0  0  0  0  0  0  0  0  0  0  0
    0.8829   71.0067   81.6391 N   0  0  0  0  0  0  0  0  0  0  0  0
   -0.4379   71.4442   81.1126 C   0  0  0  0  0  0  0  0  0  0  0  0
   -0.8547   72.8408   81.6278 C   0  0  0  0  0  0  0  0  0  0  0  0
    0.1748   73.8491   81.2851 N   0  0  0  0  0  0  0  0  0  0  0  0
    1.4756   73.4359   81.8684 C   0  0  0  0  0  0  0  0  0  0  0  0
    1.9164   72.0364   81.3883 C   0  0  0  0  0  0  0  0  0  0  0  0
   -0.7090   76.1536   80.6233 C   0  0  0  0  0  0  0  0  0  0  0  0
   -0.2390   75.1861   81.7373 C   0  0  0  0  0  0  0  0  0  0  0  0
    4.1130   66.4970   85.4455 O   0  0  0  0  0  0  0  0  0  0  0  0
    5.8666   66.5382   86.9844 C   0  0  0  0  0  0  0  0  0  0  0  0
    5.4731   66.0623   85.5817 C   0  0  0  0  0  0  0  0  0  0  0  0
 34 35  1  0  0  0
 35 33  1  0  0  0
 33  1  1  0  0  0
  1  2  2  0  0  0
  1  6  1  0  0  0
  2  3  1  0  0  0
  3  4  2  0  0  0
  4  5  1  0  0  0
  4 22  1  0  0  0
  5  6  2  0  0  0
  6  7  1  0  0  0
 22 23  2  0  0  0
 22 24  2  0  0  0
 22 25  1  0  0  0
 31 32  1  0  0  0
 25 26  1  0  0  0
 25 30  1  0  0  0
 26 27  1  0  0  0
 27 28  1  0  0  0
 28 29  1  0  0  0
 28 32  1  0  0  0
 29 30  1  0  0  0
  7  8  2  0  0  0
  7 12  1  0  0  0
  8  9  1  0  0  0
  9 10  1  0  0  0
  9 13  2  0  0  0
 10 11  1  0  0  0
 10 14  2  0  0  0
 11 12  1  0  0  0
 11 16  1  0  0  0
 14 15  1  0  0  0
 14 17  1  0  0  0
 15 16  2  0  0  0
 16 19  1  0  0  0
 19 20  1  0  0  0
 20 21  1  0  0  0
 12 18  1  0  0  0
M  END
> <minimizedAffinity>
-9.33105

$$$$
1UHO_VDN_A_1000


 35 38  0  0  0  0  0  0  0  0999 V2000
   -1.2280   63.6635   86.2126 C   0  0  0  0  0  0  0  0  0  0  0  0
   -2.3382   62.8429   86.0948 C   0  0  0  0  0  0  0  0  0  0  0  0
   -2.6797   62.1931   84.8170 C   0  0  0  0  0  0  0  0  0  0  0  0
   -1.8864   62.4060   83.7063 C   0  0  0  0  0  0  0  0  0  0  0  0
   -0.6896   63.2851   83.8051 C   0  0  0  0  0  0  0  0  0  0  0  0
   -0.3471   63.8942   84.9556 C   0  0  0  0  0  0  0  0  0  0  0  0
    0.8559   64.7443   84.9970 C   0  0  0  0  0  0  0  0  0  0  0  0
    1.8075   64.5972   85.9638 N   0  0  0  0  0  0  0  0  0  0  0  0
    3.0034   65.3423   86.1036 C   0  0  0  0  0  0  0  0  0  0  0  0
    3.1667   66.3727   85.0460 C   0  0  0  0  0  0  0  0  0  0  0  0
    2.1263   66.4733   84.0633 N   0  0  0  0  0  0  0  0  0  0  0  0
    1.0348   65.6933   84.0457 N   0  0  0  0  0  0  0  0  0  0  0  0
    3.7905   65.1329   87.0041 O   0  0  0  0  0  0  0  0  0  0  0  0
    4.0312   67.3719   84.6074 C   0  0  0  0  0  0  0  0  0  0  0  0
    3.5551   68.0481   83.4280 N   0  0  0  0  0  0  0  0  0  0  0  0
    2.4335   67.4575   83.1721 C   0  0  0  0  0  0  0  0  0  0  0  0
    5.3505   67.7299   85.2832 C   0  0  0  0  0  0  0  0  0  0  0  0
    0.3603   65.8107   83.3381 H   0  0  0  0  0  0  0  0  0  0  0  0
    1.4746   67.7474   82.0252 C   0  0  0  0  0  0  0  0  0  0  0  0
    1.5245   66.7652   80.8277 C   0  0  0  0  0  0  0  0  0  0  0  0
    0.1199   66.5147   80.2772 C   0  0  0  0  0  0  0  0  0  0  0  0
   -2.2418   61.6781   82.1621 S   0  0  0  0  0  0  0  0  0  0  0  0
   -1.6205   60.3711   82.1633 O   0  0  0  0  0  0  0  0  0  0  0  0
   -3.6875   61.6516   82.0550 O   0  0  0  0  0  0  0  0  0  0  0  0
   -1.5971   62.6382   80.9690 N   0  0  0  0  0  0  0  0  0  0  0  0
   -2.5226   62.9000   79.8340 C   0  0  0  0  0  0  0  0  0  0  0  0
   -1.8704   63.7392   78.7114 C   0  0  0  0  0  0  0  0  0  0  0  0
   -0.6462   63.0730   78.2099 N   0  0  0  0  0  0  0  0  0  0  0  0
    0.2975   62.8731   79.3380 C   0  0  0  0  0  0  0  0  0  0  0  0
   -0.3263   62.0519   80.4868 C   0  0  0  0  0  0  0  0  0  0  0  0
   -0.6932   65.2285   76.8382 C   0  0  0  0  0  0  0  0  0  0  0  0
   -0.0470   63.8483   77.1130 C   0  0  0  0  0  0  0  0  0  0  0  0
   -0.8080   64.3204   87.3515 O   0  0  0  0  0  0  0  0  0  0  0  0
    0.4301   63.0015   88.8255 C   0  0  0  0  0  0  0  0  0  0  0  0
   -0.8552   63.8263   88.6972 C   0  0  0  0  0  0  0  0  0  0  0  0
 34 35  1  0  0  0
 35 33  1  0  0  0
 33  1  1  0  0  0
  1  2  2  0  0  0
  1  6  1  0  0  0
  2  3  1  0  0  0
  3  4  2  0  0  0
  4  5  1  0  0  0
  4 22  1  0  0  0
  5  6  2  0  0  0
  6  7  1  0  0  0
 22 23  2  0  0  0
 22 24  2  0  0  0
 22 25  1  0  0  0
 31 32  1  0  0  0
 25 26  1  0  0  0
 25 30  1  0  0  0
 26 27  1  0  0  0
 27 28  1  0  0  0
 28 29  1  0  0  0
 28 32  1  0  0  0
 29 30  1  0  0  0
  7  8  2  0  0  0
  7 12  1  0  0  0
  8  9  1  0  0  0
  9 10  1  0  0  0
  9 13  2  0  0  0
 10 11  1  0  0  0
 10 14  2  0  0  0
 11 12  1  0  0  0
 11 16  1  0  0  0
 14 15  1  0  0  0
 14 17  1  0  0  0
 15 16  2  0  0  0
 16 19  1  0  0  0
 19 20  1  0  0  0
 20 21  1  0  0  0
 12 18  1  0  0  0
M  END
> <minimizedAffinity>
-9.27617

$$$$
1UHO_VDN_A_1000


 35 38  0  0  0  0  0  0  0  0999 V2000
    4.3711   65.8704   85.9835 C   0  0  0  0  0  0  0  0  0  0  0  0
    4.4481   65.0734   87.1142 C   0  0  0  0  0  0  0  0  0  0  0  0
    3.2460   64.4530   87.6988 C   0  0  0  0  0  0  0  0  0  0  0  0
    2.0114   64.6703   87.1184 C   0  0  0  0  0  0  0  0  0  0  0  0
    1.9006   65.5245   85.9047 C   0  0  0  0  0  0  0  0  0  0  0  0
    2.9768   66.1065   85.3435 C   0  0  0  0  0  0  0  0  0  0  0  0
    2.8081   66.9326   84.1348 C   0  0  0  0  0  0  0  0  0  0  0  0
    3.5165   68.0833   83.9456 N   0  0  0  0  0  0  0  0  0  0  0  0
    3.4493   68.9523   82.8297 C   0  0  0  0  0  0  0  0  0  0  0  0
    2.4838   68.4920   81.7988 C   0  0  0  0  0  0  0  0  0  0  0  0
    1.7719   67.2752   82.0651 N   0  0  0  0  0  0  0  0  0  0  0  0
    1.9353   66.5394   83.1750 N   0  0  0  0  0  0  0  0  0  0  0  0
    4.1255   69.9580   82.7557 O   0  0  0  0  0  0  0  0  0  0  0  0
    1.9601   68.8282   80.5535 C   0  0  0  0  0  0  0  0  0  0  0  0
    0.9854   67.8793   80.0797 N   0  0  0  0  0  0  0  0  0  0  0  0
    0.9370   66.9974   81.0242 C   0  0  0  0  0  0  0  0  0  0  0  0
    2.3617   70.0623   79.7528 C   0  0  0  0  0  0  0  0  0  0  0  0
    1.4187   65.7096   83.2930 H   0  0  0  0  0  0  0  0  0  0  0  0
    0.0761   65.7424   81.0765 C   0  0  0  0  0  0  0  0  0  0  0  0
    0.4526   64.6136   80.0839 C   0  0  0  0  0  0  0  0  0  0  0  0
    0.3859   63.2483   80.7699 C   0  0  0  0  0  0  0  0  0  0  0  0
    0.5490   63.9769   87.7672 S   0  0  0  0  0  0  0  0  0  0  0  0
    0.9237   62.7337   88.4062 O   0  0  0  0  0  0  0  0  0  0  0  0
    0.0007   64.9704   88.6698 O   0  0  0  0  0  0  0  0  0  0  0  0
   -0.5034   63.7023   86.5110 N   0  0  0  0  0  0  0  0  0  0  0  0
   -1.8222   63.1575   86.9318 C   0  0  0  0  0  0  0  0  0  0  0  0
   -2.7522   62.8506   85.7356 C   0  0  0  0  0  0  0  0  0  0  0  0
   -2.1001   61.9048   84.8005 N   0  0  0  0  0  0  0  0  0  0  0  0
   -0.8149   62.4851   84.3371 C   0  0  0  0  0  0  0  0  0  0  0  0
    0.1341   62.8202   85.5077 C   0  0  0  0  0  0  0  0  0  0  0  0
   -2.9170   62.5244   82.4600 C   0  0  0  0  0  0  0  0  0  0  0  0
   -2.9991   61.5785   83.6832 C   0  0  0  0  0  0  0  0  0  0  0  0
    5.4224   66.4989   85.3471 O   0  0  0  0  0  0  0  0  0  0  0  0
    7.7178   66.2812   84.9887 C   0  0  0  0  0  0  0  0  0  0  0  0
    6.6731   66.8889   85.9310 C   0  0  0  0  0  0  0  0  0  0  0  0
 34 35  1  0  0  0
 35 33  1  0  0  0
 33  1  1  0  0  0
  1  2  2  0  0  0
  1  6  1  0  0  0
  2  3  1  0  0  0
  3  4  2  0  0  0
  4  5  1  0  0  0
  4 22  1  0  0  0
  5  6  2  0  0  0
  6  7  1  0  0  0
 22 23  2  0  0  0
 22 24  2  0  0  0
 22 25  1  0  0  0
 31 32  1  0  0  0
 25 26  1  0  0  0
 25 30  1  0  0  0
 26 27  1  0  0  0
 27 28  1  0  0  0
 28 29  1  0  0  0
 28 32  1  0  0  0
 29 30  1  0  0  0
  7  8  2  0  0  0
  7 12  1  0  0  0
  8  9  1  0  0  0
  9 10  1  0  0  0
  9 13  2  0  0  0
 10 11  1  0  0  0
 10 14  2  0  0  0
 11 12  1  0  0  0
 11 16  1  0  0  0
 14 15  1  0  0  0
 14 17  1  0  0  0
 15 16  2  0  0  0
 16 19  1  0  0  0
 19 20  1  0  0  0
 20 21  1  0  0  0
 12 18  1  0  0  0
M  END
> <minimizedAffinity>
-8.88340

$$$$
