3NU4_478_B_401


 39 41  0  0  0  0  0  0  0  0999 V2000
   15.3757   23.7025   18.1004 C   0  0  0  0  0  0  0  0  0  0  0  0
   14.2937   24.5414   18.5139 O   0  0  0  0  0  0  0  0  0  0  0  0
   13.9380   25.0131   17.7446 H   0  0  0  0  0  0  0  0  0  0  0  0
   14.8763   22.6341   17.1497 C   0  0  0  0  0  0  0  0  0  0  0  0
   14.4556   20.4295   18.2811 C   0  0  0  0  0  0  0  0  0  0  0  0
   14.0915   21.6710   17.8986 N   0  0  0  0  0  0  0  0  0  0  0  0
   15.5552   19.9280   18.1138 O   0  0  0  0  0  0  0  0  0  0  0  0
   13.1861   21.9571   18.1585 H   0  0  0  0  0  0  0  0  0  0  0  0
   13.4641   19.7777   18.9667 O   0  0  0  0  0  0  0  0  0  0  0  0
   12.5004   17.7568   19.7902 C   0  0  0  0  0  0  0  0  0  0  0  0
   14.2616   18.8177   20.9860 C   0  0  0  0  0  0  0  0  0  0  0  0
   13.8094   18.5206   19.5515 C   0  0  0  0  0  0  0  0  0  0  0  0
   13.1611   18.2347   21.8680 C   0  0  0  0  0  0  0  0  0  0  0  0
   11.9777   18.2358   21.0562 O   0  0  0  0  0  0  0  0  0  0  0  0
   14.0322   23.0981   15.9718 C   0  0  0  0  0  0  0  0  0  0  0  0
   13.6511   22.0307   14.9978 C   0  0  0  0  0  0  0  0  0  0  0  0
   12.3751   21.4811   14.9914 C   0  0  0  0  0  0  0  0  0  0  0  0
   14.6078   21.5344   14.1158 C   0  0  0  0  0  0  0  0  0  0  0  0
   12.1297   20.3881   14.1382 C   0  0  0  0  0  0  0  0  0  0  0  0
   14.3672   20.4950   13.2268 C   0  0  0  0  0  0  0  0  0  0  0  0
   13.1076   19.9316   13.2597 C   0  0  0  0  0  0  0  0  0  0  0  0
   16.4937   24.5743   17.5458 C   0  0  0  0  0  0  0  0  0  0  0  0
   17.7859   23.9395   17.5122 N   0  0  0  0  0  0  0  0  0  0  0  0
   17.5987   23.1416   15.1272 O   0  0  0  0  0  0  0  0  0  0  0  0
   19.7557   22.8238   16.4184 O   0  0  0  0  0  0  0  0  0  0  0  0
   18.5761   23.6699   16.0914 S   0  0  0  0  0  0  0  0  0  0  0  0
   19.1541   25.1629   15.3837 C   0  0  0  0  0  0  0  0  0  0  0  0
   20.4912   25.5074   15.4411 C   0  0  0  0  0  0  0  0  0  0  0  0
   21.0608   26.6038   14.7975 C   0  0  0  0  0  0  0  0  0  0  0  0
   20.2173   27.4049   14.0419 C   0  0  0  0  0  0  0  0  0  0  0  0
   18.8659   27.1126   14.0313 C   0  0  0  0  0  0  0  0  0  0  0  0
   18.3025   25.9861   14.6151 C   0  0  0  0  0  0  0  0  0  0  0  0
   20.7161   28.5278   13.4531 N   0  0  0  0  0  0  0  0  0  0  0  0
   21.6837   28.7081   13.4776 H   0  0  0  0  0  0  0  0  0  0  0  0
   20.1091   29.1588   13.0032 H   0  0  0  0  0  0  0  0  0  0  0  0
   18.6394   24.3104   18.6368 C   0  0  0  0  0  0  0  0  0  0  0  0
   18.3650   23.4783   19.9205 C   0  0  0  0  0  0  0  0  0  0  0  0
   18.5821   22.0097   19.6169 C   0  0  0  0  0  0  0  0  0  0  0  0
   19.3702   23.9300   21.0107 C   0  0  0  0  0  0  0  0  0  0  0  0
 10 12  1  0  0  0
 10 14  1  0  0  0
 11 12  1  0  0  0
 11 13  1  0  0  0
  5  6  1  0  0  0
  5  9  1  0  0  0
  5  7  2  0  0  0
 12  9  1  0  0  0
  4  1  1  0  0  0
  4 15  1  0  0  0
  4  6  1  0  0  0
  1 22  1  0  0  0
  1  2  1  0  0  0
 15 16  1  0  0  0
 16 17  2  0  0  0
 16 18  1  0  0  0
 17 19  1  0  0  0
 18 20  2  0  0  0
 19 21  2  0  0  0
 20 21  1  0  0  0
 22 23  1  0  0  0
 36 37  1  0  0  0
 36 23  1  0  0  0
 37 38  1  0  0  0
 37 39  1  0  0  0
 27 28  2  0  0  0
 27 32  1  0  0  0
 27 26  1  0  0  0
 28 29  1  0  0  0
 29 30  2  0  0  0
 30 31  1  0  0  0
 30 33  1  0  0  0
 31 32  2  0  0  0
 13 14  1  0  0  0
 23 26  1  0  0  0
 24 26  2  0  0  0
 25 26  2  0  0  0
  6  8  1  0  0  0
 33 34  1  0  0  0
 33 35  1  0  0  0
  2  3  1  0  0  0
M  END
> <minimizedAffinity>
-10.01635

$$$$
3NU4_478_B_401


 39 41  0  0  0  0  0  0  0  0999 V2000
   14.5049   22.0772   17.5350 C   0  0  0  0  0  0  0  0  0  0  0  0
   13.7642   22.6890   16.4756 O   0  0  0  0  0  0  0  0  0  0  0  0
   13.7741   22.1097   15.6976 H   0  0  0  0  0  0  0  0  0  0  0  0
   13.8357   20.7882   17.9656 C   0  0  0  0  0  0  0  0  0  0  0  0
   11.8492   19.8042   16.7812 C   0  0  0  0  0  0  0  0  0  0  0  0
   13.1299   20.2254   16.8300 N   0  0  0  0  0  0  0  0  0  0  0  0
   11.0367   19.8927   17.6872 O   0  0  0  0  0  0  0  0  0  0  0  0
   13.6466   20.1408   15.9963 H   0  0  0  0  0  0  0  0  0  0  0  0
   11.5033   19.3118   15.5499 O   0  0  0  0  0  0  0  0  0  0  0  0
   11.4377   20.7695   13.6627 C   0  0  0  0  0  0  0  0  0  0  0  0
   12.3470   18.5815   13.4547 C   0  0  0  0  0  0  0  0  0  0  0  0
   12.2863   19.7547   14.4398 C   0  0  0  0  0  0  0  0  0  0  0  0
   11.5094   19.0333   12.2617 C   0  0  0  0  0  0  0  0  0  0  0  0
   10.5805   19.9931   12.7864 O   0  0  0  0  0  0  0  0  0  0  0  0
   14.7347   19.6999   18.5332 C   0  0  0  0  0  0  0  0  0  0  0  0
   14.1972   18.9860   19.7311 C   0  0  0  0  0  0  0  0  0  0  0  0
   13.3113   17.9236   19.6013 C   0  0  0  0  0  0  0  0  0  0  0  0
   14.5441   19.4280   21.0053 C   0  0  0  0  0  0  0  0  0  0  0  0
   12.7433   17.3888   20.7735 C   0  0  0  0  0  0  0  0  0  0  0  0
   14.0380   18.8753   22.1744 C   0  0  0  0  0  0  0  0  0  0  0  0
   13.1281   17.8476   22.0296 C   0  0  0  0  0  0  0  0  0  0  0  0
   15.9561   21.9255   17.1008 C   0  0  0  0  0  0  0  0  0  0  0  0
   16.8334   22.9646   17.5741 N   0  0  0  0  0  0  0  0  0  0  0  0
   16.4622   25.4395   17.8861 O   0  0  0  0  0  0  0  0  0  0  0  0
   16.0359   24.3541   15.6365 O   0  0  0  0  0  0  0  0  0  0  0  0
   16.8625   24.4542   16.8698 S   0  0  0  0  0  0  0  0  0  0  0  0
   18.4859   24.9135   16.4035 C   0  0  0  0  0  0  0  0  0  0  0  0
   19.2389   25.7646   17.1899 C   0  0  0  0  0  0  0  0  0  0  0  0
   20.5775   26.0807   16.9681 C   0  0  0  0  0  0  0  0  0  0  0  0
   21.1959   25.4918   15.8750 C   0  0  0  0  0  0  0  0  0  0  0  0
   20.4367   24.6929   15.0399 C   0  0  0  0  0  0  0  0  0  0  0  0
   19.1228   24.3215   15.2910 C   0  0  0  0  0  0  0  0  0  0  0  0
   22.4827   25.8266   15.5777 N   0  0  0  0  0  0  0  0  0  0  0  0
   22.9975   26.3975   16.1928 H   0  0  0  0  0  0  0  0  0  0  0  0
   22.8977   25.4977   14.7477 H   0  0  0  0  0  0  0  0  0  0  0  0
   17.0022   22.9600   19.0241 C   0  0  0  0  0  0  0  0  0  0  0  0
   18.4902   22.9279   19.4720 C   0  0  0  0  0  0  0  0  0  0  0  0
   18.6712   23.8486   20.6618 C   0  0  0  0  0  0  0  0  0  0  0  0
   18.8352   21.4758   19.8908 C   0  0  0  0  0  0  0  0  0  0  0  0
 10 12  1  0  0  0
 10 14  1  0  0  0
 11 12  1  0  0  0
 11 13  1  0  0  0
  5  6  1  0  0  0
  5  9  1  0  0  0
  5  7  2  0  0  0
 12  9  1  0  0  0
  4  1  1  0  0  0
  4 15  1  0  0  0
  4  6  1  0  0  0
  1 22  1  0  0  0
  1  2  1  0  0  0
 15 16  1  0  0  0
 16 17  2  0  0  0
 16 18  1  0  0  0
 17 19  1  0  0  0
 18 20  2  0  0  0
 19 21  2  0  0  0
 20 21  1  0  0  0
 22 23  1  0  0  0
 36 37  1  0  0  0
 36 23  1  0  0  0
 37 38  1  0  0  0
 37 39  1  0  0  0
 27 28  2  0  0  0
 27 32  1  0  0  0
 27 26  1  0  0  0
 28 29  1  0  0  0
 29 30  2  0  0  0
 30 31  1  0  0  0
 30 33  1  0  0  0
 31 32  2  0  0  0
 13 14  1  0  0  0
 23 26  1  0  0  0
 24 26  2  0  0  0
 25 26  2  0  0  0
  6  8  1  0  0  0
 33 34  1  0  0  0
 33 35  1  0  0  0
  2  3  1  0  0  0
M  END
> <minimizedAffinity>
-9.77057

$$$$
3NU4_478_B_401


 39 41  0  0  0  0  0  0  0  0999 V2000
   15.6022   23.6250   17.7989 C   0  0  0  0  0  0  0  0  0  0  0  0
   14.6348   24.5089   18.3718 O   0  0  0  0  0  0  0  0  0  0  0  0
   14.1764   24.9888   17.6644 H   0  0  0  0  0  0  0  0  0  0  0  0
   14.9141   22.5704   16.9567 C   0  0  0  0  0  0  0  0  0  0  0  0
   14.3337   20.5037   18.2640 C   0  0  0  0  0  0  0  0  0  0  0  0
   14.0825   21.7522   17.8189 N   0  0  0  0  0  0  0  0  0  0  0  0
   15.3570   19.8701   18.0638 O   0  0  0  0  0  0  0  0  0  0  0  0
   13.2345   22.1559   18.1142 H   0  0  0  0  0  0  0  0  0  0  0  0
   13.3269   20.0138   19.0542 O   0  0  0  0  0  0  0  0  0  0  0  0
   11.9592   18.1581   19.6678 C   0  0  0  0  0  0  0  0  0  0  0  0
   14.0218   18.5472   20.7867 C   0  0  0  0  0  0  0  0  0  0  0  0
   13.3935   18.6267   19.3904 C   0  0  0  0  0  0  0  0  0  0  0  0
   12.8867   18.0870   21.6969 C   0  0  0  0  0  0  0  0  0  0  0  0
   11.6787   18.5094   21.0475 O   0  0  0  0  0  0  0  0  0  0  0  0
   14.0430   23.0626   15.8105 C   0  0  0  0  0  0  0  0  0  0  0  0
   13.5054   21.9965   14.9118 C   0  0  0  0  0  0  0  0  0  0  0  0
   12.1536   21.6754   14.9007 C   0  0  0  0  0  0  0  0  0  0  0  0
   14.3818   21.2694   14.1102 C   0  0  0  0  0  0  0  0  0  0  0  0
   11.7422   20.5713   14.1297 C   0  0  0  0  0  0  0  0  0  0  0  0
   13.9853   20.2140   13.2995 C   0  0  0  0  0  0  0  0  0  0  0  0
   12.6465   19.8799   13.3292 C   0  0  0  0  0  0  0  0  0  0  0  0
   16.6468   24.4479   17.0579 C   0  0  0  0  0  0  0  0  0  0  0  0
   17.8122   24.7763   17.8376 N   0  0  0  0  0  0  0  0  0  0  0  0
   18.7245   22.4895   18.3835 O   0  0  0  0  0  0  0  0  0  0  0  0
   17.3351   23.7535   20.0842 O   0  0  0  0  0  0  0  0  0  0  0  0
   18.3713   23.7696   19.0164 S   0  0  0  0  0  0  0  0  0  0  0  0
   19.8641   24.3615   19.7128 C   0  0  0  0  0  0  0  0  0  0  0  0
   19.8625   25.0903   20.8870 C   0  0  0  0  0  0  0  0  0  0  0  0
   21.0033   25.4885   21.5804 C   0  0  0  0  0  0  0  0  0  0  0  0
   22.2303   25.1207   21.0479 C   0  0  0  0  0  0  0  0  0  0  0  0
   22.2494   24.4515   19.8381 C   0  0  0  0  0  0  0  0  0  0  0  0
   21.1177   23.9947   19.1764 C   0  0  0  0  0  0  0  0  0  0  0  0
   23.3738   25.5485   21.6528 N   0  0  0  0  0  0  0  0  0  0  0  0
   23.3272   26.0224   22.5144 H   0  0  0  0  0  0  0  0  0  0  0  0
   24.2466   25.3836   21.2282 H   0  0  0  0  0  0  0  0  0  0  0  0
   18.8439   25.4659   17.0690 C   0  0  0  0  0  0  0  0  0  0  0  0
   18.8538   25.0794   15.5636 C   0  0  0  0  0  0  0  0  0  0  0  0
   18.8681   26.3423   14.7263 C   0  0  0  0  0  0  0  0  0  0  0  0
   20.1430   24.2651   15.2844 C   0  0  0  0  0  0  0  0  0  0  0  0
 10 12  1  0  0  0
 10 14  1  0  0  0
 11 12  1  0  0  0
 11 13  1  0  0  0
  5  6  1  0  0  0
  5  9  1  0  0  0
  5  7  2  0  0  0
 12  9  1  0  0  0
  4  1  1  0  0  0
  4 15  1  0  0  0
  4  6  1  0  0  0
  1 22  1  0  0  0
  1  2  1  0  0  0
 15 16  1  0  0  0
 16 17  2  0  0  0
 16 18  1  0  0  0
 17 19  1  0  0  0
 18 20  2  0  0  0
 19 21  2  0  0  0
 20 21  1  0  0  0
 22 23  1  0  0  0
 36 37  1  0  0  0
 36 23  1  0  0  0
 37 38  1  0  0  0
 37 39  1  0  0  0
 27 28  2  0  0  0
 27 32  1  0  0  0
 27 26  1  0  0  0
 28 29  1  0  0  0
 29 30  2  0  0  0
 30 31  1  0  0  0
 30 33  1  0  0  0
 31 32  2  0  0  0
 13 14  1  0  0  0
 23 26  1  0  0  0
 24 26  2  0  0  0
 25 26  2  0  0  0
  6  8  1  0  0  0
 33 34  1  0  0  0
 33 35  1  0  0  0
  2  3  1  0  0  0
M  END
> <minimizedAffinity>
-9.49588

$$$$
3NU4_478_B_401


 39 41  0  0  0  0  0  0  0  0999 V2000
   14.5232   22.0387   17.4131 C   0  0  0  0  0  0  0  0  0  0  0  0
   13.7265   22.7425   16.4563 O   0  0  0  0  0  0  0  0  0  0  0  0
   13.6072   22.1914   15.6670 H   0  0  0  0  0  0  0  0  0  0  0  0
   13.8012   20.7915   17.8798 C   0  0  0  0  0  0  0  0  0  0  0  0
   11.7380   19.8308   16.8133 C   0  0  0  0  0  0  0  0  0  0  0  0
   13.0141   20.2672   16.7799 N   0  0  0  0  0  0  0  0  0  0  0  0
   10.9985   19.8700   17.7831 O   0  0  0  0  0  0  0  0  0  0  0  0
   13.4644   20.2248   15.9054 H   0  0  0  0  0  0  0  0  0  0  0  0
   11.3014   19.3858   15.5929 O   0  0  0  0  0  0  0  0  0  0  0  0
   11.5106   20.6922   13.6078 C   0  0  0  0  0  0  0  0  0  0  0  0
   12.0576   18.3775   13.5812 C   0  0  0  0  0  0  0  0  0  0  0  0
   12.1678   19.6147   14.4801 C   0  0  0  0  0  0  0  0  0  0  0  0
   11.3283   18.8685   12.3338 C   0  0  0  0  0  0  0  0  0  0  0  0
   10.5567   20.0006   12.7609 O   0  0  0  0  0  0  0  0  0  0  0  0
   14.6610   19.6548   18.4124 C   0  0  0  0  0  0  0  0  0  0  0  0
   14.1505   18.9924   19.6510 C   0  0  0  0  0  0  0  0  0  0  0  0
   13.2682   17.9211   19.5857 C   0  0  0  0  0  0  0  0  0  0  0  0
   14.5192   19.4924   20.8974 C   0  0  0  0  0  0  0  0  0  0  0  0
   12.7256   17.4364   20.7912 C   0  0  0  0  0  0  0  0  0  0  0  0
   14.0385   18.9899   22.0994 C   0  0  0  0  0  0  0  0  0  0  0  0
   13.1318   17.9525   22.0181 C   0  0  0  0  0  0  0  0  0  0  0  0
   15.9032   21.7899   16.8205 C   0  0  0  0  0  0  0  0  0  0  0  0
   16.9576   22.5723   17.4119 N   0  0  0  0  0  0  0  0  0  0  0  0
   18.2573   20.9022   18.7835 O   0  0  0  0  0  0  0  0  0  0  0  0
   16.4540   22.3183   19.8620 O   0  0  0  0  0  0  0  0  0  0  0  0
   17.5775   22.2021   18.8932 S   0  0  0  0  0  0  0  0  0  0  0  0
   18.8273   23.3319   19.3681 C   0  0  0  0  0  0  0  0  0  0  0  0
   18.6654   24.1518   20.4687 C   0  0  0  0  0  0  0  0  0  0  0  0
   19.6509   24.9835   20.9958 C   0  0  0  0  0  0  0  0  0  0  0  0
   20.8864   24.9824   20.3650 C   0  0  0  0  0  0  0  0  0  0  0  0
   21.0417   24.2199   19.2220 C   0  0  0  0  0  0  0  0  0  0  0  0
   20.0870   23.3401   18.7303 C   0  0  0  0  0  0  0  0  0  0  0  0
   21.8577   25.8323   20.8016 N   0  0  0  0  0  0  0  0  0  0  0  0
   21.7171   26.3619   21.6195 H   0  0  0  0  0  0  0  0  0  0  0  0
   22.7001   25.9167   20.2992 H   0  0  0  0  0  0  0  0  0  0  0  0
   17.9280   23.0616   16.4373 C   0  0  0  0  0  0  0  0  0  0  0  0
   17.5050   24.3960   15.7618 C   0  0  0  0  0  0  0  0  0  0  0  0
   17.2230   25.4286   16.8343 C   0  0  0  0  0  0  0  0  0  0  0  0
   18.6825   24.8827   14.8790 C   0  0  0  0  0  0  0  0  0  0  0  0
 10 12  1  0  0  0
 10 14  1  0  0  0
 11 12  1  0  0  0
 11 13  1  0  0  0
  5  6  1  0  0  0
  5  9  1  0  0  0
  5  7  2  0  0  0
 12  9  1  0  0  0
  4  1  1  0  0  0
  4 15  1  0  0  0
  4  6  1  0  0  0
  1 22  1  0  0  0
  1  2  1  0  0  0
 15 16  1  0  0  0
 16 17  2  0  0  0
 16 18  1  0  0  0
 17 19  1  0  0  0
 18 20  2  0  0  0
 19 21  2  0  0  0
 20 21  1  0  0  0
 22 23  1  0  0  0
 36 37  1  0  0  0
 36 23  1  0  0  0
 37 38  1  0  0  0
 37 39  1  0  0  0
 27 28  2  0  0  0
 27 32  1  0  0  0
 27 26  1  0  0  0
 28 29  1  0  0  0
 29 30  2  0  0  0
 30 31  1  0  0  0
 30 33  1  0  0  0
 31 32  2  0  0  0
 13 14  1  0  0  0
 23 26  1  0  0  0
 24 26  2  0  0  0
 25 26  2  0  0  0
  6  8  1  0  0  0
 33 34  1  0  0  0
 33 35  1  0  0  0
  2  3  1  0  0  0
M  END
> <minimizedAffinity>
-9.42842

$$$$
3NU4_478_B_401


 39 41  0  0  0  0  0  0  0  0999 V2000
   18.4016   22.3853   18.5296 C   0  0  0  0  0  0  0  0  0  0  0  0
   19.2935   21.5150   19.2315 O   0  0  0  0  0  0  0  0  0  0  0  0
   19.8682   21.0602   18.5961 H   0  0  0  0  0  0  0  0  0  0  0  0
   19.1815   23.4724   17.8192 C   0  0  0  0  0  0  0  0  0  0  0  0
   20.4885   24.5235   19.6911 C   0  0  0  0  0  0  0  0  0  0  0  0
   20.3806   23.7628   18.5821 N   0  0  0  0  0  0  0  0  0  0  0  0
   19.5616   25.0486   20.2859 O   0  0  0  0  0  0  0  0  0  0  0  0
   21.2143   23.3567   18.2516 H   0  0  0  0  0  0  0  0  0  0  0  0
   21.7763   24.6007   20.1535 O   0  0  0  0  0  0  0  0  0  0  0  0
   22.4810   26.8432   20.5599 C   0  0  0  0  0  0  0  0  0  0  0  0
   23.3064   25.0658   21.9078 C   0  0  0  0  0  0  0  0  0  0  0  0
   22.0231   25.5309   21.2095 C   0  0  0  0  0  0  0  0  0  0  0  0
   24.3461   26.1254   21.5540 C   0  0  0  0  0  0  0  0  0  0  0  0
   23.9039   26.6984   20.3148 O   0  0  0  0  0  0  0  0  0  0  0  0
   19.6058   23.1926   16.3850 C   0  0  0  0  0  0  0  0  0  0  0  0
   19.5456   24.3645   15.4597 C   0  0  0  0  0  0  0  0  0  0  0  0
   20.6852   25.0930   15.1418 C   0  0  0  0  0  0  0  0  0  0  0  0
   18.3156   24.7723   14.9492 C   0  0  0  0  0  0  0  0  0  0  0  0
   20.5298   26.2626   14.3734 C   0  0  0  0  0  0  0  0  0  0  0  0
   18.1514   25.8907   14.1426 C   0  0  0  0  0  0  0  0  0  0  0  0
   19.2856   26.6278   13.8683 C   0  0  0  0  0  0  0  0  0  0  0  0
   17.5062   21.5507   17.6244 C   0  0  0  0  0  0  0  0  0  0  0  0
   16.1067   21.8818   17.6982 N   0  0  0  0  0  0  0  0  0  0  0  0
   14.2736   23.0151   19.0081 O   0  0  0  0  0  0  0  0  0  0  0  0
   16.3725   22.2091   20.1768 O   0  0  0  0  0  0  0  0  0  0  0  0
   15.3234   21.9934   19.1438 S   0  0  0  0  0  0  0  0  0  0  0  0
   14.4724   20.5134   19.5302 C   0  0  0  0  0  0  0  0  0  0  0  0
   14.7880   19.7849   20.6613 C   0  0  0  0  0  0  0  0  0  0  0  0
   14.0831   18.6728   21.1165 C   0  0  0  0  0  0  0  0  0  0  0  0
   12.9811   18.2729   20.3750 C   0  0  0  0  0  0  0  0  0  0  0  0
   12.6945   18.9495   19.2037 C   0  0  0  0  0  0  0  0  0  0  0  0
   13.3512   20.0968   18.7798 C   0  0  0  0  0  0  0  0  0  0  0  0
   12.3041   17.1489   20.7418 N   0  0  0  0  0  0  0  0  0  0  0  0
   12.5317   16.6894   21.5823 H   0  0  0  0  0  0  0  0  0  0  0  0
   11.5873   16.7961   20.1665 H   0  0  0  0  0  0  0  0  0  0  0  0
   15.6900   22.8514   16.6897 C   0  0  0  0  0  0  0  0  0  0  0  0
   14.7810   22.2419   15.5862 C   0  0  0  0  0  0  0  0  0  0  0  0
   13.5978   23.1597   15.3539 C   0  0  0  0  0  0  0  0  0  0  0  0
   15.6120   22.1373   14.2818 C   0  0  0  0  0  0  0  0  0  0  0  0
 10 12  1  0  0  0
 10 14  1  0  0  0
 11 12  1  0  0  0
 11 13  1  0  0  0
  5  6  1  0  0  0
  5  9  1  0  0  0
  5  7  2  0  0  0
 12  9  1  0  0  0
  4  1  1  0  0  0
  4 15  1  0  0  0
  4  6  1  0  0  0
  1 22  1  0  0  0
  1  2  1  0  0  0
 15 16  1  0  0  0
 16 17  2  0  0  0
 16 18  1  0  0  0
 17 19  1  0  0  0
 18 20  2  0  0  0
 19 21  2  0  0  0
 20 21  1  0  0  0
 22 23  1  0  0  0
 36 37  1  0  0  0
 36 23  1  0  0  0
 37 38  1  0  0  0
 37 39  1  0  0  0
 27 28  2  0  0  0
 27 32  1  0  0  0
 27 26  1  0  0  0
 28 29  1  0  0  0
 29 30  2  0  0  0
 30 31  1  0  0  0
 30 33  1  0  0  0
 31 32  2  0  0  0
 13 14  1  0  0  0
 23 26  1  0  0  0
 24 26  2  0  0  0
 25 26  2  0  0  0
  6  8  1  0  0  0
 33 34  1  0  0  0
 33 35  1  0  0  0
  2  3  1  0  0  0
M  END
> <minimizedAffinity>
-9.33137

$$$$
3NU4_478_B_401


 39 41  0  0  0  0  0  0  0  0999 V2000
   15.0318   22.5152   18.3672 C   0  0  0  0  0  0  0  0  0  0  0  0
   14.1486   23.1424   19.3010 O   0  0  0  0  0  0  0  0  0  0  0  0
   13.5407   22.4804   19.6658 H   0  0  0  0  0  0  0  0  0  0  0  0
   15.9006   21.4942   19.0725 C   0  0  0  0  0  0  0  0  0  0  0  0
   17.6400   23.2946   19.2967 C   0  0  0  0  0  0  0  0  0  0  0  0
   17.2540   22.0095   19.1566 N   0  0  0  0  0  0  0  0  0  0  0  0
   16.8941   24.2485   19.4470 O   0  0  0  0  0  0  0  0  0  0  0  0
   17.9763   21.3426   19.1054 H   0  0  0  0  0  0  0  0  0  0  0  0
   19.0028   23.4347   19.3286 O   0  0  0  0  0  0  0  0  0  0  0  0
   20.8677   24.8825   18.9869 C   0  0  0  0  0  0  0  0  0  0  0  0
   19.9128   24.6509   21.1530 C   0  0  0  0  0  0  0  0  0  0  0  0
   19.5062   24.7258   19.6765 C   0  0  0  0  0  0  0  0  0  0  0  0
   21.4366   24.7330   21.1401 C   0  0  0  0  0  0  0  0  0  0  0  0
   21.8368   24.2384   19.8538 O   0  0  0  0  0  0  0  0  0  0  0  0
   15.4788   21.0796   20.4744 C   0  0  0  0  0  0  0  0  0  0  0  0
   14.7027   19.8053   20.5586 C   0  0  0  0  0  0  0  0  0  0  0  0
   14.4539   19.0353   19.4292 C   0  0  0  0  0  0  0  0  0  0  0  0
   14.1679   19.4080   21.7816 C   0  0  0  0  0  0  0  0  0  0  0  0
   13.6029   17.9214   19.5621 C   0  0  0  0  0  0  0  0  0  0  0  0
   13.3734   18.2805   21.9427 C   0  0  0  0  0  0  0  0  0  0  0  0
   13.1011   17.5477   20.8052 C   0  0  0  0  0  0  0  0  0  0  0  0
   14.2147   21.9619   17.2081 C   0  0  0  0  0  0  0  0  0  0  0  0
   14.5979   22.4631   15.9136 N   0  0  0  0  0  0  0  0  0  0  0  0
   15.9927   22.1070   13.8429 O   0  0  0  0  0  0  0  0  0  0  0  0
   16.6719   21.0477   16.0423 O   0  0  0  0  0  0  0  0  0  0  0  0
   16.1088   22.2116   15.3057 S   0  0  0  0  0  0  0  0  0  0  0  0
   17.1514   23.5900   15.5832 C   0  0  0  0  0  0  0  0  0  0  0  0
   18.5227   23.4405   15.6657 C   0  0  0  0  0  0  0  0  0  0  0  0
   19.4357   24.4892   15.7538 C   0  0  0  0  0  0  0  0  0  0  0  0
   18.9232   25.7782   15.7563 C   0  0  0  0  0  0  0  0  0  0  0  0
   17.5502   25.9412   15.7442 C   0  0  0  0  0  0  0  0  0  0  0  0
   16.6387   24.9056   15.5900 C   0  0  0  0  0  0  0  0  0  0  0  0
   19.7725   26.8320   15.9126 N   0  0  0  0  0  0  0  0  0  0  0  0
   20.7457   26.6835   15.9169 H   0  0  0  0  0  0  0  0  0  0  0  0
   19.4130   27.7421   16.0211 H   0  0  0  0  0  0  0  0  0  0  0  0
   13.5177   22.4122   14.9332 C   0  0  0  0  0  0  0  0  0  0  0  0
   12.6544   21.1236   15.0326 C   0  0  0  0  0  0  0  0  0  0  0  0
   11.2207   21.4566   14.6721 C   0  0  0  0  0  0  0  0  0  0  0  0
   13.2112   20.0920   14.0182 C   0  0  0  0  0  0  0  0  0  0  0  0
 10 12  1  0  0  0
 10 14  1  0  0  0
 11 12  1  0  0  0
 11 13  1  0  0  0
  5  6  1  0  0  0
  5  9  1  0  0  0
  5  7  2  0  0  0
 12  9  1  0  0  0
  4  1  1  0  0  0
  4 15  1  0  0  0
  4  6  1  0  0  0
  1 22  1  0  0  0
  1  2  1  0  0  0
 15 16  1  0  0  0
 16 17  2  0  0  0
 16 18  1  0  0  0
 17 19  1  0  0  0
 18 20  2  0  0  0
 19 21  2  0  0  0
 20 21  1  0  0  0
 22 23  1  0  0  0
 36 37  1  0  0  0
 36 23  1  0  0  0
 37 38  1  0  0  0
 37 39  1  0  0  0
 27 28  2  0  0  0
 27 32  1  0  0  0
 27 26  1  0  0  0
 28 29  1  0  0  0
 29 30  2  0  0  0
 30 31  1  0  0  0
 30 33  1  0  0  0
 31 32  2  0  0  0
 13 14  1  0  0  0
 23 26  1  0  0  0
 24 26  2  0  0  0
 25 26  2  0  0  0
  6  8  1  0  0  0
 33 34  1  0  0  0
 33 35  1  0  0  0
  2  3  1  0  0  0
M  END
> <minimizedAffinity>
-9.20001

$$$$
3NU4_478_B_401


 39 41  0  0  0  0  0  0  0  0999 V2000
   17.6209   21.9203   18.2966 C   0  0  0  0  0  0  0  0  0  0  0  0
   18.3643   20.9881   19.0864 O   0  0  0  0  0  0  0  0  0  0  0  0
   19.1195   20.6599   18.5737 H   0  0  0  0  0  0  0  0  0  0  0  0
   18.4705   23.1340   17.9809 C   0  0  0  0  0  0  0  0  0  0  0  0
   18.9032   24.1509   20.2384 C   0  0  0  0  0  0  0  0  0  0  0  0
   19.2761   23.4565   19.1434 N   0  0  0  0  0  0  0  0  0  0  0  0
   17.7809   24.5727   20.4645 O   0  0  0  0  0  0  0  0  0  0  0  0
   20.2048   23.1301   19.1319 H   0  0  0  0  0  0  0  0  0  0  0  0
   19.9196   24.2862   21.1475 O   0  0  0  0  0  0  0  0  0  0  0  0
   22.0859   24.9848   21.8616 C   0  0  0  0  0  0  0  0  0  0  0  0
   20.8781   26.2715   20.2669 C   0  0  0  0  0  0  0  0  0  0  0  0
   21.1530   24.8141   20.6557 C   0  0  0  0  0  0  0  0  0  0  0  0
   21.6400   27.0983   21.2988 C   0  0  0  0  0  0  0  0  0  0  0  0
   21.7438   26.2617   22.4602 O   0  0  0  0  0  0  0  0  0  0  0  0
   19.4078   23.0288   16.7871 C   0  0  0  0  0  0  0  0  0  0  0  0
   19.2494   24.0960   15.7530 C   0  0  0  0  0  0  0  0  0  0  0  0
   20.2934   24.4383   14.9026 C   0  0  0  0  0  0  0  0  0  0  0  0
   18.0519   24.8029   15.6754 C   0  0  0  0  0  0  0  0  0  0  0  0
   20.1152   25.5425   14.0472 C   0  0  0  0  0  0  0  0  0  0  0  0
   17.8381   25.8578   14.7981 C   0  0  0  0  0  0  0  0  0  0  0  0
   18.8973   26.2131   13.9877 C   0  0  0  0  0  0  0  0  0  0  0  0
   17.0627   21.2006   17.0767 C   0  0  0  0  0  0  0  0  0  0  0  0
   15.6647   21.4409   16.8287 N   0  0  0  0  0  0  0  0  0  0  0  0
   16.2808   22.3303   14.5507 O   0  0  0  0  0  0  0  0  0  0  0  0
   14.5898   23.5527   15.9884 O   0  0  0  0  0  0  0  0  0  0  0  0
   15.1561   22.2674   15.4968 S   0  0  0  0  0  0  0  0  0  0  0  0
   13.8929   21.4034   14.6473 C   0  0  0  0  0  0  0  0  0  0  0  0
   14.1987   20.4573   13.6874 C   0  0  0  0  0  0  0  0  0  0  0  0
   13.2704   19.6321   13.0564 C   0  0  0  0  0  0  0  0  0  0  0  0
   11.9408   19.7744   13.4254 C   0  0  0  0  0  0  0  0  0  0  0  0
   11.6113   20.7638   14.3334 C   0  0  0  0  0  0  0  0  0  0  0  0
   12.5366   21.5435   15.0139 C   0  0  0  0  0  0  0  0  0  0  0  0
   10.9896   19.0392   12.7843 N   0  0  0  0  0  0  0  0  0  0  0  0
   11.2561   18.3414   12.1430 H   0  0  0  0  0  0  0  0  0  0  0  0
   10.0357   19.2057   12.9624 H   0  0  0  0  0  0  0  0  0  0  0  0
   14.8084   20.3308   17.2351 C   0  0  0  0  0  0  0  0  0  0  0  0
   13.8889   20.6703   18.4413 C   0  0  0  0  0  0  0  0  0  0  0  0
   12.6049   19.8737   18.3274 C   0  0  0  0  0  0  0  0  0  0  0  0
   14.6302   20.2640   19.7407 C   0  0  0  0  0  0  0  0  0  0  0  0
 10 12  1  0  0  0
 10 14  1  0  0  0
 11 12  1  0  0  0
 11 13  1  0  0  0
  5  6  1  0  0  0
  5  9  1  0  0  0
  5  7  2  0  0  0
 12  9  1  0  0  0
  4  1  1  0  0  0
  4 15  1  0  0  0
  4  6  1  0  0  0
  1 22  1  0  0  0
  1  2  1  0  0  0
 15 16  1  0  0  0
 16 17  2  0  0  0
 16 18  1  0  0  0
 17 19  1  0  0  0
 18 20  2  0  0  0
 19 21  2  0  0  0
 20 21  1  0  0  0
 22 23  1  0  0  0
 36 37  1  0  0  0
 36 23  1  0  0  0
 37 38  1  0  0  0
 37 39  1  0  0  0
 27 28  2  0  0  0
 27 32  1  0  0  0
 27 26  1  0  0  0
 28 29  1  0  0  0
 29 30  2  0  0  0
 30 31  1  0  0  0
 30 33  1  0  0  0
 31 32  2  0  0  0
 13 14  1  0  0  0
 23 26  1  0  0  0
 24 26  2  0  0  0
 25 26  2  0  0  0
  6  8  1  0  0  0
 33 34  1  0  0  0
 33 35  1  0  0  0
  2  3  1  0  0  0
M  END
> <minimizedAffinity>
-9.05148

$$$$
3NU4_478_B_401


 39 41  0  0  0  0  0  0  0  0999 V2000
   15.3078   21.8536   18.1702 C   0  0  0  0  0  0  0  0  0  0  0  0
   13.9334   22.1678   18.4104 O   0  0  0  0  0  0  0  0  0  0  0  0
   13.4129   21.3494   18.4281 H   0  0  0  0  0  0  0  0  0  0  0  0
   15.8642   21.0295   19.3130 C   0  0  0  0  0  0  0  0  0  0  0  0
   18.3096   21.5904   19.1620 C   0  0  0  0  0  0  0  0  0  0  0  0
   17.1035   21.6330   19.7650 N   0  0  0  0  0  0  0  0  0  0  0  0
   18.5448   21.0822   18.0780 O   0  0  0  0  0  0  0  0  0  0  0  0
   17.0592   22.1328   20.6121 H   0  0  0  0  0  0  0  0  0  0  0  0
   19.2755   22.2580   19.8687 O   0  0  0  0  0  0  0  0  0  0  0  0
   20.2663   24.3185   19.1881 C   0  0  0  0  0  0  0  0  0  0  0  0
   19.5010   24.0383   21.4226 C   0  0  0  0  0  0  0  0  0  0  0  0
   19.1227   23.6740   19.9822 C   0  0  0  0  0  0  0  0  0  0  0  0
   20.8153   24.8036   21.2965 C   0  0  0  0  0  0  0  0  0  0  0  0
   21.4133   24.3412   20.0767 O   0  0  0  0  0  0  0  0  0  0  0  0
   14.9709   20.8469   20.5311 C   0  0  0  0  0  0  0  0  0  0  0  0
   14.2508   19.5396   20.6064 C   0  0  0  0  0  0  0  0  0  0  0  0
   13.8813   18.8515   19.4573 C   0  0  0  0  0  0  0  0  0  0  0  0
   13.8908   19.0259   21.8498 C   0  0  0  0  0  0  0  0  0  0  0  0
   13.0885   17.6970   19.6035 C   0  0  0  0  0  0  0  0  0  0  0  0
   13.1581   17.8580   22.0155 C   0  0  0  0  0  0  0  0  0  0  0  0
   12.7631   17.2067   20.8646 C   0  0  0  0  0  0  0  0  0  0  0  0
   15.4347   21.2052   16.7986 C   0  0  0  0  0  0  0  0  0  0  0  0
   15.5874   22.1351   15.7097 N   0  0  0  0  0  0  0  0  0  0  0  0
   15.2122   22.3680   13.2268 O   0  0  0  0  0  0  0  0  0  0  0  0
   13.5284   23.3085   14.8701 O   0  0  0  0  0  0  0  0  0  0  0  0
   14.4786   22.2269   14.4940 S   0  0  0  0  0  0  0  0  0  0  0  0
   13.5744   20.7367   14.3343 C   0  0  0  0  0  0  0  0  0  0  0  0
   12.5178   20.4508   15.1778 C   0  0  0  0  0  0  0  0  0  0  0  0
   11.6635   19.3584   15.0447 C   0  0  0  0  0  0  0  0  0  0  0  0
   11.8952   18.4975   13.9819 C   0  0  0  0  0  0  0  0  0  0  0  0
   12.9901   18.7321   13.1707 C   0  0  0  0  0  0  0  0  0  0  0  0
   13.8047   19.8529   13.2574 C   0  0  0  0  0  0  0  0  0  0  0  0
   11.1302   17.3775   13.8533 N   0  0  0  0  0  0  0  0  0  0  0  0
   10.3566   17.2390   14.4463 H   0  0  0  0  0  0  0  0  0  0  0  0
   11.3509   16.7066   13.1674 H   0  0  0  0  0  0  0  0  0  0  0  0
   16.1678   23.4105   16.1183 C   0  0  0  0  0  0  0  0  0  0  0  0
   17.3480   23.8685   15.2166 C   0  0  0  0  0  0  0  0  0  0  0  0
   17.2825   25.3718   15.0375 C   0  0  0  0  0  0  0  0  0  0  0  0
   18.6722   23.4950   15.9308 C   0  0  0  0  0  0  0  0  0  0  0  0
 10 12  1  0  0  0
 10 14  1  0  0  0
 11 12  1  0  0  0
 11 13  1  0  0  0
  5  6  1  0  0  0
  5  9  1  0  0  0
  5  7  2  0  0  0
 12  9  1  0  0  0
  4  1  1  0  0  0
  4 15  1  0  0  0
  4  6  1  0  0  0
  1 22  1  0  0  0
  1  2  1  0  0  0
 15 16  1  0  0  0
 16 17  2  0  0  0
 16 18  1  0  0  0
 17 19  1  0  0  0
 18 20  2  0  0  0
 19 21  2  0  0  0
 20 21  1  0  0  0
 22 23  1  0  0  0
 36 37  1  0  0  0
 36 23  1  0  0  0
 37 38  1  0  0  0
 37 39  1  0  0  0
 27 28  2  0  0  0
 27 32  1  0  0  0
 27 26  1  0  0  0
 28 29  1  0  0  0
 29 30  2  0  0  0
 30 31  1  0  0  0
 30 33  1  0  0  0
 31 32  2  0  0  0
 13 14  1  0  0  0
 23 26  1  0  0  0
 24 26  2  0  0  0
 25 26  2  0  0  0
  6  8  1  0  0  0
 33 34  1  0  0  0
 33 35  1  0  0  0
  2  3  1  0  0  0
M  END
> <minimizedAffinity>
-8.94496

$$$$
3NU4_478_B_401


 39 41  0  0  0  0  0  0  0  0999 V2000
   15.2746   23.2077   16.0362 C   0  0  0  0  0  0  0  0  0  0  0  0
   14.2978   23.6788   16.9686 O   0  0  0  0  0  0  0  0  0  0  0  0
   14.6456   23.5966   17.8704 H   0  0  0  0  0  0  0  0  0  0  0  0
   16.5117   24.0804   16.0877 C   0  0  0  0  0  0  0  0  0  0  0  0
   16.7515   24.6856   18.5154 C   0  0  0  0  0  0  0  0  0  0  0  0
   17.0947   23.9880   17.4128 N   0  0  0  0  0  0  0  0  0  0  0  0
   15.8276   25.4784   18.5960 O   0  0  0  0  0  0  0  0  0  0  0  0
   17.8275   23.3394   17.5203 H   0  0  0  0  0  0  0  0  0  0  0  0
   17.5179   24.3606   19.6040 O   0  0  0  0  0  0  0  0  0  0  0  0
   19.1747   22.9262   20.5466 C   0  0  0  0  0  0  0  0  0  0  0  0
   19.8154   24.9382   19.4516 C   0  0  0  0  0  0  0  0  0  0  0  0
   18.8019   23.7934   19.3372 C   0  0  0  0  0  0  0  0  0  0  0  0
   20.6149   24.6234   20.7128 C   0  0  0  0  0  0  0  0  0  0  0  0
   19.7444   23.8278   21.5306 O   0  0  0  0  0  0  0  0  0  0  0  0
   17.6112   23.7796   15.0799 C   0  0  0  0  0  0  0  0  0  0  0  0
   18.5973   24.8809   14.8609 C   0  0  0  0  0  0  0  0  0  0  0  0
   18.2005   26.1183   14.3693 C   0  0  0  0  0  0  0  0  0  0  0  0
   19.9495   24.6474   15.0987 C   0  0  0  0  0  0  0  0  0  0  0  0
   19.2012   27.0597   14.0613 C   0  0  0  0  0  0  0  0  0  0  0  0
   20.9452   25.5842   14.8548 C   0  0  0  0  0  0  0  0  0  0  0  0
   20.5409   26.7944   14.3287 C   0  0  0  0  0  0  0  0  0  0  0  0
   15.5293   21.7286   16.2913 C   0  0  0  0  0  0  0  0  0  0  0  0
   14.7224   21.1548   17.3369 N   0  0  0  0  0  0  0  0  0  0  0  0
   14.6363   22.3884   19.5349 O   0  0  0  0  0  0  0  0  0  0  0  0
   16.6874   21.0423   18.9013 O   0  0  0  0  0  0  0  0  0  0  0  0
   15.2061   21.1837   18.9120 S   0  0  0  0  0  0  0  0  0  0  0  0
   14.5359   19.8425   19.8153 C   0  0  0  0  0  0  0  0  0  0  0  0
   14.5056   19.8586   21.1969 C   0  0  0  0  0  0  0  0  0  0  0  0
   13.8786   18.9021   21.9923 C   0  0  0  0  0  0  0  0  0  0  0  0
   13.2364   17.8584   21.3424 C   0  0  0  0  0  0  0  0  0  0  0  0
   13.3173   17.7916   19.9637 C   0  0  0  0  0  0  0  0  0  0  0  0
   13.8825   18.7745   19.1626 C   0  0  0  0  0  0  0  0  0  0  0  0
   12.6710   16.8621   22.0800 N   0  0  0  0  0  0  0  0  0  0  0  0
   12.6284   16.9390   23.0606 H   0  0  0  0  0  0  0  0  0  0  0  0
   12.3051   16.0652   21.6324 H   0  0  0  0  0  0  0  0  0  0  0  0
   13.2897   21.3357   17.1240 C   0  0  0  0  0  0  0  0  0  0  0  0
   12.7100   20.4163   16.0130 C   0  0  0  0  0  0  0  0  0  0  0  0
   11.5278   19.6489   16.5695 C   0  0  0  0  0  0  0  0  0  0  0  0
   12.2324   21.3161   14.8445 C   0  0  0  0  0  0  0  0  0  0  0  0
 10 12  1  0  0  0
 10 14  1  0  0  0
 11 12  1  0  0  0
 11 13  1  0  0  0
  5  6  1  0  0  0
  5  9  1  0  0  0
  5  7  2  0  0  0
 12  9  1  0  0  0
  4  1  1  0  0  0
  4 15  1  0  0  0
  4  6  1  0  0  0
  1 22  1  0  0  0
  1  2  1  0  0  0
 15 16  1  0  0  0
 16 17  2  0  0  0
 16 18  1  0  0  0
 17 19  1  0  0  0
 18 20  2  0  0  0
 19 21  2  0  0  0
 20 21  1  0  0  0
 22 23  1  0  0  0
 36 37  1  0  0  0
 36 23  1  0  0  0
 37 38  1  0  0  0
 37 39  1  0  0  0
 27 28  2  0  0  0
 27 32  1  0  0  0
 27 26  1  0  0  0
 28 29  1  0  0  0
 29 30  2  0  0  0
 30 31  1  0  0  0
 30 33  1  0  0  0
 31 32  2  0  0  0
 13 14  1  0  0  0
 23 26  1  0  0  0
 24 26  2  0  0  0
 25 26  2  0  0  0
  6  8  1  0  0  0
 33 34  1  0  0  0
 33 35  1  0  0  0
  2  3  1  0  0  0
M  END
> <minimizedAffinity>
-8.93082

$$$$
3NU4_478_B_401


 39 41  0  0  0  0  0  0  0  0999 V2000
   19.0662   24.5770   15.8926 C   0  0  0  0  0  0  0  0  0  0  0  0
   17.7499   25.1320   15.8231 O   0  0  0  0  0  0  0  0  0  0  0  0
   17.5156   25.5168   16.6821 H   0  0  0  0  0  0  0  0  0  0  0  0
   20.0825   25.6700   16.1518 C   0  0  0  0  0  0  0  0  0  0  0  0
   20.7286   26.7010   18.3511 C   0  0  0  0  0  0  0  0  0  0  0  0
   20.4451   25.6484   17.5562 N   0  0  0  0  0  0  0  0  0  0  0  0
   20.6586   27.8753   18.0275 O   0  0  0  0  0  0  0  0  0  0  0  0
   20.4896   24.7606   17.9793 H   0  0  0  0  0  0  0  0  0  0  0  0
   21.0470   26.3245   19.6297 O   0  0  0  0  0  0  0  0  0  0  0  0
   23.0328   26.5334   20.9350 C   0  0  0  0  0  0  0  0  0  0  0  0
   20.9929   27.4902   21.6970 C   0  0  0  0  0  0  0  0  0  0  0  0
   21.7911   27.2640   20.4077 C   0  0  0  0  0  0  0  0  0  0  0  0
   21.8341   26.8413   22.7926 C   0  0  0  0  0  0  0  0  0  0  0  0
   22.6108   25.8310   22.1326 O   0  0  0  0  0  0  0  0  0  0  0  0
   21.3708   25.6205   15.3437 C   0  0  0  0  0  0  0  0  0  0  0  0
   21.9881   26.9474   15.0415 C   0  0  0  0  0  0  0  0  0  0  0  0
   23.1985   27.3267   15.6084 C   0  0  0  0  0  0  0  0  0  0  0  0
   21.3119   27.8471   14.2211 C   0  0  0  0  0  0  0  0  0  0  0  0
   23.6506   28.6414   15.3851 C   0  0  0  0  0  0  0  0  0  0  0  0
   21.7710   29.1279   13.9433 C   0  0  0  0  0  0  0  0  0  0  0  0
   22.9541   29.5055   14.5456 C   0  0  0  0  0  0  0  0  0  0  0  0
   19.0737   23.4474   16.9131 C   0  0  0  0  0  0  0  0  0  0  0  0
   17.7679   22.9595   17.2743 N   0  0  0  0  0  0  0  0  0  0  0  0
   18.1356   20.5507   16.6241 O   0  0  0  0  0  0  0  0  0  0  0  0
   16.6360   22.0399   15.2263 O   0  0  0  0  0  0  0  0  0  0  0  0
   17.1243   21.6174   16.5670 S   0  0  0  0  0  0  0  0  0  0  0  0
   15.7607   21.0025   17.4760 C   0  0  0  0  0  0  0  0  0  0  0  0
   14.4704   21.1289   16.9975 C   0  0  0  0  0  0  0  0  0  0  0  0
   13.3425   20.5595   17.5843 C   0  0  0  0  0  0  0  0  0  0  0  0
   13.5362   19.8085   18.7345 C   0  0  0  0  0  0  0  0  0  0  0  0
   14.8113   19.7308   19.2634 C   0  0  0  0  0  0  0  0  0  0  0  0
   15.9477   20.2393   18.6492 C   0  0  0  0  0  0  0  0  0  0  0  0
   12.4546   19.2923   19.3826 N   0  0  0  0  0  0  0  0  0  0  0  0
   11.5591   19.3635   18.9797 H   0  0  0  0  0  0  0  0  0  0  0  0
   12.5686   18.8480   20.2537 H   0  0  0  0  0  0  0  0  0  0  0  0
   17.4654   23.1191   18.6933 C   0  0  0  0  0  0  0  0  0  0  0  0
   18.7261   23.0782   19.6015 C   0  0  0  0  0  0  0  0  0  0  0  0
   18.4862   23.9406   20.8241 C   0  0  0  0  0  0  0  0  0  0  0  0
   18.9513   21.6104   20.0461 C   0  0  0  0  0  0  0  0  0  0  0  0
 10 12  1  0  0  0
 10 14  1  0  0  0
 11 12  1  0  0  0
 11 13  1  0  0  0
  5  6  1  0  0  0
  5  9  1  0  0  0
  5  7  2  0  0  0
 12  9  1  0  0  0
  4  1  1  0  0  0
  4 15  1  0  0  0
  4  6  1  0  0  0
  1 22  1  0  0  0
  1  2  1  0  0  0
 15 16  1  0  0  0
 16 17  2  0  0  0
 16 18  1  0  0  0
 17 19  1  0  0  0
 18 20  2  0  0  0
 19 21  2  0  0  0
 20 21  1  0  0  0
 22 23  1  0  0  0
 36 37  1  0  0  0
 36 23  1  0  0  0
 37 38  1  0  0  0
 37 39  1  0  0  0
 27 28  2  0  0  0
 27 32  1  0  0  0
 27 26  1  0  0  0
 28 29  1  0  0  0
 29 30  2  0  0  0
 30 31  1  0  0  0
 30 33  1  0  0  0
 31 32  2  0  0  0
 13 14  1  0  0  0
 23 26  1  0  0  0
 24 26  2  0  0  0
 25 26  2  0  0  0
  6  8  1  0  0  0
 33 34  1  0  0  0
 33 35  1  0  0  0
  2  3  1  0  0  0
M  END
> <minimizedAffinity>
-8.87795

$$$$
