5Z99_SLB_A_501


 28 28  0  0  0  0  0  0  0  0999 V2000
    7.1952   37.8780   -3.1383 C   0  0  0  0  0  0  0  0  0  0  0  0
    7.8587   39.1849   -2.7578 C   0  0  0  0  0  0  0  0  0  0  0  0
    7.1072   39.7951   -1.6478 C   0  0  0  0  0  0  0  0  0  0  0  0
    7.0239   38.8609   -0.4557 C   0  0  0  0  0  0  0  0  0  0  0  0
    6.4871   37.4874   -0.8406 C   0  0  0  0  0  0  0  0  0  0  0  0
    5.9087   38.1034   -3.5695 O   0  0  0  0  0  0  0  0  0  0  0  0
    7.7433   41.0607   -1.2740 O   0  0  0  0  0  0  0  0  0  0  0  0
    7.1973   36.9402   -1.9798 O   0  0  0  0  0  0  0  0  0  0  0  0
    5.9225   38.7145   -4.3226 H   0  0  0  0  0  0  0  0  0  0  0  0
    8.6521   40.8915   -0.9803 H   0  0  0  0  0  0  0  0  0  0  0  0
    6.4396   39.8047    1.8388 C   0  0  0  0  0  0  0  0  0  0  0  0
    5.3421   40.3733    2.7197 C   0  0  0  0  0  0  0  0  0  0  0  0
    6.0573   39.4125    0.5060 N   0  0  0  0  0  0  0  0  0  0  0  0
    7.5658   39.6902    2.2277 O   0  0  0  0  0  0  0  0  0  0  0  0
    5.1181   39.5173    0.2300 H   0  0  0  0  0  0  0  0  0  0  0  0
    7.9754   37.1422   -4.2066 C   0  0  0  0  0  0  0  0  0  0  0  0
    9.1420   36.7515   -3.9418 O   0  0  0  0  0  0  0  0  0  0  0  0
    7.4442   36.9491   -5.3368 O   0  0  0  0  0  0  0  0  0  0  0  0
    6.5734   37.2523   -5.5031 H   0  0  0  0  0  0  0  0  0  0  0  0
    6.6363   36.4682    0.2637 C   0  0  0  0  0  0  0  0  0  0  0  0
    7.8175   36.6858    1.0175 O   0  0  0  0  0  0  0  0  0  0  0  0
    8.5912   36.5949    0.4396 H   0  0  0  0  0  0  0  0  0  0  0  0
    6.6870   35.0465   -0.3331 C   0  0  0  0  0  0  0  0  0  0  0  0
    5.4486   34.7379   -0.9363 O   0  0  0  0  0  0  0  0  0  0  0  0
    4.7475   34.7628   -0.2665 H   0  0  0  0  0  0  0  0  0  0  0  0
    7.0446   34.0085    0.7382 C   0  0  0  0  0  0  0  0  0  0  0  0
    6.2350   34.1701    1.8780 O   0  0  0  0  0  0  0  0  0  0  0  0
    6.3744   35.0546    2.2509 H   0  0  0  0  0  0  0  0  0  0  0  0
 16  1  1  0  0  0
 16 17  2  0  0  0
 16 18  1  0  0  0
  1  2  1  0  0  0
  1  6  1  0  0  0
  1  8  1  0  0  0
  2  3  1  0  0  0
  3  4  1  0  0  0
  3  7  1  0  0  0
  4  5  1  0  0  0
  4 13  1  0  0  0
  5 20  1  0  0  0
  5  8  1  0  0  0
 20 23  1  0  0  0
 20 21  1  0  0  0
 23 26  1  0  0  0
 23 24  1  0  0  0
 26 27  1  0  0  0
 11 12  1  0  0  0
 11 13  1  0  0  0
 11 14  2  0  0  0
 13 15  1  0  0  0
 18 19  1  0  0  0
  6  9  1  0  0  0
  7 10  1  0  0  0
 21 22  1  0  0  0
 24 25  1  0  0  0
 27 28  1  0  0  0
M  END
> <minimizedAffinity>
-9.48315

$$$$
5Z99_SLB_A_501


 28 28  0  0  0  0  0  0  0  0999 V2000
    7.5844   35.8644    0.4202 C   0  0  0  0  0  0  0  0  0  0  0  0
    7.3856   37.1205    1.2422 C   0  0  0  0  0  0  0  0  0  0  0  0
    7.9478   38.2654    0.5060 C   0  0  0  0  0  0  0  0  0  0  0  0
    7.3144   38.4075   -0.8650 C   0  0  0  0  0  0  0  0  0  0  0  0
    7.3782   37.1104   -1.6627 C   0  0  0  0  0  0  0  0  0  0  0  0
    8.9255   35.6279    0.2265 O   0  0  0  0  0  0  0  0  0  0  0  0
    7.7594   39.4850    1.2954 O   0  0  0  0  0  0  0  0  0  0  0  0
    6.8847   35.9874   -0.8901 O   0  0  0  0  0  0  0  0  0  0  0  0
    9.3676   35.5501    1.0863 H   0  0  0  0  0  0  0  0  0  0  0  0
    6.8114   39.6375    1.4337 H   0  0  0  0  0  0  0  0  0  0  0  0
    7.7707   40.7968   -1.6263 C   0  0  0  0  0  0  0  0  0  0  0  0
    8.6615   41.7001   -2.4595 C   0  0  0  0  0  0  0  0  0  0  0  0
    8.0868   39.3911   -1.6391 N   0  0  0  0  0  0  0  0  0  0  0  0
    6.8545   41.2280   -0.9880 O   0  0  0  0  0  0  0  0  0  0  0  0
    8.8449   39.0787   -2.1840 H   0  0  0  0  0  0  0  0  0  0  0  0
    6.9371   34.6600    1.0696 C   0  0  0  0  0  0  0  0  0  0  0  0
    6.1885   34.8395    2.0650 O   0  0  0  0  0  0  0  0  0  0  0  0
    7.1718   33.5079    0.6065 O   0  0  0  0  0  0  0  0  0  0  0  0
    7.7339   33.4071   -0.1363 H   0  0  0  0  0  0  0  0  0  0  0  0
    6.5345   37.1491   -2.9146 C   0  0  0  0  0  0  0  0  0  0  0  0
    5.6015   36.0818   -2.9474 O   0  0  0  0  0  0  0  0  0  0  0  0
    6.0772   35.2365   -2.9506 H   0  0  0  0  0  0  0  0  0  0  0  0
    7.4366   37.0541   -4.1625 C   0  0  0  0  0  0  0  0  0  0  0  0
    8.3546   38.1266   -4.1703 O   0  0  0  0  0  0  0  0  0  0  0  0
    7.8704   38.9663   -4.2069 H   0  0  0  0  0  0  0  0  0  0  0  0
    6.6022   37.0421   -5.4495 C   0  0  0  0  0  0  0  0  0  0  0  0
    5.3131   37.5544   -5.2120 O   0  0  0  0  0  0  0  0  0  0  0  0
    4.8635   37.0049   -4.5511 H   0  0  0  0  0  0  0  0  0  0  0  0
 16  1  1  0  0  0
 16 17  2  0  0  0
 16 18  1  0  0  0
  1  2  1  0  0  0
  1  6  1  0  0  0
  1  8  1  0  0  0
  2  3  1  0  0  0
  3  4  1  0  0  0
  3  7  1  0  0  0
  4  5  1  0  0  0
  4 13  1  0  0  0
  5 20  1  0  0  0
  5  8  1  0  0  0
 20 23  1  0  0  0
 20 21  1  0  0  0
 23 26  1  0  0  0
 23 24  1  0  0  0
 26 27  1  0  0  0
 11 12  1  0  0  0
 11 13  1  0  0  0
 11 14  2  0  0  0
 13 15  1  0  0  0
 18 19  1  0  0  0
  6  9  1  0  0  0
  7 10  1  0  0  0
 21 22  1  0  0  0
 24 25  1  0  0  0
 27 28  1  0  0  0
M  END
> <minimizedAffinity>
-8.53213

$$$$
5Z99_SLB_A_501


 28 28  0  0  0  0  0  0  0  0999 V2000
    6.9191   37.4830   -3.2525 C   0  0  0  0  0  0  0  0  0  0  0  0
    6.8718   38.9845   -3.0623 C   0  0  0  0  0  0  0  0  0  0  0  0
    6.1500   39.2839   -1.8139 C   0  0  0  0  0  0  0  0  0  0  0  0
    6.7990   38.6056   -0.6224 C   0  0  0  0  0  0  0  0  0  0  0  0
    6.9853   37.1095   -0.8464 C   0  0  0  0  0  0  0  0  0  0  0  0
    5.6456   36.9757   -3.3659 O   0  0  0  0  0  0  0  0  0  0  0  0
    6.0999   40.7355   -1.6229 O   0  0  0  0  0  0  0  0  0  0  0  0
    7.6344   36.8395   -2.1141 O   0  0  0  0  0  0  0  0  0  0  0  0
    5.1925   37.4028   -4.1096 H   0  0  0  0  0  0  0  0  0  0  0  0
    7.0025   41.0838   -1.5532 H   0  0  0  0  0  0  0  0  0  0  0  0
    6.0522   39.7677    1.5196 C   0  0  0  0  0  0  0  0  0  0  0  0
    5.0422   39.7832    2.6525 C   0  0  0  0  0  0  0  0  0  0  0  0
    5.8989   38.7273    0.5345 N   0  0  0  0  0  0  0  0  0  0  0  0
    6.9292   40.5787    1.4444 O   0  0  0  0  0  0  0  0  0  0  0  0
    5.1677   38.0765    0.6393 H   0  0  0  0  0  0  0  0  0  0  0  0
    7.7379   37.0961   -4.4654 C   0  0  0  0  0  0  0  0  0  0  0  0
    8.9391   36.7586   -4.3011 O   0  0  0  0  0  0  0  0  0  0  0  0
    7.2024   37.1322   -5.6094 O   0  0  0  0  0  0  0  0  0  0  0  0
    6.3054   37.3878   -5.6989 H   0  0  0  0  0  0  0  0  0  0  0  0
    7.8546   36.4624    0.2053 C   0  0  0  0  0  0  0  0  0  0  0  0
    7.1902   36.3858    1.4556 O   0  0  0  0  0  0  0  0  0  0  0  0
    6.9843   37.2808    1.7677 H   0  0  0  0  0  0  0  0  0  0  0  0
    9.1552   37.2720    0.3867 C   0  0  0  0  0  0  0  0  0  0  0  0
   10.2287   36.5951   -0.2317 O   0  0  0  0  0  0  0  0  0  0  0  0
   10.3481   35.7281    0.1865 H   0  0  0  0  0  0  0  0  0  0  0  0
    9.4507   37.5201    1.8713 C   0  0  0  0  0  0  0  0  0  0  0  0
    8.8245   38.7005    2.3132 O   0  0  0  0  0  0  0  0  0  0  0  0
    9.1607   39.4548    1.8045 H   0  0  0  0  0  0  0  0  0  0  0  0
 16  1  1  0  0  0
 16 17  2  0  0  0
 16 18  1  0  0  0
  1  2  1  0  0  0
  1  6  1  0  0  0
  1  8  1  0  0  0
  2  3  1  0  0  0
  3  4  1  0  0  0
  3  7  1  0  0  0
  4  5  1  0  0  0
  4 13  1  0  0  0
  5 20  1  0  0  0
  5  8  1  0  0  0
 20 23  1  0  0  0
 20 21  1  0  0  0
 23 26  1  0  0  0
 23 24  1  0  0  0
 26 27  1  0  0  0
 11 12  1  0  0  0
 11 13  1  0  0  0
 11 14  2  0  0  0
 13 15  1  0  0  0
 18 19  1  0  0  0
  6  9  1  0  0  0
  7 10  1  0  0  0
 21 22  1  0  0  0
 24 25  1  0  0  0
 27 28  1  0  0  0
M  END
> <minimizedAffinity>
-8.48051

$$$$
5Z99_SLB_A_501


 28 28  0  0  0  0  0  0  0  0999 V2000
    7.9350   39.3806   -2.6086 C   0  0  0  0  0  0  0  0  0  0  0  0
    6.7199   38.9724   -3.4149 C   0  0  0  0  0  0  0  0  0  0  0  0
    6.6372   37.5022   -3.4405 C   0  0  0  0  0  0  0  0  0  0  0  0
    6.5774   36.9263   -2.0385 C   0  0  0  0  0  0  0  0  0  0  0  0
    7.7164   37.4332   -1.1618 C   0  0  0  0  0  0  0  0  0  0  0  0
    9.0818   38.9007   -3.1972 O   0  0  0  0  0  0  0  0  0  0  0  0
    5.4637   37.0994   -4.2193 O   0  0  0  0  0  0  0  0  0  0  0  0
    7.8204   38.8783   -1.2100 O   0  0  0  0  0  0  0  0  0  0  0  0
    9.1433   39.2351   -4.1057 H   0  0  0  0  0  0  0  0  0  0  0  0
    4.6619   37.4502   -3.8009 H   0  0  0  0  0  0  0  0  0  0  0  0
    5.7364   34.5451   -1.6929 C   0  0  0  0  0  0  0  0  0  0  0  0
    6.0489   33.0683   -1.8512 C   0  0  0  0  0  0  0  0  0  0  0  0
    6.7558   35.4686   -2.1220 N   0  0  0  0  0  0  0  0  0  0  0  0
    4.6963   34.9253   -1.2386 O   0  0  0  0  0  0  0  0  0  0  0  0
    7.5995   35.1122   -2.4830 H   0  0  0  0  0  0  0  0  0  0  0  0
    8.0261   40.8834   -2.4519 C   0  0  0  0  0  0  0  0  0  0  0  0
    9.0294   41.4802   -2.9216 O   0  0  0  0  0  0  0  0  0  0  0  0
    7.1032   41.4984   -1.8462 O   0  0  0  0  0  0  0  0  0  0  0  0
    6.3686   41.0253   -1.5077 H   0  0  0  0  0  0  0  0  0  0  0  0
    7.5353   37.0836    0.2961 C   0  0  0  0  0  0  0  0  0  0  0  0
    6.1741   36.8372    0.6077 O   0  0  0  0  0  0  0  0  0  0  0  0
    5.6539   37.6386    0.4404 H   0  0  0  0  0  0  0  0  0  0  0  0
    8.0431   38.2390    1.1833 C   0  0  0  0  0  0  0  0  0  0  0  0
    8.7961   37.7196    2.2585 O   0  0  0  0  0  0  0  0  0  0  0  0
    8.2330   37.1443    2.7995 H   0  0  0  0  0  0  0  0  0  0  0  0
    6.8789   39.0954    1.6973 C   0  0  0  0  0  0  0  0  0  0  0  0
    6.8440   40.3371    1.0358 O   0  0  0  0  0  0  0  0  0  0  0  0
    7.6716   40.8151    1.2016 H   0  0  0  0  0  0  0  0  0  0  0  0
 16  1  1  0  0  0
 16 17  2  0  0  0
 16 18  1  0  0  0
  1  2  1  0  0  0
  1  6  1  0  0  0
  1  8  1  0  0  0
  2  3  1  0  0  0
  3  4  1  0  0  0
  3  7  1  0  0  0
  4  5  1  0  0  0
  4 13  1  0  0  0
  5 20  1  0  0  0
  5  8  1  0  0  0
 20 23  1  0  0  0
 20 21  1  0  0  0
 23 26  1  0  0  0
 23 24  1  0  0  0
 26 27  1  0  0  0
 11 12  1  0  0  0
 11 13  1  0  0  0
 11 14  2  0  0  0
 13 15  1  0  0  0
 18 19  1  0  0  0
  6  9  1  0  0  0
  7 10  1  0  0  0
 21 22  1  0  0  0
 24 25  1  0  0  0
 27 28  1  0  0  0
M  END
> <minimizedAffinity>
-8.39837

$$$$
5Z99_SLB_A_501


 28 28  0  0  0  0  0  0  0  0999 V2000
    7.6729   39.1241   -2.4237 C   0  0  0  0  0  0  0  0  0  0  0  0
    6.6446   38.9229   -3.5169 C   0  0  0  0  0  0  0  0  0  0  0  0
    6.5112   37.4810   -3.7857 C   0  0  0  0  0  0  0  0  0  0  0  0
    6.1284   36.7170   -2.5324 C   0  0  0  0  0  0  0  0  0  0  0  0
    7.0713   37.0111   -1.3717 C   0  0  0  0  0  0  0  0  0  0  0  0
    8.8996   38.6523   -2.8294 O   0  0  0  0  0  0  0  0  0  0  0  0
    5.5176   37.2782   -4.8430 O   0  0  0  0  0  0  0  0  0  0  0  0
    7.2403   38.4372   -1.1737 O   0  0  0  0  0  0  0  0  0  0  0  0
    9.1682   39.1074   -3.6428 H   0  0  0  0  0  0  0  0  0  0  0  0
    4.6592   37.6222   -4.5503 H   0  0  0  0  0  0  0  0  0  0  0  0
    5.4316   34.2948   -2.1528 C   0  0  0  0  0  0  0  0  0  0  0  0
    5.6687   32.8457   -2.5371 C   0  0  0  0  0  0  0  0  0  0  0  0
    6.2627   35.2771   -2.8013 N   0  0  0  0  0  0  0  0  0  0  0  0
    4.5958   34.6080   -1.3553 O   0  0  0  0  0  0  0  0  0  0  0  0
    6.9429   34.9746   -3.4456 H   0  0  0  0  0  0  0  0  0  0  0  0
    7.7876   40.5789   -2.0215 C   0  0  0  0  0  0  0  0  0  0  0  0
    7.3344   40.9340   -0.9025 O   0  0  0  0  0  0  0  0  0  0  0  0
    8.3222   41.4001   -2.8194 O   0  0  0  0  0  0  0  0  0  0  0  0
    8.6503   41.1045   -3.6458 H   0  0  0  0  0  0  0  0  0  0  0  0
    6.5671   36.4712   -0.0546 C   0  0  0  0  0  0  0  0  0  0  0  0
    6.0734   37.5070    0.7785 O   0  0  0  0  0  0  0  0  0  0  0  0
    6.7902   38.1284    0.9811 H   0  0  0  0  0  0  0  0  0  0  0  0
    7.7059   35.7418    0.6878 C   0  0  0  0  0  0  0  0  0  0  0  0
    8.9319   35.9755    0.0282 O   0  0  0  0  0  0  0  0  0  0  0  0
    8.8844   35.6268   -0.8757 H   0  0  0  0  0  0  0  0  0  0  0  0
    7.4231   34.2380    0.7949 C   0  0  0  0  0  0  0  0  0  0  0  0
    6.1531   34.0088    1.3563 O   0  0  0  0  0  0  0  0  0  0  0  0
    6.1200   34.3902    2.2476 H   0  0  0  0  0  0  0  0  0  0  0  0
 16  1  1  0  0  0
 16 17  2  0  0  0
 16 18  1  0  0  0
  1  2  1  0  0  0
  1  6  1  0  0  0
  1  8  1  0  0  0
  2  3  1  0  0  0
  3  4  1  0  0  0
  3  7  1  0  0  0
  4  5  1  0  0  0
  4 13  1  0  0  0
  5 20  1  0  0  0
  5  8  1  0  0  0
 20 23  1  0  0  0
 20 21  1  0  0  0
 23 26  1  0  0  0
 23 24  1  0  0  0
 26 27  1  0  0  0
 11 12  1  0  0  0
 11 13  1  0  0  0
 11 14  2  0  0  0
 13 15  1  0  0  0
 18 19  1  0  0  0
  6  9  1  0  0  0
  7 10  1  0  0  0
 21 22  1  0  0  0
 24 25  1  0  0  0
 27 28  1  0  0  0
M  END
> <minimizedAffinity>
-8.28317

$$$$
5Z99_SLB_A_501


 28 28  0  0  0  0  0  0  0  0999 V2000
    6.5270   37.3791   -4.0573 C   0  0  0  0  0  0  0  0  0  0  0  0
    7.9967   37.0386   -4.1877 C   0  0  0  0  0  0  0  0  0  0  0  0
    8.6114   37.0616   -2.8496 C   0  0  0  0  0  0  0  0  0  0  0  0
    7.9138   36.1035   -1.9029 C   0  0  0  0  0  0  0  0  0  0  0  0
    6.4082   36.3360   -1.8592 C   0  0  0  0  0  0  0  0  0  0  0  0
    6.3741   38.6449   -3.5412 O   0  0  0  0  0  0  0  0  0  0  0  0
   10.0342   36.7332   -2.9677 O   0  0  0  0  0  0  0  0  0  0  0  0
    5.8391   36.3794   -3.1918 O   0  0  0  0  0  0  0  0  0  0  0  0
    6.8261   39.2842   -4.1137 H   0  0  0  0  0  0  0  0  0  0  0  0
   10.1307   35.8429   -3.3406 H   0  0  0  0  0  0  0  0  0  0  0  0
    8.3227   37.6616    0.0724 C   0  0  0  0  0  0  0  0  0  0  0  0
    8.8442   37.7767    1.4932 C   0  0  0  0  0  0  0  0  0  0  0  0
    8.3972   36.3582   -0.5372 N   0  0  0  0  0  0  0  0  0  0  0  0
    7.8693   38.6026   -0.5120 O   0  0  0  0  0  0  0  0  0  0  0  0
    8.7844   35.6135   -0.0227 H   0  0  0  0  0  0  0  0  0  0  0  0
    5.8059   37.2729   -5.3840 C   0  0  0  0  0  0  0  0  0  0  0  0
    6.3684   36.6632   -6.3303 O   0  0  0  0  0  0  0  0  0  0  0  0
    4.6676   37.8061   -5.5128 O   0  0  0  0  0  0  0  0  0  0  0  0
    4.2751   38.2532   -4.7889 H   0  0  0  0  0  0  0  0  0  0  0  0
    5.6659   35.2404   -1.1318 C   0  0  0  0  0  0  0  0  0  0  0  0
    5.9051   35.2874    0.2650 O   0  0  0  0  0  0  0  0  0  0  0  0
    6.8504   35.1529    0.4359 H   0  0  0  0  0  0  0  0  0  0  0  0
    6.1085   33.8608   -1.6619 C   0  0  0  0  0  0  0  0  0  0  0  0
    5.5852   33.6570   -2.9571 O   0  0  0  0  0  0  0  0  0  0  0  0
    4.6161   33.6732   -2.9205 H   0  0  0  0  0  0  0  0  0  0  0  0
    5.6704   32.7369   -0.7144 C   0  0  0  0  0  0  0  0  0  0  0  0
    5.3603   31.5694   -1.4365 O   0  0  0  0  0  0  0  0  0  0  0  0
    4.6321   31.7528   -2.0505 H   0  0  0  0  0  0  0  0  0  0  0  0
 16  1  1  0  0  0
 16 17  2  0  0  0
 16 18  1  0  0  0
  1  2  1  0  0  0
  1  6  1  0  0  0
  1  8  1  0  0  0
  2  3  1  0  0  0
  3  4  1  0  0  0
  3  7  1  0  0  0
  4  5  1  0  0  0
  4 13  1  0  0  0
  5 20  1  0  0  0
  5  8  1  0  0  0
 20 23  1  0  0  0
 20 21  1  0  0  0
 23 26  1  0  0  0
 23 24  1  0  0  0
 26 27  1  0  0  0
 11 12  1  0  0  0
 11 13  1  0  0  0
 11 14  2  0  0  0
 13 15  1  0  0  0
 18 19  1  0  0  0
  6  9  1  0  0  0
  7 10  1  0  0  0
 21 22  1  0  0  0
 24 25  1  0  0  0
 27 28  1  0  0  0
M  END
> <minimizedAffinity>
-7.86246

$$$$
5Z99_SLB_A_501


 28 28  0  0  0  0  0  0  0  0999 V2000
    6.8334   39.6082   -0.0961 C   0  0  0  0  0  0  0  0  0  0  0  0
    7.8958   39.4114    0.9649 C   0  0  0  0  0  0  0  0  0  0  0  0
    8.0460   37.9699    1.2267 C   0  0  0  0  0  0  0  0  0  0  0  0
    8.3951   37.2103   -0.0390 C   0  0  0  0  0  0  0  0  0  0  0  0
    7.4155   37.5006   -1.1699 C   0  0  0  0  0  0  0  0  0  0  0  0
    5.6225   39.1281    0.3458 O   0  0  0  0  0  0  0  0  0  0  0  0
    9.0725   37.7714    2.2529 O   0  0  0  0  0  0  0  0  0  0  0  0
    7.2319   38.9260   -1.3601 O   0  0  0  0  0  0  0  0  0  0  0  0
    5.3760   39.5803    1.1678 H   0  0  0  0  0  0  0  0  0  0  0  0
    9.9195   38.1211    1.9349 H   0  0  0  0  0  0  0  0  0  0  0  0
    7.0165   35.1480    0.5467 C   0  0  0  0  0  0  0  0  0  0  0  0
    7.0398   33.6495    0.7871 C   0  0  0  0  0  0  0  0  0  0  0  0
    8.2778   35.7692    0.2312 N   0  0  0  0  0  0  0  0  0  0  0  0
    6.0036   35.7823    0.6119 O   0  0  0  0  0  0  0  0  0  0  0  0
    9.0877   35.2107    0.1952 H   0  0  0  0  0  0  0  0  0  0  0  0
    6.6977   41.0629   -0.4920 C   0  0  0  0  0  0  0  0  0  0  0  0
    7.5168   41.5434   -1.3177 O   0  0  0  0  0  0  0  0  0  0  0  0
    5.7774   41.7597    0.0220 O   0  0  0  0  0  0  0  0  0  0  0  0
    5.1829   41.3725    0.6341 H   0  0  0  0  0  0  0  0  0  0  0  0
    7.8826   36.9660   -2.5028 C   0  0  0  0  0  0  0  0  0  0  0  0
    8.8463   37.8192   -3.0977 O   0  0  0  0  0  0  0  0  0  0  0  0
    8.4500   38.6890   -3.2628 H   0  0  0  0  0  0  0  0  0  0  0  0
    6.6850   36.8279   -3.4654 C   0  0  0  0  0  0  0  0  0  0  0  0
    6.1443   35.5272   -3.3707 O   0  0  0  0  0  0  0  0  0  0  0  0
    6.8178   34.8777   -3.6264 H   0  0  0  0  0  0  0  0  0  0  0  0
    7.0957   37.1431   -4.9093 C   0  0  0  0  0  0  0  0  0  0  0  0
    6.0325   36.8902   -5.7960 O   0  0  0  0  0  0  0  0  0  0  0  0
    5.7857   35.9534   -5.7460 H   0  0  0  0  0  0  0  0  0  0  0  0
 16  1  1  0  0  0
 16 17  2  0  0  0
 16 18  1  0  0  0
  1  2  1  0  0  0
  1  6  1  0  0  0
  1  8  1  0  0  0
  2  3  1  0  0  0
  3  4  1  0  0  0
  3  7  1  0  0  0
  4  5  1  0  0  0
  4 13  1  0  0  0
  5 20  1  0  0  0
  5  8  1  0  0  0
 20 23  1  0  0  0
 20 21  1  0  0  0
 23 26  1  0  0  0
 23 24  1  0  0  0
 26 27  1  0  0  0
 11 12  1  0  0  0
 11 13  1  0  0  0
 11 14  2  0  0  0
 13 15  1  0  0  0
 18 19  1  0  0  0
  6  9  1  0  0  0
  7 10  1  0  0  0
 21 22  1  0  0  0
 24 25  1  0  0  0
 27 28  1  0  0  0
M  END
> <minimizedAffinity>
-7.70227

$$$$
5Z99_SLB_A_501


 28 28  0  0  0  0  0  0  0  0999 V2000
    8.1138   37.0915   -0.4735 C   0  0  0  0  0  0  0  0  0  0  0  0
    7.8560   38.3746   -1.2351 C   0  0  0  0  0  0  0  0  0  0  0  0
    7.7675   38.0657   -2.6724 C   0  0  0  0  0  0  0  0  0  0  0  0
    6.6852   37.0406   -2.9531 C   0  0  0  0  0  0  0  0  0  0  0  0
    6.8431   35.7912   -2.0946 C   0  0  0  0  0  0  0  0  0  0  0  0
    9.3106   36.5370   -0.8634 O   0  0  0  0  0  0  0  0  0  0  0  0
    7.5182   39.3029   -3.4164 O   0  0  0  0  0  0  0  0  0  0  0  0
    6.9991   36.1267   -0.6929 O   0  0  0  0  0  0  0  0  0  0  0  0
   10.0261   37.1750   -0.7151 H   0  0  0  0  0  0  0  0  0  0  0  0
    6.6770   39.6899   -3.1276 H   0  0  0  0  0  0  0  0  0  0  0  0
    6.0081   37.1271   -5.4088 C   0  0  0  0  0  0  0  0  0  0  0  0
    6.2627   36.5787   -6.8010 C   0  0  0  0  0  0  0  0  0  0  0  0
    6.8180   36.5876   -4.3461 N   0  0  0  0  0  0  0  0  0  0  0  0
    5.1804   37.9667   -5.2025 O   0  0  0  0  0  0  0  0  0  0  0  0
    7.4821   35.8928   -4.5595 H   0  0  0  0  0  0  0  0  0  0  0  0
    8.1136   37.3172    1.0233 C   0  0  0  0  0  0  0  0  0  0  0  0
    7.0166   37.2854    1.6391 O   0  0  0  0  0  0  0  0  0  0  0  0
    9.2077   37.5426    1.6142 O   0  0  0  0  0  0  0  0  0  0  0  0
   10.0081   37.5598    1.1274 H   0  0  0  0  0  0  0  0  0  0  0  0
    5.6450   34.8747   -2.1659 C   0  0  0  0  0  0  0  0  0  0  0  0
    4.7433   35.1117   -1.0976 O   0  0  0  0  0  0  0  0  0  0  0  0
    5.1878   34.9341   -0.2539 H   0  0  0  0  0  0  0  0  0  0  0  0
    6.1021   33.4024   -2.1082 C   0  0  0  0  0  0  0  0  0  0  0  0
    5.6846   32.7270   -3.2754 O   0  0  0  0  0  0  0  0  0  0  0  0
    4.7163   32.7440   -3.3299 H   0  0  0  0  0  0  0  0  0  0  0  0
    5.5639   32.7042   -0.8529 C   0  0  0  0  0  0  0  0  0  0  0  0
    6.1493   33.2446    0.3072 O   0  0  0  0  0  0  0  0  0  0  0  0
    7.1102   33.1162    0.2744 H   0  0  0  0  0  0  0  0  0  0  0  0
 16  1  1  0  0  0
 16 17  2  0  0  0
 16 18  1  0  0  0
  1  2  1  0  0  0
  1  6  1  0  0  0
  1  8  1  0  0  0
  2  3  1  0  0  0
  3  4  1  0  0  0
  3  7  1  0  0  0
  4  5  1  0  0  0
  4 13  1  0  0  0
  5 20  1  0  0  0
  5  8  1  0  0  0
 20 23  1  0  0  0
 20 21  1  0  0  0
 23 26  1  0  0  0
 23 24  1  0  0  0
 26 27  1  0  0  0
 11 12  1  0  0  0
 11 13  1  0  0  0
 11 14  2  0  0  0
 13 15  1  0  0  0
 18 19  1  0  0  0
  6  9  1  0  0  0
  7 10  1  0  0  0
 21 22  1  0  0  0
 24 25  1  0  0  0
 27 28  1  0  0  0
M  END
> <minimizedAffinity>
-7.58791

$$$$
5Z99_SLB_A_501


 28 28  0  0  0  0  0  0  0  0999 V2000
    6.7985   38.5256    1.0981 C   0  0  0  0  0  0  0  0  0  0  0  0
    7.8970   37.5014    1.2915 C   0  0  0  0  0  0  0  0  0  0  0  0
    7.6446   36.3580    0.3983 C   0  0  0  0  0  0  0  0  0  0  0  0
    7.5593   36.7958   -1.0515 C   0  0  0  0  0  0  0  0  0  0  0  0
    6.5566   37.9262   -1.2505 C   0  0  0  0  0  0  0  0  0  0  0  0
    5.5783   37.9862    1.4329 O   0  0  0  0  0  0  0  0  0  0  0  0
    8.7036   35.3622    0.5799 O   0  0  0  0  0  0  0  0  0  0  0  0
    6.7832   39.0078   -0.3122 O   0  0  0  0  0  0  0  0  0  0  0  0
    5.6027   37.6769    2.3519 H   0  0  0  0  0  0  0  0  0  0  0  0
    9.5600   35.7553    0.3499 H   0  0  0  0  0  0  0  0  0  0  0  0
    6.0901   34.7328   -1.3379 C   0  0  0  0  0  0  0  0  0  0  0  0
    5.6471   33.6284   -2.2801 C   0  0  0  0  0  0  0  0  0  0  0  0
    7.0560   35.6697   -1.8529 N   0  0  0  0  0  0  0  0  0  0  0  0
    5.6581   34.8247   -0.2254 O   0  0  0  0  0  0  0  0  0  0  0  0
    7.3902   35.5523   -2.7715 H   0  0  0  0  0  0  0  0  0  0  0  0
    7.0488   39.7779    1.9108 C   0  0  0  0  0  0  0  0  0  0  0  0
    8.1134   39.8636    2.5764 O   0  0  0  0  0  0  0  0  0  0  0  0
    6.1823   40.6977    1.9109 O   0  0  0  0  0  0  0  0  0  0  0  0
    5.3995   40.6039    1.4046 H   0  0  0  0  0  0  0  0  0  0  0  0
    6.6401   38.5501   -2.6232 C   0  0  0  0  0  0  0  0  0  0  0  0
    5.9251   37.7917   -3.5846 O   0  0  0  0  0  0  0  0  0  0  0  0
    6.3131   36.9052   -3.6507 H   0  0  0  0  0  0  0  0  0  0  0  0
    8.1135   38.6490   -3.0695 C   0  0  0  0  0  0  0  0  0  0  0  0
    8.5593   39.9832   -2.9510 O   0  0  0  0  0  0  0  0  0  0  0  0
    8.0271   40.5544   -3.5268 H   0  0  0  0  0  0  0  0  0  0  0  0
    8.2925   38.1405   -4.5056 C   0  0  0  0  0  0  0  0  0  0  0  0
    8.3169   36.7337   -4.5363 O   0  0  0  0  0  0  0  0  0  0  0  0
    9.0604   36.4115   -4.0030 H   0  0  0  0  0  0  0  0  0  0  0  0
 16  1  1  0  0  0
 16 17  2  0  0  0
 16 18  1  0  0  0
  1  2  1  0  0  0
  1  6  1  0  0  0
  1  8  1  0  0  0
  2  3  1  0  0  0
  3  4  1  0  0  0
  3  7  1  0  0  0
  4  5  1  0  0  0
  4 13  1  0  0  0
  5 20  1  0  0  0
  5  8  1  0  0  0
 20 23  1  0  0  0
 20 21  1  0  0  0
 23 26  1  0  0  0
 23 24  1  0  0  0
 26 27  1  0  0  0
 11 12  1  0  0  0
 11 13  1  0  0  0
 11 14  2  0  0  0
 13 15  1  0  0  0
 18 19  1  0  0  0
  6  9  1  0  0  0
  7 10  1  0  0  0
 21 22  1  0  0  0
 24 25  1  0  0  0
 27 28  1  0  0  0
M  END
> <minimizedAffinity>
-7.53499

$$$$
5Z99_SLB_A_501


 28 28  0  0  0  0  0  0  0  0999 V2000
    6.5714   39.1070    1.2773 C   0  0  0  0  0  0  0  0  0  0  0  0
    6.6012   39.6622   -0.1312 C   0  0  0  0  0  0  0  0  0  0  0  0
    7.7162   39.0396   -0.8649 C   0  0  0  0  0  0  0  0  0  0  0  0
    7.5942   37.5278   -0.8795 C   0  0  0  0  0  0  0  0  0  0  0  0
    7.4227   36.9534    0.5218 C   0  0  0  0  0  0  0  0  0  0  0  0
    7.7386   39.4149    1.9367 O   0  0  0  0  0  0  0  0  0  0  0  0
    7.7517   39.5722   -2.2292 O   0  0  0  0  0  0  0  0  0  0  0  0
    6.3663   37.6310    1.2474 O   0  0  0  0  0  0  0  0  0  0  0  0
    7.8590   40.3773    1.9485 H   0  0  0  0  0  0  0  0  0  0  0  0
    6.9211   39.3574   -2.6819 H   0  0  0  0  0  0  0  0  0  0  0  0
    9.0114   36.5752   -2.7718 C   0  0  0  0  0  0  0  0  0  0  0  0
   10.3671   36.0186   -3.1669 C   0  0  0  0  0  0  0  0  0  0  0  0
    8.8505   36.9606   -1.3927 N   0  0  0  0  0  0  0  0  0  0  0  0
    8.1216   36.6922   -3.5638 O   0  0  0  0  0  0  0  0  0  0  0  0
    9.6065   36.8403   -0.7736 H   0  0  0  0  0  0  0  0  0  0  0  0
    5.3846   39.6260    2.0605 C   0  0  0  0  0  0  0  0  0  0  0  0
    4.5163   38.8056    2.4563 O   0  0  0  0  0  0  0  0  0  0  0  0
    5.2882   40.8654    2.2871 O   0  0  0  0  0  0  0  0  0  0  0  0
    5.9517   41.4510    1.9790 H   0  0  0  0  0  0  0  0  0  0  0  0
    7.0430   35.4918    0.5147 C   0  0  0  0  0  0  0  0  0  0  0  0
    8.1791   34.6574    0.6683 O   0  0  0  0  0  0  0  0  0  0  0  0
    8.7860   34.7976   -0.0753 H   0  0  0  0  0  0  0  0  0  0  0  0
    6.3443   35.1342   -0.8134 C   0  0  0  0  0  0  0  0  0  0  0  0
    5.1589   35.8891   -0.9473 O   0  0  0  0  0  0  0  0  0  0  0  0
    4.5557   35.6759   -0.2182 H   0  0  0  0  0  0  0  0  0  0  0  0
    6.0454   33.6319   -0.8950 C   0  0  0  0  0  0  0  0  0  0  0  0
    5.9951   33.0636    0.3915 O   0  0  0  0  0  0  0  0  0  0  0  0
    6.8519   33.1813    0.8307 H   0  0  0  0  0  0  0  0  0  0  0  0
 16  1  1  0  0  0
 16 17  2  0  0  0
 16 18  1  0  0  0
  1  2  1  0  0  0
  1  6  1  0  0  0
  1  8  1  0  0  0
  2  3  1  0  0  0
  3  4  1  0  0  0
  3  7  1  0  0  0
  4  5  1  0  0  0
  4 13  1  0  0  0
  5 20  1  0  0  0
  5  8  1  0  0  0
 20 23  1  0  0  0
 20 21  1  0  0  0
 23 26  1  0  0  0
 23 24  1  0  0  0
 26 27  1  0  0  0
 11 12  1  0  0  0
 11 13  1  0  0  0
 11 14  2  0  0  0
 13 15  1  0  0  0
 18 19  1  0  0  0
  6  9  1  0  0  0
  7 10  1  0  0  0
 21 22  1  0  0  0
 24 25  1  0  0  0
 27 28  1  0  0  0
M  END
> <minimizedAffinity>
-7.50645

$$$$
