4UJB_8BQ_A_1351


 27 30  0  0  0  0  0  0  0  0999 V2000
  -24.6057   10.0101    2.0585 C   0  0  0  0  0  0  0  0  0  0  0  0
  -23.3666    9.0164    2.0999 C   0  0  0  0  0  0  0  0  0  0  0  0
  -23.7900    7.9751    2.7705 N   0  0  0  0  0  0  0  0  0  0  0  0
  -25.1329    8.3969    3.5130 C   0  0  0  0  0  0  0  0  0  0  0  0
  -25.2517    9.7526    3.3827 C   0  0  0  0  0  0  0  0  0  0  0  0
  -23.0881    7.6926    3.4545 H   0  0  0  0  0  0  0  0  0  0  0  0
  -26.7947    9.8976    3.6049 C   0  0  0  0  0  0  0  0  0  0  0  0
  -27.6132    9.7612    2.5165 C   0  0  0  0  0  0  0  0  0  0  0  0
  -29.0238    9.8479    2.6662 C   0  0  0  0  0  0  0  0  0  0  0  0
  -29.5624   10.0864    3.9162 C   0  0  0  0  0  0  0  0  0  0  0  0
  -28.6972   10.2372    5.0529 C   0  0  0  0  0  0  0  0  0  0  0  0
  -27.3379   10.1516    4.9067 C   0  0  0  0  0  0  0  0  0  0  0  0
  -31.0675   10.1808    4.0614 C   0  0  0  0  0  0  0  0  0  0  0  0
  -31.5895   10.3797    5.1604 O   0  0  0  0  0  0  0  0  0  0  0  0
  -31.8646   10.0312    2.9267 N   0  0  0  0  0  0  0  0  0  0  0  0
  -31.2881    9.7888    1.6297 C   0  0  0  0  0  0  0  0  0  0  0  0
  -29.8566    9.6928    1.4863 N   0  0  0  0  0  0  0  0  0  0  0  0
  -32.8433   10.0927    3.0145 H   0  0  0  0  0  0  0  0  0  0  0  0
  -24.2476   11.5029    2.0030 C   0  0  0  0  0  0  0  0  0  0  0  0
  -24.5423   12.2791    2.9445 O   0  0  0  0  0  0  0  0  0  0  0  0
  -22.4394   10.8128   -2.4175 F   0  0  0  0  0  0  0  0  0  0  0  0
  -22.7044   11.6627   -1.4694 C   0  0  0  0  0  0  0  0  0  0  0  0
  -22.4176   12.9467   -1.6234 C   0  0  0  0  0  0  0  0  0  0  0  0
  -22.7213   13.8712   -0.5831 C   0  0  0  0  0  0  0  0  0  0  0  0
  -23.3089   13.3963    0.5955 C   0  0  0  0  0  0  0  0  0  0  0  0
  -23.5947   12.0454    0.7404 C   0  0  0  0  0  0  0  0  0  0  0  0
  -23.3090   11.1698   -0.2617 C   0  0  0  0  0  0  0  0  0  0  0  0
 21 22  1  0  0  0
 22 23  2  0  0  0
 22 27  1  0  0  0
 23 24  1  0  0  0
 24 25  2  0  0  0
 25 26  1  0  0  0
 26 27  2  0  0  0
 26 19  1  0  0  0
 19 20  2  0  0  0
 19  1  1  0  0  0
  1  2  1  0  0  0
  1  5  1  0  0  0
  2  3  1  0  0  0
  3  4  1  0  0  0
  4  5  1  0  0  0
  5  7  1  0  0  0
  7  8  2  0  0  0
  7 12  1  0  0  0
  8  9  1  0  0  0
  9 10  2  0  0  0
  9 17  1  0  0  0
 10 11  1  0  0  0
 10 13  1  0  0  0
 11 12  2  0  0  0
 13 14  2  0  0  0
 13 15  1  0  0  0
 15 16  1  0  0  0
 16 17  2  0  0  0
  3  6  1  0  0  0
 15 18  1  0  0  0
M  END
> <minimizedAffinity>
-10.99720

$$$$
4UJB_8BQ_A_1351


 27 30  0  0  0  0  0  0  0  0999 V2000
  -25.0729    9.4479    2.4936 C   0  0  0  0  0  0  0  0  0  0  0  0
  -23.9732    8.4859    3.1180 C   0  0  0  0  0  0  0  0  0  0  0  0
  -24.6516    7.5532    3.7369 N   0  0  0  0  0  0  0  0  0  0  0  0
  -26.1507    8.0671    3.8819 C   0  0  0  0  0  0  0  0  0  0  0  0
  -26.1566    9.3860    3.5226 C   0  0  0  0  0  0  0  0  0  0  0  0
  -24.2504    7.3852    4.6595 H   0  0  0  0  0  0  0  0  0  0  0  0
  -27.6704    9.5455    3.1562 C   0  0  0  0  0  0  0  0  0  0  0  0
  -28.5805    9.5331    4.1784 C   0  0  0  0  0  0  0  0  0  0  0  0
  -29.9643    9.7093    3.9070 C   0  0  0  0  0  0  0  0  0  0  0  0
  -30.3861    9.8780    2.6019 C   0  0  0  0  0  0  0  0  0  0  0  0
  -29.4265    9.8812    1.5330 C   0  0  0  0  0  0  0  0  0  0  0  0
  -28.0929    9.7128    1.7969 C   0  0  0  0  0  0  0  0  0  0  0  0
  -31.8645   10.0606    2.3257 C   0  0  0  0  0  0  0  0  0  0  0  0
  -32.2816   10.2267    1.1776 O   0  0  0  0  0  0  0  0  0  0  0  0
  -32.7570   10.0459    3.3975 N   0  0  0  0  0  0  0  0  0  0  0  0
  -32.3026    9.8634    4.7515 C   0  0  0  0  0  0  0  0  0  0  0  0
  -30.8963    9.6943    5.0209 N   0  0  0  0  0  0  0  0  0  0  0  0
  -33.7191   10.1629    3.2243 H   0  0  0  0  0  0  0  0  0  0  0  0
  -24.6538   10.9191    2.3535 C   0  0  0  0  0  0  0  0  0  0  0  0
  -24.9288   11.7623    3.2418 O   0  0  0  0  0  0  0  0  0  0  0  0
  -22.6636   14.3638   -0.3777 F   0  0  0  0  0  0  0  0  0  0  0  0
  -22.9706   13.1052   -0.2644 C   0  0  0  0  0  0  0  0  0  0  0  0
  -22.6749   12.2548   -1.2360 C   0  0  0  0  0  0  0  0  0  0  0  0
  -23.0062   10.8763   -1.0975 C   0  0  0  0  0  0  0  0  0  0  0  0
  -23.6553   10.4488    0.0668 C   0  0  0  0  0  0  0  0  0  0  0  0
  -23.9634   11.3573    1.0704 C   0  0  0  0  0  0  0  0  0  0  0  0
  -23.6360   12.6713    0.9341 C   0  0  0  0  0  0  0  0  0  0  0  0
 21 22  1  0  0  0
 22 23  2  0  0  0
 22 27  1  0  0  0
 23 24  1  0  0  0
 24 25  2  0  0  0
 25 26  1  0  0  0
 26 27  2  0  0  0
 26 19  1  0  0  0
 19 20  2  0  0  0
 19  1  1  0  0  0
  1  2  1  0  0  0
  1  5  1  0  0  0
  2  3  1  0  0  0
  3  4  1  0  0  0
  4  5  1  0  0  0
  5  7  1  0  0  0
  7  8  2  0  0  0
  7 12  1  0  0  0
  8  9  1  0  0  0
  9 10  2  0  0  0
  9 17  1  0  0  0
 10 11  1  0  0  0
 10 13  1  0  0  0
 11 12  2  0  0  0
 13 14  2  0  0  0
 13 15  1  0  0  0
 15 16  1  0  0  0
 16 17  2  0  0  0
  3  6  1  0  0  0
 15 18  1  0  0  0
M  END
> <minimizedAffinity>
-10.59746

$$$$
4UJB_8BQ_A_1351


 27 30  0  0  0  0  0  0  0  0999 V2000
  -21.8111   12.5217   -1.2587 C   0  0  0  0  0  0  0  0  0  0  0  0
  -21.8792   14.1066   -1.3495 C   0  0  0  0  0  0  0  0  0  0  0  0
  -22.4187   14.4874   -0.2193 N   0  0  0  0  0  0  0  0  0  0  0  0
  -23.0707   13.2030    0.4574 C   0  0  0  0  0  0  0  0  0  0  0  0
  -23.0454   12.2044   -0.4759 C   0  0  0  0  0  0  0  0  0  0  0  0
  -23.1365   15.1902   -0.3956 H   0  0  0  0  0  0  0  0  0  0  0  0
  -23.1397   10.9632    0.4737 C   0  0  0  0  0  0  0  0  0  0  0  0
  -24.2989   10.7842    1.1790 C   0  0  0  0  0  0  0  0  0  0  0  0
  -24.4529    9.6555    2.0286 C   0  0  0  0  0  0  0  0  0  0  0  0
  -23.4178    8.7480    2.1496 C   0  0  0  0  0  0  0  0  0  0  0  0
  -22.2005    8.9466    1.4132 C   0  0  0  0  0  0  0  0  0  0  0  0
  -22.0547   10.0344    0.5935 C   0  0  0  0  0  0  0  0  0  0  0  0
  -23.5931    7.5513    3.0619 C   0  0  0  0  0  0  0  0  0  0  0  0
  -22.6995    6.7115    3.1887 O   0  0  0  0  0  0  0  0  0  0  0  0
  -24.7925    7.4051    3.7586 N   0  0  0  0  0  0  0  0  0  0  0  0
  -25.8599    8.3624    3.6265 C   0  0  0  0  0  0  0  0  0  0  0  0
  -25.7007    9.5005    2.7557 N   0  0  0  0  0  0  0  0  0  0  0  0
  -24.9120    6.6302    4.3539 H   0  0  0  0  0  0  0  0  0  0  0  0
  -21.9144   11.7829   -2.6016 C   0  0  0  0  0  0  0  0  0  0  0  0
  -22.7727   12.1060   -3.4587 O   0  0  0  0  0  0  0  0  0  0  0  0
  -20.8928    7.6872   -4.9399 F   0  0  0  0  0  0  0  0  0  0  0  0
  -20.5220    8.5486   -4.0389 C   0  0  0  0  0  0  0  0  0  0  0  0
  -19.3864    8.3785   -3.3786 C   0  0  0  0  0  0  0  0  0  0  0  0
  -18.9843    9.3334   -2.4009 C   0  0  0  0  0  0  0  0  0  0  0  0
  -19.8122   10.4333   -2.1471 C   0  0  0  0  0  0  0  0  0  0  0  0
  -21.0025   10.5895   -2.8446 C   0  0  0  0  0  0  0  0  0  0  0  0
  -21.3755    9.6771   -3.7831 C   0  0  0  0  0  0  0  0  0  0  0  0
 21 22  1  0  0  0
 22 23  2  0  0  0
 22 27  1  0  0  0
 23 24  1  0  0  0
 24 25  2  0  0  0
 25 26  1  0  0  0
 26 27  2  0  0  0
 26 19  1  0  0  0
 19 20  2  0  0  0
 19  1  1  0  0  0
  1  2  1  0  0  0
  1  5  1  0  0  0
  2  3  1  0  0  0
  3  4  1  0  0  0
  4  5  1  0  0  0
  5  7  1  0  0  0
  7  8  2  0  0  0
  7 12  1  0  0  0
  8  9  1  0  0  0
  9 10  2  0  0  0
  9 17  1  0  0  0
 10 11  1  0  0  0
 10 13  1  0  0  0
 11 12  2  0  0  0
 13 14  2  0  0  0
 13 15  1  0  0  0
 15 16  1  0  0  0
 16 17  2  0  0  0
  3  6  1  0  0  0
 15 18  1  0  0  0
M  END
> <minimizedAffinity>
-10.30433

$$$$
4UJB_8BQ_A_1351


 27 30  0  0  0  0  0  0  0  0999 V2000
  -24.8459    9.6055    3.6875 C   0  0  0  0  0  0  0  0  0  0  0  0
  -23.6078   10.4687    3.1910 C   0  0  0  0  0  0  0  0  0  0  0  0
  -24.1288   11.5864    2.7523 N   0  0  0  0  0  0  0  0  0  0  0  0
  -25.6924   11.3493    2.5748 C   0  0  0  0  0  0  0  0  0  0  0  0
  -25.9109   10.0073    2.7173 C   0  0  0  0  0  0  0  0  0  0  0  0
  -23.7108   11.8372    1.8563 H   0  0  0  0  0  0  0  0  0  0  0  0
  -27.4283   10.0337    3.1017 C   0  0  0  0  0  0  0  0  0  0  0  0
  -28.3444    9.8398    2.1035 C   0  0  0  0  0  0  0  0  0  0  0  0
  -29.7338    9.8184    2.4012 C   0  0  0  0  0  0  0  0  0  0  0  0
  -30.1542   10.0102    3.7035 C   0  0  0  0  0  0  0  0  0  0  0  0
  -29.1877   10.2219    4.7450 C   0  0  0  0  0  0  0  0  0  0  0  0
  -27.8488   10.2405    4.4562 C   0  0  0  0  0  0  0  0  0  0  0  0
  -31.6384    9.9893    4.0068 C   0  0  0  0  0  0  0  0  0  0  0  0
  -32.0550   10.1436    5.1568 O   0  0  0  0  0  0  0  0  0  0  0  0
  -32.5371    9.7841    2.9602 N   0  0  0  0  0  0  0  0  0  0  0  0
  -32.0839    9.5914    1.6072 C   0  0  0  0  0  0  0  0  0  0  0  0
  -30.6724    9.6051    1.3134 N   0  0  0  0  0  0  0  0  0  0  0  0
  -33.5029    9.7706    3.1508 H   0  0  0  0  0  0  0  0  0  0  0  0
  -24.6711    8.0833    3.5756 C   0  0  0  0  0  0  0  0  0  0  0  0
  -25.6627    7.3144    3.5416 O   0  0  0  0  0  0  0  0  0  0  0  0
  -20.7727    6.4757    1.2295 F   0  0  0  0  0  0  0  0  0  0  0  0
  -21.3274    6.7214    2.3798 C   0  0  0  0  0  0  0  0  0  0  0  0
  -20.6677    6.4858    3.5040 C   0  0  0  0  0  0  0  0  0  0  0  0
  -21.2805    6.7681    4.7587 C   0  0  0  0  0  0  0  0  0  0  0  0
  -22.5834    7.2799    4.7767 C   0  0  0  0  0  0  0  0  0  0  0  0
  -23.2607    7.5127    3.5874 C   0  0  0  0  0  0  0  0  0  0  0  0
  -22.6651    7.2482    2.3925 C   0  0  0  0  0  0  0  0  0  0  0  0
 21 22  1  0  0  0
 22 23  2  0  0  0
 22 27  1  0  0  0
 23 24  1  0  0  0
 24 25  2  0  0  0
 25 26  1  0  0  0
 26 27  2  0  0  0
 26 19  1  0  0  0
 19 20  2  0  0  0
 19  1  1  0  0  0
  1  2  1  0  0  0
  1  5  1  0  0  0
  2  3  1  0  0  0
  3  4  1  0  0  0
  4  5  1  0  0  0
  5  7  1  0  0  0
  7  8  2  0  0  0
  7 12  1  0  0  0
  8  9  1  0  0  0
  9 10  2  0  0  0
  9 17  1  0  0  0
 10 11  1  0  0  0
 10 13  1  0  0  0
 11 12  2  0  0  0
 13 14  2  0  0  0
 13 15  1  0  0  0
 15 16  1  0  0  0
 16 17  2  0  0  0
  3  6  1  0  0  0
 15 18  1  0  0  0
M  END
> <minimizedAffinity>
-10.15055

$$$$
4UJB_8BQ_A_1351


 27 30  0  0  0  0  0  0  0  0999 V2000
  -24.7620    9.7587    3.2169 C   0  0  0  0  0  0  0  0  0  0  0  0
  -23.7694    9.6245    4.4503 C   0  0  0  0  0  0  0  0  0  0  0  0
  -24.5440    9.4448    5.4900 N   0  0  0  0  0  0  0  0  0  0  0  0
  -26.0235    9.8429    5.0600 C   0  0  0  0  0  0  0  0  0  0  0  0
  -25.9341   10.4495    3.8381 C   0  0  0  0  0  0  0  0  0  0  0  0
  -24.2345   10.0365    6.2611 H   0  0  0  0  0  0  0  0  0  0  0  0
  -27.4001   10.2298    3.3345 C   0  0  0  0  0  0  0  0  0  0  0  0
  -28.4106   10.3062    4.2544 C   0  0  0  0  0  0  0  0  0  0  0  0
  -29.7630   10.1502    3.8469 C   0  0  0  0  0  0  0  0  0  0  0  0
  -30.0497    9.9054    2.5174 C   0  0  0  0  0  0  0  0  0  0  0  0
  -28.9837    9.8177    1.5585 C   0  0  0  0  0  0  0  0  0  0  0  0
  -27.6808    9.9700    1.9532 C   0  0  0  0  0  0  0  0  0  0  0  0
  -31.4953    9.7369    2.0968 C   0  0  0  0  0  0  0  0  0  0  0  0
  -31.7953    9.5298    0.9191 O   0  0  0  0  0  0  0  0  0  0  0  0
  -32.4940    9.8268    3.0662 N   0  0  0  0  0  0  0  0  0  0  0  0
  -32.1791   10.0767    4.4488 C   0  0  0  0  0  0  0  0  0  0  0  0
  -30.8054   10.2432    4.8541 N   0  0  0  0  0  0  0  0  0  0  0  0
  -33.4352    9.7170    2.7992 H   0  0  0  0  0  0  0  0  0  0  0  0
  -24.2617   10.6447    2.0659 C   0  0  0  0  0  0  0  0  0  0  0  0
  -24.4160   11.8902    2.0881 O   0  0  0  0  0  0  0  0  0  0  0  0
  -21.7275    7.0404    0.0979 F   0  0  0  0  0  0  0  0  0  0  0  0
  -22.3758    8.1505   -0.0991 C   0  0  0  0  0  0  0  0  0  0  0  0
  -22.4875    8.6518   -1.3201 C   0  0  0  0  0  0  0  0  0  0  0  0
  -23.2086    9.8629   -1.5265 C   0  0  0  0  0  0  0  0  0  0  0  0
  -23.7766   10.5101   -0.4228 C   0  0  0  0  0  0  0  0  0  0  0  0
  -23.6416    9.9723    0.8501 C   0  0  0  0  0  0  0  0  0  0  0  0
  -22.9583    8.8103    1.0378 C   0  0  0  0  0  0  0  0  0  0  0  0
 21 22  1  0  0  0
 22 23  2  0  0  0
 22 27  1  0  0  0
 23 24  1  0  0  0
 24 25  2  0  0  0
 25 26  1  0  0  0
 26 27  2  0  0  0
 26 19  1  0  0  0
 19 20  2  0  0  0
 19  1  1  0  0  0
  1  2  1  0  0  0
  1  5  1  0  0  0
  2  3  1  0  0  0
  3  4  1  0  0  0
  4  5  1  0  0  0
  5  7  1  0  0  0
  7  8  2  0  0  0
  7 12  1  0  0  0
  8  9  1  0  0  0
  9 10  2  0  0  0
  9 17  1  0  0  0
 10 11  1  0  0  0
 10 13  1  0  0  0
 11 12  2  0  0  0
 13 14  2  0  0  0
 13 15  1  0  0  0
 15 16  1  0  0  0
 16 17  2  0  0  0
  3  6  1  0  0  0
 15 18  1  0  0  0
M  END
> <minimizedAffinity>
-9.94624

$$$$
4UJB_8BQ_A_1351


 27 30  0  0  0  0  0  0  0  0999 V2000
  -21.6489   12.1999   -1.4853 C   0  0  0  0  0  0  0  0  0  0  0  0
  -21.2097   13.7104   -1.7095 C   0  0  0  0  0  0  0  0  0  0  0  0
  -21.6590   14.3526   -0.6612 N   0  0  0  0  0  0  0  0  0  0  0  0
  -22.7163   13.4086    0.0625 C   0  0  0  0  0  0  0  0  0  0  0  0
  -22.9589   12.3610   -0.7816 C   0  0  0  0  0  0  0  0  0  0  0  0
  -22.1089   15.2208   -0.9513 H   0  0  0  0  0  0  0  0  0  0  0  0
  -23.4880   11.3136    0.2547 C   0  0  0  0  0  0  0  0  0  0  0  0
  -22.6760   10.2572    0.5678 C   0  0  0  0  0  0  0  0  0  0  0  0
  -23.0907    9.2957    1.5286 C   0  0  0  0  0  0  0  0  0  0  0  0
  -24.3264    9.4263    2.1331 C   0  0  0  0  0  0  0  0  0  0  0  0
  -25.1775   10.5326    1.7934 C   0  0  0  0  0  0  0  0  0  0  0  0
  -24.7751   11.4593    0.8682 C   0  0  0  0  0  0  0  0  0  0  0  0
  -24.7584    8.3921    3.1525 C   0  0  0  0  0  0  0  0  0  0  0  0
  -25.8472    8.4783    3.7243 O   0  0  0  0  0  0  0  0  0  0  0  0
  -23.8979    7.3342    3.4452 N   0  0  0  0  0  0  0  0  0  0  0  0
  -22.6155    7.2086    2.8025 C   0  0  0  0  0  0  0  0  0  0  0  0
  -22.1969    8.1926    1.8355 N   0  0  0  0  0  0  0  0  0  0  0  0
  -24.1734    6.6583    4.1059 H   0  0  0  0  0  0  0  0  0  0  0  0
  -21.9105   11.3958   -2.7678 C   0  0  0  0  0  0  0  0  0  0  0  0
  -22.7729   11.7633   -3.6027 O   0  0  0  0  0  0  0  0  0  0  0  0
  -19.1172    7.8503   -1.0613 F   0  0  0  0  0  0  0  0  0  0  0  0
  -19.7635    8.3325   -2.0816 C   0  0  0  0  0  0  0  0  0  0  0  0
  -19.7589    7.6902   -3.2401 C   0  0  0  0  0  0  0  0  0  0  0  0
  -20.4786    8.2215   -4.3487 C   0  0  0  0  0  0  0  0  0  0  0  0
  -21.1696    9.4289   -4.1924 C   0  0  0  0  0  0  0  0  0  0  0  0
  -21.1557   10.0907   -2.9720 C   0  0  0  0  0  0  0  0  0  0  0  0
  -20.4726    9.5721   -1.9151 C   0  0  0  0  0  0  0  0  0  0  0  0
 21 22  1  0  0  0
 22 23  2  0  0  0
 22 27  1  0  0  0
 23 24  1  0  0  0
 24 25  2  0  0  0
 25 26  1  0  0  0
 26 27  2  0  0  0
 26 19  1  0  0  0
 19 20  2  0  0  0
 19  1  1  0  0  0
  1  2  1  0  0  0
  1  5  1  0  0  0
  2  3  1  0  0  0
  3  4  1  0  0  0
  4  5  1  0  0  0
  5  7  1  0  0  0
  7  8  2  0  0  0
  7 12  1  0  0  0
  8  9  1  0  0  0
  9 10  2  0  0  0
  9 17  1  0  0  0
 10 11  1  0  0  0
 10 13  1  0  0  0
 11 12  2  0  0  0
 13 14  2  0  0  0
 13 15  1  0  0  0
 15 16  1  0  0  0
 16 17  2  0  0  0
  3  6  1  0  0  0
 15 18  1  0  0  0
M  END
> <minimizedAffinity>
-9.91374

$$$$
4UJB_8BQ_A_1351


 27 30  0  0  0  0  0  0  0  0999 V2000
  -25.5901    9.5312    3.8116 C   0  0  0  0  0  0  0  0  0  0  0  0
  -25.2456    9.4779    5.3618 C   0  0  0  0  0  0  0  0  0  0  0  0
  -23.9641    9.7348    5.4326 N   0  0  0  0  0  0  0  0  0  0  0  0
  -23.3609    9.5721    3.9690 C   0  0  0  0  0  0  0  0  0  0  0  0
  -24.3339    8.9995    3.1981 C   0  0  0  0  0  0  0  0  0  0  0  0
  -23.5124    9.0791    6.0701 H   0  0  0  0  0  0  0  0  0  0  0  0
  -23.8373    9.4481    1.7828 C   0  0  0  0  0  0  0  0  0  0  0  0
  -22.8754    8.6895    1.1724 C   0  0  0  0  0  0  0  0  0  0  0  0
  -22.4132    9.0299   -0.1276 C   0  0  0  0  0  0  0  0  0  0  0  0
  -22.9308   10.1415   -0.7649 C   0  0  0  0  0  0  0  0  0  0  0  0
  -23.9338   10.9383   -0.1150 C   0  0  0  0  0  0  0  0  0  0  0  0
  -24.3792   10.6075    1.1375 C   0  0  0  0  0  0  0  0  0  0  0  0
  -22.4265   10.4959   -2.1489 C   0  0  0  0  0  0  0  0  0  0  0  0
  -22.8707   11.4716   -2.7575 O   0  0  0  0  0  0  0  0  0  0  0  0
  -21.4487    9.6928   -2.7358 N   0  0  0  0  0  0  0  0  0  0  0  0
  -20.9149    8.5409   -2.0566 C   0  0  0  0  0  0  0  0  0  0  0  0
  -21.3948    8.1958   -0.7415 N   0  0  0  0  0  0  0  0  0  0  0  0
  -21.1161    9.9187   -3.6345 H   0  0  0  0  0  0  0  0  0  0  0  0
  -26.7430    8.6199    3.3643 C   0  0  0  0  0  0  0  0  0  0  0  0
  -26.5423    7.4206    3.0527 O   0  0  0  0  0  0  0  0  0  0  0  0
  -30.9163   10.0389    5.3280 F   0  0  0  0  0  0  0  0  0  0  0  0
  -30.2042    9.9270    4.2456 C   0  0  0  0  0  0  0  0  0  0  0  0
  -30.6866   10.3384    3.0825 C   0  0  0  0  0  0  0  0  0  0  0  0
  -29.8944   10.2210    1.9044 C   0  0  0  0  0  0  0  0  0  0  0  0
  -28.6173    9.6555    2.0000 C   0  0  0  0  0  0  0  0  0  0  0  0
  -28.1329    9.2234    3.2272 C   0  0  0  0  0  0  0  0  0  0  0  0
  -28.8928    9.3469    4.3496 C   0  0  0  0  0  0  0  0  0  0  0  0
 21 22  1  0  0  0
 22 23  2  0  0  0
 22 27  1  0  0  0
 23 24  1  0  0  0
 24 25  2  0  0  0
 25 26  1  0  0  0
 26 27  2  0  0  0
 26 19  1  0  0  0
 19 20  2  0  0  0
 19  1  1  0  0  0
  1  2  1  0  0  0
  1  5  1  0  0  0
  2  3  1  0  0  0
  3  4  1  0  0  0
  4  5  1  0  0  0
  5  7  1  0  0  0
  7  8  2  0  0  0
  7 12  1  0  0  0
  8  9  1  0  0  0
  9 10  2  0  0  0
  9 17  1  0  0  0
 10 11  1  0  0  0
 10 13  1  0  0  0
 11 12  2  0  0  0
 13 14  2  0  0  0
 13 15  1  0  0  0
 15 16  1  0  0  0
 16 17  2  0  0  0
  3  6  1  0  0  0
 15 18  1  0  0  0
M  END
> <minimizedAffinity>
-9.71596

$$$$
4UJB_8BQ_A_1351


 27 30  0  0  0  0  0  0  0  0999 V2000
  -21.8789   12.5267   -1.3065 C   0  0  0  0  0  0  0  0  0  0  0  0
  -22.2339   14.0751   -1.2746 C   0  0  0  0  0  0  0  0  0  0  0  0
  -22.7306   14.2840   -0.0818 N   0  0  0  0  0  0  0  0  0  0  0  0
  -23.0832   12.8647    0.5459 C   0  0  0  0  0  0  0  0  0  0  0  0
  -22.9640   11.9441   -0.4577 C   0  0  0  0  0  0  0  0  0  0  0  0
  -23.5741   14.8533   -0.1507 H   0  0  0  0  0  0  0  0  0  0  0  0
  -22.7535   10.6528    0.4021 C   0  0  0  0  0  0  0  0  0  0  0  0
  -21.5154   10.0696    0.3877 C   0  0  0  0  0  0  0  0  0  0  0  0
  -21.2581    8.9163    1.1771 C   0  0  0  0  0  0  0  0  0  0  0  0
  -22.2715    8.3786    1.9476 C   0  0  0  0  0  0  0  0  0  0  0  0
  -23.5711    8.9906    1.9514 C   0  0  0  0  0  0  0  0  0  0  0  0
  -23.8165   10.1033    1.1910 C   0  0  0  0  0  0  0  0  0  0  0  0
  -21.9853    7.1464    2.7814 C   0  0  0  0  0  0  0  0  0  0  0  0
  -22.8573    6.6426    3.4923 O   0  0  0  0  0  0  0  0  0  0  0  0
  -20.7083    6.5870    2.7406 N   0  0  0  0  0  0  0  0  0  0  0  0
  -19.6642    7.1555    1.9281 C   0  0  0  0  0  0  0  0  0  0  0  0
  -19.9293    8.3311    1.1367 N   0  0  0  0  0  0  0  0  0  0  0  0
  -20.5165    5.7856    3.2792 H   0  0  0  0  0  0  0  0  0  0  0  0
  -21.9677   11.8618   -2.6885 C   0  0  0  0  0  0  0  0  0  0  0  0
  -22.7708   12.2754   -3.5601 O   0  0  0  0  0  0  0  0  0  0  0  0
  -21.5244    7.3223   -4.2642 F   0  0  0  0  0  0  0  0  0  0  0  0
  -20.9300    8.3630   -3.7592 C   0  0  0  0  0  0  0  0  0  0  0  0
  -19.6300    8.3334   -3.5068 C   0  0  0  0  0  0  0  0  0  0  0  0
  -18.9865    9.4822   -2.9633 C   0  0  0  0  0  0  0  0  0  0  0  0
  -19.7514   10.6230   -2.6926 C   0  0  0  0  0  0  0  0  0  0  0  0
  -21.1142   10.6313   -2.9573 C   0  0  0  0  0  0  0  0  0  0  0  0
  -21.7200    9.5324   -3.4844 C   0  0  0  0  0  0  0  0  0  0  0  0
 21 22  1  0  0  0
 22 23  2  0  0  0
 22 27  1  0  0  0
 23 24  1  0  0  0
 24 25  2  0  0  0
 25 26  1  0  0  0
 26 27  2  0  0  0
 26 19  1  0  0  0
 19 20  2  0  0  0
 19  1  1  0  0  0
  1  2  1  0  0  0
  1  5  1  0  0  0
  2  3  1  0  0  0
  3  4  1  0  0  0
  4  5  1  0  0  0
  5  7  1  0  0  0
  7  8  2  0  0  0
  7 12  1  0  0  0
  8  9  1  0  0  0
  9 10  2  0  0  0
  9 17  1  0  0  0
 10 11  1  0  0  0
 10 13  1  0  0  0
 11 12  2  0  0  0
 13 14  2  0  0  0
 13 15  1  0  0  0
 15 16  1  0  0  0
 16 17  2  0  0  0
  3  6  1  0  0  0
 15 18  1  0  0  0
M  END
> <minimizedAffinity>
-9.57585

$$$$
4UJB_8BQ_A_1351


 27 30  0  0  0  0  0  0  0  0999 V2000
  -24.0318   11.0044    1.3979 C   0  0  0  0  0  0  0  0  0  0  0  0
  -24.1352   12.5179    1.8703 C   0  0  0  0  0  0  0  0  0  0  0  0
  -23.5051   13.2033    0.9503 N   0  0  0  0  0  0  0  0  0  0  0  0
  -22.6504   12.1749    0.0875 C   0  0  0  0  0  0  0  0  0  0  0  0
  -22.6868   10.9766    0.7444 C   0  0  0  0  0  0  0  0  0  0  0  0
  -22.8882   13.8879    1.3876 H   0  0  0  0  0  0  0  0  0  0  0  0
  -22.3544   10.0194   -0.4491 C   0  0  0  0  0  0  0  0  0  0  0  0
  -21.7287   10.5542   -1.5426 C   0  0  0  0  0  0  0  0  0  0  0  0
  -21.3714    9.7247   -2.6399 C   0  0  0  0  0  0  0  0  0  0  0  0
  -21.6741    8.3769   -2.6014 C   0  0  0  0  0  0  0  0  0  0  0  0
  -22.3388    7.8238   -1.4543 C   0  0  0  0  0  0  0  0  0  0  0  0
  -22.6808    8.6248   -0.3971 C   0  0  0  0  0  0  0  0  0  0  0  0
  -21.2916    7.5044   -3.7795 C   0  0  0  0  0  0  0  0  0  0  0  0
  -21.5319    6.2952   -3.7802 O   0  0  0  0  0  0  0  0  0  0  0  0
  -20.6512    8.0897   -4.8715 N   0  0  0  0  0  0  0  0  0  0  0  0
  -20.3476    9.4969   -4.8992 C   0  0  0  0  0  0  0  0  0  0  0  0
  -20.7045   10.3312   -3.7788 N   0  0  0  0  0  0  0  0  0  0  0  0
  -20.4012    7.5281   -5.6406 H   0  0  0  0  0  0  0  0  0  0  0  0
  -24.0166    9.9642    2.5283 C   0  0  0  0  0  0  0  0  0  0  0  0
  -22.9621    9.3612    2.8446 O   0  0  0  0  0  0  0  0  0  0  0  0
  -27.9661   11.2950    4.9608 F   0  0  0  0  0  0  0  0  0  0  0  0
  -27.2964   10.3196    4.4208 C   0  0  0  0  0  0  0  0  0  0  0  0
  -27.7647    9.0814    4.4666 C   0  0  0  0  0  0  0  0  0  0  0  0
  -27.0284    8.0217    3.8630 C   0  0  0  0  0  0  0  0  0  0  0  0
  -25.8083    8.3124    3.2412 C   0  0  0  0  0  0  0  0  0  0  0  0
  -25.3310    9.6158    3.2107 C   0  0  0  0  0  0  0  0  0  0  0  0
  -26.0446   10.6240    3.7823 C   0  0  0  0  0  0  0  0  0  0  0  0
 21 22  1  0  0  0
 22 23  2  0  0  0
 22 27  1  0  0  0
 23 24  1  0  0  0
 24 25  2  0  0  0
 25 26  1  0  0  0
 26 27  2  0  0  0
 26 19  1  0  0  0
 19 20  2  0  0  0
 19  1  1  0  0  0
  1  2  1  0  0  0
  1  5  1  0  0  0
  2  3  1  0  0  0
  3  4  1  0  0  0
  4  5  1  0  0  0
  5  7  1  0  0  0
  7  8  2  0  0  0
  7 12  1  0  0  0
  8  9  1  0  0  0
  9 10  2  0  0  0
  9 17  1  0  0  0
 10 11  1  0  0  0
 10 13  1  0  0  0
 11 12  2  0  0  0
 13 14  2  0  0  0
 13 15  1  0  0  0
 15 16  1  0  0  0
 16 17  2  0  0  0
  3  6  1  0  0  0
 15 18  1  0  0  0
M  END
> <minimizedAffinity>
-9.48428

$$$$
4UJB_8BQ_A_1351


 27 30  0  0  0  0  0  0  0  0999 V2000
  -24.3591    9.2531    3.6486 C   0  0  0  0  0  0  0  0  0  0  0  0
  -23.9174    9.6871    5.1119 C   0  0  0  0  0  0  0  0  0  0  0  0
  -22.6096    9.7241    5.0736 N   0  0  0  0  0  0  0  0  0  0  0  0
  -22.1466    8.9559    3.7590 C   0  0  0  0  0  0  0  0  0  0  0  0
  -23.2514    8.3291    3.2535 C   0  0  0  0  0  0  0  0  0  0  0  0
  -22.2241    9.2652    5.8989 H   0  0  0  0  0  0  0  0  0  0  0  0
  -22.7920    8.1589    1.7665 C   0  0  0  0  0  0  0  0  0  0  0  0
  -23.1571    9.1261    0.8696 C   0  0  0  0  0  0  0  0  0  0  0  0
  -22.7378    9.0408   -0.4855 C   0  0  0  0  0  0  0  0  0  0  0  0
  -21.9716    7.9661   -0.8948 C   0  0  0  0  0  0  0  0  0  0  0  0
  -21.5992    6.9499    0.0498 C   0  0  0  0  0  0  0  0  0  0  0  0
  -22.0031    7.0349    1.3560 C   0  0  0  0  0  0  0  0  0  0  0  0
  -21.5346    7.8849   -2.3432 C   0  0  0  0  0  0  0  0  0  0  0  0
  -20.8400    6.9498   -2.7468 O   0  0  0  0  0  0  0  0  0  0  0  0
  -21.9253    8.8946   -3.2225 N   0  0  0  0  0  0  0  0  0  0  0  0
  -22.7288   10.0054   -2.7822 C   0  0  0  0  0  0  0  0  0  0  0  0
  -23.1432   10.0906   -1.4038 N   0  0  0  0  0  0  0  0  0  0  0  0
  -21.6455    8.8468   -4.1652 H   0  0  0  0  0  0  0  0  0  0  0  0
  -25.6720    8.4595    3.5682 C   0  0  0  0  0  0  0  0  0  0  0  0
  -25.6826    7.2497    3.2339 O   0  0  0  0  0  0  0  0  0  0  0  0
  -29.9165   10.1462    2.0105 F   0  0  0  0  0  0  0  0  0  0  0  0
  -29.0969   10.0171    3.0120 C   0  0  0  0  0  0  0  0  0  0  0  0
  -29.4137   10.5045    4.2023 C   0  0  0  0  0  0  0  0  0  0  0  0
  -28.5135   10.3488    5.2952 C   0  0  0  0  0  0  0  0  0  0  0  0
  -27.2965    9.6904    5.0824 C   0  0  0  0  0  0  0  0  0  0  0  0
  -26.9797    9.1934    3.8254 C   0  0  0  0  0  0  0  0  0  0  0  0
  -27.8490    9.3389    2.7882 C   0  0  0  0  0  0  0  0  0  0  0  0
 21 22  1  0  0  0
 22 23  2  0  0  0
 22 27  1  0  0  0
 23 24  1  0  0  0
 24 25  2  0  0  0
 25 26  1  0  0  0
 26 27  2  0  0  0
 26 19  1  0  0  0
 19 20  2  0  0  0
 19  1  1  0  0  0
  1  2  1  0  0  0
  1  5  1  0  0  0
  2  3  1  0  0  0
  3  4  1  0  0  0
  4  5  1  0  0  0
  5  7  1  0  0  0
  7  8  2  0  0  0
  7 12  1  0  0  0
  8  9  1  0  0  0
  9 10  2  0  0  0
  9 17  1  0  0  0
 10 11  1  0  0  0
 10 13  1  0  0  0
 11 12  2  0  0  0
 13 14  2  0  0  0
 13 15  1  0  0  0
 15 16  1  0  0  0
 16 17  2  0  0  0
  3  6  1  0  0  0
 15 18  1  0  0  0
M  END
> <minimizedAffinity>
-9.33747

$$$$
