3TFP_03L_A_303


 31 33  0  0  0  0  0  0  0  0999 V2000
   -5.1405  -29.6239    4.7659 Cl  0  0  0  0  0  0  0  0  0  0  0  0
   -1.4485  -30.9546    4.8869 C   0  0  0  0  0  0  0  0  0  0  0  0
   -2.8010  -30.8538    4.6425 C   0  0  0  0  0  0  0  0  0  0  0  0
   -0.7897  -29.9419    5.5664 C   0  0  0  0  0  0  0  0  0  0  0  0
   -3.4971  -29.7399    5.0750 C   0  0  0  0  0  0  0  0  0  0  0  0
   -1.4869  -28.8238    5.9975 C   0  0  0  0  0  0  0  0  0  0  0  0
   -2.8430  -28.7174    5.7500 C   0  0  0  0  0  0  0  0  0  0  0  0
   -3.6215  -27.5242    6.2254 C   0  0  0  0  0  0  0  0  0  0  0  0
   -3.2669  -27.9930    9.0118 O   0  0  0  0  0  0  0  0  0  0  0  0
   -4.6837  -27.8841    7.1655 N   0  0  0  0  0  0  0  0  0  0  0  0
   -4.4246  -28.0973    8.5538 C   0  0  0  0  0  0  0  0  0  0  0  0
   -5.6044  -27.9821    6.8310 H   0  0  0  0  0  0  0  0  0  0  0  0
   -7.7228  -28.9673   11.2160 C   0  0  0  0  0  0  0  0  0  0  0  0
   -6.9896  -27.7986   11.3631 C   0  0  0  0  0  0  0  0  0  0  0  0
   -7.4078  -29.8767   10.2142 C   0  0  0  0  0  0  0  0  0  0  0  0
   -5.9376  -27.5369   10.4975 C   0  0  0  0  0  0  0  0  0  0  0  0
   -6.3575  -29.6167    9.3483 C   0  0  0  0  0  0  0  0  0  0  0  0
   -5.6229  -28.4428    9.4937 C   0  0  0  0  0  0  0  0  0  0  0  0
   -5.1671  -31.5450    8.4619 O   0  0  0  0  0  0  0  0  0  0  0  0
   -6.6165  -30.5440    7.1117 O   0  0  0  0  0  0  0  0  0  0  0  0
   -6.0254  -30.6265    8.2524 C   0  0  0  0  0  0  0  0  0  0  0  0
   -7.2473  -29.8682    6.9587 H   0  0  0  0  0  0  0  0  0  0  0  0
   -0.6124  -27.5402    6.8712 S   0  0  0  0  0  0  0  0  0  0  0  0
    5.1239  -29.8130    7.6094 Cl  0  0  0  0  0  0  0  0  0  0  0  0
    0.0363  -29.2301    9.2616 Cl  0  0  0  0  0  0  0  0  0  0  0  0
    3.2711  -28.3919    6.2778 C   0  0  0  0  0  0  0  0  0  0  0  0
    2.5663  -29.4497    8.3191 C   0  0  0  0  0  0  0  0  0  0  0  0
    2.0015  -27.8784    6.0983 C   0  0  0  0  0  0  0  0  0  0  0  0
    1.3020  -28.9330    8.1357 C   0  0  0  0  0  0  0  0  0  0  0  0
    3.5498  -29.1766    7.3870 C   0  0  0  0  0  0  0  0  0  0  0  0
    1.0265  -28.1487    7.0362 C   0  0  0  0  0  0  0  0  0  0  0  0
 19 21  2  0  0  0
  9 11  2  0  0  0
 20 21  1  0  0  0
 30 24  1  0  0  0
  5  1  1  0  0  0
 14 13  2  0  0  0
 15 13  1  0  0  0
 29 25  1  0  0  0
 16 14  1  0  0  0
  2  3  2  0  0  0
  2  4  1  0  0  0
  3  5  1  0  0  0
  4  6  2  0  0  0
 17 15  2  0  0  0
 18 16  2  0  0  0
 28 26  2  0  0  0
 26 30  1  0  0  0
 29 27  1  0  0  0
 30 27  2  0  0  0
 28 31  1  0  0  0
 31 29  2  0  0  0
  7  8  1  0  0  0
  8 10  1  0  0  0
 10 11  1  0  0  0
  6 23  1  0  0  0
 23 31  1  0  0  0
 21 17  1  0  0  0
 11 18  1  0  0  0
  5  7  2  0  0  0
  6  7  1  0  0  0
 18 17  1  0  0  0
 20 22  1  0  0  0
 10 12  1  0  0  0
M  END
> <minimizedAffinity>
-10.36410

$$$$
3TFP_03L_A_303


 31 33  0  0  0  0  0  0  0  0999 V2000
   -4.8607  -29.9474    4.7143 Cl  0  0  0  0  0  0  0  0  0  0  0  0
   -1.1375  -31.1926    4.7663 C   0  0  0  0  0  0  0  0  0  0  0  0
   -2.4984  -31.1290    4.5591 C   0  0  0  0  0  0  0  0  0  0  0  0
   -0.4825  -30.1451    5.3951 C   0  0  0  0  0  0  0  0  0  0  0  0
   -3.2069  -30.0178    4.9781 C   0  0  0  0  0  0  0  0  0  0  0  0
   -1.1922  -29.0298    5.8125 C   0  0  0  0  0  0  0  0  0  0  0  0
   -2.5570  -28.9608    5.6021 C   0  0  0  0  0  0  0  0  0  0  0  0
   -3.3484  -27.7707    6.0639 C   0  0  0  0  0  0  0  0  0  0  0  0
   -3.1400  -28.2723    8.8593 O   0  0  0  0  0  0  0  0  0  0  0  0
   -4.4584  -28.1405    6.9430 N   0  0  0  0  0  0  0  0  0  0  0  0
   -4.2723  -28.3702    8.3404 C   0  0  0  0  0  0  0  0  0  0  0  0
   -5.3604  -28.2338    6.5598 H   0  0  0  0  0  0  0  0  0  0  0  0
   -7.7062  -29.4581   10.7376 C   0  0  0  0  0  0  0  0  0  0  0  0
   -6.8768  -30.4380   10.2115 C   0  0  0  0  0  0  0  0  0  0  0  0
   -7.4487  -28.1136   10.5007 C   0  0  0  0  0  0  0  0  0  0  0  0
   -5.7793  -30.0683    9.4477 C   0  0  0  0  0  0  0  0  0  0  0  0
   -6.3525  -27.7425    9.7384 C   0  0  0  0  0  0  0  0  0  0  0  0
   -5.5182  -28.7253    9.2123 C   0  0  0  0  0  0  0  0  0  0  0  0
   -6.1364  -25.7870    8.3065 O   0  0  0  0  0  0  0  0  0  0  0  0
   -5.8004  -25.4899   10.4802 O   0  0  0  0  0  0  0  0  0  0  0  0
   -6.0836  -26.2606    9.4886 C   0  0  0  0  0  0  0  0  0  0  0  0
   -5.7618  -25.8390   11.3488 H   0  0  0  0  0  0  0  0  0  0  0  0
   -0.3224  -27.7009    6.6206 S   0  0  0  0  0  0  0  0  0  0  0  0
    5.2575  -30.0969    7.9395 Cl  0  0  0  0  0  0  0  0  0  0  0  0
    0.0893  -29.2347    9.1640 Cl  0  0  0  0  0  0  0  0  0  0  0  0
    3.5595  -28.7166    6.3784 C   0  0  0  0  0  0  0  0  0  0  0  0
    2.6707  -29.6022    8.4299 C   0  0  0  0  0  0  0  0  0  0  0  0
    2.3260  -28.1770    6.0698 C   0  0  0  0  0  0  0  0  0  0  0  0
    1.4429  -29.0598    8.1175 C   0  0  0  0  0  0  0  0  0  0  0  0
    3.7282  -29.4283    7.5570 C   0  0  0  0  0  0  0  0  0  0  0  0
    1.2767  -28.3480    6.9490 C   0  0  0  0  0  0  0  0  0  0  0  0
 19 21  2  0  0  0
  9 11  2  0  0  0
 20 21  1  0  0  0
 30 24  1  0  0  0
  5  1  1  0  0  0
 14 13  2  0  0  0
 15 13  1  0  0  0
 29 25  1  0  0  0
 16 14  1  0  0  0
  2  3  2  0  0  0
  2  4  1  0  0  0
  3  5  1  0  0  0
  4  6  2  0  0  0
 17 15  2  0  0  0
 18 16  2  0  0  0
 28 26  2  0  0  0
 26 30  1  0  0  0
 29 27  1  0  0  0
 30 27  2  0  0  0
 28 31  1  0  0  0
 31 29  2  0  0  0
  7  8  1  0  0  0
  8 10  1  0  0  0
 10 11  1  0  0  0
  6 23  1  0  0  0
 23 31  1  0  0  0
 21 17  1  0  0  0
 11 18  1  0  0  0
  5  7  2  0  0  0
  6  7  1  0  0  0
 18 17  1  0  0  0
 20 22  1  0  0  0
 10 12  1  0  0  0
M  END
> <minimizedAffinity>
-9.85613

$$$$
3TFP_03L_A_303


 31 33  0  0  0  0  0  0  0  0999 V2000
   -4.9955  -30.8552    8.0774 Cl  0  0  0  0  0  0  0  0  0  0  0  0
   -2.3762  -30.2492    5.2159 C   0  0  0  0  0  0  0  0  0  0  0  0
   -3.4324  -30.7512    5.9451 C   0  0  0  0  0  0  0  0  0  0  0  0
   -1.5879  -29.2385    5.7437 C   0  0  0  0  0  0  0  0  0  0  0  0
   -3.7038  -30.2427    7.2021 C   0  0  0  0  0  0  0  0  0  0  0  0
   -1.8618  -28.7267    7.0027 C   0  0  0  0  0  0  0  0  0  0  0  0
   -2.9234  -29.2249    7.7350 C   0  0  0  0  0  0  0  0  0  0  0  0
   -3.2259  -28.6986    9.1088 C   0  0  0  0  0  0  0  0  0  0  0  0
   -5.9643  -28.0972    8.6096 O   0  0  0  0  0  0  0  0  0  0  0  0
   -3.8067  -27.3556    9.0811 N   0  0  0  0  0  0  0  0  0  0  0  0
   -5.1953  -27.1372    8.8286 C   0  0  0  0  0  0  0  0  0  0  0  0
   -3.2226  -26.5794    9.2414 H   0  0  0  0  0  0  0  0  0  0  0  0
   -6.6431  -23.0597    8.8094 C   0  0  0  0  0  0  0  0  0  0  0  0
   -5.8353  -23.5241    7.7814 C   0  0  0  0  0  0  0  0  0  0  0  0
   -6.9971  -23.8953    9.8612 C   0  0  0  0  0  0  0  0  0  0  0  0
   -5.3837  -24.8356    7.8048 C   0  0  0  0  0  0  0  0  0  0  0  0
   -6.5474  -25.2058    9.8859 C   0  0  0  0  0  0  0  0  0  0  0  0
   -5.7387  -25.6734    8.8532 C   0  0  0  0  0  0  0  0  0  0  0  0
   -7.9359  -25.8057   11.7920 O   0  0  0  0  0  0  0  0  0  0  0  0
   -6.2757  -27.1857   11.2773 O   0  0  0  0  0  0  0  0  0  0  0  0
   -6.9466  -26.1109   11.0489 C   0  0  0  0  0  0  0  0  0  0  0  0
   -5.5485  -27.4092   10.7303 H   0  0  0  0  0  0  0  0  0  0  0  0
   -0.8284  -27.4297    7.6551 S   0  0  0  0  0  0  0  0  0  0  0  0
    4.9709  -29.4197    6.6428 Cl  0  0  0  0  0  0  0  0  0  0  0  0
    0.5607  -29.1142    9.7103 Cl  0  0  0  0  0  0  0  0  0  0  0  0
    2.7500  -28.0774    5.9418 C   0  0  0  0  0  0  0  0  0  0  0  0
    2.7155  -29.1945    8.0710 C   0  0  0  0  0  0  0  0  0  0  0  0
    1.4613  -27.6263    6.1507 C   0  0  0  0  0  0  0  0  0  0  0  0
    1.4307  -28.7399    8.2748 C   0  0  0  0  0  0  0  0  0  0  0  0
    3.3731  -28.8608    6.9019 C   0  0  0  0  0  0  0  0  0  0  0  0
    0.8134  -27.9569    7.3230 C   0  0  0  0  0  0  0  0  0  0  0  0
 19 21  2  0  0  0
  9 11  2  0  0  0
 20 21  1  0  0  0
 30 24  1  0  0  0
  5  1  1  0  0  0
 14 13  2  0  0  0
 15 13  1  0  0  0
 29 25  1  0  0  0
 16 14  1  0  0  0
  2  3  2  0  0  0
  2  4  1  0  0  0
  3  5  1  0  0  0
  4  6  2  0  0  0
 17 15  2  0  0  0
 18 16  2  0  0  0
 28 26  2  0  0  0
 26 30  1  0  0  0
 29 27  1  0  0  0
 30 27  2  0  0  0
 28 31  1  0  0  0
 31 29  2  0  0  0
  7  8  1  0  0  0
  8 10  1  0  0  0
 10 11  1  0  0  0
  6 23  1  0  0  0
 23 31  1  0  0  0
 21 17  1  0  0  0
 11 18  1  0  0  0
  5  7  2  0  0  0
  6  7  1  0  0  0
 18 17  1  0  0  0
 20 22  1  0  0  0
 10 12  1  0  0  0
M  END
> <minimizedAffinity>
-9.56135

$$$$
3TFP_03L_A_303


 31 33  0  0  0  0  0  0  0  0999 V2000
   -6.9917  -29.0405   10.2862 Cl  0  0  0  0  0  0  0  0  0  0  0  0
   -4.6253  -30.5321    7.5310 C   0  0  0  0  0  0  0  0  0  0  0  0
   -5.5878  -30.4093    8.5095 C   0  0  0  0  0  0  0  0  0  0  0  0
   -3.8848  -29.4258    7.1445 C   0  0  0  0  0  0  0  0  0  0  0  0
   -5.8133  -29.1804    9.1023 C   0  0  0  0  0  0  0  0  0  0  0  0
   -4.1129  -28.1932    7.7366 C   0  0  0  0  0  0  0  0  0  0  0  0
   -5.0809  -28.0656    8.7155 C   0  0  0  0  0  0  0  0  0  0  0  0
   -5.3309  -26.7440    9.3840 C   0  0  0  0  0  0  0  0  0  0  0  0
   -7.6840  -25.4531   10.3357 O   0  0  0  0  0  0  0  0  0  0  0  0
   -6.1954  -25.8681    8.5922 N   0  0  0  0  0  0  0  0  0  0  0  0
   -7.3586  -25.2517    9.1463 C   0  0  0  0  0  0  0  0  0  0  0  0
   -5.9685  -25.6986    7.6493 H   0  0  0  0  0  0  0  0  0  0  0  0
   -9.7696  -22.7021    6.6149 C   0  0  0  0  0  0  0  0  0  0  0  0
  -10.1559  -24.0106    6.8671 C   0  0  0  0  0  0  0  0  0  0  0  0
   -8.6023  -22.1916    7.1686 C   0  0  0  0  0  0  0  0  0  0  0  0
   -9.3704  -24.8109    7.6837 C   0  0  0  0  0  0  0  0  0  0  0  0
   -7.8167  -22.9895    7.9850 C   0  0  0  0  0  0  0  0  0  0  0  0
   -8.2051  -24.3021    8.2407 C   0  0  0  0  0  0  0  0  0  0  0  0
   -6.5477  -21.9031    9.7543 O   0  0  0  0  0  0  0  0  0  0  0  0
   -5.4456  -22.4409    7.9044 O   0  0  0  0  0  0  0  0  0  0  0  0
   -6.5374  -22.4124    8.5861 C   0  0  0  0  0  0  0  0  0  0  0  0
   -5.4391  -22.8156    7.0457 H   0  0  0  0  0  0  0  0  0  0  0  0
   -3.1426  -26.7904    7.2204 S   0  0  0  0  0  0  0  0  0  0  0  0
    2.6974  -28.9111    7.1052 Cl  0  0  0  0  0  0  0  0  0  0  0  0
   -1.4429  -26.6418    9.6862 Cl  0  0  0  0  0  0  0  0  0  0  0  0
    0.3176  -28.4042    5.9627 C   0  0  0  0  0  0  0  0  0  0  0  0
    0.5621  -27.7943    8.2759 C   0  0  0  0  0  0  0  0  0  0  0  0
   -0.9822  -27.9372    5.9706 C   0  0  0  0  0  0  0  0  0  0  0  0
   -0.7347  -27.3282    8.2772 C   0  0  0  0  0  0  0  0  0  0  0  0
    1.0858  -28.3323    7.1153 C   0  0  0  0  0  0  0  0  0  0  0  0
   -1.4963  -27.3947    7.1303 C   0  0  0  0  0  0  0  0  0  0  0  0
 19 21  2  0  0  0
  9 11  2  0  0  0
 20 21  1  0  0  0
 30 24  1  0  0  0
  5  1  1  0  0  0
 14 13  2  0  0  0
 15 13  1  0  0  0
 29 25  1  0  0  0
 16 14  1  0  0  0
  2  3  2  0  0  0
  2  4  1  0  0  0
  3  5  1  0  0  0
  4  6  2  0  0  0
 17 15  2  0  0  0
 18 16  2  0  0  0
 28 26  2  0  0  0
 26 30  1  0  0  0
 29 27  1  0  0  0
 30 27  2  0  0  0
 28 31  1  0  0  0
 31 29  2  0  0  0
  7  8  1  0  0  0
  8 10  1  0  0  0
 10 11  1  0  0  0
  6 23  1  0  0  0
 23 31  1  0  0  0
 21 17  1  0  0  0
 11 18  1  0  0  0
  5  7  2  0  0  0
  6  7  1  0  0  0
 18 17  1  0  0  0
 20 22  1  0  0  0
 10 12  1  0  0  0
M  END
> <minimizedAffinity>
-9.43964

$$$$
3TFP_03L_A_303


 31 33  0  0  0  0  0  0  0  0999 V2000
   -4.6904  -29.8645    4.6869 Cl  0  0  0  0  0  0  0  0  0  0  0  0
   -6.2245  -30.5615    8.2333 C   0  0  0  0  0  0  0  0  0  0  0  0
   -5.8856  -30.6787    6.9027 C   0  0  0  0  0  0  0  0  0  0  0  0
   -5.7828  -29.4719    8.9676 C   0  0  0  0  0  0  0  0  0  0  0  0
   -5.1031  -29.7083    6.3040 C   0  0  0  0  0  0  0  0  0  0  0  0
   -4.9958  -28.5005    8.3683 C   0  0  0  0  0  0  0  0  0  0  0  0
   -4.6502  -28.6174    7.0347 C   0  0  0  0  0  0  0  0  0  0  0  0
   -3.8152  -27.5667    6.3604 C   0  0  0  0  0  0  0  0  0  0  0  0
   -1.5540  -26.5197    7.7390 O   0  0  0  0  0  0  0  0  0  0  0  0
   -2.4294  -27.9927    6.1605 N   0  0  0  0  0  0  0  0  0  0  0  0
   -1.3484  -27.4206    6.8981 C   0  0  0  0  0  0  0  0  0  0  0  0
   -2.2365  -28.6947    5.4978 H   0  0  0  0  0  0  0  0  0  0  0  0
    2.6390  -28.8989    6.1001 C   0  0  0  0  0  0  0  0  0  0  0  0
    1.8595  -28.3880    5.0723 C   0  0  0  0  0  0  0  0  0  0  0  0
    2.1507  -28.9461    7.3997 C   0  0  0  0  0  0  0  0  0  0  0  0
    0.5846  -27.9164    5.3495 C   0  0  0  0  0  0  0  0  0  0  0  0
    0.8776  -28.4750    7.6785 C   0  0  0  0  0  0  0  0  0  0  0  0
    0.0956  -27.9598    6.6480 C   0  0  0  0  0  0  0  0  0  0  0  0
   -0.3548  -29.5176    9.4994 O   0  0  0  0  0  0  0  0  0  0  0  0
    0.6388  -27.5804    9.9306 O   0  0  0  0  0  0  0  0  0  0  0  0
    0.3568  -28.5336    9.1125 C   0  0  0  0  0  0  0  0  0  0  0  0
    1.1620  -26.8574    9.6452 H   0  0  0  0  0  0  0  0  0  0  0  0
   -4.4461  -27.1101    9.3379 S   0  0  0  0  0  0  0  0  0  0  0  0
   -9.0136  -22.9213    8.8825 Cl  0  0  0  0  0  0  0  0  0  0  0  0
   -6.7257  -27.1575   11.2851 Cl  0  0  0  0  0  0  0  0  0  0  0  0
   -6.7024  -24.0319    8.0759 C   0  0  0  0  0  0  0  0  0  0  0  0
   -7.7713  -25.0208    9.9895 C   0  0  0  0  0  0  0  0  0  0  0  0
   -5.6791  -24.9556    8.1623 C   0  0  0  0  0  0  0  0  0  0  0  0
   -6.7486  -25.9411   10.0696 C   0  0  0  0  0  0  0  0  0  0  0  0
   -7.7450  -24.0664    8.9900 C   0  0  0  0  0  0  0  0  0  0  0  0
   -5.7153  -25.9100    9.1579 C   0  0  0  0  0  0  0  0  0  0  0  0
 19 21  2  0  0  0
  9 11  2  0  0  0
 20 21  1  0  0  0
 30 24  1  0  0  0
  5  1  1  0  0  0
 14 13  2  0  0  0
 15 13  1  0  0  0
 29 25  1  0  0  0
 16 14  1  0  0  0
  2  3  2  0  0  0
  2  4  1  0  0  0
  3  5  1  0  0  0
  4  6  2  0  0  0
 17 15  2  0  0  0
 18 16  2  0  0  0
 28 26  2  0  0  0
 26 30  1  0  0  0
 29 27  1  0  0  0
 30 27  2  0  0  0
 28 31  1  0  0  0
 31 29  2  0  0  0
  7  8  1  0  0  0
  8 10  1  0  0  0
 10 11  1  0  0  0
  6 23  1  0  0  0
 23 31  1  0  0  0
 21 17  1  0  0  0
 11 18  1  0  0  0
  5  7  2  0  0  0
  6  7  1  0  0  0
 18 17  1  0  0  0
 20 22  1  0  0  0
 10 12  1  0  0  0
M  END
> <minimizedAffinity>
-9.34900

$$$$
3TFP_03L_A_303


 31 33  0  0  0  0  0  0  0  0999 V2000
   -5.7528  -31.0008    7.8757 Cl  0  0  0  0  0  0  0  0  0  0  0  0
   -6.7458  -28.4737   10.7119 C   0  0  0  0  0  0  0  0  0  0  0  0
   -6.5842  -29.6309    9.9813 C   0  0  0  0  0  0  0  0  0  0  0  0
   -6.2756  -27.2685   10.2141 C   0  0  0  0  0  0  0  0  0  0  0  0
   -5.9508  -29.5861    8.7528 C   0  0  0  0  0  0  0  0  0  0  0  0
   -5.6379  -27.2239    8.9839 C   0  0  0  0  0  0  0  0  0  0  0  0
   -5.4701  -28.3838    8.2504 C   0  0  0  0  0  0  0  0  0  0  0  0
   -4.7999  -28.3552    6.9066 C   0  0  0  0  0  0  0  0  0  0  0  0
   -2.9249  -26.6729    5.5783 O   0  0  0  0  0  0  0  0  0  0  0  0
   -3.3439  -28.4689    7.0020 N   0  0  0  0  0  0  0  0  0  0  0  0
   -2.4687  -27.5794    6.3071 C   0  0  0  0  0  0  0  0  0  0  0  0
   -2.9561  -29.1797    7.5620 H   0  0  0  0  0  0  0  0  0  0  0  0
    1.8063  -28.0972    6.7288 C   0  0  0  0  0  0  0  0  0  0  0  0
    1.1675  -28.4538    5.5500 C   0  0  0  0  0  0  0  0  0  0  0  0
    1.0833  -27.5712    7.7921 C   0  0  0  0  0  0  0  0  0  0  0  0
   -0.2036  -28.2774    5.4338 C   0  0  0  0  0  0  0  0  0  0  0  0
   -0.2863  -27.3938    7.6776 C   0  0  0  0  0  0  0  0  0  0  0  0
   -0.9277  -27.7491    6.4939 C   0  0  0  0  0  0  0  0  0  0  0  0
   -0.9943  -25.5700    9.1246 O   0  0  0  0  0  0  0  0  0  0  0  0
   -1.7950  -27.5895    9.5789 O   0  0  0  0  0  0  0  0  0  0  0  0
   -1.0654  -26.8137    8.8555 C   0  0  0  0  0  0  0  0  0  0  0  0
   -1.8467  -28.5037    9.3802 H   0  0  0  0  0  0  0  0  0  0  0  0
   -5.0472  -25.6589    8.3696 S   0  0  0  0  0  0  0  0  0  0  0  0
   -9.9716  -21.8758    8.1381 Cl  0  0  0  0  0  0  0  0  0  0  0  0
   -4.8018  -22.9515    7.1044 Cl  0  0  0  0  0  0  0  0  0  0  0  0
   -8.7592  -24.1796    8.8076 C   0  0  0  0  0  0  0  0  0  0  0  0
   -7.4160  -22.5351    7.6788 C   0  0  0  0  0  0  0  0  0  0  0  0
   -7.6747  -25.0329    8.8679 C   0  0  0  0  0  0  0  0  0  0  0  0
   -6.3370  -23.3899    7.7437 C   0  0  0  0  0  0  0  0  0  0  0  0
   -8.6271  -22.9336    8.2126 C   0  0  0  0  0  0  0  0  0  0  0  0
   -6.4669  -24.6259    8.3398 C   0  0  0  0  0  0  0  0  0  0  0  0
 19 21  2  0  0  0
  9 11  2  0  0  0
 20 21  1  0  0  0
 30 24  1  0  0  0
  5  1  1  0  0  0
 14 13  2  0  0  0
 15 13  1  0  0  0
 29 25  1  0  0  0
 16 14  1  0  0  0
  2  3  2  0  0  0
  2  4  1  0  0  0
  3  5  1  0  0  0
  4  6  2  0  0  0
 17 15  2  0  0  0
 18 16  2  0  0  0
 28 26  2  0  0  0
 26 30  1  0  0  0
 29 27  1  0  0  0
 30 27  2  0  0  0
 28 31  1  0  0  0
 31 29  2  0  0  0
  7  8  1  0  0  0
  8 10  1  0  0  0
 10 11  1  0  0  0
  6 23  1  0  0  0
 23 31  1  0  0  0
 21 17  1  0  0  0
 11 18  1  0  0  0
  5  7  2  0  0  0
  6  7  1  0  0  0
 18 17  1  0  0  0
 20 22  1  0  0  0
 10 12  1  0  0  0
M  END
> <minimizedAffinity>
-9.32876

$$$$
3TFP_03L_A_303


 31 33  0  0  0  0  0  0  0  0999 V2000
   -5.2209  -30.7364    8.1313 Cl  0  0  0  0  0  0  0  0  0  0  0  0
   -2.6377  -30.5646    5.1795 C   0  0  0  0  0  0  0  0  0  0  0  0
   -3.7078  -30.9260    5.9690 C   0  0  0  0  0  0  0  0  0  0  0  0
   -1.7682  -29.5715    5.6029 C   0  0  0  0  0  0  0  0  0  0  0  0
   -3.9119  -30.2944    7.1822 C   0  0  0  0  0  0  0  0  0  0  0  0
   -1.9744  -28.9363    6.8177 C   0  0  0  0  0  0  0  0  0  0  0  0
   -3.0496  -29.2933    7.6102 C   0  0  0  0  0  0  0  0  0  0  0  0
   -3.2805  -28.6319    8.9388 C   0  0  0  0  0  0  0  0  0  0  0  0
   -3.1863  -25.8247    8.4692 O   0  0  0  0  0  0  0  0  0  0  0  0
   -4.4376  -27.7358    8.9272 N   0  0  0  0  0  0  0  0  0  0  0  0
   -4.3073  -26.3357    8.6771 C   0  0  0  0  0  0  0  0  0  0  0  0
   -5.3325  -28.1094    9.0969 H   0  0  0  0  0  0  0  0  0  0  0  0
   -7.8322  -23.8301    8.5378 C   0  0  0  0  0  0  0  0  0  0  0  0
   -6.6813  -23.4637    7.8550 C   0  0  0  0  0  0  0  0  0  0  0  0
   -7.8696  -25.0048    9.2784 C   0  0  0  0  0  0  0  0  0  0  0  0
   -5.5627  -24.2822    7.9101 C   0  0  0  0  0  0  0  0  0  0  0  0
   -6.7532  -25.8240    9.3342 C   0  0  0  0  0  0  0  0  0  0  0  0
   -5.5987  -25.4582    8.6470 C   0  0  0  0  0  0  0  0  0  0  0  0
   -7.3852  -28.1480    9.6812 O   0  0  0  0  0  0  0  0  0  0  0  0
   -6.2794  -27.1456   11.3237 O   0  0  0  0  0  0  0  0  0  0  0  0
   -6.8117  -27.1118   10.1520 C   0  0  0  0  0  0  0  0  0  0  0  0
   -5.8580  -26.3832   11.6690 H   0  0  0  0  0  0  0  0  0  0  0  0
   -0.8374  -27.6657    7.3359 S   0  0  0  0  0  0  0  0  0  0  0  0
    4.5942  -30.5690    8.1639 Cl  0  0  0  0  0  0  0  0  0  0  0  0
    1.2043  -27.6849    5.1400 Cl  0  0  0  0  0  0  0  0  0  0  0  0
    2.1573  -29.7828    8.9819 C   0  0  0  0  0  0  0  0  0  0  0  0
    2.8189  -29.1322    6.7634 C   0  0  0  0  0  0  0  0  0  0  0  0
    0.9448  -29.1427    8.8146 C   0  0  0  0  0  0  0  0  0  0  0  0
    1.6067  -28.4970    6.6016 C   0  0  0  0  0  0  0  0  0  0  0  0
    3.0912  -29.7751    7.9564 C   0  0  0  0  0  0  0  0  0  0  0  0
    0.6766  -28.5092    7.6187 C   0  0  0  0  0  0  0  0  0  0  0  0
 19 21  2  0  0  0
  9 11  2  0  0  0
 20 21  1  0  0  0
 30 24  1  0  0  0
  5  1  1  0  0  0
 14 13  2  0  0  0
 15 13  1  0  0  0
 29 25  1  0  0  0
 16 14  1  0  0  0
  2  3  2  0  0  0
  2  4  1  0  0  0
  3  5  1  0  0  0
  4  6  2  0  0  0
 17 15  2  0  0  0
 18 16  2  0  0  0
 28 26  2  0  0  0
 26 30  1  0  0  0
 29 27  1  0  0  0
 30 27  2  0  0  0
 28 31  1  0  0  0
 31 29  2  0  0  0
  7  8  1  0  0  0
  8 10  1  0  0  0
 10 11  1  0  0  0
  6 23  1  0  0  0
 23 31  1  0  0  0
 21 17  1  0  0  0
 11 18  1  0  0  0
  5  7  2  0  0  0
  6  7  1  0  0  0
 18 17  1  0  0  0
 20 22  1  0  0  0
 10 12  1  0  0  0
M  END
> <minimizedAffinity>
-9.32414

$$$$
3TFP_03L_A_303


 31 33  0  0  0  0  0  0  0  0999 V2000
    0.6534  -31.5515    3.2616 Cl  0  0  0  0  0  0  0  0  0  0  0  0
   -2.7332  -31.1398    5.2052 C   0  0  0  0  0  0  0  0  0  0  0  0
   -1.7361  -31.6379    4.3948 C   0  0  0  0  0  0  0  0  0  0  0  0
   -2.5526  -29.9341    5.8650 C   0  0  0  0  0  0  0  0  0  0  0  0
   -0.5560  -30.9329    4.2438 C   0  0  0  0  0  0  0  0  0  0  0  0
   -1.3684  -29.2288    5.7159 C   0  0  0  0  0  0  0  0  0  0  0  0
   -0.3642  -29.7279    4.9072 C   0  0  0  0  0  0  0  0  0  0  0  0
    0.9187  -28.9707    4.7160 C   0  0  0  0  0  0  0  0  0  0  0  0
    3.0200  -27.4550    5.8980 O   0  0  0  0  0  0  0  0  0  0  0  0
    2.0203  -29.5225    5.5058 N   0  0  0  0  0  0  0  0  0  0  0  0
    3.0354  -28.6922    6.0716 C   0  0  0  0  0  0  0  0  0  0  0  0
    2.0630  -30.4953    5.6514 H   0  0  0  0  0  0  0  0  0  0  0  0
    6.2010  -30.5431    8.3683 C   0  0  0  0  0  0  0  0  0  0  0  0
    6.4225  -30.1468    7.0573 C   0  0  0  0  0  0  0  0  0  0  0  0
    4.9595  -30.3544    8.9625 C   0  0  0  0  0  0  0  0  0  0  0  0
    5.3952  -29.5527    6.3388 C   0  0  0  0  0  0  0  0  0  0  0  0
    3.9324  -29.7606    8.2464 C   0  0  0  0  0  0  0  0  0  0  0  0
    4.1548  -29.3602    6.9314 C   0  0  0  0  0  0  0  0  0  0  0  0
    2.0782  -28.3913    9.0265 O   0  0  0  0  0  0  0  0  0  0  0  0
    1.9324  -30.5794    9.3687 O   0  0  0  0  0  0  0  0  0  0  0  0
    2.5745  -29.5599    8.9149 C   0  0  0  0  0  0  0  0  0  0  0  0
    2.2982  -31.4381    9.2861 H   0  0  0  0  0  0  0  0  0  0  0  0
   -1.1674  -27.6804    6.5747 S   0  0  0  0  0  0  0  0  0  0  0  0
   -6.2545  -27.1600   10.1055 Cl  0  0  0  0  0  0  0  0  0  0  0  0
   -1.3603  -29.1865    9.1603 Cl  0  0  0  0  0  0  0  0  0  0  0  0
   -4.7943  -26.5896    7.9219 C   0  0  0  0  0  0  0  0  0  0  0  0
   -3.8131  -28.0948    9.5201 C   0  0  0  0  0  0  0  0  0  0  0  0
   -3.6712  -26.6940    7.1248 C   0  0  0  0  0  0  0  0  0  0  0  0
   -2.6959  -28.1966    8.7197 C   0  0  0  0  0  0  0  0  0  0  0  0
   -4.8619  -27.2895    9.1176 C   0  0  0  0  0  0  0  0  0  0  0  0
   -2.6311  -27.5054    7.5290 C   0  0  0  0  0  0  0  0  0  0  0  0
 19 21  2  0  0  0
  9 11  2  0  0  0
 20 21  1  0  0  0
 30 24  1  0  0  0
  5  1  1  0  0  0
 14 13  2  0  0  0
 15 13  1  0  0  0
 29 25  1  0  0  0
 16 14  1  0  0  0
  2  3  2  0  0  0
  2  4  1  0  0  0
  3  5  1  0  0  0
  4  6  2  0  0  0
 17 15  2  0  0  0
 18 16  2  0  0  0
 28 26  2  0  0  0
 26 30  1  0  0  0
 29 27  1  0  0  0
 30 27  2  0  0  0
 28 31  1  0  0  0
 31 29  2  0  0  0
  7  8  1  0  0  0
  8 10  1  0  0  0
 10 11  1  0  0  0
  6 23  1  0  0  0
 23 31  1  0  0  0
 21 17  1  0  0  0
 11 18  1  0  0  0
  5  7  2  0  0  0
  6  7  1  0  0  0
 18 17  1  0  0  0
 20 22  1  0  0  0
 10 12  1  0  0  0
M  END
> <minimizedAffinity>
-9.28614

$$$$
3TFP_03L_A_303


 31 33  0  0  0  0  0  0  0  0999 V2000
   -3.9582  -26.1722    7.3865 Cl  0  0  0  0  0  0  0  0  0  0  0  0
   -0.4954  -25.6387    9.1586 C   0  0  0  0  0  0  0  0  0  0  0  0
   -1.7427  -25.4131    8.6179 C   0  0  0  0  0  0  0  0  0  0  0  0
    0.0595  -26.9083    9.1151 C   0  0  0  0  0  0  0  0  0  0  0  0
   -2.4385  -26.4560    8.0344 C   0  0  0  0  0  0  0  0  0  0  0  0
   -0.6393  -27.9546    8.5328 C   0  0  0  0  0  0  0  0  0  0  0  0
   -1.8928  -27.7326    7.9934 C   0  0  0  0  0  0  0  0  0  0  0  0
   -2.6588  -28.8473    7.3404 C   0  0  0  0  0  0  0  0  0  0  0  0
   -5.3926  -29.1425    6.5995 O   0  0  0  0  0  0  0  0  0  0  0  0
   -3.7162  -29.3815    8.1996 N   0  0  0  0  0  0  0  0  0  0  0  0
   -5.0665  -29.5034    7.7503 C   0  0  0  0  0  0  0  0  0  0  0  0
   -3.4900  -29.6654    9.1147 H   0  0  0  0  0  0  0  0  0  0  0  0
   -8.0180  -31.2833   10.3661 C   0  0  0  0  0  0  0  0  0  0  0  0
   -7.6721  -31.9008    9.1728 C   0  0  0  0  0  0  0  0  0  0  0  0
   -7.4245  -30.0835   10.7379 C   0  0  0  0  0  0  0  0  0  0  0  0
   -6.7215  -31.3153    8.3494 C   0  0  0  0  0  0  0  0  0  0  0  0
   -6.4744  -29.4975    9.9168 C   0  0  0  0  0  0  0  0  0  0  0  0
   -6.1248  -30.1180    8.7203 C   0  0  0  0  0  0  0  0  0  0  0  0
   -6.4911  -27.0908   10.2759 O   0  0  0  0  0  0  0  0  0  0  0  0
   -4.6153  -28.1722   10.7638 O   0  0  0  0  0  0  0  0  0  0  0  0
   -5.8313  -28.1793   10.3410 C   0  0  0  0  0  0  0  0  0  0  0  0
   -4.1312  -28.9730   10.8112 H   0  0  0  0  0  0  0  0  0  0  0  0
    0.1020  -29.5745    8.4896 S   0  0  0  0  0  0  0  0  0  0  0  0
    5.8422  -28.5208    6.3552 Cl  0  0  0  0  0  0  0  0  0  0  0  0
    0.5140  -28.7440    5.6381 Cl  0  0  0  0  0  0  0  0  0  0  0  0
    4.0996  -29.2058    8.2838 C   0  0  0  0  0  0  0  0  0  0  0  0
    3.1766  -28.6656    6.1300 C   0  0  0  0  0  0  0  0  0  0  0  0
    2.8307  -29.4444    8.7746 C   0  0  0  0  0  0  0  0  0  0  0  0
    1.9132  -28.9071    6.6247 C   0  0  0  0  0  0  0  0  0  0  0  0
    4.2690  -28.8163    6.9634 C   0  0  0  0  0  0  0  0  0  0  0  0
    1.7454  -29.2993    7.9354 C   0  0  0  0  0  0  0  0  0  0  0  0
 19 21  2  0  0  0
  9 11  2  0  0  0
 20 21  1  0  0  0
 30 24  1  0  0  0
  5  1  1  0  0  0
 14 13  2  0  0  0
 15 13  1  0  0  0
 29 25  1  0  0  0
 16 14  1  0  0  0
  2  3  2  0  0  0
  2  4  1  0  0  0
  3  5  1  0  0  0
  4  6  2  0  0  0
 17 15  2  0  0  0
 18 16  2  0  0  0
 28 26  2  0  0  0
 26 30  1  0  0  0
 29 27  1  0  0  0
 30 27  2  0  0  0
 28 31  1  0  0  0
 31 29  2  0  0  0
  7  8  1  0  0  0
  8 10  1  0  0  0
 10 11  1  0  0  0
  6 23  1  0  0  0
 23 31  1  0  0  0
 21 17  1  0  0  0
 11 18  1  0  0  0
  5  7  2  0  0  0
  6  7  1  0  0  0
 18 17  1  0  0  0
 20 22  1  0  0  0
 10 12  1  0  0  0
M  END
> <minimizedAffinity>
-9.21817

$$$$
3TFP_03L_A_303


 31 33  0  0  0  0  0  0  0  0999 V2000
   -4.8707  -30.6955    7.9577 Cl  0  0  0  0  0  0  0  0  0  0  0  0
   -2.0759  -30.4326    5.2125 C   0  0  0  0  0  0  0  0  0  0  0  0
   -3.1846  -30.8380    5.9236 C   0  0  0  0  0  0  0  0  0  0  0  0
   -1.2949  -29.3883    5.6825 C   0  0  0  0  0  0  0  0  0  0  0  0
   -3.5158  -30.1993    7.1045 C   0  0  0  0  0  0  0  0  0  0  0  0
   -1.6286  -28.7459    6.8649 C   0  0  0  0  0  0  0  0  0  0  0  0
   -2.7428  -29.1473    7.5785 C   0  0  0  0  0  0  0  0  0  0  0  0
   -3.1113  -28.4784    8.8718 C   0  0  0  0  0  0  0  0  0  0  0  0
   -5.8583  -27.9065    8.3853 O   0  0  0  0  0  0  0  0  0  0  0  0
   -3.6761  -27.1430    8.6732 N   0  0  0  0  0  0  0  0  0  0  0  0
   -5.0702  -26.9386    8.4394 C   0  0  0  0  0  0  0  0  0  0  0  0
   -3.0771  -26.3622    8.7015 H   0  0  0  0  0  0  0  0  0  0  0  0
   -6.6139  -22.9174    8.0283 C   0  0  0  0  0  0  0  0  0  0  0  0
   -7.3415  -23.8841    8.7072 C   0  0  0  0  0  0  0  0  0  0  0  0
   -5.3806  -23.2260    7.4681 C   0  0  0  0  0  0  0  0  0  0  0  0
   -6.8277  -25.1668    8.8303 C   0  0  0  0  0  0  0  0  0  0  0  0
   -4.8657  -24.5067    7.5906 C   0  0  0  0  0  0  0  0  0  0  0  0
   -5.5942  -25.4768    8.2741 C   0  0  0  0  0  0  0  0  0  0  0  0
   -2.4440  -24.3163    7.4477 O   0  0  0  0  0  0  0  0  0  0  0  0
   -3.4447  -25.6208    5.9568 O   0  0  0  0  0  0  0  0  0  0  0  0
   -3.5086  -24.8287    6.9697 C   0  0  0  0  0  0  0  0  0  0  0  0
   -4.2280  -25.9970    5.6062 H   0  0  0  0  0  0  0  0  0  0  0  0
   -0.6031  -27.4088    7.4447 S   0  0  0  0  0  0  0  0  0  0  0  0
    5.1890  -29.5949    6.9075 Cl  0  0  0  0  0  0  0  0  0  0  0  0
    0.5233  -29.2107    9.5601 Cl  0  0  0  0  0  0  0  0  0  0  0  0
    3.0947  -28.1441    6.0502 C   0  0  0  0  0  0  0  0  0  0  0  0
    2.8187  -29.3252    8.1267 C   0  0  0  0  0  0  0  0  0  0  0  0
    1.8095  -27.6490    6.1539 C   0  0  0  0  0  0  0  0  0  0  0  0
    1.5379  -28.8264    8.2257 C   0  0  0  0  0  0  0  0  0  0  0  0
    3.5955  -28.9813    7.0362 C   0  0  0  0  0  0  0  0  0  0  0  0
    1.0422  -27.9902    7.2486 C   0  0  0  0  0  0  0  0  0  0  0  0
 19 21  2  0  0  0
  9 11  2  0  0  0
 20 21  1  0  0  0
 30 24  1  0  0  0
  5  1  1  0  0  0
 14 13  2  0  0  0
 15 13  1  0  0  0
 29 25  1  0  0  0
 16 14  1  0  0  0
  2  3  2  0  0  0
  2  4  1  0  0  0
  3  5  1  0  0  0
  4  6  2  0  0  0
 17 15  2  0  0  0
 18 16  2  0  0  0
 28 26  2  0  0  0
 26 30  1  0  0  0
 29 27  1  0  0  0
 30 27  2  0  0  0
 28 31  1  0  0  0
 31 29  2  0  0  0
  7  8  1  0  0  0
  8 10  1  0  0  0
 10 11  1  0  0  0
  6 23  1  0  0  0
 23 31  1  0  0  0
 21 17  1  0  0  0
 11 18  1  0  0  0
  5  7  2  0  0  0
  6  7  1  0  0  0
 18 17  1  0  0  0
 20 22  1  0  0  0
 10 12  1  0  0  0
M  END
> <minimizedAffinity>
-9.05451

$$$$
