5H9R_TGZ_A_301


 41 44  0  0  0  0  0  0  0  0999 V2000
    6.2595   -8.5697    1.6936 C   0  0  0  0  0  0  0  0  0  0  0  0
    5.1063   -8.9476    0.7687 C   0  0  0  0  0  0  0  0  0  0  0  0
    6.7301   -9.1208   -1.1083 C   0  0  0  0  0  0  0  0  0  0  0  0
    7.5849   -9.0719    1.1201 C   0  0  0  0  0  0  0  0  0  0  0  0
    7.7600   -8.6554   -0.2337 O   0  0  0  0  0  0  0  0  0  0  0  0
    5.4030   -8.5264   -0.6635 C   0  0  0  0  0  0  0  0  0  0  0  0
    5.4416   -7.0911   -0.7442 O   0  0  0  0  0  0  0  0  0  0  0  0
    6.0323   -9.1517    2.9862 O   0  0  0  0  0  0  0  0  0  0  0  0
    6.1380   -6.7530   -0.1597 H   0  0  0  0  0  0  0  0  0  0  0  0
    5.9866  -10.1170    2.9027 H   0  0  0  0  0  0  0  0  0  0  0  0
    3.8262   -8.3262    1.1970 N   0  0  0  0  0  0  0  0  0  0  0  0
    3.9737   -7.2795    2.1059 N   0  0  0  0  0  0  0  0  0  0  0  0
    2.6663   -6.8462    2.3782 N   0  0  0  0  0  0  0  0  0  0  0  0
    1.8068   -7.6067    1.6621 C   0  0  0  0  0  0  0  0  0  0  0  0
    2.5306   -8.5424    0.9230 C   0  0  0  0  0  0  0  0  0  0  0  0
   -1.6680   -6.3049    1.0026 C   0  0  0  0  0  0  0  0  0  0  0  0
    0.3247   -7.4481    1.6973 C   0  0  0  0  0  0  0  0  0  0  0  0
   -0.2846   -6.4396    0.9680 C   0  0  0  0  0  0  0  0  0  0  0  0
   -2.4437   -7.1762    1.7480 C   0  0  0  0  0  0  0  0  0  0  0  0
   -1.8368   -8.2007    2.4718 C   0  0  0  0  0  0  0  0  0  0  0  0
   -0.4519   -8.3345    2.4414 C   0  0  0  0  0  0  0  0  0  0  0  0
   -2.2699   -5.3210    0.3135 F   0  0  0  0  0  0  0  0  0  0  0  0
    7.0652   -8.7252   -2.5443 C   0  0  0  0  0  0  0  0  0  0  0  0
    5.8621   -8.6044   -3.3086 O   0  0  0  0  0  0  0  0  0  0  0  0
    5.2960   -7.9221   -2.9149 H   0  0  0  0  0  0  0  0  0  0  0  0
    8.9788   -8.4130    1.9800 S   0  0  0  0  0  0  0  0  0  0  0  0
    8.6362   -6.6938    2.1423 C   0  0  0  0  0  0  0  0  0  0  0  0
    9.6700   -5.9528    1.4843 O   0  0  0  0  0  0  0  0  0  0  0  0
    9.3443   -4.5628    1.4346 C   0  0  0  0  0  0  0  0  0  0  0  0
    9.3061   -4.0035    2.8522 C   0  0  0  0  0  0  0  0  0  0  0  0
   10.5976   -4.1677    3.4485 O   0  0  0  0  0  0  0  0  0  0  0  0
    8.2515   -4.7572    3.6572 C   0  0  0  0  0  0  0  0  0  0  0  0
    8.1992   -4.3275    5.0247 O   0  0  0  0  0  0  0  0  0  0  0  0
    8.5224   -6.2520    3.6003 C   0  0  0  0  0  0  0  0  0  0  0  0
    7.4066   -6.8936    4.2237 O   0  0  0  0  0  0  0  0  0  0  0  0
   10.8292   -5.1096    3.4640 H   0  0  0  0  0  0  0  0  0  0  0  0
    9.0494   -4.5112    5.4541 H   0  0  0  0  0  0  0  0  0  0  0  0
    6.5916   -6.6499    3.7575 H   0  0  0  0  0  0  0  0  0  0  0  0
   10.3717   -3.8333    0.5795 C   0  0  0  0  0  0  0  0  0  0  0  0
    9.7812   -3.5272   -0.6899 O   0  0  0  0  0  0  0  0  0  0  0  0
    9.5081   -4.3494   -1.1261 H   0  0  0  0  0  0  0  0  0  0  0  0
 22 16  1  0  0  0
 16 19  2  0  0  0
 16 18  1  0  0  0
 19 20  1  0  0  0
 18 17  2  0  0  0
 35 34  1  0  0  0
 33 32  1  0  0  0
  7  6  1  0  0  0
 20 21  2  0  0  0
 34 32  1  0  0  0
 34 27  1  0  0  0
 17 21  1  0  0  0
 17 14  1  0  0  0
 32 30  1  0  0  0
 23 24  1  0  0  0
 23  3  1  0  0  0
 15 14  2  0  0  0
 15 11  1  0  0  0
  5  3  1  0  0  0
  5  4  1  0  0  0
 14 13  1  0  0  0
 26 27  1  0  0  0
 26  4  1  0  0  0
  6  3  1  0  0  0
  6  2  1  0  0  0
 27 28  1  0  0  0
  1  4  1  0  0  0
  1  2  1  0  0  0
  1  8  1  0  0  0
 11  2  1  0  0  0
 11 12  1  0  0  0
 31 30  1  0  0  0
 30 29  1  0  0  0
 13 12  2  0  0  0
 28 29  1  0  0  0
 29 39  1  0  0  0
 39 40  1  0  0  0
 24 25  1  0  0  0
 40 41  1  0  0  0
  7  9  1  0  0  0
 31 36  1  0  0  0
 33 37  1  0  0  0
  8 10  1  0  0  0
 35 38  1  0  0  0
M  END
> <minimizedAffinity>
-7.69208

$$$$
5H9R_TGZ_A_301


 41 44  0  0  0  0  0  0  0  0999 V2000
   -7.8572   -6.3916    1.8820 C   0  0  0  0  0  0  0  0  0  0  0  0
   -6.9156   -7.0600    2.8794 C   0  0  0  0  0  0  0  0  0  0  0  0
   -8.5931   -6.6454    4.6694 C   0  0  0  0  0  0  0  0  0  0  0  0
   -9.2960   -6.4403    2.3973 C   0  0  0  0  0  0  0  0  0  0  0  0
   -9.3928   -5.9291    3.7263 O   0  0  0  0  0  0  0  0  0  0  0  0
   -7.1300   -6.5038    4.2799 C   0  0  0  0  0  0  0  0  0  0  0  0
   -6.7309   -5.1226    4.3148 O   0  0  0  0  0  0  0  0  0  0  0  0
   -7.7642   -7.0734    0.6219 O   0  0  0  0  0  0  0  0  0  0  0  0
   -7.2648   -4.6157    3.6833 H   0  0  0  0  0  0  0  0  0  0  0  0
   -8.0197   -8.0020    0.7370 H   0  0  0  0  0  0  0  0  0  0  0  0
   -5.4897   -6.8775    2.5029 N   0  0  0  0  0  0  0  0  0  0  0  0
   -5.2245   -5.6900    1.8227 N   0  0  0  0  0  0  0  0  0  0  0  0
   -3.8454   -5.7197    1.5612 N   0  0  0  0  0  0  0  0  0  0  0  0
   -3.3403   -6.8690    2.0651 C   0  0  0  0  0  0  0  0  0  0  0  0
   -4.3709   -7.6029    2.6524 C   0  0  0  0  0  0  0  0  0  0  0  0
   -0.0880   -8.6945    2.6076 C   0  0  0  0  0  0  0  0  0  0  0  0
   -1.9044   -7.2600    1.9726 C   0  0  0  0  0  0  0  0  0  0  0  0
   -1.4273   -8.3343    2.7065 C   0  0  0  0  0  0  0  0  0  0  0  0
    0.7704   -7.9990    1.7735 C   0  0  0  0  0  0  0  0  0  0  0  0
    0.2922   -6.9269    1.0228 C   0  0  0  0  0  0  0  0  0  0  0  0
   -1.0471   -6.5625    1.1236 C   0  0  0  0  0  0  0  0  0  0  0  0
    0.3911   -9.7235    3.3266 F   0  0  0  0  0  0  0  0  0  0  0  0
   -8.8519   -6.1018    6.0724 C   0  0  0  0  0  0  0  0  0  0  0  0
   -9.0778   -4.6905    6.0129 O   0  0  0  0  0  0  0  0  0  0  0  0
   -9.8503   -4.5100    5.4547 H   0  0  0  0  0  0  0  0  0  0  0  0
  -10.3833   -5.4284    1.4432 S   0  0  0  0  0  0  0  0  0  0  0  0
  -10.6845   -6.3512   -0.0255 C   0  0  0  0  0  0  0  0  0  0  0  0
  -10.3843   -7.7288    0.2251 O   0  0  0  0  0  0  0  0  0  0  0  0
  -10.7813   -8.5432   -0.8793 C   0  0  0  0  0  0  0  0  0  0  0  0
   -9.9451   -8.1782   -2.1005 C   0  0  0  0  0  0  0  0  0  0  0  0
   -8.5650   -8.4196   -1.8042 O   0  0  0  0  0  0  0  0  0  0  0  0
  -10.1655   -6.7055   -2.4334 C   0  0  0  0  0  0  0  0  0  0  0  0
   -9.3612   -6.2700   -3.5385 O   0  0  0  0  0  0  0  0  0  0  0  0
   -9.8698   -5.8459   -1.2150 C   0  0  0  0  0  0  0  0  0  0  0  0
  -10.2631   -4.5125   -1.5504 O   0  0  0  0  0  0  0  0  0  0  0  0
   -8.2995   -7.8827   -1.0413 H   0  0  0  0  0  0  0  0  0  0  0  0
   -8.4227   -6.3580   -3.3098 H   0  0  0  0  0  0  0  0  0  0  0  0
  -11.2036   -4.5027   -1.7875 H   0  0  0  0  0  0  0  0  0  0  0  0
  -10.6119  -10.0112   -0.5113 C   0  0  0  0  0  0  0  0  0  0  0  0
   -9.5718  -10.1239    0.4679 O   0  0  0  0  0  0  0  0  0  0  0  0
   -8.7441   -9.7745    0.1021 H   0  0  0  0  0  0  0  0  0  0  0  0
 22 16  1  0  0  0
 16 19  2  0  0  0
 16 18  1  0  0  0
 19 20  1  0  0  0
 18 17  2  0  0  0
 35 34  1  0  0  0
 33 32  1  0  0  0
  7  6  1  0  0  0
 20 21  2  0  0  0
 34 32  1  0  0  0
 34 27  1  0  0  0
 17 21  1  0  0  0
 17 14  1  0  0  0
 32 30  1  0  0  0
 23 24  1  0  0  0
 23  3  1  0  0  0
 15 14  2  0  0  0
 15 11  1  0  0  0
  5  3  1  0  0  0
  5  4  1  0  0  0
 14 13  1  0  0  0
 26 27  1  0  0  0
 26  4  1  0  0  0
  6  3  1  0  0  0
  6  2  1  0  0  0
 27 28  1  0  0  0
  1  4  1  0  0  0
  1  2  1  0  0  0
  1  8  1  0  0  0
 11  2  1  0  0  0
 11 12  1  0  0  0
 31 30  1  0  0  0
 30 29  1  0  0  0
 13 12  2  0  0  0
 28 29  1  0  0  0
 29 39  1  0  0  0
 39 40  1  0  0  0
 24 25  1  0  0  0
 40 41  1  0  0  0
  7  9  1  0  0  0
 31 36  1  0  0  0
 33 37  1  0  0  0
  8 10  1  0  0  0
 35 38  1  0  0  0
M  END
> <minimizedAffinity>
-7.55112

$$$$
5H9R_TGZ_A_301


 41 44  0  0  0  0  0  0  0  0999 V2000
    5.4413   -7.0280    1.3699 C   0  0  0  0  0  0  0  0  0  0  0  0
    4.8309   -8.3615    0.9490 C   0  0  0  0  0  0  0  0  0  0  0  0
    6.9521   -8.9068   -0.2311 C   0  0  0  0  0  0  0  0  0  0  0  0
    6.9678   -7.1122    1.3431 C   0  0  0  0  0  0  0  0  0  0  0  0
    7.4423   -7.6034    0.0899 O   0  0  0  0  0  0  0  0  0  0  0  0
    5.4384   -8.8436   -0.3607 C   0  0  0  0  0  0  0  0  0  0  0  0
    5.0606   -7.9511   -1.4231 O   0  0  0  0  0  0  0  0  0  0  0  0
    4.9911   -6.7047    2.6943 O   0  0  0  0  0  0  0  0  0  0  0  0
    5.3871   -7.0589   -1.2274 H   0  0  0  0  0  0  0  0  0  0  0  0
    5.2728   -7.3992    3.3101 H   0  0  0  0  0  0  0  0  0  0  0  0
    3.3562   -8.2699    0.7897 N   0  0  0  0  0  0  0  0  0  0  0  0
    2.8323   -9.1149   -0.1874 N   0  0  0  0  0  0  0  0  0  0  0  0
    1.4499   -8.8699   -0.1781 N   0  0  0  0  0  0  0  0  0  0  0  0
    1.1896   -7.9287    0.7580 C   0  0  0  0  0  0  0  0  0  0  0  0
    2.3853   -7.5439    1.3646 C   0  0  0  0  0  0  0  0  0  0  0  0
   -1.8692   -5.7269    0.7674 C   0  0  0  0  0  0  0  0  0  0  0  0
   -0.1732   -7.4009    1.0535 C   0  0  0  0  0  0  0  0  0  0  0  0
   -0.5939   -6.2066    0.4905 C   0  0  0  0  0  0  0  0  0  0  0  0
   -2.7274   -6.4369    1.5894 C   0  0  0  0  0  0  0  0  0  0  0  0
   -2.3142   -7.6453    2.1467 C   0  0  0  0  0  0  0  0  0  0  0  0
   -1.0365   -8.1250    1.8737 C   0  0  0  0  0  0  0  0  0  0  0  0
   -2.2833   -4.5619    0.2414 F   0  0  0  0  0  0  0  0  0  0  0  0
    7.6030   -9.3906   -1.5246 C   0  0  0  0  0  0  0  0  0  0  0  0
    7.6767   -8.3143   -2.4639 O   0  0  0  0  0  0  0  0  0  0  0  0
    8.2091   -7.5948   -2.0901 H   0  0  0  0  0  0  0  0  0  0  0  0
    7.7289   -5.5299    1.5262 S   0  0  0  0  0  0  0  0  0  0  0  0
    7.7871   -5.2566    3.2643 C   0  0  0  0  0  0  0  0  0  0  0  0
    7.3285   -6.4370    3.9329 O   0  0  0  0  0  0  0  0  0  0  0  0
    7.5248   -6.3292    5.3437 C   0  0  0  0  0  0  0  0  0  0  0  0
    6.6492   -5.2072    5.8898 C   0  0  0  0  0  0  0  0  0  0  0  0
    5.2775   -5.5205    5.6237 O   0  0  0  0  0  0  0  0  0  0  0  0
    7.0350   -3.8974    5.2085 C   0  0  0  0  0  0  0  0  0  0  0  0
    6.2095   -2.8014    5.6270 O   0  0  0  0  0  0  0  0  0  0  0  0
    6.9539   -4.0519    3.6985 C   0  0  0  0  0  0  0  0  0  0  0  0
    7.4918   -2.8524    3.1354 O   0  0  0  0  0  0  0  0  0  0  0  0
    5.1471   -5.6146    4.6671 H   0  0  0  0  0  0  0  0  0  0  0  0
    5.2889   -2.9758    5.3761 H   0  0  0  0  0  0  0  0  0  0  0  0
    8.4034   -2.7309    3.4439 H   0  0  0  0  0  0  0  0  0  0  0  0
    7.1929   -7.6610    6.0034 C   0  0  0  0  0  0  0  0  0  0  0  0
    6.1752   -8.3150    5.2352 O   0  0  0  0  0  0  0  0  0  0  0  0
    5.3847   -7.7538    5.2015 H   0  0  0  0  0  0  0  0  0  0  0  0
 22 16  1  0  0  0
 16 19  2  0  0  0
 16 18  1  0  0  0
 19 20  1  0  0  0
 18 17  2  0  0  0
 35 34  1  0  0  0
 33 32  1  0  0  0
  7  6  1  0  0  0
 20 21  2  0  0  0
 34 32  1  0  0  0
 34 27  1  0  0  0
 17 21  1  0  0  0
 17 14  1  0  0  0
 32 30  1  0  0  0
 23 24  1  0  0  0
 23  3  1  0  0  0
 15 14  2  0  0  0
 15 11  1  0  0  0
  5  3  1  0  0  0
  5  4  1  0  0  0
 14 13  1  0  0  0
 26 27  1  0  0  0
 26  4  1  0  0  0
  6  3  1  0  0  0
  6  2  1  0  0  0
 27 28  1  0  0  0
  1  4  1  0  0  0
  1  2  1  0  0  0
  1  8  1  0  0  0
 11  2  1  0  0  0
 11 12  1  0  0  0
 31 30  1  0  0  0
 30 29  1  0  0  0
 13 12  2  0  0  0
 28 29  1  0  0  0
 29 39  1  0  0  0
 39 40  1  0  0  0
 24 25  1  0  0  0
 40 41  1  0  0  0
  7  9  1  0  0  0
 31 36  1  0  0  0
 33 37  1  0  0  0
  8 10  1  0  0  0
 35 38  1  0  0  0
M  END
> <minimizedAffinity>
-7.49890

$$$$
5H9R_TGZ_A_301


 41 44  0  0  0  0  0  0  0  0999 V2000
    0.8904   -8.3570    1.3655 C   0  0  0  0  0  0  0  0  0  0  0  0
   -0.1897   -9.1543    2.0907 C   0  0  0  0  0  0  0  0  0  0  0  0
    0.9200  -11.2509    1.3407 C   0  0  0  0  0  0  0  0  0  0  0  0
    2.1473   -9.2091    1.1864 C   0  0  0  0  0  0  0  0  0  0  0  0
    1.8446  -10.4670    0.5838 O   0  0  0  0  0  0  0  0  0  0  0  0
   -0.4028  -10.5055    1.4232 C   0  0  0  0  0  0  0  0  0  0  0  0
   -0.9541  -10.3109    0.1093 O   0  0  0  0  0  0  0  0  0  0  0  0
    1.1989   -7.1828    2.1318 O   0  0  0  0  0  0  0  0  0  0  0  0
   -0.3397   -9.7830   -0.4242 H   0  0  0  0  0  0  0  0  0  0  0  0
    1.5222   -7.4444    3.0082 H   0  0  0  0  0  0  0  0  0  0  0  0
   -1.4849   -8.4266    2.1270 N   0  0  0  0  0  0  0  0  0  0  0  0
   -1.7351   -7.6464    0.9993 N   0  0  0  0  0  0  0  0  0  0  0  0
   -2.9844   -7.0516    1.2373 N   0  0  0  0  0  0  0  0  0  0  0  0
   -3.4322   -7.4678    2.4440 C   0  0  0  0  0  0  0  0  0  0  0  0
   -2.4904   -8.3272    3.0099 C   0  0  0  0  0  0  0  0  0  0  0  0
   -6.8804   -5.9992    2.8405 C   0  0  0  0  0  0  0  0  0  0  0  0
   -4.7273   -7.0396    3.0460 C   0  0  0  0  0  0  0  0  0  0  0  0
   -5.6732   -6.3883    2.2706 C   0  0  0  0  0  0  0  0  0  0  0  0
   -7.1519   -6.2676    4.1711 C   0  0  0  0  0  0  0  0  0  0  0  0
   -6.2097   -6.9349    4.9513 C   0  0  0  0  0  0  0  0  0  0  0  0
   -4.9993   -7.3214    4.3835 C   0  0  0  0  0  0  0  0  0  0  0  0
   -7.7992   -5.3521    2.1040 F   0  0  0  0  0  0  0  0  0  0  0  0
    0.7505  -12.6165    0.6794 C   0  0  0  0  0  0  0  0  0  0  0  0
    1.0707  -12.5261   -0.7118 O   0  0  0  0  0  0  0  0  0  0  0  0
    1.9907  -12.2358   -0.8136 H   0  0  0  0  0  0  0  0  0  0  0  0
    3.3168   -8.4565    0.0990 S   0  0  0  0  0  0  0  0  0  0  0  0
    4.5698   -7.8175    1.1578 C   0  0  0  0  0  0  0  0  0  0  0  0
    3.9562   -6.9885    2.1512 O   0  0  0  0  0  0  0  0  0  0  0  0
    4.9089   -6.5910    3.1387 C   0  0  0  0  0  0  0  0  0  0  0  0
    5.9661   -5.7045    2.4904 C   0  0  0  0  0  0  0  0  0  0  0  0
    5.3270   -4.5418    1.9519 O   0  0  0  0  0  0  0  0  0  0  0  0
    6.6617   -6.4881    1.3811 C   0  0  0  0  0  0  0  0  0  0  0  0
    7.6315   -5.6970    0.6804 O   0  0  0  0  0  0  0  0  0  0  0  0
    5.6332   -7.0254    0.3991 C   0  0  0  0  0  0  0  0  0  0  0  0
    6.3378   -7.8843   -0.5016 O   0  0  0  0  0  0  0  0  0  0  0  0
    4.6649   -4.8112    1.2961 H   0  0  0  0  0  0  0  0  0  0  0  0
    7.1881   -4.9509    0.2472 H   0  0  0  0  0  0  0  0  0  0  0  0
    6.7721   -8.5921   -0.0003 H   0  0  0  0  0  0  0  0  0  0  0  0
    4.1924   -5.8624    4.2677 C   0  0  0  0  0  0  0  0  0  0  0  0
    5.0796   -4.8817    4.8196 O   0  0  0  0  0  0  0  0  0  0  0  0
    5.8757   -5.3201    5.1586 H   0  0  0  0  0  0  0  0  0  0  0  0
 22 16  1  0  0  0
 16 19  2  0  0  0
 16 18  1  0  0  0
 19 20  1  0  0  0
 18 17  2  0  0  0
 35 34  1  0  0  0
 33 32  1  0  0  0
  7  6  1  0  0  0
 20 21  2  0  0  0
 34 32  1  0  0  0
 34 27  1  0  0  0
 17 21  1  0  0  0
 17 14  1  0  0  0
 32 30  1  0  0  0
 23 24  1  0  0  0
 23  3  1  0  0  0
 15 14  2  0  0  0
 15 11  1  0  0  0
  5  3  1  0  0  0
  5  4  1  0  0  0
 14 13  1  0  0  0
 26 27  1  0  0  0
 26  4  1  0  0  0
  6  3  1  0  0  0
  6  2  1  0  0  0
 27 28  1  0  0  0
  1  4  1  0  0  0
  1  2  1  0  0  0
  1  8  1  0  0  0
 11  2  1  0  0  0
 11 12  1  0  0  0
 31 30  1  0  0  0
 30 29  1  0  0  0
 13 12  2  0  0  0
 28 29  1  0  0  0
 29 39  1  0  0  0
 39 40  1  0  0  0
 24 25  1  0  0  0
 40 41  1  0  0  0
  7  9  1  0  0  0
 31 36  1  0  0  0
 33 37  1  0  0  0
  8 10  1  0  0  0
 35 38  1  0  0  0
M  END
> <minimizedAffinity>
-7.28699

$$$$
5H9R_TGZ_A_301


 41 44  0  0  0  0  0  0  0  0999 V2000
   -0.1361   -9.3394    1.6066 C   0  0  0  0  0  0  0  0  0  0  0  0
    0.7016   -8.0874    1.8490 C   0  0  0  0  0  0  0  0  0  0  0  0
   -1.2433   -6.7061    1.1422 C   0  0  0  0  0  0  0  0  0  0  0  0
   -1.6258   -9.0015    1.6749 C   0  0  0  0  0  0  0  0  0  0  0  0
   -1.9526   -7.9047    0.8222 O   0  0  0  0  0  0  0  0  0  0  0  0
    0.2449   -6.9497    0.9469 C   0  0  0  0  0  0  0  0  0  0  0  0
    0.5254   -7.2811   -0.4241 O   0  0  0  0  0  0  0  0  0  0  0  0
    0.1905  -10.3207    2.6025 O   0  0  0  0  0  0  0  0  0  0  0  0
    0.0499   -8.0917   -0.6646 H   0  0  0  0  0  0  0  0  0  0  0  0
   -0.0054   -9.9649    3.4834 H   0  0  0  0  0  0  0  0  0  0  0  0
    2.1481   -8.3349    1.6154 N   0  0  0  0  0  0  0  0  0  0  0  0
    2.4194   -9.4756    0.8615 N   0  0  0  0  0  0  0  0  0  0  0  0
    3.8192   -9.5249    0.7657 N   0  0  0  0  0  0  0  0  0  0  0  0
    4.3302   -8.4648    1.4328 C   0  0  0  0  0  0  0  0  0  0  0  0
    3.2841   -7.7174    1.9740 C   0  0  0  0  0  0  0  0  0  0  0  0
    7.6249   -6.6379    1.5408 C   0  0  0  0  0  0  0  0  0  0  0  0
    5.7889   -8.1837    1.5598 C   0  0  0  0  0  0  0  0  0  0  0  0
    6.2634   -6.8899    1.4137 C   0  0  0  0  0  0  0  0  0  0  0  0
    8.5093   -7.6643    1.8246 C   0  0  0  0  0  0  0  0  0  0  0  0
    8.0354   -8.9646    1.9864 C   0  0  0  0  0  0  0  0  0  0  0  0
    6.6735   -9.2193    1.8556 C   0  0  0  0  0  0  0  0  0  0  0  0
    8.0999   -5.3907    1.3848 F   0  0  0  0  0  0  0  0  0  0  0  0
   -1.7432   -5.5675    0.2566 C   0  0  0  0  0  0  0  0  0  0  0  0
   -3.0573   -5.1757    0.6639 O   0  0  0  0  0  0  0  0  0  0  0  0
   -3.0337   -4.8745    1.5856 H   0  0  0  0  0  0  0  0  0  0  0  0
   -2.6403  -10.3313    1.1103 S   0  0  0  0  0  0  0  0  0  0  0  0
   -1.5108  -11.5143    0.4591 C   0  0  0  0  0  0  0  0  0  0  0  0
   -0.8263  -10.9336   -0.6566 O   0  0  0  0  0  0  0  0  0  0  0  0
    0.2253  -11.7890   -1.1073 C   0  0  0  0  0  0  0  0  0  0  0  0
   -0.3742  -13.0821   -1.6482 C   0  0  0  0  0  0  0  0  0  0  0  0
   -1.2350  -12.7673   -2.7484 O   0  0  0  0  0  0  0  0  0  0  0  0
   -1.1640  -13.7682   -0.5374 C   0  0  0  0  0  0  0  0  0  0  0  0
   -1.8119  -14.9657   -0.9887 O   0  0  0  0  0  0  0  0  0  0  0  0
   -2.1975  -12.8114    0.0346 C   0  0  0  0  0  0  0  0  0  0  0  0
   -2.7700  -13.4609    1.1728 O   0  0  0  0  0  0  0  0  0  0  0  0
   -1.9377  -12.1697   -2.4485 H   0  0  0  0  0  0  0  0  0  0  0  0
   -2.4548  -14.7444   -1.6806 H   0  0  0  0  0  0  0  0  0  0  0  0
   -2.0705  -13.6707    1.8112 H   0  0  0  0  0  0  0  0  0  0  0  0
    1.0407  -11.0690   -2.1730 C   0  0  0  0  0  0  0  0  0  0  0  0
    1.2174   -9.7039   -1.7743 O   0  0  0  0  0  0  0  0  0  0  0  0
    0.3500   -9.2809   -1.6762 H   0  0  0  0  0  0  0  0  0  0  0  0
 22 16  1  0  0  0
 16 19  2  0  0  0
 16 18  1  0  0  0
 19 20  1  0  0  0
 18 17  2  0  0  0
 35 34  1  0  0  0
 33 32  1  0  0  0
  7  6  1  0  0  0
 20 21  2  0  0  0
 34 32  1  0  0  0
 34 27  1  0  0  0
 17 21  1  0  0  0
 17 14  1  0  0  0
 32 30  1  0  0  0
 23 24  1  0  0  0
 23  3  1  0  0  0
 15 14  2  0  0  0
 15 11  1  0  0  0
  5  3  1  0  0  0
  5  4  1  0  0  0
 14 13  1  0  0  0
 26 27  1  0  0  0
 26  4  1  0  0  0
  6  3  1  0  0  0
  6  2  1  0  0  0
 27 28  1  0  0  0
  1  4  1  0  0  0
  1  2  1  0  0  0
  1  8  1  0  0  0
 11  2  1  0  0  0
 11 12  1  0  0  0
 31 30  1  0  0  0
 30 29  1  0  0  0
 13 12  2  0  0  0
 28 29  1  0  0  0
 29 39  1  0  0  0
 39 40  1  0  0  0
 24 25  1  0  0  0
 40 41  1  0  0  0
  7  9  1  0  0  0
 31 36  1  0  0  0
 33 37  1  0  0  0
  8 10  1  0  0  0
 35 38  1  0  0  0
M  END
> <minimizedAffinity>
-7.18238

$$$$
5H9R_TGZ_A_301


 41 44  0  0  0  0  0  0  0  0999 V2000
   -0.3068   -9.2223    1.1866 C   0  0  0  0  0  0  0  0  0  0  0  0
    0.6621   -8.0639    1.4043 C   0  0  0  0  0  0  0  0  0  0  0  0
   -1.2431   -6.4840    1.1507 C   0  0  0  0  0  0  0  0  0  0  0  0
   -1.7338   -8.7900    1.5254 C   0  0  0  0  0  0  0  0  0  0  0  0
   -2.0930   -7.5903    0.8409 O   0  0  0  0  0  0  0  0  0  0  0  0
    0.1711   -6.8093    0.6960 C   0  0  0  0  0  0  0  0  0  0  0  0
    0.2079   -7.0151   -0.7269 O   0  0  0  0  0  0  0  0  0  0  0  0
    0.0840  -10.3222    2.0225 O   0  0  0  0  0  0  0  0  0  0  0  0
   -0.3665   -7.7610   -0.9606 H   0  0  0  0  0  0  0  0  0  0  0  0
    0.0571  -10.0473    2.9523 H   0  0  0  0  0  0  0  0  0  0  0  0
    2.0290   -8.3862    0.9184 N   0  0  0  0  0  0  0  0  0  0  0  0
    2.0583   -9.0768   -0.2922 N   0  0  0  0  0  0  0  0  0  0  0  0
    3.4207   -9.2823   -0.5618 N   0  0  0  0  0  0  0  0  0  0  0  0
    4.1418   -8.7378    0.4449 C   0  0  0  0  0  0  0  0  0  0  0  0
    3.2714   -8.1789    1.3808 C   0  0  0  0  0  0  0  0  0  0  0  0
    7.7639   -9.0406   -0.5517 C   0  0  0  0  0  0  0  0  0  0  0  0
    5.6309   -8.7657    0.5140 C   0  0  0  0  0  0  0  0  0  0  0  0
    6.3755   -9.0236   -0.6259 C   0  0  0  0  0  0  0  0  0  0  0  0
    8.4098   -8.7896    0.6466 C   0  0  0  0  0  0  0  0  0  0  0  0
    7.6659   -8.5157    1.7926 C   0  0  0  0  0  0  0  0  0  0  0  0
    6.2761   -8.5023    1.7209 C   0  0  0  0  0  0  0  0  0  0  0  0
    8.4971   -9.3059   -1.6459 F   0  0  0  0  0  0  0  0  0  0  0  0
   -1.7740   -5.2273    0.4656 C   0  0  0  0  0  0  0  0  0  0  0  0
   -3.1906   -5.1383    0.6433 O   0  0  0  0  0  0  0  0  0  0  0  0
   -3.3956   -5.0947    1.5903 H   0  0  0  0  0  0  0  0  0  0  0  0
   -2.9331   -9.9797    1.0126 S   0  0  0  0  0  0  0  0  0  0  0  0
   -4.3366   -9.6714    2.0296 C   0  0  0  0  0  0  0  0  0  0  0  0
   -4.8069   -8.3426    1.7771 O   0  0  0  0  0  0  0  0  0  0  0  0
   -6.0475   -8.1084    2.4455 C   0  0  0  0  0  0  0  0  0  0  0  0
   -5.8257   -8.1632    3.9527 C   0  0  0  0  0  0  0  0  0  0  0  0
   -4.8889   -7.1441    4.3192 O   0  0  0  0  0  0  0  0  0  0  0  0
   -5.2841   -9.5398    4.3270 C   0  0  0  0  0  0  0  0  0  0  0  0
   -4.9908   -9.6481    5.7270 O   0  0  0  0  0  0  0  0  0  0  0  0
   -4.0348   -9.8461    3.5170 C   0  0  0  0  0  0  0  0  0  0  0  0
   -3.6918  -11.2066    3.7935 O   0  0  0  0  0  0  0  0  0  0  0  0
   -4.0525   -7.2900    3.8500 H   0  0  0  0  0  0  0  0  0  0  0  0
   -4.2976   -9.0117    5.9623 H   0  0  0  0  0  0  0  0  0  0  0  0
   -4.4350  -11.7824    3.5546 H   0  0  0  0  0  0  0  0  0  0  0  0
   -6.6051   -6.7576    2.0171 C   0  0  0  0  0  0  0  0  0  0  0  0
   -5.5282   -5.8146    1.9496 O   0  0  0  0  0  0  0  0  0  0  0  0
   -5.1083   -5.7405    2.8209 H   0  0  0  0  0  0  0  0  0  0  0  0
 22 16  1  0  0  0
 16 19  2  0  0  0
 16 18  1  0  0  0
 19 20  1  0  0  0
 18 17  2  0  0  0
 35 34  1  0  0  0
 33 32  1  0  0  0
  7  6  1  0  0  0
 20 21  2  0  0  0
 34 32  1  0  0  0
 34 27  1  0  0  0
 17 21  1  0  0  0
 17 14  1  0  0  0
 32 30  1  0  0  0
 23 24  1  0  0  0
 23  3  1  0  0  0
 15 14  2  0  0  0
 15 11  1  0  0  0
  5  3  1  0  0  0
  5  4  1  0  0  0
 14 13  1  0  0  0
 26 27  1  0  0  0
 26  4  1  0  0  0
  6  3  1  0  0  0
  6  2  1  0  0  0
 27 28  1  0  0  0
  1  4  1  0  0  0
  1  2  1  0  0  0
  1  8  1  0  0  0
 11  2  1  0  0  0
 11 12  1  0  0  0
 31 30  1  0  0  0
 30 29  1  0  0  0
 13 12  2  0  0  0
 28 29  1  0  0  0
 29 39  1  0  0  0
 39 40  1  0  0  0
 24 25  1  0  0  0
 40 41  1  0  0  0
  7  9  1  0  0  0
 31 36  1  0  0  0
 33 37  1  0  0  0
  8 10  1  0  0  0
 35 38  1  0  0  0
M  END
> <minimizedAffinity>
-7.05000

$$$$
5H9R_TGZ_A_301


 41 44  0  0  0  0  0  0  0  0999 V2000
    5.9752   -8.9609    2.3419 C   0  0  0  0  0  0  0  0  0  0  0  0
    4.9978   -9.1434    1.1846 C   0  0  0  0  0  0  0  0  0  0  0  0
    6.9375   -9.4281   -0.3472 C   0  0  0  0  0  0  0  0  0  0  0  0
    7.3230   -9.5983    2.0025 C   0  0  0  0  0  0  0  0  0  0  0  0
    7.8152   -9.1410    0.7434 O   0  0  0  0  0  0  0  0  0  0  0  0
    5.6247   -8.6930   -0.1273 C   0  0  0  0  0  0  0  0  0  0  0  0
    5.8428   -7.2719   -0.0927 O   0  0  0  0  0  0  0  0  0  0  0  0
    5.4258   -9.5727    3.5189 O   0  0  0  0  0  0  0  0  0  0  0  0
    6.4404   -7.0542    0.6397 H   0  0  0  0  0  0  0  0  0  0  0  0
    5.2878  -10.5191    3.3570 H   0  0  0  0  0  0  0  0  0  0  0  0
    3.7372   -8.3865    1.3996 N   0  0  0  0  0  0  0  0  0  0  0  0
    3.9184   -7.1132    1.9372 N   0  0  0  0  0  0  0  0  0  0  0  0
    2.6245   -6.5828    2.0627 N   0  0  0  0  0  0  0  0  0  0  0  0
    1.7403   -7.5059    1.6200 C   0  0  0  0  0  0  0  0  0  0  0  0
    2.4342   -8.6436    1.2081 C   0  0  0  0  0  0  0  0  0  0  0  0
   -1.6718   -6.0988    0.8570 C   0  0  0  0  0  0  0  0  0  0  0  0
    0.2628   -7.3059    1.6059 C   0  0  0  0  0  0  0  0  0  0  0  0
   -0.2923   -6.2722    0.8685 C   0  0  0  0  0  0  0  0  0  0  0  0
   -2.4970   -6.9563    1.5642 C   0  0  0  0  0  0  0  0  0  0  0  0
   -1.9446   -8.0058    2.2957 C   0  0  0  0  0  0  0  0  0  0  0  0
   -0.5638   -8.1784    2.3116 C   0  0  0  0  0  0  0  0  0  0  0  0
   -2.2216   -5.0904    0.1597 F   0  0  0  0  0  0  0  0  0  0  0  0
    7.5995   -9.0078   -1.6571 C   0  0  0  0  0  0  0  0  0  0  0  0
    8.9740   -9.4039   -1.6562 O   0  0  0  0  0  0  0  0  0  0  0  0
    9.0327  -10.3679   -1.5656 H   0  0  0  0  0  0  0  0  0  0  0  0
    8.5799   -9.1648    3.1639 S   0  0  0  0  0  0  0  0  0  0  0  0
    8.4964   -7.4104    3.2838 C   0  0  0  0  0  0  0  0  0  0  0  0
    7.1890   -7.0402    3.7357 O   0  0  0  0  0  0  0  0  0  0  0  0
    7.1277   -5.6413    4.0188 C   0  0  0  0  0  0  0  0  0  0  0  0
    7.3302   -4.8567    2.7276 C   0  0  0  0  0  0  0  0  0  0  0  0
    6.2871   -5.2016    1.8091 O   0  0  0  0  0  0  0  0  0  0  0  0
    8.6927   -5.2098    2.1383 C   0  0  0  0  0  0  0  0  0  0  0  0
    8.9307   -4.5550    0.8844 O   0  0  0  0  0  0  0  0  0  0  0  0
    8.8090   -6.7150    1.9599 C   0  0  0  0  0  0  0  0  0  0  0  0
   10.1606   -6.9774    1.5730 O   0  0  0  0  0  0  0  0  0  0  0  0
    6.3143   -6.1549    1.6320 H   0  0  0  0  0  0  0  0  0  0  0  0
    8.2715   -4.8484    0.2362 H   0  0  0  0  0  0  0  0  0  0  0  0
   10.7632   -6.6404    2.2543 H   0  0  0  0  0  0  0  0  0  0  0  0
    5.7861   -5.3139    4.6606 C   0  0  0  0  0  0  0  0  0  0  0  0
    4.9004   -6.4241    4.4694 O   0  0  0  0  0  0  0  0  0  0  0  0
    4.7848   -6.5857    3.5199 H   0  0  0  0  0  0  0  0  0  0  0  0
 22 16  1  0  0  0
 16 19  2  0  0  0
 16 18  1  0  0  0
 19 20  1  0  0  0
 18 17  2  0  0  0
 35 34  1  0  0  0
 33 32  1  0  0  0
  7  6  1  0  0  0
 20 21  2  0  0  0
 34 32  1  0  0  0
 34 27  1  0  0  0
 17 21  1  0  0  0
 17 14  1  0  0  0
 32 30  1  0  0  0
 23 24  1  0  0  0
 23  3  1  0  0  0
 15 14  2  0  0  0
 15 11  1  0  0  0
  5  3  1  0  0  0
  5  4  1  0  0  0
 14 13  1  0  0  0
 26 27  1  0  0  0
 26  4  1  0  0  0
  6  3  1  0  0  0
  6  2  1  0  0  0
 27 28  1  0  0  0
  1  4  1  0  0  0
  1  2  1  0  0  0
  1  8  1  0  0  0
 11  2  1  0  0  0
 11 12  1  0  0  0
 31 30  1  0  0  0
 30 29  1  0  0  0
 13 12  2  0  0  0
 28 29  1  0  0  0
 29 39  1  0  0  0
 39 40  1  0  0  0
 24 25  1  0  0  0
 40 41  1  0  0  0
  7  9  1  0  0  0
 31 36  1  0  0  0
 33 37  1  0  0  0
  8 10  1  0  0  0
 35 38  1  0  0  0
M  END
> <minimizedAffinity>
-7.02715

$$$$
5H9R_TGZ_A_301


 41 44  0  0  0  0  0  0  0  0999 V2000
    0.8637   -8.1605    0.8047 C   0  0  0  0  0  0  0  0  0  0  0  0
   -0.0594   -8.8524    1.8033 C   0  0  0  0  0  0  0  0  0  0  0  0
    1.0945  -11.0007    1.3103 C   0  0  0  0  0  0  0  0  0  0  0  0
    2.1460   -8.9724    0.6182 C   0  0  0  0  0  0  0  0  0  0  0  0
    1.8608  -10.3351    0.3043 O   0  0  0  0  0  0  0  0  0  0  0  0
   -0.2573  -10.3150    1.4313 C   0  0  0  0  0  0  0  0  0  0  0  0
   -0.9791  -10.4020    0.1905 O   0  0  0  0  0  0  0  0  0  0  0  0
    1.1808   -6.8480    1.2926 O   0  0  0  0  0  0  0  0  0  0  0  0
   -0.4742   -9.9587   -0.5091 H   0  0  0  0  0  0  0  0  0  0  0  0
    1.6275   -6.9212    2.1505 H   0  0  0  0  0  0  0  0  0  0  0  0
   -1.3884   -8.1917    1.8788 N   0  0  0  0  0  0  0  0  0  0  0  0
   -1.7160   -7.4344    0.7553 N   0  0  0  0  0  0  0  0  0  0  0  0
   -2.9856   -6.9024    1.0317 N   0  0  0  0  0  0  0  0  0  0  0  0
   -3.3707   -7.3313    2.2555 C   0  0  0  0  0  0  0  0  0  0  0  0
   -2.3675   -8.1368    2.7946 C   0  0  0  0  0  0  0  0  0  0  0  0
   -6.8437   -5.9647    2.7799 C   0  0  0  0  0  0  0  0  0  0  0  0
   -4.6652   -6.9651    2.8983 C   0  0  0  0  0  0  0  0  0  0  0  0
   -5.6374   -6.2955    2.1726 C   0  0  0  0  0  0  0  0  0  0  0  0
   -7.0881   -6.3092    4.0982 C   0  0  0  0  0  0  0  0  0  0  0  0
   -6.1192   -6.9950    4.8279 C   0  0  0  0  0  0  0  0  0  0  0  0
   -4.9097   -7.3233    4.2228 C   0  0  0  0  0  0  0  0  0  0  0  0
   -7.7880   -5.3007    2.0924 F   0  0  0  0  0  0  0  0  0  0  0  0
    0.9415  -12.4742    0.9412 C   0  0  0  0  0  0  0  0  0  0  0  0
    1.0485  -12.6341   -0.4762 O   0  0  0  0  0  0  0  0  0  0  0  0
    1.9175  -12.3209   -0.7723 H   0  0  0  0  0  0  0  0  0  0  0  0
    3.1160   -8.3896   -0.7368 S   0  0  0  0  0  0  0  0  0  0  0  0
    4.7063   -8.0756   -0.0499 C   0  0  0  0  0  0  0  0  0  0  0  0
    5.6255   -9.0546   -0.5471 O   0  0  0  0  0  0  0  0  0  0  0  0
    6.9633   -8.7366   -0.1599 C   0  0  0  0  0  0  0  0  0  0  0  0
    7.0830   -8.8250    1.3572 C   0  0  0  0  0  0  0  0  0  0  0  0
    6.7747  -10.1617    1.7678 O   0  0  0  0  0  0  0  0  0  0  0  0
    6.1082   -7.8377    1.9924 C   0  0  0  0  0  0  0  0  0  0  0  0
    6.1185   -7.9068    3.4252 O   0  0  0  0  0  0  0  0  0  0  0  0
    4.7005   -8.0912    1.4777 C   0  0  0  0  0  0  0  0  0  0  0  0
    3.8849   -7.0283    1.9780 O   0  0  0  0  0  0  0  0  0  0  0  0
    5.8737  -10.3864    1.4873 H   0  0  0  0  0  0  0  0  0  0  0  0
    5.8325   -8.7893    3.7084 H   0  0  0  0  0  0  0  0  0  0  0  0
    4.2397   -6.1781    1.6743 H   0  0  0  0  0  0  0  0  0  0  0  0
    7.9291   -9.6922   -0.8478 C   0  0  0  0  0  0  0  0  0  0  0  0
    8.3893   -9.0874   -2.0627 O   0  0  0  0  0  0  0  0  0  0  0  0
    7.6317   -8.9061   -2.6407 H   0  0  0  0  0  0  0  0  0  0  0  0
 22 16  1  0  0  0
 16 19  2  0  0  0
 16 18  1  0  0  0
 19 20  1  0  0  0
 18 17  2  0  0  0
 35 34  1  0  0  0
 33 32  1  0  0  0
  7  6  1  0  0  0
 20 21  2  0  0  0
 34 32  1  0  0  0
 34 27  1  0  0  0
 17 21  1  0  0  0
 17 14  1  0  0  0
 32 30  1  0  0  0
 23 24  1  0  0  0
 23  3  1  0  0  0
 15 14  2  0  0  0
 15 11  1  0  0  0
  5  3  1  0  0  0
  5  4  1  0  0  0
 14 13  1  0  0  0
 26 27  1  0  0  0
 26  4  1  0  0  0
  6  3  1  0  0  0
  6  2  1  0  0  0
 27 28  1  0  0  0
  1  4  1  0  0  0
  1  2  1  0  0  0
  1  8  1  0  0  0
 11  2  1  0  0  0
 11 12  1  0  0  0
 31 30  1  0  0  0
 30 29  1  0  0  0
 13 12  2  0  0  0
 28 29  1  0  0  0
 29 39  1  0  0  0
 39 40  1  0  0  0
 24 25  1  0  0  0
 40 41  1  0  0  0
  7  9  1  0  0  0
 31 36  1  0  0  0
 33 37  1  0  0  0
  8 10  1  0  0  0
 35 38  1  0  0  0
M  END
> <minimizedAffinity>
-6.83350

$$$$
5H9R_TGZ_A_301


 41 44  0  0  0  0  0  0  0  0999 V2000
    3.9187   -8.5318   -0.4711 C   0  0  0  0  0  0  0  0  0  0  0  0
    2.4922   -8.6023    0.0655 C   0  0  0  0  0  0  0  0  0  0  0  0
    3.3376   -7.8466    2.2800 C   0  0  0  0  0  0  0  0  0  0  0  0
    4.7585   -7.5789    0.3804 C   0  0  0  0  0  0  0  0  0  0  0  0
    4.6705   -7.9024    1.7677 O   0  0  0  0  0  0  0  0  0  0  0  0
    2.4917   -8.8856    1.5610 C   0  0  0  0  0  0  0  0  0  0  0  0
    3.0062  -10.2071    1.8001 O   0  0  0  0  0  0  0  0  0  0  0  0
    3.8846   -8.0733   -1.8313 O   0  0  0  0  0  0  0  0  0  0  0  0
    3.9137  -10.2667    1.4627 H   0  0  0  0  0  0  0  0  0  0  0  0
    3.4813   -7.1918   -1.8653 H   0  0  0  0  0  0  0  0  0  0  0  0
    1.6929   -9.6495   -0.6222 N   0  0  0  0  0  0  0  0  0  0  0  0
    0.4923   -9.9629    0.0131 N   0  0  0  0  0  0  0  0  0  0  0  0
   -0.0928  -10.9594   -0.7842 N   0  0  0  0  0  0  0  0  0  0  0  0
    0.7308  -11.2091   -1.8279 C   0  0  0  0  0  0  0  0  0  0  0  0
    1.8574  -10.3928   -1.7271 C   0  0  0  0  0  0  0  0  0  0  0  0
   -1.0023  -13.8493   -3.8847 C   0  0  0  0  0  0  0  0  0  0  0  0
    0.4496  -12.2177   -2.8894 C   0  0  0  0  0  0  0  0  0  0  0  0
   -0.7475  -12.9158   -2.8862 C   0  0  0  0  0  0  0  0  0  0  0  0
   -0.0777  -14.0788   -4.8891 C   0  0  0  0  0  0  0  0  0  0  0  0
    1.1214  -13.3692   -4.9046 C   0  0  0  0  0  0  0  0  0  0  0  0
    1.3798  -12.4374   -3.9037 C   0  0  0  0  0  0  0  0  0  0  0  0
   -2.1518  -14.5449   -3.8837 F   0  0  0  0  0  0  0  0  0  0  0  0
    3.3612   -8.0919    3.7866 C   0  0  0  0  0  0  0  0  0  0  0  0
    2.2426   -8.8992    4.1653 O   0  0  0  0  0  0  0  0  0  0  0  0
    2.2878   -9.7512    3.7039 H   0  0  0  0  0  0  0  0  0  0  0  0
    6.4793   -7.6817    0.0002 S   0  0  0  0  0  0  0  0  0  0  0  0
    7.2925   -7.0034    1.4067 C   0  0  0  0  0  0  0  0  0  0  0  0
    8.2274   -6.0123    0.9661 O   0  0  0  0  0  0  0  0  0  0  0  0
    8.7825   -5.3089    2.0787 C   0  0  0  0  0  0  0  0  0  0  0  0
    9.6066   -6.2734    2.9240 C   0  0  0  0  0  0  0  0  0  0  0  0
   10.6667   -6.8025    2.1197 O   0  0  0  0  0  0  0  0  0  0  0  0
    8.7036   -7.3999    3.4178 C   0  0  0  0  0  0  0  0  0  0  0  0
    9.4236   -8.3847    4.1724 O   0  0  0  0  0  0  0  0  0  0  0  0
    8.0085   -8.0645    2.2405 C   0  0  0  0  0  0  0  0  0  0  0  0
    7.0591   -8.9815    2.7911 O   0  0  0  0  0  0  0  0  0  0  0  0
   10.2917   -7.2627    1.3525 H   0  0  0  0  0  0  0  0  0  0  0  0
   10.0911   -8.8020    3.6056 H   0  0  0  0  0  0  0  0  0  0  0  0
    6.4383   -8.5010    3.3609 H   0  0  0  0  0  0  0  0  0  0  0  0
    9.6330   -4.1519    1.5717 C   0  0  0  0  0  0  0  0  0  0  0  0
    9.1336   -2.9318    2.1335 O   0  0  0  0  0  0  0  0  0  0  0  0
    8.2093   -2.8076    1.8668 H   0  0  0  0  0  0  0  0  0  0  0  0
 22 16  1  0  0  0
 16 19  2  0  0  0
 16 18  1  0  0  0
 19 20  1  0  0  0
 18 17  2  0  0  0
 35 34  1  0  0  0
 33 32  1  0  0  0
  7  6  1  0  0  0
 20 21  2  0  0  0
 34 32  1  0  0  0
 34 27  1  0  0  0
 17 21  1  0  0  0
 17 14  1  0  0  0
 32 30  1  0  0  0
 23 24  1  0  0  0
 23  3  1  0  0  0
 15 14  2  0  0  0
 15 11  1  0  0  0
  5  3  1  0  0  0
  5  4  1  0  0  0
 14 13  1  0  0  0
 26 27  1  0  0  0
 26  4  1  0  0  0
  6  3  1  0  0  0
  6  2  1  0  0  0
 27 28  1  0  0  0
  1  4  1  0  0  0
  1  2  1  0  0  0
  1  8  1  0  0  0
 11  2  1  0  0  0
 11 12  1  0  0  0
 31 30  1  0  0  0
 30 29  1  0  0  0
 13 12  2  0  0  0
 28 29  1  0  0  0
 29 39  1  0  0  0
 39 40  1  0  0  0
 24 25  1  0  0  0
 40 41  1  0  0  0
  7  9  1  0  0  0
 31 36  1  0  0  0
 33 37  1  0  0  0
  8 10  1  0  0  0
 35 38  1  0  0  0
M  END
> <minimizedAffinity>
-6.80094

$$$$
5H9R_TGZ_A_301


 41 44  0  0  0  0  0  0  0  0999 V2000
   -0.3225   -9.2965    1.3052 C   0  0  0  0  0  0  0  0  0  0  0  0
    0.3749   -8.0243    1.7774 C   0  0  0  0  0  0  0  0  0  0  0  0
   -1.7645   -6.7926    1.4679 C   0  0  0  0  0  0  0  0  0  0  0  0
   -1.8336   -9.1784    1.5071 C   0  0  0  0  0  0  0  0  0  0  0  0
   -2.3465   -7.9800    0.9261 O   0  0  0  0  0  0  0  0  0  0  0  0
   -0.2749   -6.7928    1.1625 C   0  0  0  0  0  0  0  0  0  0  0  0
   -0.0519   -6.7904   -0.2582 O   0  0  0  0  0  0  0  0  0  0  0  0
    0.1862  -10.4130    2.0508 O   0  0  0  0  0  0  0  0  0  0  0  0
   -0.4430   -7.5878   -0.6482 H   0  0  0  0  0  0  0  0  0  0  0  0
    0.0105  -10.2782    2.9951 H   0  0  0  0  0  0  0  0  0  0  0  0
    1.8211   -8.0258    1.4356 N   0  0  0  0  0  0  0  0  0  0  0  0
    2.6151   -7.2766    2.3024 N   0  0  0  0  0  0  0  0  0  0  0  0
    3.9213   -7.4058    1.8040 N   0  0  0  0  0  0  0  0  0  0  0  0
    3.8820   -8.1906    0.7028 C   0  0  0  0  0  0  0  0  0  0  0  0
    2.5634   -8.5775    0.4636 C   0  0  0  0  0  0  0  0  0  0  0  0
    6.1574   -8.8026   -2.2387 C   0  0  0  0  0  0  0  0  0  0  0  0
    5.0803   -8.5490   -0.1089 C   0  0  0  0  0  0  0  0  0  0  0  0
    5.0321   -8.4725   -1.4917 C   0  0  0  0  0  0  0  0  0  0  0  0
    7.3292   -9.1944   -1.6144 C   0  0  0  0  0  0  0  0  0  0  0  0
    7.3870   -9.2593   -0.2237 C   0  0  0  0  0  0  0  0  0  0  0  0
    6.2603   -8.9330    0.5254 C   0  0  0  0  0  0  0  0  0  0  0  0
    6.1188   -8.7488   -3.5807 F   0  0  0  0  0  0  0  0  0  0  0  0
   -2.4561   -5.5693    0.8711 C   0  0  0  0  0  0  0  0  0  0  0  0
   -2.4945   -5.6798   -0.5545 O   0  0  0  0  0  0  0  0  0  0  0  0
   -2.9879   -6.4769   -0.8039 H   0  0  0  0  0  0  0  0  0  0  0  0
   -2.7191  -10.4819    0.7111 S   0  0  0  0  0  0  0  0  0  0  0  0
   -4.1612  -10.7124    1.6942 C   0  0  0  0  0  0  0  0  0  0  0  0
   -5.0935   -9.6664    1.3986 O   0  0  0  0  0  0  0  0  0  0  0  0
   -6.3476   -9.9095    2.0381 C   0  0  0  0  0  0  0  0  0  0  0  0
   -6.1618   -9.8499    3.5500 C   0  0  0  0  0  0  0  0  0  0  0  0
   -5.6918   -8.5451    3.9066 O   0  0  0  0  0  0  0  0  0  0  0  0
   -5.1486  -10.9108    3.9699 C   0  0  0  0  0  0  0  0  0  0  0  0
   -4.8736  -10.8754    5.3773 O   0  0  0  0  0  0  0  0  0  0  0  0
   -3.8554  -10.7335    3.1909 C   0  0  0  0  0  0  0  0  0  0  0  0
   -3.0293  -11.8568    3.5090 O   0  0  0  0  0  0  0  0  0  0  0  0
   -4.8504   -8.3704    3.4566 H   0  0  0  0  0  0  0  0  0  0  0  0
   -4.4802  -10.0194    5.6084 H   0  0  0  0  0  0  0  0  0  0  0  0
   -3.4919  -12.6757    3.2717 H   0  0  0  0  0  0  0  0  0  0  0  0
   -7.3643   -8.8795    1.5646 C   0  0  0  0  0  0  0  0  0  0  0  0
   -6.6990   -7.6227    1.3872 O   0  0  0  0  0  0  0  0  0  0  0  0
   -6.3081   -7.3420    2.2294 H   0  0  0  0  0  0  0  0  0  0  0  0
 22 16  1  0  0  0
 16 19  2  0  0  0
 16 18  1  0  0  0
 19 20  1  0  0  0
 18 17  2  0  0  0
 35 34  1  0  0  0
 33 32  1  0  0  0
  7  6  1  0  0  0
 20 21  2  0  0  0
 34 32  1  0  0  0
 34 27  1  0  0  0
 17 21  1  0  0  0
 17 14  1  0  0  0
 32 30  1  0  0  0
 23 24  1  0  0  0
 23  3  1  0  0  0
 15 14  2  0  0  0
 15 11  1  0  0  0
  5  3  1  0  0  0
  5  4  1  0  0  0
 14 13  1  0  0  0
 26 27  1  0  0  0
 26  4  1  0  0  0
  6  3  1  0  0  0
  6  2  1  0  0  0
 27 28  1  0  0  0
  1  4  1  0  0  0
  1  2  1  0  0  0
  1  8  1  0  0  0
 11  2  1  0  0  0
 11 12  1  0  0  0
 31 30  1  0  0  0
 30 29  1  0  0  0
 13 12  2  0  0  0
 28 29  1  0  0  0
 29 39  1  0  0  0
 39 40  1  0  0  0
 24 25  1  0  0  0
 40 41  1  0  0  0
  7  9  1  0  0  0
 31 36  1  0  0  0
 33 37  1  0  0  0
  8 10  1  0  0  0
 35 38  1  0  0  0
M  END
> <minimizedAffinity>
-6.64124

$$$$
