3KGQ_CIT_A_310


 17 16  0  0  0  0  0  0  0  0999 V2000
    7.2874    0.2336    5.8910 C   0  0  0  0  0  0  0  0  0  0  0  0
    7.1552    1.3571    4.9707 O   0  0  0  0  0  0  0  0  0  0  0  0
    6.9885    1.0236    4.0752 H   0  0  0  0  0  0  0  0  0  0  0  0
    7.5506    0.7371    7.3079 C   0  0  0  0  0  0  0  0  0  0  0  0
    8.1077    0.0001    8.1548 O   0  0  0  0  0  0  0  0  0  0  0  0
    7.2172    1.9006    7.6284 O   0  0  0  0  0  0  0  0  0  0  0  0
    6.8003    2.4580    7.0012 H   0  0  0  0  0  0  0  0  0  0  0  0
    8.4886   -0.6020    5.4546 C   0  0  0  0  0  0  0  0  0  0  0  0
    9.7078    0.2903    5.4394 C   0  0  0  0  0  0  0  0  0  0  0  0
    9.8457    1.1900    4.5962 O   0  0  0  0  0  0  0  0  0  0  0  0
   10.6133    0.1606    6.2730 O   0  0  0  0  0  0  0  0  0  0  0  0
   10.5537   -0.5052    6.9297 H   0  0  0  0  0  0  0  0  0  0  0  0
    6.0116   -0.6053    5.8557 C   0  0  0  0  0  0  0  0  0  0  0  0
    4.8095    0.2583    5.5490 C   0  0  0  0  0  0  0  0  0  0  0  0
    4.3699    0.3253    4.3800 O   0  0  0  0  0  0  0  0  0  0  0  0
    4.2460    0.9154    6.4570 O   0  0  0  0  0  0  0  0  0  0  0  0
    4.5680    0.8716    7.3358 H   0  0  0  0  0  0  0  0  0  0  0  0
  9 10  2  0  0  0
  9 11  1  0  0  0
  9  8  1  0  0  0
  8  1  1  0  0  0
  1  2  1  0  0  0
  1 13  1  0  0  0
  1  4  1  0  0  0
 13 14  1  0  0  0
 14 15  2  0  0  0
 14 16  1  0  0  0
  4  5  2  0  0  0
  4  6  1  0  0  0
 11 12  1  0  0  0
  2  3  1  0  0  0
 16 17  1  0  0  0
  6  7  1  0  0  0
M  END
> <minimizedAffinity>
-6.69602

$$$$
3KGQ_CIT_A_310


 17 16  0  0  0  0  0  0  0  0999 V2000
    6.3675    0.0499    6.0475 C   0  0  0  0  0  0  0  0  0  0  0  0
    6.2756    1.1335    7.0189 O   0  0  0  0  0  0  0  0  0  0  0  0
    6.1722    0.7620    7.9090 H   0  0  0  0  0  0  0  0  0  0  0  0
    6.5308    0.6137    4.6383 C   0  0  0  0  0  0  0  0  0  0  0  0
    7.0846    1.7227    4.4540 O   0  0  0  0  0  0  0  0  0  0  0  0
    6.1179   -0.0397    3.6534 O   0  0  0  0  0  0  0  0  0  0  0  0
    5.7028   -0.8697    3.7825 H   0  0  0  0  0  0  0  0  0  0  0  0
    5.0633   -0.7430    6.0921 C   0  0  0  0  0  0  0  0  0  0  0  0
    3.9204    0.2063    5.8172 C   0  0  0  0  0  0  0  0  0  0  0  0
    3.3518    0.2389    4.7150 O   0  0  0  0  0  0  0  0  0  0  0  0
    3.5041    0.9840    6.6853 O   0  0  0  0  0  0  0  0  0  0  0  0
    3.9021    0.9958    7.5335 H   0  0  0  0  0  0  0  0  0  0  0  0
    7.5515   -0.8487    6.3987 C   0  0  0  0  0  0  0  0  0  0  0  0
    8.6677   -0.0452    7.0262 C   0  0  0  0  0  0  0  0  0  0  0  0
    8.9122   -0.1623    8.2471 O   0  0  0  0  0  0  0  0  0  0  0  0
    9.3536    0.7450    6.3342 O   0  0  0  0  0  0  0  0  0  0  0  0
    9.1780    0.8395    5.4187 H   0  0  0  0  0  0  0  0  0  0  0  0
  9 10  2  0  0  0
  9 11  1  0  0  0
  9  8  1  0  0  0
  8  1  1  0  0  0
  1  2  1  0  0  0
  1 13  1  0  0  0
  1  4  1  0  0  0
 13 14  1  0  0  0
 14 15  2  0  0  0
 14 16  1  0  0  0
  4  5  2  0  0  0
  4  6  1  0  0  0
 11 12  1  0  0  0
  2  3  1  0  0  0
 16 17  1  0  0  0
  6  7  1  0  0  0
M  END
> <minimizedAffinity>
-6.66025

$$$$
3KGQ_CIT_A_310


 17 16  0  0  0  0  0  0  0  0999 V2000
    1.4351   -1.6680    4.4671 C   0  0  0  0  0  0  0  0  0  0  0  0
    1.1298   -0.3204    4.0011 O   0  0  0  0  0  0  0  0  0  0  0  0
    1.9099    0.0549    3.5635 H   0  0  0  0  0  0  0  0  0  0  0  0
    0.2189   -2.2776    5.1598 C   0  0  0  0  0  0  0  0  0  0  0  0
   -0.4323   -3.1989    4.6139 O   0  0  0  0  0  0  0  0  0  0  0  0
   -0.1289   -1.8629    6.2887 O   0  0  0  0  0  0  0  0  0  0  0  0
    0.3526   -1.1745    6.7037 H   0  0  0  0  0  0  0  0  0  0  0  0
    2.5652   -1.5749    5.4896 C   0  0  0  0  0  0  0  0  0  0  0  0
    3.1110   -0.1662    5.4677 C   0  0  0  0  0  0  0  0  0  0  0  0
    3.9619    0.1895    4.6379 O   0  0  0  0  0  0  0  0  0  0  0  0
    2.7241    0.6888    6.2746 O   0  0  0  0  0  0  0  0  0  0  0  0
    2.0822    0.4671    6.9202 H   0  0  0  0  0  0  0  0  0  0  0  0
    1.8574   -2.5326    3.2810 C   0  0  0  0  0  0  0  0  0  0  0  0
    2.3021   -1.6720    2.1206 C   0  0  0  0  0  0  0  0  0  0  0  0
    1.4695   -1.2947    1.2670 O   0  0  0  0  0  0  0  0  0  0  0  0
    3.5038   -1.3322    2.0004 O   0  0  0  0  0  0  0  0  0  0  0  0
    4.1349   -1.6099    2.6348 H   0  0  0  0  0  0  0  0  0  0  0  0
  9 10  2  0  0  0
  9 11  1  0  0  0
  9  8  1  0  0  0
  8  1  1  0  0  0
  1  2  1  0  0  0
  1 13  1  0  0  0
  1  4  1  0  0  0
 13 14  1  0  0  0
 14 15  2  0  0  0
 14 16  1  0  0  0
  4  5  2  0  0  0
  4  6  1  0  0  0
 11 12  1  0  0  0
  2  3  1  0  0  0
 16 17  1  0  0  0
  6  7  1  0  0  0
M  END
> <minimizedAffinity>
-6.55510

$$$$
3KGQ_CIT_A_310


 17 16  0  0  0  0  0  0  0  0999 V2000
    7.1943   -0.1338    5.9990 C   0  0  0  0  0  0  0  0  0  0  0  0
    6.2743   -1.2404    6.2339 O   0  0  0  0  0  0  0  0  0  0  0  0
    6.0766   -1.6807    5.3925 H   0  0  0  0  0  0  0  0  0  0  0  0
    7.5189    0.5737    7.3123 C   0  0  0  0  0  0  0  0  0  0  0  0
    8.1097   -0.0333    8.2361 O   0  0  0  0  0  0  0  0  0  0  0  0
    7.2025    1.7748    7.4685 O   0  0  0  0  0  0  0  0  0  0  0  0
    6.7606    2.2359    6.7828 H   0  0  0  0  0  0  0  0  0  0  0  0
    6.5071    0.8709    5.0773 C   0  0  0  0  0  0  0  0  0  0  0  0
    5.0142    0.6581    5.1712 C   0  0  0  0  0  0  0  0  0  0  0  0
    4.3743    0.9726    6.1865 O   0  0  0  0  0  0  0  0  0  0  0  0
    4.3719    0.1667    4.2344 O   0  0  0  0  0  0  0  0  0  0  0  0
    4.8117   -0.0865    3.4467 H   0  0  0  0  0  0  0  0  0  0  0  0
    8.4729   -0.6639    5.3533 C   0  0  0  0  0  0  0  0  0  0  0  0
    9.5956    0.3401    5.4822 C   0  0  0  0  0  0  0  0  0  0  0  0
    9.7076    1.2635    4.6462 O   0  0  0  0  0  0  0  0  0  0  0  0
   10.4236    0.2561    6.4210 O   0  0  0  0  0  0  0  0  0  0  0  0
   10.3480   -0.4322    7.0522 H   0  0  0  0  0  0  0  0  0  0  0  0
  9 10  2  0  0  0
  9 11  1  0  0  0
  9  8  1  0  0  0
  8  1  1  0  0  0
  1  2  1  0  0  0
  1 13  1  0  0  0
  1  4  1  0  0  0
 13 14  1  0  0  0
 14 15  2  0  0  0
 14 16  1  0  0  0
  4  5  2  0  0  0
  4  6  1  0  0  0
 11 12  1  0  0  0
  2  3  1  0  0  0
 16 17  1  0  0  0
  6  7  1  0  0  0
M  END
> <minimizedAffinity>
-6.44894

$$$$
3KGQ_CIT_A_310


 17 16  0  0  0  0  0  0  0  0999 V2000
    9.4093    0.6078    7.1316 C   0  0  0  0  0  0  0  0  0  0  0  0
    8.1714    1.3744    7.0521 O   0  0  0  0  0  0  0  0  0  0  0  0
    7.6910    1.3007    7.8915 H   0  0  0  0  0  0  0  0  0  0  0  0
   10.1817    0.7105    5.8188 C   0  0  0  0  0  0  0  0  0  0  0  0
    9.6032    1.0570    4.7624 O   0  0  0  0  0  0  0  0  0  0  0  0
   11.4074    0.4567    5.7948 O   0  0  0  0  0  0  0  0  0  0  0  0
   11.8475    0.1970    6.5802 H   0  0  0  0  0  0  0  0  0  0  0  0
    9.0488   -0.8590    7.3553 C   0  0  0  0  0  0  0  0  0  0  0  0
    7.6506   -1.0900    6.8315 C   0  0  0  0  0  0  0  0  0  0  0  0
    6.7087   -1.3671    7.5900 O   0  0  0  0  0  0  0  0  0  0  0  0
    7.3911   -1.0050    5.6244 O   0  0  0  0  0  0  0  0  0  0  0  0
    8.0700   -0.7979    5.0127 H   0  0  0  0  0  0  0  0  0  0  0  0
   10.2585    1.1318    8.2878 C   0  0  0  0  0  0  0  0  0  0  0  0
   10.6180    2.5845    8.0745 C   0  0  0  0  0  0  0  0  0  0  0  0
    9.7681    3.4768    8.2886 O   0  0  0  0  0  0  0  0  0  0  0  0
   11.7639    2.9082    7.6797 O   0  0  0  0  0  0  0  0  0  0  0  0
   12.4074    2.2469    7.5166 H   0  0  0  0  0  0  0  0  0  0  0  0
  9 10  2  0  0  0
  9 11  1  0  0  0
  9  8  1  0  0  0
  8  1  1  0  0  0
  1  2  1  0  0  0
  1 13  1  0  0  0
  1  4  1  0  0  0
 13 14  1  0  0  0
 14 15  2  0  0  0
 14 16  1  0  0  0
  4  5  2  0  0  0
  4  6  1  0  0  0
 11 12  1  0  0  0
  2  3  1  0  0  0
 16 17  1  0  0  0
  6  7  1  0  0  0
M  END
> <minimizedAffinity>
-6.39793

$$$$
3KGQ_CIT_A_310


 17 16  0  0  0  0  0  0  0  0999 V2000
    5.6481    0.4203    5.9334 C   0  0  0  0  0  0  0  0  0  0  0  0
    5.6525   -1.0140    6.1963 O   0  0  0  0  0  0  0  0  0  0  0  0
    5.2484   -1.1854    7.0613 H   0  0  0  0  0  0  0  0  0  0  0  0
    6.2806    0.7122    4.5750 C   0  0  0  0  0  0  0  0  0  0  0  0
    7.0618    1.6813    4.4289 O   0  0  0  0  0  0  0  0  0  0  0  0
    6.0269   -0.0271    3.5971 O   0  0  0  0  0  0  0  0  0  0  0  0
    5.4440   -0.7537    3.6979 H   0  0  0  0  0  0  0  0  0  0  0  0
    6.4925    1.1047    7.0058 C   0  0  0  0  0  0  0  0  0  0  0  0
    7.7719    0.3192    7.1763 C   0  0  0  0  0  0  0  0  0  0  0  0
    7.8024   -0.7452    7.8130 O   0  0  0  0  0  0  0  0  0  0  0  0
    8.8380    0.7062    6.6810 O   0  0  0  0  0  0  0  0  0  0  0  0
    8.8645    1.5046    6.1913 H   0  0  0  0  0  0  0  0  0  0  0  0
    4.2124    0.9398    5.9714 C   0  0  0  0  0  0  0  0  0  0  0  0
    3.2342   -0.1601    5.6270 C   0  0  0  0  0  0  0  0  0  0  0  0
    3.1698   -0.5953    4.4562 O   0  0  0  0  0  0  0  0  0  0  0  0
    2.4792   -0.6423    6.5052 O   0  0  0  0  0  0  0  0  0  0  0  0
    2.5201   -0.3228    7.3851 H   0  0  0  0  0  0  0  0  0  0  0  0
  9 10  2  0  0  0
  9 11  1  0  0  0
  9  8  1  0  0  0
  8  1  1  0  0  0
  1  2  1  0  0  0
  1 13  1  0  0  0
  1  4  1  0  0  0
 13 14  1  0  0  0
 14 15  2  0  0  0
 14 16  1  0  0  0
  4  5  2  0  0  0
  4  6  1  0  0  0
 11 12  1  0  0  0
  2  3  1  0  0  0
 16 17  1  0  0  0
  6  7  1  0  0  0
M  END
> <minimizedAffinity>
-6.25482

$$$$
3KGQ_CIT_A_310


 17 16  0  0  0  0  0  0  0  0999 V2000
    7.0332    0.3866    6.1935 C   0  0  0  0  0  0  0  0  0  0  0  0
    6.3917   -0.8173    6.7087 O   0  0  0  0  0  0  0  0  0  0  0  0
    5.5885   -0.5730    7.1947 H   0  0  0  0  0  0  0  0  0  0  0  0
    8.3010    0.0240    5.4243 C   0  0  0  0  0  0  0  0  0  0  0  0
    8.9389    0.9000    4.7946 O   0  0  0  0  0  0  0  0  0  0  0  0
    8.7166   -1.1569    5.4282 O   0  0  0  0  0  0  0  0  0  0  0  0
    8.2456   -1.8178    5.8966 H   0  0  0  0  0  0  0  0  0  0  0  0
    7.4330    1.2597    7.3806 C   0  0  0  0  0  0  0  0  0  0  0  0
    8.7896    0.8070    7.8680 C   0  0  0  0  0  0  0  0  0  0  0  0
    8.9598   -0.3142    8.3713 O   0  0  0  0  0  0  0  0  0  0  0  0
    9.7849    1.5370    7.7773 O   0  0  0  0  0  0  0  0  0  0  0  0
    9.7057    2.3928    7.4041 H   0  0  0  0  0  0  0  0  0  0  0  0
    6.0583    1.1332    5.2853 C   0  0  0  0  0  0  0  0  0  0  0  0
    4.6535    0.6007    5.4526 C   0  0  0  0  0  0  0  0  0  0  0  0
    4.1314   -0.0820    4.5441 O   0  0  0  0  0  0  0  0  0  0  0  0
    3.9994    0.8394    6.4962 O   0  0  0  0  0  0  0  0  0  0  0  0
    4.3820    1.3499    7.1825 H   0  0  0  0  0  0  0  0  0  0  0  0
  9 10  2  0  0  0
  9 11  1  0  0  0
  9  8  1  0  0  0
  8  1  1  0  0  0
  1  2  1  0  0  0
  1 13  1  0  0  0
  1  4  1  0  0  0
 13 14  1  0  0  0
 14 15  2  0  0  0
 14 16  1  0  0  0
  4  5  2  0  0  0
  4  6  1  0  0  0
 11 12  1  0  0  0
  2  3  1  0  0  0
 16 17  1  0  0  0
  6  7  1  0  0  0
M  END
> <minimizedAffinity>
-5.86803

$$$$
3KGQ_CIT_A_310


 17 16  0  0  0  0  0  0  0  0999 V2000
    1.8755   -1.0022    4.8403 C   0  0  0  0  0  0  0  0  0  0  0  0
    2.7858   -1.9581    4.2206 O   0  0  0  0  0  0  0  0  0  0  0  0
    3.2261   -1.5412    3.4635 H   0  0  0  0  0  0  0  0  0  0  0  0
    1.1712   -1.6392    6.0357 C   0  0  0  0  0  0  0  0  0  0  0  0
   -0.0323   -1.9806    5.9608 O   0  0  0  0  0  0  0  0  0  0  0  0
    1.8013   -1.8332    7.1000 O   0  0  0  0  0  0  0  0  0  0  0  0
    2.7013   -1.5808    7.1643 H   0  0  0  0  0  0  0  0  0  0  0  0
    0.8125   -0.6202    3.8129 C   0  0  0  0  0  0  0  0  0  0  0  0
    0.9811   -1.5081    2.6021 C   0  0  0  0  0  0  0  0  0  0  0  0
    0.5167   -2.6581    2.5683 O   0  0  0  0  0  0  0  0  0  0  0  0
    1.5847   -1.1181    1.5945 O   0  0  0  0  0  0  0  0  0  0  0  0
    1.9531   -0.2568    1.5731 H   0  0  0  0  0  0  0  0  0  0  0  0
    2.6586    0.2319    5.2833 C   0  0  0  0  0  0  0  0  0  0  0  0
    4.1458   -0.0379    5.2571 C   0  0  0  0  0  0  0  0  0  0  0  0
    4.6827   -0.6716    6.1921 O   0  0  0  0  0  0  0  0  0  0  0  0
    4.8531    0.3713    4.3052 O   0  0  0  0  0  0  0  0  0  0  0  0
    4.4599    0.8470    3.6001 H   0  0  0  0  0  0  0  0  0  0  0  0
  9 10  2  0  0  0
  9 11  1  0  0  0
  9  8  1  0  0  0
  8  1  1  0  0  0
  1  2  1  0  0  0
  1 13  1  0  0  0
  1  4  1  0  0  0
 13 14  1  0  0  0
 14 15  2  0  0  0
 14 16  1  0  0  0
  4  5  2  0  0  0
  4  6  1  0  0  0
 11 12  1  0  0  0
  2  3  1  0  0  0
 16 17  1  0  0  0
  6  7  1  0  0  0
M  END
> <minimizedAffinity>
-5.72717

$$$$
3KGQ_CIT_A_310


 17 16  0  0  0  0  0  0  0  0999 V2000
    8.4658    0.4736    6.8860 C   0  0  0  0  0  0  0  0  0  0  0  0
    9.0669    0.8095    5.6005 O   0  0  0  0  0  0  0  0  0  0  0  0
    9.3604    1.7340    5.6125 H   0  0  0  0  0  0  0  0  0  0  0  0
    7.9965   -0.9790    6.8883 C   0  0  0  0  0  0  0  0  0  0  0  0
    8.4738   -1.8061    6.0766 O   0  0  0  0  0  0  0  0  0  0  0  0
    7.1337   -1.3544    7.7142 O   0  0  0  0  0  0  0  0  0  0  0  0
    6.7719   -0.7424    8.3245 H   0  0  0  0  0  0  0  0  0  0  0  0
    7.2438    1.3663    7.0892 C   0  0  0  0  0  0  0  0  0  0  0  0
    6.2745    1.1096    5.9590 C   0  0  0  0  0  0  0  0  0  0  0  0
    5.1549    0.6149    6.1612 O   0  0  0  0  0  0  0  0  0  0  0  0
    6.5597    1.3898    4.7877 O   0  0  0  0  0  0  0  0  0  0  0  0
    7.3939    1.7655    4.5857 H   0  0  0  0  0  0  0  0  0  0  0  0
    9.4858    0.7022    7.9995 C   0  0  0  0  0  0  0  0  0  0  0  0
   10.3150    1.9356    7.7231 C   0  0  0  0  0  0  0  0  0  0  0  0
   11.2129    1.9031    6.8531 O   0  0  0  0  0  0  0  0  0  0  0  0
   10.1150    2.9967    8.3618 O   0  0  0  0  0  0  0  0  0  0  0  0
    9.4446    3.0307    9.0155 H   0  0  0  0  0  0  0  0  0  0  0  0
  9 10  2  0  0  0
  9 11  1  0  0  0
  9  8  1  0  0  0
  8  1  1  0  0  0
  1  2  1  0  0  0
  1 13  1  0  0  0
  1  4  1  0  0  0
 13 14  1  0  0  0
 14 15  2  0  0  0
 14 16  1  0  0  0
  4  5  2  0  0  0
  4  6  1  0  0  0
 11 12  1  0  0  0
  2  3  1  0  0  0
 16 17  1  0  0  0
  6  7  1  0  0  0
M  END
> <minimizedAffinity>
-5.63238

$$$$
3KGQ_CIT_A_310


 17 16  0  0  0  0  0  0  0  0999 V2000
    7.8053    0.1257    6.7564 C   0  0  0  0  0  0  0  0  0  0  0  0
    7.2509    1.4093    7.1704 O   0  0  0  0  0  0  0  0  0  0  0  0
    7.8602    2.1209    6.9188 H   0  0  0  0  0  0  0  0  0  0  0  0
    6.8607   -1.0094    7.1434 C   0  0  0  0  0  0  0  0  0  0  0  0
    5.8536   -1.2690    6.4441 O   0  0  0  0  0  0  0  0  0  0  0  0
    7.0961   -1.6965    8.1631 O   0  0  0  0  0  0  0  0  0  0  0  0
    7.8469   -1.5089    8.6914 H   0  0  0  0  0  0  0  0  0  0  0  0
    9.1254   -0.0844    7.4945 C   0  0  0  0  0  0  0  0  0  0  0  0
    9.9265    1.1938    7.4087 C   0  0  0  0  0  0  0  0  0  0  0  0
   10.8034    1.3559    6.5462 O   0  0  0  0  0  0  0  0  0  0  0  0
    9.7329    2.1309    8.1935 O   0  0  0  0  0  0  0  0  0  0  0  0
    9.0809    2.0550    8.8621 H   0  0  0  0  0  0  0  0  0  0  0  0
    8.0328    0.1334    5.2462 C   0  0  0  0  0  0  0  0  0  0  0  0
    6.8675    0.7781    4.5310 C   0  0  0  0  0  0  0  0  0  0  0  0
    6.7009    2.0159    4.5969 O   0  0  0  0  0  0  0  0  0  0  0  0
    6.0584    0.0825    3.8711 O   0  0  0  0  0  0  0  0  0  0  0  0
    6.1749   -0.8456    3.8159 H   0  0  0  0  0  0  0  0  0  0  0  0
  9 10  2  0  0  0
  9 11  1  0  0  0
  9  8  1  0  0  0
  8  1  1  0  0  0
  1  2  1  0  0  0
  1 13  1  0  0  0
  1  4  1  0  0  0
 13 14  1  0  0  0
 14 15  2  0  0  0
 14 16  1  0  0  0
  4  5  2  0  0  0
  4  6  1  0  0  0
 11 12  1  0  0  0
  2  3  1  0  0  0
 16 17  1  0  0  0
  6  7  1  0  0  0
M  END
> <minimizedAffinity>
-5.59847

$$$$
