4KFQ_KFQ_A_301


 17 19  0  0  0  0  0  0  0  0999 V2000
   25.9146   35.5786   49.6424 O   0  0  0  0  0  0  0  0  0  0  0  0
   26.2685   35.3135   48.4652 C   0  0  0  0  0  0  0  0  0  0  0  0
   26.4989   33.9357   48.0555 C   0  0  0  0  0  0  0  0  0  0  0  0
   26.3750   32.8627   48.8300 N   0  0  0  0  0  0  0  0  0  0  0  0
   26.6928   31.7859   48.0727 N   0  0  0  0  0  0  0  0  0  0  0  0
   26.9902   32.2205   46.8601 C   0  0  0  0  0  0  0  0  0  0  0  0
   27.4266   31.1274   45.5618 S   0  0  0  0  0  0  0  0  0  0  0  0
   26.8782   33.5907   46.7903 N   0  0  0  0  0  0  0  0  0  0  0  0
   27.0921   34.5625   45.7731 C   0  0  0  0  0  0  0  0  0  0  0  0
   27.4795   34.2572   44.4569 C   0  0  0  0  0  0  0  0  0  0  0  0
   27.6486   35.2818   43.5422 C   0  0  0  0  0  0  0  0  0  0  0  0
   27.4226   36.6144   43.9371 C   0  0  0  0  0  0  0  0  0  0  0  0
   27.0275   36.9260   45.2298 C   0  0  0  0  0  0  0  0  0  0  0  0
   26.8553   35.8975   46.1612 C   0  0  0  0  0  0  0  0  0  0  0  0
   26.4606   36.2114   47.4732 N   0  0  0  0  0  0  0  0  0  0  0  0
   27.6799   31.8425   44.4331 H   0  0  0  0  0  0  0  0  0  0  0  0
   26.3122   37.1610   47.6866 H   0  0  0  0  0  0  0  0  0  0  0  0
 11 12  2  0  0  0
 11 10  1  0  0  0
 12 13  1  0  0  0
 10  9  2  0  0  0
 13 14  2  0  0  0
  7  6  1  0  0  0
  9 14  1  0  0  0
  9  8  1  0  0  0
 14 15  1  0  0  0
  8  6  1  0  0  0
  8  3  1  0  0  0
  6  5  2  0  0  0
 15  2  1  0  0  0
  3  2  1  0  0  0
  3  4  2  0  0  0
  5  4  1  0  0  0
  2  1  2  0  0  0
  7 16  1  0  0  0
 15 17  1  0  0  0
M  END
> <minimizedAffinity>
-8.36248

$$$$
4KFQ_KFQ_A_301


 17 19  0  0  0  0  0  0  0  0999 V2000
   26.3677   37.3270   44.7123 O   0  0  0  0  0  0  0  0  0  0  0  0
   26.2845   36.0981   44.9656 C   0  0  0  0  0  0  0  0  0  0  0  0
   25.0117   35.5087   45.3554 C   0  0  0  0  0  0  0  0  0  0  0  0
   23.8604   36.1596   45.4863 N   0  0  0  0  0  0  0  0  0  0  0  0
   22.9324   35.2537   45.8761 N   0  0  0  0  0  0  0  0  0  0  0  0
   23.5301   34.0777   45.9630 C   0  0  0  0  0  0  0  0  0  0  0  0
   22.6602   32.6236   46.4100 S   0  0  0  0  0  0  0  0  0  0  0  0
   24.8632   34.1809   45.6359 N   0  0  0  0  0  0  0  0  0  0  0  0
   25.9545   33.2693   45.5811 C   0  0  0  0  0  0  0  0  0  0  0  0
   25.8513   31.8951   45.8576 C   0  0  0  0  0  0  0  0  0  0  0  0
   26.9768   31.0954   45.7626 C   0  0  0  0  0  0  0  0  0  0  0  0
   28.2074   31.6644   45.3823 C   0  0  0  0  0  0  0  0  0  0  0  0
   28.3178   33.0170   45.0946 C   0  0  0  0  0  0  0  0  0  0  0  0
   27.1864   33.8331   45.1892 C   0  0  0  0  0  0  0  0  0  0  0  0
   27.2972   35.2049   44.9037 N   0  0  0  0  0  0  0  0  0  0  0  0
   23.5173   31.5677   46.4204 H   0  0  0  0  0  0  0  0  0  0  0  0
   28.1830   35.5420   44.6373 H   0  0  0  0  0  0  0  0  0  0  0  0
 11 12  2  0  0  0
 11 10  1  0  0  0
 12 13  1  0  0  0
 10  9  2  0  0  0
 13 14  2  0  0  0
  7  6  1  0  0  0
  9 14  1  0  0  0
  9  8  1  0  0  0
 14 15  1  0  0  0
  8  6  1  0  0  0
  8  3  1  0  0  0
  6  5  2  0  0  0
 15  2  1  0  0  0
  3  2  1  0  0  0
  3  4  2  0  0  0
  5  4  1  0  0  0
  2  1  2  0  0  0
  7 16  1  0  0  0
 15 17  1  0  0  0
M  END
> <minimizedAffinity>
-7.52744

$$$$
4KFQ_KFQ_A_301


 17 19  0  0  0  0  0  0  0  0999 V2000
   26.3411   35.0112   49.8197 O   0  0  0  0  0  0  0  0  0  0  0  0
   26.0196   34.6004   48.6754 C   0  0  0  0  0  0  0  0  0  0  0  0
   24.8147   33.8053   48.4875 C   0  0  0  0  0  0  0  0  0  0  0  0
   23.9677   33.4383   49.4437 N   0  0  0  0  0  0  0  0  0  0  0  0
   22.9964   32.7013   48.8544 N   0  0  0  0  0  0  0  0  0  0  0  0
   23.2636   32.6444   47.5609 C   0  0  0  0  0  0  0  0  0  0  0  0
   22.2196   31.8037   46.4321 S   0  0  0  0  0  0  0  0  0  0  0  0
   24.4156   33.3387   47.2681 N   0  0  0  0  0  0  0  0  0  0  0  0
   25.1623   33.5854   46.0822 C   0  0  0  0  0  0  0  0  0  0  0  0
   24.7915   33.1297   44.8054 C   0  0  0  0  0  0  0  0  0  0  0  0
   25.5867   33.4376   43.7153 C   0  0  0  0  0  0  0  0  0  0  0  0
   26.7504   34.2095   43.8961 C   0  0  0  0  0  0  0  0  0  0  0  0
   27.1188   34.6754   45.1498 C   0  0  0  0  0  0  0  0  0  0  0  0
   26.3223   34.3682   46.2571 C   0  0  0  0  0  0  0  0  0  0  0  0
   26.6968   34.8343   47.5291 N   0  0  0  0  0  0  0  0  0  0  0  0
   22.7332   31.9061   45.1770 H   0  0  0  0  0  0  0  0  0  0  0  0
   27.5178   35.3743   47.5901 H   0  0  0  0  0  0  0  0  0  0  0  0
 11 12  2  0  0  0
 11 10  1  0  0  0
 12 13  1  0  0  0
 10  9  2  0  0  0
 13 14  2  0  0  0
  7  6  1  0  0  0
  9 14  1  0  0  0
  9  8  1  0  0  0
 14 15  1  0  0  0
  8  6  1  0  0  0
  8  3  1  0  0  0
  6  5  2  0  0  0
 15  2  1  0  0  0
  3  2  1  0  0  0
  3  4  2  0  0  0
  5  4  1  0  0  0
  2  1  2  0  0  0
  7 16  1  0  0  0
 15 17  1  0  0  0
M  END
> <minimizedAffinity>
-7.39195

$$$$
4KFQ_KFQ_A_301


 17 19  0  0  0  0  0  0  0  0999 V2000
   24.1342   33.6245   49.7092 O   0  0  0  0  0  0  0  0  0  0  0  0
   24.4828   33.4122   48.5198 C   0  0  0  0  0  0  0  0  0  0  0  0
   25.7020   32.6719   48.2283 C   0  0  0  0  0  0  0  0  0  0  0  0
   26.5406   32.1687   49.1281 N   0  0  0  0  0  0  0  0  0  0  0  0
   27.5474   31.5734   48.4456 N   0  0  0  0  0  0  0  0  0  0  0  0
   27.2975   31.7154   47.1552 C   0  0  0  0  0  0  0  0  0  0  0  0
   28.3537   31.0505   45.9250 S   0  0  0  0  0  0  0  0  0  0  0  0
   26.1245   32.4081   46.9572 N   0  0  0  0  0  0  0  0  0  0  0  0
   25.4053   32.8535   45.8130 C   0  0  0  0  0  0  0  0  0  0  0  0
   25.7975   32.6047   44.4864 C   0  0  0  0  0  0  0  0  0  0  0  0
   25.0158   33.0752   43.4459 C   0  0  0  0  0  0  0  0  0  0  0  0
   23.8347   33.7884   43.7274 C   0  0  0  0  0  0  0  0  0  0  0  0
   23.4314   34.0285   45.0329 C   0  0  0  0  0  0  0  0  0  0  0  0
   24.2155   33.5580   46.0906 C   0  0  0  0  0  0  0  0  0  0  0  0
   23.8118   33.8050   47.4141 N   0  0  0  0  0  0  0  0  0  0  0  0
   27.8574   31.3455   44.6937 H   0  0  0  0  0  0  0  0  0  0  0  0
   22.9734   34.3039   47.5463 H   0  0  0  0  0  0  0  0  0  0  0  0
 11 12  2  0  0  0
 11 10  1  0  0  0
 12 13  1  0  0  0
 10  9  2  0  0  0
 13 14  2  0  0  0
  7  6  1  0  0  0
  9 14  1  0  0  0
  9  8  1  0  0  0
 14 15  1  0  0  0
  8  6  1  0  0  0
  8  3  1  0  0  0
  6  5  2  0  0  0
 15  2  1  0  0  0
  3  2  1  0  0  0
  3  4  2  0  0  0
  5  4  1  0  0  0
  2  1  2  0  0  0
  7 16  1  0  0  0
 15 17  1  0  0  0
M  END
> <minimizedAffinity>
-7.35096

$$$$
4KFQ_KFQ_A_301


 17 19  0  0  0  0  0  0  0  0999 V2000
   22.2165   32.6768   46.2205 O   0  0  0  0  0  0  0  0  0  0  0  0
   23.4396   32.8623   45.9944 C   0  0  0  0  0  0  0  0  0  0  0  0
   23.9529   34.2050   45.7645 C   0  0  0  0  0  0  0  0  0  0  0  0
   23.2341   35.3229   45.7617 N   0  0  0  0  0  0  0  0  0  0  0  0
   24.0843   36.3427   45.4953 N   0  0  0  0  0  0  0  0  0  0  0  0
   25.2948   35.8306   45.3535 C   0  0  0  0  0  0  0  0  0  0  0  0
   26.6960   36.8322   45.0304 S   0  0  0  0  0  0  0  0  0  0  0  0
   25.2708   34.4644   45.5203 N   0  0  0  0  0  0  0  0  0  0  0  0
   26.2465   33.4305   45.4578 C   0  0  0  0  0  0  0  0  0  0  0  0
   27.6134   33.6472   45.2128 C   0  0  0  0  0  0  0  0  0  0  0  0
   28.4794   32.5680   45.1850 C   0  0  0  0  0  0  0  0  0  0  0  0
   27.9838   31.2695   45.4106 C   0  0  0  0  0  0  0  0  0  0  0  0
   26.6388   31.0455   45.6662 C   0  0  0  0  0  0  0  0  0  0  0  0
   25.7562   32.1296   45.6950 C   0  0  0  0  0  0  0  0  0  0  0  0
   24.3921   31.9044   45.9481 N   0  0  0  0  0  0  0  0  0  0  0  0
   27.8019   36.0467   44.9326 H   0  0  0  0  0  0  0  0  0  0  0  0
   24.1078   30.9748   46.1041 H   0  0  0  0  0  0  0  0  0  0  0  0
 11 12  2  0  0  0
 11 10  1  0  0  0
 12 13  1  0  0  0
 10  9  2  0  0  0
 13 14  2  0  0  0
  7  6  1  0  0  0
  9 14  1  0  0  0
  9  8  1  0  0  0
 14 15  1  0  0  0
  8  6  1  0  0  0
  8  3  1  0  0  0
  6  5  2  0  0  0
 15  2  1  0  0  0
  3  2  1  0  0  0
  3  4  2  0  0  0
  5  4  1  0  0  0
  2  1  2  0  0  0
  7 16  1  0  0  0
 15 17  1  0  0  0
M  END
> <minimizedAffinity>
-7.19810

$$$$
4KFQ_KFQ_A_301


 17 19  0  0  0  0  0  0  0  0999 V2000
   25.1115   33.7694   49.3905 O   0  0  0  0  0  0  0  0  0  0  0  0
   25.8712   33.3451   48.4826 C   0  0  0  0  0  0  0  0  0  0  0  0
   26.0198   34.0852   47.2378 C   0  0  0  0  0  0  0  0  0  0  0  0
   25.4049   35.2228   46.9309 N   0  0  0  0  0  0  0  0  0  0  0  0
   25.8038   35.5673   45.6834 N   0  0  0  0  0  0  0  0  0  0  0  0
   26.6545   34.6463   45.2644 C   0  0  0  0  0  0  0  0  0  0  0  0
   27.4318   34.7431   43.6968 S   0  0  0  0  0  0  0  0  0  0  0  0
   26.8342   33.6741   46.2222 N   0  0  0  0  0  0  0  0  0  0  0  0
   27.5941   32.4735   46.3004 C   0  0  0  0  0  0  0  0  0  0  0  0
   28.4476   32.0105   45.2843 C   0  0  0  0  0  0  0  0  0  0  0  0
   29.1505   30.8329   45.4699 C   0  0  0  0  0  0  0  0  0  0  0  0
   29.0097   30.1185   46.6751 C   0  0  0  0  0  0  0  0  0  0  0  0
   28.1801   30.5730   47.6898 C   0  0  0  0  0  0  0  0  0  0  0  0
   27.4650   31.7611   47.5107 C   0  0  0  0  0  0  0  0  0  0  0  0
   26.6194   32.2205   48.5352 N   0  0  0  0  0  0  0  0  0  0  0  0
   28.2504   33.6700   43.5296 H   0  0  0  0  0  0  0  0  0  0  0  0
   26.5679   31.6802   49.3565 H   0  0  0  0  0  0  0  0  0  0  0  0
 11 12  2  0  0  0
 11 10  1  0  0  0
 12 13  1  0  0  0
 10  9  2  0  0  0
 13 14  2  0  0  0
  7  6  1  0  0  0
  9 14  1  0  0  0
  9  8  1  0  0  0
 14 15  1  0  0  0
  8  6  1  0  0  0
  8  3  1  0  0  0
  6  5  2  0  0  0
 15  2  1  0  0  0
  3  2  1  0  0  0
  3  4  2  0  0  0
  5  4  1  0  0  0
  2  1  2  0  0  0
  7 16  1  0  0  0
 15 17  1  0  0  0
M  END
> <minimizedAffinity>
-6.82664

$$$$
4KFQ_KFQ_A_301


 17 19  0  0  0  0  0  0  0  0999 V2000
   22.4894   34.8987   46.3040 O   0  0  0  0  0  0  0  0  0  0  0  0
   23.6964   34.9247   45.9521 C   0  0  0  0  0  0  0  0  0  0  0  0
   24.4797   33.6983   45.9086 C   0  0  0  0  0  0  0  0  0  0  0  0
   24.0409   32.4833   46.2207 N   0  0  0  0  0  0  0  0  0  0  0  0
   25.0811   31.6309   46.0621 N   0  0  0  0  0  0  0  0  0  0  0  0
   26.1201   32.3366   45.6495 C   0  0  0  0  0  0  0  0  0  0  0  0
   27.6665   31.5932   45.2934 S   0  0  0  0  0  0  0  0  0  0  0  0
   25.7908   33.6677   45.5291 N   0  0  0  0  0  0  0  0  0  0  0  0
   26.4988   34.8450   45.1583 C   0  0  0  0  0  0  0  0  0  0  0  0
   27.8460   34.8643   44.7580 C   0  0  0  0  0  0  0  0  0  0  0  0
   28.4344   36.0666   44.4064 C   0  0  0  0  0  0  0  0  0  0  0  0
   27.6762   37.2525   44.4451 C   0  0  0  0  0  0  0  0  0  0  0  0
   26.3423   37.2431   44.8262 C   0  0  0  0  0  0  0  0  0  0  0  0
   25.7397   36.0333   45.1844 C   0  0  0  0  0  0  0  0  0  0  0  0
   24.3900   36.0224   45.5763 N   0  0  0  0  0  0  0  0  0  0  0  0
   28.5472   32.5487   44.8923 H   0  0  0  0  0  0  0  0  0  0  0  0
   23.9115   36.8828   45.5772 H   0  0  0  0  0  0  0  0  0  0  0  0
 11 12  2  0  0  0
 11 10  1  0  0  0
 12 13  1  0  0  0
 10  9  2  0  0  0
 13 14  2  0  0  0
  7  6  1  0  0  0
  9 14  1  0  0  0
  9  8  1  0  0  0
 14 15  1  0  0  0
  8  6  1  0  0  0
  8  3  1  0  0  0
  6  5  2  0  0  0
 15  2  1  0  0  0
  3  2  1  0  0  0
  3  4  2  0  0  0
  5  4  1  0  0  0
  2  1  2  0  0  0
  7 16  1  0  0  0
 15 17  1  0  0  0
M  END
> <minimizedAffinity>
-6.56371

$$$$
4KFQ_KFQ_A_301


 17 19  0  0  0  0  0  0  0  0999 V2000
   24.0134   33.0161   47.7781 O   0  0  0  0  0  0  0  0  0  0  0  0
   24.9263   33.5010   47.0619 C   0  0  0  0  0  0  0  0  0  0  0  0
   26.0560   32.6805   46.6495 C   0  0  0  0  0  0  0  0  0  0  0  0
   26.2466   31.4037   46.9653 N   0  0  0  0  0  0  0  0  0  0  0  0
   27.4163   31.0234   46.3987 N   0  0  0  0  0  0  0  0  0  0  0  0
   27.9042   32.0643   45.7458 C   0  0  0  0  0  0  0  0  0  0  0  0
   29.4025   31.9754   44.8415 S   0  0  0  0  0  0  0  0  0  0  0  0
   27.0710   33.1532   45.8684 N   0  0  0  0  0  0  0  0  0  0  0  0
   27.1072   34.4988   45.4073 C   0  0  0  0  0  0  0  0  0  0  0  0
   28.1273   35.0307   44.5999 C   0  0  0  0  0  0  0  0  0  0  0  0
   28.0573   36.3530   44.1976 C   0  0  0  0  0  0  0  0  0  0  0  0
   26.9631   37.1460   44.5935 C   0  0  0  0  0  0  0  0  0  0  0  0
   25.9442   36.6278   45.3795 C   0  0  0  0  0  0  0  0  0  0  0  0
   26.0071   35.2932   45.7918 C   0  0  0  0  0  0  0  0  0  0  0  0
   24.9788   34.7676   46.5929 N   0  0  0  0  0  0  0  0  0  0  0  0
   29.6622   33.1841   44.2746 H   0  0  0  0  0  0  0  0  0  0  0  0
   24.2376   35.3701   46.8316 H   0  0  0  0  0  0  0  0  0  0  0  0
 11 12  2  0  0  0
 11 10  1  0  0  0
 12 13  1  0  0  0
 10  9  2  0  0  0
 13 14  2  0  0  0
  7  6  1  0  0  0
  9 14  1  0  0  0
  9  8  1  0  0  0
 14 15  1  0  0  0
  8  6  1  0  0  0
  8  3  1  0  0  0
  6  5  2  0  0  0
 15  2  1  0  0  0
  3  2  1  0  0  0
  3  4  2  0  0  0
  5  4  1  0  0  0
  2  1  2  0  0  0
  7 16  1  0  0  0
 15 17  1  0  0  0
M  END
> <minimizedAffinity>
-6.41599

$$$$
4KFQ_KFQ_A_301


 17 19  0  0  0  0  0  0  0  0999 V2000
   29.3683   29.1160   51.0258 O   0  0  0  0  0  0  0  0  0  0  0  0
   29.1765   29.5016   49.8443 C   0  0  0  0  0  0  0  0  0  0  0  0
   29.8814   28.8707   48.7378 C   0  0  0  0  0  0  0  0  0  0  0  0
   30.7594   27.8781   48.8393 N   0  0  0  0  0  0  0  0  0  0  0  0
   31.1898   27.5971   47.5865 N   0  0  0  0  0  0  0  0  0  0  0  0
   30.5622   28.4097   46.7538 C   0  0  0  0  0  0  0  0  0  0  0  0
   30.8172   28.3437   45.0213 S   0  0  0  0  0  0  0  0  0  0  0  0
   29.7073   29.2451   47.4365 N   0  0  0  0  0  0  0  0  0  0  0  0
   28.8266   30.2988   47.0637 C   0  0  0  0  0  0  0  0  0  0  0  0
   28.6115   30.7182   45.7396 C   0  0  0  0  0  0  0  0  0  0  0  0
   27.7219   31.7479   45.4877 C   0  0  0  0  0  0  0  0  0  0  0  0
   27.0374   32.3562   46.5575 C   0  0  0  0  0  0  0  0  0  0  0  0
   27.2323   31.9416   47.8669 C   0  0  0  0  0  0  0  0  0  0  0  0
   28.1302   30.9028   48.1310 C   0  0  0  0  0  0  0  0  0  0  0  0
   28.3336   30.4849   49.4575 N   0  0  0  0  0  0  0  0  0  0  0  0
   30.0483   29.2866   44.4137 H   0  0  0  0  0  0  0  0  0  0  0  0
   27.8212   30.9451   50.1610 H   0  0  0  0  0  0  0  0  0  0  0  0
 11 12  2  0  0  0
 11 10  1  0  0  0
 12 13  1  0  0  0
 10  9  2  0  0  0
 13 14  2  0  0  0
  7  6  1  0  0  0
  9 14  1  0  0  0
  9  8  1  0  0  0
 14 15  1  0  0  0
  8  6  1  0  0  0
  8  3  1  0  0  0
  6  5  2  0  0  0
 15  2  1  0  0  0
  3  2  1  0  0  0
  3  4  2  0  0  0
  5  4  1  0  0  0
  2  1  2  0  0  0
  7 16  1  0  0  0
 15 17  1  0  0  0
M  END
> <minimizedAffinity>
-6.37524

$$$$
4KFQ_KFQ_A_301


 17 19  0  0  0  0  0  0  0  0999 V2000
   26.5769   30.7826   45.3990 O   0  0  0  0  0  0  0  0  0  0  0  0
   26.6751   32.0271   45.5508 C   0  0  0  0  0  0  0  0  0  0  0  0
   26.4824   32.6288   46.8623 C   0  0  0  0  0  0  0  0  0  0  0  0
   26.1931   31.9756   47.9831 N   0  0  0  0  0  0  0  0  0  0  0  0
   26.0830   32.9004   48.9662 N   0  0  0  0  0  0  0  0  0  0  0  0
   26.3165   34.0864   48.4308 C   0  0  0  0  0  0  0  0  0  0  0  0
   26.3024   35.5562   49.3850 S   0  0  0  0  0  0  0  0  0  0  0  0
   26.5828   33.9719   47.0851 N   0  0  0  0  0  0  0  0  0  0  0  0
   26.8720   34.8928   46.0396 C   0  0  0  0  0  0  0  0  0  0  0  0
   26.9884   36.2819   46.2192 C   0  0  0  0  0  0  0  0  0  0  0  0
   27.2848   37.0863   45.1328 C   0  0  0  0  0  0  0  0  0  0  0  0
   27.4747   36.5044   43.8647 C   0  0  0  0  0  0  0  0  0  0  0  0
   27.3749   35.1333   43.6784 C   0  0  0  0  0  0  0  0  0  0  0  0
   27.0745   34.3128   44.7701 C   0  0  0  0  0  0  0  0  0  0  0  0
   26.9672   32.9240   44.5826 N   0  0  0  0  0  0  0  0  0  0  0  0
   26.5723   36.6203   48.5823 H   0  0  0  0  0  0  0  0  0  0  0  0
   27.1168   32.5767   43.6736 H   0  0  0  0  0  0  0  0  0  0  0  0
 11 12  2  0  0  0
 11 10  1  0  0  0
 12 13  1  0  0  0
 10  9  2  0  0  0
 13 14  2  0  0  0
  7  6  1  0  0  0
  9 14  1  0  0  0
  9  8  1  0  0  0
 14 15  1  0  0  0
  8  6  1  0  0  0
  8  3  1  0  0  0
  6  5  2  0  0  0
 15  2  1  0  0  0
  3  2  1  0  0  0
  3  4  2  0  0  0
  5  4  1  0  0  0
  2  1  2  0  0  0
  7 16  1  0  0  0
 15 17  1  0  0  0
M  END
> <minimizedAffinity>
-6.35928

$$$$
