6GJN_F0Q_A_201


 37 40  0  0  0  0  0  0  0  0999 V2000
    0.6302   16.8157   -5.7619 O   0  0  0  0  0  0  0  0  0  0  0  0
   -0.1756   17.6121   -5.3863 C   0  0  0  0  0  0  0  0  0  0  0  0
   -0.2305   18.7678   -5.9975 N   0  0  0  0  0  0  0  0  0  0  0  0
   -0.9351   17.3520   -4.4274 N   0  0  0  0  0  0  0  0  0  0  0  0
   -1.5571   18.0518   -4.1228 H   0  0  0  0  0  0  0  0  0  0  0  0
   -1.0673   19.8519   -5.6112 C   0  0  0  0  0  0  0  0  0  0  0  0
   -2.2532   20.1761   -6.5066 C   0  0  0  0  0  0  0  0  0  0  0  0
   -2.9708   19.1567   -7.0814 C   0  0  0  0  0  0  0  0  0  0  0  0
   -4.0662   19.4276   -7.8522 C   0  0  0  0  0  0  0  0  0  0  0  0
   -4.4969   20.7059   -8.0490 C   0  0  0  0  0  0  0  0  0  0  0  0
   -5.5767   20.9275   -8.7953 N   0  0  0  0  0  0  0  0  0  0  0  0
   -3.7928   21.7508   -7.4965 C   0  0  0  0  0  0  0  0  0  0  0  0
   -2.6938   21.4692   -6.7089 C   0  0  0  0  0  0  0  0  0  0  0  0
   -5.8934   21.8480   -8.9417 H   0  0  0  0  0  0  0  0  0  0  0  0
   -6.0585   20.1708   -9.2008 H   0  0  0  0  0  0  0  0  0  0  0  0
    0.5629   19.0924   -7.1748 C   0  0  0  0  0  0  0  0  0  0  0  0
    1.9867   19.4474   -6.7996 C   0  0  0  0  0  0  0  0  0  0  0  0
    3.0261   19.3786   -7.6393 N   0  0  0  0  0  0  0  0  0  0  0  0
    4.2042   19.7805   -7.0339 N   0  0  0  0  0  0  0  0  0  0  0  0
    3.7828   20.0998   -5.7801 N   0  0  0  0  0  0  0  0  0  0  0  0
    4.6937   20.5861   -4.7261 C   0  0  0  0  0  0  0  0  0  0  0  0
    2.4247   19.8832   -5.6030 N   0  0  0  0  0  0  0  0  0  0  0  0
   -0.9490   16.0631   -3.7336 C   0  0  0  0  0  0  0  0  0  0  0  0
   -0.5737   16.3461   -2.2927 C   0  0  0  0  0  0  0  0  0  0  0  0
   -0.8606   17.4122   -1.8318 O   0  0  0  0  0  0  0  0  0  0  0  0
    0.0895   15.4335   -1.5422 N   0  0  0  0  0  0  0  0  0  0  0  0
    0.6497   15.7809   -0.2522 C   0  0  0  0  0  0  0  0  0  0  0  0
    1.2513   14.4970    0.2849 C   0  0  0  0  0  0  0  0  0  0  0  0
    0.6069   13.3767   -0.4846 C   0  0  0  0  0  0  0  0  0  0  0  0
    0.2968   13.9992   -1.8173 C   0  0  0  0  0  0  0  0  0  0  0  0
    1.4375   13.7625   -2.7266 C   0  0  0  0  0  0  0  0  0  0  0  0
    1.3063   12.9249   -3.7961 C   0  0  0  0  0  0  0  0  0  0  0  0
   -0.2893   12.0122   -4.1338 Br  0  0  0  0  0  0  0  0  0  0  0  0
    2.6505   14.3620   -2.5041 C   0  0  0  0  0  0  0  0  0  0  0  0
    3.6890   14.1502   -3.3873 C   0  0  0  0  0  0  0  0  0  0  0  0
    3.5308   13.3150   -4.4695 C   0  0  0  0  0  0  0  0  0  0  0  0
    2.3260   12.7232   -4.6813 C   0  0  0  0  0  0  0  0  0  0  0  0
 11 10  1  0  0  0
 18 19  2  0  0  0
 18 17  1  0  0  0
 19 20  1  0  0  0
 10 12  2  0  0  0
 10  9  1  0  0  0
 12 13  1  0  0  0
  9  8  2  0  0  0
 17 16  1  0  0  0
 17 22  2  0  0  0
 16  3  1  0  0  0
 20 22  1  0  0  0
 20 21  1  0  0  0
 13  7  2  0  0  0
  8  7  1  0  0  0
  7  6  1  0  0  0
  3  6  1  0  0  0
  3  2  1  0  0  0
  1  2  2  0  0  0
  2  4  1  0  0  0
 29 28  1  0  0  0
 29 30  1  0  0  0
 28 27  1  0  0  0
 27 26  1  0  0  0
 25 24  2  0  0  0
 26 24  1  0  0  0
 26 30  1  0  0  0
  4 23  1  0  0  0
 24 23  1  0  0  0
 30 31  1  0  0  0
 33 32  1  0  0  0
 31 32  2  0  0  0
 31 34  1  0  0  0
 32 37  1  0  0  0
 34 35  2  0  0  0
 37 36  2  0  0  0
 35 36  1  0  0  0
 11 14  1  0  0  0
 11 15  1  0  0  0
  4  5  1  0  0  0
M  END
> <minimizedAffinity>
-8.47427

$$$$
6GJN_F0Q_A_201


 37 40  0  0  0  0  0  0  0  0999 V2000
    1.2032   18.7281   -3.6746 O   0  0  0  0  0  0  0  0  0  0  0  0
    0.6239   18.4274   -4.6739 C   0  0  0  0  0  0  0  0  0  0  0  0
    0.6395   19.2725   -5.6728 N   0  0  0  0  0  0  0  0  0  0  0  0
    0.0094   17.3413   -4.7565 N   0  0  0  0  0  0  0  0  0  0  0  0
   -0.4895   17.1501   -5.5834 H   0  0  0  0  0  0  0  0  0  0  0  0
   -0.0764   19.1035   -6.8909 C   0  0  0  0  0  0  0  0  0  0  0  0
   -1.4929   19.6536   -6.9540 C   0  0  0  0  0  0  0  0  0  0  0  0
   -2.5205   18.8420   -7.3660 C   0  0  0  0  0  0  0  0  0  0  0  0
   -3.8059   19.3054   -7.3861 C   0  0  0  0  0  0  0  0  0  0  0  0
   -4.1117   20.5678   -6.9723 C   0  0  0  0  0  0  0  0  0  0  0  0
   -5.3781   20.9774   -6.9939 N   0  0  0  0  0  0  0  0  0  0  0  0
   -3.1031   21.4103   -6.5648 C   0  0  0  0  0  0  0  0  0  0  0  0
   -1.8080   20.9314   -6.5357 C   0  0  0  0  0  0  0  0  0  0  0  0
   -5.6062   21.8877   -6.6966 H   0  0  0  0  0  0  0  0  0  0  0  0
   -6.0866   20.3698   -7.3073 H   0  0  0  0  0  0  0  0  0  0  0  0
    1.4113   20.5075   -5.6683 C   0  0  0  0  0  0  0  0  0  0  0  0
    2.8219   20.2780   -6.1702 C   0  0  0  0  0  0  0  0  0  0  0  0
    3.8745   20.0450   -5.3777 N   0  0  0  0  0  0  0  0  0  0  0  0
    5.0350   19.8524   -6.1071 N   0  0  0  0  0  0  0  0  0  0  0  0
    4.5891   19.9796   -7.3864 N   0  0  0  0  0  0  0  0  0  0  0  0
    5.4743   19.8623   -8.5610 C   0  0  0  0  0  0  0  0  0  0  0  0
    3.2333   20.2634   -7.4524 N   0  0  0  0  0  0  0  0  0  0  0  0
   -0.0079   16.3391   -3.6897 C   0  0  0  0  0  0  0  0  0  0  0  0
   -0.7135   15.1222   -4.2540 C   0  0  0  0  0  0  0  0  0  0  0  0
   -1.8301   15.2543   -4.6630 O   0  0  0  0  0  0  0  0  0  0  0  0
   -0.1158   13.9066   -4.2797 N   0  0  0  0  0  0  0  0  0  0  0  0
   -0.8604   12.7061   -4.6005 C   0  0  0  0  0  0  0  0  0  0  0  0
    0.1573   11.5824   -4.5780 C   0  0  0  0  0  0  0  0  0  0  0  0
    1.5061   12.2341   -4.7145 C   0  0  0  0  0  0  0  0  0  0  0  0
    1.3097   13.5833   -4.0814 C   0  0  0  0  0  0  0  0  0  0  0  0
    1.6694   13.4913   -2.6510 C   0  0  0  0  0  0  0  0  0  0  0  0
    2.9697   13.6173   -2.2560 C   0  0  0  0  0  0  0  0  0  0  0  0
    4.3483   13.8648   -3.4934 Br  0  0  0  0  0  0  0  0  0  0  0  0
    0.7108   13.2594   -1.6983 C   0  0  0  0  0  0  0  0  0  0  0  0
    1.0692   13.2114   -0.3668 C   0  0  0  0  0  0  0  0  0  0  0  0
    2.3840   13.3580    0.0120 C   0  0  0  0  0  0  0  0  0  0  0  0
    3.3278   13.5852   -0.9389 C   0  0  0  0  0  0  0  0  0  0  0  0
 11 10  1  0  0  0
 18 19  2  0  0  0
 18 17  1  0  0  0
 19 20  1  0  0  0
 10 12  2  0  0  0
 10  9  1  0  0  0
 12 13  1  0  0  0
  9  8  2  0  0  0
 17 16  1  0  0  0
 17 22  2  0  0  0
 16  3  1  0  0  0
 20 22  1  0  0  0
 20 21  1  0  0  0
 13  7  2  0  0  0
  8  7  1  0  0  0
  7  6  1  0  0  0
  3  6  1  0  0  0
  3  2  1  0  0  0
  1  2  2  0  0  0
  2  4  1  0  0  0
 29 28  1  0  0  0
 29 30  1  0  0  0
 28 27  1  0  0  0
 27 26  1  0  0  0
 25 24  2  0  0  0
 26 24  1  0  0  0
 26 30  1  0  0  0
  4 23  1  0  0  0
 24 23  1  0  0  0
 30 31  1  0  0  0
 33 32  1  0  0  0
 31 32  2  0  0  0
 31 34  1  0  0  0
 32 37  1  0  0  0
 34 35  2  0  0  0
 37 36  2  0  0  0
 35 36  1  0  0  0
 11 14  1  0  0  0
 11 15  1  0  0  0
  4  5  1  0  0  0
M  END
> <minimizedAffinity>
-8.33311

$$$$
6GJN_F0Q_A_201


 37 40  0  0  0  0  0  0  0  0999 V2000
    0.1578   19.1036   -3.0705 O   0  0  0  0  0  0  0  0  0  0  0  0
   -0.0104   18.8999   -4.2345 C   0  0  0  0  0  0  0  0  0  0  0  0
   -0.2935   19.9199   -5.0036 N   0  0  0  0  0  0  0  0  0  0  0  0
    0.0689   17.7422   -4.7007 N   0  0  0  0  0  0  0  0  0  0  0  0
   -0.1173   17.6119   -5.6586 H   0  0  0  0  0  0  0  0  0  0  0  0
   -0.6119   19.8300   -6.3875 C   0  0  0  0  0  0  0  0  0  0  0  0
   -2.0738   19.9743   -6.7817 C   0  0  0  0  0  0  0  0  0  0  0  0
   -2.6960   21.1913   -6.6545 C   0  0  0  0  0  0  0  0  0  0  0  0
   -3.9956   21.3508   -7.0457 C   0  0  0  0  0  0  0  0  0  0  0  0
   -4.7015   20.3239   -7.5985 C   0  0  0  0  0  0  0  0  0  0  0  0
   -5.9612   20.5231   -7.9796 N   0  0  0  0  0  0  0  0  0  0  0  0
   -4.1105   19.0882   -7.7287 C   0  0  0  0  0  0  0  0  0  0  0  0
   -2.7931   18.9374   -7.3424 C   0  0  0  0  0  0  0  0  0  0  0  0
   -6.4769   19.7861   -8.3796 H   0  0  0  0  0  0  0  0  0  0  0  0
   -6.3772   21.4076   -7.8615 H   0  0  0  0  0  0  0  0  0  0  0  0
   -0.3091   21.2990   -4.5357 C   0  0  0  0  0  0  0  0  0  0  0  0
    0.6274   22.1680   -5.3492 C   0  0  0  0  0  0  0  0  0  0  0  0
    0.2515   23.2728   -6.0037 N   0  0  0  0  0  0  0  0  0  0  0  0
    1.3177   23.8784   -6.6459 N   0  0  0  0  0  0  0  0  0  0  0  0
    2.3505   23.0564   -6.3151 N   0  0  0  0  0  0  0  0  0  0  0  0
    3.7338   23.2787   -6.7776 C   0  0  0  0  0  0  0  0  0  0  0  0
    1.9483   21.9830   -5.5347 N   0  0  0  0  0  0  0  0  0  0  0  0
    0.4238   16.5702   -3.8985 C   0  0  0  0  0  0  0  0  0  0  0  0
   -0.4440   15.4308   -4.3942 C   0  0  0  0  0  0  0  0  0  0  0  0
   -1.5543   15.6831   -4.7616 O   0  0  0  0  0  0  0  0  0  0  0  0
    0.0052   14.1525   -4.4050 N   0  0  0  0  0  0  0  0  0  0  0  0
   -0.8886   13.0406   -4.6565 C   0  0  0  0  0  0  0  0  0  0  0  0
   -0.0098   11.8051   -4.6391 C   0  0  0  0  0  0  0  0  0  0  0  0
    1.3988   12.2882   -4.8512 C   0  0  0  0  0  0  0  0  0  0  0  0
    1.3903   13.6680   -4.2544 C   0  0  0  0  0  0  0  0  0  0  0  0
    1.7994   13.5728   -2.8375 C   0  0  0  0  0  0  0  0  0  0  0  0
    3.1209   13.5929   -2.4971 C   0  0  0  0  0  0  0  0  0  0  0  0
    4.4635   13.6952   -3.7932 Br  0  0  0  0  0  0  0  0  0  0  0  0
    0.8645   13.4438   -1.8427 C   0  0  0  0  0  0  0  0  0  0  0  0
    1.2721   13.3907   -0.5257 C   0  0  0  0  0  0  0  0  0  0  0  0
    2.6091   13.4297   -0.2024 C   0  0  0  0  0  0  0  0  0  0  0  0
    3.5290   13.5554   -1.1948 C   0  0  0  0  0  0  0  0  0  0  0  0
 11 10  1  0  0  0
 18 19  2  0  0  0
 18 17  1  0  0  0
 19 20  1  0  0  0
 10 12  2  0  0  0
 10  9  1  0  0  0
 12 13  1  0  0  0
  9  8  2  0  0  0
 17 16  1  0  0  0
 17 22  2  0  0  0
 16  3  1  0  0  0
 20 22  1  0  0  0
 20 21  1  0  0  0
 13  7  2  0  0  0
  8  7  1  0  0  0
  7  6  1  0  0  0
  3  6  1  0  0  0
  3  2  1  0  0  0
  1  2  2  0  0  0
  2  4  1  0  0  0
 29 28  1  0  0  0
 29 30  1  0  0  0
 28 27  1  0  0  0
 27 26  1  0  0  0
 25 24  2  0  0  0
 26 24  1  0  0  0
 26 30  1  0  0  0
  4 23  1  0  0  0
 24 23  1  0  0  0
 30 31  1  0  0  0
 33 32  1  0  0  0
 31 32  2  0  0  0
 31 34  1  0  0  0
 32 37  1  0  0  0
 34 35  2  0  0  0
 37 36  2  0  0  0
 35 36  1  0  0  0
 11 14  1  0  0  0
 11 15  1  0  0  0
  4  5  1  0  0  0
M  END
> <minimizedAffinity>
-8.04089

$$$$
6GJN_F0Q_A_201


 37 40  0  0  0  0  0  0  0  0999 V2000
   -0.6716   16.5077   -5.7290 O   0  0  0  0  0  0  0  0  0  0  0  0
   -0.5795   17.4127   -4.9563 C   0  0  0  0  0  0  0  0  0  0  0  0
   -0.4803   18.6256   -5.4373 N   0  0  0  0  0  0  0  0  0  0  0  0
   -0.5650   17.2040   -3.7233 N   0  0  0  0  0  0  0  0  0  0  0  0
   -0.4462   17.9742   -3.1218 H   0  0  0  0  0  0  0  0  0  0  0  0
   -0.2710   19.7952   -4.6544 C   0  0  0  0  0  0  0  0  0  0  0  0
    0.9900   20.6021   -4.9224 C   0  0  0  0  0  0  0  0  0  0  0  0
    2.2208   20.0230   -4.7374 C   0  0  0  0  0  0  0  0  0  0  0  0
    3.3640   20.7179   -5.0160 C   0  0  0  0  0  0  0  0  0  0  0  0
    3.3201   21.9871   -5.5115 C   0  0  0  0  0  0  0  0  0  0  0  0
    4.4560   22.6256   -5.7834 N   0  0  0  0  0  0  0  0  0  0  0  0
    2.1025   22.6003   -5.6970 C   0  0  0  0  0  0  0  0  0  0  0  0
    0.9510   21.8880   -5.4246 C   0  0  0  0  0  0  0  0  0  0  0  0
    4.4318   23.5424   -6.1415 H   0  0  0  0  0  0  0  0  0  0  0  0
    5.3203   22.1811   -5.6265 H   0  0  0  0  0  0  0  0  0  0  0  0
   -0.5830   18.9380   -6.8560 C   0  0  0  0  0  0  0  0  0  0  0  0
   -1.9458   19.5031   -7.1990 C   0  0  0  0  0  0  0  0  0  0  0  0
   -2.1833   20.7955   -7.4512 N   0  0  0  0  0  0  0  0  0  0  0  0
   -3.5142   21.0243   -7.7549 N   0  0  0  0  0  0  0  0  0  0  0  0
   -4.0420   19.7728   -7.6728 N   0  0  0  0  0  0  0  0  0  0  0  0
   -5.4698   19.4860   -7.9097 C   0  0  0  0  0  0  0  0  0  0  0  0
   -3.1012   18.8205   -7.3108 N   0  0  0  0  0  0  0  0  0  0  0  0
   -0.7151   15.8757   -3.1265 C   0  0  0  0  0  0  0  0  0  0  0  0
   -0.2373   15.9918   -1.6928 C   0  0  0  0  0  0  0  0  0  0  0  0
   -0.5063   16.9868   -1.0852 O   0  0  0  0  0  0  0  0  0  0  0  0
    0.4952   15.0124   -1.1098 N   0  0  0  0  0  0  0  0  0  0  0  0
    1.1449   15.2154    0.1689 C   0  0  0  0  0  0  0  0  0  0  0  0
    1.8061   13.8916    0.4997 C   0  0  0  0  0  0  0  0  0  0  0  0
    1.1242   12.8566   -0.3524 C   0  0  0  0  0  0  0  0  0  0  0  0
    0.7048   13.6276   -1.5729 C   0  0  0  0  0  0  0  0  0  0  0  0
    1.7777   13.5317   -2.5846 C   0  0  0  0  0  0  0  0  0  0  0  0
    1.5552   12.8914   -3.7691 C   0  0  0  0  0  0  0  0  0  0  0  0
   -0.0830   12.0752   -4.1472 Br  0  0  0  0  0  0  0  0  0  0  0  0
    3.0184   14.0651   -2.3468 C   0  0  0  0  0  0  0  0  0  0  0  0
    3.9917   13.9908   -3.3218 C   0  0  0  0  0  0  0  0  0  0  0  0
    3.7416   13.3555   -4.5165 C   0  0  0  0  0  0  0  0  0  0  0  0
    2.5100   12.8277   -4.7430 C   0  0  0  0  0  0  0  0  0  0  0  0
 11 10  1  0  0  0
 18 19  2  0  0  0
 18 17  1  0  0  0
 19 20  1  0  0  0
 10 12  2  0  0  0
 10  9  1  0  0  0
 12 13  1  0  0  0
  9  8  2  0  0  0
 17 16  1  0  0  0
 17 22  2  0  0  0
 16  3  1  0  0  0
 20 22  1  0  0  0
 20 21  1  0  0  0
 13  7  2  0  0  0
  8  7  1  0  0  0
  7  6  1  0  0  0
  3  6  1  0  0  0
  3  2  1  0  0  0
  1  2  2  0  0  0
  2  4  1  0  0  0
 29 28  1  0  0  0
 29 30  1  0  0  0
 28 27  1  0  0  0
 27 26  1  0  0  0
 25 24  2  0  0  0
 26 24  1  0  0  0
 26 30  1  0  0  0
  4 23  1  0  0  0
 24 23  1  0  0  0
 30 31  1  0  0  0
 33 32  1  0  0  0
 31 32  2  0  0  0
 31 34  1  0  0  0
 32 37  1  0  0  0
 34 35  2  0  0  0
 37 36  2  0  0  0
 35 36  1  0  0  0
 11 14  1  0  0  0
 11 15  1  0  0  0
  4  5  1  0  0  0
M  END
> <minimizedAffinity>
-7.92003

$$$$
6GJN_F0Q_A_201


 37 40  0  0  0  0  0  0  0  0999 V2000
    0.5643   17.4119   -5.8767 O   0  0  0  0  0  0  0  0  0  0  0  0
    0.0605   18.0644   -5.0135 C   0  0  0  0  0  0  0  0  0  0  0  0
   -0.4712   19.2142   -5.3413 N   0  0  0  0  0  0  0  0  0  0  0  0
    0.0544   17.6646   -3.8285 N   0  0  0  0  0  0  0  0  0  0  0  0
   -0.3348   18.2519   -3.1408 H   0  0  0  0  0  0  0  0  0  0  0  0
   -1.0241   20.1459   -4.4188 C   0  0  0  0  0  0  0  0  0  0  0  0
   -0.2932   21.4665   -4.2326 C   0  0  0  0  0  0  0  0  0  0  0  0
    0.9738   21.4746   -3.7042 C   0  0  0  0  0  0  0  0  0  0  0  0
    1.6631   22.6471   -3.5714 C   0  0  0  0  0  0  0  0  0  0  0  0
    1.1323   23.8330   -3.9838 C   0  0  0  0  0  0  0  0  0  0  0  0
    1.8412   24.9517   -3.8500 N   0  0  0  0  0  0  0  0  0  0  0  0
   -0.1400   23.8606   -4.5067 C   0  0  0  0  0  0  0  0  0  0  0  0
   -0.8262   22.6705   -4.6490 C   0  0  0  0  0  0  0  0  0  0  0  0
    1.4642   25.8117   -4.1457 H   0  0  0  0  0  0  0  0  0  0  0  0
    2.7426   24.9190   -3.4554 H   0  0  0  0  0  0  0  0  0  0  0  0
   -0.5750   19.6890   -6.7142 C   0  0  0  0  0  0  0  0  0  0  0  0
   -2.0172   19.7319   -7.1753 C   0  0  0  0  0  0  0  0  0  0  0  0
   -2.8252   18.6664   -7.2205 N   0  0  0  0  0  0  0  0  0  0  0  0
   -4.0935   19.0009   -7.6626 N   0  0  0  0  0  0  0  0  0  0  0  0
   -3.9775   20.3414   -7.8657 N   0  0  0  0  0  0  0  0  0  0  0  0
   -5.0884   21.1782   -8.3584 C   0  0  0  0  0  0  0  0  0  0  0  0
   -2.7022   20.8132   -7.5936 N   0  0  0  0  0  0  0  0  0  0  0  0
    0.5948   16.3704   -3.4092 C   0  0  0  0  0  0  0  0  0  0  0  0
   -0.3588   15.3157   -3.9340 C   0  0  0  0  0  0  0  0  0  0  0  0
   -1.4791   15.6448   -4.1948 O   0  0  0  0  0  0  0  0  0  0  0  0
    0.0275   14.0260   -4.0867 N   0  0  0  0  0  0  0  0  0  0  0  0
   -0.9335   12.9782   -4.3645 C   0  0  0  0  0  0  0  0  0  0  0  0
   -0.1151   11.7110   -4.5175 C   0  0  0  0  0  0  0  0  0  0  0  0
    1.2963   12.1527   -4.7921 C   0  0  0  0  0  0  0  0  0  0  0  0
    1.3953   13.4736   -4.0814 C   0  0  0  0  0  0  0  0  0  0  0  0
    1.8984   13.2372   -2.7121 C   0  0  0  0  0  0  0  0  0  0  0  0
    3.2310   13.3447   -2.4375 C   0  0  0  0  0  0  0  0  0  0  0  0
    4.4755   13.7470   -3.7726 Br  0  0  0  0  0  0  0  0  0  0  0  0
    1.0430   12.8882   -1.6989 C   0  0  0  0  0  0  0  0  0  0  0  0
    1.5345   12.7061   -0.4227 C   0  0  0  0  0  0  0  0  0  0  0  0
    2.8798   12.8359   -0.1634 C   0  0  0  0  0  0  0  0  0  0  0  0
    3.7208   13.1799   -1.1739 C   0  0  0  0  0  0  0  0  0  0  0  0
 11 10  1  0  0  0
 18 19  2  0  0  0
 18 17  1  0  0  0
 19 20  1  0  0  0
 10 12  2  0  0  0
 10  9  1  0  0  0
 12 13  1  0  0  0
  9  8  2  0  0  0
 17 16  1  0  0  0
 17 22  2  0  0  0
 16  3  1  0  0  0
 20 22  1  0  0  0
 20 21  1  0  0  0
 13  7  2  0  0  0
  8  7  1  0  0  0
  7  6  1  0  0  0
  3  6  1  0  0  0
  3  2  1  0  0  0
  1  2  2  0  0  0
  2  4  1  0  0  0
 29 28  1  0  0  0
 29 30  1  0  0  0
 28 27  1  0  0  0
 27 26  1  0  0  0
 25 24  2  0  0  0
 26 24  1  0  0  0
 26 30  1  0  0  0
  4 23  1  0  0  0
 24 23  1  0  0  0
 30 31  1  0  0  0
 33 32  1  0  0  0
 31 32  2  0  0  0
 31 34  1  0  0  0
 32 37  1  0  0  0
 34 35  2  0  0  0
 37 36  2  0  0  0
 35 36  1  0  0  0
 11 14  1  0  0  0
 11 15  1  0  0  0
  4  5  1  0  0  0
M  END
> <minimizedAffinity>
-7.73708

$$$$
6GJN_F0Q_A_201


 37 40  0  0  0  0  0  0  0  0999 V2000
   -0.7158   18.7820   -3.7933 O   0  0  0  0  0  0  0  0  0  0  0  0
   -0.0207   18.5143   -4.7260 C   0  0  0  0  0  0  0  0  0  0  0  0
    0.0887   19.3968   -5.6859 N   0  0  0  0  0  0  0  0  0  0  0  0
    0.5740   17.4160   -4.7879 N   0  0  0  0  0  0  0  0  0  0  0  0
    1.1043   17.2181   -5.5934 H   0  0  0  0  0  0  0  0  0  0  0  0
    0.8001   19.1913   -6.9010 C   0  0  0  0  0  0  0  0  0  0  0  0
    2.2502   19.6471   -6.9502 C   0  0  0  0  0  0  0  0  0  0  0  0
    2.8391   20.1667   -5.8243 C   0  0  0  0  0  0  0  0  0  0  0  0
    4.1536   20.5396   -5.8374 C   0  0  0  0  0  0  0  0  0  0  0  0
    4.9253   20.3811   -6.9500 C   0  0  0  0  0  0  0  0  0  0  0  0
    6.2056   20.7439   -6.9184 N   0  0  0  0  0  0  0  0  0  0  0  0
    4.3621   19.8744   -8.0986 C   0  0  0  0  0  0  0  0  0  0  0  0
    3.0362   19.4885   -8.0746 C   0  0  0  0  0  0  0  0  0  0  0  0
    6.7687   20.6323   -7.7182 H   0  0  0  0  0  0  0  0  0  0  0  0
    6.5894   21.1239   -6.0953 H   0  0  0  0  0  0  0  0  0  0  0  0
   -0.5048   20.7255   -5.6271 C   0  0  0  0  0  0  0  0  0  0  0  0
   -1.7758   20.7986   -6.4478 C   0  0  0  0  0  0  0  0  0  0  0  0
   -2.2150   21.9050   -7.0587 N   0  0  0  0  0  0  0  0  0  0  0  0
   -3.3906   21.6771   -7.7530 N   0  0  0  0  0  0  0  0  0  0  0  0
   -3.6076   20.3551   -7.5150 N   0  0  0  0  0  0  0  0  0  0  0  0
   -4.7728   19.6236   -8.0481 C   0  0  0  0  0  0  0  0  0  0  0  0
   -2.6389   19.7951   -6.6958 N   0  0  0  0  0  0  0  0  0  0  0  0
    0.5239   16.4086   -3.7269 C   0  0  0  0  0  0  0  0  0  0  0  0
   -0.3668   15.2926   -4.2350 C   0  0  0  0  0  0  0  0  0  0  0  0
   -1.4769   15.5691   -4.5852 O   0  0  0  0  0  0  0  0  0  0  0  0
    0.0622   14.0080   -4.2755 N   0  0  0  0  0  0  0  0  0  0  0  0
   -0.8515   12.9151   -4.5386 C   0  0  0  0  0  0  0  0  0  0  0  0
    0.0081   11.6661   -4.5548 C   0  0  0  0  0  0  0  0  0  0  0  0
    1.4217   12.1315   -4.7730 C   0  0  0  0  0  0  0  0  0  0  0  0
    1.4411   13.4993   -4.1495 C   0  0  0  0  0  0  0  0  0  0  0  0
    1.8638   13.3702   -2.7394 C   0  0  0  0  0  0  0  0  0  0  0  0
    3.1810   13.4819   -2.3999 C   0  0  0  0  0  0  0  0  0  0  0  0
    4.5042   13.7555   -3.6912 Br  0  0  0  0  0  0  0  0  0  0  0  0
    0.9477   13.1179   -1.7508 C   0  0  0  0  0  0  0  0  0  0  0  0
    1.3649   13.0353   -0.4383 C   0  0  0  0  0  0  0  0  0  0  0  0
    2.6959   13.1679   -0.1151 C   0  0  0  0  0  0  0  0  0  0  0  0
    3.5974   13.4156   -1.1014 C   0  0  0  0  0  0  0  0  0  0  0  0
 11 10  1  0  0  0
 18 19  2  0  0  0
 18 17  1  0  0  0
 19 20  1  0  0  0
 10 12  2  0  0  0
 10  9  1  0  0  0
 12 13  1  0  0  0
  9  8  2  0  0  0
 17 16  1  0  0  0
 17 22  2  0  0  0
 16  3  1  0  0  0
 20 22  1  0  0  0
 20 21  1  0  0  0
 13  7  2  0  0  0
  8  7  1  0  0  0
  7  6  1  0  0  0
  3  6  1  0  0  0
  3  2  1  0  0  0
  1  2  2  0  0  0
  2  4  1  0  0  0
 29 28  1  0  0  0
 29 30  1  0  0  0
 28 27  1  0  0  0
 27 26  1  0  0  0
 25 24  2  0  0  0
 26 24  1  0  0  0
 26 30  1  0  0  0
  4 23  1  0  0  0
 24 23  1  0  0  0
 30 31  1  0  0  0
 33 32  1  0  0  0
 31 32  2  0  0  0
 31 34  1  0  0  0
 32 37  1  0  0  0
 34 35  2  0  0  0
 37 36  2  0  0  0
 35 36  1  0  0  0
 11 14  1  0  0  0
 11 15  1  0  0  0
  4  5  1  0  0  0
M  END
> <minimizedAffinity>
-7.45781

$$$$
6GJN_F0Q_A_201


 37 40  0  0  0  0  0  0  0  0999 V2000
    1.2839   18.4164   -5.6375 O   0  0  0  0  0  0  0  0  0  0  0  0
    0.1544   18.7015   -5.3777 C   0  0  0  0  0  0  0  0  0  0  0  0
   -0.2771   19.8870   -5.7248 N   0  0  0  0  0  0  0  0  0  0  0  0
   -0.5891   17.8936   -4.7790 N   0  0  0  0  0  0  0  0  0  0  0  0
   -1.5010   18.1834   -4.5474 H   0  0  0  0  0  0  0  0  0  0  0  0
   -1.5617   20.4094   -5.4057 C   0  0  0  0  0  0  0  0  0  0  0  0
   -2.6263   20.3645   -6.4909 C   0  0  0  0  0  0  0  0  0  0  0  0
   -2.9685   19.1627   -7.0594 C   0  0  0  0  0  0  0  0  0  0  0  0
   -3.9542   19.0970   -8.0036 C   0  0  0  0  0  0  0  0  0  0  0  0
   -4.6453   20.2078   -8.3866 C   0  0  0  0  0  0  0  0  0  0  0  0
   -5.6081   20.1001   -9.2994 N   0  0  0  0  0  0  0  0  0  0  0  0
   -4.3186   21.4295   -7.8445 C   0  0  0  0  0  0  0  0  0  0  0  0
   -3.3295   21.4867   -6.8822 C   0  0  0  0  0  0  0  0  0  0  0  0
   -6.1113   20.8981   -9.5807 H   0  0  0  0  0  0  0  0  0  0  0  0
   -5.8170   19.2223   -9.6932 H   0  0  0  0  0  0  0  0  0  0  0  0
    0.5113   20.8330   -6.5023 C   0  0  0  0  0  0  0  0  0  0  0  0
    0.7270   22.1260   -5.7434 C   0  0  0  0  0  0  0  0  0  0  0  0
    1.7196   22.3295   -4.8695 N   0  0  0  0  0  0  0  0  0  0  0  0
    1.6856   23.6084   -4.3410 N   0  0  0  0  0  0  0  0  0  0  0  0
    0.6074   24.1467   -4.9730 N   0  0  0  0  0  0  0  0  0  0  0  0
    0.1431   25.5268   -4.7347 C   0  0  0  0  0  0  0  0  0  0  0  0
   -0.0140   23.2474   -5.8262 N   0  0  0  0  0  0  0  0  0  0  0  0
   -0.1763   16.5401   -4.4041 C   0  0  0  0  0  0  0  0  0  0  0  0
   -0.3312   16.4443   -2.8994 C   0  0  0  0  0  0  0  0  0  0  0  0
   -0.7198   17.4088   -2.3078 O   0  0  0  0  0  0  0  0  0  0  0  0
   -0.0197   15.3100   -2.2271 N   0  0  0  0  0  0  0  0  0  0  0  0
    0.0546   15.2863   -0.7806 C   0  0  0  0  0  0  0  0  0  0  0  0
    0.3698   13.8486   -0.4166 C   0  0  0  0  0  0  0  0  0  0  0  0
   -0.0017   13.0202   -1.6159 C   0  0  0  0  0  0  0  0  0  0  0  0
    0.2129   13.9585   -2.7707 C   0  0  0  0  0  0  0  0  0  0  0  0
    1.5929   13.7856   -3.2703 C   0  0  0  0  0  0  0  0  0  0  0  0
    1.8195   13.2258   -4.4942 C   0  0  0  0  0  0  0  0  0  0  0  0
    0.4152   12.6166   -5.5664 Br  0  0  0  0  0  0  0  0  0  0  0  0
    2.6690   14.1650   -2.5097 C   0  0  0  0  0  0  0  0  0  0  0  0
    3.9453   14.0232   -3.0141 C   0  0  0  0  0  0  0  0  0  0  0  0
    4.1514   13.4719   -4.2579 C   0  0  0  0  0  0  0  0  0  0  0  0
    3.0794   13.0966   -5.0041 C   0  0  0  0  0  0  0  0  0  0  0  0
 11 10  1  0  0  0
 18 19  2  0  0  0
 18 17  1  0  0  0
 19 20  1  0  0  0
 10 12  2  0  0  0
 10  9  1  0  0  0
 12 13  1  0  0  0
  9  8  2  0  0  0
 17 16  1  0  0  0
 17 22  2  0  0  0
 16  3  1  0  0  0
 20 22  1  0  0  0
 20 21  1  0  0  0
 13  7  2  0  0  0
  8  7  1  0  0  0
  7  6  1  0  0  0
  3  6  1  0  0  0
  3  2  1  0  0  0
  1  2  2  0  0  0
  2  4  1  0  0  0
 29 28  1  0  0  0
 29 30  1  0  0  0
 28 27  1  0  0  0
 27 26  1  0  0  0
 25 24  2  0  0  0
 26 24  1  0  0  0
 26 30  1  0  0  0
  4 23  1  0  0  0
 24 23  1  0  0  0
 30 31  1  0  0  0
 33 32  1  0  0  0
 31 32  2  0  0  0
 31 34  1  0  0  0
 32 37  1  0  0  0
 34 35  2  0  0  0
 37 36  2  0  0  0
 35 36  1  0  0  0
 11 14  1  0  0  0
 11 15  1  0  0  0
  4  5  1  0  0  0
M  END
> <minimizedAffinity>
-7.43734

$$$$
6GJN_F0Q_A_201


 37 40  0  0  0  0  0  0  0  0999 V2000
   -1.1702   16.8973   -5.7584 O   0  0  0  0  0  0  0  0  0  0  0  0
   -0.4581   17.5459   -5.0537 C   0  0  0  0  0  0  0  0  0  0  0  0
    0.0612   18.6422   -5.5444 N   0  0  0  0  0  0  0  0  0  0  0  0
   -0.2063   17.1792   -3.8849 N   0  0  0  0  0  0  0  0  0  0  0  0
    0.4184   17.7213   -3.3510 H   0  0  0  0  0  0  0  0  0  0  0  0
    0.9983   19.4711   -4.8667 C   0  0  0  0  0  0  0  0  0  0  0  0
    0.4624   20.7143   -4.1736 C   0  0  0  0  0  0  0  0  0  0  0  0
    0.6648   21.9491   -4.7382 C   0  0  0  0  0  0  0  0  0  0  0  0
    0.1519   23.0725   -4.1532 C   0  0  0  0  0  0  0  0  0  0  0  0
   -0.5969   23.0019   -3.0163 C   0  0  0  0  0  0  0  0  0  0  0  0
   -1.0906   24.1179   -2.4847 N   0  0  0  0  0  0  0  0  0  0  0  0
   -0.8081   21.7806   -2.4188 C   0  0  0  0  0  0  0  0  0  0  0  0
   -0.2970   20.6482   -3.0220 C   0  0  0  0  0  0  0  0  0  0  0  0
   -1.6323   24.0744   -1.6637 H   0  0  0  0  0  0  0  0  0  0  0  0
   -0.9141   24.9869   -2.9124 H   0  0  0  0  0  0  0  0  0  0  0  0
   -0.2671   19.1664   -6.8629 C   0  0  0  0  0  0  0  0  0  0  0  0
   -1.7192   19.5899   -6.9422 C   0  0  0  0  0  0  0  0  0  0  0  0
   -2.2333   20.6415   -6.2940 N   0  0  0  0  0  0  0  0  0  0  0  0
   -3.5807   20.8049   -6.5657 N   0  0  0  0  0  0  0  0  0  0  0  0
   -3.8214   19.7798   -7.4276 N   0  0  0  0  0  0  0  0  0  0  0  0
   -5.1506   19.5170   -8.0118 C   0  0  0  0  0  0  0  0  0  0  0  0
   -2.6963   19.0032   -7.6594 N   0  0  0  0  0  0  0  0  0  0  0  0
   -0.7906   15.9871   -3.2682 C   0  0  0  0  0  0  0  0  0  0  0  0
   -0.4133   16.0330   -1.8009 C   0  0  0  0  0  0  0  0  0  0  0  0
   -0.7012   17.0096   -1.1726 O   0  0  0  0  0  0  0  0  0  0  0  0
    0.2527   15.0119   -1.2096 N   0  0  0  0  0  0  0  0  0  0  0  0
    0.8145   15.1463    0.1189 C   0  0  0  0  0  0  0  0  0  0  0  0
    1.4192   13.7933    0.4395 C   0  0  0  0  0  0  0  0  0  0  0  0
    0.7754   12.8116   -0.5008 C   0  0  0  0  0  0  0  0  0  0  0  0
    0.4620   13.6417   -1.7144 C   0  0  0  0  0  0  0  0  0  0  0  0
    1.6015   13.5581   -2.6516 C   0  0  0  0  0  0  0  0  0  0  0  0
    1.4798   12.8773   -3.8282 C   0  0  0  0  0  0  0  0  0  0  0  0
   -0.1002   11.9902   -4.2862 Br  0  0  0  0  0  0  0  0  0  0  0  0
    2.8042   14.1439   -2.3506 C   0  0  0  0  0  0  0  0  0  0  0  0
    3.8412   14.0792   -3.2583 C   0  0  0  0  0  0  0  0  0  0  0  0
    3.6925   13.4021   -4.4470 C   0  0  0  0  0  0  0  0  0  0  0  0
    2.4978   12.8225   -4.7363 C   0  0  0  0  0  0  0  0  0  0  0  0
 11 10  1  0  0  0
 18 19  2  0  0  0
 18 17  1  0  0  0
 19 20  1  0  0  0
 10 12  2  0  0  0
 10  9  1  0  0  0
 12 13  1  0  0  0
  9  8  2  0  0  0
 17 16  1  0  0  0
 17 22  2  0  0  0
 16  3  1  0  0  0
 20 22  1  0  0  0
 20 21  1  0  0  0
 13  7  2  0  0  0
  8  7  1  0  0  0
  7  6  1  0  0  0
  3  6  1  0  0  0
  3  2  1  0  0  0
  1  2  2  0  0  0
  2  4  1  0  0  0
 29 28  1  0  0  0
 29 30  1  0  0  0
 28 27  1  0  0  0
 27 26  1  0  0  0
 25 24  2  0  0  0
 26 24  1  0  0  0
 26 30  1  0  0  0
  4 23  1  0  0  0
 24 23  1  0  0  0
 30 31  1  0  0  0
 33 32  1  0  0  0
 31 32  2  0  0  0
 31 34  1  0  0  0
 32 37  1  0  0  0
 34 35  2  0  0  0
 37 36  2  0  0  0
 35 36  1  0  0  0
 11 14  1  0  0  0
 11 15  1  0  0  0
  4  5  1  0  0  0
M  END
> <minimizedAffinity>
-7.21531

$$$$
6GJN_F0Q_A_201


 37 40  0  0  0  0  0  0  0  0999 V2000
    0.3368   17.2078   -5.9186 O   0  0  0  0  0  0  0  0  0  0  0  0
    0.1592   18.1538   -5.2128 C   0  0  0  0  0  0  0  0  0  0  0  0
    0.3250   19.3456   -5.7270 N   0  0  0  0  0  0  0  0  0  0  0  0
   -0.1628   18.0072   -4.0133 N   0  0  0  0  0  0  0  0  0  0  0  0
   -0.2594   18.8125   -3.4552 H   0  0  0  0  0  0  0  0  0  0  0  0
    0.2427   20.5640   -4.9966 C   0  0  0  0  0  0  0  0  0  0  0  0
   -0.4053   21.7537   -5.6879 C   0  0  0  0  0  0  0  0  0  0  0  0
   -1.7361   21.7053   -6.0212 C   0  0  0  0  0  0  0  0  0  0  0  0
   -2.3459   22.7815   -6.6019 C   0  0  0  0  0  0  0  0  0  0  0  0
   -1.6667   23.9394   -6.8394 C   0  0  0  0  0  0  0  0  0  0  0  0
   -2.3001   24.9703   -7.3941 N   0  0  0  0  0  0  0  0  0  0  0  0
   -0.3287   24.0161   -6.5279 C   0  0  0  0  0  0  0  0  0  0  0  0
    0.2782   22.9289   -5.9304 C   0  0  0  0  0  0  0  0  0  0  0  0
   -1.8158   25.8096   -7.5685 H   0  0  0  0  0  0  0  0  0  0  0  0
   -3.2528   24.8936   -7.6301 H   0  0  0  0  0  0  0  0  0  0  0  0
    0.6093   19.5802   -7.1360 C   0  0  0  0  0  0  0  0  0  0  0  0
    2.1000   19.6629   -7.3915 C   0  0  0  0  0  0  0  0  0  0  0  0
    2.8436   18.6473   -7.8452 N   0  0  0  0  0  0  0  0  0  0  0  0
    4.1696   19.0114   -8.0043 N   0  0  0  0  0  0  0  0  0  0  0  0
    4.1520   20.3168   -7.6206 N   0  0  0  0  0  0  0  0  0  0  0  0
    5.3586   21.1659   -7.6057 C   0  0  0  0  0  0  0  0  0  0  0  0
    2.8934   20.7370   -7.2178 N   0  0  0  0  0  0  0  0  0  0  0  0
   -0.4038   16.7026   -3.3946 C   0  0  0  0  0  0  0  0  0  0  0  0
    0.0686   16.8137   -1.9587 C   0  0  0  0  0  0  0  0  0  0  0  0
    0.0182   17.8844   -1.4273 O   0  0  0  0  0  0  0  0  0  0  0  0
    0.5585   15.7417   -1.2904 N   0  0  0  0  0  0  0  0  0  0  0  0
    1.2198   15.8884   -0.0099 C   0  0  0  0  0  0  0  0  0  0  0  0
    1.5675   14.4790    0.4280 C   0  0  0  0  0  0  0  0  0  0  0  0
    0.6850   13.5605   -0.3721 C   0  0  0  0  0  0  0  0  0  0  0  0
    0.4628   14.3151   -1.6532 C   0  0  0  0  0  0  0  0  0  0  0  0
    1.5014   13.9134   -2.6247 C   0  0  0  0  0  0  0  0  0  0  0  0
    1.2058   13.0394   -3.6304 C   0  0  0  0  0  0  0  0  0  0  0  0
   -0.4945   12.2820   -3.7998 Br  0  0  0  0  0  0  0  0  0  0  0  0
    2.7819   14.3937   -2.5244 C   0  0  0  0  0  0  0  0  0  0  0  0
    3.7235   14.0287   -3.4643 C   0  0  0  0  0  0  0  0  0  0  0  0
    3.4004   13.1593   -4.4809 C   0  0  0  0  0  0  0  0  0  0  0  0
    2.1296   12.6863   -4.5715 C   0  0  0  0  0  0  0  0  0  0  0  0
 11 10  1  0  0  0
 18 19  2  0  0  0
 18 17  1  0  0  0
 19 20  1  0  0  0
 10 12  2  0  0  0
 10  9  1  0  0  0
 12 13  1  0  0  0
  9  8  2  0  0  0
 17 16  1  0  0  0
 17 22  2  0  0  0
 16  3  1  0  0  0
 20 22  1  0  0  0
 20 21  1  0  0  0
 13  7  2  0  0  0
  8  7  1  0  0  0
  7  6  1  0  0  0
  3  6  1  0  0  0
  3  2  1  0  0  0
  1  2  2  0  0  0
  2  4  1  0  0  0
 29 28  1  0  0  0
 29 30  1  0  0  0
 28 27  1  0  0  0
 27 26  1  0  0  0
 25 24  2  0  0  0
 26 24  1  0  0  0
 26 30  1  0  0  0
  4 23  1  0  0  0
 24 23  1  0  0  0
 30 31  1  0  0  0
 33 32  1  0  0  0
 31 32  2  0  0  0
 31 34  1  0  0  0
 32 37  1  0  0  0
 34 35  2  0  0  0
 37 36  2  0  0  0
 35 36  1  0  0  0
 11 14  1  0  0  0
 11 15  1  0  0  0
  4  5  1  0  0  0
M  END
> <minimizedAffinity>
-7.19237

$$$$
6GJN_F0Q_A_201


 37 40  0  0  0  0  0  0  0  0999 V2000
   -0.3397   19.1988   -3.0191 O   0  0  0  0  0  0  0  0  0  0  0  0
    0.1963   18.8029   -4.0093 C   0  0  0  0  0  0  0  0  0  0  0  0
    0.0274   19.4823   -5.1148 N   0  0  0  0  0  0  0  0  0  0  0  0
    0.8878   17.7610   -3.9911 N   0  0  0  0  0  0  0  0  0  0  0  0
    1.2787   17.4465   -4.8381 H   0  0  0  0  0  0  0  0  0  0  0  0
    0.5203   19.0921   -6.3913 C   0  0  0  0  0  0  0  0  0  0  0  0
    1.8031   19.7482   -6.8783 C   0  0  0  0  0  0  0  0  0  0  0  0
    2.5197   19.1694   -7.8960 C   0  0  0  0  0  0  0  0  0  0  0  0
    3.6502   19.7679   -8.3769 C   0  0  0  0  0  0  0  0  0  0  0  0
    4.0829   20.9643   -7.8871 C   0  0  0  0  0  0  0  0  0  0  0  0
    5.1813   21.5219   -8.3917 N   0  0  0  0  0  0  0  0  0  0  0  0
    3.3938   21.5647   -6.8587 C   0  0  0  0  0  0  0  0  0  0  0  0
    2.2456   20.9601   -6.3858 C   0  0  0  0  0  0  0  0  0  0  0  0
    5.4995   22.3858   -8.0428 H   0  0  0  0  0  0  0  0  0  0  0  0
    5.6753   21.0705   -9.1138 H   0  0  0  0  0  0  0  0  0  0  0  0
   -0.6890   20.7487   -5.1779 C   0  0  0  0  0  0  0  0  0  0  0  0
   -1.8257   20.6901   -6.1773 C   0  0  0  0  0  0  0  0  0  0  0  0
   -2.1530   21.6893   -7.0047 N   0  0  0  0  0  0  0  0  0  0  0  0
   -3.2187   21.3528   -7.8215 N   0  0  0  0  0  0  0  0  0  0  0  0
   -3.4897   20.0805   -7.4224 N   0  0  0  0  0  0  0  0  0  0  0  0
   -4.5768   19.2704   -8.0048 C   0  0  0  0  0  0  0  0  0  0  0  0
   -2.6599   19.6558   -6.3958 N   0  0  0  0  0  0  0  0  0  0  0  0
    1.1471   16.9840   -2.7778 C   0  0  0  0  0  0  0  0  0  0  0  0
    2.6382   16.7135   -2.7508 C   0  0  0  0  0  0  0  0  0  0  0  0
    3.3789   17.5905   -3.0878 O   0  0  0  0  0  0  0  0  0  0  0  0
    3.1316   15.5076   -2.3789 N   0  0  0  0  0  0  0  0  0  0  0  0
    4.5277   15.1718   -2.5706 C   0  0  0  0  0  0  0  0  0  0  0  0
    4.6918   13.7822   -1.9866 C   0  0  0  0  0  0  0  0  0  0  0  0
    3.5183   13.5702   -1.0699 C   0  0  0  0  0  0  0  0  0  0  0  0
    2.4334   14.4063   -1.6894 C   0  0  0  0  0  0  0  0  0  0  0  0
    1.6605   13.5613   -2.6236 C   0  0  0  0  0  0  0  0  0  0  0  0
    0.4228   13.1022   -2.2773 C   0  0  0  0  0  0  0  0  0  0  0  0
   -0.3278   13.4774   -0.6073 Br  0  0  0  0  0  0  0  0  0  0  0  0
    2.1770   13.2076   -3.8436 C   0  0  0  0  0  0  0  0  0  0  0  0
    1.4206   12.4457   -4.7102 C   0  0  0  0  0  0  0  0  0  0  0  0
    0.1675   12.0069   -4.3484 C   0  0  0  0  0  0  0  0  0  0  0  0
   -0.3357   12.3603   -3.1365 C   0  0  0  0  0  0  0  0  0  0  0  0
 11 10  1  0  0  0
 18 19  2  0  0  0
 18 17  1  0  0  0
 19 20  1  0  0  0
 10 12  2  0  0  0
 10  9  1  0  0  0
 12 13  1  0  0  0
  9  8  2  0  0  0
 17 16  1  0  0  0
 17 22  2  0  0  0
 16  3  1  0  0  0
 20 22  1  0  0  0
 20 21  1  0  0  0
 13  7  2  0  0  0
  8  7  1  0  0  0
  7  6  1  0  0  0
  3  6  1  0  0  0
  3  2  1  0  0  0
  1  2  2  0  0  0
  2  4  1  0  0  0
 29 28  1  0  0  0
 29 30  1  0  0  0
 28 27  1  0  0  0
 27 26  1  0  0  0
 25 24  2  0  0  0
 26 24  1  0  0  0
 26 30  1  0  0  0
  4 23  1  0  0  0
 24 23  1  0  0  0
 30 31  1  0  0  0
 33 32  1  0  0  0
 31 32  2  0  0  0
 31 34  1  0  0  0
 32 37  1  0  0  0
 34 35  2  0  0  0
 37 36  2  0  0  0
 35 36  1  0  0  0
 11 14  1  0  0  0
 11 15  1  0  0  0
  4  5  1  0  0  0
M  END
> <minimizedAffinity>
-7.08138

$$$$
