5AOJ_Y0V_A_1291


 19 20  0  0  0  0  0  0  0  0999 V2000
   90.6738   95.5019  -45.1639 C   0  0  0  0  0  0  0  0  0  0  0  0
   92.4658   94.7329  -41.2506 I   0  0  0  0  0  0  0  0  0  0  0  0
   90.8020   94.2852  -45.8589 C   0  0  0  0  0  0  0  0  0  0  0  0
   91.4571   91.4452  -46.5536 I   0  0  0  0  0  0  0  0  0  0  0  0
   91.0282   96.7961  -43.2005 O   0  0  0  0  0  0  0  0  0  0  0  0
   91.4080   93.1577  -45.2842 C   0  0  0  0  0  0  0  0  0  0  0  0
   91.8948   93.2628  -43.9569 C   0  0  0  0  0  0  0  0  0  0  0  0
   91.7742   94.4903  -43.2592 C   0  0  0  0  0  0  0  0  0  0  0  0
   91.1613   95.6012  -43.8623 C   0  0  0  0  0  0  0  0  0  0  0  0
   90.6155   97.5229  -43.6241 H   0  0  0  0  0  0  0  0  0  0  0  0
   92.5444   92.2207  -43.2559 N   0  0  0  0  0  0  0  0  0  0  0  0
   93.9171   92.0502  -43.2199 C   0  0  0  0  0  0  0  0  0  0  0  0
   94.2110   90.9710  -42.4161 C   0  0  0  0  0  0  0  0  0  0  0  0
   92.9792   90.4618  -41.9446 C   0  0  0  0  0  0  0  0  0  0  0  0
   91.9724   91.2447  -42.4694 C   0  0  0  0  0  0  0  0  0  0  0  0
   90.7237   97.7070  -46.0323 O   0  0  0  0  0  0  0  0  0  0  0  0
   88.8149   96.4822  -46.2146 O   0  0  0  0  0  0  0  0  0  0  0  0
   90.0216   96.6624  -45.8520 C   0  0  0  0  0  0  0  0  0  0  0  0
   91.6080   97.7362  -45.7238 H   0  0  0  0  0  0  0  0  0  0  0  0
  3  1  2  0  0  0
 18  1  1  0  0  0
  1  9  1  0  0  0
  8  2  1  0  0  0
  7 11  1  0  0  0
 11 12  1  0  0  0
 11 15  1  0  0  0
 18 16  1  0  0  0
  3  6  1  0  0  0
  4  6  1  0  0  0
  9  5  1  0  0  0
  6  7  2  0  0  0
 17 18  2  0  0  0
  7  8  1  0  0  0
  9  8  2  0  0  0
 12 13  2  0  0  0
 13 14  1  0  0  0
 15 14  2  0  0  0
 16 19  1  0  0  0
  5 10  1  0  0  0
M  END
> <minimizedAffinity>
-6.39384

$$$$
5AOJ_Y0V_A_1291


 19 20  0  0  0  0  0  0  0  0999 V2000
   90.4690   95.6458  -45.1526 C   0  0  0  0  0  0  0  0  0  0  0  0
   91.5934   91.5320  -46.1160 I   0  0  0  0  0  0  0  0  0  0  0  0
   90.9659   95.8551  -43.8529 C   0  0  0  0  0  0  0  0  0  0  0  0
   92.3035   95.4448  -41.2034 I   0  0  0  0  0  0  0  0  0  0  0  0
   90.1629   94.2224  -47.0328 O   0  0  0  0  0  0  0  0  0  0  0  0
   91.6486   94.8544  -43.1448 C   0  0  0  0  0  0  0  0  0  0  0  0
   91.8417   93.6003  -43.7768 C   0  0  0  0  0  0  0  0  0  0  0  0
   91.3339   93.3855  -45.0822 C   0  0  0  0  0  0  0  0  0  0  0  0
   90.6553   94.4084  -45.7654 C   0  0  0  0  0  0  0  0  0  0  0  0
   89.7136   94.9201  -47.4680 H   0  0  0  0  0  0  0  0  0  0  0  0
   92.4912   92.4939  -43.1822 N   0  0  0  0  0  0  0  0  0  0  0  0
   93.8590   92.2877  -43.2190 C   0  0  0  0  0  0  0  0  0  0  0  0
   94.1565   91.1455  -42.5090 C   0  0  0  0  0  0  0  0  0  0  0  0
   92.9320   90.6334  -42.0219 C   0  0  0  0  0  0  0  0  0  0  0  0
   91.9260   91.4771  -42.4440 C   0  0  0  0  0  0  0  0  0  0  0  0
   90.4158   97.7969  -46.1469 O   0  0  0  0  0  0  0  0  0  0  0  0
   88.5075   96.5605  -46.0672 O   0  0  0  0  0  0  0  0  0  0  0  0
   89.7429   96.7634  -45.8377 C   0  0  0  0  0  0  0  0  0  0  0  0
   91.3262   97.8454  -45.9303 H   0  0  0  0  0  0  0  0  0  0  0  0
  3  1  2  0  0  0
 18  1  1  0  0  0
  1  9  1  0  0  0
  8  2  1  0  0  0
  7 11  1  0  0  0
 11 12  1  0  0  0
 11 15  1  0  0  0
 18 16  1  0  0  0
  3  6  1  0  0  0
  4  6  1  0  0  0
  9  5  1  0  0  0
  6  7  2  0  0  0
 17 18  2  0  0  0
  7  8  1  0  0  0
  9  8  2  0  0  0
 12 13  2  0  0  0
 13 14  1  0  0  0
 15 14  2  0  0  0
 16 19  1  0  0  0
  5 10  1  0  0  0
M  END
> <minimizedAffinity>
-5.58484

$$$$
5AOJ_Y0V_A_1291


 19 20  0  0  0  0  0  0  0  0999 V2000
   92.1991   91.6497  -42.7319 C   0  0  0  0  0  0  0  0  0  0  0  0
   91.8187   95.8798  -41.6941 I   0  0  0  0  0  0  0  0  0  0  0  0
   91.9006   91.5924  -44.1058 C   0  0  0  0  0  0  0  0  0  0  0  0
   91.1712   92.3653  -46.9072 I   0  0  0  0  0  0  0  0  0  0  0  0
   92.4537   92.9135  -40.7336 O   0  0  0  0  0  0  0  0  0  0  0  0
   91.5626   92.7366  -44.8444 C   0  0  0  0  0  0  0  0  0  0  0  0
   91.5328   93.9835  -44.1708 C   0  0  0  0  0  0  0  0  0  0  0  0
   91.8246   94.0411  -42.7853 C   0  0  0  0  0  0  0  0  0  0  0  0
   92.1605   92.8772  -42.0739 C   0  0  0  0  0  0  0  0  0  0  0  0
   92.6750   92.1235  -40.2809 H   0  0  0  0  0  0  0  0  0  0  0  0
   91.1915   95.2147  -44.7768 N   0  0  0  0  0  0  0  0  0  0  0  0
   89.9020   95.5736  -45.1277 C   0  0  0  0  0  0  0  0  0  0  0  0
   89.9210   96.8474  -45.6513 C   0  0  0  0  0  0  0  0  0  0  0  0
   91.2654   97.2840  -45.6222 C   0  0  0  0  0  0  0  0  0  0  0  0
   92.0253   96.2688  -45.0799 C   0  0  0  0  0  0  0  0  0  0  0  0
   91.6120   89.5292  -41.8500 O   0  0  0  0  0  0  0  0  0  0  0  0
   93.7557   90.2640  -41.6468 O   0  0  0  0  0  0  0  0  0  0  0  0
   92.5423   90.3804  -42.0131 C   0  0  0  0  0  0  0  0  0  0  0  0
   90.7473   89.7151  -42.1596 H   0  0  0  0  0  0  0  0  0  0  0  0
  3  1  2  0  0  0
 18  1  1  0  0  0
  1  9  1  0  0  0
  8  2  1  0  0  0
  7 11  1  0  0  0
 11 12  1  0  0  0
 11 15  1  0  0  0
 18 16  1  0  0  0
  3  6  1  0  0  0
  4  6  1  0  0  0
  9  5  1  0  0  0
  6  7  2  0  0  0
 17 18  2  0  0  0
  7  8  1  0  0  0
  9  8  2  0  0  0
 12 13  2  0  0  0
 13 14  1  0  0  0
 15 14  2  0  0  0
 16 19  1  0  0  0
  5 10  1  0  0  0
M  END
> <minimizedAffinity>
-5.49973

$$$$
5AOJ_Y0V_A_1291


 19 20  0  0  0  0  0  0  0  0999 V2000
   91.7623   96.1106  -42.1242 C   0  0  0  0  0  0  0  0  0  0  0  0
   92.0771  100.4681  -41.9546 I   0  0  0  0  0  0  0  0  0  0  0  0
   91.1451   95.8466  -43.3608 C   0  0  0  0  0  0  0  0  0  0  0  0
   89.8621   96.1905  -46.0465 I   0  0  0  0  0  0  0  0  0  0  0  0
   92.6089   97.6683  -40.5392 O   0  0  0  0  0  0  0  0  0  0  0  0
   90.7635   96.8726  -44.2386 C   0  0  0  0  0  0  0  0  0  0  0  0
   91.0223   98.2125  -43.8549 C   0  0  0  0  0  0  0  0  0  0  0  0
   91.6358   98.4800  -42.6058 C   0  0  0  0  0  0  0  0  0  0  0  0
   92.0069   97.4301  -41.7493 C   0  0  0  0  0  0  0  0  0  0  0  0
   92.8472   96.9511  -39.9853 H   0  0  0  0  0  0  0  0  0  0  0  0
   90.6777   99.3480  -44.6240 N   0  0  0  0  0  0  0  0  0  0  0  0
   91.4934   99.9021  -45.5947 C   0  0  0  0  0  0  0  0  0  0  0  0
   90.8362  100.9642  -46.1756 C   0  0  0  0  0  0  0  0  0  0  0  0
   89.5774  101.0662  -45.5402 C   0  0  0  0  0  0  0  0  0  0  0  0
   89.5011  100.0643  -44.5954 C   0  0  0  0  0  0  0  0  0  0  0  0
   93.3563   94.8307  -40.9242 O   0  0  0  0  0  0  0  0  0  0  0  0
   91.1658   94.2183  -40.8656 O   0  0  0  0  0  0  0  0  0  0  0  0
   92.1313   94.9586  -41.2397 C   0  0  0  0  0  0  0  0  0  0  0  0
   93.9912   95.4344  -41.2567 H   0  0  0  0  0  0  0  0  0  0  0  0
  3  1  2  0  0  0
 18  1  1  0  0  0
  1  9  1  0  0  0
  8  2  1  0  0  0
  7 11  1  0  0  0
 11 12  1  0  0  0
 11 15  1  0  0  0
 18 16  1  0  0  0
  3  6  1  0  0  0
  4  6  1  0  0  0
  9  5  1  0  0  0
  6  7  2  0  0  0
 17 18  2  0  0  0
  7  8  1  0  0  0
  9  8  2  0  0  0
 12 13  2  0  0  0
 13 14  1  0  0  0
 15 14  2  0  0  0
 16 19  1  0  0  0
  5 10  1  0  0  0
M  END
> <minimizedAffinity>
-5.46569

$$$$
5AOJ_Y0V_A_1291


 19 20  0  0  0  0  0  0  0  0999 V2000
   92.0514   92.0129  -42.7468 C   0  0  0  0  0  0  0  0  0  0  0  0
   90.8460   93.4684  -46.6895 I   0  0  0  0  0  0  0  0  0  0  0  0
   92.1442   93.1713  -41.9533 C   0  0  0  0  0  0  0  0  0  0  0  0
   92.0851   96.0255  -41.0438 I   0  0  0  0  0  0  0  0  0  0  0  0
   91.6041   90.9883  -44.8457 O   0  0  0  0  0  0  0  0  0  0  0  0
   91.8823   94.4506  -42.4668 C   0  0  0  0  0  0  0  0  0  0  0  0
   91.5061   94.5610  -43.8291 C   0  0  0  0  0  0  0  0  0  0  0  0
   91.4210   93.3961  -44.6314 C   0  0  0  0  0  0  0  0  0  0  0  0
   91.6886   92.1289  -44.0871 C   0  0  0  0  0  0  0  0  0  0  0  0
   91.7875   90.1544  -44.4599 H   0  0  0  0  0  0  0  0  0  0  0  0
   91.2316   95.7810  -44.4891 N   0  0  0  0  0  0  0  0  0  0  0  0
   89.9623   96.3107  -44.6407 C   0  0  0  0  0  0  0  0  0  0  0  0
   90.0596   97.5223  -45.2885 C   0  0  0  0  0  0  0  0  0  0  0  0
   91.4325   97.7429  -45.5441 C   0  0  0  0  0  0  0  0  0  0  0  0
   92.1318   96.6649  -45.0431 C   0  0  0  0  0  0  0  0  0  0  0  0
   91.4185   89.8259  -42.0870 O   0  0  0  0  0  0  0  0  0  0  0  0
   93.5479   90.5308  -41.7056 O   0  0  0  0  0  0  0  0  0  0  0  0
   92.3559   90.6841  -42.1248 C   0  0  0  0  0  0  0  0  0  0  0  0
   90.5717   90.0420  -42.4249 H   0  0  0  0  0  0  0  0  0  0  0  0
  3  1  2  0  0  0
 18  1  1  0  0  0
  1  9  1  0  0  0
  8  2  1  0  0  0
  7 11  1  0  0  0
 11 12  1  0  0  0
 11 15  1  0  0  0
 18 16  1  0  0  0
  3  6  1  0  0  0
  4  6  1  0  0  0
  9  5  1  0  0  0
  6  7  2  0  0  0
 17 18  2  0  0  0
  7  8  1  0  0  0
  9  8  2  0  0  0
 12 13  2  0  0  0
 13 14  1  0  0  0
 15 14  2  0  0  0
 16 19  1  0  0  0
  5 10  1  0  0  0
M  END
> <minimizedAffinity>
-4.85185

$$$$
5AOJ_Y0V_A_1291


 19 20  0  0  0  0  0  0  0  0999 V2000
   91.8784   95.6707  -42.0467 C   0  0  0  0  0  0  0  0  0  0  0  0
   91.9817  100.0255  -41.6707 I   0  0  0  0  0  0  0  0  0  0  0  0
   91.3521   95.4371  -43.3306 C   0  0  0  0  0  0  0  0  0  0  0  0
   90.2243   95.8478  -46.0759 I   0  0  0  0  0  0  0  0  0  0  0  0
   92.5524   97.1895  -40.3454 O   0  0  0  0  0  0  0  0  0  0  0  0
   90.9792   96.4848  -44.1863 C   0  0  0  0  0  0  0  0  0  0  0  0
   91.1519   97.8157  -43.7297 C   0  0  0  0  0  0  0  0  0  0  0  0
   91.6735   98.0520  -42.4335 C   0  0  0  0  0  0  0  0  0  0  0  0
   92.0384   96.9811  -41.6008 C   0  0  0  0  0  0  0  0  0  0  0  0
   92.7884   96.4587  -39.8085 H   0  0  0  0  0  0  0  0  0  0  0  0
   90.8040   98.9692  -44.4699 N   0  0  0  0  0  0  0  0  0  0  0  0
   89.6075   99.6493  -44.3266 C   0  0  0  0  0  0  0  0  0  0  0  0
   89.6142  100.7436  -45.1631 C   0  0  0  0  0  0  0  0  0  0  0  0
   90.8539  100.7342  -45.8428 C   0  0  0  0  0  0  0  0  0  0  0  0
   91.5675   99.6401  -45.4001 C   0  0  0  0  0  0  0  0  0  0  0  0
   91.4498   94.1894  -40.2464 O   0  0  0  0  0  0  0  0  0  0  0  0
   93.3209   93.8962  -41.5073 O   0  0  0  0  0  0  0  0  0  0  0  0
   92.2441   94.4965  -41.1906 C   0  0  0  0  0  0  0  0  0  0  0  0
   90.6791   94.7012  -40.0975 H   0  0  0  0  0  0  0  0  0  0  0  0
  3  1  2  0  0  0
 18  1  1  0  0  0
  1  9  1  0  0  0
  8  2  1  0  0  0
  7 11  1  0  0  0
 11 12  1  0  0  0
 11 15  1  0  0  0
 18 16  1  0  0  0
  3  6  1  0  0  0
  4  6  1  0  0  0
  9  5  1  0  0  0
  6  7  2  0  0  0
 17 18  2  0  0  0
  7  8  1  0  0  0
  9  8  2  0  0  0
 12 13  2  0  0  0
 13 14  1  0  0  0
 15 14  2  0  0  0
 16 19  1  0  0  0
  5 10  1  0  0  0
M  END
> <minimizedAffinity>
-4.79930

$$$$
5AOJ_Y0V_A_1291


 19 20  0  0  0  0  0  0  0  0999 V2000
   90.9539   94.5379  -44.6355 C   0  0  0  0  0  0  0  0  0  0  0  0
   91.4591   98.4835  -42.8208 I   0  0  0  0  0  0  0  0  0  0  0  0
   90.2270   94.7798  -45.8157 C   0  0  0  0  0  0  0  0  0  0  0  0
   88.7429   96.1498  -48.0289 I   0  0  0  0  0  0  0  0  0  0  0  0
   91.9907   95.3505  -42.6556 O   0  0  0  0  0  0  0  0  0  0  0  0
   89.8168   96.0688  -46.1886 C   0  0  0  0  0  0  0  0  0  0  0  0
   90.1607   97.1520  -45.3413 C   0  0  0  0  0  0  0  0  0  0  0  0
   90.8850   96.9085  -44.1479 C   0  0  0  0  0  0  0  0  0  0  0  0
   91.2821   95.6058  -43.8029 C   0  0  0  0  0  0  0  0  0  0  0  0
   92.2442   94.4729  -42.4470 H   0  0  0  0  0  0  0  0  0  0  0  0
   89.8007   98.4993  -45.5754 N   0  0  0  0  0  0  0  0  0  0  0  0
   90.5970   99.4072  -46.2509 C   0  0  0  0  0  0  0  0  0  0  0  0
   89.9282  100.6082  -46.3375 C   0  0  0  0  0  0  0  0  0  0  0  0
   88.6820  100.4324  -45.6934 C   0  0  0  0  0  0  0  0  0  0  0  0
   88.6246   99.1322  -45.2370 C   0  0  0  0  0  0  0  0  0  0  0  0
   90.9599   92.6610  -43.1876 O   0  0  0  0  0  0  0  0  0  0  0  0
   92.0236   92.5219  -45.1941 O   0  0  0  0  0  0  0  0  0  0  0  0
   91.3470   93.1303  -44.3041 C   0  0  0  0  0  0  0  0  0  0  0  0
   90.4634   93.1970  -42.6009 H   0  0  0  0  0  0  0  0  0  0  0  0
  3  1  2  0  0  0
 18  1  1  0  0  0
  1  9  1  0  0  0
  8  2  1  0  0  0
  7 11  1  0  0  0
 11 12  1  0  0  0
 11 15  1  0  0  0
 18 16  1  0  0  0
  3  6  1  0  0  0
  4  6  1  0  0  0
  9  5  1  0  0  0
  6  7  2  0  0  0
 17 18  2  0  0  0
  7  8  1  0  0  0
  9  8  2  0  0  0
 12 13  2  0  0  0
 13 14  1  0  0  0
 15 14  2  0  0  0
 16 19  1  0  0  0
  5 10  1  0  0  0
M  END
> <minimizedAffinity>
-4.66818

$$$$
5AOJ_Y0V_A_1291


 19 20  0  0  0  0  0  0  0  0999 V2000
   91.1644   94.1557  -44.8764 C   0  0  0  0  0  0  0  0  0  0  0  0
   92.0882   96.5751  -41.3538 I   0  0  0  0  0  0  0  0  0  0  0  0
   90.4604   95.0249  -45.7301 C   0  0  0  0  0  0  0  0  0  0  0  0
   89.1156   97.4512  -46.8623 I   0  0  0  0  0  0  0  0  0  0  0  0
   92.2908   93.7583  -42.8201 O   0  0  0  0  0  0  0  0  0  0  0  0
   90.1850   96.3551  -45.3786 C   0  0  0  0  0  0  0  0  0  0  0  0
   90.6445   96.8244  -44.1224 C   0  0  0  0  0  0  0  0  0  0  0  0
   91.3458   95.9474  -43.2581 C   0  0  0  0  0  0  0  0  0  0  0  0
   91.6066   94.6207  -43.6397 C   0  0  0  0  0  0  0  0  0  0  0  0
   92.4525   92.8779  -43.0970 H   0  0  0  0  0  0  0  0  0  0  0  0
   90.4258   98.1299  -43.6249 N   0  0  0  0  0  0  0  0  0  0  0  0
   89.2876   98.5166  -42.9396 C   0  0  0  0  0  0  0  0  0  0  0  0
   89.4205   99.8349  -42.5633 C   0  0  0  0  0  0  0  0  0  0  0  0
   90.6800  100.2719  -43.0338 C   0  0  0  0  0  0  0  0  0  0  0  0
   91.2794   99.2101  -43.6783 C   0  0  0  0  0  0  0  0  0  0  0  0
   91.3238   91.8303  -44.4449 O   0  0  0  0  0  0  0  0  0  0  0  0
   91.6655   92.5955  -46.5602 O   0  0  0  0  0  0  0  0  0  0  0  0
   91.4101   92.7463  -45.3224 C   0  0  0  0  0  0  0  0  0  0  0  0
   91.1299   92.0508  -43.5551 H   0  0  0  0  0  0  0  0  0  0  0  0
  3  1  2  0  0  0
 18  1  1  0  0  0
  1  9  1  0  0  0
  8  2  1  0  0  0
  7 11  1  0  0  0
 11 12  1  0  0  0
 11 15  1  0  0  0
 18 16  1  0  0  0
  3  6  1  0  0  0
  4  6  1  0  0  0
  9  5  1  0  0  0
  6  7  2  0  0  0
 17 18  2  0  0  0
  7  8  1  0  0  0
  9  8  2  0  0  0
 12 13  2  0  0  0
 13 14  1  0  0  0
 15 14  2  0  0  0
 16 19  1  0  0  0
  5 10  1  0  0  0
M  END
> <minimizedAffinity>
-4.61556

$$$$
5AOJ_Y0V_A_1291


 19 20  0  0  0  0  0  0  0  0999 V2000
   91.4937   91.8281  -46.0898 C   0  0  0  0  0  0  0  0  0  0  0  0
   89.8454   95.8577  -45.6877 I   0  0  0  0  0  0  0  0  0  0  0  0
   92.1983   91.6110  -44.8913 C   0  0  0  0  0  0  0  0  0  0  0  0
   93.3911   91.9858  -42.1685 I   0  0  0  0  0  0  0  0  0  0  0  0
   90.1617   93.2379  -47.4659 O   0  0  0  0  0  0  0  0  0  0  0  0
   92.2705   92.5825  -43.8815 C   0  0  0  0  0  0  0  0  0  0  0  0
   91.5999   93.8142  -44.0885 C   0  0  0  0  0  0  0  0  0  0  0  0
   90.8974   94.0374  -45.2988 C   0  0  0  0  0  0  0  0  0  0  0  0
   90.8431   93.0438  -46.2905 C   0  0  0  0  0  0  0  0  0  0  0  0
   90.1400   92.5599  -48.1123 H   0  0  0  0  0  0  0  0  0  0  0  0
   91.6000   94.8914  -43.1725 N   0  0  0  0  0  0  0  0  0  0  0  0
   91.6486   94.7388  -41.7980 C   0  0  0  0  0  0  0  0  0  0  0  0
   91.6776   95.9851  -41.2122 C   0  0  0  0  0  0  0  0  0  0  0  0
   91.6443   96.9331  -42.2605 C   0  0  0  0  0  0  0  0  0  0  0  0
   91.6000   96.2405  -43.4523 C   0  0  0  0  0  0  0  0  0  0  0  0
   90.3635   90.1572  -47.3348 O   0  0  0  0  0  0  0  0  0  0  0  0
   92.5775   90.5205  -47.7134 O   0  0  0  0  0  0  0  0  0  0  0  0
   91.4721   90.7426  -47.1227 C   0  0  0  0  0  0  0  0  0  0  0  0
   89.6045   90.3983  -46.8411 H   0  0  0  0  0  0  0  0  0  0  0  0
  3  1  2  0  0  0
 18  1  1  0  0  0
  1  9  1  0  0  0
  8  2  1  0  0  0
  7 11  1  0  0  0
 11 12  1  0  0  0
 11 15  1  0  0  0
 18 16  1  0  0  0
  3  6  1  0  0  0
  4  6  1  0  0  0
  9  5  1  0  0  0
  6  7  2  0  0  0
 17 18  2  0  0  0
  7  8  1  0  0  0
  9  8  2  0  0  0
 12 13  2  0  0  0
 13 14  1  0  0  0
 15 14  2  0  0  0
 16 19  1  0  0  0
  5 10  1  0  0  0
M  END
> <minimizedAffinity>
-4.55862

$$$$
5AOJ_Y0V_A_1291


 19 20  0  0  0  0  0  0  0  0999 V2000
   91.2279   94.9023  -44.3366 C   0  0  0  0  0  0  0  0  0  0  0  0
   88.8273   96.1440  -47.7734 I   0  0  0  0  0  0  0  0  0  0  0  0
   91.4606   96.0894  -43.6179 C   0  0  0  0  0  0  0  0  0  0  0  0
   91.4566   98.9612  -42.7636 I   0  0  0  0  0  0  0  0  0  0  0  0
   90.2687   93.7820  -46.2021 O   0  0  0  0  0  0  0  0  0  0  0  0
   90.9673   97.3307  -44.0475 C   0  0  0  0  0  0  0  0  0  0  0  0
   90.2053   97.3711  -45.2422 C   0  0  0  0  0  0  0  0  0  0  0  0
   89.9778   96.1776  -45.9715 C   0  0  0  0  0  0  0  0  0  0  0  0
   90.4847   94.9498  -45.5142 C   0  0  0  0  0  0  0  0  0  0  0  0
   90.6173   92.9753  -45.8769 H   0  0  0  0  0  0  0  0  0  0  0  0
   89.6618   98.5477  -45.8076 N   0  0  0  0  0  0  0  0  0  0  0  0
   88.3942   99.0270  -45.5278 C   0  0  0  0  0  0  0  0  0  0  0  0
   88.2038  100.2081  -46.2103 C   0  0  0  0  0  0  0  0  0  0  0  0
   89.3920  100.4613  -46.9335 C   0  0  0  0  0  0  0  0  0  0  0  0
   90.2721   99.4328  -46.6693 C   0  0  0  0  0  0  0  0  0  0  0  0
   90.9878   92.7861  -43.2957 O   0  0  0  0  0  0  0  0  0  0  0  0
   93.0528   93.4704  -43.9623 O   0  0  0  0  0  0  0  0  0  0  0  0
   91.7972   93.6179  -43.8150 C   0  0  0  0  0  0  0  0  0  0  0  0
   90.0763   92.9947  -43.2353 H   0  0  0  0  0  0  0  0  0  0  0  0
  3  1  2  0  0  0
 18  1  1  0  0  0
  1  9  1  0  0  0
  8  2  1  0  0  0
  7 11  1  0  0  0
 11 12  1  0  0  0
 11 15  1  0  0  0
 18 16  1  0  0  0
  3  6  1  0  0  0
  4  6  1  0  0  0
  9  5  1  0  0  0
  6  7  2  0  0  0
 17 18  2  0  0  0
  7  8  1  0  0  0
  9  8  2  0  0  0
 12 13  2  0  0  0
 13 14  1  0  0  0
 15 14  2  0  0  0
 16 19  1  0  0  0
  5 10  1  0  0  0
M  END
> <minimizedAffinity>
-4.53374

$$$$
