4B3D_5MI_A_1351


 11 12  0  0  0  0  0  0  0  0999 V2000
    4.5869    5.2651   -1.3982 C   0  0  0  0  0  0  0  0  0  0  0  0
    5.1786    6.3314   -0.7345 C   0  0  0  0  0  0  0  0  0  0  0  0
    6.5277    6.2788   -0.4037 C   0  0  0  0  0  0  0  0  0  0  0  0
    7.2777    5.1560   -0.7348 C   0  0  0  0  0  0  0  0  0  0  0  0
    8.5544    4.8420   -0.5446 N   0  0  0  0  0  0  0  0  0  0  0  0
    5.3407    4.1437   -1.7306 C   0  0  0  0  0  0  0  0  0  0  0  0
    6.6909    4.0926   -1.3960 C   0  0  0  0  0  0  0  0  0  0  0  0
    7.6284    3.1703   -1.5809 C   0  0  0  0  0  0  0  0  0  0  0  0
    8.7609    3.6283   -1.0570 C   0  0  0  0  0  0  0  0  0  0  0  0
    3.1039    5.3321   -1.7613 C   0  0  0  0  0  0  0  0  0  0  0  0
    9.2296    5.4063   -0.1029 H   0  0  0  0  0  0  0  0  0  0  0  0
  1  2  1  0  0  0
  1  6  2  0  0  0
  1 10  1  0  0  0
  2  3  2  0  0  0
  3  4  1  0  0  0
  4  5  1  0  0  0
  4  7  2  0  0  0
  5  9  1  0  0  0
  6  7  1  0  0  0
  7  8  1  0  0  0
  8  9  2  0  0  0
  5 11  1  0  0  0
M  END
> <minimizedAffinity>
-5.36677

$$$$
4B3D_5MI_A_1351


 11 12  0  0  0  0  0  0  0  0999 V2000
    5.7314    6.7517   -0.5522 C   0  0  0  0  0  0  0  0  0  0  0  0
    4.5626    6.1974   -1.0565 C   0  0  0  0  0  0  0  0  0  0  0  0
    4.5699    4.8993   -1.5537 C   0  0  0  0  0  0  0  0  0  0  0  0
    5.7493    4.1633   -1.5483 C   0  0  0  0  0  0  0  0  0  0  0  0
    6.0398    2.9315   -1.9522 N   0  0  0  0  0  0  0  0  0  0  0  0
    6.9098    6.0116   -0.5457 C   0  0  0  0  0  0  0  0  0  0  0  0
    6.9148    4.7129   -1.0464 C   0  0  0  0  0  0  0  0  0  0  0  0
    7.8714    3.7994   -1.1659 C   0  0  0  0  0  0  0  0  0  0  0  0
    7.3358    2.7174   -1.7221 C   0  0  0  0  0  0  0  0  0  0  0  0
    5.7144    8.1783   -0.0044 C   0  0  0  0  0  0  0  0  0  0  0  0
    5.4091    2.2894   -2.3513 H   0  0  0  0  0  0  0  0  0  0  0  0
  1  2  1  0  0  0
  1  6  2  0  0  0
  1 10  1  0  0  0
  2  3  2  0  0  0
  3  4  1  0  0  0
  4  5  1  0  0  0
  4  7  2  0  0  0
  5  9  1  0  0  0
  6  7  1  0  0  0
  7  8  1  0  0  0
  8  9  2  0  0  0
  5 11  1  0  0  0
M  END
> <minimizedAffinity>
-4.90946

$$$$
4B3D_5MI_A_1351


 11 12  0  0  0  0  0  0  0  0999 V2000
    7.8659    3.8376   -1.3417 C   0  0  0  0  0  0  0  0  0  0  0  0
    6.7305    3.1710   -1.7822 C   0  0  0  0  0  0  0  0  0  0  0  0
    5.4849    3.7785   -1.6741 C   0  0  0  0  0  0  0  0  0  0  0  0
    5.3811    5.0496   -1.1205 C   0  0  0  0  0  0  0  0  0  0  0  0
    4.3437    5.8491   -0.8980 N   0  0  0  0  0  0  0  0  0  0  0  0
    7.7593    5.1108   -0.7906 C   0  0  0  0  0  0  0  0  0  0  0  0
    6.5104    5.7158   -0.6812 C   0  0  0  0  0  0  0  0  0  0  0  0
    6.1205    6.8926   -0.2049 C   0  0  0  0  0  0  0  0  0  0  0  0
    4.7998    6.9684   -0.3345 C   0  0  0  0  0  0  0  0  0  0  0  0
    9.2321    3.1641   -1.4671 C   0  0  0  0  0  0  0  0  0  0  0  0
    3.4035    5.6502   -1.1117 H   0  0  0  0  0  0  0  0  0  0  0  0
  1  2  1  0  0  0
  1  6  2  0  0  0
  1 10  1  0  0  0
  2  3  2  0  0  0
  3  4  1  0  0  0
  4  5  1  0  0  0
  4  7  2  0  0  0
  5  9  1  0  0  0
  6  7  1  0  0  0
  7  8  1  0  0  0
  8  9  2  0  0  0
  5 11  1  0  0  0
M  END
> <minimizedAffinity>
-4.85540

$$$$
4B3D_5MI_A_1351


 11 12  0  0  0  0  0  0  0  0999 V2000
    7.9872    3.8246   -1.3279 C   0  0  0  0  0  0  0  0  0  0  0  0
    8.0017    5.0566   -0.6879 C   0  0  0  0  0  0  0  0  0  0  0  0
    6.8185    5.7686   -0.5291 C   0  0  0  0  0  0  0  0  0  0  0  0
    5.6260    5.2458   -1.0164 C   0  0  0  0  0  0  0  0  0  0  0  0
    4.3773    5.6990   -1.0060 N   0  0  0  0  0  0  0  0  0  0  0  0
    6.7918    3.3026   -1.8123 C   0  0  0  0  0  0  0  0  0  0  0  0
    5.6088    4.0188   -1.6541 C   0  0  0  0  0  0  0  0  0  0  0  0
    4.3537    3.7715   -2.0112 C   0  0  0  0  0  0  0  0  0  0  0  0
    3.6074    4.7990   -1.6189 C   0  0  0  0  0  0  0  0  0  0  0  0
    9.2919    3.0465   -1.4956 C   0  0  0  0  0  0  0  0  0  0  0  0
    4.0736    6.5497   -0.6146 H   0  0  0  0  0  0  0  0  0  0  0  0
  1  2  1  0  0  0
  1  6  2  0  0  0
  1 10  1  0  0  0
  2  3  2  0  0  0
  3  4  1  0  0  0
  4  5  1  0  0  0
  4  7  2  0  0  0
  5  9  1  0  0  0
  6  7  1  0  0  0
  7  8  1  0  0  0
  8  9  2  0  0  0
  5 11  1  0  0  0
M  END
> <minimizedAffinity>
-4.85044

$$$$
4B3D_5MI_A_1351


 11 12  0  0  0  0  0  0  0  0999 V2000
    6.1572    3.9771   -1.5515 C   0  0  0  0  0  0  0  0  0  0  0  0
    6.5580    5.1751   -0.9756 C   0  0  0  0  0  0  0  0  0  0  0  0
    5.8513    6.3421   -1.2414 C   0  0  0  0  0  0  0  0  0  0  0  0
    4.7485    6.3054   -2.0872 C   0  0  0  0  0  0  0  0  0  0  0  0
    3.9091    7.2451   -2.5082 N   0  0  0  0  0  0  0  0  0  0  0  0
    5.0515    3.9428   -2.3956 C   0  0  0  0  0  0  0  0  0  0  0  0
    4.3470    5.1134   -2.6621 C   0  0  0  0  0  0  0  0  0  0  0  0
    3.2824    5.3704   -3.4133 C   0  0  0  0  0  0  0  0  0  0  0  0
    3.0214    6.6705   -3.3207 C   0  0  0  0  0  0  0  0  0  0  0  0
    6.9377    2.6978   -1.2516 C   0  0  0  0  0  0  0  0  0  0  0  0
    3.9374    8.1982   -2.2633 H   0  0  0  0  0  0  0  0  0  0  0  0
  1  2  1  0  0  0
  1  6  2  0  0  0
  1 10  1  0  0  0
  2  3  2  0  0  0
  3  4  1  0  0  0
  4  5  1  0  0  0
  4  7  2  0  0  0
  5  9  1  0  0  0
  6  7  1  0  0  0
  7  8  1  0  0  0
  8  9  2  0  0  0
  5 11  1  0  0  0
M  END
> <minimizedAffinity>
-4.55730

$$$$
4B3D_5MI_A_1351


 11 12  0  0  0  0  0  0  0  0999 V2000
    6.3953    3.8217   -1.6001 C   0  0  0  0  0  0  0  0  0  0  0  0
    5.0919    3.6778   -2.0564 C   0  0  0  0  0  0  0  0  0  0  0  0
    4.1757    4.7067   -1.8714 C   0  0  0  0  0  0  0  0  0  0  0  0
    4.5675    5.8738   -1.2255 C   0  0  0  0  0  0  0  0  0  0  0  0
    3.9171    6.9907   -0.9183 N   0  0  0  0  0  0  0  0  0  0  0  0
    6.7852    4.9920   -0.9564 C   0  0  0  0  0  0  0  0  0  0  0  0
    5.8651    6.0197   -0.7702 C   0  0  0  0  0  0  0  0  0  0  0  0
    5.9567    7.2159   -0.2004 C   0  0  0  0  0  0  0  0  0  0  0  0
    4.7671    7.8024   -0.2885 C   0  0  0  0  0  0  0  0  0  0  0  0
    7.3975    2.6871   -1.8103 C   0  0  0  0  0  0  0  0  0  0  0  0
    2.9733    7.1849   -1.1202 H   0  0  0  0  0  0  0  0  0  0  0  0
  1  2  1  0  0  0
  1  6  2  0  0  0
  1 10  1  0  0  0
  2  3  2  0  0  0
  3  4  1  0  0  0
  4  5  1  0  0  0
  4  7  2  0  0  0
  5  9  1  0  0  0
  6  7  1  0  0  0
  7  8  1  0  0  0
  8  9  2  0  0  0
  5 11  1  0  0  0
M  END
> <minimizedAffinity>
-4.46478

$$$$
4B3D_5MI_A_1351


 11 12  0  0  0  0  0  0  0  0999 V2000
    4.6304    6.2897   -0.8562 C   0  0  0  0  0  0  0  0  0  0  0  0
    5.8239    6.8287   -0.3950 C   0  0  0  0  0  0  0  0  0  0  0  0
    6.9923    6.0782   -0.4566 C   0  0  0  0  0  0  0  0  0  0  0  0
    6.9596    4.7888   -0.9755 C   0  0  0  0  0  0  0  0  0  0  0  0
    7.9010    3.8677   -1.1494 N   0  0  0  0  0  0  0  0  0  0  0  0
    4.6012    4.9999   -1.3775 C   0  0  0  0  0  0  0  0  0  0  0  0
    5.7723    4.2497   -1.4357 C   0  0  0  0  0  0  0  0  0  0  0  0
    6.0322    3.0214   -1.8689 C   0  0  0  0  0  0  0  0  0  0  0  0
    7.3288    2.7907   -1.6887 C   0  0  0  0  0  0  0  0  0  0  0  0
    3.3507    7.1225   -0.7880 C   0  0  0  0  0  0  0  0  0  0  0  0
    8.8537    3.9635   -0.9204 H   0  0  0  0  0  0  0  0  0  0  0  0
  1  2  1  0  0  0
  1  6  2  0  0  0
  1 10  1  0  0  0
  2  3  2  0  0  0
  3  4  1  0  0  0
  4  5  1  0  0  0
  4  7  2  0  0  0
  5  9  1  0  0  0
  6  7  1  0  0  0
  7  8  1  0  0  0
  8  9  2  0  0  0
  5 11  1  0  0  0
M  END
> <minimizedAffinity>
-4.36914

$$$$
4B3D_5MI_A_1351


 11 12  0  0  0  0  0  0  0  0999 V2000
    5.6133    6.2452   -1.5142 C   0  0  0  0  0  0  0  0  0  0  0  0
    5.2300    4.9603   -1.8743 C   0  0  0  0  0  0  0  0  0  0  0  0
    4.4168    4.7656   -2.9848 C   0  0  0  0  0  0  0  0  0  0  0  0
    3.9868    5.8594   -3.7274 C   0  0  0  0  0  0  0  0  0  0  0  0
    3.2213    5.9651   -4.8080 N   0  0  0  0  0  0  0  0  0  0  0  0
    5.1835    7.3379   -2.2609 C   0  0  0  0  0  0  0  0  0  0  0  0
    4.3673    7.1403   -3.3710 C   0  0  0  0  0  0  0  0  0  0  0  0
    3.8181    7.9778   -4.2432 C   0  0  0  0  0  0  0  0  0  0  0  0
    3.1172    7.2588   -5.1142 C   0  0  0  0  0  0  0  0  0  0  0  0
    6.5102    6.4505   -0.2939 C   0  0  0  0  0  0  0  0  0  0  0  0
    2.8041    5.2192   -5.2968 H   0  0  0  0  0  0  0  0  0  0  0  0
  1  2  1  0  0  0
  1  6  2  0  0  0
  1 10  1  0  0  0
  2  3  2  0  0  0
  3  4  1  0  0  0
  4  5  1  0  0  0
  4  7  2  0  0  0
  5  9  1  0  0  0
  6  7  1  0  0  0
  7  8  1  0  0  0
  8  9  2  0  0  0
  5 11  1  0  0  0
M  END
> <minimizedAffinity>
-4.06876

$$$$
4B3D_5MI_A_1351


 11 12  0  0  0  0  0  0  0  0999 V2000
    3.7518    5.7962   -2.0071 C   0  0  0  0  0  0  0  0  0  0  0  0
    3.9379    4.4792   -2.4053 C   0  0  0  0  0  0  0  0  0  0  0  0
    5.1297    3.8279   -2.1095 C   0  0  0  0  0  0  0  0  0  0  0  0
    6.1326    4.5002   -1.4202 C   0  0  0  0  0  0  0  0  0  0  0  0
    7.3434    4.1334   -1.0148 N   0  0  0  0  0  0  0  0  0  0  0  0
    4.7562    6.4656   -1.3150 C   0  0  0  0  0  0  0  0  0  0  0  0
    5.9497    5.8119   -1.0222 C   0  0  0  0  0  0  0  0  0  0  0  0
    7.0545    6.1967   -0.3935 C   0  0  0  0  0  0  0  0  0  0  0  0
    7.9027    5.1732   -0.3950 C   0  0  0  0  0  0  0  0  0  0  0  0
    2.4372    6.5041   -2.3334 C   0  0  0  0  0  0  0  0  0  0  0  0
    7.7553    3.2493   -1.1484 H   0  0  0  0  0  0  0  0  0  0  0  0
  1  2  1  0  0  0
  1  6  2  0  0  0
  1 10  1  0  0  0
  2  3  2  0  0  0
  3  4  1  0  0  0
  4  5  1  0  0  0
  4  7  2  0  0  0
  5  9  1  0  0  0
  6  7  1  0  0  0
  7  8  1  0  0  0
  8  9  2  0  0  0
  5 11  1  0  0  0
M  END
> <minimizedAffinity>
-3.91006

$$$$
4B3D_5MI_A_1351


 11 12  0  0  0  0  0  0  0  0999 V2000
    5.1143    8.1035   -1.5802 C   0  0  0  0  0  0  0  0  0  0  0  0
    5.8837    7.7329   -0.4855 C   0  0  0  0  0  0  0  0  0  0  0  0
    6.1863    6.3929   -0.2733 C   0  0  0  0  0  0  0  0  0  0  0  0
    5.7129    5.4288   -1.1561 C   0  0  0  0  0  0  0  0  0  0  0  0
    5.8436    4.1073   -1.1957 N   0  0  0  0  0  0  0  0  0  0  0  0
    4.6441    7.1366   -2.4635 C   0  0  0  0  0  0  0  0  0  0  0  0
    4.9466    5.7952   -2.2473 C   0  0  0  0  0  0  0  0  0  0  0  0
    4.6361    4.6859   -2.9084 C   0  0  0  0  0  0  0  0  0  0  0  0
    5.1804    3.6596   -2.2624 C   0  0  0  0  0  0  0  0  0  0  0  0
    4.7887    9.5792   -1.8083 C   0  0  0  0  0  0  0  0  0  0  0  0
    6.3425    3.5555   -0.5508 H   0  0  0  0  0  0  0  0  0  0  0  0
  1  2  1  0  0  0
  1  6  2  0  0  0
  1 10  1  0  0  0
  2  3  2  0  0  0
  3  4  1  0  0  0
  4  5  1  0  0  0
  4  7  2  0  0  0
  5  9  1  0  0  0
  6  7  1  0  0  0
  7  8  1  0  0  0
  8  9  2  0  0  0
  5 11  1  0  0  0
M  END
> <minimizedAffinity>
-3.85637

$$$$
