5OQ8_A0Q_A_301


 31 34  0  0  0  0  0  0  0  0999 V2000
    2.0744   -6.0424   17.7476 C   0  0  0  0  0  0  0  0  0  0  0  0
    3.3711   -6.0365   17.3482 C   0  0  0  0  0  0  0  0  0  0  0  0
    4.3106   -5.2811   18.0103 C   0  0  0  0  0  0  0  0  0  0  0  0
    3.9527   -4.4335   19.0473 C   0  0  0  0  0  0  0  0  0  0  0  0
    2.6362   -4.4115   19.4358 C   0  0  0  0  0  0  0  0  0  0  0  0
    1.6999   -5.2246   18.7681 C   0  0  0  0  0  0  0  0  0  0  0  0
    0.3524   -5.1931   19.0952 N   0  0  0  0  0  0  0  0  0  0  0  0
    0.0486   -4.6431   20.4377 C   0  0  0  0  0  0  0  0  0  0  0  0
   -1.4148   -4.3616   20.6173 C   0  0  0  0  0  0  0  0  0  0  0  0
   -2.1787   -5.4964   20.0670 N   0  0  0  0  0  0  0  0  0  0  0  0
   -1.9677   -5.6924   18.6112 C   0  0  0  0  0  0  0  0  0  0  0  0
   -0.5477   -6.1406   18.3984 C   0  0  0  0  0  0  0  0  0  0  0  0
   -3.6102   -5.2266   20.2475 C   0  0  0  0  0  0  0  0  0  0  0  0
    3.7846   -6.9073   16.2248 C   0  0  0  0  0  0  0  0  0  0  0  0
    4.3765   -6.3516   15.1580 N   0  0  0  0  0  0  0  0  0  0  0  0
    3.5617   -8.1104   16.2863 O   0  0  0  0  0  0  0  0  0  0  0  0
    4.3060   -5.3732   15.0746 H   0  0  0  0  0  0  0  0  0  0  0  0
    5.0764   -7.0099   14.1615 C   0  0  0  0  0  0  0  0  0  0  0  0
    6.4211   -7.1457   14.1649 C   0  0  0  0  0  0  0  0  0  0  0  0
    7.0287   -7.8127   13.1403 C   0  0  0  0  0  0  0  0  0  0  0  0
    6.2523   -8.2867   12.1023 C   0  0  0  0  0  0  0  0  0  0  0  0
    4.9481   -8.1255   12.1136 N   0  0  0  0  0  0  0  0  0  0  0  0
    4.3340   -7.5187   13.1168 C   0  0  0  0  0  0  0  0  0  0  0  0
    5.5769   -5.3708   17.5398 O   0  0  0  0  0  0  0  0  0  0  0  0
    6.4704   -4.3068   17.9352 C   0  0  0  0  0  0  0  0  0  0  0  0
    7.7487   -4.4662   17.0611 C   0  0  0  0  0  0  0  0  0  0  0  0
    8.2936   -5.7333   16.8268 C   0  0  0  0  0  0  0  0  0  0  0  0
    9.3904   -5.8818   16.0008 C   0  0  0  0  0  0  0  0  0  0  0  0
    9.9984   -4.7716   15.4181 C   0  0  0  0  0  0  0  0  0  0  0  0
    9.4610   -3.5217   15.6627 C   0  0  0  0  0  0  0  0  0  0  0  0
    8.3385   -3.3564   16.4682 C   0  0  0  0  0  0  0  0  0  0  0  0
 28 29  2  0  0  0
 28 27  1  0  0  0
 29 30  1  0  0  0
 27 26  2  0  0  0
 30 31  2  0  0  0
 26 31  1  0  0  0
 26 25  1  0  0  0
 25 24  1  0  0  0
 24  3  1  0  0  0
 22 23  2  0  0  0
 22 21  1  0  0  0
 23 18  1  0  0  0
 21 20  2  0  0  0
  4  3  2  0  0  0
  4  5  1  0  0  0
  3  2  1  0  0  0
 18 15  1  0  0  0
 18 19  2  0  0  0
 15 14  1  0  0  0
 20 19  1  0  0  0
  5  6  2  0  0  0
  2 14  1  0  0  0
  2  1  2  0  0  0
 14 16  2  0  0  0
  6  1  1  0  0  0
  6  7  1  0  0  0
  7 12  1  0  0  0
  7  8  1  0  0  0
 12 11  1  0  0  0
 11 10  1  0  0  0
  8  9  1  0  0  0
  9 10  1  0  0  0
 10 13  1  0  0  0
 15 17  1  0  0  0
M  END
> <minimizedAffinity>
-9.17374

$$$$
5OQ8_A0Q_A_301


 31 34  0  0  0  0  0  0  0  0999 V2000
    4.3222   -6.3329   15.7297 C   0  0  0  0  0  0  0  0  0  0  0  0
    3.0346   -6.3120   16.1569 C   0  0  0  0  0  0  0  0  0  0  0  0
    2.7067   -5.7894   17.3863 C   0  0  0  0  0  0  0  0  0  0  0  0
    3.6839   -5.3501   18.2660 C   0  0  0  0  0  0  0  0  0  0  0  0
    4.9918   -5.3977   17.8516 C   0  0  0  0  0  0  0  0  0  0  0  0
    5.2987   -5.9001   16.5721 C   0  0  0  0  0  0  0  0  0  0  0  0
    6.6104   -6.0134   16.1358 N   0  0  0  0  0  0  0  0  0  0  0  0
    7.6237   -5.4294   17.0463 C   0  0  0  0  0  0  0  0  0  0  0  0
    9.0203   -5.8362   16.6760 C   0  0  0  0  0  0  0  0  0  0  0  0
    9.1622   -5.7360   15.2118 N   0  0  0  0  0  0  0  0  0  0  0  0
    8.2531   -6.6466   14.4724 C   0  0  0  0  0  0  0  0  0  0  0  0
    6.8410   -6.1723   14.6815 C   0  0  0  0  0  0  0  0  0  0  0  0
   10.5294   -6.1269   14.8476 C   0  0  0  0  0  0  0  0  0  0  0  0
    1.9666   -6.8003   15.2556 C   0  0  0  0  0  0  0  0  0  0  0  0
    0.9480   -7.4988   15.7767 N   0  0  0  0  0  0  0  0  0  0  0  0
    2.0458   -6.5717   14.0545 O   0  0  0  0  0  0  0  0  0  0  0  0
    1.0716   -7.8434   16.6906 H   0  0  0  0  0  0  0  0  0  0  0  0
   -0.2596   -7.7860   15.1640 C   0  0  0  0  0  0  0  0  0  0  0  0
   -0.4483   -8.8571   14.3616 C   0  0  0  0  0  0  0  0  0  0  0  0
   -1.6751   -9.0640   13.7994 C   0  0  0  0  0  0  0  0  0  0  0  0
   -2.6758   -8.1416   14.0286 C   0  0  0  0  0  0  0  0  0  0  0  0
   -2.4615   -7.0981   14.7982 N   0  0  0  0  0  0  0  0  0  0  0  0
   -1.2926   -6.9001   15.3867 C   0  0  0  0  0  0  0  0  0  0  0  0
    1.3893   -5.7986   17.6980 O   0  0  0  0  0  0  0  0  0  0  0  0
    0.9222   -4.6800   18.4837 C   0  0  0  0  0  0  0  0  0  0  0  0
    0.0521   -5.2840   19.6245 C   0  0  0  0  0  0  0  0  0  0  0  0
   -0.9327   -6.2354   19.3368 C   0  0  0  0  0  0  0  0  0  0  0  0
   -1.6621   -6.8176   20.3547 C   0  0  0  0  0  0  0  0  0  0  0  0
   -1.4599   -6.4410   21.6810 C   0  0  0  0  0  0  0  0  0  0  0  0
   -0.4927   -5.4926   21.9567 C   0  0  0  0  0  0  0  0  0  0  0  0
    0.2721   -4.9173   20.9466 C   0  0  0  0  0  0  0  0  0  0  0  0
 28 29  2  0  0  0
 28 27  1  0  0  0
 29 30  1  0  0  0
 27 26  2  0  0  0
 30 31  2  0  0  0
 26 31  1  0  0  0
 26 25  1  0  0  0
 25 24  1  0  0  0
 24  3  1  0  0  0
 22 23  2  0  0  0
 22 21  1  0  0  0
 23 18  1  0  0  0
 21 20  2  0  0  0
  4  3  2  0  0  0
  4  5  1  0  0  0
  3  2  1  0  0  0
 18 15  1  0  0  0
 18 19  2  0  0  0
 15 14  1  0  0  0
 20 19  1  0  0  0
  5  6  2  0  0  0
  2 14  1  0  0  0
  2  1  2  0  0  0
 14 16  2  0  0  0
  6  1  1  0  0  0
  6  7  1  0  0  0
  7 12  1  0  0  0
  7  8  1  0  0  0
 12 11  1  0  0  0
 11 10  1  0  0  0
  8  9  1  0  0  0
  9 10  1  0  0  0
 10 13  1  0  0  0
 15 17  1  0  0  0
M  END
> <minimizedAffinity>
-8.92591

$$$$
5OQ8_A0Q_A_301


 31 34  0  0  0  0  0  0  0  0999 V2000
    6.5813   -6.2633   15.8311 C   0  0  0  0  0  0  0  0  0  0  0  0
    5.3394   -6.4957   16.3258 C   0  0  0  0  0  0  0  0  0  0  0  0
    4.8393   -5.7417   17.3617 C   0  0  0  0  0  0  0  0  0  0  0  0
    5.6149   -4.7823   17.9942 C   0  0  0  0  0  0  0  0  0  0  0  0
    6.8839   -4.5640   17.5183 C   0  0  0  0  0  0  0  0  0  0  0  0
    7.3590   -5.3216   16.4301 C   0  0  0  0  0  0  0  0  0  0  0  0
    8.6523   -5.1683   15.9528 N   0  0  0  0  0  0  0  0  0  0  0  0
    9.0694   -3.7652   15.7199 C   0  0  0  0  0  0  0  0  0  0  0  0
   10.5481   -3.6436   15.4922 C   0  0  0  0  0  0  0  0  0  0  0  0
   10.9703   -4.7259   14.5841 N   0  0  0  0  0  0  0  0  0  0  0  0
   10.7452   -6.0812   15.1451 C   0  0  0  0  0  0  0  0  0  0  0  0
    9.2615   -6.3118   15.2356 C   0  0  0  0  0  0  0  0  0  0  0  0
   12.4151   -4.6052   14.3545 C   0  0  0  0  0  0  0  0  0  0  0  0
    4.4930   -7.5330   15.6942 C   0  0  0  0  0  0  0  0  0  0  0  0
    3.5606   -7.1570   14.8075 N   0  0  0  0  0  0  0  0  0  0  0  0
    4.6504   -8.7068   16.0078 O   0  0  0  0  0  0  0  0  0  0  0  0
    3.3333   -6.1993   14.7861 H   0  0  0  0  0  0  0  0  0  0  0  0
    2.8841   -7.9747   13.9187 C   0  0  0  0  0  0  0  0  0  0  0  0
    1.5880   -8.3258   14.0725 C   0  0  0  0  0  0  0  0  0  0  0  0
    0.9999   -9.1364   13.1447 C   0  0  0  0  0  0  0  0  0  0  0  0
    1.7642   -9.6152   12.1000 C   0  0  0  0  0  0  0  0  0  0  0  0
    3.0277   -9.2736   11.9828 N   0  0  0  0  0  0  0  0  0  0  0  0
    3.6070   -8.4558   12.8475 C   0  0  0  0  0  0  0  0  0  0  0  0
    3.5810   -6.0458   17.7579 O   0  0  0  0  0  0  0  0  0  0  0  0
    2.7603   -4.9258   18.1566 C   0  0  0  0  0  0  0  0  0  0  0  0
    1.2876   -5.3453   17.8763 C   0  0  0  0  0  0  0  0  0  0  0  0
    0.8225   -5.4644   16.5621 C   0  0  0  0  0  0  0  0  0  0  0  0
   -0.4649   -5.8968   16.3116 C   0  0  0  0  0  0  0  0  0  0  0  0
   -1.3363   -6.1838   17.3605 C   0  0  0  0  0  0  0  0  0  0  0  0
   -0.8732   -6.0537   18.6564 C   0  0  0  0  0  0  0  0  0  0  0  0
    0.4300   -5.6480   18.9269 C   0  0  0  0  0  0  0  0  0  0  0  0
 28 29  2  0  0  0
 28 27  1  0  0  0
 29 30  1  0  0  0
 27 26  2  0  0  0
 30 31  2  0  0  0
 26 31  1  0  0  0
 26 25  1  0  0  0
 25 24  1  0  0  0
 24  3  1  0  0  0
 22 23  2  0  0  0
 22 21  1  0  0  0
 23 18  1  0  0  0
 21 20  2  0  0  0
  4  3  2  0  0  0
  4  5  1  0  0  0
  3  2  1  0  0  0
 18 15  1  0  0  0
 18 19  2  0  0  0
 15 14  1  0  0  0
 20 19  1  0  0  0
  5  6  2  0  0  0
  2 14  1  0  0  0
  2  1  2  0  0  0
 14 16  2  0  0  0
  6  1  1  0  0  0
  6  7  1  0  0  0
  7 12  1  0  0  0
  7  8  1  0  0  0
 12 11  1  0  0  0
 11 10  1  0  0  0
  8  9  1  0  0  0
  9 10  1  0  0  0
 10 13  1  0  0  0
 15 17  1  0  0  0
M  END
> <minimizedAffinity>
-8.73103

$$$$
5OQ8_A0Q_A_301


 31 34  0  0  0  0  0  0  0  0999 V2000
    2.4263   -8.9089   13.8199 C   0  0  0  0  0  0  0  0  0  0  0  0
    3.6122   -8.2640   13.9563 C   0  0  0  0  0  0  0  0  0  0  0  0
    4.4311   -8.0543   12.8713 C   0  0  0  0  0  0  0  0  0  0  0  0
    4.1188   -8.5701   11.6229 C   0  0  0  0  0  0  0  0  0  0  0  0
    2.9346   -9.2508   11.4854 C   0  0  0  0  0  0  0  0  0  0  0  0
    2.0939   -9.4177   12.6029 C   0  0  0  0  0  0  0  0  0  0  0  0
    0.9148  -10.1431   12.5182 N   0  0  0  0  0  0  0  0  0  0  0  0
   -0.0682   -9.8645   13.5921 C   0  0  0  0  0  0  0  0  0  0  0  0
   -1.4187  -10.4455   13.2894 C   0  0  0  0  0  0  0  0  0  0  0  0
   -1.2315  -11.8096   12.7616 N   0  0  0  0  0  0  0  0  0  0  0  0
   -0.4681  -11.8448   11.4894 C   0  0  0  0  0  0  0  0  0  0  0  0
    0.9473  -11.4261   11.7791 C   0  0  0  0  0  0  0  0  0  0  0  0
   -2.5513  -12.3826   12.4711 C   0  0  0  0  0  0  0  0  0  0  0  0
    3.9928   -7.7248   15.2814 C   0  0  0  0  0  0  0  0  0  0  0  0
    3.7893   -6.4242   15.5346 N   0  0  0  0  0  0  0  0  0  0  0  0
    4.5001   -8.4725   16.1088 O   0  0  0  0  0  0  0  0  0  0  0  0
    3.6064   -5.8473   14.7581 H   0  0  0  0  0  0  0  0  0  0  0  0
    3.8094   -5.8077   16.7738 C   0  0  0  0  0  0  0  0  0  0  0  0
    2.6907   -5.4832   17.4594 C   0  0  0  0  0  0  0  0  0  0  0  0
    2.8047   -4.8774   18.6776 C   0  0  0  0  0  0  0  0  0  0  0  0
    4.0637   -4.5683   19.1513 C   0  0  0  0  0  0  0  0  0  0  0  0
    5.1355   -4.8779   18.4568 N   0  0  0  0  0  0  0  0  0  0  0  0
    5.0499   -5.5026   17.2930 C   0  0  0  0  0  0  0  0  0  0  0  0
    5.5779   -7.3792   13.1203 O   0  0  0  0  0  0  0  0  0  0  0  0
    6.7903   -8.1634   13.0761 C   0  0  0  0  0  0  0  0  0  0  0  0
    7.8468   -7.3762   13.9051 C   0  0  0  0  0  0  0  0  0  0  0  0
    9.1905   -7.7662   13.8940 C   0  0  0  0  0  0  0  0  0  0  0  0
   10.1383   -7.0316   14.5789 C   0  0  0  0  0  0  0  0  0  0  0  0
    9.7702   -5.9137   15.3250 C   0  0  0  0  0  0  0  0  0  0  0  0
    8.4392   -5.5405   15.3400 C   0  0  0  0  0  0  0  0  0  0  0  0
    7.4754   -6.2515   14.6318 C   0  0  0  0  0  0  0  0  0  0  0  0
 28 29  2  0  0  0
 28 27  1  0  0  0
 29 30  1  0  0  0
 27 26  2  0  0  0
 30 31  2  0  0  0
 26 31  1  0  0  0
 26 25  1  0  0  0
 25 24  1  0  0  0
 24  3  1  0  0  0
 22 23  2  0  0  0
 22 21  1  0  0  0
 23 18  1  0  0  0
 21 20  2  0  0  0
  4  3  2  0  0  0
  4  5  1  0  0  0
  3  2  1  0  0  0
 18 15  1  0  0  0
 18 19  2  0  0  0
 15 14  1  0  0  0
 20 19  1  0  0  0
  5  6  2  0  0  0
  2 14  1  0  0  0
  2  1  2  0  0  0
 14 16  2  0  0  0
  6  1  1  0  0  0
  6  7  1  0  0  0
  7 12  1  0  0  0
  7  8  1  0  0  0
 12 11  1  0  0  0
 11 10  1  0  0  0
  8  9  1  0  0  0
  9 10  1  0  0  0
 10 13  1  0  0  0
 15 17  1  0  0  0
M  END
> <minimizedAffinity>
-8.69872

$$$$
5OQ8_A0Q_A_301


 31 34  0  0  0  0  0  0  0  0999 V2000
    2.5706   -8.2830   13.2974 C   0  0  0  0  0  0  0  0  0  0  0  0
    3.1510   -7.3933   14.1416 C   0  0  0  0  0  0  0  0  0  0  0  0
    4.4876   -7.0869   14.0349 C   0  0  0  0  0  0  0  0  0  0  0  0
    5.3056   -7.7388   13.1250 C   0  0  0  0  0  0  0  0  0  0  0  0
    4.7302   -8.6629   12.2887 C   0  0  0  0  0  0  0  0  0  0  0  0
    3.3511   -8.9302   12.3905 C   0  0  0  0  0  0  0  0  0  0  0  0
    2.7415   -9.8934   11.6004 N   0  0  0  0  0  0  0  0  0  0  0  0
    3.2017   -9.9280   10.1918 C   0  0  0  0  0  0  0  0  0  0  0  0
    2.7348  -11.1602    9.4728 C   0  0  0  0  0  0  0  0  0  0  0  0
    1.3208  -11.3944    9.8195 N   0  0  0  0  0  0  0  0  0  0  0  0
    1.1079  -11.6500   11.2658 C   0  0  0  0  0  0  0  0  0  0  0  0
    1.4063  -10.3810   12.0162 C   0  0  0  0  0  0  0  0  0  0  0  0
    0.8598  -12.5952    9.1123 C   0  0  0  0  0  0  0  0  0  0  0  0
    2.3141   -6.6991   15.1460 C   0  0  0  0  0  0  0  0  0  0  0  0
    2.5984   -6.8565   16.4466 N   0  0  0  0  0  0  0  0  0  0  0  0
    1.3720   -6.0126   14.7690 O   0  0  0  0  0  0  0  0  0  0  0  0
    3.2039   -7.5971   16.6791 H   0  0  0  0  0  0  0  0  0  0  0  0
    2.1294   -6.0863   17.4969 C   0  0  0  0  0  0  0  0  0  0  0  0
    2.8663   -5.1278   18.1011 C   0  0  0  0  0  0  0  0  0  0  0  0
    2.3219   -4.4146   19.1301 C   0  0  0  0  0  0  0  0  0  0  0  0
    1.0477   -4.7296   19.5567 C   0  0  0  0  0  0  0  0  0  0  0  0
    0.3585   -5.6789   18.9643 N   0  0  0  0  0  0  0  0  0  0  0  0
    0.8508   -6.3546   17.9382 C   0  0  0  0  0  0  0  0  0  0  0  0
    4.9536   -6.1687   14.9139 O   0  0  0  0  0  0  0  0  0  0  0  0
    5.8629   -6.6673   15.9196 C   0  0  0  0  0  0  0  0  0  0  0  0
    6.8439   -5.5003   16.2346 C   0  0  0  0  0  0  0  0  0  0  0  0
    7.9716   -5.2868   15.4345 C   0  0  0  0  0  0  0  0  0  0  0  0
    8.8080   -4.2147   15.6754 C   0  0  0  0  0  0  0  0  0  0  0  0
    8.5682   -3.3500   16.7414 C   0  0  0  0  0  0  0  0  0  0  0  0
    7.4580   -3.5733   17.5342 C   0  0  0  0  0  0  0  0  0  0  0  0
    6.5881   -4.6310   17.2881 C   0  0  0  0  0  0  0  0  0  0  0  0
 28 29  2  0  0  0
 28 27  1  0  0  0
 29 30  1  0  0  0
 27 26  2  0  0  0
 30 31  2  0  0  0
 26 31  1  0  0  0
 26 25  1  0  0  0
 25 24  1  0  0  0
 24  3  1  0  0  0
 22 23  2  0  0  0
 22 21  1  0  0  0
 23 18  1  0  0  0
 21 20  2  0  0  0
  4  3  2  0  0  0
  4  5  1  0  0  0
  3  2  1  0  0  0
 18 15  1  0  0  0
 18 19  2  0  0  0
 15 14  1  0  0  0
 20 19  1  0  0  0
  5  6  2  0  0  0
  2 14  1  0  0  0
  2  1  2  0  0  0
 14 16  2  0  0  0
  6  1  1  0  0  0
  6  7  1  0  0  0
  7 12  1  0  0  0
  7  8  1  0  0  0
 12 11  1  0  0  0
 11 10  1  0  0  0
  8  9  1  0  0  0
  9 10  1  0  0  0
 10 13  1  0  0  0
 15 17  1  0  0  0
M  END
> <minimizedAffinity>
-8.57863

$$$$
5OQ8_A0Q_A_301


 31 34  0  0  0  0  0  0  0  0999 V2000
    0.8799   -6.0044   17.6446 C   0  0  0  0  0  0  0  0  0  0  0  0
    2.2010   -5.8970   17.3544 C   0  0  0  0  0  0  0  0  0  0  0  0
    3.0591   -5.2368   18.2027 C   0  0  0  0  0  0  0  0  0  0  0  0
    2.5932   -4.5833   19.3331 C   0  0  0  0  0  0  0  0  0  0  0  0
    1.2521   -4.6620   19.6156 C   0  0  0  0  0  0  0  0  0  0  0  0
    0.3999   -5.3780   18.7526 C   0  0  0  0  0  0  0  0  0  0  0  0
   -0.9680   -5.4379   18.9739 N   0  0  0  0  0  0  0  0  0  0  0  0
   -1.3928   -5.0974   20.3526 C   0  0  0  0  0  0  0  0  0  0  0  0
   -2.8763   -4.8925   20.4545 C   0  0  0  0  0  0  0  0  0  0  0  0
   -3.5478   -5.9605   19.6910 N   0  0  0  0  0  0  0  0  0  0  0  0
   -3.2225   -5.9375   18.2433 C   0  0  0  0  0  0  0  0  0  0  0  0
   -1.7726   -6.3038   18.0816 C   0  0  0  0  0  0  0  0  0  0  0  0
   -4.9990   -5.7663   19.7947 C   0  0  0  0  0  0  0  0  0  0  0  0
    2.7295   -6.5576   16.1396 C   0  0  0  0  0  0  0  0  0  0  0  0
    3.9646   -6.2491   15.7196 N   0  0  0  0  0  0  0  0  0  0  0  0
    2.0224   -7.3557   15.5364 O   0  0  0  0  0  0  0  0  0  0  0  0
    4.3723   -5.4403   16.1054 H   0  0  0  0  0  0  0  0  0  0  0  0
    4.7266   -6.9491   14.8000 C   0  0  0  0  0  0  0  0  0  0  0  0
    4.9756   -6.5021   13.5491 C   0  0  0  0  0  0  0  0  0  0  0  0
    5.7398   -7.2587   12.7080 C   0  0  0  0  0  0  0  0  0  0  0  0
    6.1952   -8.4857   13.1462 C   0  0  0  0  0  0  0  0  0  0  0  0
    5.9238   -8.9060   14.3614 N   0  0  0  0  0  0  0  0  0  0  0  0
    5.2200   -8.1706   15.2074 C   0  0  0  0  0  0  0  0  0  0  0  0
    4.3588   -5.2126   17.8245 O   0  0  0  0  0  0  0  0  0  0  0  0
    5.2300   -4.3828   18.6241 C   0  0  0  0  0  0  0  0  0  0  0  0
    6.5642   -4.2638   17.8309 C   0  0  0  0  0  0  0  0  0  0  0  0
    7.0195   -5.3287   17.0459 C   0  0  0  0  0  0  0  0  0  0  0  0
    8.1702   -5.2014   16.2929 C   0  0  0  0  0  0  0  0  0  0  0  0
    8.9197   -4.0273   16.3311 C   0  0  0  0  0  0  0  0  0  0  0  0
    8.4695   -2.9832   17.1172 C   0  0  0  0  0  0  0  0  0  0  0  0
    7.2966   -3.0833   17.8591 C   0  0  0  0  0  0  0  0  0  0  0  0
 28 29  2  0  0  0
 28 27  1  0  0  0
 29 30  1  0  0  0
 27 26  2  0  0  0
 30 31  2  0  0  0
 26 31  1  0  0  0
 26 25  1  0  0  0
 25 24  1  0  0  0
 24  3  1  0  0  0
 22 23  2  0  0  0
 22 21  1  0  0  0
 23 18  1  0  0  0
 21 20  2  0  0  0
  4  3  2  0  0  0
  4  5  1  0  0  0
  3  2  1  0  0  0
 18 15  1  0  0  0
 18 19  2  0  0  0
 15 14  1  0  0  0
 20 19  1  0  0  0
  5  6  2  0  0  0
  2 14  1  0  0  0
  2  1  2  0  0  0
 14 16  2  0  0  0
  6  1  1  0  0  0
  6  7  1  0  0  0
  7 12  1  0  0  0
  7  8  1  0  0  0
 12 11  1  0  0  0
 11 10  1  0  0  0
  8  9  1  0  0  0
  9 10  1  0  0  0
 10 13  1  0  0  0
 15 17  1  0  0  0
M  END
> <minimizedAffinity>
-8.53746

$$$$
5OQ8_A0Q_A_301


 31 34  0  0  0  0  0  0  0  0999 V2000
    2.3330   -6.7788   16.9748 C   0  0  0  0  0  0  0  0  0  0  0  0
    3.5233   -6.9358   16.3427 C   0  0  0  0  0  0  0  0  0  0  0  0
    4.6284   -6.2132   16.7281 C   0  0  0  0  0  0  0  0  0  0  0  0
    4.5450   -5.2387   17.7107 C   0  0  0  0  0  0  0  0  0  0  0  0
    3.3353   -5.0534   18.3326 C   0  0  0  0  0  0  0  0  0  0  0  0
    2.2279   -5.8339   17.9477 C   0  0  0  0  0  0  0  0  0  0  0  0
    0.9767   -5.6420   18.5145 N   0  0  0  0  0  0  0  0  0  0  0  0
    0.9867   -4.9762   19.8388 C   0  0  0  0  0  0  0  0  0  0  0  0
   -0.3840   -4.5339   20.2614 C   0  0  0  0  0  0  0  0  0  0  0  0
   -1.3371   -5.6178   19.9596 N   0  0  0  0  0  0  0  0  0  0  0  0
   -1.4282   -5.9302   18.5117 C   0  0  0  0  0  0  0  0  0  0  0  0
   -0.1210   -6.5355   18.0786 C   0  0  0  0  0  0  0  0  0  0  0  0
   -2.6775   -5.1903   20.3783 C   0  0  0  0  0  0  0  0  0  0  0  0
    3.6424   -7.9470   15.2681 C   0  0  0  0  0  0  0  0  0  0  0  0
    2.7521   -7.9355   14.2660 N   0  0  0  0  0  0  0  0  0  0  0  0
    4.5383   -8.7806   15.3270 O   0  0  0  0  0  0  0  0  0  0  0  0
    1.9363   -7.4028   14.4072 H   0  0  0  0  0  0  0  0  0  0  0  0
    2.8601   -8.5943   13.0534 C   0  0  0  0  0  0  0  0  0  0  0  0
    3.7688   -8.2653   12.1084 C   0  0  0  0  0  0  0  0  0  0  0  0
    3.8050   -8.9714   10.9405 C   0  0  0  0  0  0  0  0  0  0  0  0
    2.8757   -9.9717   10.7391 C   0  0  0  0  0  0  0  0  0  0  0  0
    1.9903  -10.2601   11.6664 N   0  0  0  0  0  0  0  0  0  0  0  0
    1.9638   -9.6165   12.8226 C   0  0  0  0  0  0  0  0  0  0  0  0
    5.7678   -6.4688   16.0431 O   0  0  0  0  0  0  0  0  0  0  0  0
    6.6197   -5.3291   15.7941 C   0  0  0  0  0  0  0  0  0  0  0  0
    7.9891   -5.9045   15.3281 C   0  0  0  0  0  0  0  0  0  0  0  0
    8.0396   -7.0271   14.4946 C   0  0  0  0  0  0  0  0  0  0  0  0
    9.2510   -7.5004   14.0303 C   0  0  0  0  0  0  0  0  0  0  0  0
   10.4461   -6.8951   14.4139 C   0  0  0  0  0  0  0  0  0  0  0  0
   10.3892   -5.7929   15.2462 C   0  0  0  0  0  0  0  0  0  0  0  0
    9.1759   -5.2845   15.6996 C   0  0  0  0  0  0  0  0  0  0  0  0
 28 29  2  0  0  0
 28 27  1  0  0  0
 29 30  1  0  0  0
 27 26  2  0  0  0
 30 31  2  0  0  0
 26 31  1  0  0  0
 26 25  1  0  0  0
 25 24  1  0  0  0
 24  3  1  0  0  0
 22 23  2  0  0  0
 22 21  1  0  0  0
 23 18  1  0  0  0
 21 20  2  0  0  0
  4  3  2  0  0  0
  4  5  1  0  0  0
  3  2  1  0  0  0
 18 15  1  0  0  0
 18 19  2  0  0  0
 15 14  1  0  0  0
 20 19  1  0  0  0
  5  6  2  0  0  0
  2 14  1  0  0  0
  2  1  2  0  0  0
 14 16  2  0  0  0
  6  1  1  0  0  0
  6  7  1  0  0  0
  7 12  1  0  0  0
  7  8  1  0  0  0
 12 11  1  0  0  0
 11 10  1  0  0  0
  8  9  1  0  0  0
  9 10  1  0  0  0
 10 13  1  0  0  0
 15 17  1  0  0  0
M  END
> <minimizedAffinity>
-8.49602

$$$$
5OQ8_A0Q_A_301


 31 34  0  0  0  0  0  0  0  0999 V2000
    1.5814   -4.5786   19.8346 C   0  0  0  0  0  0  0  0  0  0  0  0
    2.3686   -4.8752   18.7700 C   0  0  0  0  0  0  0  0  0  0  0  0
    1.8659   -5.5618   17.6894 C   0  0  0  0  0  0  0  0  0  0  0  0
    0.5690   -6.0515   17.6872 C   0  0  0  0  0  0  0  0  0  0  0  0
   -0.2232   -5.7813   18.7753 C   0  0  0  0  0  0  0  0  0  0  0  0
    0.3025   -5.0417   19.8524 C   0  0  0  0  0  0  0  0  0  0  0  0
   -0.4477   -4.7920   20.9920 N   0  0  0  0  0  0  0  0  0  0  0  0
   -0.0577   -5.5847   22.1822 C   0  0  0  0  0  0  0  0  0  0  0  0
   -0.6940   -5.0692   23.4401 C   0  0  0  0  0  0  0  0  0  0  0  0
   -2.1085   -4.7650   23.1561 N   0  0  0  0  0  0  0  0  0  0  0  0
   -2.2847   -3.7029   22.1347 C   0  0  0  0  0  0  0  0  0  0  0  0
   -1.8101   -4.2397   20.8121 C   0  0  0  0  0  0  0  0  0  0  0  0
   -2.7348   -4.2670   24.3867 C   0  0  0  0  0  0  0  0  0  0  0  0
    3.7683   -4.3937   18.7505 C   0  0  0  0  0  0  0  0  0  0  0  0
    4.7209   -5.1910   18.2463 N   0  0  0  0  0  0  0  0  0  0  0  0
    4.0276   -3.2881   19.2102 O   0  0  0  0  0  0  0  0  0  0  0  0
    4.4822   -6.1377   18.1204 H   0  0  0  0  0  0  0  0  0  0  0  0
    6.0050   -4.8219   17.8844 C   0  0  0  0  0  0  0  0  0  0  0  0
    6.8169   -5.5995   17.1341 C   0  0  0  0  0  0  0  0  0  0  0  0
    8.0695   -5.1545   16.8231 C   0  0  0  0  0  0  0  0  0  0  0  0
    8.4884   -3.9404   17.3285 C   0  0  0  0  0  0  0  0  0  0  0  0
    7.6861   -3.2112   18.0712 N   0  0  0  0  0  0  0  0  0  0  0  0
    6.4534   -3.6041   18.3506 C   0  0  0  0  0  0  0  0  0  0  0  0
    2.7348   -5.7812   16.6746 O   0  0  0  0  0  0  0  0  0  0  0  0
    2.7963   -7.1381   16.1830 C   0  0  0  0  0  0  0  0  0  0  0  0
    4.0459   -7.2082   15.2574 C   0  0  0  0  0  0  0  0  0  0  0  0
    4.3793   -6.1274   14.4337 C   0  0  0  0  0  0  0  0  0  0  0  0
    5.5221   -6.1641   13.6592 C   0  0  0  0  0  0  0  0  0  0  0  0
    6.3419   -7.2909   13.6524 C   0  0  0  0  0  0  0  0  0  0  0  0
    6.0005   -8.3591   14.4606 C   0  0  0  0  0  0  0  0  0  0  0  0
    4.8690   -8.3277   15.2699 C   0  0  0  0  0  0  0  0  0  0  0  0
 28 29  2  0  0  0
 28 27  1  0  0  0
 29 30  1  0  0  0
 27 26  2  0  0  0
 30 31  2  0  0  0
 26 31  1  0  0  0
 26 25  1  0  0  0
 25 24  1  0  0  0
 24  3  1  0  0  0
 22 23  2  0  0  0
 22 21  1  0  0  0
 23 18  1  0  0  0
 21 20  2  0  0  0
  4  3  2  0  0  0
  4  5  1  0  0  0
  3  2  1  0  0  0
 18 15  1  0  0  0
 18 19  2  0  0  0
 15 14  1  0  0  0
 20 19  1  0  0  0
  5  6  2  0  0  0
  2 14  1  0  0  0
  2  1  2  0  0  0
 14 16  2  0  0  0
  6  1  1  0  0  0
  6  7  1  0  0  0
  7 12  1  0  0  0
  7  8  1  0  0  0
 12 11  1  0  0  0
 11 10  1  0  0  0
  8  9  1  0  0  0
  9 10  1  0  0  0
 10 13  1  0  0  0
 15 17  1  0  0  0
M  END
> <minimizedAffinity>
-8.48468

$$$$
5OQ8_A0Q_A_301


 31 34  0  0  0  0  0  0  0  0999 V2000
    1.1739   -6.4795   17.4826 C   0  0  0  0  0  0  0  0  0  0  0  0
    2.4607   -6.4541   17.0532 C   0  0  0  0  0  0  0  0  0  0  0  0
    3.3776   -5.5995   17.6196 C   0  0  0  0  0  0  0  0  0  0  0  0
    3.0019   -4.6751   18.5821 C   0  0  0  0  0  0  0  0  0  0  0  0
    1.6938   -4.6747   18.9985 C   0  0  0  0  0  0  0  0  0  0  0  0
    0.7826   -5.5870   18.4318 C   0  0  0  0  0  0  0  0  0  0  0  0
   -0.5581   -5.5842   18.7870 N   0  0  0  0  0  0  0  0  0  0  0  0
   -0.8364   -5.1298   20.1702 C   0  0  0  0  0  0  0  0  0  0  0  0
   -2.2967   -4.8679   20.3979 C   0  0  0  0  0  0  0  0  0  0  0  0
   -3.0681   -5.9653   19.7857 N   0  0  0  0  0  0  0  0  0  0  0  0
   -2.8859   -6.0592   18.3159 C   0  0  0  0  0  0  0  0  0  0  0  0
   -1.4691   -6.4852   18.0443 C   0  0  0  0  0  0  0  0  0  0  0  0
   -4.4965   -5.7150   20.0129 C   0  0  0  0  0  0  0  0  0  0  0  0
    2.8913   -7.4072   16.0055 C   0  0  0  0  0  0  0  0  0  0  0  0
    2.1276   -7.5592   14.9143 N   0  0  0  0  0  0  0  0  0  0  0  0
    3.9235   -8.0473   16.1661 O   0  0  0  0  0  0  0  0  0  0  0  0
    1.2119   -7.2008   14.9636 H   0  0  0  0  0  0  0  0  0  0  0  0
    2.4920   -8.1674   13.7254 C   0  0  0  0  0  0  0  0  0  0  0  0
    1.8112   -9.2005   13.1813 C   0  0  0  0  0  0  0  0  0  0  0  0
    2.2420   -9.7390   12.0030 C   0  0  0  0  0  0  0  0  0  0  0  0
    3.3935   -9.2425   11.4266 C   0  0  0  0  0  0  0  0  0  0  0  0
    4.0479   -8.2493   11.9854 N   0  0  0  0  0  0  0  0  0  0  0  0
    3.6252   -7.6848   13.1055 C   0  0  0  0  0  0  0  0  0  0  0  0
    4.6370   -5.6771   17.1289 O   0  0  0  0  0  0  0  0  0  0  0  0
    5.6819   -5.1960   18.0026 C   0  0  0  0  0  0  0  0  0  0  0  0
    6.9012   -4.8800   17.0878 C   0  0  0  0  0  0  0  0  0  0  0  0
    7.6247   -3.6942   17.2556 C   0  0  0  0  0  0  0  0  0  0  0  0
    8.7436   -3.4421   16.4865 C   0  0  0  0  0  0  0  0  0  0  0  0
    9.1498   -4.3427   15.5038 C   0  0  0  0  0  0  0  0  0  0  0  0
    8.4240   -5.5072   15.3364 C   0  0  0  0  0  0  0  0  0  0  0  0
    7.3115   -5.7913   16.1224 C   0  0  0  0  0  0  0  0  0  0  0  0
 28 29  2  0  0  0
 28 27  1  0  0  0
 29 30  1  0  0  0
 27 26  2  0  0  0
 30 31  2  0  0  0
 26 31  1  0  0  0
 26 25  1  0  0  0
 25 24  1  0  0  0
 24  3  1  0  0  0
 22 23  2  0  0  0
 22 21  1  0  0  0
 23 18  1  0  0  0
 21 20  2  0  0  0
  4  3  2  0  0  0
  4  5  1  0  0  0
  3  2  1  0  0  0
 18 15  1  0  0  0
 18 19  2  0  0  0
 15 14  1  0  0  0
 20 19  1  0  0  0
  5  6  2  0  0  0
  2 14  1  0  0  0
  2  1  2  0  0  0
 14 16  2  0  0  0
  6  1  1  0  0  0
  6  7  1  0  0  0
  7 12  1  0  0  0
  7  8  1  0  0  0
 12 11  1  0  0  0
 11 10  1  0  0  0
  8  9  1  0  0  0
  9 10  1  0  0  0
 10 13  1  0  0  0
 15 17  1  0  0  0
M  END
> <minimizedAffinity>
-8.42555

$$$$
5OQ8_A0Q_A_301


 31 34  0  0  0  0  0  0  0  0999 V2000
    0.3070   -6.1167   17.2169 C   0  0  0  0  0  0  0  0  0  0  0  0
    1.5210   -6.1316   16.6111 C   0  0  0  0  0  0  0  0  0  0  0  0
    2.6469   -5.7031   17.2749 C   0  0  0  0  0  0  0  0  0  0  0  0
    2.5693   -5.1594   18.5478 C   0  0  0  0  0  0  0  0  0  0  0  0
    1.3386   -5.1129   19.1542 C   0  0  0  0  0  0  0  0  0  0  0  0
    0.2064   -5.5949   18.4690 C   0  0  0  0  0  0  0  0  0  0  0  0
   -1.0618   -5.5182   19.0254 N   0  0  0  0  0  0  0  0  0  0  0  0
   -1.0927   -5.1458   20.4598 C   0  0  0  0  0  0  0  0  0  0  0  0
   -2.4758   -4.7933   20.9244 C   0  0  0  0  0  0  0  0  0  0  0  0
   -3.4192   -5.7831   20.3726 N   0  0  0  0  0  0  0  0  0  0  0  0
   -3.4654   -5.7835   18.8893 C   0  0  0  0  0  0  0  0  0  0  0  0
   -2.1455   -6.2928   18.3783 C   0  0  0  0  0  0  0  0  0  0  0  0
   -4.7719   -5.4445   20.8311 C   0  0  0  0  0  0  0  0  0  0  0  0
    1.6374   -6.6782   15.2403 C   0  0  0  0  0  0  0  0  0  0  0  0
    2.4116   -7.7532   15.0350 N   0  0  0  0  0  0  0  0  0  0  0  0
    1.0400   -6.1276   14.3234 O   0  0  0  0  0  0  0  0  0  0  0  0
    3.0372   -7.9904   15.7572 H   0  0  0  0  0  0  0  0  0  0  0  0
    2.4231   -8.5647   13.9135 C   0  0  0  0  0  0  0  0  0  0  0  0
    3.4809   -8.6602   13.0776 C   0  0  0  0  0  0  0  0  0  0  0  0
    3.4050   -9.4880   11.9946 C   0  0  0  0  0  0  0  0  0  0  0  0
    2.2269  -10.1669   11.7577 C   0  0  0  0  0  0  0  0  0  0  0  0
    1.2060  -10.0427   12.5758 N   0  0  0  0  0  0  0  0  0  0  0  0
    1.2719   -9.2782   13.6543 C   0  0  0  0  0  0  0  0  0  0  0  0
    3.8068   -5.7851   16.5815 O   0  0  0  0  0  0  0  0  0  0  0  0
    5.0119   -5.5575   17.3447 C   0  0  0  0  0  0  0  0  0  0  0  0
    6.1982   -5.8591   16.3828 C   0  0  0  0  0  0  0  0  0  0  0  0
    5.9663   -6.4440   15.1331 C   0  0  0  0  0  0  0  0  0  0  0  0
    7.0105   -6.6545   14.2542 C   0  0  0  0  0  0  0  0  0  0  0  0
    8.3173   -6.3261   14.6093 C   0  0  0  0  0  0  0  0  0  0  0  0
    8.5403   -5.7584   15.8498 C   0  0  0  0  0  0  0  0  0  0  0  0
    7.4964   -5.5118   16.7362 C   0  0  0  0  0  0  0  0  0  0  0  0
 28 29  2  0  0  0
 28 27  1  0  0  0
 29 30  1  0  0  0
 27 26  2  0  0  0
 30 31  2  0  0  0
 26 31  1  0  0  0
 26 25  1  0  0  0
 25 24  1  0  0  0
 24  3  1  0  0  0
 22 23  2  0  0  0
 22 21  1  0  0  0
 23 18  1  0  0  0
 21 20  2  0  0  0
  4  3  2  0  0  0
  4  5  1  0  0  0
  3  2  1  0  0  0
 18 15  1  0  0  0
 18 19  2  0  0  0
 15 14  1  0  0  0
 20 19  1  0  0  0
  5  6  2  0  0  0
  2 14  1  0  0  0
  2  1  2  0  0  0
 14 16  2  0  0  0
  6  1  1  0  0  0
  6  7  1  0  0  0
  7 12  1  0  0  0
  7  8  1  0  0  0
 12 11  1  0  0  0
 11 10  1  0  0  0
  8  9  1  0  0  0
  9 10  1  0  0  0
 10 13  1  0  0  0
 15 17  1  0  0  0
M  END
> <minimizedAffinity>
-8.20027

$$$$
