1G74_OLA_A_132


 21 20  0  0  0  0  0  0  0  0999 V2000
  -45.2865   69.5210   -9.9229 C   0  0  0  0  0  0  0  0  0  0  0  0
  -43.9542   69.8683   -9.5021 C   0  0  0  0  0  0  0  0  0  0  0  0
  -43.4503   71.1792   -9.3511 C   0  0  0  0  0  0  0  0  0  0  0  0
  -44.1492   72.4381   -9.5937 C   0  0  0  0  0  0  0  0  0  0  0  0
  -44.6189   73.0629   -8.3044 C   0  0  0  0  0  0  0  0  0  0  0  0
  -46.1158   72.9638   -8.1882 C   0  0  0  0  0  0  0  0  0  0  0  0
  -46.4915   72.0428   -7.0412 C   0  0  0  0  0  0  0  0  0  0  0  0
  -45.3229   71.7621   -6.0950 C   0  0  0  0  0  0  0  0  0  0  0  0
  -45.6438   70.5613   -5.2104 C   0  0  0  0  0  0  0  0  0  0  0  0
  -44.7131   69.3596   -5.4237 C   0  0  0  0  0  0  0  0  0  0  0  0
  -43.3225   69.8597   -5.8037 C   0  0  0  0  0  0  0  0  0  0  0  0
  -45.7515   68.4842   -8.9224 C   0  0  0  0  0  0  0  0  0  0  0  0
  -47.0872   68.7928   -8.2759 C   0  0  0  0  0  0  0  0  0  0  0  0
  -48.1192   67.7294   -8.6633 C   0  0  0  0  0  0  0  0  0  0  0  0
  -49.3606   68.3501   -9.3048 C   0  0  0  0  0  0  0  0  0  0  0  0
  -49.4064   67.9183  -10.7468 C   0  0  0  0  0  0  0  0  0  0  0  0
  -48.3660   66.8659  -11.0607 C   0  0  0  0  0  0  0  0  0  0  0  0
  -48.0722   66.8220  -12.5330 C   0  0  0  0  0  0  0  0  0  0  0  0
  -47.0223   66.3395  -12.9489 O   0  0  0  0  0  0  0  0  0  0  0  0
  -48.8969   67.2789  -13.3068 O   0  0  0  0  0  0  0  0  0  0  0  0
  -49.6947   67.6448  -12.9788 H   0  0  0  0  0  0  0  0  0  0  0  0
 18 19  2  0  0  0
 18 20  1  0  0  0
 18 17  1  0  0  0
 17 16  1  0  0  0
 16 15  1  0  0  0
 15 14  1  0  0  0
 14 13  1  0  0  0
 13 12  1  0  0  0
 12  1  1  0  0  0
  1  2  1  0  0  0
  2  3  2  0  0  0
  3  4  1  0  0  0
  4  5  1  0  0  0
  5  6  1  0  0  0
  6  7  1  0  0  0
  7  8  1  0  0  0
  8  9  1  0  0  0
  9 10  1  0  0  0
 10 11  1  0  0  0
 20 21  1  0  0  0
M  END
> <minimizedAffinity>
-5.77477

$$$$
1G74_OLA_A_132


 21 20  0  0  0  0  0  0  0  0999 V2000
  -45.7295   67.6371   -5.6385 C   0  0  0  0  0  0  0  0  0  0  0  0
  -44.3256   67.4565   -5.9011 C   0  0  0  0  0  0  0  0  0  0  0  0
  -43.3399   68.4674   -5.8590 C   0  0  0  0  0  0  0  0  0  0  0  0
  -43.5260   69.8842   -5.5586 C   0  0  0  0  0  0  0  0  0  0  0  0
  -43.6727   70.6983   -6.8192 C   0  0  0  0  0  0  0  0  0  0  0  0
  -44.7639   71.7218   -6.6588 C   0  0  0  0  0  0  0  0  0  0  0  0
  -45.5342   71.4681   -5.3752 C   0  0  0  0  0  0  0  0  0  0  0  0
  -47.0403   71.3271   -5.6021 C   0  0  0  0  0  0  0  0  0  0  0  0
  -47.4460   72.0523   -6.8815 C   0  0  0  0  0  0  0  0  0  0  0  0
  -48.9157   72.4940   -6.9121 C   0  0  0  0  0  0  0  0  0  0  0  0
  -49.2689   73.1637   -5.5874 C   0  0  0  0  0  0  0  0  0  0  0  0
  -46.4084   67.3863   -6.9683 C   0  0  0  0  0  0  0  0  0  0  0  0
  -46.5390   68.6148   -7.8462 C   0  0  0  0  0  0  0  0  0  0  0  0
  -47.0779   68.2230   -9.2254 C   0  0  0  0  0  0  0  0  0  0  0  0
  -48.6055   68.1595   -9.2410 C   0  0  0  0  0  0  0  0  0  0  0  0
  -49.0129   66.8877   -9.9370 C   0  0  0  0  0  0  0  0  0  0  0  0
  -49.7242   67.1557  -11.2451 C   0  0  0  0  0  0  0  0  0  0  0  0
  -48.7754   67.0509  -12.4048 C   0  0  0  0  0  0  0  0  0  0  0  0
  -47.6454   66.5952  -12.2513 O   0  0  0  0  0  0  0  0  0  0  0  0
  -49.1497   67.4312  -13.5015 O   0  0  0  0  0  0  0  0  0  0  0  0
  -50.0140   67.7773  -13.6075 H   0  0  0  0  0  0  0  0  0  0  0  0
 18 19  2  0  0  0
 18 20  1  0  0  0
 18 17  1  0  0  0
 17 16  1  0  0  0
 16 15  1  0  0  0
 15 14  1  0  0  0
 14 13  1  0  0  0
 13 12  1  0  0  0
 12  1  1  0  0  0
  1  2  1  0  0  0
  2  3  2  0  0  0
  3  4  1  0  0  0
  4  5  1  0  0  0
  5  6  1  0  0  0
  6  7  1  0  0  0
  7  8  1  0  0  0
  8  9  1  0  0  0
  9 10  1  0  0  0
 10 11  1  0  0  0
 20 21  1  0  0  0
M  END
> <minimizedAffinity>
-5.65233

$$$$
1G74_OLA_A_132


 21 20  0  0  0  0  0  0  0  0999 V2000
  -43.7465   69.6098   -8.7938 C   0  0  0  0  0  0  0  0  0  0  0  0
  -44.0609   70.2419  -10.0484 C   0  0  0  0  0  0  0  0  0  0  0  0
  -44.2473   71.6272  -10.2524 C   0  0  0  0  0  0  0  0  0  0  0  0
  -44.1752   72.6939   -9.2580 C   0  0  0  0  0  0  0  0  0  0  0  0
  -45.4954   72.8783   -8.5535 C   0  0  0  0  0  0  0  0  0  0  0  0
  -45.3077   72.8140   -7.0620 C   0  0  0  0  0  0  0  0  0  0  0  0
  -45.8635   71.5089   -6.5207 C   0  0  0  0  0  0  0  0  0  0  0  0
  -47.2709   71.6558   -5.9400 C   0  0  0  0  0  0  0  0  0  0  0  0
  -48.3034   71.6434   -7.0630 C   0  0  0  0  0  0  0  0  0  0  0  0
  -49.5577   72.4781   -6.7702 C   0  0  0  0  0  0  0  0  0  0  0  0
  -49.3166   73.3325   -5.5292 C   0  0  0  0  0  0  0  0  0  0  0  0
  -44.8097   68.5462   -8.6180 C   0  0  0  0  0  0  0  0  0  0  0  0
  -46.2063   68.9864   -9.0090 C   0  0  0  0  0  0  0  0  0  0  0  0
  -47.2419   67.9926   -8.4742 C   0  0  0  0  0  0  0  0  0  0  0  0
  -48.6561   68.3410   -8.9395 C   0  0  0  0  0  0  0  0  0  0  0  0
  -49.0668   67.3330   -9.9803 C   0  0  0  0  0  0  0  0  0  0  0  0
  -49.7301   67.9834  -11.1743 C   0  0  0  0  0  0  0  0  0  0  0  0
  -49.6424   67.1001  -12.3859 C   0  0  0  0  0  0  0  0  0  0  0  0
  -50.6054   66.4263  -12.7418 O   0  0  0  0  0  0  0  0  0  0  0  0
  -48.5934   67.0635  -13.0070 O   0  0  0  0  0  0  0  0  0  0  0  0
  -47.8647   67.5817  -12.7269 H   0  0  0  0  0  0  0  0  0  0  0  0
 18 19  2  0  0  0
 18 20  1  0  0  0
 18 17  1  0  0  0
 17 16  1  0  0  0
 16 15  1  0  0  0
 15 14  1  0  0  0
 14 13  1  0  0  0
 13 12  1  0  0  0
 12  1  1  0  0  0
  1  2  1  0  0  0
  2  3  2  0  0  0
  3  4  1  0  0  0
  4  5  1  0  0  0
  5  6  1  0  0  0
  6  7  1  0  0  0
  7  8  1  0  0  0
  8  9  1  0  0  0
  9 10  1  0  0  0
 10 11  1  0  0  0
 20 21  1  0  0  0
M  END
> <minimizedAffinity>
-5.65105

$$$$
1G74_OLA_A_132


 21 20  0  0  0  0  0  0  0  0999 V2000
  -45.7946   67.0921   -6.4096 C   0  0  0  0  0  0  0  0  0  0  0  0
  -44.4807   67.1073   -6.9978 C   0  0  0  0  0  0  0  0  0  0  0  0
  -43.3790   67.8642   -6.5409 C   0  0  0  0  0  0  0  0  0  0  0  0
  -43.3357   68.7831   -5.4069 C   0  0  0  0  0  0  0  0  0  0  0  0
  -43.7362   70.1782   -5.8149 C   0  0  0  0  0  0  0  0  0  0  0  0
  -45.1278   70.4866   -5.3328 C   0  0  0  0  0  0  0  0  0  0  0  0
  -45.6962   71.6687   -6.0976 C   0  0  0  0  0  0  0  0  0  0  0  0
  -47.1445   71.9827   -5.7190 C   0  0  0  0  0  0  0  0  0  0  0  0
  -48.0592   71.7545   -6.9184 C   0  0  0  0  0  0  0  0  0  0  0  0
  -49.4073   72.4823   -6.8256 C   0  0  0  0  0  0  0  0  0  0  0  0
  -49.4448   73.3137   -5.5467 C   0  0  0  0  0  0  0  0  0  0  0  0
  -46.7459   67.2038   -7.5822 C   0  0  0  0  0  0  0  0  0  0  0  0
  -46.7036   68.5392   -8.2977 C   0  0  0  0  0  0  0  0  0  0  0  0
  -46.4576   68.3282   -9.7947 C   0  0  0  0  0  0  0  0  0  0  0  0
  -45.2832   69.1664  -10.3007 C   0  0  0  0  0  0  0  0  0  0  0  0
  -44.9715   70.2096   -9.2602 C   0  0  0  0  0  0  0  0  0  0  0  0
  -43.6027   70.8226   -9.4589 C   0  0  0  0  0  0  0  0  0  0  0  0
  -43.7131   72.2502   -9.9121 C   0  0  0  0  0  0  0  0  0  0  0  0
  -44.0445   72.5188  -11.0637 O   0  0  0  0  0  0  0  0  0  0  0  0
  -43.4634   73.1374   -9.1132 O   0  0  0  0  0  0  0  0  0  0  0  0
  -43.2114   72.9214   -8.2370 H   0  0  0  0  0  0  0  0  0  0  0  0
 18 19  2  0  0  0
 18 20  1  0  0  0
 18 17  1  0  0  0
 17 16  1  0  0  0
 16 15  1  0  0  0
 15 14  1  0  0  0
 14 13  1  0  0  0
 13 12  1  0  0  0
 12  1  1  0  0  0
  1  2  1  0  0  0
  2  3  2  0  0  0
  3  4  1  0  0  0
  4  5  1  0  0  0
  5  6  1  0  0  0
  6  7  1  0  0  0
  7  8  1  0  0  0
  8  9  1  0  0  0
  9 10  1  0  0  0
 10 11  1  0  0  0
 20 21  1  0  0  0
M  END
> <minimizedAffinity>
-5.58312

$$$$
1G74_OLA_A_132


 21 20  0  0  0  0  0  0  0  0999 V2000
  -45.7614   72.8754   -8.2147 C   0  0  0  0  0  0  0  0  0  0  0  0
  -44.4416   72.7544   -8.7769 C   0  0  0  0  0  0  0  0  0  0  0  0
  -43.9749   71.6803   -9.5669 C   0  0  0  0  0  0  0  0  0  0  0  0
  -44.7069   70.4819   -9.9668 C   0  0  0  0  0  0  0  0  0  0  0  0
  -44.0682   69.2359   -9.4074 C   0  0  0  0  0  0  0  0  0  0  0  0
  -45.0748   68.1202   -9.3292 C   0  0  0  0  0  0  0  0  0  0  0  0
  -46.4837   68.6805   -9.4080 C   0  0  0  0  0  0  0  0  0  0  0  0
  -47.4760   67.9245   -8.5229 C   0  0  0  0  0  0  0  0  0  0  0  0
  -48.4129   67.0859   -9.3868 C   0  0  0  0  0  0  0  0  0  0  0  0
  -49.4186   67.9101  -10.2024 C   0  0  0  0  0  0  0  0  0  0  0  0
  -49.6797   67.2130  -11.5343 C   0  0  0  0  0  0  0  0  0  0  0  0
  -45.5711   72.6599   -6.7282 C   0  0  0  0  0  0  0  0  0  0  0  0
  -46.4799   71.6065   -6.1269 C   0  0  0  0  0  0  0  0  0  0  0  0
  -45.8168   70.2282   -6.2093 C   0  0  0  0  0  0  0  0  0  0  0  0
  -44.4421   70.2187   -5.5401 C   0  0  0  0  0  0  0  0  0  0  0  0
  -43.9100   68.8106   -5.5864 C   0  0  0  0  0  0  0  0  0  0  0  0
  -45.0122   67.7801   -5.4771 C   0  0  0  0  0  0  0  0  0  0  0  0
  -44.4972   66.4056   -5.7952 C   0  0  0  0  0  0  0  0  0  0  0  0
  -44.0223   66.1538   -6.8994 O   0  0  0  0  0  0  0  0  0  0  0  0
  -44.5637   65.5436   -4.9349 O   0  0  0  0  0  0  0  0  0  0  0  0
  -44.9278   65.7464   -4.0957 H   0  0  0  0  0  0  0  0  0  0  0  0
 18 19  2  0  0  0
 18 20  1  0  0  0
 18 17  1  0  0  0
 17 16  1  0  0  0
 16 15  1  0  0  0
 15 14  1  0  0  0
 14 13  1  0  0  0
 13 12  1  0  0  0
 12  1  1  0  0  0
  1  2  1  0  0  0
  2  3  2  0  0  0
  3  4  1  0  0  0
  4  5  1  0  0  0
  5  6  1  0  0  0
  6  7  1  0  0  0
  7  8  1  0  0  0
  8  9  1  0  0  0
  9 10  1  0  0  0
 10 11  1  0  0  0
 20 21  1  0  0  0
M  END
> <minimizedAffinity>
-5.56212

$$$$
1G74_OLA_A_132


 21 20  0  0  0  0  0  0  0  0999 V2000
  -44.2840   71.6511   -9.9889 C   0  0  0  0  0  0  0  0  0  0  0  0
  -44.2755   72.7335   -9.0397 C   0  0  0  0  0  0  0  0  0  0  0  0
  -45.3192   73.0557   -8.1440 C   0  0  0  0  0  0  0  0  0  0  0  0
  -46.6080   72.3854   -7.9962 C   0  0  0  0  0  0  0  0  0  0  0  0
  -46.4914   71.1551   -7.1325 C   0  0  0  0  0  0  0  0  0  0  0  0
  -46.6171   71.5211   -5.6784 C   0  0  0  0  0  0  0  0  0  0  0  0
  -45.4633   70.9294   -4.8886 C   0  0  0  0  0  0  0  0  0  0  0  0
  -44.3832   70.3153   -5.7808 C   0  0  0  0  0  0  0  0  0  0  0  0
  -44.0377   68.9120   -5.2923 C   0  0  0  0  0  0  0  0  0  0  0  0
  -45.2604   68.0436   -4.9656 C   0  0  0  0  0  0  0  0  0  0  0  0
  -45.8790   67.5345   -6.2642 C   0  0  0  0  0  0  0  0  0  0  0  0
  -43.3934   70.5909   -9.3763 C   0  0  0  0  0  0  0  0  0  0  0  0
  -43.9113   69.1746   -9.5273 C   0  0  0  0  0  0  0  0  0  0  0  0
  -45.3069   69.1874  -10.1584 C   0  0  0  0  0  0  0  0  0  0  0  0
  -46.0930   67.9195   -9.8235 C   0  0  0  0  0  0  0  0  0  0  0  0
  -47.4742   68.0586  -10.4072 C   0  0  0  0  0  0  0  0  0  0  0  0
  -47.7030   67.1110  -11.5642 C   0  0  0  0  0  0  0  0  0  0  0  0
  -49.1693   66.9526  -11.8482 C   0  0  0  0  0  0  0  0  0  0  0  0
  -49.6090   67.1127  -12.9836 O   0  0  0  0  0  0  0  0  0  0  0  0
  -49.9148   66.6652  -10.9267 O   0  0  0  0  0  0  0  0  0  0  0  0
  -49.5688   66.5453  -10.0642 H   0  0  0  0  0  0  0  0  0  0  0  0
 18 19  2  0  0  0
 18 20  1  0  0  0
 18 17  1  0  0  0
 17 16  1  0  0  0
 16 15  1  0  0  0
 15 14  1  0  0  0
 14 13  1  0  0  0
 13 12  1  0  0  0
 12  1  1  0  0  0
  1  2  1  0  0  0
  2  3  2  0  0  0
  3  4  1  0  0  0
  4  5  1  0  0  0
  5  6  1  0  0  0
  6  7  1  0  0  0
  7  8  1  0  0  0
  8  9  1  0  0  0
  9 10  1  0  0  0
 10 11  1  0  0  0
 20 21  1  0  0  0
M  END
> <minimizedAffinity>
-5.56127

$$$$
1G74_OLA_A_132


 21 20  0  0  0  0  0  0  0  0999 V2000
  -42.6347   70.5507   -9.4858 C   0  0  0  0  0  0  0  0  0  0  0  0
  -42.5240   71.2955   -8.2588 C   0  0  0  0  0  0  0  0  0  0  0  0
  -43.3095   72.4120   -7.8957 C   0  0  0  0  0  0  0  0  0  0  0  0
  -44.3716   73.0467   -8.6710 C   0  0  0  0  0  0  0  0  0  0  0  0
  -45.7295   72.7541   -8.0848 C   0  0  0  0  0  0  0  0  0  0  0  0
  -45.6401   72.6351   -6.5875 C   0  0  0  0  0  0  0  0  0  0  0  0
  -46.7162   71.6962   -6.0723 C   0  0  0  0  0  0  0  0  0  0  0  0
  -46.2025   70.7303   -5.0032 C   0  0  0  0  0  0  0  0  0  0  0  0
  -44.7136   70.4683   -5.2081 C   0  0  0  0  0  0  0  0  0  0  0  0
  -44.3804   69.0231   -5.6034 C   0  0  0  0  0  0  0  0  0  0  0  0
  -45.3202   68.0703   -4.8707 C   0  0  0  0  0  0  0  0  0  0  0  0
  -43.7906   69.5994   -9.2593 C   0  0  0  0  0  0  0  0  0  0  0  0
  -44.6045   69.2962  -10.5014 C   0  0  0  0  0  0  0  0  0  0  0  0
  -46.0461   68.9506  -10.1164 C   0  0  0  0  0  0  0  0  0  0  0  0
  -46.3093   69.1891   -8.6292 C   0  0  0  0  0  0  0  0  0  0  0  0
  -47.2216   68.0975   -8.1354 C   0  0  0  0  0  0  0  0  0  0  0  0
  -47.0833   66.8278   -8.9463 C   0  0  0  0  0  0  0  0  0  0  0  0
  -45.9717   65.9686   -8.4153 C   0  0  0  0  0  0  0  0  0  0  0  0
  -45.9155   65.6822   -7.2224 O   0  0  0  0  0  0  0  0  0  0  0  0
  -45.1239   65.5641   -9.1932 O   0  0  0  0  0  0  0  0  0  0  0  0
  -45.1762   65.7886  -10.1014 H   0  0  0  0  0  0  0  0  0  0  0  0
 18 19  2  0  0  0
 18 20  1  0  0  0
 18 17  1  0  0  0
 17 16  1  0  0  0
 16 15  1  0  0  0
 15 14  1  0  0  0
 14 13  1  0  0  0
 13 12  1  0  0  0
 12  1  1  0  0  0
  1  2  1  0  0  0
  2  3  2  0  0  0
  3  4  1  0  0  0
  4  5  1  0  0  0
  5  6  1  0  0  0
  6  7  1  0  0  0
  7  8  1  0  0  0
  8  9  1  0  0  0
  9 10  1  0  0  0
 10 11  1  0  0  0
 20 21  1  0  0  0
M  END
> <minimizedAffinity>
-5.51265

$$$$
1G74_OLA_A_132


 21 20  0  0  0  0  0  0  0  0999 V2000
  -44.2062   72.5016   -8.3465 C   0  0  0  0  0  0  0  0  0  0  0  0
  -42.9880   71.8041   -8.0273 C   0  0  0  0  0  0  0  0  0  0  0  0
  -42.7974   70.9318   -6.9326 C   0  0  0  0  0  0  0  0  0  0  0  0
  -43.7665   70.5646   -5.9040 C   0  0  0  0  0  0  0  0  0  0  0  0
  -44.4343   69.2509   -6.2224 C   0  0  0  0  0  0  0  0  0  0  0  0
  -45.9308   69.3941   -6.1592 C   0  0  0  0  0  0  0  0  0  0  0  0
  -46.3032   70.7904   -5.6934 C   0  0  0  0  0  0  0  0  0  0  0  0
  -47.3878   71.4370   -6.5566 C   0  0  0  0  0  0  0  0  0  0  0  0
  -48.1500   72.4791   -5.7440 C   0  0  0  0  0  0  0  0  0  0  0  0
  -49.4312   72.9864   -6.4200 C   0  0  0  0  0  0  0  0  0  0  0  0
  -49.7561   72.0973   -7.6168 C   0  0  0  0  0  0  0  0  0  0  0  0
  -44.9572   71.5675   -9.2716 C   0  0  0  0  0  0  0  0  0  0  0  0
  -44.0693   70.6925  -10.1335 C   0  0  0  0  0  0  0  0  0  0  0  0
  -44.6401   69.2731  -10.2086 C   0  0  0  0  0  0  0  0  0  0  0  0
  -46.0801   69.2126   -9.6981 C   0  0  0  0  0  0  0  0  0  0  0  0
  -46.6555   67.8747  -10.0814 C   0  0  0  0  0  0  0  0  0  0  0  0
  -47.1373   67.0948   -8.8779 C   0  0  0  0  0  0  0  0  0  0  0  0
  -46.0515   66.2053   -8.3433 C   0  0  0  0  0  0  0  0  0  0  0  0
  -45.9561   65.9870   -7.1386 O   0  0  0  0  0  0  0  0  0  0  0  0
  -45.2644   65.7071   -9.1305 O   0  0  0  0  0  0  0  0  0  0  0  0
  -45.3462   65.8803  -10.0478 H   0  0  0  0  0  0  0  0  0  0  0  0
 18 19  2  0  0  0
 18 20  1  0  0  0
 18 17  1  0  0  0
 17 16  1  0  0  0
 16 15  1  0  0  0
 15 14  1  0  0  0
 14 13  1  0  0  0
 13 12  1  0  0  0
 12  1  1  0  0  0
  1  2  1  0  0  0
  2  3  2  0  0  0
  3  4  1  0  0  0
  4  5  1  0  0  0
  5  6  1  0  0  0
  6  7  1  0  0  0
  7  8  1  0  0  0
  8  9  1  0  0  0
  9 10  1  0  0  0
 10 11  1  0  0  0
 20 21  1  0  0  0
M  END
> <minimizedAffinity>
-5.49824

$$$$
1G74_OLA_A_132


 21 20  0  0  0  0  0  0  0  0999 V2000
  -44.3391   71.0647  -10.1890 C   0  0  0  0  0  0  0  0  0  0  0  0
  -42.9783   71.1722   -9.7315 C   0  0  0  0  0  0  0  0  0  0  0  0
  -42.5702   71.4137   -8.4009 C   0  0  0  0  0  0  0  0  0  0  0  0
  -43.4180   71.6138   -7.2291 C   0  0  0  0  0  0  0  0  0  0  0  0
  -43.6108   70.3286   -6.4647 C   0  0  0  0  0  0  0  0  0  0  0  0
  -44.7608   70.4576   -5.5029 C   0  0  0  0  0  0  0  0  0  0  0  0
  -45.6544   71.6161   -5.9087 C   0  0  0  0  0  0  0  0  0  0  0  0
  -47.0205   71.1622   -6.4260 C   0  0  0  0  0  0  0  0  0  0  0  0
  -47.6991   72.3023   -7.1789 C   0  0  0  0  0  0  0  0  0  0  0  0
  -49.1751   72.5056   -6.8101 C   0  0  0  0  0  0  0  0  0  0  0  0
  -49.2656   73.3013   -5.5114 C   0  0  0  0  0  0  0  0  0  0  0  0
  -44.6415   69.5814  -10.1618 C   0  0  0  0  0  0  0  0  0  0  0  0
  -45.8220   69.1989   -9.2917 C   0  0  0  0  0  0  0  0  0  0  0  0
  -45.8123   67.6912   -9.0220 C   0  0  0  0  0  0  0  0  0  0  0  0
  -47.1874   67.0641   -9.2539 C   0  0  0  0  0  0  0  0  0  0  0  0
  -47.6280   67.4089  -10.6521 C   0  0  0  0  0  0  0  0  0  0  0  0
  -49.1087   67.1765  -10.8575 C   0  0  0  0  0  0  0  0  0  0  0  0
  -49.4208   66.9444  -12.3082 C   0  0  0  0  0  0  0  0  0  0  0  0
  -50.5370   66.5698  -12.6574 O   0  0  0  0  0  0  0  0  0  0  0  0
  -48.5413   67.1323  -13.1320 O   0  0  0  0  0  0  0  0  0  0  0  0
  -47.6931   67.4181  -12.8547 H   0  0  0  0  0  0  0  0  0  0  0  0
 18 19  2  0  0  0
 18 20  1  0  0  0
 18 17  1  0  0  0
 17 16  1  0  0  0
 16 15  1  0  0  0
 15 14  1  0  0  0
 14 13  1  0  0  0
 13 12  1  0  0  0
 12  1  1  0  0  0
  1  2  1  0  0  0
  2  3  2  0  0  0
  3  4  1  0  0  0
  4  5  1  0  0  0
  5  6  1  0  0  0
  6  7  1  0  0  0
  7  8  1  0  0  0
  8  9  1  0  0  0
  9 10  1  0  0  0
 10 11  1  0  0  0
 20 21  1  0  0  0
M  END
> <minimizedAffinity>
-5.49234

$$$$
1G74_OLA_A_132


 21 20  0  0  0  0  0  0  0  0999 V2000
  -44.5598   67.5391   -5.6471 C   0  0  0  0  0  0  0  0  0  0  0  0
  -43.8205   68.7742   -5.6665 C   0  0  0  0  0  0  0  0  0  0  0  0
  -44.3519   70.0597   -5.4206 C   0  0  0  0  0  0  0  0  0  0  0  0
  -45.7353   70.4101   -5.1120 C   0  0  0  0  0  0  0  0  0  0  0  0
  -46.2012   71.5845   -5.9348 C   0  0  0  0  0  0  0  0  0  0  0  0
  -46.1529   71.2500   -7.4010 C   0  0  0  0  0  0  0  0  0  0  0  0
  -45.3853   72.3200   -8.1565 C   0  0  0  0  0  0  0  0  0  0  0  0
  -44.7773   71.8069   -9.4630 C   0  0  0  0  0  0  0  0  0  0  0  0
  -44.3561   70.3491   -9.3060 C   0  0  0  0  0  0  0  0  0  0  0  0
  -42.8703   70.1589   -8.9713 C   0  0  0  0  0  0  0  0  0  0  0  0
  -42.4696   68.7147   -9.2577 C   0  0  0  0  0  0  0  0  0  0  0  0
  -45.1433   67.4143   -7.0386 C   0  0  0  0  0  0  0  0  0  0  0  0
  -46.6566   67.4798   -7.0912 C   0  0  0  0  0  0  0  0  0  0  0  0
  -47.1604   66.9663   -8.4434 C   0  0  0  0  0  0  0  0  0  0  0  0
  -46.1515   67.2286   -9.5620 C   0  0  0  0  0  0  0  0  0  0  0  0
  -46.8696   67.9326  -10.6830 C   0  0  0  0  0  0  0  0  0  0  0  0
  -48.2715   67.4010  -10.8854 C   0  0  0  0  0  0  0  0  0  0  0  0
  -48.4887   66.9860  -12.3125 C   0  0  0  0  0  0  0  0  0  0  0  0
  -49.6219   66.9211  -12.7811 O   0  0  0  0  0  0  0  0  0  0  0  0
  -47.5160   66.7114  -12.9951 O   0  0  0  0  0  0  0  0  0  0  0  0
  -46.6557   66.7643  -12.6277 H   0  0  0  0  0  0  0  0  0  0  0  0
 18 19  2  0  0  0
 18 20  1  0  0  0
 18 17  1  0  0  0
 17 16  1  0  0  0
 16 15  1  0  0  0
 15 14  1  0  0  0
 14 13  1  0  0  0
 13 12  1  0  0  0
 12  1  1  0  0  0
  1  2  1  0  0  0
  2  3  2  0  0  0
  3  4  1  0  0  0
  4  5  1  0  0  0
  5  6  1  0  0  0
  6  7  1  0  0  0
  7  8  1  0  0  0
  8  9  1  0  0  0
  9 10  1  0  0  0
 10 11  1  0  0  0
 20 21  1  0  0  0
M  END
> <minimizedAffinity>
-5.46361

$$$$
