4BAO_MVF_B_1287


 38 40  0  0  0  0  0  0  0  0999 V2000
   18.1432  -13.3138   22.2350 C   0  0  0  0  0  0  0  0  0  0  0  0
   17.1008  -12.7693   22.5533 O   0  0  0  0  0  0  0  0  0  0  0  0
   18.8571  -12.8205   21.1950 N   0  0  0  0  0  0  0  0  0  0  0  0
   18.5492  -11.7563   20.2274 C   0  0  0  0  0  0  0  0  0  0  0  0
   19.6914  -12.2197   19.2993 C   0  0  0  0  0  0  0  0  0  0  0  0
   20.0760  -13.1700   20.4377 C   0  0  0  0  0  0  0  0  0  0  0  0
   17.1445  -12.0517   19.7528 C   0  0  0  0  0  0  0  0  0  0  0  0
   16.8361  -13.2153   19.5609 O   0  0  0  0  0  0  0  0  0  0  0  0
   16.2127  -11.0745   19.7201 N   0  0  0  0  0  0  0  0  0  0  0  0
   16.4572  -10.1472   19.9427 H   0  0  0  0  0  0  0  0  0  0  0  0
   14.8382  -11.4065   19.3513 C   0  0  0  0  0  0  0  0  0  0  0  0
   13.9162  -11.1426   20.5129 C   0  0  0  0  0  0  0  0  0  0  0  0
   13.8649   -9.8829   21.0948 C   0  0  0  0  0  0  0  0  0  0  0  0
   13.0326   -9.6563   22.1839 C   0  0  0  0  0  0  0  0  0  0  0  0
   12.2248  -10.7060   22.6726 C   0  0  0  0  0  0  0  0  0  0  0  0
   12.2783  -11.9721   22.0625 C   0  0  0  0  0  0  0  0  0  0  0  0
   13.1193  -12.1786   20.9845 C   0  0  0  0  0  0  0  0  0  0  0  0
   11.3271  -10.4971   23.8389 C   0  0  0  0  0  0  0  0  0  0  0  0
   11.1259   -9.2324   24.3718 N   0  0  0  0  0  0  0  0  0  0  0  0
   10.7381  -11.5152   24.4024 N   0  0  0  0  0  0  0  0  0  0  0  0
   11.5611   -8.4504   23.9615 H   0  0  0  0  0  0  0  0  0  0  0  0
   10.5477   -9.1167   25.1602 H   0  0  0  0  0  0  0  0  0  0  0  0
   10.8677  -12.4213   24.0400 H   0  0  0  0  0  0  0  0  0  0  0  0
   18.5630  -14.5167   23.0308 C   0  0  0  0  0  0  0  0  0  0  0  0
   19.1025  -14.0102   24.3832 C   0  0  0  0  0  0  0  0  0  0  0  0
   19.3802  -15.1914   25.3324 C   0  0  0  0  0  0  0  0  0  0  0  0
   19.8879  -14.6356   26.6720 C   0  0  0  0  0  0  0  0  0  0  0  0
   21.1892  -13.8367   26.4657 C   0  0  0  0  0  0  0  0  0  0  0  0
   20.9443  -12.6373   25.5433 C   0  0  0  0  0  0  0  0  0  0  0  0
   20.3769  -13.1454   24.2005 C   0  0  0  0  0  0  0  0  0  0  0  0
   17.3582  -15.3785   23.1927 N   0  0  0  0  0  0  0  0  0  0  0  0
   16.5519  -14.7665   23.3174 H   0  0  0  0  0  0  0  0  0  0  0  0
   17.0573  -16.3027   22.0658 C   0  0  0  0  0  0  0  0  0  0  0  0
   15.6351  -16.1259   21.5615 C   0  0  0  0  0  0  0  0  0  0  0  0
   14.9798  -17.0538   21.1208 O   0  0  0  0  0  0  0  0  0  0  0  0
   15.0615  -14.9077   21.5784 N   0  0  0  0  0  0  0  0  0  0  0  0
   15.5600  -14.1337   21.9272 H   0  0  0  0  0  0  0  0  0  0  0  0
   14.1436  -14.7911   21.2421 H   0  0  0  0  0  0  0  0  0  0  0  0
 25 26  1  0  0  0
 25 30  1  0  0  0
 25 24  1  0  0  0
 26 27  1  0  0  0
 27 28  1  0  0  0
 28 29  1  0  0  0
 29 30  1  0  0  0
 31 24  1  0  0  0
 31 33  1  0  0  0
 24  1  1  0  0  0
  1  2  2  0  0  0
  1  3  1  0  0  0
  3  4  1  0  0  0
  3  6  1  0  0  0
  4  7  1  0  0  0
  4  5  1  0  0  0
  7  8  2  0  0  0
  7  9  1  0  0  0
  9 11  1  0  0  0
 11 12  1  0  0  0
 12 17  2  0  0  0
 12 13  1  0  0  0
 17 16  1  0  0  0
 16 15  2  0  0  0
 15 14  1  0  0  0
 15 18  1  0  0  0
 14 13  2  0  0  0
 18 20  2  0  0  0
 18 19  1  0  0  0
  5  6  1  0  0  0
 33 34  1  0  0  0
 34 35  2  0  0  0
 34 36  1  0  0  0
 31 32  1  0  0  0
  9 10  1  0  0  0
 19 21  1  0  0  0
 19 22  1  0  0  0
 20 23  1  0  0  0
 36 37  1  0  0  0
 36 38  1  0  0  0
M  END
> <minimizedAffinity>
-10.32409

$$$$
4BAO_MVF_B_1287


 38 40  0  0  0  0  0  0  0  0999 V2000
   17.8565  -13.5288   22.0881 C   0  0  0  0  0  0  0  0  0  0  0  0
   16.8624  -12.9029   22.4112 O   0  0  0  0  0  0  0  0  0  0  0  0
   18.7315  -12.9767   21.2141 N   0  0  0  0  0  0  0  0  0  0  0  0
   18.6619  -11.7354   20.4282 C   0  0  0  0  0  0  0  0  0  0  0  0
   19.8287  -12.1959   19.5296 C   0  0  0  0  0  0  0  0  0  0  0  0
   19.9702  -13.3650   20.5096 C   0  0  0  0  0  0  0  0  0  0  0  0
   17.2890  -11.7480   19.7951 C   0  0  0  0  0  0  0  0  0  0  0  0
   16.9739  -12.7176   19.1267 O   0  0  0  0  0  0  0  0  0  0  0  0
   16.3796  -10.8010   20.1119 N   0  0  0  0  0  0  0  0  0  0  0  0
   16.6246  -10.0567   20.7079 H   0  0  0  0  0  0  0  0  0  0  0  0
   15.0288  -10.8915   19.5619 C   0  0  0  0  0  0  0  0  0  0  0  0
   14.0156  -10.8323   20.6750 C   0  0  0  0  0  0  0  0  0  0  0  0
   13.5862   -9.6070   21.1673 C   0  0  0  0  0  0  0  0  0  0  0  0
   12.6728   -9.5624   22.2132 C   0  0  0  0  0  0  0  0  0  0  0  0
   12.1687  -10.7675   22.7487 C   0  0  0  0  0  0  0  0  0  0  0  0
   12.6033  -11.9999   22.2288 C   0  0  0  0  0  0  0  0  0  0  0  0
   13.5188  -12.0222   21.1928 C   0  0  0  0  0  0  0  0  0  0  0  0
   11.1938  -10.7538   23.8710 C   0  0  0  0  0  0  0  0  0  0  0  0
   10.6520  -11.9312   24.3649 N   0  0  0  0  0  0  0  0  0  0  0  0
   10.8064   -9.6208   24.3878 N   0  0  0  0  0  0  0  0  0  0  0  0
   10.9309  -12.7972   23.9888 H   0  0  0  0  0  0  0  0  0  0  0  0
    9.9886  -11.9009   25.0917 H   0  0  0  0  0  0  0  0  0  0  0  0
   11.1785   -8.7736   24.0517 H   0  0  0  0  0  0  0  0  0  0  0  0
   18.0373  -14.8932   22.6902 C   0  0  0  0  0  0  0  0  0  0  0  0
   17.7997  -15.9268   21.5713 C   0  0  0  0  0  0  0  0  0  0  0  0
   18.6782  -17.1732   21.7897 C   0  0  0  0  0  0  0  0  0  0  0  0
   18.4272  -18.1586   20.6377 C   0  0  0  0  0  0  0  0  0  0  0  0
   16.9465  -18.5836   20.6048 C   0  0  0  0  0  0  0  0  0  0  0  0
   16.0428  -17.3691   20.3649 C   0  0  0  0  0  0  0  0  0  0  0  0
   16.3039  -16.3239   21.4706 C   0  0  0  0  0  0  0  0  0  0  0  0
   19.4255  -14.9553   23.2283 N   0  0  0  0  0  0  0  0  0  0  0  0
   20.0508  -14.5662   22.5226 H   0  0  0  0  0  0  0  0  0  0  0  0
   19.6678  -14.2255   24.5023 C   0  0  0  0  0  0  0  0  0  0  0  0
   20.8673  -13.2992   24.3973 C   0  0  0  0  0  0  0  0  0  0  0  0
   20.9350  -12.2482   25.0100 O   0  0  0  0  0  0  0  0  0  0  0  0
   21.8988  -13.6220   23.5940 N   0  0  0  0  0  0  0  0  0  0  0  0
   21.8801  -14.4632   23.0828 H   0  0  0  0  0  0  0  0  0  0  0  0
   22.6716  -13.0169   23.5179 H   0  0  0  0  0  0  0  0  0  0  0  0
 25 26  1  0  0  0
 25 30  1  0  0  0
 25 24  1  0  0  0
 26 27  1  0  0  0
 27 28  1  0  0  0
 28 29  1  0  0  0
 29 30  1  0  0  0
 31 24  1  0  0  0
 31 33  1  0  0  0
 24  1  1  0  0  0
  1  2  2  0  0  0
  1  3  1  0  0  0
  3  4  1  0  0  0
  3  6  1  0  0  0
  4  7  1  0  0  0
  4  5  1  0  0  0
  7  8  2  0  0  0
  7  9  1  0  0  0
  9 11  1  0  0  0
 11 12  1  0  0  0
 12 17  2  0  0  0
 12 13  1  0  0  0
 17 16  1  0  0  0
 16 15  2  0  0  0
 15 14  1  0  0  0
 15 18  1  0  0  0
 14 13  2  0  0  0
 18 20  2  0  0  0
 18 19  1  0  0  0
  5  6  1  0  0  0
 33 34  1  0  0  0
 34 35  2  0  0  0
 34 36  1  0  0  0
 31 32  1  0  0  0
  9 10  1  0  0  0
 19 21  1  0  0  0
 19 22  1  0  0  0
 20 23  1  0  0  0
 36 37  1  0  0  0
 36 38  1  0  0  0
M  END
> <minimizedAffinity>
-8.70790

$$$$
4BAO_MVF_B_1287


 38 40  0  0  0  0  0  0  0  0999 V2000
   19.4733  -14.8247   21.6128 C   0  0  0  0  0  0  0  0  0  0  0  0
   19.6381  -13.9165   20.8176 O   0  0  0  0  0  0  0  0  0  0  0  0
   18.3146  -15.5256   21.5865 N   0  0  0  0  0  0  0  0  0  0  0  0
   17.0780  -15.3235   20.8163 C   0  0  0  0  0  0  0  0  0  0  0  0
   16.3052  -16.2947   21.7329 C   0  0  0  0  0  0  0  0  0  0  0  0
   17.6680  -16.6049   22.3602 C   0  0  0  0  0  0  0  0  0  0  0  0
   16.7518  -13.8558   20.9757 C   0  0  0  0  0  0  0  0  0  0  0  0
   17.1961  -13.2713   21.9489 O   0  0  0  0  0  0  0  0  0  0  0  0
   16.1431  -13.1770   19.9792 N   0  0  0  0  0  0  0  0  0  0  0  0
   15.8476  -13.6471   19.1662 H   0  0  0  0  0  0  0  0  0  0  0  0
   15.9274  -11.7385   20.1190 C   0  0  0  0  0  0  0  0  0  0  0  0
   14.7157  -11.4813   20.9761 C   0  0  0  0  0  0  0  0  0  0  0  0
   14.3124  -10.1806   21.2472 C   0  0  0  0  0  0  0  0  0  0  0  0
   13.2105   -9.9526   22.0621 C   0  0  0  0  0  0  0  0  0  0  0  0
   12.4937  -11.0503   22.5862 C   0  0  0  0  0  0  0  0  0  0  0  0
   12.9072  -12.3615   22.2901 C   0  0  0  0  0  0  0  0  0  0  0  0
   14.0113  -12.5664   21.4833 C   0  0  0  0  0  0  0  0  0  0  0  0
   11.3132  -10.8400   23.4649 C   0  0  0  0  0  0  0  0  0  0  0  0
   10.4128  -11.8651   23.7141 N   0  0  0  0  0  0  0  0  0  0  0  0
   11.0887   -9.6676   23.9904 N   0  0  0  0  0  0  0  0  0  0  0  0
   10.5636  -12.7577   23.3270 H   0  0  0  0  0  0  0  0  0  0  0  0
    9.6229  -11.7002   24.2781 H   0  0  0  0  0  0  0  0  0  0  0  0
   11.7154   -8.9263   23.8259 H   0  0  0  0  0  0  0  0  0  0  0  0
   20.5856  -15.1000   22.5842 C   0  0  0  0  0  0  0  0  0  0  0  0
   20.2751  -14.3173   23.8756 C   0  0  0  0  0  0  0  0  0  0  0  0
   20.2246  -15.2681   25.0866 C   0  0  0  0  0  0  0  0  0  0  0  0
   19.8855  -14.4478   26.3408 C   0  0  0  0  0  0  0  0  0  0  0  0
   20.9603  -13.3717   26.5881 C   0  0  0  0  0  0  0  0  0  0  0  0
   21.0219  -12.3918   25.4110 C   0  0  0  0  0  0  0  0  0  0  0  0
   21.3043  -13.1821   24.1153 C   0  0  0  0  0  0  0  0  0  0  0  0
   20.6154  -16.5723   22.8119 N   0  0  0  0  0  0  0  0  0  0  0  0
   19.8220  -16.9801   22.3174 H   0  0  0  0  0  0  0  0  0  0  0  0
   21.8443  -17.2804   22.3616 C   0  0  0  0  0  0  0  0  0  0  0  0
   21.7629  -17.6647   20.8941 C   0  0  0  0  0  0  0  0  0  0  0  0
   20.7138  -17.9785   20.3597 O   0  0  0  0  0  0  0  0  0  0  0  0
   22.8781  -17.6806   20.1396 N   0  0  0  0  0  0  0  0  0  0  0  0
   23.7445  -17.4333   20.5364 H   0  0  0  0  0  0  0  0  0  0  0  0
   22.8272  -17.9396   19.1911 H   0  0  0  0  0  0  0  0  0  0  0  0
 25 26  1  0  0  0
 25 30  1  0  0  0
 25 24  1  0  0  0
 26 27  1  0  0  0
 27 28  1  0  0  0
 28 29  1  0  0  0
 29 30  1  0  0  0
 31 24  1  0  0  0
 31 33  1  0  0  0
 24  1  1  0  0  0
  1  2  2  0  0  0
  1  3  1  0  0  0
  3  4  1  0  0  0
  3  6  1  0  0  0
  4  7  1  0  0  0
  4  5  1  0  0  0
  7  8  2  0  0  0
  7  9  1  0  0  0
  9 11  1  0  0  0
 11 12  1  0  0  0
 12 17  2  0  0  0
 12 13  1  0  0  0
 17 16  1  0  0  0
 16 15  2  0  0  0
 15 14  1  0  0  0
 15 18  1  0  0  0
 14 13  2  0  0  0
 18 20  2  0  0  0
 18 19  1  0  0  0
  5  6  1  0  0  0
 33 34  1  0  0  0
 34 35  2  0  0  0
 34 36  1  0  0  0
 31 32  1  0  0  0
  9 10  1  0  0  0
 19 21  1  0  0  0
 19 22  1  0  0  0
 20 23  1  0  0  0
 36 37  1  0  0  0
 36 38  1  0  0  0
M  END
> <minimizedAffinity>
-8.13857

$$$$
4BAO_MVF_B_1287


 38 40  0  0  0  0  0  0  0  0999 V2000
   17.7103  -13.7210   22.0013 C   0  0  0  0  0  0  0  0  0  0  0  0
   16.8411  -13.0886   22.5746 O   0  0  0  0  0  0  0  0  0  0  0  0
   18.5770  -13.0694   21.1895 N   0  0  0  0  0  0  0  0  0  0  0  0
   18.6123  -11.6714   20.7339 C   0  0  0  0  0  0  0  0  0  0  0  0
   19.6268  -12.0203   19.6250 C   0  0  0  0  0  0  0  0  0  0  0  0
   19.6884  -13.4053   20.2768 C   0  0  0  0  0  0  0  0  0  0  0  0
   17.2027  -11.3719   20.2763 C   0  0  0  0  0  0  0  0  0  0  0  0
   16.8483  -10.2063   20.2337 O   0  0  0  0  0  0  0  0  0  0  0  0
   16.4277  -12.3500   19.7597 N   0  0  0  0  0  0  0  0  0  0  0  0
   16.7505  -13.2798   19.7370 H   0  0  0  0  0  0  0  0  0  0  0  0
   15.1057  -12.0153   19.2347 C   0  0  0  0  0  0  0  0  0  0  0  0
   14.1536  -11.7489   20.3712 C   0  0  0  0  0  0  0  0  0  0  0  0
   13.8264  -12.7615   21.2633 C   0  0  0  0  0  0  0  0  0  0  0  0
   12.9254  -12.5143   22.2916 C   0  0  0  0  0  0  0  0  0  0  0  0
   12.3704  -11.2241   22.4353 C   0  0  0  0  0  0  0  0  0  0  0  0
   12.7236  -10.2059   21.5316 C   0  0  0  0  0  0  0  0  0  0  0  0
   13.6162  -10.4751   20.5104 C   0  0  0  0  0  0  0  0  0  0  0  0
   11.4002  -10.9286   23.5222 C   0  0  0  0  0  0  0  0  0  0  0  0
   11.1991   -9.6318   23.9713 N   0  0  0  0  0  0  0  0  0  0  0  0
   10.7443  -11.8990   24.0960 N   0  0  0  0  0  0  0  0  0  0  0  0
   11.6843   -8.8849   23.5519 H   0  0  0  0  0  0  0  0  0  0  0  0
   10.5712   -9.4583   24.7094 H   0  0  0  0  0  0  0  0  0  0  0  0
   10.8725  -12.8267   23.7924 H   0  0  0  0  0  0  0  0  0  0  0  0
   17.7529  -15.2039   22.2378 C   0  0  0  0  0  0  0  0  0  0  0  0
   18.6295  -15.4480   23.4822 C   0  0  0  0  0  0  0  0  0  0  0  0
   18.8541  -14.1333   24.2531 C   0  0  0  0  0  0  0  0  0  0  0  0
   19.7534  -14.4224   25.4650 C   0  0  0  0  0  0  0  0  0  0  0  0
   19.0846  -15.4483   26.4001 C   0  0  0  0  0  0  0  0  0  0  0  0
   18.8672  -16.7793   25.6717 C   0  0  0  0  0  0  0  0  0  0  0  0
   18.0134  -16.5268   24.4106 C   0  0  0  0  0  0  0  0  0  0  0  0
   16.3479  -15.6566   22.4415 N   0  0  0  0  0  0  0  0  0  0  0  0
   15.7605  -14.8260   22.5148 H   0  0  0  0  0  0  0  0  0  0  0  0
   15.7777  -16.5238   21.3751 C   0  0  0  0  0  0  0  0  0  0  0  0
   14.3224  -16.8636   21.6486 C   0  0  0  0  0  0  0  0  0  0  0  0
   13.5048  -16.0188   21.9684 O   0  0  0  0  0  0  0  0  0  0  0  0
   13.8998  -18.1388   21.5548 N   0  0  0  0  0  0  0  0  0  0  0  0
   14.5316  -18.8492   21.2989 H   0  0  0  0  0  0  0  0  0  0  0  0
   12.9591  -18.3607   21.7420 H   0  0  0  0  0  0  0  0  0  0  0  0
 25 26  1  0  0  0
 25 30  1  0  0  0
 25 24  1  0  0  0
 26 27  1  0  0  0
 27 28  1  0  0  0
 28 29  1  0  0  0
 29 30  1  0  0  0
 31 24  1  0  0  0
 31 33  1  0  0  0
 24  1  1  0  0  0
  1  2  2  0  0  0
  1  3  1  0  0  0
  3  4  1  0  0  0
  3  6  1  0  0  0
  4  7  1  0  0  0
  4  5  1  0  0  0
  7  8  2  0  0  0
  7  9  1  0  0  0
  9 11  1  0  0  0
 11 12  1  0  0  0
 12 17  2  0  0  0
 12 13  1  0  0  0
 17 16  1  0  0  0
 16 15  2  0  0  0
 15 14  1  0  0  0
 15 18  1  0  0  0
 14 13  2  0  0  0
 18 20  2  0  0  0
 18 19  1  0  0  0
  5  6  1  0  0  0
 33 34  1  0  0  0
 34 35  2  0  0  0
 34 36  1  0  0  0
 31 32  1  0  0  0
  9 10  1  0  0  0
 19 21  1  0  0  0
 19 22  1  0  0  0
 20 23  1  0  0  0
 36 37  1  0  0  0
 36 38  1  0  0  0
M  END
> <minimizedAffinity>
-8.05823

$$$$
4BAO_MVF_B_1287


 38 40  0  0  0  0  0  0  0  0999 V2000
   19.9214  -16.5841   22.5078 C   0  0  0  0  0  0  0  0  0  0  0  0
   20.0571  -16.6536   21.2991 O   0  0  0  0  0  0  0  0  0  0  0  0
   18.7307  -16.9177   23.0606 N   0  0  0  0  0  0  0  0  0  0  0  0
   17.4389  -17.2583   22.4452 C   0  0  0  0  0  0  0  0  0  0  0  0
   16.7070  -17.0693   23.7903 C   0  0  0  0  0  0  0  0  0  0  0  0
   18.1052  -16.9203   24.3985 C   0  0  0  0  0  0  0  0  0  0  0  0
   17.2056  -16.1870   21.4041 C   0  0  0  0  0  0  0  0  0  0  0  0
   16.8926  -16.5379   20.2794 O   0  0  0  0  0  0  0  0  0  0  0  0
   17.1671  -14.8842   21.7583 N   0  0  0  0  0  0  0  0  0  0  0  0
   17.3557  -14.6159   22.6865 H   0  0  0  0  0  0  0  0  0  0  0  0
   16.8427  -13.8766   20.7508 C   0  0  0  0  0  0  0  0  0  0  0  0
   15.5942  -13.1342   21.1496 C   0  0  0  0  0  0  0  0  0  0  0  0
   15.5291  -11.7531   21.0219 C   0  0  0  0  0  0  0  0  0  0  0  0
   14.3839  -11.0740   21.4188 C   0  0  0  0  0  0  0  0  0  0  0  0
   13.2843  -11.8005   21.9250 C   0  0  0  0  0  0  0  0  0  0  0  0
   13.3615  -13.2005   22.0344 C   0  0  0  0  0  0  0  0  0  0  0  0
   14.5135  -13.8564   21.6409 C   0  0  0  0  0  0  0  0  0  0  0  0
   12.0464  -11.1031   22.3624 C   0  0  0  0  0  0  0  0  0  0  0  0
   11.1094  -11.7394   23.1629 N   0  0  0  0  0  0  0  0  0  0  0  0
   11.8077   -9.8834   21.9671 N   0  0  0  0  0  0  0  0  0  0  0  0
   11.2702  -12.6601   23.4722 H   0  0  0  0  0  0  0  0  0  0  0  0
   10.2834  -11.2704   23.4218 H   0  0  0  0  0  0  0  0  0  0  0  0
   12.4598   -9.4137   21.3984 H   0  0  0  0  0  0  0  0  0  0  0  0
   21.1048  -16.1199   23.3082 C   0  0  0  0  0  0  0  0  0  0  0  0
   20.6158  -14.9994   24.2476 C   0  0  0  0  0  0  0  0  0  0  0  0
   20.8374  -15.3922   25.7206 C   0  0  0  0  0  0  0  0  0  0  0  0
   20.3104  -14.2594   26.6151 C   0  0  0  0  0  0  0  0  0  0  0  0
   21.0637  -12.9473   26.3234 C   0  0  0  0  0  0  0  0  0  0  0  0
   20.8456  -12.5129   24.8698 C   0  0  0  0  0  0  0  0  0  0  0  0
   21.3094  -13.6485   23.9324 C   0  0  0  0  0  0  0  0  0  0  0  0
   21.6173  -17.3003   24.0594 N   0  0  0  0  0  0  0  0  0  0  0  0
   20.9833  -18.0800   23.8846 H   0  0  0  0  0  0  0  0  0  0  0  0
   22.9942  -17.7483   23.7160 C   0  0  0  0  0  0  0  0  0  0  0  0
   23.9605  -16.5786   23.6394 C   0  0  0  0  0  0  0  0  0  0  0  0
   24.3756  -16.1443   22.5793 O   0  0  0  0  0  0  0  0  0  0  0  0
   24.3999  -15.9933   24.7698 N   0  0  0  0  0  0  0  0  0  0  0  0
   24.0868  -16.3167   25.6453 H   0  0  0  0  0  0  0  0  0  0  0  0
   25.0342  -15.2419   24.7206 H   0  0  0  0  0  0  0  0  0  0  0  0
 25 26  1  0  0  0
 25 30  1  0  0  0
 25 24  1  0  0  0
 26 27  1  0  0  0
 27 28  1  0  0  0
 28 29  1  0  0  0
 29 30  1  0  0  0
 31 24  1  0  0  0
 31 33  1  0  0  0
 24  1  1  0  0  0
  1  2  2  0  0  0
  1  3  1  0  0  0
  3  4  1  0  0  0
  3  6  1  0  0  0
  4  7  1  0  0  0
  4  5  1  0  0  0
  7  8  2  0  0  0
  7  9  1  0  0  0
  9 11  1  0  0  0
 11 12  1  0  0  0
 12 17  2  0  0  0
 12 13  1  0  0  0
 17 16  1  0  0  0
 16 15  2  0  0  0
 15 14  1  0  0  0
 15 18  1  0  0  0
 14 13  2  0  0  0
 18 20  2  0  0  0
 18 19  1  0  0  0
  5  6  1  0  0  0
 33 34  1  0  0  0
 34 35  2  0  0  0
 34 36  1  0  0  0
 31 32  1  0  0  0
  9 10  1  0  0  0
 19 21  1  0  0  0
 19 22  1  0  0  0
 20 23  1  0  0  0
 36 37  1  0  0  0
 36 38  1  0  0  0
M  END
> <minimizedAffinity>
-7.81699

$$$$
4BAO_MVF_B_1287


 38 40  0  0  0  0  0  0  0  0999 V2000
   21.2103  -17.5949   23.8938 C   0  0  0  0  0  0  0  0  0  0  0  0
   21.2106  -18.0775   22.7752 O   0  0  0  0  0  0  0  0  0  0  0  0
   20.3921  -18.1157   24.8393 N   0  0  0  0  0  0  0  0  0  0  0  0
   19.3428  -19.1427   24.7527 C   0  0  0  0  0  0  0  0  0  0  0  0
   18.7816  -18.7376   26.1317 C   0  0  0  0  0  0  0  0  0  0  0  0
   20.0125  -17.8317   26.2381 C   0  0  0  0  0  0  0  0  0  0  0  0
   18.5089  -18.7517   23.5537 C   0  0  0  0  0  0  0  0  0  0  0  0
   18.2858  -19.6009   22.7080 O   0  0  0  0  0  0  0  0  0  0  0  0
   17.8826  -17.5557   23.5153 N   0  0  0  0  0  0  0  0  0  0  0  0
   18.0166  -16.9013   24.2385 H   0  0  0  0  0  0  0  0  0  0  0  0
   17.0042  -17.2421   22.3903 C   0  0  0  0  0  0  0  0  0  0  0  0
   17.3798  -15.9076   21.8013 C   0  0  0  0  0  0  0  0  0  0  0  0
   16.3958  -14.9843   21.4736 C   0  0  0  0  0  0  0  0  0  0  0  0
   16.7498  -13.7673   20.9044 C   0  0  0  0  0  0  0  0  0  0  0  0
   18.1131  -13.4702   20.6891 C   0  0  0  0  0  0  0  0  0  0  0  0
   19.0980  -14.4108   21.0401 C   0  0  0  0  0  0  0  0  0  0  0  0
   18.7238  -15.6194   21.5982 C   0  0  0  0  0  0  0  0  0  0  0  0
   18.5243  -12.1790   20.0780 C   0  0  0  0  0  0  0  0  0  0  0  0
   19.6497  -12.0931   19.2717 N   0  0  0  0  0  0  0  0  0  0  0  0
   17.8444  -11.0931   20.3223 N   0  0  0  0  0  0  0  0  0  0  0  0
   20.1770  -12.9008   19.0749 H   0  0  0  0  0  0  0  0  0  0  0  0
   19.9211  -11.2244   18.8962 H   0  0  0  0  0  0  0  0  0  0  0  0
   17.0425  -11.1322   20.8921 H   0  0  0  0  0  0  0  0  0  0  0  0
   22.1301  -16.4337   24.1432 C   0  0  0  0  0  0  0  0  0  0  0  0
   21.2753  -15.2799   24.7044 C   0  0  0  0  0  0  0  0  0  0  0  0
   21.6672  -14.9748   26.1626 C   0  0  0  0  0  0  0  0  0  0  0  0
   20.7714  -13.8407   26.6845 C   0  0  0  0  0  0  0  0  0  0  0  0
   20.9603  -12.5697   25.8342 C   0  0  0  0  0  0  0  0  0  0  0  0
   20.5562  -12.8305   24.3788 C   0  0  0  0  0  0  0  0  0  0  0  0
   21.3936  -14.0051   23.8290 C   0  0  0  0  0  0  0  0  0  0  0  0
   23.1632  -16.8925   25.1141 N   0  0  0  0  0  0  0  0  0  0  0  0
   22.8908  -17.8182   25.4447 H   0  0  0  0  0  0  0  0  0  0  0  0
   24.5546  -16.9866   24.5949 C   0  0  0  0  0  0  0  0  0  0  0  0
   24.8254  -15.9406   23.5270 C   0  0  0  0  0  0  0  0  0  0  0  0
   25.0069  -16.2340   22.3584 O   0  0  0  0  0  0  0  0  0  0  0  0
   24.8862  -14.6375   23.8612 N   0  0  0  0  0  0  0  0  0  0  0  0
   24.7448  -14.3619   24.7957 H   0  0  0  0  0  0  0  0  0  0  0  0
   25.0720  -13.9605   23.1710 H   0  0  0  0  0  0  0  0  0  0  0  0
 25 26  1  0  0  0
 25 30  1  0  0  0
 25 24  1  0  0  0
 26 27  1  0  0  0
 27 28  1  0  0  0
 28 29  1  0  0  0
 29 30  1  0  0  0
 31 24  1  0  0  0
 31 33  1  0  0  0
 24  1  1  0  0  0
  1  2  2  0  0  0
  1  3  1  0  0  0
  3  4  1  0  0  0
  3  6  1  0  0  0
  4  7  1  0  0  0
  4  5  1  0  0  0
  7  8  2  0  0  0
  7  9  1  0  0  0
  9 11  1  0  0  0
 11 12  1  0  0  0
 12 17  2  0  0  0
 12 13  1  0  0  0
 17 16  1  0  0  0
 16 15  2  0  0  0
 15 14  1  0  0  0
 15 18  1  0  0  0
 14 13  2  0  0  0
 18 20  2  0  0  0
 18 19  1  0  0  0
  5  6  1  0  0  0
 33 34  1  0  0  0
 34 35  2  0  0  0
 34 36  1  0  0  0
 31 32  1  0  0  0
  9 10  1  0  0  0
 19 21  1  0  0  0
 19 22  1  0  0  0
 20 23  1  0  0  0
 36 37  1  0  0  0
 36 38  1  0  0  0
M  END
> <minimizedAffinity>
-7.44007

$$$$
4BAO_MVF_B_1287


 38 40  0  0  0  0  0  0  0  0999 V2000
   18.4018  -16.2631   23.1530 C   0  0  0  0  0  0  0  0  0  0  0  0
   17.7751  -15.2308   22.9918 O   0  0  0  0  0  0  0  0  0  0  0  0
   18.3164  -17.2419   22.2207 N   0  0  0  0  0  0  0  0  0  0  0  0
   17.4684  -17.3696   21.0258 C   0  0  0  0  0  0  0  0  0  0  0  0
   17.7960  -18.8729   20.9093 C   0  0  0  0  0  0  0  0  0  0  0  0
   18.8091  -18.6212   22.0306 C   0  0  0  0  0  0  0  0  0  0  0  0
   16.0730  -17.0269   21.4963 C   0  0  0  0  0  0  0  0  0  0  0  0
   15.4873  -17.8369   22.1942 O   0  0  0  0  0  0  0  0  0  0  0  0
   15.5686  -15.7894   21.3006 N   0  0  0  0  0  0  0  0  0  0  0  0
   16.0798  -15.1192   20.7919 H   0  0  0  0  0  0  0  0  0  0  0  0
   14.2569  -15.4545   21.8510 C   0  0  0  0  0  0  0  0  0  0  0  0
   13.9972  -13.9785   21.6986 C   0  0  0  0  0  0  0  0  0  0  0  0
   12.7128  -13.4735   21.8517 C   0  0  0  0  0  0  0  0  0  0  0  0
   12.4779  -12.1149   21.6813 C   0  0  0  0  0  0  0  0  0  0  0  0
   13.5560  -11.2548   21.3794 C   0  0  0  0  0  0  0  0  0  0  0  0
   14.8531  -11.7806   21.2419 C   0  0  0  0  0  0  0  0  0  0  0  0
   15.0641  -13.1371   21.4079 C   0  0  0  0  0  0  0  0  0  0  0  0
   13.3370   -9.7971   21.1866 C   0  0  0  0  0  0  0  0  0  0  0  0
   14.3906   -8.9473   20.8840 N   0  0  0  0  0  0  0  0  0  0  0  0
   12.1449   -9.2890   21.3343 N   0  0  0  0  0  0  0  0  0  0  0  0
   15.2983   -9.3104   20.7684 H   0  0  0  0  0  0  0  0  0  0  0  0
   14.2307   -7.9809   20.7849 H   0  0  0  0  0  0  0  0  0  0  0  0
   11.3833   -9.8747   21.5492 H   0  0  0  0  0  0  0  0  0  0  0  0
   19.2327  -16.3770   24.3993 C   0  0  0  0  0  0  0  0  0  0  0  0
   19.6651  -14.9518   24.7977 C   0  0  0  0  0  0  0  0  0  0  0  0
   20.2616  -14.9438   26.2180 C   0  0  0  0  0  0  0  0  0  0  0  0
   20.6502  -13.5016   26.5789 C   0  0  0  0  0  0  0  0  0  0  0  0
   21.6990  -12.9617   25.5875 C   0  0  0  0  0  0  0  0  0  0  0  0
   21.1302  -12.9332   24.1645 C   0  0  0  0  0  0  0  0  0  0  0  0
   20.6717  -14.3561   23.7794 C   0  0  0  0  0  0  0  0  0  0  0  0
   18.3792  -17.0176   25.4392 N   0  0  0  0  0  0  0  0  0  0  0  0
   17.4120  -16.9749   25.1181 H   0  0  0  0  0  0  0  0  0  0  0  0
   18.6898  -18.4374   25.7585 C   0  0  0  0  0  0  0  0  0  0  0  0
   17.5532  -19.3627   25.3583 C   0  0  0  0  0  0  0  0  0  0  0  0
   17.6303  -20.5740   25.4654 O   0  0  0  0  0  0  0  0  0  0  0  0
   16.4155  -18.8510   24.8512 N   0  0  0  0  0  0  0  0  0  0  0  0
   16.3164  -17.8768   24.7495 H   0  0  0  0  0  0  0  0  0  0  0  0
   15.6829  -19.4511   24.5821 H   0  0  0  0  0  0  0  0  0  0  0  0
 25 26  1  0  0  0
 25 30  1  0  0  0
 25 24  1  0  0  0
 26 27  1  0  0  0
 27 28  1  0  0  0
 28 29  1  0  0  0
 29 30  1  0  0  0
 31 24  1  0  0  0
 31 33  1  0  0  0
 24  1  1  0  0  0
  1  2  2  0  0  0
  1  3  1  0  0  0
  3  4  1  0  0  0
  3  6  1  0  0  0
  4  7  1  0  0  0
  4  5  1  0  0  0
  7  8  2  0  0  0
  7  9  1  0  0  0
  9 11  1  0  0  0
 11 12  1  0  0  0
 12 17  2  0  0  0
 12 13  1  0  0  0
 17 16  1  0  0  0
 16 15  2  0  0  0
 15 14  1  0  0  0
 15 18  1  0  0  0
 14 13  2  0  0  0
 18 20  2  0  0  0
 18 19  1  0  0  0
  5  6  1  0  0  0
 33 34  1  0  0  0
 34 35  2  0  0  0
 34 36  1  0  0  0
 31 32  1  0  0  0
  9 10  1  0  0  0
 19 21  1  0  0  0
 19 22  1  0  0  0
 20 23  1  0  0  0
 36 37  1  0  0  0
 36 38  1  0  0  0
M  END
> <minimizedAffinity>
-7.37709

$$$$
