3IOC_A5D_A_301


 31 34  0  0  0  0  0  0  0  0999 V2000
   12.6277    8.3654    1.7434 O   0  0  0  0  0  0  0  0  0  0  0  0
   14.2887    7.5918   -0.4343 O   0  0  0  0  0  0  0  0  0  0  0  0
   14.1790   11.0714    0.3750 O   0  0  0  0  0  0  0  0  0  0  0  0
   13.8820    9.0419    1.5963 C   0  0  0  0  0  0  0  0  0  0  0  0
   14.5272    8.8478    0.1951 C   0  0  0  0  0  0  0  0  0  0  0  0
   13.5780   10.5571    1.6018 C   0  0  0  0  0  0  0  0  0  0  0  0
   13.8980   10.0215   -0.5828 C   0  0  0  0  0  0  0  0  0  0  0  0
   12.7756    7.4067    1.7447 H   0  0  0  0  0  0  0  0  0  0  0  0
   14.7008    6.8853    0.0873 H   0  0  0  0  0  0  0  0  0  0  0  0
   13.7584    9.8885   -5.7439 N   0  0  0  0  0  0  0  0  0  0  0  0
   12.7843    9.6001   -4.8862 C   0  0  0  0  0  0  0  0  0  0  0  0
   12.9923    9.6880   -3.5812 N   0  0  0  0  0  0  0  0  0  0  0  0
   14.1811   10.0712   -3.0642 C   0  0  0  0  0  0  0  0  0  0  0  0
   15.2167   10.3742   -3.9365 C   0  0  0  0  0  0  0  0  0  0  0  0
   14.9861   10.2745   -5.3203 C   0  0  0  0  0  0  0  0  0  0  0  0
   15.9363   10.5402   -6.2220 N   0  0  0  0  0  0  0  0  0  0  0  0
   16.2554   10.7059   -3.1817 N   0  0  0  0  0  0  0  0  0  0  0  0
   15.9104   10.6381   -1.8980 C   0  0  0  0  0  0  0  0  0  0  0  0
   14.6373   10.2488   -1.8251 N   0  0  0  0  0  0  0  0  0  0  0  0
   15.7392   10.4599   -7.1832 H   0  0  0  0  0  0  0  0  0  0  0  0
   16.8334   10.8163   -5.9249 H   0  0  0  0  0  0  0  0  0  0  0  0
   13.9341   11.3194    2.8954 C   0  0  0  0  0  0  0  0  0  0  0  0
   15.0842   10.5608    4.1042 S   0  0  0  0  0  0  0  0  0  0  0  0
   13.9162    9.4547    5.3951 S   0  0  0  0  0  0  0  0  0  0  0  0
   15.0198    8.9292    6.7700 C   0  0  0  0  0  0  0  0  0  0  0  0
   13.9085   11.4173   10.0542 C   0  0  0  0  0  0  0  0  0  0  0  0
   15.1237   10.7771   10.0780 C   0  0  0  0  0  0  0  0  0  0  0  0
   13.0582   11.2521    8.9575 C   0  0  0  0  0  0  0  0  0  0  0  0
   15.4759    9.9632    9.0113 C   0  0  0  0  0  0  0  0  0  0  0  0
   13.3990   10.4445    7.8911 C   0  0  0  0  0  0  0  0  0  0  0  0
   14.6184    9.8232    7.9269 C   0  0  0  0  0  0  0  0  0  0  0  0
 10 11  2  0  0  0
 10 15  1  0  0  0
 11 12  1  0  0  0
 12 13  2  0  0  0
 13 14  1  0  0  0
 13 19  1  0  0  0
 14 15  2  0  0  0
 14 17  1  0  0  0
 15 16  1  0  0  0
 17 18  2  0  0  0
 18 19  1  0  0  0
 19  7  1  0  0  0
  1  4  1  0  0  0
  2  5  1  0  0  0
 26 27  2  0  0  0
 26 28  1  0  0  0
 27 29  1  0  0  0
 28 30  2  0  0  0
 29 31  2  0  0  0
 30 31  1  0  0  0
 25 24  1  0  0  0
 25 31  1  0  0  0
 22 23  1  0  0  0
 22  6  1  0  0  0
  3  6  1  0  0  0
  3  7  1  0  0  0
 24 23  1  0  0  0
  4  5  1  0  0  0
  4  6  1  0  0  0
  5  7  1  0  0  0
 16 20  1  0  0  0
 16 21  1  0  0  0
  1  8  1  0  0  0
  2  9  1  0  0  0
M  END
> <minimizedAffinity>
-10.43063

$$$$
3IOC_A5D_A_301


 31 34  0  0  0  0  0  0  0  0999 V2000
   18.0527   11.0029    3.2537 O   0  0  0  0  0  0  0  0  0  0  0  0
   16.6506   12.0578    1.0129 O   0  0  0  0  0  0  0  0  0  0  0  0
   15.2121    9.2237    2.6479 O   0  0  0  0  0  0  0  0  0  0  0  0
   16.6219   11.0284    3.3219 C   0  0  0  0  0  0  0  0  0  0  0  0
   15.9419   11.2395    1.9397 C   0  0  0  0  0  0  0  0  0  0  0  0
   16.1645    9.5985    3.6887 C   0  0  0  0  0  0  0  0  0  0  0  0
   15.8094    9.7823    1.4522 C   0  0  0  0  0  0  0  0  0  0  0  0
   18.3813   11.8863    3.0246 H   0  0  0  0  0  0  0  0  0  0  0  0
   16.7097   12.9619    1.3593 H   0  0  0  0  0  0  0  0  0  0  0  0
   15.1491   10.4106   -3.6315 N   0  0  0  0  0  0  0  0  0  0  0  0
   16.2623   10.5632   -2.9207 C   0  0  0  0  0  0  0  0  0  0  0  0
   16.2554   10.3594   -1.6121 N   0  0  0  0  0  0  0  0  0  0  0  0
   15.1392    9.9895   -0.9453 C   0  0  0  0  0  0  0  0  0  0  0  0
   13.9622    9.8269   -1.6616 C   0  0  0  0  0  0  0  0  0  0  0  0
   13.9798   10.0490   -3.0504 C   0  0  0  0  0  0  0  0  0  0  0  0
   12.8847    9.9220   -3.8062 N   0  0  0  0  0  0  0  0  0  0  0  0
   13.0344    9.4773   -0.7809 N   0  0  0  0  0  0  0  0  0  0  0  0
   13.5796    9.4017    0.4310 C   0  0  0  0  0  0  0  0  0  0  0  0
   14.8715    9.7158    0.3309 N   0  0  0  0  0  0  0  0  0  0  0  0
   12.9341   10.0854   -4.7758 H   0  0  0  0  0  0  0  0  0  0  0  0
   12.0287    9.6650   -3.3933 H   0  0  0  0  0  0  0  0  0  0  0  0
   15.6904    9.3859    5.1417 C   0  0  0  0  0  0  0  0  0  0  0  0
   13.9460    8.9256    5.4652 S   0  0  0  0  0  0  0  0  0  0  0  0
   13.9539    7.8278    7.2112 S   0  0  0  0  0  0  0  0  0  0  0  0
   15.4521    8.3487    8.1431 C   0  0  0  0  0  0  0  0  0  0  0  0
   14.1284   11.6000   10.5696 C   0  0  0  0  0  0  0  0  0  0  0  0
   15.4510   11.2305   10.6056 C   0  0  0  0  0  0  0  0  0  0  0  0
   13.2385   10.9145    9.7383 C   0  0  0  0  0  0  0  0  0  0  0  0
   15.8737   10.1675    9.8207 C   0  0  0  0  0  0  0  0  0  0  0  0
   13.6487    9.8557    8.9535 C   0  0  0  0  0  0  0  0  0  0  0  0
   14.9724    9.5084    8.9938 C   0  0  0  0  0  0  0  0  0  0  0  0
 10 11  2  0  0  0
 10 15  1  0  0  0
 11 12  1  0  0  0
 12 13  2  0  0  0
 13 14  1  0  0  0
 13 19  1  0  0  0
 14 15  2  0  0  0
 14 17  1  0  0  0
 15 16  1  0  0  0
 17 18  2  0  0  0
 18 19  1  0  0  0
 19  7  1  0  0  0
  1  4  1  0  0  0
  2  5  1  0  0  0
 26 27  2  0  0  0
 26 28  1  0  0  0
 27 29  1  0  0  0
 28 30  2  0  0  0
 29 31  2  0  0  0
 30 31  1  0  0  0
 25 24  1  0  0  0
 25 31  1  0  0  0
 22 23  1  0  0  0
 22  6  1  0  0  0
  3  6  1  0  0  0
  3  7  1  0  0  0
 24 23  1  0  0  0
  4  5  1  0  0  0
  4  6  1  0  0  0
  5  7  1  0  0  0
 16 20  1  0  0  0
 16 21  1  0  0  0
  1  8  1  0  0  0
  2  9  1  0  0  0
M  END
> <minimizedAffinity>
-8.73243

$$$$
3IOC_A5D_A_301


 31 34  0  0  0  0  0  0  0  0999 V2000
   12.8757   11.6922    2.6653 O   0  0  0  0  0  0  0  0  0  0  0  0
   14.9476   12.0725    4.5790 O   0  0  0  0  0  0  0  0  0  0  0  0
   13.6266    8.7685    4.2431 O   0  0  0  0  0  0  0  0  0  0  0  0
   13.8535   10.6532    2.7957 C   0  0  0  0  0  0  0  0  0  0  0  0
   14.6911   10.7546    4.1016 C   0  0  0  0  0  0  0  0  0  0  0  0
   13.0796    9.3333    3.0133 C   0  0  0  0  0  0  0  0  0  0  0  0
   13.8164    9.9388    5.0754 C   0  0  0  0  0  0  0  0  0  0  0  0
   13.3230   12.5416    2.5265 H   0  0  0  0  0  0  0  0  0  0  0  0
   15.4989   12.5472    3.9374 H   0  0  0  0  0  0  0  0  0  0  0  0
   14.6358   10.9297   10.0775 N   0  0  0  0  0  0  0  0  0  0  0  0
   13.7488   11.4909    9.2615 C   0  0  0  0  0  0  0  0  0  0  0  0
   13.6714   11.1143    7.9942 N   0  0  0  0  0  0  0  0  0  0  0  0
   14.4721   10.1563    7.4760 C   0  0  0  0  0  0  0  0  0  0  0  0
   15.4099    9.5565    8.3041 C   0  0  0  0  0  0  0  0  0  0  0  0
   15.4859    9.9662    9.6475 C   0  0  0  0  0  0  0  0  0  0  0  0
   16.3691    9.4426   10.5032 N   0  0  0  0  0  0  0  0  0  0  0  0
   16.0589    8.6746    7.5560 N   0  0  0  0  0  0  0  0  0  0  0  0
   15.5617    8.6894    6.3214 C   0  0  0  0  0  0  0  0  0  0  0  0
   14.5876    9.5984    6.2715 N   0  0  0  0  0  0  0  0  0  0  0  0
   16.3938    9.7538   11.4369 H   0  0  0  0  0  0  0  0  0  0  0  0
   16.9949    8.7458   10.1998 H   0  0  0  0  0  0  0  0  0  0  0  0
   13.0122    8.3752    1.8055 C   0  0  0  0  0  0  0  0  0  0  0  0
   14.2698    8.5039    0.4783 S   0  0  0  0  0  0  0  0  0  0  0  0
   13.8481   10.2422   -0.5485 S   0  0  0  0  0  0  0  0  0  0  0  0
   15.2474   10.5078   -1.7130 C   0  0  0  0  0  0  0  0  0  0  0  0
   13.5154    9.8050   -5.5493 C   0  0  0  0  0  0  0  0  0  0  0  0
   12.8021    9.4805   -4.4210 C   0  0  0  0  0  0  0  0  0  0  0  0
   14.7901   10.3645   -5.4277 C   0  0  0  0  0  0  0  0  0  0  0  0
   13.3737    9.7037   -3.1769 C   0  0  0  0  0  0  0  0  0  0  0  0
   15.3680   10.5907   -4.1946 C   0  0  0  0  0  0  0  0  0  0  0  0
   14.6383   10.2713   -3.0811 C   0  0  0  0  0  0  0  0  0  0  0  0
 10 11  2  0  0  0
 10 15  1  0  0  0
 11 12  1  0  0  0
 12 13  2  0  0  0
 13 14  1  0  0  0
 13 19  1  0  0  0
 14 15  2  0  0  0
 14 17  1  0  0  0
 15 16  1  0  0  0
 17 18  2  0  0  0
 18 19  1  0  0  0
 19  7  1  0  0  0
  1  4  1  0  0  0
  2  5  1  0  0  0
 26 27  2  0  0  0
 26 28  1  0  0  0
 27 29  1  0  0  0
 28 30  2  0  0  0
 29 31  2  0  0  0
 30 31  1  0  0  0
 25 24  1  0  0  0
 25 31  1  0  0  0
 22 23  1  0  0  0
 22  6  1  0  0  0
  3  6  1  0  0  0
  3  7  1  0  0  0
 24 23  1  0  0  0
  4  5  1  0  0  0
  4  6  1  0  0  0
  5  7  1  0  0  0
 16 20  1  0  0  0
 16 21  1  0  0  0
  1  8  1  0  0  0
  2  9  1  0  0  0
M  END
> <minimizedAffinity>
-8.64151

$$$$
3IOC_A5D_A_301


 31 34  0  0  0  0  0  0  0  0999 V2000
   19.0042   10.8358   -0.3843 O   0  0  0  0  0  0  0  0  0  0  0  0
   17.4761   11.2901   -2.7419 O   0  0  0  0  0  0  0  0  0  0  0  0
   15.6725   10.5066    0.2427 O   0  0  0  0  0  0  0  0  0  0  0  0
   17.7668   11.5440   -0.2434 C   0  0  0  0  0  0  0  0  0  0  0  0
   16.8305   11.4018   -1.4765 C   0  0  0  0  0  0  0  0  0  0  0  0
   16.9586   10.8207    0.8575 C   0  0  0  0  0  0  0  0  0  0  0  0
   16.0467   10.1268   -1.1042 C   0  0  0  0  0  0  0  0  0  0  0  0
   19.5436   11.2604   -1.0696 H   0  0  0  0  0  0  0  0  0  0  0  0
   17.9549   12.1115   -2.9342 H   0  0  0  0  0  0  0  0  0  0  0  0
   14.1978   10.1635   -5.9265 N   0  0  0  0  0  0  0  0  0  0  0  0
   15.4585   10.3001   -5.5270 C   0  0  0  0  0  0  0  0  0  0  0  0
   15.7608   10.2657   -4.2381 N   0  0  0  0  0  0  0  0  0  0  0  0
   14.8222   10.0897   -3.2813 C   0  0  0  0  0  0  0  0  0  0  0  0
   13.4977    9.9486   -3.6697 C   0  0  0  0  0  0  0  0  0  0  0  0
   13.1872    9.9899   -5.0408 C   0  0  0  0  0  0  0  0  0  0  0  0
   11.9345    9.8711   -5.4916 N   0  0  0  0  0  0  0  0  0  0  0  0
   12.7952    9.8022   -2.5545 N   0  0  0  0  0  0  0  0  0  0  0  0
   13.6157    9.8303   -1.5067 C   0  0  0  0  0  0  0  0  0  0  0  0
   14.8600   10.0066   -1.9520 N   0  0  0  0  0  0  0  0  0  0  0  0
   11.7542    9.9047   -6.4588 H   0  0  0  0  0  0  0  0  0  0  0  0
   11.1922    9.7500   -4.8563 H   0  0  0  0  0  0  0  0  0  0  0  0
   16.8936   11.5243    2.2294 C   0  0  0  0  0  0  0  0  0  0  0  0
   15.4024   11.3274    3.2766 S   0  0  0  0  0  0  0  0  0  0  0  0
   15.5701    9.4792    4.1765 S   0  0  0  0  0  0  0  0  0  0  0  0
   13.8999    9.0679    4.8291 C   0  0  0  0  0  0  0  0  0  0  0  0
   14.2271    9.6530    9.0436 C   0  0  0  0  0  0  0  0  0  0  0  0
   14.3708    8.3877    8.5283 C   0  0  0  0  0  0  0  0  0  0  0  0
   13.9832   10.7285    8.1853 C   0  0  0  0  0  0  0  0  0  0  0  0
   14.2553    8.2026    7.1583 C   0  0  0  0  0  0  0  0  0  0  0  0
   13.8666   10.5552    6.8208 C   0  0  0  0  0  0  0  0  0  0  0  0
   14.0236    9.2892    6.3240 C   0  0  0  0  0  0  0  0  0  0  0  0
 10 11  2  0  0  0
 10 15  1  0  0  0
 11 12  1  0  0  0
 12 13  2  0  0  0
 13 14  1  0  0  0
 13 19  1  0  0  0
 14 15  2  0  0  0
 14 17  1  0  0  0
 15 16  1  0  0  0
 17 18  2  0  0  0
 18 19  1  0  0  0
 19  7  1  0  0  0
  1  4  1  0  0  0
  2  5  1  0  0  0
 26 27  2  0  0  0
 26 28  1  0  0  0
 27 29  1  0  0  0
 28 30  2  0  0  0
 29 31  2  0  0  0
 30 31  1  0  0  0
 25 24  1  0  0  0
 25 31  1  0  0  0
 22 23  1  0  0  0
 22  6  1  0  0  0
  3  6  1  0  0  0
  3  7  1  0  0  0
 24 23  1  0  0  0
  4  5  1  0  0  0
  4  6  1  0  0  0
  5  7  1  0  0  0
 16 20  1  0  0  0
 16 21  1  0  0  0
  1  8  1  0  0  0
  2  9  1  0  0  0
M  END
> <minimizedAffinity>
-8.63817

$$$$
3IOC_A5D_A_301


 31 34  0  0  0  0  0  0  0  0999 V2000
   12.0277    9.5110    3.4678 O   0  0  0  0  0  0  0  0  0  0  0  0
   12.6533    8.1795    1.0315 O   0  0  0  0  0  0  0  0  0  0  0  0
   14.2782   11.3033    1.6446 O   0  0  0  0  0  0  0  0  0  0  0  0
   13.3861    9.5646    3.0155 C   0  0  0  0  0  0  0  0  0  0  0  0
   13.5551    9.1679    1.5217 C   0  0  0  0  0  0  0  0  0  0  0  0
   13.7952   11.0548    2.9995 C   0  0  0  0  0  0  0  0  0  0  0  0
   13.3593   10.5333    0.8316 C   0  0  0  0  0  0  0  0  0  0  0  0
   11.7313    8.5877    3.4922 H   0  0  0  0  0  0  0  0  0  0  0  0
   12.8118    7.3405    1.4918 H   0  0  0  0  0  0  0  0  0  0  0  0
   17.4076   10.9687   -2.3457 N   0  0  0  0  0  0  0  0  0  0  0  0
   17.3819   11.0968   -1.0226 C   0  0  0  0  0  0  0  0  0  0  0  0
   16.2462   10.9515   -0.3570 N   0  0  0  0  0  0  0  0  0  0  0  0
   15.0784   10.6677   -0.9758 C   0  0  0  0  0  0  0  0  0  0  0  0
   15.0754   10.5327   -2.3567 C   0  0  0  0  0  0  0  0  0  0  0  0
   16.2863   10.6921   -3.0542 C   0  0  0  0  0  0  0  0  0  0  0  0
   16.3615   10.5868   -4.3845 N   0  0  0  0  0  0  0  0  0  0  0  0
   13.8228   10.2691   -2.7033 N   0  0  0  0  0  0  0  0  0  0  0  0
   13.0618   10.2199   -1.6124 C   0  0  0  0  0  0  0  0  0  0  0  0
   13.8318   10.4643   -0.5517 N   0  0  0  0  0  0  0  0  0  0  0  0
   17.2266   10.7045   -4.8395 H   0  0  0  0  0  0  0  0  0  0  0  0
   15.5518   10.3914   -4.9093 H   0  0  0  0  0  0  0  0  0  0  0  0
   14.7252   11.5189    4.1402 C   0  0  0  0  0  0  0  0  0  0  0  0
   15.2966   10.3067    5.3905 S   0  0  0  0  0  0  0  0  0  0  0  0
   13.6701    9.9114    6.5954 S   0  0  0  0  0  0  0  0  0  0  0  0
   14.2869    8.8500    7.9656 C   0  0  0  0  0  0  0  0  0  0  0  0
   15.0833   11.6325   11.1017 C   0  0  0  0  0  0  0  0  0  0  0  0
   13.8165   11.5586   10.5754 C   0  0  0  0  0  0  0  0  0  0  0  0
   16.0888   10.7954   10.6108 C   0  0  0  0  0  0  0  0  0  0  0  0
   13.5658   10.6579    9.5505 C   0  0  0  0  0  0  0  0  0  0  0  0
   15.8499    9.8958    9.5915 C   0  0  0  0  0  0  0  0  0  0  0  0
   14.5792    9.8282    9.0866 C   0  0  0  0  0  0  0  0  0  0  0  0
 10 11  2  0  0  0
 10 15  1  0  0  0
 11 12  1  0  0  0
 12 13  2  0  0  0
 13 14  1  0  0  0
 13 19  1  0  0  0
 14 15  2  0  0  0
 14 17  1  0  0  0
 15 16  1  0  0  0
 17 18  2  0  0  0
 18 19  1  0  0  0
 19  7  1  0  0  0
  1  4  1  0  0  0
  2  5  1  0  0  0
 26 27  2  0  0  0
 26 28  1  0  0  0
 27 29  1  0  0  0
 28 30  2  0  0  0
 29 31  2  0  0  0
 30 31  1  0  0  0
 25 24  1  0  0  0
 25 31  1  0  0  0
 22 23  1  0  0  0
 22  6  1  0  0  0
  3  6  1  0  0  0
  3  7  1  0  0  0
 24 23  1  0  0  0
  4  5  1  0  0  0
  4  6  1  0  0  0
  5  7  1  0  0  0
 16 20  1  0  0  0
 16 21  1  0  0  0
  1  8  1  0  0  0
  2  9  1  0  0  0
M  END
> <minimizedAffinity>
-8.58642

$$$$
3IOC_A5D_A_301


 31 34  0  0  0  0  0  0  0  0999 V2000
   16.9375    8.8891    3.3545 O   0  0  0  0  0  0  0  0  0  0  0  0
   18.4577    9.5569    1.0430 O   0  0  0  0  0  0  0  0  0  0  0  0
   15.0975   10.7662    1.1883 O   0  0  0  0  0  0  0  0  0  0  0  0
   16.7613   10.1999    2.8038 C   0  0  0  0  0  0  0  0  0  0  0  0
   17.3084   10.3393    1.3551 C   0  0  0  0  0  0  0  0  0  0  0  0
   15.2431   10.3978    2.5932 C   0  0  0  0  0  0  0  0  0  0  0  0
   16.0729    9.9189    0.5332 C   0  0  0  0  0  0  0  0  0  0  0  0
   17.8820    8.7248    3.5023 H   0  0  0  0  0  0  0  0  0  0  0  0
   19.2076    9.8549    1.5813 H   0  0  0  0  0  0  0  0  0  0  0  0
   14.0059    9.9712   -4.1996 N   0  0  0  0  0  0  0  0  0  0  0  0
   13.4825    9.4859   -3.0779 C   0  0  0  0  0  0  0  0  0  0  0  0
   14.1552    9.5556   -1.9392 N   0  0  0  0  0  0  0  0  0  0  0  0
   15.3828   10.1159   -1.8595 C   0  0  0  0  0  0  0  0  0  0  0  0
   15.9548   10.6267   -3.0158 C   0  0  0  0  0  0  0  0  0  0  0  0
   15.2333   10.5446   -4.2203 C   0  0  0  0  0  0  0  0  0  0  0  0
   15.7214   11.0052   -5.3762 N   0  0  0  0  0  0  0  0  0  0  0  0
   17.1430   11.1010   -2.6665 N   0  0  0  0  0  0  0  0  0  0  0  0
   17.3245   10.9236   -1.3599 C   0  0  0  0  0  0  0  0  0  0  0  0
   16.2446   10.3192   -0.8639 N   0  0  0  0  0  0  0  0  0  0  0  0
   15.1880   10.9309   -6.2003 H   0  0  0  0  0  0  0  0  0  0  0  0
   16.6144   11.4188   -5.4034 H   0  0  0  0  0  0  0  0  0  0  0  0
   14.5282   11.3164    3.6064 C   0  0  0  0  0  0  0  0  0  0  0  0
   14.6905   10.9818    5.4011 S   0  0  0  0  0  0  0  0  0  0  0  0
   13.8325    9.1340    5.7228 S   0  0  0  0  0  0  0  0  0  0  0  0
   14.6297    8.4492    7.2328 C   0  0  0  0  0  0  0  0  0  0  0  0
   13.9839   11.4145   10.2330 C   0  0  0  0  0  0  0  0  0  0  0  0
   15.2481   10.9091   10.0497 C   0  0  0  0  0  0  0  0  0  0  0  0
   12.9315   10.9586    9.4345 C   0  0  0  0  0  0  0  0  0  0  0  0
   15.4502    9.9394    9.0784 C   0  0  0  0  0  0  0  0  0  0  0  0
   13.1219    9.9942    8.4654 C   0  0  0  0  0  0  0  0  0  0  0  0
   14.3903    9.5099    8.2893 C   0  0  0  0  0  0  0  0  0  0  0  0
 10 11  2  0  0  0
 10 15  1  0  0  0
 11 12  1  0  0  0
 12 13  2  0  0  0
 13 14  1  0  0  0
 13 19  1  0  0  0
 14 15  2  0  0  0
 14 17  1  0  0  0
 15 16  1  0  0  0
 17 18  2  0  0  0
 18 19  1  0  0  0
 19  7  1  0  0  0
  1  4  1  0  0  0
  2  5  1  0  0  0
 26 27  2  0  0  0
 26 28  1  0  0  0
 27 29  1  0  0  0
 28 30  2  0  0  0
 29 31  2  0  0  0
 30 31  1  0  0  0
 25 24  1  0  0  0
 25 31  1  0  0  0
 22 23  1  0  0  0
 22  6  1  0  0  0
  3  6  1  0  0  0
  3  7  1  0  0  0
 24 23  1  0  0  0
  4  5  1  0  0  0
  4  6  1  0  0  0
  5  7  1  0  0  0
 16 20  1  0  0  0
 16 21  1  0  0  0
  1  8  1  0  0  0
  2  9  1  0  0  0
M  END
> <minimizedAffinity>
-8.49200

$$$$
3IOC_A5D_A_301


 31 34  0  0  0  0  0  0  0  0999 V2000
   15.0086    7.9052    1.5963 O   0  0  0  0  0  0  0  0  0  0  0  0
   13.1227    9.0314    3.4059 O   0  0  0  0  0  0  0  0  0  0  0  0
   16.5655    9.8348    3.9317 O   0  0  0  0  0  0  0  0  0  0  0  0
   15.2369    9.2492    2.0368 C   0  0  0  0  0  0  0  0  0  0  0  0
   14.4086    9.6354    3.2946 C   0  0  0  0  0  0  0  0  0  0  0  0
   16.6839    9.3047    2.5767 C   0  0  0  0  0  0  0  0  0  0  0  0
   15.3633    9.1924    4.4220 C   0  0  0  0  0  0  0  0  0  0  0  0
   14.1065    7.8278    1.2483 H   0  0  0  0  0  0  0  0  0  0  0  0
   12.5578    9.3374    2.6792 H   0  0  0  0  0  0  0  0  0  0  0  0
   15.7928    9.0673    9.5674 N   0  0  0  0  0  0  0  0  0  0  0  0
   16.4075    8.3016    8.6709 C   0  0  0  0  0  0  0  0  0  0  0  0
   16.1804    8.4698    7.3771 N   0  0  0  0  0  0  0  0  0  0  0  0
   15.3313    9.4124    6.9101 C   0  0  0  0  0  0  0  0  0  0  0  0
   14.6729   10.2229    7.8238 C   0  0  0  0  0  0  0  0  0  0  0  0
   14.9190   10.0337    9.1956 C   0  0  0  0  0  0  0  0  0  0  0  0
   14.3159   10.7681   10.1355 N   0  0  0  0  0  0  0  0  0  0  0  0
   13.9070   11.0401    7.1138 N   0  0  0  0  0  0  0  0  0  0  0  0
   14.0705   10.7865    5.8173 C   0  0  0  0  0  0  0  0  0  0  0  0
   14.9446    9.7877    5.6916 N   0  0  0  0  0  0  0  0  0  0  0  0
   14.5125   10.6078   11.0868 H   0  0  0  0  0  0  0  0  0  0  0  0
   13.6752   11.4692    9.8766 H   0  0  0  0  0  0  0  0  0  0  0  0
   17.7232    9.9993    1.6719 C   0  0  0  0  0  0  0  0  0  0  0  0
   17.2552   11.5175    0.7580 S   0  0  0  0  0  0  0  0  0  0  0  0
   16.7237   10.9075   -1.1392 S   0  0  0  0  0  0  0  0  0  0  0  0
   14.9213   11.2379   -1.3030 C   0  0  0  0  0  0  0  0  0  0  0  0
   13.9129    9.5769   -5.1024 C   0  0  0  0  0  0  0  0  0  0  0  0
   15.1087   10.2368   -4.9542 C   0  0  0  0  0  0  0  0  0  0  0  0
   13.0488    9.4526   -4.0113 C   0  0  0  0  0  0  0  0  0  0  0  0
   15.4272   10.7817   -3.7188 C   0  0  0  0  0  0  0  0  0  0  0  0
   13.3562    9.9910   -2.7779 C   0  0  0  0  0  0  0  0  0  0  0  0
   14.5568   10.6355   -2.6458 C   0  0  0  0  0  0  0  0  0  0  0  0
 10 11  2  0  0  0
 10 15  1  0  0  0
 11 12  1  0  0  0
 12 13  2  0  0  0
 13 14  1  0  0  0
 13 19  1  0  0  0
 14 15  2  0  0  0
 14 17  1  0  0  0
 15 16  1  0  0  0
 17 18  2  0  0  0
 18 19  1  0  0  0
 19  7  1  0  0  0
  1  4  1  0  0  0
  2  5  1  0  0  0
 26 27  2  0  0  0
 26 28  1  0  0  0
 27 29  1  0  0  0
 28 30  2  0  0  0
 29 31  2  0  0  0
 30 31  1  0  0  0
 25 24  1  0  0  0
 25 31  1  0  0  0
 22 23  1  0  0  0
 22  6  1  0  0  0
  3  6  1  0  0  0
  3  7  1  0  0  0
 24 23  1  0  0  0
  4  5  1  0  0  0
  4  6  1  0  0  0
  5  7  1  0  0  0
 16 20  1  0  0  0
 16 21  1  0  0  0
  1  8  1  0  0  0
  2  9  1  0  0  0
M  END
> <minimizedAffinity>
-8.40236

$$$$
3IOC_A5D_A_301


 31 34  0  0  0  0  0  0  0  0999 V2000
   20.1245    9.6192    3.3650 O   0  0  0  0  0  0  0  0  0  0  0  0
   17.7394    8.2647    4.1241 O   0  0  0  0  0  0  0  0  0  0  0  0
   17.3987   11.0396    1.8973 O   0  0  0  0  0  0  0  0  0  0  0  0
   19.1150    9.4471    2.3631 C   0  0  0  0  0  0  0  0  0  0  0  0
   17.7249    9.0672    2.9466 C   0  0  0  0  0  0  0  0  0  0  0  0
   18.8386   10.8429    1.7601 C   0  0  0  0  0  0  0  0  0  0  0  0
   17.1201   10.4637    3.1970 C   0  0  0  0  0  0  0  0  0  0  0  0
   20.3277    8.7615    3.7699 H   0  0  0  0  0  0  0  0  0  0  0  0
   18.1265    7.3989    3.9206 H   0  0  0  0  0  0  0  0  0  0  0  0
   12.6313    8.7279    1.3231 N   0  0  0  0  0  0  0  0  0  0  0  0
   13.8457    8.6067    0.7956 C   0  0  0  0  0  0  0  0  0  0  0  0
   14.8995    9.1162    1.4150 N   0  0  0  0  0  0  0  0  0  0  0  0
   14.7975    9.7698    2.5939 C   0  0  0  0  0  0  0  0  0  0  0  0
   13.5413    9.9145    3.1651 C   0  0  0  0  0  0  0  0  0  0  0  0
   12.4284    9.3725    2.4974 C   0  0  0  0  0  0  0  0  0  0  0  0
   11.1864    9.4798    2.9795 N   0  0  0  0  0  0  0  0  0  0  0  0
   13.7194   10.5901    4.2923 N   0  0  0  0  0  0  0  0  0  0  0  0
   15.0144   10.8537    4.4514 C   0  0  0  0  0  0  0  0  0  0  0  0
   15.6767   10.3504    3.4094 N   0  0  0  0  0  0  0  0  0  0  0  0
   10.4308    9.0878    2.4849 H   0  0  0  0  0  0  0  0  0  0  0  0
   11.0272    9.9508    3.8293 H   0  0  0  0  0  0  0  0  0  0  0  0
   19.4222   11.1070    0.3561 C   0  0  0  0  0  0  0  0  0  0  0  0
   18.4030   11.9708   -0.8986 S   0  0  0  0  0  0  0  0  0  0  0  0
   17.1842   10.5347   -1.7391 S   0  0  0  0  0  0  0  0  0  0  0  0
   15.4640   11.1728   -1.6046 C   0  0  0  0  0  0  0  0  0  0  0  0
   13.4919    9.5508   -5.0239 C   0  0  0  0  0  0  0  0  0  0  0  0
   14.7502   10.0838   -5.1645 C   0  0  0  0  0  0  0  0  0  0  0  0
   12.8789    9.5404   -3.7681 C   0  0  0  0  0  0  0  0  0  0  0  0
   15.3829   10.6170   -4.0509 C   0  0  0  0  0  0  0  0  0  0  0  0
   13.4996   10.0682   -2.6538 C   0  0  0  0  0  0  0  0  0  0  0  0
   14.7576   10.5851   -2.8106 C   0  0  0  0  0  0  0  0  0  0  0  0
 10 11  2  0  0  0
 10 15  1  0  0  0
 11 12  1  0  0  0
 12 13  2  0  0  0
 13 14  1  0  0  0
 13 19  1  0  0  0
 14 15  2  0  0  0
 14 17  1  0  0  0
 15 16  1  0  0  0
 17 18  2  0  0  0
 18 19  1  0  0  0
 19  7  1  0  0  0
  1  4  1  0  0  0
  2  5  1  0  0  0
 26 27  2  0  0  0
 26 28  1  0  0  0
 27 29  1  0  0  0
 28 30  2  0  0  0
 29 31  2  0  0  0
 30 31  1  0  0  0
 25 24  1  0  0  0
 25 31  1  0  0  0
 22 23  1  0  0  0
 22  6  1  0  0  0
  3  6  1  0  0  0
  3  7  1  0  0  0
 24 23  1  0  0  0
  4  5  1  0  0  0
  4  6  1  0  0  0
  5  7  1  0  0  0
 16 20  1  0  0  0
 16 21  1  0  0  0
  1  8  1  0  0  0
  2  9  1  0  0  0
M  END
> <minimizedAffinity>
-8.12777

$$$$
3IOC_A5D_A_301


 31 34  0  0  0  0  0  0  0  0999 V2000
   15.3613   11.4211    5.5950 O   0  0  0  0  0  0  0  0  0  0  0  0
   14.7138   12.2346    2.9457 O   0  0  0  0  0  0  0  0  0  0  0  0
   14.1441    8.8068    3.7825 O   0  0  0  0  0  0  0  0  0  0  0  0
   14.1851   10.8595    5.0003 C   0  0  0  0  0  0  0  0  0  0  0  0
   14.1270   11.0410    3.4572 C   0  0  0  0  0  0  0  0  0  0  0  0
   14.3016    9.3247    5.1381 C   0  0  0  0  0  0  0  0  0  0  0  0
   14.8692    9.7743    2.9847 C   0  0  0  0  0  0  0  0  0  0  0  0
   15.3269   12.3882    5.5287 H   0  0  0  0  0  0  0  0  0  0  0  0
   14.2166   13.0028    3.2673 H   0  0  0  0  0  0  0  0  0  0  0  0
   16.0861   11.1429   -1.8444 N   0  0  0  0  0  0  0  0  0  0  0  0
   16.5939   11.6036   -0.7053 C   0  0  0  0  0  0  0  0  0  0  0  0
   16.1635   11.1380    0.4574 N   0  0  0  0  0  0  0  0  0  0  0  0
   15.2071   10.1866    0.5442 C   0  0  0  0  0  0  0  0  0  0  0  0
   14.6566    9.6908   -0.6289 C   0  0  0  0  0  0  0  0  0  0  0  0
   15.1186   10.1945   -1.8582 C   0  0  0  0  0  0  0  0  0  0  0  0
   14.6306    9.7738   -3.0292 N   0  0  0  0  0  0  0  0  0  0  0  0
   13.7514    8.7922   -0.2659 N   0  0  0  0  0  0  0  0  0  0  0  0
   13.7271    8.6986    1.0616 C   0  0  0  0  0  0  0  0  0  0  0  0
   14.6204    9.5540    1.5595 N   0  0  0  0  0  0  0  0  0  0  0  0
   14.9780   10.1488   -3.8706 H   0  0  0  0  0  0  0  0  0  0  0  0
   13.9236    9.0889   -3.0504 H   0  0  0  0  0  0  0  0  0  0  0  0
   13.4140    8.6675    6.2159 C   0  0  0  0  0  0  0  0  0  0  0  0
   14.0347    7.2047    7.1294 S   0  0  0  0  0  0  0  0  0  0  0  0
   14.8251    7.9205    8.8949 S   0  0  0  0  0  0  0  0  0  0  0  0
   15.5265    9.5779    8.5134 C   0  0  0  0  0  0  0  0  0  0  0  0
   13.0695   12.2947   10.7029 C   0  0  0  0  0  0  0  0  0  0  0  0
   12.6120   11.7867    9.5113 C   0  0  0  0  0  0  0  0  0  0  0  0
   14.3246   11.9126   11.1842 C   0  0  0  0  0  0  0  0  0  0  0  0
   13.4187   10.9103    8.8001 C   0  0  0  0  0  0  0  0  0  0  0  0
   15.1350   11.0413   10.4844 C   0  0  0  0  0  0  0  0  0  0  0  0
   14.6582   10.5366    9.3045 C   0  0  0  0  0  0  0  0  0  0  0  0
 10 11  2  0  0  0
 10 15  1  0  0  0
 11 12  1  0  0  0
 12 13  2  0  0  0
 13 14  1  0  0  0
 13 19  1  0  0  0
 14 15  2  0  0  0
 14 17  1  0  0  0
 15 16  1  0  0  0
 17 18  2  0  0  0
 18 19  1  0  0  0
 19  7  1  0  0  0
  1  4  1  0  0  0
  2  5  1  0  0  0
 26 27  2  0  0  0
 26 28  1  0  0  0
 27 29  1  0  0  0
 28 30  2  0  0  0
 29 31  2  0  0  0
 30 31  1  0  0  0
 25 24  1  0  0  0
 25 31  1  0  0  0
 22 23  1  0  0  0
 22  6  1  0  0  0
  3  6  1  0  0  0
  3  7  1  0  0  0
 24 23  1  0  0  0
  4  5  1  0  0  0
  4  6  1  0  0  0
  5  7  1  0  0  0
 16 20  1  0  0  0
 16 21  1  0  0  0
  1  8  1  0  0  0
  2  9  1  0  0  0
M  END
> <minimizedAffinity>
-7.96044

$$$$
3IOC_A5D_A_301


 31 34  0  0  0  0  0  0  0  0999 V2000
   18.6299   12.2313    3.7854 O   0  0  0  0  0  0  0  0  0  0  0  0
   18.5176   13.2590    1.1338 O   0  0  0  0  0  0  0  0  0  0  0  0
   16.2187   10.6531    1.9696 O   0  0  0  0  0  0  0  0  0  0  0  0
   17.3362   12.3758    3.1870 C   0  0  0  0  0  0  0  0  0  0  0  0
   17.3869   12.5575    1.6437 C   0  0  0  0  0  0  0  0  0  0  0  0
   16.6227   11.0120    3.3256 C   0  0  0  0  0  0  0  0  0  0  0  0
   17.3479   11.0890    1.1739 C   0  0  0  0  0  0  0  0  0  0  0  0
   19.1124   13.0701    3.7188 H   0  0  0  0  0  0  0  0  0  0  0  0
   18.5012   14.1747    1.4536 H   0  0  0  0  0  0  0  0  0  0  0  0
   13.6177   10.5716   -2.3605 N   0  0  0  0  0  0  0  0  0  0  0  0
   13.4999   10.5951   -1.0364 C   0  0  0  0  0  0  0  0  0  0  0  0
   14.5709   10.7372   -0.2704 N   0  0  0  0  0  0  0  0  0  0  0  0
   15.8141   10.8666   -0.7851 C   0  0  0  0  0  0  0  0  0  0  0  0
   15.9668   10.8414   -2.1639 C   0  0  0  0  0  0  0  0  0  0  0  0
   14.8233   10.6868   -2.9681 C   0  0  0  0  0  0  0  0  0  0  0  0
   14.8910   10.6433   -4.3023 N   0  0  0  0  0  0  0  0  0  0  0  0
   17.2651   10.9761   -2.3983 N   0  0  0  0  0  0  0  0  0  0  0  0
   17.9140   11.0978   -1.2425 C   0  0  0  0  0  0  0  0  0  0  0  0
   17.0241   11.0309   -0.2520 N   0  0  0  0  0  0  0  0  0  0  0  0
   14.0694   10.5340   -4.8335 H   0  0  0  0  0  0  0  0  0  0  0  0
   15.7625   10.7207   -4.7537 H   0  0  0  0  0  0  0  0  0  0  0  0
   15.5190   10.9258    4.4007 C   0  0  0  0  0  0  0  0  0  0  0  0
   14.3055    9.5535    4.3425 S   0  0  0  0  0  0  0  0  0  0  0  0
   13.6012    9.3250    6.2675 S   0  0  0  0  0  0  0  0  0  0  0  0
   15.0667    9.4488    7.3728 C   0  0  0  0  0  0  0  0  0  0  0  0
   13.7166   11.7865   10.6778 C   0  0  0  0  0  0  0  0  0  0  0  0
   14.9656   11.2165   10.7244 C   0  0  0  0  0  0  0  0  0  0  0  0
   12.9101   11.6003    9.5519 C   0  0  0  0  0  0  0  0  0  0  0  0
   15.3957   10.4508    9.6505 C   0  0  0  0  0  0  0  0  0  0  0  0
   13.3285   10.8405    8.4780 C   0  0  0  0  0  0  0  0  0  0  0  0
   14.5802   10.2892    8.5372 C   0  0  0  0  0  0  0  0  0  0  0  0
 10 11  2  0  0  0
 10 15  1  0  0  0
 11 12  1  0  0  0
 12 13  2  0  0  0
 13 14  1  0  0  0
 13 19  1  0  0  0
 14 15  2  0  0  0
 14 17  1  0  0  0
 15 16  1  0  0  0
 17 18  2  0  0  0
 18 19  1  0  0  0
 19  7  1  0  0  0
  1  4  1  0  0  0
  2  5  1  0  0  0
 26 27  2  0  0  0
 26 28  1  0  0  0
 27 29  1  0  0  0
 28 30  2  0  0  0
 29 31  2  0  0  0
 30 31  1  0  0  0
 25 24  1  0  0  0
 25 31  1  0  0  0
 22 23  1  0  0  0
 22  6  1  0  0  0
  3  6  1  0  0  0
  3  7  1  0  0  0
 24 23  1  0  0  0
  4  5  1  0  0  0
  4  6  1  0  0  0
  5  7  1  0  0  0
 16 20  1  0  0  0
 16 21  1  0  0  0
  1  8  1  0  0  0
  2  9  1  0  0  0
M  END
> <minimizedAffinity>
-7.84799

$$$$
