3IOF_IFS_A_308


 19 19  0  0  0  0  0  0  0  0999 V2000
    3.5830   50.0191   48.5543 O   0  0  0  0  0  0  0  0  0  0  0  0
    3.9645   48.4818   48.4401 P   0  0  0  0  0  0  0  0  0  0  0  0
    2.7381   47.4457   49.0916 C   0  0  0  0  0  0  0  0  0  0  0  0
    2.1211   47.6789   50.4433 C   0  0  0  0  0  0  0  0  0  0  0  0
    1.1345   46.7710   50.8216 C   0  0  0  0  0  0  0  0  0  0  0  0
    0.7434   45.7118   49.9917 C   0  0  0  0  0  0  0  0  0  0  0  0
    1.3289   45.5170   48.7473 C   0  0  0  0  0  0  0  0  0  0  0  0
    2.3255   46.3816   48.3014 C   0  0  0  0  0  0  0  0  0  0  0  0
    1.2527   48.9892   52.7849 S   0  0  0  0  0  0  0  0  0  0  0  0
    2.4985   48.7832   51.4487 C   0  0  0  0  0  0  0  0  0  0  0  0
    1.6530   49.9770   53.6296 H   0  0  0  0  0  0  0  0  0  0  0  0
    4.3785   48.0400   46.9565 O   0  0  0  0  0  0  0  0  0  0  0  0
    5.2772   46.0301   45.9706 C   0  0  0  0  0  0  0  0  0  0  0  0
    5.6042   47.3573   46.6444 C   0  0  0  0  0  0  0  0  0  0  0  0
    6.3970   48.2802   45.7422 C   0  0  0  0  0  0  0  0  0  0  0  0
    5.2682   48.2610   49.3295 O   0  0  0  0  0  0  0  0  0  0  0  0
    7.2065   49.6862   49.0715 C   0  0  0  0  0  0  0  0  0  0  0  0
    5.9075   49.4387   49.8440 C   0  0  0  0  0  0  0  0  0  0  0  0
    6.1099   49.2637   51.3457 C   0  0  0  0  0  0  0  0  0  0  0  0
  2  3  1  0  0  0
  3  4  2  0  0  0
  3  8  1  0  0  0
  1  2  2  0  0  0
 12  2  1  0  0  0
  2 16  1  0  0  0
  9 10  1  0  0  0
 10  4  1  0  0  0
  4  5  1  0  0  0
  5  6  2  0  0  0
  7  6  1  0  0  0
  8  7  2  0  0  0
 17 18  1  0  0  0
 13 14  1  0  0  0
 14 12  1  0  0  0
 16 18  1  0  0  0
 18 19  1  0  0  0
 15 14  1  0  0  0
  9 11  1  0  0  0
M  END
> <minimizedAffinity>
-5.82065

$$$$
3IOF_IFS_A_308


 19 19  0  0  0  0  0  0  0  0999 V2000
    4.2635   48.3488   50.4530 O   0  0  0  0  0  0  0  0  0  0  0  0
    3.8597   47.8602   48.9970 P   0  0  0  0  0  0  0  0  0  0  0  0
    5.1896   47.9160   47.8879 C   0  0  0  0  0  0  0  0  0  0  0  0
    6.0368   49.1455   47.7073 C   0  0  0  0  0  0  0  0  0  0  0  0
    7.0812   49.0303   46.7924 C   0  0  0  0  0  0  0  0  0  0  0  0
    7.3246   47.8424   46.0901 C   0  0  0  0  0  0  0  0  0  0  0  0
    6.5273   46.7200   46.2740 C   0  0  0  0  0  0  0  0  0  0  0  0
    5.4613   46.7597   47.1694 C   0  0  0  0  0  0  0  0  0  0  0  0
    6.8733   50.7067   49.9020 S   0  0  0  0  0  0  0  0  0  0  0  0
    5.8381   50.5091   48.3958 C   0  0  0  0  0  0  0  0  0  0  0  0
    6.6444   51.9292   50.4522 H   0  0  0  0  0  0  0  0  0  0  0  0
    3.1455   46.4258   48.9851 O   0  0  0  0  0  0  0  0  0  0  0  0
    1.8931   45.3047   47.2548 C   0  0  0  0  0  0  0  0  0  0  0  0
    1.8173   46.2044   48.4825 C   0  0  0  0  0  0  0  0  0  0  0  0
    1.0267   45.5734   49.6099 C   0  0  0  0  0  0  0  0  0  0  0  0
    2.7673   48.8842   48.4514 O   0  0  0  0  0  0  0  0  0  0  0  0
    0.8909   49.4015   49.8890 C   0  0  0  0  0  0  0  0  0  0  0  0
    2.2650   49.8523   49.3845 C   0  0  0  0  0  0  0  0  0  0  0  0
    2.2521   51.2184   48.7061 C   0  0  0  0  0  0  0  0  0  0  0  0
  2  3  1  0  0  0
  3  4  2  0  0  0
  3  8  1  0  0  0
  1  2  2  0  0  0
 12  2  1  0  0  0
  2 16  1  0  0  0
  9 10  1  0  0  0
 10  4  1  0  0  0
  4  5  1  0  0  0
  5  6  2  0  0  0
  7  6  1  0  0  0
  8  7  2  0  0  0
 17 18  1  0  0  0
 13 14  1  0  0  0
 14 12  1  0  0  0
 16 18  1  0  0  0
 18 19  1  0  0  0
 15 14  1  0  0  0
  9 11  1  0  0  0
M  END
> <minimizedAffinity>
-5.68901

$$$$
3IOF_IFS_A_308


 19 19  0  0  0  0  0  0  0  0999 V2000
    4.7499   46.1753   50.3266 O   0  0  0  0  0  0  0  0  0  0  0  0
    4.8617   47.2820   49.1933 P   0  0  0  0  0  0  0  0  0  0  0  0
    5.3542   48.8212   49.8181 C   0  0  0  0  0  0  0  0  0  0  0  0
    4.5408   49.5761   50.8333 C   0  0  0  0  0  0  0  0  0  0  0  0
    5.0766   50.7916   51.2535 C   0  0  0  0  0  0  0  0  0  0  0  0
    6.2966   51.2743   50.7614 C   0  0  0  0  0  0  0  0  0  0  0  0
    7.0294   50.5585   49.8233 C   0  0  0  0  0  0  0  0  0  0  0  0
    6.5562   49.3363   49.3523 C   0  0  0  0  0  0  0  0  0  0  0  0
    2.2301   50.5766   52.1036 S   0  0  0  0  0  0  0  0  0  0  0  0
    3.1755   49.1596   51.4121 C   0  0  0  0  0  0  0  0  0  0  0  0
    1.0416   50.1328   52.5936 H   0  0  0  0  0  0  0  0  0  0  0  0
    5.7745   46.8319   47.9556 O   0  0  0  0  0  0  0  0  0  0  0  0
    6.7076   47.9820   46.0514 C   0  0  0  0  0  0  0  0  0  0  0  0
    5.5102   47.2118   46.5948 C   0  0  0  0  0  0  0  0  0  0  0  0
    5.2550   45.9303   45.8287 C   0  0  0  0  0  0  0  0  0  0  0  0
    3.3986   47.4800   48.5935 O   0  0  0  0  0  0  0  0  0  0  0  0
    2.1770   45.6470   47.5921 C   0  0  0  0  0  0  0  0  0  0  0  0
    2.4406   46.4477   48.8708 C   0  0  0  0  0  0  0  0  0  0  0  0
    1.1902   47.0923   49.4604 C   0  0  0  0  0  0  0  0  0  0  0  0
  2  3  1  0  0  0
  3  4  2  0  0  0
  3  8  1  0  0  0
  1  2  2  0  0  0
 12  2  1  0  0  0
  2 16  1  0  0  0
  9 10  1  0  0  0
 10  4  1  0  0  0
  4  5  1  0  0  0
  5  6  2  0  0  0
  7  6  1  0  0  0
  8  7  2  0  0  0
 17 18  1  0  0  0
 13 14  1  0  0  0
 14 12  1  0  0  0
 16 18  1  0  0  0
 18 19  1  0  0  0
 15 14  1  0  0  0
  9 11  1  0  0  0
M  END
> <minimizedAffinity>
-5.60619

$$$$
3IOF_IFS_A_308


 19 19  0  0  0  0  0  0  0  0999 V2000
    2.4061   49.5105   48.6857 O   0  0  0  0  0  0  0  0  0  0  0  0
    3.9091   49.9797   48.8920 P   0  0  0  0  0  0  0  0  0  0  0  0
    5.0422   48.9393   48.0947 C   0  0  0  0  0  0  0  0  0  0  0  0
    5.0141   47.4441   48.2552 C   0  0  0  0  0  0  0  0  0  0  0  0
    5.9782   46.7413   47.5359 C   0  0  0  0  0  0  0  0  0  0  0  0
    6.9103   47.3897   46.7147 C   0  0  0  0  0  0  0  0  0  0  0  0
    6.9163   48.7724   46.5833 C   0  0  0  0  0  0  0  0  0  0  0  0
    5.9852   49.5436   47.2746 C   0  0  0  0  0  0  0  0  0  0  0  0
    2.5791   46.0212   48.2590 S   0  0  0  0  0  0  0  0  0  0  0  0
    4.0629   46.6332   49.1554 C   0  0  0  0  0  0  0  0  0  0  0  0
    1.7904   45.3177   49.1150 H   0  0  0  0  0  0  0  0  0  0  0  0
    4.1520   51.5162   48.5075 O   0  0  0  0  0  0  0  0  0  0  0  0
    4.2587   53.8278   49.1887 C   0  0  0  0  0  0  0  0  0  0  0  0
    3.3692   52.5999   49.0351 C   0  0  0  0  0  0  0  0  0  0  0  0
    2.2343   52.8305   48.0588 C   0  0  0  0  0  0  0  0  0  0  0  0
    4.2159   49.8777   50.4525 O   0  0  0  0  0  0  0  0  0  0  0  0
    6.2637   49.0101   51.4059 C   0  0  0  0  0  0  0  0  0  0  0  0
    5.5354   50.2497   50.8780 C   0  0  0  0  0  0  0  0  0  0  0  0
    5.4157   51.3741   51.9018 C   0  0  0  0  0  0  0  0  0  0  0  0
  2  3  1  0  0  0
  3  4  2  0  0  0
  3  8  1  0  0  0
  1  2  2  0  0  0
 12  2  1  0  0  0
  2 16  1  0  0  0
  9 10  1  0  0  0
 10  4  1  0  0  0
  4  5  1  0  0  0
  5  6  2  0  0  0
  7  6  1  0  0  0
  8  7  2  0  0  0
 17 18  1  0  0  0
 13 14  1  0  0  0
 14 12  1  0  0  0
 16 18  1  0  0  0
 18 19  1  0  0  0
 15 14  1  0  0  0
  9 11  1  0  0  0
M  END
> <minimizedAffinity>
-5.54234

$$$$
3IOF_IFS_A_308


 19 19  0  0  0  0  0  0  0  0999 V2000
    4.2625   50.7100   48.0666 O   0  0  0  0  0  0  0  0  0  0  0  0
    4.0890   49.1659   48.3940 P   0  0  0  0  0  0  0  0  0  0  0  0
    2.5613   48.8137   49.1316 C   0  0  0  0  0  0  0  0  0  0  0  0
    2.0642   47.4071   49.3225 C   0  0  0  0  0  0  0  0  0  0  0  0
    0.8254   47.2840   49.9478 C   0  0  0  0  0  0  0  0  0  0  0  0
    0.0944   48.4015   50.3726 C   0  0  0  0  0  0  0  0  0  0  0  0
    0.5748   49.6911   50.1843 C   0  0  0  0  0  0  0  0  0  0  0  0
    1.8044   49.8945   49.5628 C   0  0  0  0  0  0  0  0  0  0  0  0
    2.0220   45.4019   47.3397 S   0  0  0  0  0  0  0  0  0  0  0  0
    2.7639   46.1138   48.8637 C   0  0  0  0  0  0  0  0  0  0  0  0
    2.6895   44.2674   46.9978 H   0  0  0  0  0  0  0  0  0  0  0  0
    4.3650   48.2157   47.1335 O   0  0  0  0  0  0  0  0  0  0  0  0
    5.4221   46.2438   46.2317 C   0  0  0  0  0  0  0  0  0  0  0  0
    5.6416   47.6169   46.8552 C   0  0  0  0  0  0  0  0  0  0  0  0
    6.3697   48.5623   45.9222 C   0  0  0  0  0  0  0  0  0  0  0  0
    5.2093   48.7906   49.4634 O   0  0  0  0  0  0  0  0  0  0  0  0
    7.4053   49.8063   49.4979 C   0  0  0  0  0  0  0  0  0  0  0  0
    5.9659   49.8778   50.0164 C   0  0  0  0  0  0  0  0  0  0  0  0
    5.8573   49.8201   51.5368 C   0  0  0  0  0  0  0  0  0  0  0  0
  2  3  1  0  0  0
  3  4  2  0  0  0
  3  8  1  0  0  0
  1  2  2  0  0  0
 12  2  1  0  0  0
  2 16  1  0  0  0
  9 10  1  0  0  0
 10  4  1  0  0  0
  4  5  1  0  0  0
  5  6  2  0  0  0
  7  6  1  0  0  0
  8  7  2  0  0  0
 17 18  1  0  0  0
 13 14  1  0  0  0
 14 12  1  0  0  0
 16 18  1  0  0  0
 18 19  1  0  0  0
 15 14  1  0  0  0
  9 11  1  0  0  0
M  END
> <minimizedAffinity>
-5.29930

$$$$
3IOF_IFS_A_308


 19 19  0  0  0  0  0  0  0  0999 V2000
    4.5330   46.3191   49.3688 O   0  0  0  0  0  0  0  0  0  0  0  0
    3.7795   47.6400   48.9114 P   0  0  0  0  0  0  0  0  0  0  0  0
    3.6534   48.8052   50.1876 C   0  0  0  0  0  0  0  0  0  0  0  0
    4.7819   49.7324   50.5462 C   0  0  0  0  0  0  0  0  0  0  0  0
    4.5229   50.6263   51.5830 C   0  0  0  0  0  0  0  0  0  0  0  0
    3.2879   50.6578   52.2443 C   0  0  0  0  0  0  0  0  0  0  0  0
    2.2609   49.7903   51.8949 C   0  0  0  0  0  0  0  0  0  0  0  0
    2.4462   48.8653   50.8704 C   0  0  0  0  0  0  0  0  0  0  0  0
    6.5784   51.3673   49.1131 S   0  0  0  0  0  0  0  0  0  0  0  0
    6.1864   49.7597   49.9142 C   0  0  0  0  0  0  0  0  0  0  0  0
    7.8286   51.3153   48.5804 H   0  0  0  0  0  0  0  0  0  0  0  0
    4.3916   48.2908   47.5812 O   0  0  0  0  0  0  0  0  0  0  0  0
    4.9840   46.7040   45.8635 C   0  0  0  0  0  0  0  0  0  0  0  0
    5.5033   47.7309   46.8626 C   0  0  0  0  0  0  0  0  0  0  0  0
    6.2081   48.8875   46.1845 C   0  0  0  0  0  0  0  0  0  0  0  0
    2.2909   47.2162   48.5319 O   0  0  0  0  0  0  0  0  0  0  0  0
    1.7915   45.2789   47.1708 C   0  0  0  0  0  0  0  0  0  0  0  0
    1.9816   45.8158   48.5925 C   0  0  0  0  0  0  0  0  0  0  0  0
    0.7617   45.6270   49.4885 C   0  0  0  0  0  0  0  0  0  0  0  0
  2  3  1  0  0  0
  3  4  2  0  0  0
  3  8  1  0  0  0
  1  2  2  0  0  0
 12  2  1  0  0  0
  2 16  1  0  0  0
  9 10  1  0  0  0
 10  4  1  0  0  0
  4  5  1  0  0  0
  5  6  2  0  0  0
  7  6  1  0  0  0
  8  7  2  0  0  0
 17 18  1  0  0  0
 13 14  1  0  0  0
 14 12  1  0  0  0
 16 18  1  0  0  0
 18 19  1  0  0  0
 15 14  1  0  0  0
  9 11  1  0  0  0
M  END
> <minimizedAffinity>
-5.27253

$$$$
3IOF_IFS_A_308


 19 19  0  0  0  0  0  0  0  0999 V2000
    5.1717   46.5698   49.5840 O   0  0  0  0  0  0  0  0  0  0  0  0
    4.3082   47.8306   49.1523 P   0  0  0  0  0  0  0  0  0  0  0  0
    3.1469   48.2808   50.3568 C   0  0  0  0  0  0  0  0  0  0  0  0
    2.1510   47.3047   50.9203 C   0  0  0  0  0  0  0  0  0  0  0  0
    1.2942   47.8110   51.8952 C   0  0  0  0  0  0  0  0  0  0  0  0
    1.3614   49.1439   52.3222 C   0  0  0  0  0  0  0  0  0  0  0  0
    2.2901   50.0267   51.7859 C   0  0  0  0  0  0  0  0  0  0  0  0
    3.1780   49.5947   50.8038 C   0  0  0  0  0  0  0  0  0  0  0  0
    0.2116   45.4086   50.1473 S   0  0  0  0  0  0  0  0  0  0  0  0
    1.9649   45.8345   50.5000 C   0  0  0  0  0  0  0  0  0  0  0  0
    0.1270   44.1006   49.7845 H   0  0  0  0  0  0  0  0  0  0  0  0
    5.1983   49.0833   48.6983 O   0  0  0  0  0  0  0  0  0  0  0  0
    7.0471   49.3985   47.1811 C   0  0  0  0  0  0  0  0  0  0  0  0
    6.6320   49.0460   48.6044 C   0  0  0  0  0  0  0  0  0  0  0  0
    7.1590   50.0390   49.6196 C   0  0  0  0  0  0  0  0  0  0  0  0
    3.4815   47.4045   47.8583 O   0  0  0  0  0  0  0  0  0  0  0  0
    4.7439   46.3539   46.0812 C   0  0  0  0  0  0  0  0  0  0  0  0
    3.8061   46.1350   47.2723 C   0  0  0  0  0  0  0  0  0  0  0  0
    2.5074   45.4226   46.9084 C   0  0  0  0  0  0  0  0  0  0  0  0
  2  3  1  0  0  0
  3  4  2  0  0  0
  3  8  1  0  0  0
  1  2  2  0  0  0
 12  2  1  0  0  0
  2 16  1  0  0  0
  9 10  1  0  0  0
 10  4  1  0  0  0
  4  5  1  0  0  0
  5  6  2  0  0  0
  7  6  1  0  0  0
  8  7  2  0  0  0
 17 18  1  0  0  0
 13 14  1  0  0  0
 14 12  1  0  0  0
 16 18  1  0  0  0
 18 19  1  0  0  0
 15 14  1  0  0  0
  9 11  1  0  0  0
M  END
> <minimizedAffinity>
-5.23815

$$$$
3IOF_IFS_A_308


 19 19  0  0  0  0  0  0  0  0999 V2000
    3.7285   49.1518   47.8038 O   0  0  0  0  0  0  0  0  0  0  0  0
    4.3408   48.5190   49.1253 P   0  0  0  0  0  0  0  0  0  0  0  0
    4.3777   49.6446   50.4420 C   0  0  0  0  0  0  0  0  0  0  0  0
    3.1394   50.0406   51.1982 C   0  0  0  0  0  0  0  0  0  0  0  0
    3.3321   50.9415   52.2433 C   0  0  0  0  0  0  0  0  0  0  0  0
    4.6004   51.4416   52.5673 C   0  0  0  0  0  0  0  0  0  0  0  0
    5.7293   51.0608   51.8533 C   0  0  0  0  0  0  0  0  0  0  0  0
    5.6156   50.1664   50.7919 C   0  0  0  0  0  0  0  0  0  0  0  0
    0.8891   50.5723   49.5834 S   0  0  0  0  0  0  0  0  0  0  0  0
    1.6975   49.5840   50.9061 C   0  0  0  0  0  0  0  0  0  0  0  0
   -0.3750   50.1127   49.3825 H   0  0  0  0  0  0  0  0  0  0  0  0
    3.6425   47.1409   49.5508 O   0  0  0  0  0  0  0  0  0  0  0  0
    2.8945   45.8087   47.6841 C   0  0  0  0  0  0  0  0  0  0  0  0
    2.4708   46.6128   48.9073 C   0  0  0  0  0  0  0  0  0  0  0  0
    1.7576   45.7609   49.9367 C   0  0  0  0  0  0  0  0  0  0  0  0
    5.8559   48.1462   48.8012 O   0  0  0  0  0  0  0  0  0  0  0  0
    6.9808   46.9674   47.0123 C   0  0  0  0  0  0  0  0  0  0  0  0
    6.2709   48.2581   47.4317 C   0  0  0  0  0  0  0  0  0  0  0  0
    7.1330   49.5081   47.2868 C   0  0  0  0  0  0  0  0  0  0  0  0
  2  3  1  0  0  0
  3  4  2  0  0  0
  3  8  1  0  0  0
  1  2  2  0  0  0
 12  2  1  0  0  0
  2 16  1  0  0  0
  9 10  1  0  0  0
 10  4  1  0  0  0
  4  5  1  0  0  0
  5  6  2  0  0  0
  7  6  1  0  0  0
  8  7  2  0  0  0
 17 18  1  0  0  0
 13 14  1  0  0  0
 14 12  1  0  0  0
 16 18  1  0  0  0
 18 19  1  0  0  0
 15 14  1  0  0  0
  9 11  1  0  0  0
M  END
> <minimizedAffinity>
-5.15726

$$$$
3IOF_IFS_A_308


 19 19  0  0  0  0  0  0  0  0999 V2000
    5.8788   49.3673   50.7788 O   0  0  0  0  0  0  0  0  0  0  0  0
    4.9544   49.2604   49.4921 P   0  0  0  0  0  0  0  0  0  0  0  0
    5.7586   48.4960   48.1614 C   0  0  0  0  0  0  0  0  0  0  0  0
    5.4711   47.0772   47.7537 C   0  0  0  0  0  0  0  0  0  0  0  0
    6.1844   46.6088   46.6525 C   0  0  0  0  0  0  0  0  0  0  0  0
    7.1072   47.4124   45.9698 C   0  0  0  0  0  0  0  0  0  0  0  0
    7.3559   48.7203   46.3661 C   0  0  0  0  0  0  0  0  0  0  0  0
    6.6840   49.2579   47.4611 C   0  0  0  0  0  0  0  0  0  0  0  0
    2.9422   45.8503   47.5219 S   0  0  0  0  0  0  0  0  0  0  0  0
    4.5094   46.0965   48.4510 C   0  0  0  0  0  0  0  0  0  0  0  0
    2.1480   44.9761   48.1962 H   0  0  0  0  0  0  0  0  0  0  0  0
    3.5332   48.5814   49.7872 O   0  0  0  0  0  0  0  0  0  0  0  0
    1.1257   48.5707   49.6364 C   0  0  0  0  0  0  0  0  0  0  0  0
    2.3532   49.3267   50.1304 C   0  0  0  0  0  0  0  0  0  0  0  0
    2.3633   49.4852   51.6367 C   0  0  0  0  0  0  0  0  0  0  0  0
    4.6268   50.7506   49.0322 O   0  0  0  0  0  0  0  0  0  0  0  0
    3.9430   52.7993   50.1233 C   0  0  0  0  0  0  0  0  0  0  0  0
    5.0862   51.8075   49.8879 C   0  0  0  0  0  0  0  0  0  0  0  0
    6.3253   52.4367   49.2591 C   0  0  0  0  0  0  0  0  0  0  0  0
  2  3  1  0  0  0
  3  4  2  0  0  0
  3  8  1  0  0  0
  1  2  2  0  0  0
 12  2  1  0  0  0
  2 16  1  0  0  0
  9 10  1  0  0  0
 10  4  1  0  0  0
  4  5  1  0  0  0
  5  6  2  0  0  0
  7  6  1  0  0  0
  8  7  2  0  0  0
 17 18  1  0  0  0
 13 14  1  0  0  0
 14 12  1  0  0  0
 16 18  1  0  0  0
 18 19  1  0  0  0
 15 14  1  0  0  0
  9 11  1  0  0  0
M  END
> <minimizedAffinity>
-5.14804

$$$$
3IOF_IFS_A_308


 19 19  0  0  0  0  0  0  0  0999 V2000
    7.0561   49.5287   49.5997 O   0  0  0  0  0  0  0  0  0  0  0  0
    5.5419   49.2090   49.2438 P   0  0  0  0  0  0  0  0  0  0  0  0
    4.5439   50.6252   49.2661 C   0  0  0  0  0  0  0  0  0  0  0  0
    4.6565   51.6732   50.3389 C   0  0  0  0  0  0  0  0  0  0  0  0
    3.7988   52.7635   50.2105 C   0  0  0  0  0  0  0  0  0  0  0  0
    2.8930   52.8737   49.1471 C   0  0  0  0  0  0  0  0  0  0  0  0
    2.8074   51.8917   48.1684 C   0  0  0  0  0  0  0  0  0  0  0  0
    3.6301   50.7698   48.2311 C   0  0  0  0  0  0  0  0  0  0  0  0
    4.6778   51.8147   53.1555 S   0  0  0  0  0  0  0  0  0  0  0  0
    5.5857   51.6366   51.5669 C   0  0  0  0  0  0  0  0  0  0  0  0
    5.5606   51.7731   54.1893 H   0  0  0  0  0  0  0  0  0  0  0  0
    5.3710   48.3922   47.8758 O   0  0  0  0  0  0  0  0  0  0  0  0
    6.1023   46.6509   46.3751 C   0  0  0  0  0  0  0  0  0  0  0  0
    6.4770   47.9550   47.0687 C   0  0  0  0  0  0  0  0  0  0  0  0
    6.7618   49.0694   46.0831 C   0  0  0  0  0  0  0  0  0  0  0  0
    4.9912   48.2448   50.3869 O   0  0  0  0  0  0  0  0  0  0  0  0
    2.7266   48.2820   51.2385 C   0  0  0  0  0  0  0  0  0  0  0  0
    3.6796   47.6949   50.1931 C   0  0  0  0  0  0  0  0  0  0  0  0
    3.7800   46.1735   50.2394 C   0  0  0  0  0  0  0  0  0  0  0  0
  2  3  1  0  0  0
  3  4  2  0  0  0
  3  8  1  0  0  0
  1  2  2  0  0  0
 12  2  1  0  0  0
  2 16  1  0  0  0
  9 10  1  0  0  0
 10  4  1  0  0  0
  4  5  1  0  0  0
  5  6  2  0  0  0
  7  6  1  0  0  0
  8  7  2  0  0  0
 17 18  1  0  0  0
 13 14  1  0  0  0
 14 12  1  0  0  0
 16 18  1  0  0  0
 18 19  1  0  0  0
 15 14  1  0  0  0
  9 11  1  0  0  0
M  END
> <minimizedAffinity>
-5.01942

$$$$
