2GH9_MLR_A_2913


 45 47  0  0  0  0  0  0  0  0999 V2000
   23.2930   14.8873   20.6815 C   0  0  0  0  0  0  0  0  0  0  0  0
   22.3135   13.9522   21.3660 C   0  0  0  0  0  0  0  0  0  0  0  0
   22.1907   14.3413   22.8563 C   0  0  0  0  0  0  0  0  0  0  0  0
   23.5363   14.4463   23.5570 C   0  0  0  0  0  0  0  0  0  0  0  0
   24.4828   15.3309   22.7496 C   0  0  0  0  0  0  0  0  0  0  0  0
   21.0275   14.0644   20.7502 O   0  0  0  0  0  0  0  0  0  0  0  0
   21.3593   13.4218   23.5307 O   0  0  0  0  0  0  0  0  0  0  0  0
   24.5473   14.8857   21.3750 O   0  0  0  0  0  0  0  0  0  0  0  0
   20.7087   14.9770   20.8313 H   0  0  0  0  0  0  0  0  0  0  0  0
   21.7615   12.5396   23.5003 H   0  0  0  0  0  0  0  0  0  0  0  0
   25.8926   15.3170   23.3528 C   0  0  0  0  0  0  0  0  0  0  0  0
   26.0653   16.3351   24.3424 O   0  0  0  0  0  0  0  0  0  0  0  0
   25.9376   17.2064   23.9356 H   0  0  0  0  0  0  0  0  0  0  0  0
   22.7211   16.2054   20.6587 O   0  0  0  0  0  0  0  0  0  0  0  0
   22.1033   19.2873   17.9708 C   0  0  0  0  0  0  0  0  0  0  0  0
   21.3411   17.9925   17.6947 C   0  0  0  0  0  0  0  0  0  0  0  0
   21.3188   17.1373   18.9460 C   0  0  0  0  0  0  0  0  0  0  0  0
   22.7598   16.8635   19.4044 C   0  0  0  0  0  0  0  0  0  0  0  0
   23.5176   18.1751   19.6660 C   0  0  0  0  0  0  0  0  0  0  0  0
   21.3300   20.0787   18.8696 O   0  0  0  0  0  0  0  0  0  0  0  0
   20.0065   18.2740   17.2185 O   0  0  0  0  0  0  0  0  0  0  0  0
   20.6087   15.9054   18.7377 O   0  0  0  0  0  0  0  0  0  0  0  0
   23.3979   19.0230   18.5257 O   0  0  0  0  0  0  0  0  0  0  0  0
   21.1999   19.5924   19.6987 H   0  0  0  0  0  0  0  0  0  0  0  0
   19.5197   18.7701   17.8951 H   0  0  0  0  0  0  0  0  0  0  0  0
   21.0533   15.3886   18.0477 H   0  0  0  0  0  0  0  0  0  0  0  0
   25.0097   17.9157   19.9517 C   0  0  0  0  0  0  0  0  0  0  0  0
   25.4762   16.7162   19.3044 O   0  0  0  0  0  0  0  0  0  0  0  0
   24.9789   15.9537   19.6394 H   0  0  0  0  0  0  0  0  0  0  0  0
   23.3580   14.9859   24.8819 O   0  0  0  0  0  0  0  0  0  0  0  0
   23.6019   14.0386   25.9166 C   0  0  0  0  0  0  0  0  0  0  0  0
   22.4393   14.1747   26.8822 C   0  0  0  0  0  0  0  0  0  0  0  0
   22.4717   15.5339   27.5622 C   0  0  0  0  0  0  0  0  0  0  0  0
   23.8399   15.7440   28.1985 C   0  0  0  0  0  0  0  0  0  0  0  0
   24.9863   15.5584   27.1932 C   0  0  0  0  0  0  0  0  0  0  0  0
   21.1893   13.9961   26.1897 O   0  0  0  0  0  0  0  0  0  0  0  0
   21.4518   15.6044   28.5537 O   0  0  0  0  0  0  0  0  0  0  0  0
   23.8619   17.0571   28.7567 O   0  0  0  0  0  0  0  0  0  0  0  0
   24.8663   14.2774   26.5684 O   0  0  0  0  0  0  0  0  0  0  0  0
   21.0966   14.6801   25.5082 H   0  0  0  0  0  0  0  0  0  0  0  0
   21.5981   14.9126   29.2178 H   0  0  0  0  0  0  0  0  0  0  0  0
   23.7225   17.7100   28.0530 H   0  0  0  0  0  0  0  0  0  0  0  0
   26.3807   15.6350   27.8326 C   0  0  0  0  0  0  0  0  0  0  0  0
   27.1998   16.5240   27.0643 O   0  0  0  0  0  0  0  0  0  0  0  0
   27.2724   16.1926   26.1555 H   0  0  0  0  0  0  0  0  0  0  0  0
 15 16  1  0  0  0
 15 20  1  0  0  0
 15 23  1  0  0  0
 16 17  1  0  0  0
 16 21  1  0  0  0
 17 18  1  0  0  0
 17 22  1  0  0  0
 18 19  1  0  0  0
 18 14  1  0  0  0
 19 27  1  0  0  0
 19 23  1  0  0  0
 27 28  1  0  0  0
 14  1  1  0  0  0
  1  2  1  0  0  0
  1  8  1  0  0  0
  2  3  1  0  0  0
  2  6  1  0  0  0
  3  4  1  0  0  0
  3  7  1  0  0  0
  4  5  1  0  0  0
  4 30  1  0  0  0
  5 11  1  0  0  0
  5  8  1  0  0  0
 11 12  1  0  0  0
 30 31  1  0  0  0
 31 32  1  0  0  0
 31 39  1  0  0  0
 32 33  1  0  0  0
 32 36  1  0  0  0
 33 34  1  0  0  0
 33 37  1  0  0  0
 34 35  1  0  0  0
 34 38  1  0  0  0
 35 43  1  0  0  0
 35 39  1  0  0  0
 43 44  1  0  0  0
 20 24  1  0  0  0
 21 25  1  0  0  0
 22 26  1  0  0  0
 28 29  1  0  0  0
  6  9  1  0  0  0
  7 10  1  0  0  0
 12 13  1  0  0  0
 36 40  1  0  0  0
 37 41  1  0  0  0
 38 42  1  0  0  0
 44 45  1  0  0  0
M  END
> <minimizedAffinity>
-11.26699

$$$$
2GH9_MLR_A_2913


 45 47  0  0  0  0  0  0  0  0999 V2000
   23.6793   14.2989   21.7946 C   0  0  0  0  0  0  0  0  0  0  0  0
   24.9740   14.9459   21.3392 C   0  0  0  0  0  0  0  0  0  0  0  0
   24.6914   16.3984   20.8939 C   0  0  0  0  0  0  0  0  0  0  0  0
   23.5605   16.5015   19.8824 C   0  0  0  0  0  0  0  0  0  0  0  0
   22.3335   15.7454   20.3852 C   0  0  0  0  0  0  0  0  0  0  0  0
   25.9102   14.9665   22.4202 O   0  0  0  0  0  0  0  0  0  0  0  0
   25.8659   16.9838   20.3749 O   0  0  0  0  0  0  0  0  0  0  0  0
   22.6875   14.3953   20.7643 O   0  0  0  0  0  0  0  0  0  0  0  0
   25.5406   15.4756   23.1585 H   0  0  0  0  0  0  0  0  0  0  0  0
   26.1492   16.4955   19.5861 H   0  0  0  0  0  0  0  0  0  0  0  0
   21.2409   15.6992   19.3104 C   0  0  0  0  0  0  0  0  0  0  0  0
   20.3932   14.5559   19.4525 O   0  0  0  0  0  0  0  0  0  0  0  0
   20.9214   13.7480   19.3572 H   0  0  0  0  0  0  0  0  0  0  0  0
   23.2396   14.9589   22.9931 O   0  0  0  0  0  0  0  0  0  0  0  0
   22.3189   13.9006   26.8837 C   0  0  0  0  0  0  0  0  0  0  0  0
   23.7800   14.2540   26.6116 C   0  0  0  0  0  0  0  0  0  0  0  0
   23.8857   15.0159   25.3055 C   0  0  0  0  0  0  0  0  0  0  0  0
   23.2827   14.1727   24.1711 C   0  0  0  0  0  0  0  0  0  0  0  0
   21.8169   13.8144   24.4646 C   0  0  0  0  0  0  0  0  0  0  0  0
   21.6138   15.1053   27.1732 O   0  0  0  0  0  0  0  0  0  0  0  0
   24.3403   15.0038   27.7121 O   0  0  0  0  0  0  0  0  0  0  0  0
   25.2446   15.3746   25.0055 O   0  0  0  0  0  0  0  0  0  0  0  0
   21.7260   13.2322   25.7632 O   0  0  0  0  0  0  0  0  0  0  0  0
   21.6695   15.7036   26.4118 H   0  0  0  0  0  0  0  0  0  0  0  0
   23.8473   15.8317   27.8234 H   0  0  0  0  0  0  0  0  0  0  0  0
   25.7777   14.5700   24.9095 H   0  0  0  0  0  0  0  0  0  0  0  0
   21.2603   12.8237   23.4237 C   0  0  0  0  0  0  0  0  0  0  0  0
   20.4867   13.4936   22.4097 O   0  0  0  0  0  0  0  0  0  0  0  0
   19.7297   13.9385   22.8218 H   0  0  0  0  0  0  0  0  0  0  0  0
   23.2333   17.8866   19.6528 O   0  0  0  0  0  0  0  0  0  0  0  0
   23.7942   18.4097   18.4532 C   0  0  0  0  0  0  0  0  0  0  0  0
   24.2833   19.8035   18.8005 C   0  0  0  0  0  0  0  0  0  0  0  0
   23.1085   20.7112   19.1273 C   0  0  0  0  0  0  0  0  0  0  0  0
   22.1075   20.6687   17.9796 C   0  0  0  0  0  0  0  0  0  0  0  0
   21.6707   19.2362   17.6384 C   0  0  0  0  0  0  0  0  0  0  0  0
   25.1948   19.7514   19.9143 O   0  0  0  0  0  0  0  0  0  0  0  0
   23.5675   22.0439   19.3308 O   0  0  0  0  0  0  0  0  0  0  0  0
   20.9847   21.4662   18.3534 O   0  0  0  0  0  0  0  0  0  0  0  0
   22.8282   18.4359   17.3823 O   0  0  0  0  0  0  0  0  0  0  0  0
   24.7373   19.3906   20.6899 H   0  0  0  0  0  0  0  0  0  0  0  0
   24.0018   22.3630   18.5243 H   0  0  0  0  0  0  0  0  0  0  0  0
   20.5810   21.1003   19.1559 H   0  0  0  0  0  0  0  0  0  0  0  0
   20.7633   19.1501   16.4021 C   0  0  0  0  0  0  0  0  0  0  0  0
   19.3975   19.0806   16.8279 O   0  0  0  0  0  0  0  0  0  0  0  0
   19.2716   18.2955   17.3836 H   0  0  0  0  0  0  0  0  0  0  0  0
 15 16  1  0  0  0
 15 20  1  0  0  0
 15 23  1  0  0  0
 16 17  1  0  0  0
 16 21  1  0  0  0
 17 18  1  0  0  0
 17 22  1  0  0  0
 18 19  1  0  0  0
 18 14  1  0  0  0
 19 27  1  0  0  0
 19 23  1  0  0  0
 27 28  1  0  0  0
 14  1  1  0  0  0
  1  2  1  0  0  0
  1  8  1  0  0  0
  2  3  1  0  0  0
  2  6  1  0  0  0
  3  4  1  0  0  0
  3  7  1  0  0  0
  4  5  1  0  0  0
  4 30  1  0  0  0
  5 11  1  0  0  0
  5  8  1  0  0  0
 11 12  1  0  0  0
 30 31  1  0  0  0
 31 32  1  0  0  0
 31 39  1  0  0  0
 32 33  1  0  0  0
 32 36  1  0  0  0
 33 34  1  0  0  0
 33 37  1  0  0  0
 34 35  1  0  0  0
 34 38  1  0  0  0
 35 43  1  0  0  0
 35 39  1  0  0  0
 43 44  1  0  0  0
 20 24  1  0  0  0
 21 25  1  0  0  0
 22 26  1  0  0  0
 28 29  1  0  0  0
  6  9  1  0  0  0
  7 10  1  0  0  0
 12 13  1  0  0  0
 36 40  1  0  0  0
 37 41  1  0  0  0
 38 42  1  0  0  0
 44 45  1  0  0  0
M  END
> <minimizedAffinity>
-10.24540

$$$$
2GH9_MLR_A_2913


 45 47  0  0  0  0  0  0  0  0999 V2000
   24.0306   14.4426   26.0972 C   0  0  0  0  0  0  0  0  0  0  0  0
   22.9684   14.2721   27.1672 C   0  0  0  0  0  0  0  0  0  0  0  0
   22.6070   15.6549   27.7547 C   0  0  0  0  0  0  0  0  0  0  0  0
   23.8239   16.4434   28.2129 C   0  0  0  0  0  0  0  0  0  0  0  0
   24.8736   16.4829   27.1053 C   0  0  0  0  0  0  0  0  0  0  0  0
   21.7940   13.6908   26.5941 O   0  0  0  0  0  0  0  0  0  0  0  0
   21.6925   15.5057   28.8190 O   0  0  0  0  0  0  0  0  0  0  0  0
   25.1599   15.1482   26.6275 O   0  0  0  0  0  0  0  0  0  0  0  0
   21.4540   14.2713   25.8953 H   0  0  0  0  0  0  0  0  0  0  0  0
   22.1065   14.9943   29.5318 H   0  0  0  0  0  0  0  0  0  0  0  0
   26.1708   17.1312   27.6037 C   0  0  0  0  0  0  0  0  0  0  0  0
   26.4181   16.8494   28.9840 O   0  0  0  0  0  0  0  0  0  0  0  0
   25.6950   17.2081   29.5219 H   0  0  0  0  0  0  0  0  0  0  0  0
   23.4514   15.1574   24.9932 O   0  0  0  0  0  0  0  0  0  0  0  0
   23.4256   15.0112   20.8601 C   0  0  0  0  0  0  0  0  0  0  0  0
   22.9153   13.7638   21.5795 C   0  0  0  0  0  0  0  0  0  0  0  0
   22.5800   14.1059   23.0176 C   0  0  0  0  0  0  0  0  0  0  0  0
   23.8217   14.6932   23.7067 C   0  0  0  0  0  0  0  0  0  0  0  0
   24.3308   15.9395   22.9648 C   0  0  0  0  0  0  0  0  0  0  0  0
   22.3370   15.9199   20.7136 O   0  0  0  0  0  0  0  0  0  0  0  0
   21.7790   13.2008   20.8874 O   0  0  0  0  0  0  0  0  0  0  0  0
   22.0916   12.9624   23.7381 O   0  0  0  0  0  0  0  0  0  0  0  0
   24.4977   15.6290   21.5831 O   0  0  0  0  0  0  0  0  0  0  0  0
   21.9984   16.1627   21.5895 H   0  0  0  0  0  0  0  0  0  0  0  0
   21.0590   13.8504   20.8663 H   0  0  0  0  0  0  0  0  0  0  0  0
   22.7780   12.2774   23.7611 H   0  0  0  0  0  0  0  0  0  0  0  0
   25.6739   16.4282   23.5414 C   0  0  0  0  0  0  0  0  0  0  0  0
   26.4855   15.3324   24.0058 O   0  0  0  0  0  0  0  0  0  0  0  0
   26.0189   14.8619   24.7141 H   0  0  0  0  0  0  0  0  0  0  0  0
   23.4318   17.7823   28.5763 O   0  0  0  0  0  0  0  0  0  0  0  0
   23.3300   17.9805   29.9826 C   0  0  0  0  0  0  0  0  0  0  0  0
   22.1203   18.8736   30.1863 C   0  0  0  0  0  0  0  0  0  0  0  0
   22.3753   20.2530   29.6007 C   0  0  0  0  0  0  0  0  0  0  0  0
   23.6689   20.8122   30.1795 C   0  0  0  0  0  0  0  0  0  0  0  0
   24.8567   19.8581   29.9840 C   0  0  0  0  0  0  0  0  0  0  0  0
   20.9548   18.2846   29.5791 O   0  0  0  0  0  0  0  0  0  0  0  0
   21.2857   21.1180   29.9051 O   0  0  0  0  0  0  0  0  0  0  0  0
   23.9183   22.0686   29.5504 O   0  0  0  0  0  0  0  0  0  0  0  0
   24.5278   18.5749   30.5235 O   0  0  0  0  0  0  0  0  0  0  0  0
   21.1010   18.1884   28.6250 H   0  0  0  0  0  0  0  0  0  0  0  0
   21.1916   21.1932   30.8676 H   0  0  0  0  0  0  0  0  0  0  0  0
   24.0151   21.9378   28.5941 H   0  0  0  0  0  0  0  0  0  0  0  0
   26.1453   20.3347   30.6708 C   0  0  0  0  0  0  0  0  0  0  0  0
   27.1670   19.3482   30.4852 O   0  0  0  0  0  0  0  0  0  0  0  0
   26.8789   18.5073   30.8736 H   0  0  0  0  0  0  0  0  0  0  0  0
 15 16  1  0  0  0
 15 20  1  0  0  0
 15 23  1  0  0  0
 16 17  1  0  0  0
 16 21  1  0  0  0
 17 18  1  0  0  0
 17 22  1  0  0  0
 18 19  1  0  0  0
 18 14  1  0  0  0
 19 27  1  0  0  0
 19 23  1  0  0  0
 27 28  1  0  0  0
 14  1  1  0  0  0
  1  2  1  0  0  0
  1  8  1  0  0  0
  2  3  1  0  0  0
  2  6  1  0  0  0
  3  4  1  0  0  0
  3  7  1  0  0  0
  4  5  1  0  0  0
  4 30  1  0  0  0
  5 11  1  0  0  0
  5  8  1  0  0  0
 11 12  1  0  0  0
 30 31  1  0  0  0
 31 32  1  0  0  0
 31 39  1  0  0  0
 32 33  1  0  0  0
 32 36  1  0  0  0
 33 34  1  0  0  0
 33 37  1  0  0  0
 34 35  1  0  0  0
 34 38  1  0  0  0
 35 43  1  0  0  0
 35 39  1  0  0  0
 43 44  1  0  0  0
 20 24  1  0  0  0
 21 25  1  0  0  0
 22 26  1  0  0  0
 28 29  1  0  0  0
  6  9  1  0  0  0
  7 10  1  0  0  0
 12 13  1  0  0  0
 36 40  1  0  0  0
 37 41  1  0  0  0
 38 42  1  0  0  0
 44 45  1  0  0  0
M  END
> <minimizedAffinity>
-9.74736

$$$$
2GH9_MLR_A_2913


 45 47  0  0  0  0  0  0  0  0999 V2000
   24.8048   15.2823   25.6629 C   0  0  0  0  0  0  0  0  0  0  0  0
   25.9152   16.0286   24.9471 C   0  0  0  0  0  0  0  0  0  0  0  0
   25.3444   16.7021   23.6789 C   0  0  0  0  0  0  0  0  0  0  0  0
   24.5742   15.7392   22.7889 C   0  0  0  0  0  0  0  0  0  0  0  0
   23.5450   14.9694   23.6124 C   0  0  0  0  0  0  0  0  0  0  0  0
   26.4511   17.0383   25.8067 O   0  0  0  0  0  0  0  0  0  0  0  0
   26.3824   17.3187   22.9482 O   0  0  0  0  0  0  0  0  0  0  0  0
   24.1685   14.3618   24.7673 O   0  0  0  0  0  0  0  0  0  0  0  0
   25.7496   17.6631   26.0482 H   0  0  0  0  0  0  0  0  0  0  0  0
   27.0136   16.6446   22.6515 H   0  0  0  0  0  0  0  0  0  0  0  0
   22.8729   13.8799   22.7683 C   0  0  0  0  0  0  0  0  0  0  0  0
   21.5839   14.2820   22.2967 O   0  0  0  0  0  0  0  0  0  0  0  0
   21.0025   14.4557   23.0535 H   0  0  0  0  0  0  0  0  0  0  0  0
   23.8624   16.2441   26.1649 O   0  0  0  0  0  0  0  0  0  0  0  0
   21.9426   17.0931   29.7283 C   0  0  0  0  0  0  0  0  0  0  0  0
   23.3583   17.6474   29.5795 C   0  0  0  0  0  0  0  0  0  0  0  0
   23.7582   17.6386   28.1175 C   0  0  0  0  0  0  0  0  0  0  0  0
   23.6451   16.2093   27.5646 C   0  0  0  0  0  0  0  0  0  0  0  0
   22.2190   15.6605   27.7327 C   0  0  0  0  0  0  0  0  0  0  0  0
   21.0329   18.0295   29.1557 O   0  0  0  0  0  0  0  0  0  0  0  0
   23.4536   18.9715   30.1494 O   0  0  0  0  0  0  0  0  0  0  0  0
   25.0854   18.1550   27.9242 O   0  0  0  0  0  0  0  0  0  0  0  0
   21.8120   15.8164   29.0905 O   0  0  0  0  0  0  0  0  0  0  0  0
   21.2406   18.1487   28.2157 H   0  0  0  0  0  0  0  0  0  0  0  0
   22.8473   19.5685   29.6836 H   0  0  0  0  0  0  0  0  0  0  0  0
   25.7218   17.5960   28.3967 H   0  0  0  0  0  0  0  0  0  0  0  0
   22.1401   14.1706   27.3467 C   0  0  0  0  0  0  0  0  0  0  0  0
   21.4697   13.9808   26.0858 O   0  0  0  0  0  0  0  0  0  0  0  0
   20.5607   14.3133   26.1497 H   0  0  0  0  0  0  0  0  0  0  0  0
   23.9216   16.4668   21.7292 O   0  0  0  0  0  0  0  0  0  0  0  0
   24.1200   15.8917   20.4418 C   0  0  0  0  0  0  0  0  0  0  0  0
   24.8062   16.9622   19.6136 C   0  0  0  0  0  0  0  0  0  0  0  0
   23.8715   18.1402   19.3909 C   0  0  0  0  0  0  0  0  0  0  0  0
   22.5617   17.6360   18.7982 C   0  0  0  0  0  0  0  0  0  0  0  0
   21.9238   16.5279   19.6493 C   0  0  0  0  0  0  0  0  0  0  0  0
   26.0129   17.4026   20.2648 O   0  0  0  0  0  0  0  0  0  0  0  0
   24.4791   19.0818   18.5121 O   0  0  0  0  0  0  0  0  0  0  0  0
   21.6818   18.7530   18.6772 O   0  0  0  0  0  0  0  0  0  0  0  0
   22.8730   15.4765   19.8475 O   0  0  0  0  0  0  0  0  0  0  0  0
   25.7930   17.7848   21.1288 H   0  0  0  0  0  0  0  0  0  0  0  0
   24.6639   18.6565   17.6601 H   0  0  0  0  0  0  0  0  0  0  0  0
   21.5209   19.1344   19.5544 H   0  0  0  0  0  0  0  0  0  0  0  0
   20.6712   15.9090   19.0110 C   0  0  0  0  0  0  0  0  0  0  0  0
   20.4961   14.5804   19.5166 O   0  0  0  0  0  0  0  0  0  0  0  0
   21.2752   14.0458   19.2974 H   0  0  0  0  0  0  0  0  0  0  0  0
 15 16  1  0  0  0
 15 20  1  0  0  0
 15 23  1  0  0  0
 16 17  1  0  0  0
 16 21  1  0  0  0
 17 18  1  0  0  0
 17 22  1  0  0  0
 18 19  1  0  0  0
 18 14  1  0  0  0
 19 27  1  0  0  0
 19 23  1  0  0  0
 27 28  1  0  0  0
 14  1  1  0  0  0
  1  2  1  0  0  0
  1  8  1  0  0  0
  2  3  1  0  0  0
  2  6  1  0  0  0
  3  4  1  0  0  0
  3  7  1  0  0  0
  4  5  1  0  0  0
  4 30  1  0  0  0
  5 11  1  0  0  0
  5  8  1  0  0  0
 11 12  1  0  0  0
 30 31  1  0  0  0
 31 32  1  0  0  0
 31 39  1  0  0  0
 32 33  1  0  0  0
 32 36  1  0  0  0
 33 34  1  0  0  0
 33 37  1  0  0  0
 34 35  1  0  0  0
 34 38  1  0  0  0
 35 43  1  0  0  0
 35 39  1  0  0  0
 43 44  1  0  0  0
 20 24  1  0  0  0
 21 25  1  0  0  0
 22 26  1  0  0  0
 28 29  1  0  0  0
  6  9  1  0  0  0
  7 10  1  0  0  0
 12 13  1  0  0  0
 36 40  1  0  0  0
 37 41  1  0  0  0
 38 42  1  0  0  0
 44 45  1  0  0  0
M  END
> <minimizedAffinity>
-9.65985

$$$$
2GH9_MLR_A_2913


 45 47  0  0  0  0  0  0  0  0999 V2000
   24.5054   17.2029   29.0544 C   0  0  0  0  0  0  0  0  0  0  0  0
   25.7978   17.3174   28.2676 C   0  0  0  0  0  0  0  0  0  0  0  0
   25.4838   17.2574   26.7559 C   0  0  0  0  0  0  0  0  0  0  0  0
   24.6317   16.0577   26.3721 C   0  0  0  0  0  0  0  0  0  0  0  0
   23.4042   15.9729   27.2755 C   0  0  0  0  0  0  0  0  0  0  0  0
   26.4325   18.5653   28.5599 O   0  0  0  0  0  0  0  0  0  0  0  0
   26.6823   17.2635   26.0109 O   0  0  0  0  0  0  0  0  0  0  0  0
   23.7927   16.0209   28.6679 O   0  0  0  0  0  0  0  0  0  0  0  0
   25.8419   19.2941   28.3130 H   0  0  0  0  0  0  0  0  0  0  0  0
   27.1999   16.4715   26.2246 H   0  0  0  0  0  0  0  0  0  0  0  0
   22.6200   14.6816   27.0132 C   0  0  0  0  0  0  0  0  0  0  0  0
   21.2166   14.8494   27.2327 O   0  0  0  0  0  0  0  0  0  0  0  0
   21.0611   15.0945   28.1582 H   0  0  0  0  0  0  0  0  0  0  0  0
   23.7187   18.3799   28.8078 O   0  0  0  0  0  0  0  0  0  0  0  0
   21.7692   21.2508   31.0577 C   0  0  0  0  0  0  0  0  0  0  0  0
   23.2247   21.5497   30.7029 C   0  0  0  0  0  0  0  0  0  0  0  0
   23.6625   20.6617   29.5551 C   0  0  0  0  0  0  0  0  0  0  0  0
   23.4616   19.1883   29.9427 C   0  0  0  0  0  0  0  0  0  0  0  0
   21.9956   18.9057   30.3091 C   0  0  0  0  0  0  0  0  0  0  0  0
   20.9453   21.7052   29.9867 O   0  0  0  0  0  0  0  0  0  0  0  0
   23.3998   22.9492   30.3898 O   0  0  0  0  0  0  0  0  0  0  0  0
   25.0281   20.9075   29.1811 O   0  0  0  0  0  0  0  0  0  0  0  0
   21.5643   19.8509   31.2859 O   0  0  0  0  0  0  0  0  0  0  0  0
   21.1864   21.2369   29.1721 H   0  0  0  0  0  0  0  0  0  0  0  0
   22.8510   23.1803   29.6241 H   0  0  0  0  0  0  0  0  0  0  0  0
   25.6096   20.7095   29.9319 H   0  0  0  0  0  0  0  0  0  0  0  0
   21.8200   17.4807   30.8691 C   0  0  0  0  0  0  0  0  0  0  0  0
   21.2599   16.5871   29.8877 O   0  0  0  0  0  0  0  0  0  0  0  0
   20.3827   16.9059   29.6234 H   0  0  0  0  0  0  0  0  0  0  0  0
   24.2286   16.1644   24.9920 O   0  0  0  0  0  0  0  0  0  0  0  0
   24.8216   15.1802   24.1512 C   0  0  0  0  0  0  0  0  0  0  0  0
   25.2823   15.9218   22.9101 C   0  0  0  0  0  0  0  0  0  0  0  0
   24.0866   16.4498   22.1340 C   0  0  0  0  0  0  0  0  0  0  0  0
   23.1238   15.3026   21.8546 C   0  0  0  0  0  0  0  0  0  0  0  0
   22.7157   14.5577   23.1344 C   0  0  0  0  0  0  0  0  0  0  0  0
   26.1578   17.0069   23.2710 O   0  0  0  0  0  0  0  0  0  0  0  0
   24.5225   17.0353   20.9111 O   0  0  0  0  0  0  0  0  0  0  0  0
   21.9798   15.8465   21.1973 O   0  0  0  0  0  0  0  0  0  0  0  0
   23.8905   14.1271   23.8274 O   0  0  0  0  0  0  0  0  0  0  0  0
   25.6799   17.6335   23.8365 H   0  0  0  0  0  0  0  0  0  0  0  0
   24.9786   16.3664   20.3769 H   0  0  0  0  0  0  0  0  0  0  0  0
   21.5549   16.4995   21.7752 H   0  0  0  0  0  0  0  0  0  0  0  0
   21.8499   13.3165   22.8716 C   0  0  0  0  0  0  0  0  0  0  0  0
   22.0801   12.8600   21.5336 O   0  0  0  0  0  0  0  0  0  0  0  0
   21.8461   13.5628   20.9074 H   0  0  0  0  0  0  0  0  0  0  0  0
 15 16  1  0  0  0
 15 20  1  0  0  0
 15 23  1  0  0  0
 16 17  1  0  0  0
 16 21  1  0  0  0
 17 18  1  0  0  0
 17 22  1  0  0  0
 18 19  1  0  0  0
 18 14  1  0  0  0
 19 27  1  0  0  0
 19 23  1  0  0  0
 27 28  1  0  0  0
 14  1  1  0  0  0
  1  2  1  0  0  0
  1  8  1  0  0  0
  2  3  1  0  0  0
  2  6  1  0  0  0
  3  4  1  0  0  0
  3  7  1  0  0  0
  4  5  1  0  0  0
  4 30  1  0  0  0
  5 11  1  0  0  0
  5  8  1  0  0  0
 11 12  1  0  0  0
 30 31  1  0  0  0
 31 32  1  0  0  0
 31 39  1  0  0  0
 32 33  1  0  0  0
 32 36  1  0  0  0
 33 34  1  0  0  0
 33 37  1  0  0  0
 34 35  1  0  0  0
 34 38  1  0  0  0
 35 43  1  0  0  0
 35 39  1  0  0  0
 43 44  1  0  0  0
 20 24  1  0  0  0
 21 25  1  0  0  0
 22 26  1  0  0  0
 28 29  1  0  0  0
  6  9  1  0  0  0
  7 10  1  0  0  0
 12 13  1  0  0  0
 36 40  1  0  0  0
 37 41  1  0  0  0
 38 42  1  0  0  0
 44 45  1  0  0  0
M  END
> <minimizedAffinity>
-9.22766

$$$$
2GH9_MLR_A_2913


 45 47  0  0  0  0  0  0  0  0999 V2000
   22.2936   16.7052   20.9155 C   0  0  0  0  0  0  0  0  0  0  0  0
   21.0574   16.7915   20.0400 C   0  0  0  0  0  0  0  0  0  0  0  0
   21.4671   17.2368   18.6182 C   0  0  0  0  0  0  0  0  0  0  0  0
   22.3177   18.4973   18.6112 C   0  0  0  0  0  0  0  0  0  0  0  0
   23.4823   18.3522   19.5874 C   0  0  0  0  0  0  0  0  0  0  0  0
   20.4305   15.5084   19.9611 O   0  0  0  0  0  0  0  0  0  0  0  0
   20.3195   17.4175   17.8170 O   0  0  0  0  0  0  0  0  0  0  0  0
   23.0057   17.9488   20.8920 O   0  0  0  0  0  0  0  0  0  0  0  0
   21.0504   14.8687   19.5771 H   0  0  0  0  0  0  0  0  0  0  0  0
   19.7733   18.1271   18.1898 H   0  0  0  0  0  0  0  0  0  0  0  0
   24.2555   19.6701   19.7163 C   0  0  0  0  0  0  0  0  0  0  0  0
   23.4037   20.8105   19.5769 O   0  0  0  0  0  0  0  0  0  0  0  0
   22.9961   20.8039   18.6967 H   0  0  0  0  0  0  0  0  0  0  0  0
   23.1183   15.6326   20.4310 O   0  0  0  0  0  0  0  0  0  0  0  0
   24.3374   14.6413   24.2566 C   0  0  0  0  0  0  0  0  0  0  0  0
   25.4008   15.2625   23.3527 C   0  0  0  0  0  0  0  0  0  0  0  0
   24.7331   15.9525   22.1798 C   0  0  0  0  0  0  0  0  0  0  0  0
   23.8601   14.9411   21.4205 C   0  0  0  0  0  0  0  0  0  0  0  0
   22.8037   14.3154   22.3455 C   0  0  0  0  0  0  0  0  0  0  0  0
   23.6173   15.6959   24.8903 O   0  0  0  0  0  0  0  0  0  0  0  0
   26.2402   16.1721   24.0978 O   0  0  0  0  0  0  0  0  0  0  0  0
   25.6942   16.5569   21.2987 O   0  0  0  0  0  0  0  0  0  0  0  0
   23.4440   13.8037   23.5124 O   0  0  0  0  0  0  0  0  0  0  0  0
   23.1916   16.2477   24.2156 H   0  0  0  0  0  0  0  0  0  0  0  0
   25.6976   16.8901   24.4596 H   0  0  0  0  0  0  0  0  0  0  0  0
   26.2739   15.8706   20.9328 H   0  0  0  0  0  0  0  0  0  0  0  0
   22.0440   13.1744   21.6413 C   0  0  0  0  0  0  0  0  0  0  0  0
   21.4489   12.2657   22.5877 O   0  0  0  0  0  0  0  0  0  0  0  0
   22.1448   11.8613   23.1290 H   0  0  0  0  0  0  0  0  0  0  0  0
   22.8112   18.7481   17.2801 O   0  0  0  0  0  0  0  0  0  0  0  0
   22.1965   19.8671   16.6498 C   0  0  0  0  0  0  0  0  0  0  0  0
   21.9390   19.4423   15.2159 C   0  0  0  0  0  0  0  0  0  0  0  0
   23.2532   19.2351   14.4805 C   0  0  0  0  0  0  0  0  0  0  0  0
   24.1071   20.4895   14.6164 C   0  0  0  0  0  0  0  0  0  0  0  0
   24.3085   20.9029   16.0819 C   0  0  0  0  0  0  0  0  0  0  0  0
   21.1569   18.2335   15.1844 O   0  0  0  0  0  0  0  0  0  0  0  0
   23.0014   18.9578   13.1065 O   0  0  0  0  0  0  0  0  0  0  0  0
   25.3606   20.2316   13.9849 O   0  0  0  0  0  0  0  0  0  0  0  0
   23.0335   21.0400   16.7155 O   0  0  0  0  0  0  0  0  0  0  0  0
   21.6447   17.5212   15.6267 H   0  0  0  0  0  0  0  0  0  0  0  0
   22.5275   19.7042   12.7075 H   0  0  0  0  0  0  0  0  0  0  0  0
   25.7976   19.4865   14.4261 H   0  0  0  0  0  0  0  0  0  0  0  0
   25.0547   22.2355   16.2459 C   0  0  0  0  0  0  0  0  0  0  0  0
   25.0055   22.6333   17.6210 O   0  0  0  0  0  0  0  0  0  0  0  0
   24.0807   22.7384   17.8942 H   0  0  0  0  0  0  0  0  0  0  0  0
 15 16  1  0  0  0
 15 20  1  0  0  0
 15 23  1  0  0  0
 16 17  1  0  0  0
 16 21  1  0  0  0
 17 18  1  0  0  0
 17 22  1  0  0  0
 18 19  1  0  0  0
 18 14  1  0  0  0
 19 27  1  0  0  0
 19 23  1  0  0  0
 27 28  1  0  0  0
 14  1  1  0  0  0
  1  2  1  0  0  0
  1  8  1  0  0  0
  2  3  1  0  0  0
  2  6  1  0  0  0
  3  4  1  0  0  0
  3  7  1  0  0  0
  4  5  1  0  0  0
  4 30  1  0  0  0
  5 11  1  0  0  0
  5  8  1  0  0  0
 11 12  1  0  0  0
 30 31  1  0  0  0
 31 32  1  0  0  0
 31 39  1  0  0  0
 32 33  1  0  0  0
 32 36  1  0  0  0
 33 34  1  0  0  0
 33 37  1  0  0  0
 34 35  1  0  0  0
 34 38  1  0  0  0
 35 43  1  0  0  0
 35 39  1  0  0  0
 43 44  1  0  0  0
 20 24  1  0  0  0
 21 25  1  0  0  0
 22 26  1  0  0  0
 28 29  1  0  0  0
  6  9  1  0  0  0
  7 10  1  0  0  0
 12 13  1  0  0  0
 36 40  1  0  0  0
 37 41  1  0  0  0
 38 42  1  0  0  0
 44 45  1  0  0  0
M  END
> <minimizedAffinity>
-9.17261

$$$$
2GH9_MLR_A_2913


 45 47  0  0  0  0  0  0  0  0999 V2000
   24.5022   14.7093   24.5489 C   0  0  0  0  0  0  0  0  0  0  0  0
   25.5368   15.2719   23.5922 C   0  0  0  0  0  0  0  0  0  0  0  0
   24.8241   15.8442   22.3463 C   0  0  0  0  0  0  0  0  0  0  0  0
   23.8622   14.8565   21.7045 C   0  0  0  0  0  0  0  0  0  0  0  0
   22.9226   14.2760   22.7582 C   0  0  0  0  0  0  0  0  0  0  0  0
   26.2662   16.3225   24.2323 O   0  0  0  0  0  0  0  0  0  0  0  0
   25.7762   16.2829   21.4016 O   0  0  0  0  0  0  0  0  0  0  0  0
   23.6743   13.7515   23.8770 O   0  0  0  0  0  0  0  0  0  0  0  0
   25.6543   17.0285   24.4932 H   0  0  0  0  0  0  0  0  0  0  0  0
   26.3068   15.5279   21.1028 H   0  0  0  0  0  0  0  0  0  0  0  0
   22.0560   13.1597   22.1629 C   0  0  0  0  0  0  0  0  0  0  0  0
   20.6607   13.3873   22.3797 O   0  0  0  0  0  0  0  0  0  0  0  0
   20.4810   13.4104   23.3326 H   0  0  0  0  0  0  0  0  0  0  0  0
   23.7159   15.7989   25.0585 O   0  0  0  0  0  0  0  0  0  0  0  0
   22.5353   17.2113   28.7620 C   0  0  0  0  0  0  0  0  0  0  0  0
   23.8461   17.7741   28.2152 C   0  0  0  0  0  0  0  0  0  0  0  0
   23.9288   17.5164   26.7238 C   0  0  0  0  0  0  0  0  0  0  0  0
   23.8012   16.0084   26.4573 C   0  0  0  0  0  0  0  0  0  0  0  0
   22.4840   15.4542   27.0239 C   0  0  0  0  0  0  0  0  0  0  0  0
   21.4628   18.0013   28.2541 O   0  0  0  0  0  0  0  0  0  0  0  0
   23.9672   19.1812   28.5198 O   0  0  0  0  0  0  0  0  0  0  0  0
   25.1464   18.0312   26.1601 O   0  0  0  0  0  0  0  0  0  0  0  0
   22.3622   15.8376   28.3920 O   0  0  0  0  0  0  0  0  0  0  0  0
   21.4591   17.9568   27.2852 H   0  0  0  0  0  0  0  0  0  0  0  0
   23.2365   19.6659   28.1050 H   0  0  0  0  0  0  0  0  0  0  0  0
   25.9053   17.5859   26.5685 H   0  0  0  0  0  0  0  0  0  0  0  0
   22.4292   13.9175   26.9204 C   0  0  0  0  0  0  0  0  0  0  0  0
   21.5319   13.4845   25.8797 O   0  0  0  0  0  0  0  0  0  0  0  0
   20.6343   13.7951   26.0768 H   0  0  0  0  0  0  0  0  0  0  0  0
   23.1048   15.5131   20.6684 O   0  0  0  0  0  0  0  0  0  0  0  0
   22.3644   16.6367   21.1338 C   0  0  0  0  0  0  0  0  0  0  0  0
   21.1042   16.6781   20.2896 C   0  0  0  0  0  0  0  0  0  0  0  0
   21.4463   16.9905   18.8417 C   0  0  0  0  0  0  0  0  0  0  0  0
   22.2770   18.2665   18.7868 C   0  0  0  0  0  0  0  0  0  0  0  0
   23.5204   18.1930   19.6855 C   0  0  0  0  0  0  0  0  0  0  0  0
   20.4032   15.4229   20.3739 O   0  0  0  0  0  0  0  0  0  0  0  0
   20.2507   17.1487   18.0843 O   0  0  0  0  0  0  0  0  0  0  0  0
   22.6465   18.4854   17.4259 O   0  0  0  0  0  0  0  0  0  0  0  0
   23.1232   17.8580   21.0181 O   0  0  0  0  0  0  0  0  0  0  0  0
   20.9700   14.7126   20.0346 H   0  0  0  0  0  0  0  0  0  0  0  0
   19.7287   17.8786   18.4527 H   0  0  0  0  0  0  0  0  0  0  0  0
   23.1740   17.7353   17.1095 H   0  0  0  0  0  0  0  0  0  0  0  0
   24.3071   19.5106   19.7523 C   0  0  0  0  0  0  0  0  0  0  0  0
   25.1517   19.6104   18.5998 O   0  0  0  0  0  0  0  0  0  0  0  0
   25.7668   18.8606   18.5838 H   0  0  0  0  0  0  0  0  0  0  0  0
 15 16  1  0  0  0
 15 20  1  0  0  0
 15 23  1  0  0  0
 16 17  1  0  0  0
 16 21  1  0  0  0
 17 18  1  0  0  0
 17 22  1  0  0  0
 18 19  1  0  0  0
 18 14  1  0  0  0
 19 27  1  0  0  0
 19 23  1  0  0  0
 27 28  1  0  0  0
 14  1  1  0  0  0
  1  2  1  0  0  0
  1  8  1  0  0  0
  2  3  1  0  0  0
  2  6  1  0  0  0
  3  4  1  0  0  0
  3  7  1  0  0  0
  4  5  1  0  0  0
  4 30  1  0  0  0
  5 11  1  0  0  0
  5  8  1  0  0  0
 11 12  1  0  0  0
 30 31  1  0  0  0
 31 32  1  0  0  0
 31 39  1  0  0  0
 32 33  1  0  0  0
 32 36  1  0  0  0
 33 34  1  0  0  0
 33 37  1  0  0  0
 34 35  1  0  0  0
 34 38  1  0  0  0
 35 43  1  0  0  0
 35 39  1  0  0  0
 43 44  1  0  0  0
 20 24  1  0  0  0
 21 25  1  0  0  0
 22 26  1  0  0  0
 28 29  1  0  0  0
  6  9  1  0  0  0
  7 10  1  0  0  0
 12 13  1  0  0  0
 36 40  1  0  0  0
 37 41  1  0  0  0
 38 42  1  0  0  0
 44 45  1  0  0  0
M  END
> <minimizedAffinity>
-8.83744

$$$$
2GH9_MLR_A_2913


 45 47  0  0  0  0  0  0  0  0999 V2000
   25.2478   17.4917   26.8617 C   0  0  0  0  0  0  0  0  0  0  0  0
   26.1825   18.2105   25.9068 C   0  0  0  0  0  0  0  0  0  0  0  0
   25.6035   18.1428   24.4758 C   0  0  0  0  0  0  0  0  0  0  0  0
   25.2476   16.7288   24.0439 C   0  0  0  0  0  0  0  0  0  0  0  0
   24.3837   16.0552   25.1069 C   0  0  0  0  0  0  0  0  0  0  0  0
   26.3060   19.5823   26.2924 O   0  0  0  0  0  0  0  0  0  0  0  0
   26.5075   18.7207   23.5590 O   0  0  0  0  0  0  0  0  0  0  0  0
   25.0082   16.1535   26.4078 O   0  0  0  0  0  0  0  0  0  0  0  0
   25.4335   20.0055   26.2654 H   0  0  0  0  0  0  0  0  0  0  0  0
   27.3334   18.2120   23.5550 H   0  0  0  0  0  0  0  0  0  0  0  0
   24.1512   14.5780   24.7675 C   0  0  0  0  0  0  0  0  0  0  0  0
   22.8673   14.3563   24.1774 O   0  0  0  0  0  0  0  0  0  0  0  0
   22.1742   14.6176   24.8037 H   0  0  0  0  0  0  0  0  0  0  0  0
   24.0201   18.2345   26.9396 O   0  0  0  0  0  0  0  0  0  0  0  0
   21.3228   19.4852   29.8145 C   0  0  0  0  0  0  0  0  0  0  0  0
   22.6659   20.2128   29.7919 C   0  0  0  0  0  0  0  0  0  0  0  0
   23.3569   19.9666   28.4655 C   0  0  0  0  0  0  0  0  0  0  0  0
   23.5244   18.4545   28.2487 C   0  0  0  0  0  0  0  0  0  0  0  0
   22.1667   17.7346   28.2866 C   0  0  0  0  0  0  0  0  0  0  0  0
   20.4497   20.1289   28.8895 O   0  0  0  0  0  0  0  0  0  0  0  0
   22.4895   21.6240   30.0464 O   0  0  0  0  0  0  0  0  0  0  0  0
   24.6274   20.6345   28.3936 O   0  0  0  0  0  0  0  0  0  0  0  0
   21.4735   18.1004   29.4779 O   0  0  0  0  0  0  0  0  0  0  0  0
   20.8316   20.0834   27.9990 H   0  0  0  0  0  0  0  0  0  0  0  0
   21.9281   22.0094   29.3557 H   0  0  0  0  0  0  0  0  0  0  0  0
   25.2125   20.2918   29.0872 H   0  0  0  0  0  0  0  0  0  0  0  0
   22.3401   16.2038   28.2495 C   0  0  0  0  0  0  0  0  0  0  0  0
   21.5000   15.5479   29.2188 O   0  0  0  0  0  0  0  0  0  0  0  0
   21.7406   15.8465   30.1098 H   0  0  0  0  0  0  0  0  0  0  0  0
   24.5504   16.7626   22.7826 O   0  0  0  0  0  0  0  0  0  0  0  0
   25.0580   15.8341   21.8299 C   0  0  0  0  0  0  0  0  0  0  0  0
   25.4634   16.6611   20.6240 C   0  0  0  0  0  0  0  0  0  0  0  0
   24.2389   17.2819   19.9713 C   0  0  0  0  0  0  0  0  0  0  0  0
   23.2245   16.1872   19.6652 C   0  0  0  0  0  0  0  0  0  0  0  0
   22.8738   15.3524   20.9060 C   0  0  0  0  0  0  0  0  0  0  0  0
   26.3939   17.6896   21.0119 O   0  0  0  0  0  0  0  0  0  0  0  0
   24.6158   17.9525   18.7728 O   0  0  0  0  0  0  0  0  0  0  0  0
   22.0595   16.8128   19.1286 O   0  0  0  0  0  0  0  0  0  0  0  0
   24.0754   14.8360   21.4851 O   0  0  0  0  0  0  0  0  0  0  0  0
   25.9725   18.2811   21.6550 H   0  0  0  0  0  0  0  0  0  0  0  0
   25.0162   17.3171   18.1589 H   0  0  0  0  0  0  0  0  0  0  0  0
   21.6926   17.4280   19.7827 H   0  0  0  0  0  0  0  0  0  0  0  0
   21.9542   14.1601   20.6027 C   0  0  0  0  0  0  0  0  0  0  0  0
   22.3235   13.0591   21.4411 O   0  0  0  0  0  0  0  0  0  0  0  0
   23.2461   12.8154   21.2671 H   0  0  0  0  0  0  0  0  0  0  0  0
 15 16  1  0  0  0
 15 20  1  0  0  0
 15 23  1  0  0  0
 16 17  1  0  0  0
 16 21  1  0  0  0
 17 18  1  0  0  0
 17 22  1  0  0  0
 18 19  1  0  0  0
 18 14  1  0  0  0
 19 27  1  0  0  0
 19 23  1  0  0  0
 27 28  1  0  0  0
 14  1  1  0  0  0
  1  2  1  0  0  0
  1  8  1  0  0  0
  2  3  1  0  0  0
  2  6  1  0  0  0
  3  4  1  0  0  0
  3  7  1  0  0  0
  4  5  1  0  0  0
  4 30  1  0  0  0
  5 11  1  0  0  0
  5  8  1  0  0  0
 11 12  1  0  0  0
 30 31  1  0  0  0
 31 32  1  0  0  0
 31 39  1  0  0  0
 32 33  1  0  0  0
 32 36  1  0  0  0
 33 34  1  0  0  0
 33 37  1  0  0  0
 34 35  1  0  0  0
 34 38  1  0  0  0
 35 43  1  0  0  0
 35 39  1  0  0  0
 43 44  1  0  0  0
 20 24  1  0  0  0
 21 25  1  0  0  0
 22 26  1  0  0  0
 28 29  1  0  0  0
  6  9  1  0  0  0
  7 10  1  0  0  0
 12 13  1  0  0  0
 36 40  1  0  0  0
 37 41  1  0  0  0
 38 42  1  0  0  0
 44 45  1  0  0  0
M  END
> <minimizedAffinity>
-8.65034

$$$$
2GH9_MLR_A_2913


 45 47  0  0  0  0  0  0  0  0999 V2000
   24.0516   16.7324   20.6629 C   0  0  0  0  0  0  0  0  0  0  0  0
   23.8640   15.2862   21.0819 C   0  0  0  0  0  0  0  0  0  0  0  0
   23.6482   15.2200   22.6105 C   0  0  0  0  0  0  0  0  0  0  0  0
   24.7227   15.9558   23.3957 C   0  0  0  0  0  0  0  0  0  0  0  0
   24.9043   17.3676   22.8444 C   0  0  0  0  0  0  0  0  0  0  0  0
   22.7160   14.7386   20.4277 O   0  0  0  0  0  0  0  0  0  0  0  0
   23.5699   13.8754   23.0316 O   0  0  0  0  0  0  0  0  0  0  0  0
   25.1148   17.3323   21.4139 O   0  0  0  0  0  0  0  0  0  0  0  0
   21.9288   15.2483   20.6756 H   0  0  0  0  0  0  0  0  0  0  0  0
   24.4102   13.4285   22.8443 H   0  0  0  0  0  0  0  0  0  0  0  0
   26.0931   18.0676   23.5138 C   0  0  0  0  0  0  0  0  0  0  0  0
   25.7573   18.5841   24.8046 O   0  0  0  0  0  0  0  0  0  0  0  0
   25.0514   19.2434   24.7153 H   0  0  0  0  0  0  0  0  0  0  0  0
   22.8143   17.4309   20.8777 O   0  0  0  0  0  0  0  0  0  0  0  0
   23.0618   19.4279   17.2645 C   0  0  0  0  0  0  0  0  0  0  0  0
   23.5049   20.2132   18.4976 C   0  0  0  0  0  0  0  0  0  0  0  0
   23.7689   19.2568   19.6435 C   0  0  0  0  0  0  0  0  0  0  0  0
   22.5046   18.4281   19.9199 C   0  0  0  0  0  0  0  0  0  0  0  0
   22.0637   17.6538   18.6672 C   0  0  0  0  0  0  0  0  0  0  0  0
   24.1762   18.6777   16.7875 O   0  0  0  0  0  0  0  0  0  0  0  0
   24.6648   21.0221   18.2015 O   0  0  0  0  0  0  0  0  0  0  0  0
   24.1925   19.9490   20.8295 O   0  0  0  0  0  0  0  0  0  0  0  0
   21.9656   18.5558   17.5670 O   0  0  0  0  0  0  0  0  0  0  0  0
   24.4718   18.0636   17.4777 H   0  0  0  0  0  0  0  0  0  0  0  0
   25.3988   20.4483   17.9317 H   0  0  0  0  0  0  0  0  0  0  0  0
   23.4912   20.5534   21.1190 H   0  0  0  0  0  0  0  0  0  0  0  0
   20.7022   16.9644   18.8818 C   0  0  0  0  0  0  0  0  0  0  0  0
   20.7944   15.5368   18.7128 O   0  0  0  0  0  0  0  0  0  0  0  0
   21.0828   15.3362   17.8086 H   0  0  0  0  0  0  0  0  0  0  0  0
   24.3614   16.0077   24.7904 O   0  0  0  0  0  0  0  0  0  0  0  0
   25.0606   15.0613   25.5921 C   0  0  0  0  0  0  0  0  0  0  0  0
   24.0194   14.4516   26.5123 C   0  0  0  0  0  0  0  0  0  0  0  0
   23.4946   15.4960   27.4843 C   0  0  0  0  0  0  0  0  0  0  0  0
   24.6689   16.1405   28.2102 C   0  0  0  0  0  0  0  0  0  0  0  0
   25.7148   16.7088   27.2395 C   0  0  0  0  0  0  0  0  0  0  0  0
   22.9338   13.8992   25.7440 O   0  0  0  0  0  0  0  0  0  0  0  0
   22.6117   14.8865   28.4208 O   0  0  0  0  0  0  0  0  0  0  0  0
   24.1474   17.1674   29.0528 O   0  0  0  0  0  0  0  0  0  0  0  0
   26.1302   15.6815   26.3352 O   0  0  0  0  0  0  0  0  0  0  0  0
   22.5078   14.6048   25.2325 H   0  0  0  0  0  0  0  0  0  0  0  0
   23.0881   14.2017   28.9159 H   0  0  0  0  0  0  0  0  0  0  0  0
   23.6919   17.8302   28.5105 H   0  0  0  0  0  0  0  0  0  0  0  0
   26.9713   17.2481   27.9392 C   0  0  0  0  0  0  0  0  0  0  0  0
   27.7533   17.9866   26.9932 O   0  0  0  0  0  0  0  0  0  0  0  0
   28.0090   17.4046   26.2606 H   0  0  0  0  0  0  0  0  0  0  0  0
 15 16  1  0  0  0
 15 20  1  0  0  0
 15 23  1  0  0  0
 16 17  1  0  0  0
 16 21  1  0  0  0
 17 18  1  0  0  0
 17 22  1  0  0  0
 18 19  1  0  0  0
 18 14  1  0  0  0
 19 27  1  0  0  0
 19 23  1  0  0  0
 27 28  1  0  0  0
 14  1  1  0  0  0
  1  2  1  0  0  0
  1  8  1  0  0  0
  2  3  1  0  0  0
  2  6  1  0  0  0
  3  4  1  0  0  0
  3  7  1  0  0  0
  4  5  1  0  0  0
  4 30  1  0  0  0
  5 11  1  0  0  0
  5  8  1  0  0  0
 11 12  1  0  0  0
 30 31  1  0  0  0
 31 32  1  0  0  0
 31 39  1  0  0  0
 32 33  1  0  0  0
 32 36  1  0  0  0
 33 34  1  0  0  0
 33 37  1  0  0  0
 34 35  1  0  0  0
 34 38  1  0  0  0
 35 43  1  0  0  0
 35 39  1  0  0  0
 43 44  1  0  0  0
 20 24  1  0  0  0
 21 25  1  0  0  0
 22 26  1  0  0  0
 28 29  1  0  0  0
  6  9  1  0  0  0
  7 10  1  0  0  0
 12 13  1  0  0  0
 36 40  1  0  0  0
 37 41  1  0  0  0
 38 42  1  0  0  0
 44 45  1  0  0  0
M  END
> <minimizedAffinity>
-8.32083

$$$$
