4DJX_0KQ_A_501


 26 29  0  0  0  0  0  0  0  0999 V2000
   22.3887   11.9582   22.5287 C   0  0  0  0  0  0  0  0  0  0  0  0
   22.3757   10.7051   21.6158 C   0  0  0  0  0  0  0  0  0  0  0  0
   22.6922    9.5972   22.5834 N   0  0  0  0  0  0  0  0  0  0  0  0
   22.7144   10.1252   23.8330 C   0  0  0  0  0  0  0  0  0  0  0  0
   22.5966   11.5268   23.8169 N   0  0  0  0  0  0  0  0  0  0  0  0
   22.9009    9.4634   24.9681 N   0  0  0  0  0  0  0  0  0  0  0  0
   22.6735   12.4176   24.9730 C   0  0  0  0  0  0  0  0  0  0  0  0
   22.2585   13.1186   22.1841 O   0  0  0  0  0  0  0  0  0  0  0  0
   22.8546    8.6545   22.3506 H   0  0  0  0  0  0  0  0  0  0  0  0
   22.9810    8.4822   24.9584 H   0  0  0  0  0  0  0  0  0  0  0  0
   23.4832   10.8184   20.5695 C   0  0  0  0  0  0  0  0  0  0  0  0
   23.1834   11.0929   19.2373 C   0  0  0  0  0  0  0  0  0  0  0  0
   24.1986   11.2775   18.3132 C   0  0  0  0  0  0  0  0  0  0  0  0
   25.5219   11.2148   18.7156 C   0  0  0  0  0  0  0  0  0  0  0  0
   25.8517   10.9430   20.0496 C   0  0  0  0  0  0  0  0  0  0  0  0
   24.8195   10.7201   20.9607 C   0  0  0  0  0  0  0  0  0  0  0  0
   27.2731   10.9166   20.5038 C   0  0  0  0  0  0  0  0  0  0  0  0
   28.2393   11.7572   19.9661 C   0  0  0  0  0  0  0  0  0  0  0  0
   29.8396   11.0940   21.4749 C   0  0  0  0  0  0  0  0  0  0  0  0
   27.6597   10.0902   21.5626 C   0  0  0  0  0  0  0  0  0  0  0  0
   29.4927   11.8556   20.4255 N   0  0  0  0  0  0  0  0  0  0  0  0
   28.9461   10.2079   22.0399 C   0  0  0  0  0  0  0  0  0  0  0  0
   29.4500    9.2095   23.3711 Cl  0  0  0  0  0  0  0  0  0  0  0  0
   20.9338   10.5926   21.1047 C   0  0  0  0  0  0  0  0  0  0  0  0
   20.3851    9.2262   20.8092 C   0  0  0  0  0  0  0  0  0  0  0  0
   19.8246   10.0345   21.9370 C   0  0  0  0  0  0  0  0  0  0  0  0
 13 14  2  0  0  0
 13 12  1  0  0  0
 14 15  1  0  0  0
 12 11  2  0  0  0
 18 21  2  0  0  0
 18 17  1  0  0  0
 15 17  1  0  0  0
 15 16  2  0  0  0
 21 19  1  0  0  0
 17 20  2  0  0  0
 11 16  1  0  0  0
 11  2  1  0  0  0
 25 24  1  0  0  0
 25 26  1  0  0  0
 24  2  1  0  0  0
 24 26  1  0  0  0
 19 22  2  0  0  0
 20 22  1  0  0  0
  2  3  1  0  0  0
  2  1  1  0  0  0
 22 23  1  0  0  0
  8  1  2  0  0  0
  3  4  1  0  0  0
  1  5  1  0  0  0
  4  5  1  0  0  0
  4  6  2  0  0  0
  5  7  1  0  0  0
  3  9  1  0  0  0
  6 10  1  0  0  0
M  END
> <minimizedAffinity>
-8.99538

$$$$
4DJX_0KQ_A_501


 26 29  0  0  0  0  0  0  0  0999 V2000
   22.2484   12.7226   22.3013 C   0  0  0  0  0  0  0  0  0  0  0  0
   22.2929   11.2417   21.8442 C   0  0  0  0  0  0  0  0  0  0  0  0
   22.7405   10.5315   23.0928 N   0  0  0  0  0  0  0  0  0  0  0  0
   22.7783   11.4387   24.1009 C   0  0  0  0  0  0  0  0  0  0  0  0
   22.5490   12.7485   23.6422 N   0  0  0  0  0  0  0  0  0  0  0  0
   23.0688   11.1961   25.3729 N   0  0  0  0  0  0  0  0  0  0  0  0
   22.6081   13.9708   24.4412 C   0  0  0  0  0  0  0  0  0  0  0  0
   22.0109   13.6968   21.6111 O   0  0  0  0  0  0  0  0  0  0  0  0
   22.9663    9.5760   23.1655 H   0  0  0  0  0  0  0  0  0  0  0  0
   23.2259   10.2721   25.6743 H   0  0  0  0  0  0  0  0  0  0  0  0
   23.3385   11.0736   20.7431 C   0  0  0  0  0  0  0  0  0  0  0  0
   22.9569   10.8846   19.4169 C   0  0  0  0  0  0  0  0  0  0  0  0
   23.9109   10.8180   18.4148 C   0  0  0  0  0  0  0  0  0  0  0  0
   25.2524   10.9649   18.7243 C   0  0  0  0  0  0  0  0  0  0  0  0
   25.6638   11.1588   20.0492 C   0  0  0  0  0  0  0  0  0  0  0  0
   24.6952   11.1839   21.0524 C   0  0  0  0  0  0  0  0  0  0  0  0
   27.1027   11.3623   20.3892 C   0  0  0  0  0  0  0  0  0  0  0  0
   27.7767   10.5408   21.2837 C   0  0  0  0  0  0  0  0  0  0  0  0
   29.8072   11.5271   20.8576 C   0  0  0  0  0  0  0  0  0  0  0  0
   27.8478   12.3501   19.7393 C   0  0  0  0  0  0  0  0  0  0  0  0
   29.0918   10.6078   21.5243 N   0  0  0  0  0  0  0  0  0  0  0  0
   29.2027   12.4031   19.9801 C   0  0  0  0  0  0  0  0  0  0  0  0
   30.1604   13.6065   19.1694 Cl  0  0  0  0  0  0  0  0  0  0  0  0
   20.8424   10.8821   21.4979 C   0  0  0  0  0  0  0  0  0  0  0  0
   20.5131    9.4469   21.2028 C   0  0  0  0  0  0  0  0  0  0  0  0
   19.9598   10.1102   22.4249 C   0  0  0  0  0  0  0  0  0  0  0  0
 13 14  2  0  0  0
 13 12  1  0  0  0
 14 15  1  0  0  0
 12 11  2  0  0  0
 18 21  2  0  0  0
 18 17  1  0  0  0
 15 17  1  0  0  0
 15 16  2  0  0  0
 21 19  1  0  0  0
 17 20  2  0  0  0
 11 16  1  0  0  0
 11  2  1  0  0  0
 25 24  1  0  0  0
 25 26  1  0  0  0
 24  2  1  0  0  0
 24 26  1  0  0  0
 19 22  2  0  0  0
 20 22  1  0  0  0
  2  3  1  0  0  0
  2  1  1  0  0  0
 22 23  1  0  0  0
  8  1  2  0  0  0
  3  4  1  0  0  0
  1  5  1  0  0  0
  4  5  1  0  0  0
  4  6  2  0  0  0
  5  7  1  0  0  0
  3  9  1  0  0  0
  6 10  1  0  0  0
M  END
> <minimizedAffinity>
-8.27507

$$$$
4DJX_0KQ_A_501


 26 29  0  0  0  0  0  0  0  0999 V2000
   25.0997   11.3973   19.7893 C   0  0  0  0  0  0  0  0  0  0  0  0
   23.8627   12.3316   19.8163 C   0  0  0  0  0  0  0  0  0  0  0  0
   24.2654   13.3719   20.8258 N   0  0  0  0  0  0  0  0  0  0  0  0
   25.5572   13.1428   21.1718 C   0  0  0  0  0  0  0  0  0  0  0  0
   26.0492   11.9477   20.6166 N   0  0  0  0  0  0  0  0  0  0  0  0
   26.2979   13.8758   21.9935 N   0  0  0  0  0  0  0  0  0  0  0  0
   27.3637   11.3557   20.8567 C   0  0  0  0  0  0  0  0  0  0  0  0
   25.2194   10.3559   19.1702 O   0  0  0  0  0  0  0  0  0  0  0  0
   23.6922   14.0925   21.1743 H   0  0  0  0  0  0  0  0  0  0  0  0
   25.9353   14.7093   22.3718 H   0  0  0  0  0  0  0  0  0  0  0  0
   22.6443   11.5588   20.3186 C   0  0  0  0  0  0  0  0  0  0  0  0
   22.2905   10.3354   19.7546 C   0  0  0  0  0  0  0  0  0  0  0  0
   21.2354    9.6026   20.2728 C   0  0  0  0  0  0  0  0  0  0  0  0
   20.5403   10.0724   21.3742 C   0  0  0  0  0  0  0  0  0  0  0  0
   20.8766   11.2982   21.9628 C   0  0  0  0  0  0  0  0  0  0  0  0
   21.9154   12.0438   21.4058 C   0  0  0  0  0  0  0  0  0  0  0  0
   20.1634   11.7936   23.1766 C   0  0  0  0  0  0  0  0  0  0  0  0
   20.3778   13.0639   23.6960 C   0  0  0  0  0  0  0  0  0  0  0  0
   18.6970   12.8526   25.2477 C   0  0  0  0  0  0  0  0  0  0  0  0
   19.1786   11.0102   23.7846 C   0  0  0  0  0  0  0  0  0  0  0  0
   19.6743   13.5946   24.7036 N   0  0  0  0  0  0  0  0  0  0  0  0
   18.4486   11.5682   24.8104 C   0  0  0  0  0  0  0  0  0  0  0  0
   17.2011   10.6265   25.5717 Cl  0  0  0  0  0  0  0  0  0  0  0  0
   23.7815   12.9351   18.4084 C   0  0  0  0  0  0  0  0  0  0  0  0
   22.8408   14.0825   18.1760 C   0  0  0  0  0  0  0  0  0  0  0  0
   24.3196   14.2905   18.0799 C   0  0  0  0  0  0  0  0  0  0  0  0
 13 14  2  0  0  0
 13 12  1  0  0  0
 14 15  1  0  0  0
 12 11  2  0  0  0
 18 21  2  0  0  0
 18 17  1  0  0  0
 15 17  1  0  0  0
 15 16  2  0  0  0
 21 19  1  0  0  0
 17 20  2  0  0  0
 11 16  1  0  0  0
 11  2  1  0  0  0
 25 24  1  0  0  0
 25 26  1  0  0  0
 24  2  1  0  0  0
 24 26  1  0  0  0
 19 22  2  0  0  0
 20 22  1  0  0  0
  2  3  1  0  0  0
  2  1  1  0  0  0
 22 23  1  0  0  0
  8  1  2  0  0  0
  3  4  1  0  0  0
  1  5  1  0  0  0
  4  5  1  0  0  0
  4  6  2  0  0  0
  5  7  1  0  0  0
  3  9  1  0  0  0
  6 10  1  0  0  0
M  END
> <minimizedAffinity>
-8.18971

$$$$
4DJX_0KQ_A_501


 26 29  0  0  0  0  0  0  0  0999 V2000
   20.7810   12.7043   24.9248 C   0  0  0  0  0  0  0  0  0  0  0  0
   19.8113   11.7225   24.2180 C   0  0  0  0  0  0  0  0  0  0  0  0
   19.7300   10.5855   25.2000 N   0  0  0  0  0  0  0  0  0  0  0  0
   20.4052   10.9489   26.3193 C   0  0  0  0  0  0  0  0  0  0  0  0
   21.0826   12.1706   26.1549 N   0  0  0  0  0  0  0  0  0  0  0  0
   20.5180   10.2448   27.4386 N   0  0  0  0  0  0  0  0  0  0  0  0
   21.9735   12.8064   27.1236 C   0  0  0  0  0  0  0  0  0  0  0  0
   21.2193   13.7498   24.4811 O   0  0  0  0  0  0  0  0  0  0  0  0
   19.2679    9.7283   25.0557 H   0  0  0  0  0  0  0  0  0  0  0  0
   20.0357    9.3919   27.5343 H   0  0  0  0  0  0  0  0  0  0  0  0
   20.4314   11.2394   22.9080 C   0  0  0  0  0  0  0  0  0  0  0  0
   20.0363   10.0349   22.3308 C   0  0  0  0  0  0  0  0  0  0  0  0
   20.5422    9.6468   21.1011 C   0  0  0  0  0  0  0  0  0  0  0  0
   21.4275   10.4691   20.4251 C   0  0  0  0  0  0  0  0  0  0  0  0
   21.8395   11.6870   20.9812 C   0  0  0  0  0  0  0  0  0  0  0  0
   21.3526   12.0461   22.2379 C   0  0  0  0  0  0  0  0  0  0  0  0
   22.7587   12.6017   20.2424 C   0  0  0  0  0  0  0  0  0  0  0  0
   22.6078   13.9823   20.2658 C   0  0  0  0  0  0  0  0  0  0  0  0
   24.5647   14.3439   19.1180 C   0  0  0  0  0  0  0  0  0  0  0  0
   23.8685   12.0894   19.5646 C   0  0  0  0  0  0  0  0  0  0  0  0
   23.4762   14.8445   19.7232 N   0  0  0  0  0  0  0  0  0  0  0  0
   24.7654   12.9826   19.0223 C   0  0  0  0  0  0  0  0  0  0  0  0
   26.1678   12.3761   18.1926 Cl  0  0  0  0  0  0  0  0  0  0  0  0
   18.4740   12.4689   24.1301 C   0  0  0  0  0  0  0  0  0  0  0  0
   17.2150   11.6639   23.9806 C   0  0  0  0  0  0  0  0  0  0  0  0
   17.4641   12.4461   25.2319 C   0  0  0  0  0  0  0  0  0  0  0  0
 13 14  2  0  0  0
 13 12  1  0  0  0
 14 15  1  0  0  0
 12 11  2  0  0  0
 18 21  2  0  0  0
 18 17  1  0  0  0
 15 17  1  0  0  0
 15 16  2  0  0  0
 21 19  1  0  0  0
 17 20  2  0  0  0
 11 16  1  0  0  0
 11  2  1  0  0  0
 25 24  1  0  0  0
 25 26  1  0  0  0
 24  2  1  0  0  0
 24 26  1  0  0  0
 19 22  2  0  0  0
 20 22  1  0  0  0
  2  3  1  0  0  0
  2  1  1  0  0  0
 22 23  1  0  0  0
  8  1  2  0  0  0
  3  4  1  0  0  0
  1  5  1  0  0  0
  4  5  1  0  0  0
  4  6  2  0  0  0
  5  7  1  0  0  0
  3  9  1  0  0  0
  6 10  1  0  0  0
M  END
> <minimizedAffinity>
-8.17650

$$$$
4DJX_0KQ_A_501


 26 29  0  0  0  0  0  0  0  0999 V2000
   27.5564   11.1147   20.4523 C   0  0  0  0  0  0  0  0  0  0  0  0
   26.4632   12.2014   20.2850 C   0  0  0  0  0  0  0  0  0  0  0  0
   26.4085   12.8184   21.6562 N   0  0  0  0  0  0  0  0  0  0  0  0
   27.4066   12.2780   22.3995 C   0  0  0  0  0  0  0  0  0  0  0  0
   28.0578   11.2282   21.7268 N   0  0  0  0  0  0  0  0  0  0  0  0
   27.7289   12.6013   23.6457 N   0  0  0  0  0  0  0  0  0  0  0  0
   29.1125   10.3729   22.2675 C   0  0  0  0  0  0  0  0  0  0  0  0
   27.9067   10.2928   19.6253 O   0  0  0  0  0  0  0  0  0  0  0  0
   25.7619   13.4955   21.9606 H   0  0  0  0  0  0  0  0  0  0  0  0
   27.2612   13.3394   24.0993 H   0  0  0  0  0  0  0  0  0  0  0  0
   25.1260   11.5405   19.9548 C   0  0  0  0  0  0  0  0  0  0  0  0
   25.0156   10.6367   18.9007 C   0  0  0  0  0  0  0  0  0  0  0  0
   23.8200    9.9791   18.6625 C   0  0  0  0  0  0  0  0  0  0  0  0
   22.7315   10.1988   19.4894 C   0  0  0  0  0  0  0  0  0  0  0  0
   22.8157   11.1003   20.5583 C   0  0  0  0  0  0  0  0  0  0  0  0
   24.0137   11.7848   20.7619 C   0  0  0  0  0  0  0  0  0  0  0  0
   21.6631   11.3122   21.4825 C   0  0  0  0  0  0  0  0  0  0  0  0
   20.7973   10.2851   21.8359 C   0  0  0  0  0  0  0  0  0  0  0  0
   19.6852   11.5794   23.3740 C   0  0  0  0  0  0  0  0  0  0  0  0
   21.4710   12.5527   22.0970 C   0  0  0  0  0  0  0  0  0  0  0  0
   19.8291   10.3980   22.7533 N   0  0  0  0  0  0  0  0  0  0  0  0
   20.4831   12.6571   23.0508 C   0  0  0  0  0  0  0  0  0  0  0  0
   20.2347   14.1814   23.8492 Cl  0  0  0  0  0  0  0  0  0  0  0  0
   27.0311   13.1911   19.2598 C   0  0  0  0  0  0  0  0  0  0  0  0
   26.1372   14.2863   18.7530 C   0  0  0  0  0  0  0  0  0  0  0  0
   27.3293   14.6169   19.5951 C   0  0  0  0  0  0  0  0  0  0  0  0
 13 14  2  0  0  0
 13 12  1  0  0  0
 14 15  1  0  0  0
 12 11  2  0  0  0
 18 21  2  0  0  0
 18 17  1  0  0  0
 15 17  1  0  0  0
 15 16  2  0  0  0
 21 19  1  0  0  0
 17 20  2  0  0  0
 11 16  1  0  0  0
 11  2  1  0  0  0
 25 24  1  0  0  0
 25 26  1  0  0  0
 24  2  1  0  0  0
 24 26  1  0  0  0
 19 22  2  0  0  0
 20 22  1  0  0  0
  2  3  1  0  0  0
  2  1  1  0  0  0
 22 23  1  0  0  0
  8  1  2  0  0  0
  3  4  1  0  0  0
  1  5  1  0  0  0
  4  5  1  0  0  0
  4  6  2  0  0  0
  5  7  1  0  0  0
  3  9  1  0  0  0
  6 10  1  0  0  0
M  END
> <minimizedAffinity>
-8.11504

$$$$
4DJX_0KQ_A_501


 26 29  0  0  0  0  0  0  0  0999 V2000
   24.2987   12.2430   20.9091 C   0  0  0  0  0  0  0  0  0  0  0  0
   22.7826   11.9864   20.7101 C   0  0  0  0  0  0  0  0  0  0  0  0
   22.5141   12.6479   19.3857 N   0  0  0  0  0  0  0  0  0  0  0  0
   23.7020   13.0539   18.8710 C   0  0  0  0  0  0  0  0  0  0  0  0
   24.7602   12.8777   19.7808 N   0  0  0  0  0  0  0  0  0  0  0  0
   23.8977   13.6283   17.6908 N   0  0  0  0  0  0  0  0  0  0  0  0
   26.1491   13.2894   19.5870 C   0  0  0  0  0  0  0  0  0  0  0  0
   24.9694   11.9584   21.8844 O   0  0  0  0  0  0  0  0  0  0  0  0
   21.6312   12.7655   18.9662 H   0  0  0  0  0  0  0  0  0  0  0  0
   23.1439   13.7425   17.0679 H   0  0  0  0  0  0  0  0  0  0  0  0
   21.9924   12.6863   21.8145 C   0  0  0  0  0  0  0  0  0  0  0  0
   22.1423   14.0515   22.0464 C   0  0  0  0  0  0  0  0  0  0  0  0
   21.3598   14.6926   22.9926 C   0  0  0  0  0  0  0  0  0  0  0  0
   20.4033   13.9820   23.6978 C   0  0  0  0  0  0  0  0  0  0  0  0
   20.2296   12.6088   23.4825 C   0  0  0  0  0  0  0  0  0  0  0  0
   21.0517   11.9688   22.5553 C   0  0  0  0  0  0  0  0  0  0  0  0
   19.1724   11.8416   24.2046 C   0  0  0  0  0  0  0  0  0  0  0  0
   18.8918   12.0506   25.5487 C   0  0  0  0  0  0  0  0  0  0  0  0
   17.0725   10.6482   25.5188 C   0  0  0  0  0  0  0  0  0  0  0  0
   18.3624   10.9360   23.5137 C   0  0  0  0  0  0  0  0  0  0  0  0
   17.8748   11.4778   26.2041 N   0  0  0  0  0  0  0  0  0  0  0  0
   17.3090   10.3623   24.1902 C   0  0  0  0  0  0  0  0  0  0  0  0
   16.2698    9.2490   23.3516 Cl  0  0  0  0  0  0  0  0  0  0  0  0
   22.6417   10.4628   20.6015 C   0  0  0  0  0  0  0  0  0  0  0  0
   21.5682    9.9063   19.7109 C   0  0  0  0  0  0  0  0  0  0  0  0
   23.0107    9.7049   19.3672 C   0  0  0  0  0  0  0  0  0  0  0  0
 13 14  2  0  0  0
 13 12  1  0  0  0
 14 15  1  0  0  0
 12 11  2  0  0  0
 18 21  2  0  0  0
 18 17  1  0  0  0
 15 17  1  0  0  0
 15 16  2  0  0  0
 21 19  1  0  0  0
 17 20  2  0  0  0
 11 16  1  0  0  0
 11  2  1  0  0  0
 25 24  1  0  0  0
 25 26  1  0  0  0
 24  2  1  0  0  0
 24 26  1  0  0  0
 19 22  2  0  0  0
 20 22  1  0  0  0
  2  3  1  0  0  0
  2  1  1  0  0  0
 22 23  1  0  0  0
  8  1  2  0  0  0
  3  4  1  0  0  0
  1  5  1  0  0  0
  4  5  1  0  0  0
  4  6  2  0  0  0
  5  7  1  0  0  0
  3  9  1  0  0  0
  6 10  1  0  0  0
M  END
> <minimizedAffinity>
-8.05863

$$$$
4DJX_0KQ_A_501


 26 29  0  0  0  0  0  0  0  0999 V2000
   27.4567   13.0308   21.5901 C   0  0  0  0  0  0  0  0  0  0  0  0
   27.1436   12.0812   20.4052 C   0  0  0  0  0  0  0  0  0  0  0  0
   28.1984   12.4589   19.4010 N   0  0  0  0  0  0  0  0  0  0  0  0
   29.0414   13.3436   19.9906 C   0  0  0  0  0  0  0  0  0  0  0  0
   28.5877   13.7393   21.2619 N   0  0  0  0  0  0  0  0  0  0  0  0
   30.1352   13.8712   19.4554 N   0  0  0  0  0  0  0  0  0  0  0  0
   29.2021   14.7425   22.1293 C   0  0  0  0  0  0  0  0  0  0  0  0
   26.8201   13.1529   22.6206 O   0  0  0  0  0  0  0  0  0  0  0  0
   28.2653   12.1231   18.4779 H   0  0  0  0  0  0  0  0  0  0  0  0
   30.4364   13.5808   18.5643 H   0  0  0  0  0  0  0  0  0  0  0  0
   25.7555   12.3925   19.8483 C   0  0  0  0  0  0  0  0  0  0  0  0
   25.6036   13.1261   18.6740 C   0  0  0  0  0  0  0  0  0  0  0  0
   24.3454   13.3305   18.1321 C   0  0  0  0  0  0  0  0  0  0  0  0
   23.2301   12.7833   18.7435 C   0  0  0  0  0  0  0  0  0  0  0  0
   23.3544   12.0391   19.9237 C   0  0  0  0  0  0  0  0  0  0  0  0
   24.6230   11.8751   20.4794 C   0  0  0  0  0  0  0  0  0  0  0  0
   22.1651   11.4077   20.5674 C   0  0  0  0  0  0  0  0  0  0  0  0
   21.6829   10.1650   20.1770 C   0  0  0  0  0  0  0  0  0  0  0  0
   20.1455   10.0832   21.8820 C   0  0  0  0  0  0  0  0  0  0  0  0
   21.5449   12.0220   21.6589 C   0  0  0  0  0  0  0  0  0  0  0  0
   20.7006    9.5067   20.8045 N   0  0  0  0  0  0  0  0  0  0  0  0
   20.5457   11.3324   22.3088 C   0  0  0  0  0  0  0  0  0  0  0  0
   19.7704   12.0608   23.6840 Cl  0  0  0  0  0  0  0  0  0  0  0  0
   27.3831   10.6663   20.9472 C   0  0  0  0  0  0  0  0  0  0  0  0
   28.1091    9.6811   20.0768 C   0  0  0  0  0  0  0  0  0  0  0  0
   28.7375   10.1730   21.3427 C   0  0  0  0  0  0  0  0  0  0  0  0
 13 14  2  0  0  0
 13 12  1  0  0  0
 14 15  1  0  0  0
 12 11  2  0  0  0
 18 21  2  0  0  0
 18 17  1  0  0  0
 15 17  1  0  0  0
 15 16  2  0  0  0
 21 19  1  0  0  0
 17 20  2  0  0  0
 11 16  1  0  0  0
 11  2  1  0  0  0
 25 24  1  0  0  0
 25 26  1  0  0  0
 24  2  1  0  0  0
 24 26  1  0  0  0
 19 22  2  0  0  0
 20 22  1  0  0  0
  2  3  1  0  0  0
  2  1  1  0  0  0
 22 23  1  0  0  0
  8  1  2  0  0  0
  3  4  1  0  0  0
  1  5  1  0  0  0
  4  5  1  0  0  0
  4  6  2  0  0  0
  5  7  1  0  0  0
  3  9  1  0  0  0
  6 10  1  0  0  0
M  END
> <minimizedAffinity>
-7.97964

$$$$
4DJX_0KQ_A_501


 26 29  0  0  0  0  0  0  0  0999 V2000
   21.1792   11.8308   25.7323 C   0  0  0  0  0  0  0  0  0  0  0  0
   20.5746   12.6198   24.5424 C   0  0  0  0  0  0  0  0  0  0  0  0
   19.0984   12.5490   24.8244 N   0  0  0  0  0  0  0  0  0  0  0  0
   18.9307   11.9657   26.0378 C   0  0  0  0  0  0  0  0  0  0  0  0
   20.1420   11.4811   26.5634 N   0  0  0  0  0  0  0  0  0  0  0  0
   17.7801   11.7734   26.6707 N   0  0  0  0  0  0  0  0  0  0  0  0
   20.3093   10.7231   27.8018 C   0  0  0  0  0  0  0  0  0  0  0  0
   22.3505   11.5483   25.9060 O   0  0  0  0  0  0  0  0  0  0  0  0
   18.3802   12.8696   24.2323 H   0  0  0  0  0  0  0  0  0  0  0  0
   16.9429   12.1205   26.2863 H   0  0  0  0  0  0  0  0  0  0  0  0
   20.8924   11.9004   23.2326 C   0  0  0  0  0  0  0  0  0  0  0  0
   20.2646   10.7012   22.9045 C   0  0  0  0  0  0  0  0  0  0  0  0
   20.4960   10.1007   21.6778 C   0  0  0  0  0  0  0  0  0  0  0  0
   21.3362   10.7048   20.7580 C   0  0  0  0  0  0  0  0  0  0  0  0
   21.9782   11.9123   21.0608 C   0  0  0  0  0  0  0  0  0  0  0  0
   21.7668   12.4849   22.3149 C   0  0  0  0  0  0  0  0  0  0  0  0
   22.8510   12.5949   20.0610 C   0  0  0  0  0  0  0  0  0  0  0  0
   22.6087   13.8923   19.6281 C   0  0  0  0  0  0  0  0  0  0  0  0
   24.5623   13.9918   18.4235 C   0  0  0  0  0  0  0  0  0  0  0  0
   24.0070   11.9669   19.5890 C   0  0  0  0  0  0  0  0  0  0  0  0
   23.4299   14.5864   18.8308 N   0  0  0  0  0  0  0  0  0  0  0  0
   24.8547   12.6923   18.7817 C   0  0  0  0  0  0  0  0  0  0  0  0
   26.3121   11.9460   18.1970 Cl  0  0  0  0  0  0  0  0  0  0  0  0
   21.0959   14.0537   24.7019 C   0  0  0  0  0  0  0  0  0  0  0  0
   20.2970   15.1752   24.1025 C   0  0  0  0  0  0  0  0  0  0  0  0
   20.4333   15.0585   25.5882 C   0  0  0  0  0  0  0  0  0  0  0  0
 13 14  2  0  0  0
 13 12  1  0  0  0
 14 15  1  0  0  0
 12 11  2  0  0  0
 18 21  2  0  0  0
 18 17  1  0  0  0
 15 17  1  0  0  0
 15 16  2  0  0  0
 21 19  1  0  0  0
 17 20  2  0  0  0
 11 16  1  0  0  0
 11  2  1  0  0  0
 25 24  1  0  0  0
 25 26  1  0  0  0
 24  2  1  0  0  0
 24 26  1  0  0  0
 19 22  2  0  0  0
 20 22  1  0  0  0
  2  3  1  0  0  0
  2  1  1  0  0  0
 22 23  1  0  0  0
  8  1  2  0  0  0
  3  4  1  0  0  0
  1  5  1  0  0  0
  4  5  1  0  0  0
  4  6  2  0  0  0
  5  7  1  0  0  0
  3  9  1  0  0  0
  6 10  1  0  0  0
M  END
> <minimizedAffinity>
-7.97626

$$$$
4DJX_0KQ_A_501


 26 29  0  0  0  0  0  0  0  0999 V2000
   20.5462   13.6565   26.7783 C   0  0  0  0  0  0  0  0  0  0  0  0
   19.7224   13.1987   25.5472 C   0  0  0  0  0  0  0  0  0  0  0  0
   19.7291   11.7012   25.6926 N   0  0  0  0  0  0  0  0  0  0  0  0
   20.3130   11.3975   26.8791 C   0  0  0  0  0  0  0  0  0  0  0  0
   20.8551   12.5332   27.5075 N   0  0  0  0  0  0  0  0  0  0  0  0
   20.4581   10.1865   27.4022 N   0  0  0  0  0  0  0  0  0  0  0  0
   21.6287   12.5529   28.7474 C   0  0  0  0  0  0  0  0  0  0  0  0
   20.8821   14.7934   27.0549 O   0  0  0  0  0  0  0  0  0  0  0  0
   19.3724   11.0550   25.0411 H   0  0  0  0  0  0  0  0  0  0  0  0
   20.0711    9.4040   26.9470 H   0  0  0  0  0  0  0  0  0  0  0  0
   20.4458   13.6031   24.2639 C   0  0  0  0  0  0  0  0  0  0  0  0
   20.8906   14.9094   24.0745 C   0  0  0  0  0  0  0  0  0  0  0  0
   21.6194   15.2460   22.9457 C   0  0  0  0  0  0  0  0  0  0  0  0
   21.9324   14.2762   22.0083 C   0  0  0  0  0  0  0  0  0  0  0  0
   21.5003   12.9543   22.1751 C   0  0  0  0  0  0  0  0  0  0  0  0
   20.7335   12.6387   23.2966 C   0  0  0  0  0  0  0  0  0  0  0  0
   21.8688   11.8917   21.1940 C   0  0  0  0  0  0  0  0  0  0  0  0
   21.2089   10.6706   21.1404 C   0  0  0  0  0  0  0  0  0  0  0  0
   22.3286   10.0034   19.2487 C   0  0  0  0  0  0  0  0  0  0  0  0
   22.8491   12.1337   20.2276 C   0  0  0  0  0  0  0  0  0  0  0  0
   21.4207    9.7402   20.2016 N   0  0  0  0  0  0  0  0  0  0  0  0
   23.0507   11.1787   19.2561 C   0  0  0  0  0  0  0  0  0  0  0  0
   24.2474   11.4608   18.0269 Cl  0  0  0  0  0  0  0  0  0  0  0  0
   18.3145   13.7657   25.7697 C   0  0  0  0  0  0  0  0  0  0  0  0
   17.4084   13.9151   24.5815 C   0  0  0  0  0  0  0  0  0  0  0  0
   17.0812   12.9285   25.6581 C   0  0  0  0  0  0  0  0  0  0  0  0
 13 14  2  0  0  0
 13 12  1  0  0  0
 14 15  1  0  0  0
 12 11  2  0  0  0
 18 21  2  0  0  0
 18 17  1  0  0  0
 15 17  1  0  0  0
 15 16  2  0  0  0
 21 19  1  0  0  0
 17 20  2  0  0  0
 11 16  1  0  0  0
 11  2  1  0  0  0
 25 24  1  0  0  0
 25 26  1  0  0  0
 24  2  1  0  0  0
 24 26  1  0  0  0
 19 22  2  0  0  0
 20 22  1  0  0  0
  2  3  1  0  0  0
  2  1  1  0  0  0
 22 23  1  0  0  0
  8  1  2  0  0  0
  3  4  1  0  0  0
  1  5  1  0  0  0
  4  5  1  0  0  0
  4  6  2  0  0  0
  5  7  1  0  0  0
  3  9  1  0  0  0
  6 10  1  0  0  0
M  END
> <minimizedAffinity>
-7.82765

$$$$
4DJX_0KQ_A_501


 26 29  0  0  0  0  0  0  0  0999 V2000
   26.7690   11.0915   20.4515 C   0  0  0  0  0  0  0  0  0  0  0  0
   26.2398   12.5355   20.6484 C   0  0  0  0  0  0  0  0  0  0  0  0
   26.8880   12.9434   21.9435 N   0  0  0  0  0  0  0  0  0  0  0  0
   27.7483   11.9603   22.3099 C   0  0  0  0  0  0  0  0  0  0  0  0
   27.6493   10.8328   21.4747 N   0  0  0  0  0  0  0  0  0  0  0  0
   28.5547   11.9672   23.3639 N   0  0  0  0  0  0  0  0  0  0  0  0
   28.3615    9.5669   21.6374 C   0  0  0  0  0  0  0  0  0  0  0  0
   26.4601   10.3105   19.5702 O   0  0  0  0  0  0  0  0  0  0  0  0
   26.7178   13.7774   22.4382 H   0  0  0  0  0  0  0  0  0  0  0  0
   28.6098   12.7663   23.9363 H   0  0  0  0  0  0  0  0  0  0  0  0
   24.7207   12.5101   20.8088 C   0  0  0  0  0  0  0  0  0  0  0  0
   23.8852   12.4286   19.6973 C   0  0  0  0  0  0  0  0  0  0  0  0
   22.5135   12.3207   19.8570 C   0  0  0  0  0  0  0  0  0  0  0  0
   21.9656   12.2677   21.1274 C   0  0  0  0  0  0  0  0  0  0  0  0
   22.7829   12.3448   22.2625 C   0  0  0  0  0  0  0  0  0  0  0  0
   24.1584   12.4932   22.0863 C   0  0  0  0  0  0  0  0  0  0  0  0
   22.2081   12.2445   23.6362 C   0  0  0  0  0  0  0  0  0  0  0  0
   22.9547   11.8058   24.7223 C   0  0  0  0  0  0  0  0  0  0  0  0
   21.2849   12.2833   26.2261 C   0  0  0  0  0  0  0  0  0  0  0  0
   20.9039   12.6791   23.8883 C   0  0  0  0  0  0  0  0  0  0  0  0
   22.5210   11.8170   25.9886 N   0  0  0  0  0  0  0  0  0  0  0  0
   20.4700   12.7023   25.1951 C   0  0  0  0  0  0  0  0  0  0  0  0
   18.8602   13.2593   25.5430 Cl  0  0  0  0  0  0  0  0  0  0  0  0
   26.8097   13.3385   19.4723 C   0  0  0  0  0  0  0  0  0  0  0  0
   26.6091   14.8268   19.4594 C   0  0  0  0  0  0  0  0  0  0  0  0
   27.9829   14.2539   19.6142 C   0  0  0  0  0  0  0  0  0  0  0  0
 13 14  2  0  0  0
 13 12  1  0  0  0
 14 15  1  0  0  0
 12 11  2  0  0  0
 18 21  2  0  0  0
 18 17  1  0  0  0
 15 17  1  0  0  0
 15 16  2  0  0  0
 21 19  1  0  0  0
 17 20  2  0  0  0
 11 16  1  0  0  0
 11  2  1  0  0  0
 25 24  1  0  0  0
 25 26  1  0  0  0
 24  2  1  0  0  0
 24 26  1  0  0  0
 19 22  2  0  0  0
 20 22  1  0  0  0
  2  3  1  0  0  0
  2  1  1  0  0  0
 22 23  1  0  0  0
  8  1  2  0  0  0
  3  4  1  0  0  0
  1  5  1  0  0  0
  4  5  1  0  0  0
  4  6  2  0  0  0
  5  7  1  0  0  0
  3  9  1  0  0  0
  6 10  1  0  0  0
M  END
> <minimizedAffinity>
-7.79899

$$$$
