4XTX_590_A_301


 46 50  0  0  0  0  0  0  0  0999 V2000
   -4.2752   -3.5604    7.5054 O   0  0  0  0  0  0  0  0  0  0  0  0
   -3.9745   -4.8333    6.6974 S   0  0  0  0  0  0  0  0  0  0  0  0
   -5.0975   -5.1228    5.8495 O   0  0  0  0  0  0  0  0  0  0  0  0
   -2.8186   -4.6095    5.8756 O   0  0  0  0  0  0  0  0  0  0  0  0
   -4.6784   -6.5611    8.3520 C   0  0  0  0  0  0  0  0  0  0  0  0
   -5.8317   -6.1633    8.3345 O   0  0  0  0  0  0  0  0  0  0  0  0
   -3.7049   -6.0137    7.6244 N   0  0  0  0  0  0  0  0  0  0  0  0
   -2.7929   -6.3791    7.6867 H   0  0  0  0  0  0  0  0  0  0  0  0
   -4.2970   -7.7319    9.2274 C   0  0  0  0  0  0  0  0  0  0  0  0
   -3.6346   -7.2693   10.5189 C   0  0  0  0  0  0  0  0  0  0  0  0
   -4.3429   -7.9101   11.7056 C   0  0  0  0  0  0  0  0  0  0  0  0
   -3.5367   -7.7819   12.9914 C   0  0  0  0  0  0  0  0  0  0  0  0
   -2.6250  -10.0548   13.7196 C   0  0  0  0  0  0  0  0  0  0  0  0
   -1.4009   -9.3100   13.4588 N   0  0  0  0  0  0  0  0  0  0  0  0
   -0.4485   -9.5743   14.3384 C   0  0  0  0  0  0  0  0  0  0  0  0
    0.6910   -9.1401   14.2891 O   0  0  0  0  0  0  0  0  0  0  0  0
   -0.9067  -10.3815   15.2779 N   0  0  0  0  0  0  0  0  0  0  0  0
   -2.3038  -10.7303   15.0694 C   0  0  0  0  0  0  0  0  0  0  0  0
   -3.0303  -10.0532   16.2263 C   0  0  0  0  0  0  0  0  0  0  0  0
   -3.6367   -8.5467   15.5642 S   0  0  0  0  0  0  0  0  0  0  0  0
   -3.7241   -9.0082   13.8755 C   0  0  0  0  0  0  0  0  0  0  0  0
   -1.2939   -8.6793   12.7104 H   0  0  0  0  0  0  0  0  0  0  0  0
   -0.3655  -10.7092   16.0321 H   0  0  0  0  0  0  0  0  0  0  0  0
   -3.2276   -2.7207    7.9954 C   0  0  0  0  0  0  0  0  0  0  0  0
   -3.6525   -1.2568    7.8651 C   0  0  0  0  0  0  0  0  0  0  0  0
   -4.8658   -0.9879    8.5783 O   0  0  0  0  0  0  0  0  0  0  0  0
   -2.6272   -0.2685    8.3927 C   0  0  0  0  0  0  0  0  0  0  0  0
   -1.7236    0.1156    7.3556 O   0  0  0  0  0  0  0  0  0  0  0  0
   -3.4820    0.9055    8.8160 C   0  0  0  0  0  0  0  0  0  0  0  0
   -4.7970    0.2645    9.2691 C   0  0  0  0  0  0  0  0  0  0  0  0
   -2.2242    0.4808    6.6094 H   0  0  0  0  0  0  0  0  0  0  0  0
   -4.9337   -0.0067   10.7316 N   0  0  0  0  0  0  0  0  0  0  0  0
   -3.9641   -0.1098   11.6543 C   0  0  0  0  0  0  0  0  0  0  0  0
   -4.5124   -0.3719   12.8601 N   0  0  0  0  0  0  0  0  0  0  0  0
   -5.8453   -0.4550   12.6884 C   0  0  0  0  0  0  0  0  0  0  0  0
   -6.1017   -0.2298   11.3468 C   0  0  0  0  0  0  0  0  0  0  0  0
   -7.3805   -0.2572   10.9009 N   0  0  0  0  0  0  0  0  0  0  0  0
   -8.3849   -0.5036   11.7494 C   0  0  0  0  0  0  0  0  0  0  0  0
   -8.1616   -0.7222   13.0528 N   0  0  0  0  0  0  0  0  0  0  0  0
   -6.9062   -0.7057   13.5489 C   0  0  0  0  0  0  0  0  0  0  0  0
   -6.6945   -0.9330   14.8688 N   0  0  0  0  0  0  0  0  0  0  0  0
   -5.7786   -0.9208   15.2297 H   0  0  0  0  0  0  0  0  0  0  0  0
   -7.4566   -1.1103   15.4662 H   0  0  0  0  0  0  0  0  0  0  0  0
   -2.6630    4.2508    9.5684 N   0  0  0  0  0  0  0  0  0  0  0  0
   -2.7434    3.0986    9.6532 N   0  0  0  0  0  0  0  0  0  0  0  0
   -2.8120    1.7320    9.8010 N   0  0  0  0  0  0  0  0  0  0  0  0
  3  2  2  0  0  0
  4  2  2  0  0  0
  2  1  1  0  0  0
  2  7  1  0  0  0
  1 24  1  0  0  0
 28 27  1  0  0  0
  7  5  1  0  0  0
 25 24  1  0  0  0
 25 27  1  0  0  0
 25 26  1  0  0  0
  5  6  2  0  0  0
  5  9  1  0  0  0
 27 29  1  0  0  0
 26 30  1  0  0  0
 29 30  1  0  0  0
  9 10  1  0  0  0
 30 32  1  0  0  0
 44 45  2  0  0  0
 10 11  1  0  0  0
 32 36  1  0  0  0
 32 33  1  0  0  0
 37 36  2  0  0  0
 37 38  1  0  0  0
 36 35  1  0  0  0
 11 12  1  0  0  0
 33 34  2  0  0  0
 38 39  2  0  0  0
 35 34  1  0  0  0
 35 40  2  0  0  0
 12 21  1  0  0  0
 39 40  1  0  0  0
 14 13  1  0  0  0
 14 15  1  0  0  0
 40 41  1  0  0  0
 13 21  1  0  0  0
 13 18  1  0  0  0
 21 20  1  0  0  0
 16 15  2  0  0  0
 15 17  1  0  0  0
 18 17  1  0  0  0
 18 19  1  0  0  0
 20 19  1  0  0  0
 29 46  1  0  0  0
 45 46  2  0  0  0
 14 22  1  0  0  0
 17 23  1  0  0  0
  7  8  1  0  0  0
 28 31  1  0  0  0
 41 42  1  0  0  0
 41 43  1  0  0  0
M  CHG 1  44  -1
M  CHG 1  45   1
M  END
> <minimizedAffinity>
-13.47837

$$$$
4XTX_590_A_301


 46 50  0  0  0  0  0  0  0  0999 V2000
   -4.4348   -3.5032    7.0254 O   0  0  0  0  0  0  0  0  0  0  0  0
   -3.9417   -4.8547    6.4831 S   0  0  0  0  0  0  0  0  0  0  0  0
   -4.8821   -5.3372    5.5102 O   0  0  0  0  0  0  0  0  0  0  0  0
   -2.6679   -4.6719    5.8459 O   0  0  0  0  0  0  0  0  0  0  0  0
   -4.8444   -6.5347    8.0895 C   0  0  0  0  0  0  0  0  0  0  0  0
   -5.9807   -6.3788    7.6735 O   0  0  0  0  0  0  0  0  0  0  0  0
   -3.7927   -5.8703    7.6106 N   0  0  0  0  0  0  0  0  0  0  0  0
   -2.9013   -6.0389    7.9929 H   0  0  0  0  0  0  0  0  0  0  0  0
   -4.5762   -7.5233    9.2002 C   0  0  0  0  0  0  0  0  0  0  0  0
   -4.1077   -6.8222   10.4689 C   0  0  0  0  0  0  0  0  0  0  0  0
   -4.4060   -7.7070   11.6725 C   0  0  0  0  0  0  0  0  0  0  0  0
   -3.1452   -8.3446   12.2413 C   0  0  0  0  0  0  0  0  0  0  0  0
   -2.4092  -10.3554   13.6349 C   0  0  0  0  0  0  0  0  0  0  0  0
   -1.1382   -9.6999   13.3594 N   0  0  0  0  0  0  0  0  0  0  0  0
   -0.3162   -9.7300   14.3957 C   0  0  0  0  0  0  0  0  0  0  0  0
    0.8337   -9.3210   14.3902 O   0  0  0  0  0  0  0  0  0  0  0  0
   -0.9177  -10.2717   15.4392 N   0  0  0  0  0  0  0  0  0  0  0  0
   -2.2868  -10.6642   15.1420 C   0  0  0  0  0  0  0  0  0  0  0  0
   -3.1339   -9.7157   15.9829 C   0  0  0  0  0  0  0  0  0  0  0  0
   -3.6008   -8.4286   14.8869 S   0  0  0  0  0  0  0  0  0  0  0  0
   -3.4847   -9.3053   13.3737 C   0  0  0  0  0  0  0  0  0  0  0  0
   -0.9152   -9.2807   12.4970 H   0  0  0  0  0  0  0  0  0  0  0  0
   -0.4891  -10.3956   16.3168 H   0  0  0  0  0  0  0  0  0  0  0  0
   -3.7986   -2.2754    6.6643 C   0  0  0  0  0  0  0  0  0  0  0  0
   -4.7932   -1.3976    5.9022 C   0  0  0  0  0  0  0  0  0  0  0  0
   -6.1301   -1.5566    6.3928 O   0  0  0  0  0  0  0  0  0  0  0  0
   -4.4904    0.0885    5.9822 C   0  0  0  0  0  0  0  0  0  0  0  0
   -3.6351    0.4826    4.9086 O   0  0  0  0  0  0  0  0  0  0  0  0
   -5.8582    0.7167    5.8316 C   0  0  0  0  0  0  0  0  0  0  0  0
   -6.8069   -0.2975    6.4773 C   0  0  0  0  0  0  0  0  0  0  0  0
   -4.0468    0.2445    4.0631 H   0  0  0  0  0  0  0  0  0  0  0  0
   -7.1599   -0.0580    7.9088 N   0  0  0  0  0  0  0  0  0  0  0  0
   -8.3184    0.3902    8.4177 C   0  0  0  0  0  0  0  0  0  0  0  0
   -8.2200    0.4750    9.7617 N   0  0  0  0  0  0  0  0  0  0  0  0
   -6.9738    0.0938   10.1004 C   0  0  0  0  0  0  0  0  0  0  0  0
   -6.3119   -0.2344    8.9297 C   0  0  0  0  0  0  0  0  0  0  0  0
   -5.0257   -0.6552    8.9891 N   0  0  0  0  0  0  0  0  0  0  0  0
   -4.4010   -0.7487   10.1683 C   0  0  0  0  0  0  0  0  0  0  0  0
   -5.0218   -0.4390   11.3151 N   0  0  0  0  0  0  0  0  0  0  0  0
   -6.3034   -0.0147   11.3118 C   0  0  0  0  0  0  0  0  0  0  0  0
   -6.9177    0.2997   12.4791 N   0  0  0  0  0  0  0  0  0  0  0  0
   -7.8523    0.6090   12.4758 H   0  0  0  0  0  0  0  0  0  0  0  0
   -6.4290    0.2186   13.3299 H   0  0  0  0  0  0  0  0  0  0  0  0
   -3.9974    3.7016    6.0667 N   0  0  0  0  0  0  0  0  0  0  0  0
   -4.8537    2.9330    6.1985 N   0  0  0  0  0  0  0  0  0  0  0  0
   -5.8989    2.0569    6.3831 N   0  0  0  0  0  0  0  0  0  0  0  0
  3  2  2  0  0  0
  4  2  2  0  0  0
  2  1  1  0  0  0
  2  7  1  0  0  0
  1 24  1  0  0  0
 28 27  1  0  0  0
  7  5  1  0  0  0
 25 24  1  0  0  0
 25 27  1  0  0  0
 25 26  1  0  0  0
  5  6  2  0  0  0
  5  9  1  0  0  0
 27 29  1  0  0  0
 26 30  1  0  0  0
 29 30  1  0  0  0
  9 10  1  0  0  0
 30 32  1  0  0  0
 44 45  2  0  0  0
 10 11  1  0  0  0
 32 36  1  0  0  0
 32 33  1  0  0  0
 37 36  2  0  0  0
 37 38  1  0  0  0
 36 35  1  0  0  0
 11 12  1  0  0  0
 33 34  2  0  0  0
 38 39  2  0  0  0
 35 34  1  0  0  0
 35 40  2  0  0  0
 12 21  1  0  0  0
 39 40  1  0  0  0
 14 13  1  0  0  0
 14 15  1  0  0  0
 40 41  1  0  0  0
 13 21  1  0  0  0
 13 18  1  0  0  0
 21 20  1  0  0  0
 16 15  2  0  0  0
 15 17  1  0  0  0
 18 17  1  0  0  0
 18 19  1  0  0  0
 20 19  1  0  0  0
 29 46  1  0  0  0
 45 46  2  0  0  0
 14 22  1  0  0  0
 17 23  1  0  0  0
  7  8  1  0  0  0
 28 31  1  0  0  0
 41 42  1  0  0  0
 41 43  1  0  0  0
M  CHG 1  44  -1
M  CHG 1  45   1
M  END
> <minimizedAffinity>
-11.77676

$$$$
4XTX_590_A_301


 46 50  0  0  0  0  0  0  0  0999 V2000
   -4.4182   -2.9287    6.7128 O   0  0  0  0  0  0  0  0  0  0  0  0
   -3.5757   -4.1905    6.9615 S   0  0  0  0  0  0  0  0  0  0  0  0
   -3.6584   -5.0408    5.8066 O   0  0  0  0  0  0  0  0  0  0  0  0
   -2.2051   -3.8119    7.1614 O   0  0  0  0  0  0  0  0  0  0  0  0
   -4.3608   -6.2389    8.1472 C   0  0  0  0  0  0  0  0  0  0  0  0
   -4.2600   -6.9107    7.1339 O   0  0  0  0  0  0  0  0  0  0  0  0
   -4.0700   -4.9389    8.1947 N   0  0  0  0  0  0  0  0  0  0  0  0
   -4.1766   -4.4518    9.0436 H   0  0  0  0  0  0  0  0  0  0  0  0
   -4.8327   -6.8776    9.4326 C   0  0  0  0  0  0  0  0  0  0  0  0
   -3.6635   -7.4057   10.2542 C   0  0  0  0  0  0  0  0  0  0  0  0
   -4.1964   -8.2633   11.3948 C   0  0  0  0  0  0  0  0  0  0  0  0
   -3.4931   -7.9653   12.7125 C   0  0  0  0  0  0  0  0  0  0  0  0
   -2.6103  -10.1582   13.6814 C   0  0  0  0  0  0  0  0  0  0  0  0
   -1.3766   -9.4487   13.3720 N   0  0  0  0  0  0  0  0  0  0  0  0
   -0.4431   -9.6283   14.2922 C   0  0  0  0  0  0  0  0  0  0  0  0
    0.7000   -9.2063   14.2225 O   0  0  0  0  0  0  0  0  0  0  0  0
   -0.9245  -10.3357   15.2981 N   0  0  0  0  0  0  0  0  0  0  0  0
   -2.3195  -10.6973   15.0978 C   0  0  0  0  0  0  0  0  0  0  0  0
   -3.0638   -9.9050   16.1669 C   0  0  0  0  0  0  0  0  0  0  0  0
   -3.6477   -8.4694   15.3461 S   0  0  0  0  0  0  0  0  0  0  0  0
   -3.7054   -9.0964   13.7105 C   0  0  0  0  0  0  0  0  0  0  0  0
   -1.2512   -8.8963   12.5668 H   0  0  0  0  0  0  0  0  0  0  0  0
   -0.4001  -10.5890   16.0919 H   0  0  0  0  0  0  0  0  0  0  0  0
   -4.0767   -1.6730    7.3038 C   0  0  0  0  0  0  0  0  0  0  0  0
   -3.9885   -0.6081    6.2087 C   0  0  0  0  0  0  0  0  0  0  0  0
   -5.0660   -0.7170    5.2706 O   0  0  0  0  0  0  0  0  0  0  0  0
   -4.0287    0.8173    6.7311 C   0  0  0  0  0  0  0  0  0  0  0  0
   -2.7081    1.2858    7.0069 O   0  0  0  0  0  0  0  0  0  0  0  0
   -4.6336    1.5803    5.5735 C   0  0  0  0  0  0  0  0  0  0  0  0
   -5.5806    0.5716    4.9169 C   0  0  0  0  0  0  0  0  0  0  0  0
   -2.1649    1.2113    6.2068 H   0  0  0  0  0  0  0  0  0  0  0  0
   -7.0112    0.6304    5.3423 N   0  0  0  0  0  0  0  0  0  0  0  0
   -7.5158    0.5456    6.5834 C   0  0  0  0  0  0  0  0  0  0  0  0
   -8.8622    0.6342    6.5320 N   0  0  0  0  0  0  0  0  0  0  0  0
   -9.2099    0.7558    5.2369 C   0  0  0  0  0  0  0  0  0  0  0  0
   -8.0412    0.7470    4.4949 C   0  0  0  0  0  0  0  0  0  0  0  0
   -8.1092    0.8571    3.1465 N   0  0  0  0  0  0  0  0  0  0  0  0
   -9.2955    0.9693    2.5386 C   0  0  0  0  0  0  0  0  0  0  0  0
  -10.4402    0.9827    3.2358 N   0  0  0  0  0  0  0  0  0  0  0  0
  -10.4284    0.8764    4.5815 C   0  0  0  0  0  0  0  0  0  0  0  0
  -11.5943    0.8867    5.2738 N   0  0  0  0  0  0  0  0  0  0  0  0
  -11.5847    0.8091    6.2552 H   0  0  0  0  0  0  0  0  0  0  0  0
  -12.4503    0.9719    4.7951 H   0  0  0  0  0  0  0  0  0  0  0  0
   -6.3135    4.4384    4.3747 N   0  0  0  0  0  0  0  0  0  0  0  0
   -5.8170    3.6857    5.1015 N   0  0  0  0  0  0  0  0  0  0  0  0
   -5.2400    2.8240    6.0064 N   0  0  0  0  0  0  0  0  0  0  0  0
  3  2  2  0  0  0
  4  2  2  0  0  0
  2  1  1  0  0  0
  2  7  1  0  0  0
  1 24  1  0  0  0
 28 27  1  0  0  0
  7  5  1  0  0  0
 25 24  1  0  0  0
 25 27  1  0  0  0
 25 26  1  0  0  0
  5  6  2  0  0  0
  5  9  1  0  0  0
 27 29  1  0  0  0
 26 30  1  0  0  0
 29 30  1  0  0  0
  9 10  1  0  0  0
 30 32  1  0  0  0
 44 45  2  0  0  0
 10 11  1  0  0  0
 32 36  1  0  0  0
 32 33  1  0  0  0
 37 36  2  0  0  0
 37 38  1  0  0  0
 36 35  1  0  0  0
 11 12  1  0  0  0
 33 34  2  0  0  0
 38 39  2  0  0  0
 35 34  1  0  0  0
 35 40  2  0  0  0
 12 21  1  0  0  0
 39 40  1  0  0  0
 14 13  1  0  0  0
 14 15  1  0  0  0
 40 41  1  0  0  0
 13 21  1  0  0  0
 13 18  1  0  0  0
 21 20  1  0  0  0
 16 15  2  0  0  0
 15 17  1  0  0  0
 18 17  1  0  0  0
 18 19  1  0  0  0
 20 19  1  0  0  0
 29 46  1  0  0  0
 45 46  2  0  0  0
 14 22  1  0  0  0
 17 23  1  0  0  0
  7  8  1  0  0  0
 28 31  1  0  0  0
 41 42  1  0  0  0
 41 43  1  0  0  0
M  CHG 1  44  -1
M  CHG 1  45   1
M  END
> <minimizedAffinity>
-10.83475

$$$$
4XTX_590_A_301


 46 50  0  0  0  0  0  0  0  0999 V2000
   -2.5275   -3.2407    7.0185 O   0  0  0  0  0  0  0  0  0  0  0  0
   -3.6023   -4.2920    6.6970 S   0  0  0  0  0  0  0  0  0  0  0  0
   -4.8352   -3.6198    6.3939 O   0  0  0  0  0  0  0  0  0  0  0  0
   -3.1931   -5.0503    5.5484 O   0  0  0  0  0  0  0  0  0  0  0  0
   -4.8093   -6.1144    7.8970 C   0  0  0  0  0  0  0  0  0  0  0  0
   -5.6300   -6.2141    6.9997 O   0  0  0  0  0  0  0  0  0  0  0  0
   -3.8030   -5.2406    7.8738 N   0  0  0  0  0  0  0  0  0  0  0  0
   -3.1762   -5.2071    8.6323 H   0  0  0  0  0  0  0  0  0  0  0  0
   -4.9039   -7.0107    9.1096 C   0  0  0  0  0  0  0  0  0  0  0  0
   -3.7114   -6.8195   10.0381 C   0  0  0  0  0  0  0  0  0  0  0  0
   -4.0147   -7.4614   11.3858 C   0  0  0  0  0  0  0  0  0  0  0  0
   -3.1448   -8.6841   11.6468 C   0  0  0  0  0  0  0  0  0  0  0  0
   -2.5234  -10.3610   13.4714 C   0  0  0  0  0  0  0  0  0  0  0  0
   -1.2290   -9.7778   13.1463 N   0  0  0  0  0  0  0  0  0  0  0  0
   -0.4729   -9.5917   14.2161 C   0  0  0  0  0  0  0  0  0  0  0  0
    0.6806   -9.1934   14.1981 O   0  0  0  0  0  0  0  0  0  0  0  0
   -1.1448   -9.9040   15.3092 N   0  0  0  0  0  0  0  0  0  0  0  0
   -2.4982  -10.3492   15.0143 C   0  0  0  0  0  0  0  0  0  0  0  0
   -3.3826   -9.2460   15.5847 C   0  0  0  0  0  0  0  0  0  0  0  0
   -3.7635   -8.2151   14.2180 S   0  0  0  0  0  0  0  0  0  0  0  0
   -3.5664   -9.3878   12.9303 C   0  0  0  0  0  0  0  0  0  0  0  0
   -0.9477   -9.5474   12.2314 H   0  0  0  0  0  0  0  0  0  0  0  0
   -0.7728   -9.8427   16.2187 H   0  0  0  0  0  0  0  0  0  0  0  0
   -2.5256   -2.5278    8.2572 C   0  0  0  0  0  0  0  0  0  0  0  0
   -3.4369   -1.3049    8.1362 C   0  0  0  0  0  0  0  0  0  0  0  0
   -3.3325   -0.4466    9.2788 O   0  0  0  0  0  0  0  0  0  0  0  0
   -3.1414   -0.4337    6.9279 C   0  0  0  0  0  0  0  0  0  0  0  0
   -3.9103   -0.8617    5.8032 O   0  0  0  0  0  0  0  0  0  0  0  0
   -3.5871    0.9369    7.3873 C   0  0  0  0  0  0  0  0  0  0  0  0
   -3.3116    0.9325    8.8938 C   0  0  0  0  0  0  0  0  0  0  0  0
   -4.8527   -0.8506    6.0327 H   0  0  0  0  0  0  0  0  0  0  0  0
   -2.0076    1.5146    9.3316 N   0  0  0  0  0  0  0  0  0  0  0  0
   -0.8204    0.9004    9.4554 C   0  0  0  0  0  0  0  0  0  0  0  0
    0.1037    1.7840    9.8897 N   0  0  0  0  0  0  0  0  0  0  0  0
   -0.5172    2.9665   10.0609 C   0  0  0  0  0  0  0  0  0  0  0  0
   -1.8452    2.7876    9.7134 C   0  0  0  0  0  0  0  0  0  0  0  0
   -2.7005    3.8348    9.7955 N   0  0  0  0  0  0  0  0  0  0  0  0
   -2.2655    5.0291   10.2124 C   0  0  0  0  0  0  0  0  0  0  0  0
   -0.9841    5.2271   10.5519 N   0  0  0  0  0  0  0  0  0  0  0  0
   -0.0905    4.2172   10.4879 C   0  0  0  0  0  0  0  0  0  0  0  0
    1.2018    4.4306   10.8388 N   0  0  0  0  0  0  0  0  0  0  0  0
    1.8528    3.6935   10.7919 H   0  0  0  0  0  0  0  0  0  0  0  0
    1.4891    5.3226   11.1405 H   0  0  0  0  0  0  0  0  0  0  0  0
   -4.0170    4.2662    6.3109 N   0  0  0  0  0  0  0  0  0  0  0  0
   -3.5460    3.2203    6.4708 N   0  0  0  0  0  0  0  0  0  0  0  0
   -2.9429    1.9938    6.6324 N   0  0  0  0  0  0  0  0  0  0  0  0
  3  2  2  0  0  0
  4  2  2  0  0  0
  2  1  1  0  0  0
  2  7  1  0  0  0
  1 24  1  0  0  0
 28 27  1  0  0  0
  7  5  1  0  0  0
 25 24  1  0  0  0
 25 27  1  0  0  0
 25 26  1  0  0  0
  5  6  2  0  0  0
  5  9  1  0  0  0
 27 29  1  0  0  0
 26 30  1  0  0  0
 29 30  1  0  0  0
  9 10  1  0  0  0
 30 32  1  0  0  0
 44 45  2  0  0  0
 10 11  1  0  0  0
 32 36  1  0  0  0
 32 33  1  0  0  0
 37 36  2  0  0  0
 37 38  1  0  0  0
 36 35  1  0  0  0
 11 12  1  0  0  0
 33 34  2  0  0  0
 38 39  2  0  0  0
 35 34  1  0  0  0
 35 40  2  0  0  0
 12 21  1  0  0  0
 39 40  1  0  0  0
 14 13  1  0  0  0
 14 15  1  0  0  0
 40 41  1  0  0  0
 13 21  1  0  0  0
 13 18  1  0  0  0
 21 20  1  0  0  0
 16 15  2  0  0  0
 15 17  1  0  0  0
 18 17  1  0  0  0
 18 19  1  0  0  0
 20 19  1  0  0  0
 29 46  1  0  0  0
 45 46  2  0  0  0
 14 22  1  0  0  0
 17 23  1  0  0  0
  7  8  1  0  0  0
 28 31  1  0  0  0
 41 42  1  0  0  0
 41 43  1  0  0  0
M  CHG 1  44  -1
M  CHG 1  45   1
M  END
> <minimizedAffinity>
-10.61953

$$$$
4XTX_590_A_301


 46 50  0  0  0  0  0  0  0  0999 V2000
   -4.4067   -3.2586    6.8895 O   0  0  0  0  0  0  0  0  0  0  0  0
   -4.0250   -4.5881    6.2183 S   0  0  0  0  0  0  0  0  0  0  0  0
   -4.6202   -4.6378    4.9117 O   0  0  0  0  0  0  0  0  0  0  0  0
   -2.5973   -4.6552    6.0803 O   0  0  0  0  0  0  0  0  0  0  0  0
   -4.2208   -5.8639    8.3518 C   0  0  0  0  0  0  0  0  0  0  0  0
   -3.5729   -5.0260    8.9572 O   0  0  0  0  0  0  0  0  0  0  0  0
   -4.5005   -5.7731    7.0517 N   0  0  0  0  0  0  0  0  0  0  0  0
   -5.0251   -6.4861    6.6207 H   0  0  0  0  0  0  0  0  0  0  0  0
   -4.7518   -7.0775    9.0786 C   0  0  0  0  0  0  0  0  0  0  0  0
   -3.7053   -7.6681   10.0150 C   0  0  0  0  0  0  0  0  0  0  0  0
   -4.2619   -7.7055   11.4325 C   0  0  0  0  0  0  0  0  0  0  0  0
   -3.1665   -7.8975   12.4732 C   0  0  0  0  0  0  0  0  0  0  0  0
   -2.3799  -10.0772   13.5491 C   0  0  0  0  0  0  0  0  0  0  0  0
   -1.1376   -9.3226   13.4569 N   0  0  0  0  0  0  0  0  0  0  0  0
   -0.3634   -9.4878   14.5171 C   0  0  0  0  0  0  0  0  0  0  0  0
    0.7600   -9.0277   14.6429 O   0  0  0  0  0  0  0  0  0  0  0  0
   -0.9795  -10.2279   15.4208 N   0  0  0  0  0  0  0  0  0  0  0  0
   -2.3086  -10.6311   14.9877 C   0  0  0  0  0  0  0  0  0  0  0  0
   -3.2467   -9.8822   15.9278 C   0  0  0  0  0  0  0  0  0  0  0  0
   -3.7366   -8.4522   15.0386 S   0  0  0  0  0  0  0  0  0  0  0  0
   -3.5012   -9.0522   13.4087 C   0  0  0  0  0  0  0  0  0  0  0  0
   -0.9002   -8.7524   12.6903 H   0  0  0  0  0  0  0  0  0  0  0  0
   -0.5850  -10.4778   16.2875 H   0  0  0  0  0  0  0  0  0  0  0  0
   -4.5749   -2.0591    6.1309 C   0  0  0  0  0  0  0  0  0  0  0  0
   -6.0538   -1.6671    6.1292 C   0  0  0  0  0  0  0  0  0  0  0  0
   -6.2368   -0.2739    6.4098 O   0  0  0  0  0  0  0  0  0  0  0  0
   -6.7581   -1.9257    4.8088 C   0  0  0  0  0  0  0  0  0  0  0  0
   -7.3181   -3.2393    4.7902 O   0  0  0  0  0  0  0  0  0  0  0  0
   -7.8515   -0.8805    4.8031 C   0  0  0  0  0  0  0  0  0  0  0  0
   -7.2430    0.2990    5.5674 C   0  0  0  0  0  0  0  0  0  0  0  0
   -7.9183   -3.3457    5.5447 H   0  0  0  0  0  0  0  0  0  0  0  0
   -6.6015    1.3652    4.7411 N   0  0  0  0  0  0  0  0  0  0  0  0
   -7.1866    2.2345    3.9021 C   0  0  0  0  0  0  0  0  0  0  0  0
   -6.2470    3.0270    3.3432 N   0  0  0  0  0  0  0  0  0  0  0  0
   -5.0512    2.6358    3.8229 C   0  0  0  0  0  0  0  0  0  0  0  0
   -5.2819    1.5871    4.6967 C   0  0  0  0  0  0  0  0  0  0  0  0
   -4.2338    1.0029    5.3252 N   0  0  0  0  0  0  0  0  0  0  0  0
   -2.9876    1.4336    5.0997 C   0  0  0  0  0  0  0  0  0  0  0  0
   -2.7396    2.4486    4.2601 N   0  0  0  0  0  0  0  0  0  0  0  0
   -3.7481    3.0657    3.6086 C   0  0  0  0  0  0  0  0  0  0  0  0
   -3.4824    4.0883    2.7586 N   0  0  0  0  0  0  0  0  0  0  0  0
   -4.2185    4.5377    2.2838 H   0  0  0  0  0  0  0  0  0  0  0  0
   -2.5533    4.3812    2.6162 H   0  0  0  0  0  0  0  0  0  0  0  0
   -8.6239   -2.4066    1.7206 N   0  0  0  0  0  0  0  0  0  0  0  0
   -8.4735   -1.5935    2.5315 N   0  0  0  0  0  0  0  0  0  0  0  0
   -8.3117   -0.5900    3.4594 N   0  0  0  0  0  0  0  0  0  0  0  0
  3  2  2  0  0  0
  4  2  2  0  0  0
  2  1  1  0  0  0
  2  7  1  0  0  0
  1 24  1  0  0  0
 28 27  1  0  0  0
  7  5  1  0  0  0
 25 24  1  0  0  0
 25 27  1  0  0  0
 25 26  1  0  0  0
  5  6  2  0  0  0
  5  9  1  0  0  0
 27 29  1  0  0  0
 26 30  1  0  0  0
 29 30  1  0  0  0
  9 10  1  0  0  0
 30 32  1  0  0  0
 44 45  2  0  0  0
 10 11  1  0  0  0
 32 36  1  0  0  0
 32 33  1  0  0  0
 37 36  2  0  0  0
 37 38  1  0  0  0
 36 35  1  0  0  0
 11 12  1  0  0  0
 33 34  2  0  0  0
 38 39  2  0  0  0
 35 34  1  0  0  0
 35 40  2  0  0  0
 12 21  1  0  0  0
 39 40  1  0  0  0
 14 13  1  0  0  0
 14 15  1  0  0  0
 40 41  1  0  0  0
 13 21  1  0  0  0
 13 18  1  0  0  0
 21 20  1  0  0  0
 16 15  2  0  0  0
 15 17  1  0  0  0
 18 17  1  0  0  0
 18 19  1  0  0  0
 20 19  1  0  0  0
 29 46  1  0  0  0
 45 46  2  0  0  0
 14 22  1  0  0  0
 17 23  1  0  0  0
  7  8  1  0  0  0
 28 31  1  0  0  0
 41 42  1  0  0  0
 41 43  1  0  0  0
M  CHG 1  44  -1
M  CHG 1  45   1
M  END
> <minimizedAffinity>
-10.60942

$$$$
4XTX_590_A_301


 46 50  0  0  0  0  0  0  0  0999 V2000
   -4.4964   -2.1560    7.7857 O   0  0  0  0  0  0  0  0  0  0  0  0
   -3.8216   -3.5120    7.5221 S   0  0  0  0  0  0  0  0  0  0  0  0
   -4.1061   -3.9195    6.1742 O   0  0  0  0  0  0  0  0  0  0  0  0
   -2.4008   -3.3703    7.6735 O   0  0  0  0  0  0  0  0  0  0  0  0
   -4.2313   -5.8687    8.2265 C   0  0  0  0  0  0  0  0  0  0  0  0
   -3.7535   -6.3019    7.1910 O   0  0  0  0  0  0  0  0  0  0  0  0
   -4.3235   -4.5676    8.5013 N   0  0  0  0  0  0  0  0  0  0  0  0
   -4.7239   -4.2823    9.3542 H   0  0  0  0  0  0  0  0  0  0  0  0
   -4.7524   -6.8238    9.2749 C   0  0  0  0  0  0  0  0  0  0  0  0
   -3.6147   -7.4637   10.0603 C   0  0  0  0  0  0  0  0  0  0  0  0
   -4.1878   -8.2142   11.2556 C   0  0  0  0  0  0  0  0  0  0  0  0
   -3.3567   -8.0060   12.5148 C   0  0  0  0  0  0  0  0  0  0  0  0
   -2.5231  -10.1803   13.5660 C   0  0  0  0  0  0  0  0  0  0  0  0
   -1.2750   -9.4807   13.2940 N   0  0  0  0  0  0  0  0  0  0  0  0
   -0.3816   -9.6432   14.2563 C   0  0  0  0  0  0  0  0  0  0  0  0
    0.7648   -9.2257   14.2260 O   0  0  0  0  0  0  0  0  0  0  0  0
   -0.9075  -10.3279   15.2557 N   0  0  0  0  0  0  0  0  0  0  0  0
   -2.2940  -10.6901   15.0044 C   0  0  0  0  0  0  0  0  0  0  0  0
   -3.0799   -9.8734   16.0242 C   0  0  0  0  0  0  0  0  0  0  0  0
   -3.6237   -8.4539   15.1496 S   0  0  0  0  0  0  0  0  0  0  0  0
   -3.6148   -9.1153   13.5265 C   0  0  0  0  0  0  0  0  0  0  0  0
   -1.1139   -8.9457   12.4833 H   0  0  0  0  0  0  0  0  0  0  0  0
   -0.4178  -10.5658   16.0760 H   0  0  0  0  0  0  0  0  0  0  0  0
   -4.1852   -1.3784    8.9439 C   0  0  0  0  0  0  0  0  0  0  0  0
   -3.9775    0.0800    8.5307 C   0  0  0  0  0  0  0  0  0  0  0  0
   -3.9627    0.9583    9.6628 O   0  0  0  0  0  0  0  0  0  0  0  0
   -2.6770    0.3304    7.7876 C   0  0  0  0  0  0  0  0  0  0  0  0
   -2.8671    0.1739    6.3809 O   0  0  0  0  0  0  0  0  0  0  0  0
   -2.3710    1.7725    8.1265 C   0  0  0  0  0  0  0  0  0  0  0  0
   -2.9397    1.9523    9.5371 C   0  0  0  0  0  0  0  0  0  0  0  0
   -3.5724    0.7688    6.0818 H   0  0  0  0  0  0  0  0  0  0  0  0
   -1.9798    1.7727   10.6674 N   0  0  0  0  0  0  0  0  0  0  0  0
   -1.6597    0.6426   11.3173 C   0  0  0  0  0  0  0  0  0  0  0  0
   -0.7569    0.9160   12.2835 N   0  0  0  0  0  0  0  0  0  0  0  0
   -0.5217    2.2414   12.2533 C   0  0  0  0  0  0  0  0  0  0  0  0
   -1.2983    2.7737   11.2385 C   0  0  0  0  0  0  0  0  0  0  0  0
   -1.2490    4.1049   10.9924 N   0  0  0  0  0  0  0  0  0  0  0  0
   -0.4598    4.8971   11.7265 C   0  0  0  0  0  0  0  0  0  0  0  0
    0.3029    4.4044   12.7125 N   0  0  0  0  0  0  0  0  0  0  0  0
    0.2913    3.0852   12.9988 C   0  0  0  0  0  0  0  0  0  0  0  0
    1.0645    2.6012   14.0021 N   0  0  0  0  0  0  0  0  0  0  0  0
    1.0554    1.6390   14.2102 H   0  0  0  0  0  0  0  0  0  0  0  0
    1.6349    3.2120   14.5225 H   0  0  0  0  0  0  0  0  0  0  0  0
    0.8180    0.2720    8.0481 N   0  0  0  0  0  0  0  0  0  0  0  0
   -0.0126    1.0785    8.0175 N   0  0  0  0  0  0  0  0  0  0  0  0
   -0.9613    2.0745    7.9725 N   0  0  0  0  0  0  0  0  0  0  0  0
  3  2  2  0  0  0
  4  2  2  0  0  0
  2  1  1  0  0  0
  2  7  1  0  0  0
  1 24  1  0  0  0
 28 27  1  0  0  0
  7  5  1  0  0  0
 25 24  1  0  0  0
 25 27  1  0  0  0
 25 26  1  0  0  0
  5  6  2  0  0  0
  5  9  1  0  0  0
 27 29  1  0  0  0
 26 30  1  0  0  0
 29 30  1  0  0  0
  9 10  1  0  0  0
 30 32  1  0  0  0
 44 45  2  0  0  0
 10 11  1  0  0  0
 32 36  1  0  0  0
 32 33  1  0  0  0
 37 36  2  0  0  0
 37 38  1  0  0  0
 36 35  1  0  0  0
 11 12  1  0  0  0
 33 34  2  0  0  0
 38 39  2  0  0  0
 35 34  1  0  0  0
 35 40  2  0  0  0
 12 21  1  0  0  0
 39 40  1  0  0  0
 14 13  1  0  0  0
 14 15  1  0  0  0
 40 41  1  0  0  0
 13 21  1  0  0  0
 13 18  1  0  0  0
 21 20  1  0  0  0
 16 15  2  0  0  0
 15 17  1  0  0  0
 18 17  1  0  0  0
 18 19  1  0  0  0
 20 19  1  0  0  0
 29 46  1  0  0  0
 45 46  2  0  0  0
 14 22  1  0  0  0
 17 23  1  0  0  0
  7  8  1  0  0  0
 28 31  1  0  0  0
 41 42  1  0  0  0
 41 43  1  0  0  0
M  CHG 1  44  -1
M  CHG 1  45   1
M  END
> <minimizedAffinity>
-10.58321

$$$$
4XTX_590_A_301


 46 50  0  0  0  0  0  0  0  0999 V2000
   -2.4333   -3.4955    6.9627 O   0  0  0  0  0  0  0  0  0  0  0  0
   -3.6726   -4.3980    6.8483 S   0  0  0  0  0  0  0  0  0  0  0  0
   -4.8137   -3.5844    6.5323 O   0  0  0  0  0  0  0  0  0  0  0  0
   -3.4710   -5.3456    5.7884 O   0  0  0  0  0  0  0  0  0  0  0  0
   -4.8589   -6.0910    8.2427 C   0  0  0  0  0  0  0  0  0  0  0  0
   -5.5838   -6.4052    7.3131 O   0  0  0  0  0  0  0  0  0  0  0  0
   -3.9167   -5.1527    8.1506 N   0  0  0  0  0  0  0  0  0  0  0  0
   -3.3669   -4.9425    8.9398 H   0  0  0  0  0  0  0  0  0  0  0  0
   -5.0046   -6.7796    9.5798 C   0  0  0  0  0  0  0  0  0  0  0  0
   -3.6487   -7.0333   10.2263 C   0  0  0  0  0  0  0  0  0  0  0  0
   -3.8561   -7.5860   11.6305 C   0  0  0  0  0  0  0  0  0  0  0  0
   -3.2747   -8.9850   11.7872 C   0  0  0  0  0  0  0  0  0  0  0  0
   -2.5438  -10.4886   13.7191 C   0  0  0  0  0  0  0  0  0  0  0  0
   -1.2724   -9.9390   13.2690 N   0  0  0  0  0  0  0  0  0  0  0  0
   -0.4575   -9.6567   14.2724 C   0  0  0  0  0  0  0  0  0  0  0  0
    0.6915   -9.2630   14.1525 O   0  0  0  0  0  0  0  0  0  0  0  0
   -1.0649   -9.8670   15.4260 N   0  0  0  0  0  0  0  0  0  0  0  0
   -2.4310  -10.3358   15.2506 C   0  0  0  0  0  0  0  0  0  0  0  0
   -3.2861   -9.1841   15.7671 C   0  0  0  0  0  0  0  0  0  0  0  0
   -3.7483   -8.2822   14.3359 S   0  0  0  0  0  0  0  0  0  0  0  0
   -3.6198   -9.5679   13.1517 C   0  0  0  0  0  0  0  0  0  0  0  0
   -1.0444   -9.7936   12.3223 H   0  0  0  0  0  0  0  0  0  0  0  0
   -0.6421   -9.7231   16.3034 H   0  0  0  0  0  0  0  0  0  0  0  0
   -2.3546   -2.4532    7.9375 C   0  0  0  0  0  0  0  0  0  0  0  0
   -2.2060   -1.1073    7.2254 C   0  0  0  0  0  0  0  0  0  0  0  0
   -3.3399   -0.8120    6.4006 O   0  0  0  0  0  0  0  0  0  0  0  0
   -2.0523    0.0742    8.1671 C   0  0  0  0  0  0  0  0  0  0  0  0
   -0.6732    0.3073    8.4554 O   0  0  0  0  0  0  0  0  0  0  0  0
   -2.6293    1.2187    7.3639 C   0  0  0  0  0  0  0  0  0  0  0  0
   -3.7216    0.5634    6.5136 C   0  0  0  0  0  0  0  0  0  0  0  0
   -0.1880    0.4427    7.6265 H   0  0  0  0  0  0  0  0  0  0  0  0
   -5.1098    0.6139    7.0627 N   0  0  0  0  0  0  0  0  0  0  0  0
   -6.2326    1.0265    6.4534 C   0  0  0  0  0  0  0  0  0  0  0  0
   -7.2752    0.9205    7.3050 N   0  0  0  0  0  0  0  0  0  0  0  0
   -6.7964    0.4536    8.4737 C   0  0  0  0  0  0  0  0  0  0  0  0
   -5.4337    0.2687    8.3151 C   0  0  0  0  0  0  0  0  0  0  0  0
   -4.7013   -0.2001    9.3538 N   0  0  0  0  0  0  0  0  0  0  0  0
   -5.2901   -0.4776   10.5225 C   0  0  0  0  0  0  0  0  0  0  0  0
   -6.6080   -0.3090   10.6991 N   0  0  0  0  0  0  0  0  0  0  0  0
   -7.3836    0.1552    9.6963 C   0  0  0  0  0  0  0  0  0  0  0  0
   -8.7148    0.3253    9.8904 N   0  0  0  0  0  0  0  0  0  0  0  0
   -9.2796    0.6638    9.1585 H   0  0  0  0  0  0  0  0  0  0  0  0
   -9.1165    0.1103   10.7631 H   0  0  0  0  0  0  0  0  0  0  0  0
   -1.9654    2.7941   10.4469 N   0  0  0  0  0  0  0  0  0  0  0  0
   -2.4518    2.5532    9.4238 N   0  0  0  0  0  0  0  0  0  0  0  0
   -3.0633    2.3091    8.2152 N   0  0  0  0  0  0  0  0  0  0  0  0
  3  2  2  0  0  0
  4  2  2  0  0  0
  2  1  1  0  0  0
  2  7  1  0  0  0
  1 24  1  0  0  0
 28 27  1  0  0  0
  7  5  1  0  0  0
 25 24  1  0  0  0
 25 27  1  0  0  0
 25 26  1  0  0  0
  5  6  2  0  0  0
  5  9  1  0  0  0
 27 29  1  0  0  0
 26 30  1  0  0  0
 29 30  1  0  0  0
  9 10  1  0  0  0
 30 32  1  0  0  0
 44 45  2  0  0  0
 10 11  1  0  0  0
 32 36  1  0  0  0
 32 33  1  0  0  0
 37 36  2  0  0  0
 37 38  1  0  0  0
 36 35  1  0  0  0
 11 12  1  0  0  0
 33 34  2  0  0  0
 38 39  2  0  0  0
 35 34  1  0  0  0
 35 40  2  0  0  0
 12 21  1  0  0  0
 39 40  1  0  0  0
 14 13  1  0  0  0
 14 15  1  0  0  0
 40 41  1  0  0  0
 13 21  1  0  0  0
 13 18  1  0  0  0
 21 20  1  0  0  0
 16 15  2  0  0  0
 15 17  1  0  0  0
 18 17  1  0  0  0
 18 19  1  0  0  0
 20 19  1  0  0  0
 29 46  1  0  0  0
 45 46  2  0  0  0
 14 22  1  0  0  0
 17 23  1  0  0  0
  7  8  1  0  0  0
 28 31  1  0  0  0
 41 42  1  0  0  0
 41 43  1  0  0  0
M  CHG 1  44  -1
M  CHG 1  45   1
M  END
> <minimizedAffinity>
-10.56418

$$$$
4XTX_590_A_301


 46 50  0  0  0  0  0  0  0  0999 V2000
   -3.0811   -2.6564    8.0737 O   0  0  0  0  0  0  0  0  0  0  0  0
   -3.5186   -3.9085    7.2962 S   0  0  0  0  0  0  0  0  0  0  0  0
   -4.7452   -3.6227    6.6051 O   0  0  0  0  0  0  0  0  0  0  0  0
   -2.5094   -4.2421    6.3308 O   0  0  0  0  0  0  0  0  0  0  0  0
   -4.5313   -6.0984    7.9263 C   0  0  0  0  0  0  0  0  0  0  0  0
   -5.1704   -6.1452    6.8881 O   0  0  0  0  0  0  0  0  0  0  0  0
   -3.7160   -5.0911    8.2384 N   0  0  0  0  0  0  0  0  0  0  0  0
   -3.2312   -5.1111    9.0950 H   0  0  0  0  0  0  0  0  0  0  0  0
   -4.6412   -7.2209    8.9317 C   0  0  0  0  0  0  0  0  0  0  0  0
   -3.9550   -6.8627   10.2438 C   0  0  0  0  0  0  0  0  0  0  0  0
   -4.3384   -7.8834   11.3076 C   0  0  0  0  0  0  0  0  0  0  0  0
   -3.1257   -8.6272   11.8512 C   0  0  0  0  0  0  0  0  0  0  0  0
   -2.4127  -10.4297   13.5156 C   0  0  0  0  0  0  0  0  0  0  0  0
   -1.1445   -9.7793   13.2161 N   0  0  0  0  0  0  0  0  0  0  0  0
   -0.3712   -9.6587   14.2829 C   0  0  0  0  0  0  0  0  0  0  0  0
    0.7687   -9.2227   14.2765 O   0  0  0  0  0  0  0  0  0  0  0  0
   -1.0090  -10.0832   15.3586 N   0  0  0  0  0  0  0  0  0  0  0  0
   -2.3540  -10.5463   15.0533 C   0  0  0  0  0  0  0  0  0  0  0  0
   -3.2595   -9.5242   15.7316 C   0  0  0  0  0  0  0  0  0  0  0  0
   -3.7022   -8.3957   14.4643 S   0  0  0  0  0  0  0  0  0  0  0  0
   -3.4970   -9.4493   13.0788 C   0  0  0  0  0  0  0  0  0  0  0  0
   -0.8906   -9.4640   12.3186 H   0  0  0  0  0  0  0  0  0  0  0  0
   -0.6193  -10.0860   16.2627 H   0  0  0  0  0  0  0  0  0  0  0  0
   -3.8421   -1.4472    8.0333 C   0  0  0  0  0  0  0  0  0  0  0  0
   -3.1243   -0.4296    7.1445 C   0  0  0  0  0  0  0  0  0  0  0  0
   -3.5253   -0.5421    5.7735 O   0  0  0  0  0  0  0  0  0  0  0  0
   -3.3736    1.0159    7.5379 C   0  0  0  0  0  0  0  0  0  0  0  0
   -2.3927    1.4539    8.4789 O   0  0  0  0  0  0  0  0  0  0  0  0
   -3.2178    1.7510    6.2251 C   0  0  0  0  0  0  0  0  0  0  0  0
   -3.7045    0.7469    5.1761 C   0  0  0  0  0  0  0  0  0  0  0  0
   -1.5069    1.3311    8.1034 H   0  0  0  0  0  0  0  0  0  0  0  0
   -5.1327    0.8665    4.7554 N   0  0  0  0  0  0  0  0  0  0  0  0
   -5.6224    1.1253    3.5326 C   0  0  0  0  0  0  0  0  0  0  0  0
   -6.9714    1.1585    3.5826 N   0  0  0  0  0  0  0  0  0  0  0  0
   -7.3338    0.9376    4.8604 C   0  0  0  0  0  0  0  0  0  0  0  0
   -6.1723    0.7605    5.5924 C   0  0  0  0  0  0  0  0  0  0  0  0
   -6.2554    0.5193    6.9228 N   0  0  0  0  0  0  0  0  0  0  0  0
   -7.4492    0.4568    7.5230 C   0  0  0  0  0  0  0  0  0  0  0  0
   -8.5874    0.6225    6.8349 N   0  0  0  0  0  0  0  0  0  0  0  0
   -8.5607    0.8650    5.5072 C   0  0  0  0  0  0  0  0  0  0  0  0
   -9.7198    1.0352    4.8244 N   0  0  0  0  0  0  0  0  0  0  0  0
   -9.6993    1.2121    3.8561 H   0  0  0  0  0  0  0  0  0  0  0  0
  -10.5818    0.9819    5.2969 H   0  0  0  0  0  0  0  0  0  0  0  0
   -2.9774    5.0389    7.4739 N   0  0  0  0  0  0  0  0  0  0  0  0
   -3.3808    4.1069    6.9172 N   0  0  0  0  0  0  0  0  0  0  0  0
   -3.9024    3.0289    6.2389 N   0  0  0  0  0  0  0  0  0  0  0  0
  3  2  2  0  0  0
  4  2  2  0  0  0
  2  1  1  0  0  0
  2  7  1  0  0  0
  1 24  1  0  0  0
 28 27  1  0  0  0
  7  5  1  0  0  0
 25 24  1  0  0  0
 25 27  1  0  0  0
 25 26  1  0  0  0
  5  6  2  0  0  0
  5  9  1  0  0  0
 27 29  1  0  0  0
 26 30  1  0  0  0
 29 30  1  0  0  0
  9 10  1  0  0  0
 30 32  1  0  0  0
 44 45  2  0  0  0
 10 11  1  0  0  0
 32 36  1  0  0  0
 32 33  1  0  0  0
 37 36  2  0  0  0
 37 38  1  0  0  0
 36 35  1  0  0  0
 11 12  1  0  0  0
 33 34  2  0  0  0
 38 39  2  0  0  0
 35 34  1  0  0  0
 35 40  2  0  0  0
 12 21  1  0  0  0
 39 40  1  0  0  0
 14 13  1  0  0  0
 14 15  1  0  0  0
 40 41  1  0  0  0
 13 21  1  0  0  0
 13 18  1  0  0  0
 21 20  1  0  0  0
 16 15  2  0  0  0
 15 17  1  0  0  0
 18 17  1  0  0  0
 18 19  1  0  0  0
 20 19  1  0  0  0
 29 46  1  0  0  0
 45 46  2  0  0  0
 14 22  1  0  0  0
 17 23  1  0  0  0
  7  8  1  0  0  0
 28 31  1  0  0  0
 41 42  1  0  0  0
 41 43  1  0  0  0
M  CHG 1  44  -1
M  CHG 1  45   1
M  END
> <minimizedAffinity>
-10.52946

$$$$
