2E2R_2OH_A_1401


 19 20  0  0  0  0  0  0  0  0999 V2000
  -16.5161   -3.0380  -27.4300 C   0  0  0  0  0  0  0  0  0  0  0  0
  -15.6211   -2.0228  -26.7164 C   0  0  0  0  0  0  0  0  0  0  0  0
  -17.9165   -2.8146  -26.8690 C   0  0  0  0  0  0  0  0  0  0  0  0
  -17.0680   -2.0786  -33.0269 O   0  0  0  0  0  0  0  0  0  0  0  0
  -16.9158   -2.3108  -31.7165 C   0  0  0  0  0  0  0  0  0  0  0  0
  -17.9521   -2.8974  -30.9963 C   0  0  0  0  0  0  0  0  0  0  0  0
  -17.8058   -3.1132  -29.6233 C   0  0  0  0  0  0  0  0  0  0  0  0
  -15.7338   -1.9896  -31.0447 C   0  0  0  0  0  0  0  0  0  0  0  0
  -15.5869   -2.2202  -29.6702 C   0  0  0  0  0  0  0  0  0  0  0  0
  -16.6276   -2.7980  -28.9278 C   0  0  0  0  0  0  0  0  0  0  0  0
  -17.8718   -2.3041  -33.4524 H   0  0  0  0  0  0  0  0  0  0  0  0
  -15.9868   -4.4336  -27.1635 C   0  0  0  0  0  0  0  0  0  0  0  0
  -16.4297   -5.1054  -26.0290 C   0  0  0  0  0  0  0  0  0  0  0  0
  -15.9793   -6.3772  -25.7234 C   0  0  0  0  0  0  0  0  0  0  0  0
  -15.0590   -5.0716  -27.9892 C   0  0  0  0  0  0  0  0  0  0  0  0
  -14.6133   -6.3636  -27.6707 C   0  0  0  0  0  0  0  0  0  0  0  0
  -15.0644   -7.0155  -26.5410 C   0  0  0  0  0  0  0  0  0  0  0  0
  -14.6389   -8.2549  -26.2275 O   0  0  0  0  0  0  0  0  0  0  0  0
  -14.9586   -8.6787  -25.4553 H   0  0  0  0  0  0  0  0  0  0  0  0
  4  5  1  0  0  0
  5  6  1  0  0  0
  5  8  2  0  0  0
  6  7  2  0  0  0
  7 10  1  0  0  0
  8  9  1  0  0  0
  9 10  2  0  0  0
 10  1  1  0  0  0
  1 12  1  0  0  0
  1  2  1  0  0  0
  1  3  1  0  0  0
 12 13  2  0  0  0
 12 15  1  0  0  0
 13 14  1  0  0  0
 14 17  2  0  0  0
 15 16  2  0  0  0
 16 17  1  0  0  0
 17 18  1  0  0  0
  4 11  1  0  0  0
 18 19  1  0  0  0
M  END
> <minimizedAffinity>
-10.43686

$$$$
2E2R_2OH_A_1401


 19 20  0  0  0  0  0  0  0  0999 V2000
  -16.6542   -3.0289  -27.3708 C   0  0  0  0  0  0  0  0  0  0  0  0
  -18.0083   -2.6945  -26.7418 C   0  0  0  0  0  0  0  0  0  0  0  0
  -15.6418   -2.1353  -26.6618 C   0  0  0  0  0  0  0  0  0  0  0  0
  -14.8160   -8.3371  -26.3736 O   0  0  0  0  0  0  0  0  0  0  0  0
  -15.2702   -7.0986  -26.6063 C   0  0  0  0  0  0  0  0  0  0  0  0
  -14.6335   -6.2977  -27.5496 C   0  0  0  0  0  0  0  0  0  0  0  0
  -15.0881   -4.9950  -27.7721 C   0  0  0  0  0  0  0  0  0  0  0  0
  -16.3807   -6.5835  -25.9331 C   0  0  0  0  0  0  0  0  0  0  0  0
  -16.8410   -5.2811  -26.1694 C   0  0  0  0  0  0  0  0  0  0  0  0
  -16.2013   -4.4567  -27.1071 C   0  0  0  0  0  0  0  0  0  0  0  0
  -14.0688   -8.6573  -26.8395 H   0  0  0  0  0  0  0  0  0  0  0  0
  -16.7280   -2.7723  -28.8632 C   0  0  0  0  0  0  0  0  0  0  0  0
  -17.8803   -3.1494  -29.5448 C   0  0  0  0  0  0  0  0  0  0  0  0
  -18.0082   -2.9514  -30.9079 C   0  0  0  0  0  0  0  0  0  0  0  0
  -15.6874   -2.1952  -29.5937 C   0  0  0  0  0  0  0  0  0  0  0  0
  -15.8311   -1.9955  -30.9753 C   0  0  0  0  0  0  0  0  0  0  0  0
  -16.9824   -2.3753  -31.6349 C   0  0  0  0  0  0  0  0  0  0  0  0
  -17.1263   -2.1891  -32.9616 O   0  0  0  0  0  0  0  0  0  0  0  0
  -17.9168   -2.4547  -33.3889 H   0  0  0  0  0  0  0  0  0  0  0  0
  4  5  1  0  0  0
  5  6  1  0  0  0
  5  8  2  0  0  0
  6  7  2  0  0  0
  7 10  1  0  0  0
  8  9  1  0  0  0
  9 10  2  0  0  0
 10  1  1  0  0  0
  1 12  1  0  0  0
  1  2  1  0  0  0
  1  3  1  0  0  0
 12 13  2  0  0  0
 12 15  1  0  0  0
 13 14  1  0  0  0
 14 17  2  0  0  0
 15 16  2  0  0  0
 16 17  1  0  0  0
 17 18  1  0  0  0
  4 11  1  0  0  0
 18 19  1  0  0  0
M  END
> <minimizedAffinity>
-10.39773

$$$$
2E2R_2OH_A_1401


 19 20  0  0  0  0  0  0  0  0999 V2000
  -16.5903   -3.0309  -27.3612 C   0  0  0  0  0  0  0  0  0  0  0  0
  -17.9278   -2.7615  -26.6688 C   0  0  0  0  0  0  0  0  0  0  0  0
  -15.6004   -2.0556  -26.7328 C   0  0  0  0  0  0  0  0  0  0  0  0
  -14.6444   -8.2875  -26.2970 O   0  0  0  0  0  0  0  0  0  0  0  0
  -15.0792   -7.0467  -26.5533 C   0  0  0  0  0  0  0  0  0  0  0  0
  -16.0047   -6.4517  -25.7012 C   0  0  0  0  0  0  0  0  0  0  0  0
  -16.4813   -5.1687  -25.9837 C   0  0  0  0  0  0  0  0  0  0  0  0
  -14.6205   -6.3189  -27.6540 C   0  0  0  0  0  0  0  0  0  0  0  0
  -15.0915   -5.0273  -27.9257 C   0  0  0  0  0  0  0  0  0  0  0  0
  -16.0349   -4.4194  -27.0839 C   0  0  0  0  0  0  0  0  0  0  0  0
  -14.9690   -8.7530  -25.5514 H   0  0  0  0  0  0  0  0  0  0  0  0
  -16.7585   -2.8250  -28.8538 C   0  0  0  0  0  0  0  0  0  0  0  0
  -15.7100   -2.2533  -29.5668 C   0  0  0  0  0  0  0  0  0  0  0  0
  -15.8024   -2.0302  -30.9289 C   0  0  0  0  0  0  0  0  0  0  0  0
  -17.9231   -3.1609  -29.5470 C   0  0  0  0  0  0  0  0  0  0  0  0
  -18.0027   -2.9338  -30.9295 C   0  0  0  0  0  0  0  0  0  0  0  0
  -16.9518   -2.3662  -31.6209 C   0  0  0  0  0  0  0  0  0  0  0  0
  -17.0222   -2.1427  -32.9478 O   0  0  0  0  0  0  0  0  0  0  0  0
  -16.2964   -1.7561  -33.3969 H   0  0  0  0  0  0  0  0  0  0  0  0
  4  5  1  0  0  0
  5  6  1  0  0  0
  5  8  2  0  0  0
  6  7  2  0  0  0
  7 10  1  0  0  0
  8  9  1  0  0  0
  9 10  2  0  0  0
 10  1  1  0  0  0
  1 12  1  0  0  0
  1  2  1  0  0  0
  1  3  1  0  0  0
 12 13  2  0  0  0
 12 15  1  0  0  0
 13 14  1  0  0  0
 14 17  2  0  0  0
 15 16  2  0  0  0
 16 17  1  0  0  0
 17 18  1  0  0  0
  4 11  1  0  0  0
 18 19  1  0  0  0
M  END
> <minimizedAffinity>
-10.37125

$$$$
2E2R_2OH_A_1401


 19 20  0  0  0  0  0  0  0  0999 V2000
  -16.6460   -3.0129  -27.3378 C   0  0  0  0  0  0  0  0  0  0  0  0
  -15.6257   -2.1129  -26.6378 C   0  0  0  0  0  0  0  0  0  0  0  0
  -18.0066   -2.5879  -26.7954 C   0  0  0  0  0  0  0  0  0  0  0  0
  -17.0331   -2.1314  -32.9612 O   0  0  0  0  0  0  0  0  0  0  0  0
  -16.9197   -2.3457  -31.6439 C   0  0  0  0  0  0  0  0  0  0  0  0
  -17.9839   -2.9052  -30.9431 C   0  0  0  0  0  0  0  0  0  0  0  0
  -17.8778   -3.1020  -29.5636 C   0  0  0  0  0  0  0  0  0  0  0  0
  -15.7511   -2.0324  -30.9453 C   0  0  0  0  0  0  0  0  0  0  0  0
  -15.6447   -2.2440  -29.5641 C   0  0  0  0  0  0  0  0  0  0  0  0
  -16.7138   -2.7942  -28.8414 C   0  0  0  0  0  0  0  0  0  0  0  0
  -17.8288   -2.3510  -33.4048 H   0  0  0  0  0  0  0  0  0  0  0  0
  -16.3139   -4.4610  -27.0358 C   0  0  0  0  0  0  0  0  0  0  0  0
  -15.1457   -4.9981  -27.5664 C   0  0  0  0  0  0  0  0  0  0  0  0
  -14.7890   -6.3147  -27.3362 C   0  0  0  0  0  0  0  0  0  0  0  0
  -17.1335   -5.2910  -26.2683 C   0  0  0  0  0  0  0  0  0  0  0  0
  -16.7582   -6.6235  -26.0383 C   0  0  0  0  0  0  0  0  0  0  0  0
  -15.5948   -7.1392  -26.5722 C   0  0  0  0  0  0  0  0  0  0  0  0
  -15.2294   -8.4183  -26.3578 O   0  0  0  0  0  0  0  0  0  0  0  0
  -14.4351   -8.7474  -26.7302 H   0  0  0  0  0  0  0  0  0  0  0  0
  4  5  1  0  0  0
  5  6  1  0  0  0
  5  8  2  0  0  0
  6  7  2  0  0  0
  7 10  1  0  0  0
  8  9  1  0  0  0
  9 10  2  0  0  0
 10  1  1  0  0  0
  1 12  1  0  0  0
  1  2  1  0  0  0
  1  3  1  0  0  0
 12 13  2  0  0  0
 12 15  1  0  0  0
 13 14  1  0  0  0
 14 17  2  0  0  0
 15 16  2  0  0  0
 16 17  1  0  0  0
 17 18  1  0  0  0
  4 11  1  0  0  0
 18 19  1  0  0  0
M  END
> <minimizedAffinity>
-10.35007

$$$$
2E2R_2OH_A_1401


 19 20  0  0  0  0  0  0  0  0999 V2000
  -16.6705   -2.9984  -27.3492 C   0  0  0  0  0  0  0  0  0  0  0  0
  -17.9808   -2.4924  -26.7424 C   0  0  0  0  0  0  0  0  0  0  0  0
  -15.5640   -2.2372  -26.6266 C   0  0  0  0  0  0  0  0  0  0  0  0
  -15.8110   -8.5543  -26.3782 O   0  0  0  0  0  0  0  0  0  0  0  0
  -15.9904   -7.2455  -26.5992 C   0  0  0  0  0  0  0  0  0  0  0  0
  -17.1955   -6.6462  -26.2455 C   0  0  0  0  0  0  0  0  0  0  0  0
  -17.3949   -5.2870  -26.5025 C   0  0  0  0  0  0  0  0  0  0  0  0
  -14.9920   -6.4520  -27.1696 C   0  0  0  0  0  0  0  0  0  0  0  0
  -15.1919   -5.0864  -27.4132 C   0  0  0  0  0  0  0  0  0  0  0  0
  -16.4063   -4.4709  -27.0750 C   0  0  0  0  0  0  0  0  0  0  0  0
  -16.4978   -9.0630  -25.9941 H   0  0  0  0  0  0  0  0  0  0  0  0
  -16.6884   -2.7411  -28.8432 C   0  0  0  0  0  0  0  0  0  0  0  0
  -17.8430   -3.0484  -29.5553 C   0  0  0  0  0  0  0  0  0  0  0  0
  -17.9219   -2.8461  -30.9215 C   0  0  0  0  0  0  0  0  0  0  0  0
  -15.5952   -2.2304  -29.5458 C   0  0  0  0  0  0  0  0  0  0  0  0
  -15.6894   -2.0254  -30.9308 C   0  0  0  0  0  0  0  0  0  0  0  0
  -16.8436   -2.3355  -31.6210 C   0  0  0  0  0  0  0  0  0  0  0  0
  -16.9403   -2.1438  -32.9512 O   0  0  0  0  0  0  0  0  0  0  0  0
  -17.7338   -2.3614  -33.3994 H   0  0  0  0  0  0  0  0  0  0  0  0
  4  5  1  0  0  0
  5  6  1  0  0  0
  5  8  2  0  0  0
  6  7  2  0  0  0
  7 10  1  0  0  0
  8  9  1  0  0  0
  9 10  2  0  0  0
 10  1  1  0  0  0
  1 12  1  0  0  0
  1  2  1  0  0  0
  1  3  1  0  0  0
 12 13  2  0  0  0
 12 15  1  0  0  0
 13 14  1  0  0  0
 14 17  2  0  0  0
 15 16  2  0  0  0
 16 17  1  0  0  0
 17 18  1  0  0  0
  4 11  1  0  0  0
 18 19  1  0  0  0
M  END
> <minimizedAffinity>
-10.26544

$$$$
