1Q7A_OPB_A_124


 25 27  0  0  0  0  0  0  0  0999 V2000
    7.6163   22.4936   -7.5251 N   0  0  0  0  0  0  0  0  0  0  0  0
    6.7553   21.9113   -6.6164 C   0  0  0  0  0  0  0  0  0  0  0  0
    7.3988   21.8389   -5.2072 C   0  0  0  0  0  0  0  0  0  0  0  0
    8.7192   22.4529   -5.4925 C   0  0  0  0  0  0  0  0  0  0  0  0
    8.8284   22.8269   -6.8045 N   0  0  0  0  0  0  0  0  0  0  0  0
    5.5891   21.4741   -6.8371 O   0  0  0  0  0  0  0  0  0  0  0  0
    9.5804   22.5828   -4.6006 O   0  0  0  0  0  0  0  0  0  0  0  0
   10.9569   25.7449   -8.0815 C   0  0  0  0  0  0  0  0  0  0  0  0
   12.1706   25.1665   -8.4764 C   0  0  0  0  0  0  0  0  0  0  0  0
   12.3771   23.7380   -8.3412 C   0  0  0  0  0  0  0  0  0  0  0  0
   11.3067   22.8951   -7.7899 C   0  0  0  0  0  0  0  0  0  0  0  0
   10.0347   23.5297   -7.3807 C   0  0  0  0  0  0  0  0  0  0  0  0
    9.9160   24.9434   -7.5487 C   0  0  0  0  0  0  0  0  0  0  0  0
   13.1409   25.9698   -8.9876 O   0  0  0  0  0  0  0  0  0  0  0  0
   12.9917   26.8913   -9.0684 H   0  0  0  0  0  0  0  0  0  0  0  0
    6.0146   23.9754  -10.8169 C   0  0  0  0  0  0  0  0  0  0  0  0
    6.2930   23.7197   -9.4328 C   0  0  0  0  0  0  0  0  0  0  0  0
    7.3082   22.7466   -9.0209 C   0  0  0  0  0  0  0  0  0  0  0  0
    8.0131   22.0476  -10.0931 C   0  0  0  0  0  0  0  0  0  0  0  0
    7.7131   22.3232  -11.4827 C   0  0  0  0  0  0  0  0  0  0  0  0
    6.7163   23.2927  -11.8320 C   0  0  0  0  0  0  0  0  0  0  0  0
    6.4719   22.6979   -4.3147 C   0  0  0  0  0  0  0  0  0  0  0  0
    5.3456   22.2269   -3.3691 C   0  0  0  0  0  0  0  0  0  0  0  0
    6.1626   24.6062   -2.6567 C   0  0  0  0  0  0  0  0  0  0  0  0
    5.3608   23.3920   -2.3437 C   0  0  0  0  0  0  0  0  0  0  0  0
 16 17  2  0  0  0
 16 21  1  0  0  0
 17 18  1  0  0  0
 18 19  2  0  0  0
 18  1  1  0  0  0
 19 20  1  0  0  0
 20 21  2  0  0  0
  8  9  2  0  0  0
  8 13  1  0  0  0
  9 10  1  0  0  0
  9 14  1  0  0  0
 10 11  2  0  0  0
 11 12  1  0  0  0
 12 13  2  0  0  0
 12  5  1  0  0  0
 24 25  1  0  0  0
 25 23  1  0  0  0
 23 22  1  0  0  0
 22  3  1  0  0  0
  1  2  1  0  0  0
  1  5  1  0  0  0
  2  3  1  0  0  0
  2  6  2  0  0  0
  3  4  1  0  0  0
  4  5  1  0  0  0
  4  7  2  0  0  0
 14 15  1  0  0  0
M  END
> <minimizedAffinity>
-7.62059

$$$$
1Q7A_OPB_A_124


 25 27  0  0  0  0  0  0  0  0999 V2000
    8.3598   23.9809   -6.7179 N   0  0  0  0  0  0  0  0  0  0  0  0
    7.9192   24.1805   -5.4247 C   0  0  0  0  0  0  0  0  0  0  0  0
    6.4011   23.8883   -5.3025 C   0  0  0  0  0  0  0  0  0  0  0  0
    6.0943   23.5153   -6.7056 C   0  0  0  0  0  0  0  0  0  0  0  0
    7.2109   23.5632   -7.4956 N   0  0  0  0  0  0  0  0  0  0  0  0
    8.6062   24.5516   -4.4297 O   0  0  0  0  0  0  0  0  0  0  0  0
    4.9388   23.2063   -7.0567 O   0  0  0  0  0  0  0  0  0  0  0  0
    6.9116   21.2997  -10.5719 C   0  0  0  0  0  0  0  0  0  0  0  0
    7.1841   22.1320  -11.6658 C   0  0  0  0  0  0  0  0  0  0  0  0
    7.4891   23.5340  -11.4588 C   0  0  0  0  0  0  0  0  0  0  0  0
    7.5143   24.0815  -10.0950 C   0  0  0  0  0  0  0  0  0  0  0  0
    7.2236   23.1823   -8.9570 C   0  0  0  0  0  0  0  0  0  0  0  0
    6.9332   21.8148   -9.2512 C   0  0  0  0  0  0  0  0  0  0  0  0
    7.1586   21.5972  -12.9153 O   0  0  0  0  0  0  0  0  0  0  0  0
    6.9597   20.6890  -13.0322 H   0  0  0  0  0  0  0  0  0  0  0  0
   12.0080   23.1575   -7.9869 C   0  0  0  0  0  0  0  0  0  0  0  0
   10.6628   23.0019   -7.5123 C   0  0  0  0  0  0  0  0  0  0  0  0
    9.8171   24.1593   -7.2088 C   0  0  0  0  0  0  0  0  0  0  0  0
   10.4192   25.4758   -7.4074 C   0  0  0  0  0  0  0  0  0  0  0  0
   11.7794   25.6062   -7.8867 C   0  0  0  0  0  0  0  0  0  0  0  0
   12.5615   24.4404   -8.1781 C   0  0  0  0  0  0  0  0  0  0  0  0
    6.3129   22.7180   -4.2943 C   0  0  0  0  0  0  0  0  0  0  0  0
    5.3542   22.5561   -3.0947 C   0  0  0  0  0  0  0  0  0  0  0  0
    4.3041   20.7357   -4.6502 C   0  0  0  0  0  0  0  0  0  0  0  0
    4.1206   21.9602   -3.8244 C   0  0  0  0  0  0  0  0  0  0  0  0
 16 17  2  0  0  0
 16 21  1  0  0  0
 17 18  1  0  0  0
 18 19  2  0  0  0
 18  1  1  0  0  0
 19 20  1  0  0  0
 20 21  2  0  0  0
  8  9  2  0  0  0
  8 13  1  0  0  0
  9 10  1  0  0  0
  9 14  1  0  0  0
 10 11  2  0  0  0
 11 12  1  0  0  0
 12 13  2  0  0  0
 12  5  1  0  0  0
 24 25  1  0  0  0
 25 23  1  0  0  0
 23 22  1  0  0  0
 22  3  1  0  0  0
  1  2  1  0  0  0
  1  5  1  0  0  0
  2  3  1  0  0  0
  2  6  2  0  0  0
  3  4  1  0  0  0
  4  5  1  0  0  0
  4  7  2  0  0  0
 14 15  1  0  0  0
M  END
> <minimizedAffinity>
-7.57736

$$$$
1Q7A_OPB_A_124


 25 27  0  0  0  0  0  0  0  0999 V2000
    6.4540   23.3155   -5.9621 N   0  0  0  0  0  0  0  0  0  0  0  0
    5.2766   22.5943   -5.9640 C   0  0  0  0  0  0  0  0  0  0  0  0
    5.1726   21.7016   -7.2279 C   0  0  0  0  0  0  0  0  0  0  0  0
    6.4483   22.0525   -7.8997 C   0  0  0  0  0  0  0  0  0  0  0  0
    7.1689   22.9598   -7.1711 N   0  0  0  0  0  0  0  0  0  0  0  0
    4.3648   22.6132   -5.0875 O   0  0  0  0  0  0  0  0  0  0  0  0
    6.7656   21.5466   -8.9939 O   0  0  0  0  0  0  0  0  0  0  0  0
   10.9843   23.2975   -7.1003 C   0  0  0  0  0  0  0  0  0  0  0  0
   11.2860   24.2409   -8.0915 C   0  0  0  0  0  0  0  0  0  0  0  0
   10.2248   24.8429   -8.8743 C   0  0  0  0  0  0  0  0  0  0  0  0
    8.8274   24.4622   -8.6235 C   0  0  0  0  0  0  0  0  0  0  0  0
    8.5349   23.4645   -7.5714 C   0  0  0  0  0  0  0  0  0  0  0  0
    9.6407   22.9218   -6.8478 C   0  0  0  0  0  0  0  0  0  0  0  0
   12.5868   24.5775   -8.2980 O   0  0  0  0  0  0  0  0  0  0  0  0
   13.2611   24.1792   -7.7835 H   0  0  0  0  0  0  0  0  0  0  0  0
    6.9585   24.9781   -2.4154 C   0  0  0  0  0  0  0  0  0  0  0  0
    6.5280   24.0854   -3.4530 C   0  0  0  0  0  0  0  0  0  0  0  0
    6.9056   24.2965   -4.8530 C   0  0  0  0  0  0  0  0  0  0  0  0
    7.7347   25.4663   -5.1345 C   0  0  0  0  0  0  0  0  0  0  0  0
    8.1555   26.3526   -4.0695 C   0  0  0  0  0  0  0  0  0  0  0  0
    7.7659   26.0951   -2.7140 C   0  0  0  0  0  0  0  0  0  0  0  0
    5.1146   20.2571   -6.6768 C   0  0  0  0  0  0  0  0  0  0  0  0
    5.7997   19.6831   -5.4176 C   0  0  0  0  0  0  0  0  0  0  0  0
    5.0902   17.5879   -6.8116 C   0  0  0  0  0  0  0  0  0  0  0  0
    5.2775   18.2227   -5.4785 C   0  0  0  0  0  0  0  0  0  0  0  0
 16 17  2  0  0  0
 16 21  1  0  0  0
 17 18  1  0  0  0
 18 19  2  0  0  0
 18  1  1  0  0  0
 19 20  1  0  0  0
 20 21  2  0  0  0
  8  9  2  0  0  0
  8 13  1  0  0  0
  9 10  1  0  0  0
  9 14  1  0  0  0
 10 11  2  0  0  0
 11 12  1  0  0  0
 12 13  2  0  0  0
 12  5  1  0  0  0
 24 25  1  0  0  0
 25 23  1  0  0  0
 23 22  1  0  0  0
 22  3  1  0  0  0
  1  2  1  0  0  0
  1  5  1  0  0  0
  2  3  1  0  0  0
  2  6  2  0  0  0
  3  4  1  0  0  0
  4  5  1  0  0  0
  4  7  2  0  0  0
 14 15  1  0  0  0
M  END
> <minimizedAffinity>
-7.14646

$$$$
1Q7A_OPB_A_124


 25 27  0  0  0  0  0  0  0  0999 V2000
    8.0858   22.4221   -6.3667 N   0  0  0  0  0  0  0  0  0  0  0  0
    9.4196   22.7291   -6.1849 C   0  0  0  0  0  0  0  0  0  0  0  0
   10.1231   22.9812   -7.5438 C   0  0  0  0  0  0  0  0  0  0  0  0
    8.9859   22.7585   -8.4706 C   0  0  0  0  0  0  0  0  0  0  0  0
    7.8367   22.4509   -7.7938 N   0  0  0  0  0  0  0  0  0  0  0  0
   10.0450   22.8091   -5.0884 O   0  0  0  0  0  0  0  0  0  0  0  0
    9.1270   22.8551   -9.7054 O   0  0  0  0  0  0  0  0  0  0  0  0
    4.4895   23.3584   -9.4213 C   0  0  0  0  0  0  0  0  0  0  0  0
    3.8950   22.1310   -9.7429 C   0  0  0  0  0  0  0  0  0  0  0  0
    4.5766   20.8878   -9.4411 C   0  0  0  0  0  0  0  0  0  0  0  0
    5.8954   20.9177   -8.7928 C   0  0  0  0  0  0  0  0  0  0  0  0
    6.5016   22.2261   -8.4630 C   0  0  0  0  0  0  0  0  0  0  0  0
    5.7609   23.4016   -8.7954 C   0  0  0  0  0  0  0  0  0  0  0  0
    2.6724   22.1338  -10.3374 O   0  0  0  0  0  0  0  0  0  0  0  0
    2.2449   22.9460  -10.5259 H   0  0  0  0  0  0  0  0  0  0  0  0
    5.5099   22.9476   -3.4195 C   0  0  0  0  0  0  0  0  0  0  0  0
    6.4681   23.2102   -4.4547 C   0  0  0  0  0  0  0  0  0  0  0  0
    7.0691   22.1269   -5.2374 C   0  0  0  0  0  0  0  0  0  0  0  0
    6.6467   20.7690   -4.9014 C   0  0  0  0  0  0  0  0  0  0  0  0
    5.6784   20.5303   -3.8514 C   0  0  0  0  0  0  0  0  0  0  0  0
    5.1133   21.6274   -3.1217 C   0  0  0  0  0  0  0  0  0  0  0  0
   10.6057   24.4489   -7.4624 C   0  0  0  0  0  0  0  0  0  0  0  0
   11.3132   25.2871   -8.5492 C   0  0  0  0  0  0  0  0  0  0  0  0
   12.4627   23.8369  -10.3964 C   0  0  0  0  0  0  0  0  0  0  0  0
   12.4166   24.2828   -8.9771 C   0  0  0  0  0  0  0  0  0  0  0  0
 16 17  2  0  0  0
 16 21  1  0  0  0
 17 18  1  0  0  0
 18 19  2  0  0  0
 18  1  1  0  0  0
 19 20  1  0  0  0
 20 21  2  0  0  0
  8  9  2  0  0  0
  8 13  1  0  0  0
  9 10  1  0  0  0
  9 14  1  0  0  0
 10 11  2  0  0  0
 11 12  1  0  0  0
 12 13  2  0  0  0
 12  5  1  0  0  0
 24 25  1  0  0  0
 25 23  1  0  0  0
 23 22  1  0  0  0
 22  3  1  0  0  0
  1  2  1  0  0  0
  1  5  1  0  0  0
  2  3  1  0  0  0
  2  6  2  0  0  0
  3  4  1  0  0  0
  4  5  1  0  0  0
  4  7  2  0  0  0
 14 15  1  0  0  0
M  END
> <minimizedAffinity>
-7.11585

$$$$
1Q7A_OPB_A_124


 25 27  0  0  0  0  0  0  0  0999 V2000
    8.7692   23.6598   -8.4793 N   0  0  0  0  0  0  0  0  0  0  0  0
   10.0047   23.9976   -8.9948 C   0  0  0  0  0  0  0  0  0  0  0  0
   11.0304   24.2532   -7.8600 C   0  0  0  0  0  0  0  0  0  0  0  0
   10.1711   24.0141   -6.6741 C   0  0  0  0  0  0  0  0  0  0  0  0
    8.8965   23.6711   -7.0360 N   0  0  0  0  0  0  0  0  0  0  0  0
   10.3235   24.1031  -10.2142 O   0  0  0  0  0  0  0  0  0  0  0  0
   10.6177   24.1286   -5.5159 O   0  0  0  0  0  0  0  0  0  0  0  0
    6.0201   24.2380   -4.5699 C   0  0  0  0  0  0  0  0  0  0  0  0
    5.6671   22.9587   -4.1201 C   0  0  0  0  0  0  0  0  0  0  0  0
    6.3688   21.7908   -4.6151 C   0  0  0  0  0  0  0  0  0  0  0  0
    7.4562   21.9523   -5.5909 C   0  0  0  0  0  0  0  0  0  0  0  0
    7.8101   23.3132   -6.0498 C   0  0  0  0  0  0  0  0  0  0  0  0
    7.0673   24.4079   -5.5104 C   0  0  0  0  0  0  0  0  0  0  0  0
    4.6609   22.8400   -3.2137 O   0  0  0  0  0  0  0  0  0  0  0  0
    4.2172   23.6048   -2.9035 H   0  0  0  0  0  0  0  0  0  0  0  0
    5.6895   21.6877   -9.9706 C   0  0  0  0  0  0  0  0  0  0  0  0
    6.8686   22.0054   -9.2172 C   0  0  0  0  0  0  0  0  0  0  0  0
    7.5098   23.3195   -9.3127 C   0  0  0  0  0  0  0  0  0  0  0  0
    6.8896   24.2823  -10.2202 C   0  0  0  0  0  0  0  0  0  0  0  0
    5.7000   23.9369  -10.9702 C   0  0  0  0  0  0  0  0  0  0  0  0
    5.1063   22.6391  -10.8328 C   0  0  0  0  0  0  0  0  0  0  0  0
   12.1271   23.1849   -8.0827 C   0  0  0  0  0  0  0  0  0  0  0  0
   13.5513   23.3764   -8.6478 C   0  0  0  0  0  0  0  0  0  0  0  0
   14.9416   25.5744   -8.3793 C   0  0  0  0  0  0  0  0  0  0  0  0
   13.6280   24.9267   -8.6439 C   0  0  0  0  0  0  0  0  0  0  0  0
 16 17  2  0  0  0
 16 21  1  0  0  0
 17 18  1  0  0  0
 18 19  2  0  0  0
 18  1  1  0  0  0
 19 20  1  0  0  0
 20 21  2  0  0  0
  8  9  2  0  0  0
  8 13  1  0  0  0
  9 10  1  0  0  0
  9 14  1  0  0  0
 10 11  2  0  0  0
 11 12  1  0  0  0
 12 13  2  0  0  0
 12  5  1  0  0  0
 24 25  1  0  0  0
 25 23  1  0  0  0
 23 22  1  0  0  0
 22  3  1  0  0  0
  1  2  1  0  0  0
  1  5  1  0  0  0
  2  3  1  0  0  0
  2  6  2  0  0  0
  3  4  1  0  0  0
  4  5  1  0  0  0
  4  7  2  0  0  0
 14 15  1  0  0  0
M  END
> <minimizedAffinity>
-7.07292

$$$$
1Q7A_OPB_A_124


 25 27  0  0  0  0  0  0  0  0999 V2000
   11.1910   25.4668   -7.5916 N   0  0  0  0  0  0  0  0  0  0  0  0
   10.0284   25.3990   -6.8499 C   0  0  0  0  0  0  0  0  0  0  0  0
    9.3855   23.9912   -6.9500 C   0  0  0  0  0  0  0  0  0  0  0  0
   10.3583   23.3246   -7.8506 C   0  0  0  0  0  0  0  0  0  0  0  0
   11.3797   24.1657   -8.2007 N   0  0  0  0  0  0  0  0  0  0  0  0
    9.5035   26.3214   -6.1618 O   0  0  0  0  0  0  0  0  0  0  0  0
   10.2054   22.1399   -8.2074 O   0  0  0  0  0  0  0  0  0  0  0  0
   14.8769   22.8414   -9.0324 C   0  0  0  0  0  0  0  0  0  0  0  0
   14.9656   22.8963  -10.4298 C   0  0  0  0  0  0  0  0  0  0  0  0
   13.8477   23.3825  -11.2142 C   0  0  0  0  0  0  0  0  0  0  0  0
   12.6184   23.8214  -10.5383 C   0  0  0  0  0  0  0  0  0  0  0  0
   12.5498   23.7540   -9.0622 C   0  0  0  0  0  0  0  0  0  0  0  0
   13.6974   23.2621   -8.3679 C   0  0  0  0  0  0  0  0  0  0  0  0
   16.1166   22.4887  -11.0274 O   0  0  0  0  0  0  0  0  0  0  0  0
   16.8301   22.1770  -10.5061 H   0  0  0  0  0  0  0  0  0  0  0  0
   14.3229   27.8509   -7.2684 C   0  0  0  0  0  0  0  0  0  0  0  0
   13.4580   26.7128   -7.1429 C   0  0  0  0  0  0  0  0  0  0  0  0
   12.1085   26.7076   -7.7137 C   0  0  0  0  0  0  0  0  0  0  0  0
   11.6904   27.9234   -8.4081 C   0  0  0  0  0  0  0  0  0  0  0  0
   12.5820   29.0589   -8.5204 C   0  0  0  0  0  0  0  0  0  0  0  0
   13.8971   29.0087   -7.9516 C   0  0  0  0  0  0  0  0  0  0  0  0
    9.3897   23.4606   -5.4967 C   0  0  0  0  0  0  0  0  0  0  0  0
    8.9728   22.0648   -4.9844 C   0  0  0  0  0  0  0  0  0  0  0  0
    6.5282   21.1373   -4.9963 C   0  0  0  0  0  0  0  0  0  0  0  0
    7.5863   21.9378   -5.6706 C   0  0  0  0  0  0  0  0  0  0  0  0
 16 17  2  0  0  0
 16 21  1  0  0  0
 17 18  1  0  0  0
 18 19  2  0  0  0
 18  1  1  0  0  0
 19 20  1  0  0  0
 20 21  2  0  0  0
  8  9  2  0  0  0
  8 13  1  0  0  0
  9 10  1  0  0  0
  9 14  1  0  0  0
 10 11  2  0  0  0
 11 12  1  0  0  0
 12 13  2  0  0  0
 12  5  1  0  0  0
 24 25  1  0  0  0
 25 23  1  0  0  0
 23 22  1  0  0  0
 22  3  1  0  0  0
  1  2  1  0  0  0
  1  5  1  0  0  0
  2  3  1  0  0  0
  2  6  2  0  0  0
  3  4  1  0  0  0
  4  5  1  0  0  0
  4  7  2  0  0  0
 14 15  1  0  0  0
M  END
> <minimizedAffinity>
-6.96892

$$$$
1Q7A_OPB_A_124


 25 27  0  0  0  0  0  0  0  0999 V2000
    7.4562   23.1195   -7.7322 N   0  0  0  0  0  0  0  0  0  0  0  0
    6.6487   22.4149   -8.6027 C   0  0  0  0  0  0  0  0  0  0  0  0
    5.2268   22.2257   -8.0134 C   0  0  0  0  0  0  0  0  0  0  0  0
    5.3911   22.9168   -6.7107 C   0  0  0  0  0  0  0  0  0  0  0  0
    6.6534   23.4256   -6.5656 N   0  0  0  0  0  0  0  0  0  0  0  0
    6.9630   21.9569   -9.7390 O   0  0  0  0  0  0  0  0  0  0  0  0
    4.4536   22.9896   -5.8923 O   0  0  0  0  0  0  0  0  0  0  0  0
    6.9421   24.4428   -2.8835 C   0  0  0  0  0  0  0  0  0  0  0  0
    7.7727   25.5714   -2.8802 C   0  0  0  0  0  0  0  0  0  0  0  0
    8.3119   26.0851   -4.1239 C   0  0  0  0  0  0  0  0  0  0  0  0
    7.9824   25.4191   -5.3921 C   0  0  0  0  0  0  0  0  0  0  0  0
    7.1031   24.2299   -5.3690 C   0  0  0  0  0  0  0  0  0  0  0  0
    6.6158   23.7914   -4.0996 C   0  0  0  0  0  0  0  0  0  0  0  0
    8.0564   26.1697   -1.6930 O   0  0  0  0  0  0  0  0  0  0  0  0
    7.6999   25.8253   -0.8978 H   0  0  0  0  0  0  0  0  0  0  0  0
   11.4005   23.1788   -7.5394 C   0  0  0  0  0  0  0  0  0  0  0  0
   10.0291   22.8372   -7.2913 C   0  0  0  0  0  0  0  0  0  0  0  0
    8.9316   23.5103   -7.9911 C   0  0  0  0  0  0  0  0  0  0  0  0
    9.3087   24.5502   -8.9458 C   0  0  0  0  0  0  0  0  0  0  0  0
   10.7002   24.8769   -9.1777 C   0  0  0  0  0  0  0  0  0  0  0  0
   11.7367   24.1808   -8.4730 C   0  0  0  0  0  0  0  0  0  0  0  0
    4.2950   22.9529   -9.0118 C   0  0  0  0  0  0  0  0  0  0  0  0
    3.4609   22.3463  -10.1610 C   0  0  0  0  0  0  0  0  0  0  0  0
    4.6737   24.4739  -11.0770 C   0  0  0  0  0  0  0  0  0  0  0  0
    4.0270   23.1623  -11.3539 C   0  0  0  0  0  0  0  0  0  0  0  0
 16 17  2  0  0  0
 16 21  1  0  0  0
 17 18  1  0  0  0
 18 19  2  0  0  0
 18  1  1  0  0  0
 19 20  1  0  0  0
 20 21  2  0  0  0
  8  9  2  0  0  0
  8 13  1  0  0  0
  9 10  1  0  0  0
  9 14  1  0  0  0
 10 11  2  0  0  0
 11 12  1  0  0  0
 12 13  2  0  0  0
 12  5  1  0  0  0
 24 25  1  0  0  0
 25 23  1  0  0  0
 23 22  1  0  0  0
 22  3  1  0  0  0
  1  2  1  0  0  0
  1  5  1  0  0  0
  2  3  1  0  0  0
  2  6  2  0  0  0
  3  4  1  0  0  0
  4  5  1  0  0  0
  4  7  2  0  0  0
 14 15  1  0  0  0
M  END
> <minimizedAffinity>
-6.58649

$$$$
1Q7A_OPB_A_124


 25 27  0  0  0  0  0  0  0  0999 V2000
    8.1136   22.1038   -6.0942 N   0  0  0  0  0  0  0  0  0  0  0  0
    9.4321   22.4226   -5.8367 C   0  0  0  0  0  0  0  0  0  0  0  0
   10.1503   22.9033   -7.1243 C   0  0  0  0  0  0  0  0  0  0  0  0
    9.0385   22.7887   -8.1004 C   0  0  0  0  0  0  0  0  0  0  0  0
    7.8892   22.3434   -7.5054 N   0  0  0  0  0  0  0  0  0  0  0  0
   10.0345   22.3535   -4.7267 O   0  0  0  0  0  0  0  0  0  0  0  0
    9.1982   23.0784   -9.3023 O   0  0  0  0  0  0  0  0  0  0  0  0
    4.5954   23.3972   -9.1537 C   0  0  0  0  0  0  0  0  0  0  0  0
    4.0093   22.2033   -9.5949 C   0  0  0  0  0  0  0  0  0  0  0  0
    4.6795   20.9364   -9.3771 C   0  0  0  0  0  0  0  0  0  0  0  0
    5.9776   20.9068   -8.6883 C   0  0  0  0  0  0  0  0  0  0  0  0
    6.5752   22.1806   -8.2319 C   0  0  0  0  0  0  0  0  0  0  0  0
    5.8468   23.3828   -8.4875 C   0  0  0  0  0  0  0  0  0  0  0  0
    2.8058   22.2606  -10.2245 O   0  0  0  0  0  0  0  0  0  0  0  0
    2.3856   23.0874  -10.3575 H   0  0  0  0  0  0  0  0  0  0  0  0
    5.3285   22.0953   -3.2941 C   0  0  0  0  0  0  0  0  0  0  0  0
    6.2956   22.5478   -4.2526 C   0  0  0  0  0  0  0  0  0  0  0  0
    7.0881   21.6055   -5.0471 C   0  0  0  0  0  0  0  0  0  0  0  0
    6.8462   20.1850   -4.8046 C   0  0  0  0  0  0  0  0  0  0  0  0
    5.8649   19.7539   -3.8309 C   0  0  0  0  0  0  0  0  0  0  0  0
    5.1088   20.7178   -3.0863 C   0  0  0  0  0  0  0  0  0  0  0  0
   10.5785   24.3561   -6.8083 C   0  0  0  0  0  0  0  0  0  0  0  0
    9.6967   25.6218   -6.7382 C   0  0  0  0  0  0  0  0  0  0  0  0
    8.0204   26.3009   -4.8501 C   0  0  0  0  0  0  0  0  0  0  0  0
    9.2257   25.5309   -5.2620 C   0  0  0  0  0  0  0  0  0  0  0  0
 16 17  2  0  0  0
 16 21  1  0  0  0
 17 18  1  0  0  0
 18 19  2  0  0  0
 18  1  1  0  0  0
 19 20  1  0  0  0
 20 21  2  0  0  0
  8  9  2  0  0  0
  8 13  1  0  0  0
  9 10  1  0  0  0
  9 14  1  0  0  0
 10 11  2  0  0  0
 11 12  1  0  0  0
 12 13  2  0  0  0
 12  5  1  0  0  0
 24 25  1  0  0  0
 25 23  1  0  0  0
 23 22  1  0  0  0
 22  3  1  0  0  0
  1  2  1  0  0  0
  1  5  1  0  0  0
  2  3  1  0  0  0
  2  6  2  0  0  0
  3  4  1  0  0  0
  4  5  1  0  0  0
  4  7  2  0  0  0
 14 15  1  0  0  0
M  END
> <minimizedAffinity>
-6.53902

$$$$
1Q7A_OPB_A_124


 25 27  0  0  0  0  0  0  0  0999 V2000
    9.5470   24.7095   -6.5733 N   0  0  0  0  0  0  0  0  0  0  0  0
   10.8386   25.1619   -6.3904 C   0  0  0  0  0  0  0  0  0  0  0  0
   11.6793   24.9824   -7.6812 C   0  0  0  0  0  0  0  0  0  0  0  0
   10.6629   24.3667   -8.5699 C   0  0  0  0  0  0  0  0  0  0  0  0
    9.4584   24.2245   -7.9357 N   0  0  0  0  0  0  0  0  0  0  0  0
   11.3334   25.6635   -5.3400 O   0  0  0  0  0  0  0  0  0  0  0  0
   10.9376   24.0415   -9.7415 O   0  0  0  0  0  0  0  0  0  0  0  0
    6.5901   21.7828   -8.6331 C   0  0  0  0  0  0  0  0  0  0  0  0
    5.8630   22.3630   -9.6811 C   0  0  0  0  0  0  0  0  0  0  0  0
    6.2771   23.6342  -10.2413 C   0  0  0  0  0  0  0  0  0  0  0  0
    7.4661   24.3138   -9.7078 C   0  0  0  0  0  0  0  0  0  0  0  0
    8.2169   23.6806   -8.6017 C   0  0  0  0  0  0  0  0  0  0  0  0
    7.7391   22.4273   -8.1096 C   0  0  0  0  0  0  0  0  0  0  0  0
    4.7704   21.7094  -10.1578 O   0  0  0  0  0  0  0  0  0  0  0  0
    4.5159   20.8884   -9.7848 H   0  0  0  0  0  0  0  0  0  0  0  0
    6.8983   26.0574   -3.9723 C   0  0  0  0  0  0  0  0  0  0  0  0
    7.9533   26.0128   -4.9438 C   0  0  0  0  0  0  0  0  0  0  0  0
    8.4227   24.7454   -5.5097 C   0  0  0  0  0  0  0  0  0  0  0  0
    7.7655   23.5332   -5.0261 C   0  0  0  0  0  0  0  0  0  0  0  0
    6.7034   23.6049   -4.0445 C   0  0  0  0  0  0  0  0  0  0  0  0
    6.2750   24.8725   -3.5294 C   0  0  0  0  0  0  0  0  0  0  0  0
   12.0904   26.4204   -8.0774 C   0  0  0  0  0  0  0  0  0  0  0  0
   13.2949   26.8722   -8.9314 C   0  0  0  0  0  0  0  0  0  0  0  0
   14.0963   29.0342   -7.6985 C   0  0  0  0  0  0  0  0  0  0  0  0
   13.2081   28.4068   -8.7147 C   0  0  0  0  0  0  0  0  0  0  0  0
 16 17  2  0  0  0
 16 21  1  0  0  0
 17 18  1  0  0  0
 18 19  2  0  0  0
 18  1  1  0  0  0
 19 20  1  0  0  0
 20 21  2  0  0  0
  8  9  2  0  0  0
  8 13  1  0  0  0
  9 10  1  0  0  0
  9 14  1  0  0  0
 10 11  2  0  0  0
 11 12  1  0  0  0
 12 13  2  0  0  0
 12  5  1  0  0  0
 24 25  1  0  0  0
 25 23  1  0  0  0
 23 22  1  0  0  0
 22  3  1  0  0  0
  1  2  1  0  0  0
  1  5  1  0  0  0
  2  3  1  0  0  0
  2  6  2  0  0  0
  3  4  1  0  0  0
  4  5  1  0  0  0
  4  7  2  0  0  0
 14 15  1  0  0  0
M  END
> <minimizedAffinity>
-6.52172

$$$$
1Q7A_OPB_A_124


 25 27  0  0  0  0  0  0  0  0999 V2000
    6.2732   21.4523   -6.0741 N   0  0  0  0  0  0  0  0  0  0  0  0
    6.2861   21.6699   -4.7107 C   0  0  0  0  0  0  0  0  0  0  0  0
    6.9291   23.0398   -4.3716 C   0  0  0  0  0  0  0  0  0  0  0  0
    7.2629   23.5153   -5.7370 C   0  0  0  0  0  0  0  0  0  0  0  0
    6.8802   22.6134   -6.6927 N   0  0  0  0  0  0  0  0  0  0  0  0
    5.8510   20.8988   -3.8074 O   0  0  0  0  0  0  0  0  0  0  0  0
    7.8240   24.6130   -5.9224 O   0  0  0  0  0  0  0  0  0  0  0  0
    8.5322   22.4771  -10.1464 C   0  0  0  0  0  0  0  0  0  0  0  0
    7.6422   23.1381  -11.0034 C   0  0  0  0  0  0  0  0  0  0  0  0
    6.4022   23.6847  -10.4886 C   0  0  0  0  0  0  0  0  0  0  0  0
    6.0809   23.5457   -9.0611 C   0  0  0  0  0  0  0  0  0  0  0  0
    7.0370   22.8440   -8.1770 C   0  0  0  0  0  0  0  0  0  0  0  0
    8.2348   22.3365   -8.7674 C   0  0  0  0  0  0  0  0  0  0  0  0
    7.9680   23.2561  -12.3180 O   0  0  0  0  0  0  0  0  0  0  0  0
    8.7734   22.8973  -12.6351 H   0  0  0  0  0  0  0  0  0  0  0  0
    4.7700   19.0846   -8.8547 C   0  0  0  0  0  0  0  0  0  0  0  0
    5.2888   20.2438   -8.1869 C   0  0  0  0  0  0  0  0  0  0  0  0
    5.6944   20.2018   -6.7795 C   0  0  0  0  0  0  0  0  0  0  0  0
    5.5345   18.9215   -6.0937 C   0  0  0  0  0  0  0  0  0  0  0  0
    5.0077   17.7662   -6.7899 C   0  0  0  0  0  0  0  0  0  0  0  0
    4.6343   17.8586   -8.1710 C   0  0  0  0  0  0  0  0  0  0  0  0
    5.7996   23.8346   -3.6744 C   0  0  0  0  0  0  0  0  0  0  0  0
    5.8876   24.7167   -2.4101 C   0  0  0  0  0  0  0  0  0  0  0  0
    7.8424   26.3486   -3.0033 C   0  0  0  0  0  0  0  0  0  0  0  0
    7.4039   25.0482   -2.4274 C   0  0  0  0  0  0  0  0  0  0  0  0
 16 17  2  0  0  0
 16 21  1  0  0  0
 17 18  1  0  0  0
 18 19  2  0  0  0
 18  1  1  0  0  0
 19 20  1  0  0  0
 20 21  2  0  0  0
  8  9  2  0  0  0
  8 13  1  0  0  0
  9 10  1  0  0  0
  9 14  1  0  0  0
 10 11  2  0  0  0
 11 12  1  0  0  0
 12 13  2  0  0  0
 12  5  1  0  0  0
 24 25  1  0  0  0
 25 23  1  0  0  0
 23 22  1  0  0  0
 22  3  1  0  0  0
  1  2  1  0  0  0
  1  5  1  0  0  0
  2  3  1  0  0  0
  2  6  2  0  0  0
  3  4  1  0  0  0
  4  5  1  0  0  0
  4  7  2  0  0  0
 14 15  1  0  0  0
M  END
> <minimizedAffinity>
-6.43452

$$$$
