3LJO_11U_A_501


 33 35  0  0  0  0  0  0  0  0999 V2000
   16.3880   -6.7160   13.2380 C   0  0  0  0  0  0  0  0  0  0  0  0
   17.0089   -6.4321   14.2457 O   0  0  0  0  0  0  0  0  0  0  0  0
   16.1583   -5.8772   12.1973 N   0  0  0  0  0  0  0  0  0  0  0  0
   15.6621   -6.1986   11.4100 H   0  0  0  0  0  0  0  0  0  0  0  0
   17.8880   -8.9345   12.1900 C   0  0  0  0  0  0  0  0  0  0  0  0
   17.7729   -8.1243   11.2636 O   0  0  0  0  0  0  0  0  0  0  0  0
   16.8665   -9.0760   13.0648 N   0  0  0  0  0  0  0  0  0  0  0  0
   15.7659   -8.1011   13.0605 C   0  0  0  0  0  0  0  0  0  0  0  0
   15.0742   -8.5083   14.4002 C   0  0  0  0  0  0  0  0  0  0  0  0
   15.4325  -10.0170   14.5323 C   0  0  0  0  0  0  0  0  0  0  0  0
   16.9328   -9.9825   14.2007 C   0  0  0  0  0  0  0  0  0  0  0  0
   19.0901   -9.8408   12.0899 C   0  0  0  0  0  0  0  0  0  0  0  0
   19.1380  -10.4749   10.7425 N   0  0  0  0  0  0  0  0  0  0  0  0
   20.1027  -10.4848   10.4115 H   0  0  0  0  0  0  0  0  0  0  0  0
   18.6223  -11.8832   10.7988 C   0  0  0  0  0  0  0  0  0  0  0  0
   19.4428  -12.7560    9.8144 C   0  0  0  0  0  0  0  0  0  0  0  0
   18.7669  -14.1250    9.6015 C   0  0  0  0  0  0  0  0  0  0  0  0
   17.2881  -13.9301    9.1403 C   0  0  0  0  0  0  0  0  0  0  0  0
   16.4892  -13.2509   10.2997 C   0  0  0  0  0  0  0  0  0  0  0  0
   17.0822  -11.8515   10.5584 C   0  0  0  0  0  0  0  0  0  0  0  0
   16.6414   -4.5043   12.2375 C   0  0  0  0  0  0  0  0  0  0  0  0
   17.2204   -4.2190   10.8385 C   0  0  0  0  0  0  0  0  0  0  0  0
   16.4042   -3.6642    9.8482 C   0  0  0  0  0  0  0  0  0  0  0  0
   16.9440   -3.4533    8.5689 C   0  0  0  0  0  0  0  0  0  0  0  0
   18.2733   -3.7873    8.2982 C   0  0  0  0  0  0  0  0  0  0  0  0
   19.0936   -4.3421    9.2854 C   0  0  0  0  0  0  0  0  0  0  0  0
   18.5467   -4.5520   10.5587 C   0  0  0  0  0  0  0  0  0  0  0  0
   18.8491   -3.5027    6.9124 C   0  0  0  0  0  0  0  0  0  0  0  0
   18.1807   -3.0593    5.9046 N   0  0  0  0  0  0  0  0  0  0  0  0
   20.3264   -3.5203    6.8771 N   0  0  0  0  0  0  0  0  0  0  0  0
   17.1967   -3.0494    5.9325 H   0  0  0  0  0  0  0  0  0  0  0  0
   20.8333   -3.8602    7.6497 H   0  0  0  0  0  0  0  0  0  0  0  0
   20.8037   -3.1922    6.0810 H   0  0  0  0  0  0  0  0  0  0  0  0
  7  5  1  0  0  0
  7 11  1  0  0  0
  7  8  1  0  0  0
  5  6  2  0  0  0
  5 12  1  0  0  0
 11 10  1  0  0  0
 10  9  1  0  0  0
  9  8  1  0  0  0
  8  1  1  0  0  0
  1  3  1  0  0  0
  1  2  2  0  0  0
  3 21  1  0  0  0
 21 22  1  0  0  0
 22 27  2  0  0  0
 22 23  1  0  0  0
 27 26  1  0  0  0
 26 25  2  0  0  0
 25 28  1  0  0  0
 25 24  1  0  0  0
 28 29  2  0  0  0
 28 30  1  0  0  0
 24 23  2  0  0  0
 12 13  1  0  0  0
 13 15  1  0  0  0
 15 20  1  0  0  0
 15 16  1  0  0  0
 20 19  1  0  0  0
 19 18  1  0  0  0
 18 17  1  0  0  0
 17 16  1  0  0  0
 13 14  1  0  0  0
  3  4  1  0  0  0
 29 31  1  0  0  0
 30 32  1  0  0  0
 30 33  1  0  0  0
M  END
> <minimizedAffinity>
-9.13676

$$$$
3LJO_11U_A_501


 33 35  0  0  0  0  0  0  0  0999 V2000
   16.3482   -6.7462   13.2381 C   0  0  0  0  0  0  0  0  0  0  0  0
   16.9069   -6.3962   14.2614 O   0  0  0  0  0  0  0  0  0  0  0  0
   16.1007   -5.9493   12.1690 N   0  0  0  0  0  0  0  0  0  0  0  0
   15.6603   -6.3229   11.3717 H   0  0  0  0  0  0  0  0  0  0  0  0
   18.0253   -8.8591   12.2414 C   0  0  0  0  0  0  0  0  0  0  0  0
   17.8634   -8.0718   11.3024 O   0  0  0  0  0  0  0  0  0  0  0  0
   17.0046   -9.0657   13.1041 N   0  0  0  0  0  0  0  0  0  0  0  0
   15.8343   -8.1763   13.0713 C   0  0  0  0  0  0  0  0  0  0  0  0
   15.1555   -8.6171   14.4070 C   0  0  0  0  0  0  0  0  0  0  0  0
   15.6238  -10.0929   14.5648 C   0  0  0  0  0  0  0  0  0  0  0  0
   17.1219   -9.9501   14.2532 C   0  0  0  0  0  0  0  0  0  0  0  0
   19.2932   -9.6739   12.1702 C   0  0  0  0  0  0  0  0  0  0  0  0
   19.3747  -10.3739   10.8576 N   0  0  0  0  0  0  0  0  0  0  0  0
   20.3479  -10.4026   10.5535 H   0  0  0  0  0  0  0  0  0  0  0  0
   18.8523  -11.7765   10.9694 C   0  0  0  0  0  0  0  0  0  0  0  0
   17.3552  -11.7862   10.5660 C   0  0  0  0  0  0  0  0  0  0  0  0
   16.6920  -13.1230   10.9527 C   0  0  0  0  0  0  0  0  0  0  0  0
   16.9052  -13.4107   12.4723 C   0  0  0  0  0  0  0  0  0  0  0  0
   18.4329  -13.6173   12.7317 C   0  0  0  0  0  0  0  0  0  0  0  0
   19.1748  -12.3073   12.3995 C   0  0  0  0  0  0  0  0  0  0  0  0
   16.4824   -4.5444   12.1937 C   0  0  0  0  0  0  0  0  0  0  0  0
   17.1748   -4.2711   10.8447 C   0  0  0  0  0  0  0  0  0  0  0  0
   18.5621   -4.4058   10.7353 C   0  0  0  0  0  0  0  0  0  0  0  0
   19.1740   -4.1097    9.5064 C   0  0  0  0  0  0  0  0  0  0  0  0
   18.4058   -3.6951    8.4155 C   0  0  0  0  0  0  0  0  0  0  0  0
   17.0181   -3.5592    8.5199 C   0  0  0  0  0  0  0  0  0  0  0  0
   16.4154   -3.8540    9.7504 C   0  0  0  0  0  0  0  0  0  0  0  0
   19.0908   -3.4263    7.0771 C   0  0  0  0  0  0  0  0  0  0  0  0
   20.3248   -3.6785    6.8077 N   0  0  0  0  0  0  0  0  0  0  0  0
   18.1451   -3.0902    5.9923 N   0  0  0  0  0  0  0  0  0  0  0  0
   20.9514   -3.9020    7.5335 H   0  0  0  0  0  0  0  0  0  0  0  0
   17.2027   -2.8981    6.2027 H   0  0  0  0  0  0  0  0  0  0  0  0
   18.4575   -3.0584    5.0592 H   0  0  0  0  0  0  0  0  0  0  0  0
  7  5  1  0  0  0
  7 11  1  0  0  0
  7  8  1  0  0  0
  5  6  2  0  0  0
  5 12  1  0  0  0
 11 10  1  0  0  0
 10  9  1  0  0  0
  9  8  1  0  0  0
  8  1  1  0  0  0
  1  3  1  0  0  0
  1  2  2  0  0  0
  3 21  1  0  0  0
 21 22  1  0  0  0
 22 27  2  0  0  0
 22 23  1  0  0  0
 27 26  1  0  0  0
 26 25  2  0  0  0
 25 28  1  0  0  0
 25 24  1  0  0  0
 28 29  2  0  0  0
 28 30  1  0  0  0
 24 23  2  0  0  0
 12 13  1  0  0  0
 13 15  1  0  0  0
 15 20  1  0  0  0
 15 16  1  0  0  0
 20 19  1  0  0  0
 19 18  1  0  0  0
 18 17  1  0  0  0
 17 16  1  0  0  0
 13 14  1  0  0  0
  3  4  1  0  0  0
 29 31  1  0  0  0
 30 32  1  0  0  0
 30 33  1  0  0  0
M  END
> <minimizedAffinity>
-8.56936

$$$$
3LJO_11U_A_501


 33 35  0  0  0  0  0  0  0  0999 V2000
   16.1204   -6.9094   13.2615 C   0  0  0  0  0  0  0  0  0  0  0  0
   16.4241   -6.4785   14.3587 O   0  0  0  0  0  0  0  0  0  0  0  0
   16.1088   -6.1886   12.1128 N   0  0  0  0  0  0  0  0  0  0  0  0
   15.8691   -6.6251   11.2635 H   0  0  0  0  0  0  0  0  0  0  0  0
   17.9932   -8.9869   12.5928 C   0  0  0  0  0  0  0  0  0  0  0  0
   17.9392   -8.2384   11.6106 O   0  0  0  0  0  0  0  0  0  0  0  0
   16.8682   -9.2044   13.3110 N   0  0  0  0  0  0  0  0  0  0  0  0
   15.6846   -8.3634   13.0797 C   0  0  0  0  0  0  0  0  0  0  0  0
   14.8388   -8.7856   14.3229 C   0  0  0  0  0  0  0  0  0  0  0  0
   15.3303  -10.2357   14.6020 C   0  0  0  0  0  0  0  0  0  0  0  0
   16.8517  -10.0445   14.4985 C   0  0  0  0  0  0  0  0  0  0  0  0
   19.2856   -9.7530   12.7320 C   0  0  0  0  0  0  0  0  0  0  0  0
   20.2495   -9.3189   11.6821 N   0  0  0  0  0  0  0  0  0  0  0  0
   19.7776   -8.6871   11.0352 H   0  0  0  0  0  0  0  0  0  0  0  0
   21.4212   -8.6100   12.2962 C   0  0  0  0  0  0  0  0  0  0  0  0
   21.5510   -9.0490   13.7777 C   0  0  0  0  0  0  0  0  0  0  0  0
   22.5323   -8.1338   14.5365 C   0  0  0  0  0  0  0  0  0  0  0  0
   22.1004   -6.6407   14.3894 C   0  0  0  0  0  0  0  0  0  0  0  0
   22.2300   -6.2294   12.8868 C   0  0  0  0  0  0  0  0  0  0  0  0
   21.2508   -7.0795   12.0528 C   0  0  0  0  0  0  0  0  0  0  0  0
   16.4489   -4.7730   12.1282 C   0  0  0  0  0  0  0  0  0  0  0  0
   17.0729   -4.4734   10.7517 C   0  0  0  0  0  0  0  0  0  0  0  0
   18.3971   -4.8404   10.4940 C   0  0  0  0  0  0  0  0  0  0  0  0
   18.9561   -4.5181    9.2466 C   0  0  0  0  0  0  0  0  0  0  0  0
   18.1971   -3.8493    8.2830 C   0  0  0  0  0  0  0  0  0  0  0  0
   16.8723   -3.4804    8.5360 C   0  0  0  0  0  0  0  0  0  0  0  0
   16.3227   -3.8032    9.7842 C   0  0  0  0  0  0  0  0  0  0  0  0
   18.8138   -3.5540    6.9172 C   0  0  0  0  0  0  0  0  0  0  0  0
   18.1752   -3.1052    5.8926 N   0  0  0  0  0  0  0  0  0  0  0  0
   20.2916   -3.5680    6.9265 N   0  0  0  0  0  0  0  0  0  0  0  0
   17.1907   -3.0977    5.8907 H   0  0  0  0  0  0  0  0  0  0  0  0
   20.7756   -3.9119    7.7118 H   0  0  0  0  0  0  0  0  0  0  0  0
   20.7919   -3.2334    6.1475 H   0  0  0  0  0  0  0  0  0  0  0  0
  7  5  1  0  0  0
  7 11  1  0  0  0
  7  8  1  0  0  0
  5  6  2  0  0  0
  5 12  1  0  0  0
 11 10  1  0  0  0
 10  9  1  0  0  0
  9  8  1  0  0  0
  8  1  1  0  0  0
  1  3  1  0  0  0
  1  2  2  0  0  0
  3 21  1  0  0  0
 21 22  1  0  0  0
 22 27  2  0  0  0
 22 23  1  0  0  0
 27 26  1  0  0  0
 26 25  2  0  0  0
 25 28  1  0  0  0
 25 24  1  0  0  0
 28 29  2  0  0  0
 28 30  1  0  0  0
 24 23  2  0  0  0
 12 13  1  0  0  0
 13 15  1  0  0  0
 15 20  1  0  0  0
 15 16  1  0  0  0
 20 19  1  0  0  0
 19 18  1  0  0  0
 18 17  1  0  0  0
 17 16  1  0  0  0
 13 14  1  0  0  0
  3  4  1  0  0  0
 29 31  1  0  0  0
 30 32  1  0  0  0
 30 33  1  0  0  0
M  END
> <minimizedAffinity>
-8.07100

$$$$
3LJO_11U_A_501


 33 35  0  0  0  0  0  0  0  0999 V2000
   17.3016   -6.8022   13.7689 C   0  0  0  0  0  0  0  0  0  0  0  0
   16.1662   -6.8807   14.2007 O   0  0  0  0  0  0  0  0  0  0  0  0
   17.7336   -5.8903   12.8628 N   0  0  0  0  0  0  0  0  0  0  0  0
   18.6778   -5.8866   12.5841 H   0  0  0  0  0  0  0  0  0  0  0  0
   17.7176   -9.3167   12.4368 C   0  0  0  0  0  0  0  0  0  0  0  0
   16.6088   -9.3895   12.9782 O   0  0  0  0  0  0  0  0  0  0  0  0
   18.7051   -8.6341   13.0596 N   0  0  0  0  0  0  0  0  0  0  0  0
   18.3837   -7.7850   14.2162 C   0  0  0  0  0  0  0  0  0  0  0  0
   19.7357   -7.0123   14.3345 C   0  0  0  0  0  0  0  0  0  0  0  0
   20.7656   -8.0210   13.7479 C   0  0  0  0  0  0  0  0  0  0  0  0
   20.0283   -8.4726   12.4773 C   0  0  0  0  0  0  0  0  0  0  0  0
   17.8914  -10.2081   11.2320 C   0  0  0  0  0  0  0  0  0  0  0  0
   17.3536  -11.5667   11.5230 N   0  0  0  0  0  0  0  0  0  0  0  0
   16.3423  -11.5078   11.6422 H   0  0  0  0  0  0  0  0  0  0  0  0
   17.6627  -12.5129   10.3997 C   0  0  0  0  0  0  0  0  0  0  0  0
   16.3297  -13.0036    9.7781 C   0  0  0  0  0  0  0  0  0  0  0  0
   16.5718  -14.1996    8.8361 C   0  0  0  0  0  0  0  0  0  0  0  0
   17.3350  -15.3338    9.5900 C   0  0  0  0  0  0  0  0  0  0  0  0
   18.7589  -14.8112    9.9683 C   0  0  0  0  0  0  0  0  0  0  0  0
   18.6103  -13.6256   10.9426 C   0  0  0  0  0  0  0  0  0  0  0  0
   16.8089   -4.9167   12.2996 C   0  0  0  0  0  0  0  0  0  0  0  0
   17.3433   -4.5919   10.8915 C   0  0  0  0  0  0  0  0  0  0  0  0
   18.6763   -4.8681   10.5730 C   0  0  0  0  0  0  0  0  0  0  0  0
   19.1505   -4.5235    9.2967 C   0  0  0  0  0  0  0  0  0  0  0  0
   18.3005   -3.9224    8.3650 C   0  0  0  0  0  0  0  0  0  0  0  0
   16.9666   -3.6445    8.6788 C   0  0  0  0  0  0  0  0  0  0  0  0
   16.5018   -3.9889    9.9553 C   0  0  0  0  0  0  0  0  0  0  0  0
   18.8285   -3.6022    6.9680 C   0  0  0  0  0  0  0  0  0  0  0  0
   18.1326   -3.1071    6.0038 N   0  0  0  0  0  0  0  0  0  0  0  0
   20.3024   -3.6538    6.8728 N   0  0  0  0  0  0  0  0  0  0  0  0
   17.1509   -3.0746    6.0715 H   0  0  0  0  0  0  0  0  0  0  0  0
   20.8304   -4.0331    7.6121 H   0  0  0  0  0  0  0  0  0  0  0  0
   20.7562   -3.3090    6.0701 H   0  0  0  0  0  0  0  0  0  0  0  0
  7  5  1  0  0  0
  7 11  1  0  0  0
  7  8  1  0  0  0
  5  6  2  0  0  0
  5 12  1  0  0  0
 11 10  1  0  0  0
 10  9  1  0  0  0
  9  8  1  0  0  0
  8  1  1  0  0  0
  1  3  1  0  0  0
  1  2  2  0  0  0
  3 21  1  0  0  0
 21 22  1  0  0  0
 22 27  2  0  0  0
 22 23  1  0  0  0
 27 26  1  0  0  0
 26 25  2  0  0  0
 25 28  1  0  0  0
 25 24  1  0  0  0
 28 29  2  0  0  0
 28 30  1  0  0  0
 24 23  2  0  0  0
 12 13  1  0  0  0
 13 15  1  0  0  0
 15 20  1  0  0  0
 15 16  1  0  0  0
 20 19  1  0  0  0
 19 18  1  0  0  0
 18 17  1  0  0  0
 17 16  1  0  0  0
 13 14  1  0  0  0
  3  4  1  0  0  0
 29 31  1  0  0  0
 30 32  1  0  0  0
 30 33  1  0  0  0
M  END
> <minimizedAffinity>
-7.77680

$$$$
3LJO_11U_A_501


 33 35  0  0  0  0  0  0  0  0999 V2000
   18.3192   -9.2819   13.6923 C   0  0  0  0  0  0  0  0  0  0  0  0
   19.4497   -9.4592   14.1074 O   0  0  0  0  0  0  0  0  0  0  0  0
   17.9305   -9.4105   12.3993 N   0  0  0  0  0  0  0  0  0  0  0  0
   16.9875   -9.2678   12.1552 H   0  0  0  0  0  0  0  0  0  0  0  0
   17.1558   -6.6541   13.5867 C   0  0  0  0  0  0  0  0  0  0  0  0
   18.3207   -6.5032   13.9718 O   0  0  0  0  0  0  0  0  0  0  0  0
   16.4739   -7.7526   13.9829 N   0  0  0  0  0  0  0  0  0  0  0  0
   17.1921   -8.8580   14.6341 C   0  0  0  0  0  0  0  0  0  0  0  0
   16.0694   -9.9424   14.5818 C   0  0  0  0  0  0  0  0  0  0  0  0
   14.7649   -9.0938   14.5960 C   0  0  0  0  0  0  0  0  0  0  0  0
   15.1117   -8.0228   13.5497 C   0  0  0  0  0  0  0  0  0  0  0  0
   16.5606   -5.4543   12.8920 C   0  0  0  0  0  0  0  0  0  0  0  0
   16.5325   -5.6812   11.4198 N   0  0  0  0  0  0  0  0  0  0  0  0
   15.5638   -5.6856   11.1004 H   0  0  0  0  0  0  0  0  0  0  0  0
   17.2832   -4.5989   10.7004 C   0  0  0  0  0  0  0  0  0  0  0  0
   16.3450   -3.9548    9.6472 C   0  0  0  0  0  0  0  0  0  0  0  0
   17.1422   -3.0597    8.6778 C   0  0  0  0  0  0  0  0  0  0  0  0
   18.3057   -3.8722    8.0270 C   0  0  0  0  0  0  0  0  0  0  0  0
   19.3201   -4.2748    9.1462 C   0  0  0  0  0  0  0  0  0  0  0  0
   18.6097   -5.2052   10.1495 C   0  0  0  0  0  0  0  0  0  0  0  0
   18.8999   -9.7584   11.3701 C   0  0  0  0  0  0  0  0  0  0  0  0
   18.4527  -11.1233   10.8126 C   0  0  0  0  0  0  0  0  0  0  0  0
   17.1612  -11.5912   11.0729 C   0  0  0  0  0  0  0  0  0  0  0  0
   16.7920  -12.8572   10.5896 C   0  0  0  0  0  0  0  0  0  0  0  0
   17.6995  -13.6272    9.8580 C   0  0  0  0  0  0  0  0  0  0  0  0
   18.9921  -13.1634    9.5949 C   0  0  0  0  0  0  0  0  0  0  0  0
   19.3538  -11.9003   10.0828 C   0  0  0  0  0  0  0  0  0  0  0  0
   17.2565  -14.9793    9.3027 C   0  0  0  0  0  0  0  0  0  0  0  0
   16.8801  -15.9880   10.0098 N   0  0  0  0  0  0  0  0  0  0  0  0
   17.0292  -14.9668    7.8425 N   0  0  0  0  0  0  0  0  0  0  0  0
   17.0335  -15.9921   10.9823 H   0  0  0  0  0  0  0  0  0  0  0  0
   17.3185  -14.1938    7.3059 H   0  0  0  0  0  0  0  0  0  0  0  0
   16.5884  -15.7315    7.4064 H   0  0  0  0  0  0  0  0  0  0  0  0
  7  5  1  0  0  0
  7 11  1  0  0  0
  7  8  1  0  0  0
  5  6  2  0  0  0
  5 12  1  0  0  0
 11 10  1  0  0  0
 10  9  1  0  0  0
  9  8  1  0  0  0
  8  1  1  0  0  0
  1  3  1  0  0  0
  1  2  2  0  0  0
  3 21  1  0  0  0
 21 22  1  0  0  0
 22 27  2  0  0  0
 22 23  1  0  0  0
 27 26  1  0  0  0
 26 25  2  0  0  0
 25 28  1  0  0  0
 25 24  1  0  0  0
 28 29  2  0  0  0
 28 30  1  0  0  0
 24 23  2  0  0  0
 12 13  1  0  0  0
 13 15  1  0  0  0
 15 20  1  0  0  0
 15 16  1  0  0  0
 20 19  1  0  0  0
 19 18  1  0  0  0
 18 17  1  0  0  0
 17 16  1  0  0  0
 13 14  1  0  0  0
  3  4  1  0  0  0
 29 31  1  0  0  0
 30 32  1  0  0  0
 30 33  1  0  0  0
M  END
> <minimizedAffinity>
-7.50133

$$$$
3LJO_11U_A_501


 33 35  0  0  0  0  0  0  0  0999 V2000
   16.2061   -6.9207   13.3805 C   0  0  0  0  0  0  0  0  0  0  0  0
   16.7280   -6.6260   14.4400 O   0  0  0  0  0  0  0  0  0  0  0  0
   16.0636   -6.0882   12.3194 N   0  0  0  0  0  0  0  0  0  0  0  0
   15.6459   -6.4182   11.4911 H   0  0  0  0  0  0  0  0  0  0  0  0
   17.8236   -9.1254   12.4899 C   0  0  0  0  0  0  0  0  0  0  0  0
   17.7869   -8.3205   11.5525 O   0  0  0  0  0  0  0  0  0  0  0  0
   16.7259   -9.2755   13.2654 N   0  0  0  0  0  0  0  0  0  0  0  0
   15.6195   -8.3139   13.1525 C   0  0  0  0  0  0  0  0  0  0  0  0
   14.8095   -8.7238   14.4233 C   0  0  0  0  0  0  0  0  0  0  0  0
   15.1710  -10.2276   14.5963 C   0  0  0  0  0  0  0  0  0  0  0  0
   16.6954  -10.1765   14.4071 C   0  0  0  0  0  0  0  0  0  0  0  0
   19.0401  -10.0178   12.5080 C   0  0  0  0  0  0  0  0  0  0  0  0
   20.0126   -9.5309   13.5262 N   0  0  0  0  0  0  0  0  0  0  0  0
   19.5615   -8.8265   14.1099 H   0  0  0  0  0  0  0  0  0  0  0  0
   20.4845  -10.6608   14.3941 C   0  0  0  0  0  0  0  0  0  0  0  0
   19.8796  -11.9859   13.8626 C   0  0  0  0  0  0  0  0  0  0  0  0
   20.0748  -13.1253   14.8825 C   0  0  0  0  0  0  0  0  0  0  0  0
   19.4894  -12.7131   16.2699 C   0  0  0  0  0  0  0  0  0  0  0  0
   20.3227  -11.5133   16.8266 C   0  0  0  0  0  0  0  0  0  0  0  0
   20.1563  -10.3099   15.8773 C   0  0  0  0  0  0  0  0  0  0  0  0
   16.5246   -4.7094   12.3980 C   0  0  0  0  0  0  0  0  0  0  0  0
   17.1148   -4.3817   11.0130 C   0  0  0  0  0  0  0  0  0  0  0  0
   16.3899   -3.5889   10.1182 C   0  0  0  0  0  0  0  0  0  0  0  0
   16.9309   -3.3400    8.8463 C   0  0  0  0  0  0  0  0  0  0  0  0
   18.1726   -3.8715    8.4894 C   0  0  0  0  0  0  0  0  0  0  0  0
   18.9014   -4.6647    9.3809 C   0  0  0  0  0  0  0  0  0  0  0  0
   18.3536   -4.9107   10.6472 C   0  0  0  0  0  0  0  0  0  0  0  0
   18.7598   -3.5453    7.1176 C   0  0  0  0  0  0  0  0  0  0  0  0
   18.0855   -3.1534    6.0926 N   0  0  0  0  0  0  0  0  0  0  0  0
   20.2348   -3.4526    7.1189 N   0  0  0  0  0  0  0  0  0  0  0  0
   17.1031   -3.2170    6.0960 H   0  0  0  0  0  0  0  0  0  0  0  0
   20.7462   -3.7533    7.9046 H   0  0  0  0  0  0  0  0  0  0  0  0
   20.7059   -3.0901    6.3341 H   0  0  0  0  0  0  0  0  0  0  0  0
  7  5  1  0  0  0
  7 11  1  0  0  0
  7  8  1  0  0  0
  5  6  2  0  0  0
  5 12  1  0  0  0
 11 10  1  0  0  0
 10  9  1  0  0  0
  9  8  1  0  0  0
  8  1  1  0  0  0
  1  3  1  0  0  0
  1  2  2  0  0  0
  3 21  1  0  0  0
 21 22  1  0  0  0
 22 27  2  0  0  0
 22 23  1  0  0  0
 27 26  1  0  0  0
 26 25  2  0  0  0
 25 28  1  0  0  0
 25 24  1  0  0  0
 28 29  2  0  0  0
 28 30  1  0  0  0
 24 23  2  0  0  0
 12 13  1  0  0  0
 13 15  1  0  0  0
 15 20  1  0  0  0
 15 16  1  0  0  0
 20 19  1  0  0  0
 19 18  1  0  0  0
 18 17  1  0  0  0
 17 16  1  0  0  0
 13 14  1  0  0  0
  3  4  1  0  0  0
 29 31  1  0  0  0
 30 32  1  0  0  0
 30 33  1  0  0  0
M  END
> <minimizedAffinity>
-7.20248

$$$$
3LJO_11U_A_501


 33 35  0  0  0  0  0  0  0  0999 V2000
   18.9434   -6.3984   13.0829 C   0  0  0  0  0  0  0  0  0  0  0  0
   20.0062   -5.8456   13.2985 O   0  0  0  0  0  0  0  0  0  0  0  0
   17.8132   -5.7831   12.6546 N   0  0  0  0  0  0  0  0  0  0  0  0
   17.0013   -6.3136   12.4854 H   0  0  0  0  0  0  0  0  0  0  0  0
   17.4130   -7.4483   15.2797 C   0  0  0  0  0  0  0  0  0  0  0  0
   18.3989   -6.8928   15.7771 O   0  0  0  0  0  0  0  0  0  0  0  0
   17.5522   -8.0905   14.0978 N   0  0  0  0  0  0  0  0  0  0  0  0
   18.7779   -7.9014   13.3080 C   0  0  0  0  0  0  0  0  0  0  0  0
   18.3081   -8.5536   11.9689 C   0  0  0  0  0  0  0  0  0  0  0  0
   17.2501   -9.5929   12.4404 C   0  0  0  0  0  0  0  0  0  0  0  0
   16.4368   -8.7418   13.4284 C   0  0  0  0  0  0  0  0  0  0  0  0
   16.2101   -7.5295   16.1868 C   0  0  0  0  0  0  0  0  0  0  0  0
   15.2061   -6.5016   15.7930 N   0  0  0  0  0  0  0  0  0  0  0  0
   14.2776   -6.8151   16.0759 H   0  0  0  0  0  0  0  0  0  0  0  0
   15.5041   -5.1868   16.4527 C   0  0  0  0  0  0  0  0  0  0  0  0
   14.3549   -4.8495   17.4374 C   0  0  0  0  0  0  0  0  0  0  0  0
   14.4490   -3.3847   17.9084 C   0  0  0  0  0  0  0  0  0  0  0  0
   14.4856   -2.4242   16.6782 C   0  0  0  0  0  0  0  0  0  0  0  0
   15.8034   -2.6866   15.8792 C   0  0  0  0  0  0  0  0  0  0  0  0
   15.7779   -4.1304   15.3392 C   0  0  0  0  0  0  0  0  0  0  0  0
   17.7938   -4.3426   12.4435 C   0  0  0  0  0  0  0  0  0  0  0  0
   17.7385   -4.1401   10.9171 C   0  0  0  0  0  0  0  0  0  0  0  0
   18.9253   -4.0756   10.1809 C   0  0  0  0  0  0  0  0  0  0  0  0
   18.8493   -3.8478    8.7972 C   0  0  0  0  0  0  0  0  0  0  0  0
   17.6090   -3.6956    8.1724 C   0  0  0  0  0  0  0  0  0  0  0  0
   16.4194   -3.7596    8.9045 C   0  0  0  0  0  0  0  0  0  0  0  0
   16.5037   -3.9846   10.2852 C   0  0  0  0  0  0  0  0  0  0  0  0
   17.5528   -3.4972    6.6590 C   0  0  0  0  0  0  0  0  0  0  0  0
   18.5529   -3.1812    5.9114 N   0  0  0  0  0  0  0  0  0  0  0  0
   16.2886   -3.9653    6.0535 N   0  0  0  0  0  0  0  0  0  0  0  0
   19.3932   -2.8698    6.3190 H   0  0  0  0  0  0  0  0  0  0  0  0
   15.5267   -4.2058    6.6288 H   0  0  0  0  0  0  0  0  0  0  0  0
   16.2082   -4.0367    5.0749 H   0  0  0  0  0  0  0  0  0  0  0  0
  7  5  1  0  0  0
  7 11  1  0  0  0
  7  8  1  0  0  0
  5  6  2  0  0  0
  5 12  1  0  0  0
 11 10  1  0  0  0
 10  9  1  0  0  0
  9  8  1  0  0  0
  8  1  1  0  0  0
  1  3  1  0  0  0
  1  2  2  0  0  0
  3 21  1  0  0  0
 21 22  1  0  0  0
 22 27  2  0  0  0
 22 23  1  0  0  0
 27 26  1  0  0  0
 26 25  2  0  0  0
 25 28  1  0  0  0
 25 24  1  0  0  0
 28 29  2  0  0  0
 28 30  1  0  0  0
 24 23  2  0  0  0
 12 13  1  0  0  0
 13 15  1  0  0  0
 15 20  1  0  0  0
 15 16  1  0  0  0
 20 19  1  0  0  0
 19 18  1  0  0  0
 18 17  1  0  0  0
 17 16  1  0  0  0
 13 14  1  0  0  0
  3  4  1  0  0  0
 29 31  1  0  0  0
 30 32  1  0  0  0
 30 33  1  0  0  0
M  END
> <minimizedAffinity>
-7.16299

$$$$
3LJO_11U_A_501


 33 35  0  0  0  0  0  0  0  0999 V2000
   22.4722   -9.2973   11.8321 C   0  0  0  0  0  0  0  0  0  0  0  0
   23.4907   -9.0835   11.2008 O   0  0  0  0  0  0  0  0  0  0  0  0
   21.5014  -10.1759   11.4785 N   0  0  0  0  0  0  0  0  0  0  0  0
   20.7181  -10.3006   12.0617 H   0  0  0  0  0  0  0  0  0  0  0  0
   21.0430   -6.8018   11.8460 C   0  0  0  0  0  0  0  0  0  0  0  0
   22.1199   -6.5823   11.2803 O   0  0  0  0  0  0  0  0  0  0  0  0
   21.0118   -7.6810   12.8730 N   0  0  0  0  0  0  0  0  0  0  0  0
   22.1760   -8.5421   13.1279 C   0  0  0  0  0  0  0  0  0  0  0  0
   21.5265   -9.5361   14.1425 C   0  0  0  0  0  0  0  0  0  0  0  0
   20.4144   -8.6755   14.8094 C   0  0  0  0  0  0  0  0  0  0  0  0
   19.7817   -8.0206   13.5713 C   0  0  0  0  0  0  0  0  0  0  0  0
   19.9226   -5.8710   11.4527 C   0  0  0  0  0  0  0  0  0  0  0  0
   20.1782   -5.3126   10.0953 N   0  0  0  0  0  0  0  0  0  0  0  0
   20.0781   -6.0555    9.4036 H   0  0  0  0  0  0  0  0  0  0  0  0
   19.2064   -4.2129    9.7809 C   0  0  0  0  0  0  0  0  0  0  0  0
   17.9256   -4.4194   10.6301 C   0  0  0  0  0  0  0  0  0  0  0  0
   16.7844   -3.5115   10.1305 C   0  0  0  0  0  0  0  0  0  0  0  0
   16.5374   -3.7451    8.6068 C   0  0  0  0  0  0  0  0  0  0  0  0
   17.8067   -3.2845    7.8190 C   0  0  0  0  0  0  0  0  0  0  0  0
   18.9986   -4.1689    8.2364 C   0  0  0  0  0  0  0  0  0  0  0  0
   21.6109  -10.9356   10.2412 C   0  0  0  0  0  0  0  0  0  0  0  0
   20.2814  -11.7006   10.0962 C   0  0  0  0  0  0  0  0  0  0  0  0
   19.0860  -11.1003   10.5027 C   0  0  0  0  0  0  0  0  0  0  0  0
   17.8931  -11.8345   10.3997 C   0  0  0  0  0  0  0  0  0  0  0  0
   17.9057  -13.1369    9.8942 C   0  0  0  0  0  0  0  0  0  0  0  0
   19.0987  -13.7414    9.4861 C   0  0  0  0  0  0  0  0  0  0  0  0
   20.2850  -13.0031    9.5946 C   0  0  0  0  0  0  0  0  0  0  0  0
   16.5880  -13.8954    9.7477 C   0  0  0  0  0  0  0  0  0  0  0  0
   15.4866  -13.3965    9.3039 N   0  0  0  0  0  0  0  0  0  0  0  0
   16.7331  -15.3575    9.9062 N   0  0  0  0  0  0  0  0  0  0  0  0
   15.3943  -12.4219    9.1999 H   0  0  0  0  0  0  0  0  0  0  0  0
   17.5768  -15.7345   10.2457 H   0  0  0  0  0  0  0  0  0  0  0  0
   15.9861  -15.9545    9.6722 H   0  0  0  0  0  0  0  0  0  0  0  0
  7  5  1  0  0  0
  7 11  1  0  0  0
  7  8  1  0  0  0
  5  6  2  0  0  0
  5 12  1  0  0  0
 11 10  1  0  0  0
 10  9  1  0  0  0
  9  8  1  0  0  0
  8  1  1  0  0  0
  1  3  1  0  0  0
  1  2  2  0  0  0
  3 21  1  0  0  0
 21 22  1  0  0  0
 22 27  2  0  0  0
 22 23  1  0  0  0
 27 26  1  0  0  0
 26 25  2  0  0  0
 25 28  1  0  0  0
 25 24  1  0  0  0
 28 29  2  0  0  0
 28 30  1  0  0  0
 24 23  2  0  0  0
 12 13  1  0  0  0
 13 15  1  0  0  0
 15 20  1  0  0  0
 15 16  1  0  0  0
 20 19  1  0  0  0
 19 18  1  0  0  0
 18 17  1  0  0  0
 17 16  1  0  0  0
 13 14  1  0  0  0
  3  4  1  0  0  0
 29 31  1  0  0  0
 30 32  1  0  0  0
 30 33  1  0  0  0
M  END
> <minimizedAffinity>
-7.01860

$$$$
3LJO_11U_A_501


 33 35  0  0  0  0  0  0  0  0999 V2000
   20.0828   -6.9371   13.3835 C   0  0  0  0  0  0  0  0  0  0  0  0
   19.8419   -6.6093   14.5308 O   0  0  0  0  0  0  0  0  0  0  0  0
   19.4966   -6.4115   12.2793 N   0  0  0  0  0  0  0  0  0  0  0  0
   19.7684   -6.7229   11.3857 H   0  0  0  0  0  0  0  0  0  0  0  0
   22.9090   -6.4135   13.2897 C   0  0  0  0  0  0  0  0  0  0  0  0
   22.4105   -5.8020   12.3380 O   0  0  0  0  0  0  0  0  0  0  0  0
   22.3869   -7.6099   13.6430 N   0  0  0  0  0  0  0  0  0  0  0  0
   21.0993   -8.0367   13.0759 C   0  0  0  0  0  0  0  0  0  0  0  0
   20.8115   -9.2528   14.0125 C   0  0  0  0  0  0  0  0  0  0  0  0
   22.2379   -9.7244   14.4189 C   0  0  0  0  0  0  0  0  0  0  0  0
   22.8924   -8.3788   14.7697 C   0  0  0  0  0  0  0  0  0  0  0  0
   24.2056   -5.8358   13.8012 C   0  0  0  0  0  0  0  0  0  0  0  0
   24.8867   -5.0756   12.7159 N   0  0  0  0  0  0  0  0  0  0  0  0
   24.2600   -5.0024   11.9145 H   0  0  0  0  0  0  0  0  0  0  0  0
   25.2534   -3.6968   13.1817 C   0  0  0  0  0  0  0  0  0  0  0  0
   24.0161   -2.7738   13.0351 C   0  0  0  0  0  0  0  0  0  0  0  0
   24.4133   -1.2939   13.2033 C   0  0  0  0  0  0  0  0  0  0  0  0
   25.5570   -0.9260   12.2063 C   0  0  0  0  0  0  0  0  0  0  0  0
   26.8342   -1.7424   12.5886 C   0  0  0  0  0  0  0  0  0  0  0  0
   26.5338   -3.2447   12.4155 C   0  0  0  0  0  0  0  0  0  0  0  0
   18.4676   -5.3894   12.4077 C   0  0  0  0  0  0  0  0  0  0  0  0
   18.2121   -4.8658   10.9813 C   0  0  0  0  0  0  0  0  0  0  0  0
   16.9398   -4.4073   10.6266 C   0  0  0  0  0  0  0  0  0  0  0  0
   16.7218   -3.9750    9.3083 C   0  0  0  0  0  0  0  0  0  0  0  0
   17.7612   -3.9987    8.3751 C   0  0  0  0  0  0  0  0  0  0  0  0
   19.0353   -4.4561    8.7252 C   0  0  0  0  0  0  0  0  0  0  0  0
   19.2442   -4.8883   10.0419 C   0  0  0  0  0  0  0  0  0  0  0  0
   17.5097   -3.4775    6.9615 C   0  0  0  0  0  0  0  0  0  0  0  0
   18.4108   -3.0108    6.1682 N   0  0  0  0  0  0  0  0  0  0  0  0
   16.1611   -3.7992    6.4500 N   0  0  0  0  0  0  0  0  0  0  0  0
   19.3079   -2.7978    6.5133 H   0  0  0  0  0  0  0  0  0  0  0  0
   15.4754   -4.1558    7.0598 H   0  0  0  0  0  0  0  0  0  0  0  0
   15.9483   -3.6570    5.4993 H   0  0  0  0  0  0  0  0  0  0  0  0
  7  5  1  0  0  0
  7 11  1  0  0  0
  7  8  1  0  0  0
  5  6  2  0  0  0
  5 12  1  0  0  0
 11 10  1  0  0  0
 10  9  1  0  0  0
  9  8  1  0  0  0
  8  1  1  0  0  0
  1  3  1  0  0  0
  1  2  2  0  0  0
  3 21  1  0  0  0
 21 22  1  0  0  0
 22 27  2  0  0  0
 22 23  1  0  0  0
 27 26  1  0  0  0
 26 25  2  0  0  0
 25 28  1  0  0  0
 25 24  1  0  0  0
 28 29  2  0  0  0
 28 30  1  0  0  0
 24 23  2  0  0  0
 12 13  1  0  0  0
 13 15  1  0  0  0
 15 20  1  0  0  0
 15 16  1  0  0  0
 20 19  1  0  0  0
 19 18  1  0  0  0
 18 17  1  0  0  0
 17 16  1  0  0  0
 13 14  1  0  0  0
  3  4  1  0  0  0
 29 31  1  0  0  0
 30 32  1  0  0  0
 30 33  1  0  0  0
M  END
> <minimizedAffinity>
-6.93087

$$$$
3LJO_11U_A_501


 33 35  0  0  0  0  0  0  0  0999 V2000
   20.3776   -8.5498   13.7081 C   0  0  0  0  0  0  0  0  0  0  0  0
   21.5330   -8.5792   14.0902 O   0  0  0  0  0  0  0  0  0  0  0  0
   19.8257   -9.4092   12.8158 N   0  0  0  0  0  0  0  0  0  0  0  0
   18.8739   -9.3242   12.5788 H   0  0  0  0  0  0  0  0  0  0  0  0
   19.2843   -6.5495   11.9549 C   0  0  0  0  0  0  0  0  0  0  0  0
   20.4961   -6.3186   12.0326 O   0  0  0  0  0  0  0  0  0  0  0  0
   18.6363   -7.0135   13.0474 N   0  0  0  0  0  0  0  0  0  0  0  0
   19.4099   -7.4773   14.2086 C   0  0  0  0  0  0  0  0  0  0  0  0
   18.2619   -8.1782   15.0022 C   0  0  0  0  0  0  0  0  0  0  0  0
   16.9970   -7.3909   14.5526 C   0  0  0  0  0  0  0  0  0  0  0  0
   17.2190   -7.3411   13.0326 C   0  0  0  0  0  0  0  0  0  0  0  0
   18.6286   -6.0597   10.6874 C   0  0  0  0  0  0  0  0  0  0  0  0
   19.6506   -5.4563    9.7867 N   0  0  0  0  0  0  0  0  0  0  0  0
   19.9442   -6.1516    9.1006 H   0  0  0  0  0  0  0  0  0  0  0  0
   19.0894   -4.2632    9.0695 C   0  0  0  0  0  0  0  0  0  0  0  0
   17.5836   -4.1341    9.4158 C   0  0  0  0  0  0  0  0  0  0  0  0
   16.8903   -3.1253    8.4788 C   0  0  0  0  0  0  0  0  0  0  0  0
   17.1307   -3.5211    6.9879 C   0  0  0  0  0  0  0  0  0  0  0  0
   18.6573   -3.3917    6.6771 C   0  0  0  0  0  0  0  0  0  0  0  0
   19.4298   -4.3974    7.5539 C   0  0  0  0  0  0  0  0  0  0  0  0
   20.6326  -10.4569   12.2065 C   0  0  0  0  0  0  0  0  0  0  0  0
   19.6511  -11.3345   11.4063 C   0  0  0  0  0  0  0  0  0  0  0  0
   18.2803  -11.2647   11.6725 C   0  0  0  0  0  0  0  0  0  0  0  0
   17.4108  -12.1057   10.9590 C   0  0  0  0  0  0  0  0  0  0  0  0
   17.9105  -12.9886    9.9985 C   0  0  0  0  0  0  0  0  0  0  0  0
   19.2805  -13.0618    9.7286 C   0  0  0  0  0  0  0  0  0  0  0  0
   20.1419  -12.2212   10.4467 C   0  0  0  0  0  0  0  0  0  0  0  0
   16.9382  -13.8573    9.2028 C   0  0  0  0  0  0  0  0  0  0  0  0
   17.2600  -14.6331    8.2263 N   0  0  0  0  0  0  0  0  0  0  0  0
   15.5984  -13.9520    9.8192 N   0  0  0  0  0  0  0  0  0  0  0  0
   18.1537  -14.5665    7.8187 H   0  0  0  0  0  0  0  0  0  0  0  0
   15.3566  -13.3571   10.5654 H   0  0  0  0  0  0  0  0  0  0  0  0
   14.9475  -14.6101    9.4836 H   0  0  0  0  0  0  0  0  0  0  0  0
  7  5  1  0  0  0
  7 11  1  0  0  0
  7  8  1  0  0  0
  5  6  2  0  0  0
  5 12  1  0  0  0
 11 10  1  0  0  0
 10  9  1  0  0  0
  9  8  1  0  0  0
  8  1  1  0  0  0
  1  3  1  0  0  0
  1  2  2  0  0  0
  3 21  1  0  0  0
 21 22  1  0  0  0
 22 27  2  0  0  0
 22 23  1  0  0  0
 27 26  1  0  0  0
 26 25  2  0  0  0
 25 28  1  0  0  0
 25 24  1  0  0  0
 28 29  2  0  0  0
 28 30  1  0  0  0
 24 23  2  0  0  0
 12 13  1  0  0  0
 13 15  1  0  0  0
 15 20  1  0  0  0
 15 16  1  0  0  0
 20 19  1  0  0  0
 19 18  1  0  0  0
 18 17  1  0  0  0
 17 16  1  0  0  0
 13 14  1  0  0  0
  3  4  1  0  0  0
 29 31  1  0  0  0
 30 32  1  0  0  0
 30 33  1  0  0  0
M  END
> <minimizedAffinity>
-6.61989

$$$$
