5FNS_XYY_A_1614


 30 32  0  0  0  0  0  0  0  0999 V2000
   16.8217   64.5147   26.5779 C   0  0  0  0  0  0  0  0  0  0  0  0
   15.4910   63.9784   26.0634 C   0  0  0  0  0  0  0  0  0  0  0  0
   14.6815   64.6845   25.1653 C   0  0  0  0  0  0  0  0  0  0  0  0
   13.4723   64.1606   24.7167 C   0  0  0  0  0  0  0  0  0  0  0  0
   13.0482   62.9030   25.1683 C   0  0  0  0  0  0  0  0  0  0  0  0
   11.9588   62.1261   24.9362 N   0  0  0  0  0  0  0  0  0  0  0  0
   10.8049   62.3766   24.0843 C   0  0  0  0  0  0  0  0  0  0  0  0
   12.0481   60.9709   25.6456 N   0  0  0  0  0  0  0  0  0  0  0  0
   13.1839   61.0126   26.3208 N   0  0  0  0  0  0  0  0  0  0  0  0
   13.8337   62.1821   26.0600 C   0  0  0  0  0  0  0  0  0  0  0  0
   15.0610   62.7212   26.5099 C   0  0  0  0  0  0  0  0  0  0  0  0
   16.8615   65.0844   32.5856 Cl  0  0  0  0  0  0  0  0  0  0  0  0
   15.7765   65.5227   30.1300 C   0  0  0  0  0  0  0  0  0  0  0  0
   15.7872   65.3788   28.7455 C   0  0  0  0  0  0  0  0  0  0  0  0
   16.7968   64.6803   28.0909 C   0  0  0  0  0  0  0  0  0  0  0  0
   17.8148   64.1171   28.8500 C   0  0  0  0  0  0  0  0  0  0  0  0
   17.8244   64.2472   30.2245 C   0  0  0  0  0  0  0  0  0  0  0  0
   16.8124   64.9444   30.8591 C   0  0  0  0  0  0  0  0  0  0  0  0
   14.6621   66.2890   30.8080 C   0  0  0  0  0  0  0  0  0  0  0  0
   12.6044   67.2672   29.8512 C   0  0  0  0  0  0  0  0  0  0  0  0
   13.3425   66.0467   30.2096 N   0  0  0  0  0  0  0  0  0  0  0  0
   12.4730   64.7696   30.7513 S   0  0  0  0  0  0  0  0  0  0  0  0
   12.7393   63.6760   29.8731 O   0  0  0  0  0  0  0  0  0  0  0  0
   12.7419   64.6186   32.1458 O   0  0  0  0  0  0  0  0  0  0  0  0
   10.7882   65.2370   30.5579 C   0  0  0  0  0  0  0  0  0  0  0  0
   17.3126   65.7774   25.8768 C   0  0  0  0  0  0  0  0  0  0  0  0
   17.9000   65.5169   24.4969 C   0  0  0  0  0  0  0  0  0  0  0  0
   17.9445   66.4820   23.7117 O   0  0  0  0  0  0  0  0  0  0  0  0
   18.3030   64.3652   24.2199 O   0  0  0  0  0  0  0  0  0  0  0  0
   18.2411   63.6813   24.8574 H   0  0  0  0  0  0  0  0  0  0  0  0
 20 21  1  0  0  0
 18 12  1  0  0  0
 19 21  1  0  0  0
 21 22  1  0  0  0
 13 19  1  0  0  0
 14 13  2  0  0  0
 13 18  1  0  0  0
 15 14  1  0  0  0
  1 15  1  0  0  0
 15 16  2  0  0  0
 16 17  1  0  0  0
 17 18  2  0  0  0
 26  1  1  0  0  0
  2  1  1  0  0  0
 27 26  1  0  0  0
 28 27  2  0  0  0
 29 27  1  0  0  0
  3  2  2  0  0  0
  2 11  1  0  0  0
  4  3  1  0  0  0
  4  5  2  0  0  0
  6  5  1  0  0  0
  5 10  1  0  0  0
  7  6  1  0  0  0
  6  8  1  0  0  0
  8  9  2  0  0  0
 10  9  1  0  0  0
 10 11  2  0  0  0
 25 22  1  0  0  0
 22 23  2  0  0  0
 22 24  2  0  0  0
 29 30  1  0  0  0
M  END
> <minimizedAffinity>
-9.05775

$$$$
5FNS_XYY_A_1614


 30 32  0  0  0  0  0  0  0  0999 V2000
   17.5863   64.7497   30.7114 C   0  0  0  0  0  0  0  0  0  0  0  0
   18.3763   64.4034   31.9680 C   0  0  0  0  0  0  0  0  0  0  0  0
   18.7809   65.3647   32.9021 C   0  0  0  0  0  0  0  0  0  0  0  0
   19.5008   65.0092   34.0394 C   0  0  0  0  0  0  0  0  0  0  0  0
   19.8325   63.6653   34.2613 C   0  0  0  0  0  0  0  0  0  0  0  0
   20.5032   62.9991   35.2364 N   0  0  0  0  0  0  0  0  0  0  0  0
   21.1355   63.5112   36.4438 C   0  0  0  0  0  0  0  0  0  0  0  0
   20.5378   61.6701   34.9564 N   0  0  0  0  0  0  0  0  0  0  0  0
   19.8941   61.4933   33.8153 N   0  0  0  0  0  0  0  0  0  0  0  0
   19.4425   62.6919   33.3491 C   0  0  0  0  0  0  0  0  0  0  0  0
   18.7108   63.0616   32.1970 C   0  0  0  0  0  0  0  0  0  0  0  0
   12.2125   67.0151   32.2633 Cl  0  0  0  0  0  0  0  0  0  0  0  0
   13.9583   65.9738   30.4558 C   0  0  0  0  0  0  0  0  0  0  0  0
   15.2051   65.4537   30.1201 C   0  0  0  0  0  0  0  0  0  0  0  0
   16.2182   65.3166   31.0638 C   0  0  0  0  0  0  0  0  0  0  0  0
   15.9663   65.7129   32.3711 C   0  0  0  0  0  0  0  0  0  0  0  0
   14.7371   66.2313   32.7267 C   0  0  0  0  0  0  0  0  0  0  0  0
   13.7409   66.3600   31.7758 C   0  0  0  0  0  0  0  0  0  0  0  0
   12.8801   66.1081   29.4032 C   0  0  0  0  0  0  0  0  0  0  0  0
   12.6703   64.6392   27.4272 C   0  0  0  0  0  0  0  0  0  0  0  0
   12.4276   64.8175   28.8667 N   0  0  0  0  0  0  0  0  0  0  0  0
   11.0651   64.1581   29.4905 S   0  0  0  0  0  0  0  0  0  0  0  0
   10.4889   63.3401   28.4723 O   0  0  0  0  0  0  0  0  0  0  0  0
   11.4022   63.5660   30.7458 O   0  0  0  0  0  0  0  0  0  0  0  0
    9.9849   65.5142   29.7882 C   0  0  0  0  0  0  0  0  0  0  0  0
   17.4867   63.6200   29.6910 C   0  0  0  0  0  0  0  0  0  0  0  0
   18.0997   63.9649   28.3411 C   0  0  0  0  0  0  0  0  0  0  0  0
   18.5003   65.1334   28.1858 O   0  0  0  0  0  0  0  0  0  0  0  0
   18.1706   63.0744   27.4650 O   0  0  0  0  0  0  0  0  0  0  0  0
   17.8501   62.2127   27.6459 H   0  0  0  0  0  0  0  0  0  0  0  0
 20 21  1  0  0  0
 18 12  1  0  0  0
 19 21  1  0  0  0
 21 22  1  0  0  0
 13 19  1  0  0  0
 14 13  2  0  0  0
 13 18  1  0  0  0
 15 14  1  0  0  0
  1 15  1  0  0  0
 15 16  2  0  0  0
 16 17  1  0  0  0
 17 18  2  0  0  0
 26  1  1  0  0  0
  2  1  1  0  0  0
 27 26  1  0  0  0
 28 27  2  0  0  0
 29 27  1  0  0  0
  3  2  2  0  0  0
  2 11  1  0  0  0
  4  3  1  0  0  0
  4  5  2  0  0  0
  6  5  1  0  0  0
  5 10  1  0  0  0
  7  6  1  0  0  0
  6  8  1  0  0  0
  8  9  2  0  0  0
 10  9  1  0  0  0
 10 11  2  0  0  0
 25 22  1  0  0  0
 22 23  2  0  0  0
 22 24  2  0  0  0
 29 30  1  0  0  0
M  END
> <minimizedAffinity>
-8.51641

$$$$
5FNS_XYY_A_1614


 30 32  0  0  0  0  0  0  0  0999 V2000
   14.3765   62.7443   27.3958 C   0  0  0  0  0  0  0  0  0  0  0  0
   13.4250   62.6453   26.2093 C   0  0  0  0  0  0  0  0  0  0  0  0
   12.5319   61.5809   26.0362 C   0  0  0  0  0  0  0  0  0  0  0  0
   11.6768   61.5263   24.9391 C   0  0  0  0  0  0  0  0  0  0  0  0
   11.7042   62.5516   23.9834 C   0  0  0  0  0  0  0  0  0  0  0  0
   11.0259   62.7988   22.8331 N   0  0  0  0  0  0  0  0  0  0  0  0
    9.9828   62.0171   22.1846 C   0  0  0  0  0  0  0  0  0  0  0  0
   11.4522   63.9641   22.2796 N   0  0  0  0  0  0  0  0  0  0  0  0
   12.3912   64.4533   23.0713 N   0  0  0  0  0  0  0  0  0  0  0  0
   12.5816   63.6191   24.1323 C   0  0  0  0  0  0  0  0  0  0  0  0
   13.4462   63.6673   25.2502 C   0  0  0  0  0  0  0  0  0  0  0  0
   11.7228   65.6038   32.0001 Cl  0  0  0  0  0  0  0  0  0  0  0  0
   13.5699   65.4349   30.0104 C   0  0  0  0  0  0  0  0  0  0  0  0
   14.1671   64.7573   28.9512 C   0  0  0  0  0  0  0  0  0  0  0  0
   13.7333   63.4971   28.5520 C   0  0  0  0  0  0  0  0  0  0  0  0
   12.6762   62.9108   29.2365 C   0  0  0  0  0  0  0  0  0  0  0  0
   12.0688   63.5645   30.2899 C   0  0  0  0  0  0  0  0  0  0  0  0
   12.5124   64.8173   30.6731 C   0  0  0  0  0  0  0  0  0  0  0  0
   14.0680   66.8044   30.4167 C   0  0  0  0  0  0  0  0  0  0  0  0
   14.0351   68.4012   28.5311 C   0  0  0  0  0  0  0  0  0  0  0  0
   13.3642   67.9028   29.7412 N   0  0  0  0  0  0  0  0  0  0  0  0
   12.5680   68.9933   30.6671 S   0  0  0  0  0  0  0  0  0  0  0  0
   12.9681   68.7698   32.0191 O   0  0  0  0  0  0  0  0  0  0  0  0
   12.7685   70.2844   30.0904 O   0  0  0  0  0  0  0  0  0  0  0  0
   10.8654   68.5767   30.5179 C   0  0  0  0  0  0  0  0  0  0  0  0
   15.7585   63.2953   27.0589 C   0  0  0  0  0  0  0  0  0  0  0  0
   16.8912   62.5766   27.7785 C   0  0  0  0  0  0  0  0  0  0  0  0
   16.5705   61.6785   28.5789 O   0  0  0  0  0  0  0  0  0  0  0  0
   18.0710   62.9162   27.5377 O   0  0  0  0  0  0  0  0  0  0  0  0
   18.2451   63.6015   26.9228 H   0  0  0  0  0  0  0  0  0  0  0  0
 20 21  1  0  0  0
 18 12  1  0  0  0
 19 21  1  0  0  0
 21 22  1  0  0  0
 13 19  1  0  0  0
 14 13  2  0  0  0
 13 18  1  0  0  0
 15 14  1  0  0  0
  1 15  1  0  0  0
 15 16  2  0  0  0
 16 17  1  0  0  0
 17 18  2  0  0  0
 26  1  1  0  0  0
  2  1  1  0  0  0
 27 26  1  0  0  0
 28 27  2  0  0  0
 29 27  1  0  0  0
  3  2  2  0  0  0
  2 11  1  0  0  0
  4  3  1  0  0  0
  4  5  2  0  0  0
  6  5  1  0  0  0
  5 10  1  0  0  0
  7  6  1  0  0  0
  6  8  1  0  0  0
  8  9  2  0  0  0
 10  9  1  0  0  0
 10 11  2  0  0  0
 25 22  1  0  0  0
 22 23  2  0  0  0
 22 24  2  0  0  0
 29 30  1  0  0  0
M  END
> <minimizedAffinity>
-8.38753

$$$$
5FNS_XYY_A_1614


 30 32  0  0  0  0  0  0  0  0999 V2000
   14.0702   67.1700   30.8292 C   0  0  0  0  0  0  0  0  0  0  0  0
   12.9246   66.4341   30.1443 C   0  0  0  0  0  0  0  0  0  0  0  0
   12.0782   65.5462   30.8194 C   0  0  0  0  0  0  0  0  0  0  0  0
   11.0410   64.8934   30.1592 C   0  0  0  0  0  0  0  0  0  0  0  0
   10.8331   65.1222   28.7918 C   0  0  0  0  0  0  0  0  0  0  0  0
    9.9421   64.6641   27.8749 N   0  0  0  0  0  0  0  0  0  0  0  0
    8.8450   63.7210   28.0377 C   0  0  0  0  0  0  0  0  0  0  0  0
   10.1913   65.2215   26.6611 N   0  0  0  0  0  0  0  0  0  0  0  0
   11.2296   66.0270   26.8057 N   0  0  0  0  0  0  0  0  0  0  0  0
   11.6595   65.9990   28.0989 C   0  0  0  0  0  0  0  0  0  0  0  0
   12.7102   66.6586   28.7774 C   0  0  0  0  0  0  0  0  0  0  0  0
   18.7148   63.5007   32.0051 Cl  0  0  0  0  0  0  0  0  0  0  0  0
   16.9750   64.7178   30.3048 C   0  0  0  0  0  0  0  0  0  0  0  0
   15.9018   65.5689   30.0565 C   0  0  0  0  0  0  0  0  0  0  0  0
   15.2450   66.2365   31.0854 C   0  0  0  0  0  0  0  0  0  0  0  0
   15.6811   66.0400   32.3896 C   0  0  0  0  0  0  0  0  0  0  0  0
   16.7436   65.2006   32.6592 C   0  0  0  0  0  0  0  0  0  0  0  0
   17.3856   64.5452   31.6241 C   0  0  0  0  0  0  0  0  0  0  0  0
   17.6655   64.0084   29.1609 C   0  0  0  0  0  0  0  0  0  0  0  0
   16.4469   61.9878   28.4272 C   0  0  0  0  0  0  0  0  0  0  0  0
   16.7303   63.4124   28.1973 N   0  0  0  0  0  0  0  0  0  0  0  0
   16.7879   63.9305   26.6453 S   0  0  0  0  0  0  0  0  0  0  0  0
   17.6171   63.0171   25.9270 O   0  0  0  0  0  0  0  0  0  0  0  0
   15.4454   64.1395   26.2051 O   0  0  0  0  0  0  0  0  0  0  0  0
   17.6023   65.4886   26.7039 C   0  0  0  0  0  0  0  0  0  0  0  0
   13.6719   67.9388   32.0852 C   0  0  0  0  0  0  0  0  0  0  0  0
   14.2867   69.3289   32.1672 C   0  0  0  0  0  0  0  0  0  0  0  0
   14.1148   70.0799   31.1892 O   0  0  0  0  0  0  0  0  0  0  0  0
   14.9259   69.6467   33.1947 O   0  0  0  0  0  0  0  0  0  0  0  0
   15.0188   69.0334   33.8971 H   0  0  0  0  0  0  0  0  0  0  0  0
 20 21  1  0  0  0
 18 12  1  0  0  0
 19 21  1  0  0  0
 21 22  1  0  0  0
 13 19  1  0  0  0
 14 13  2  0  0  0
 13 18  1  0  0  0
 15 14  1  0  0  0
  1 15  1  0  0  0
 15 16  2  0  0  0
 16 17  1  0  0  0
 17 18  2  0  0  0
 26  1  1  0  0  0
  2  1  1  0  0  0
 27 26  1  0  0  0
 28 27  2  0  0  0
 29 27  1  0  0  0
  3  2  2  0  0  0
  2 11  1  0  0  0
  4  3  1  0  0  0
  4  5  2  0  0  0
  6  5  1  0  0  0
  5 10  1  0  0  0
  7  6  1  0  0  0
  6  8  1  0  0  0
  8  9  2  0  0  0
 10  9  1  0  0  0
 10 11  2  0  0  0
 25 22  1  0  0  0
 22 23  2  0  0  0
 22 24  2  0  0  0
 29 30  1  0  0  0
M  END
> <minimizedAffinity>
-8.35078

$$$$
5FNS_XYY_A_1614


 30 32  0  0  0  0  0  0  0  0999 V2000
   15.0496   65.9895   31.9273 C   0  0  0  0  0  0  0  0  0  0  0  0
   16.3759   65.2786   32.1696 C   0  0  0  0  0  0  0  0  0  0  0  0
   17.3417   65.1073   31.1705 C   0  0  0  0  0  0  0  0  0  0  0  0
   18.5426   64.4530   31.4309 C   0  0  0  0  0  0  0  0  0  0  0  0
   18.7980   63.9517   32.7149 C   0  0  0  0  0  0  0  0  0  0  0  0
   19.8335   63.2855   33.2879 N   0  0  0  0  0  0  0  0  0  0  0  0
   21.0939   62.8501   32.7034 C   0  0  0  0  0  0  0  0  0  0  0  0
   19.5612   63.0320   34.5946 N   0  0  0  0  0  0  0  0  0  0  0  0
   18.3649   63.5335   34.8498 N   0  0  0  0  0  0  0  0  0  0  0  0
   17.8554   64.1089   33.7241 C   0  0  0  0  0  0  0  0  0  0  0  0
   16.6386   64.7755   33.4513 C   0  0  0  0  0  0  0  0  0  0  0  0
   11.5357   62.9763   28.0555 Cl  0  0  0  0  0  0  0  0  0  0  0  0
   13.9037   64.0918   28.7949 C   0  0  0  0  0  0  0  0  0  0  0  0
   14.6963   64.7883   29.7030 C   0  0  0  0  0  0  0  0  0  0  0  0
   14.1951   65.2271   30.9245 C   0  0  0  0  0  0  0  0  0  0  0  0
   12.8681   64.9569   31.2337 C   0  0  0  0  0  0  0  0  0  0  0  0
   12.0637   64.2676   30.3483 C   0  0  0  0  0  0  0  0  0  0  0  0
   12.5784   63.8382   29.1384 C   0  0  0  0  0  0  0  0  0  0  0  0
   14.4827   63.6298   27.4758 C   0  0  0  0  0  0  0  0  0  0  0  0
   15.2678   65.3670   25.9034 C   0  0  0  0  0  0  0  0  0  0  0  0
   15.6028   64.4587   27.0105 N   0  0  0  0  0  0  0  0  0  0  0  0
   17.1036   63.8045   27.0233 S   0  0  0  0  0  0  0  0  0  0  0  0
   17.0965   62.7535   27.9893 O   0  0  0  0  0  0  0  0  0  0  0  0
   17.4591   63.5017   25.6736 O   0  0  0  0  0  0  0  0  0  0  0  0
   18.1642   65.0823   27.6037 C   0  0  0  0  0  0  0  0  0  0  0  0
   15.1764   67.4645   31.5592 C   0  0  0  0  0  0  0  0  0  0  0  0
   14.3319   68.3830   32.4310 C   0  0  0  0  0  0  0  0  0  0  0  0
   13.1658   68.0182   32.6701 O   0  0  0  0  0  0  0  0  0  0  0  0
   14.8390   69.4439   32.8587 O   0  0  0  0  0  0  0  0  0  0  0  0
   15.7243   69.6607   32.6417 H   0  0  0  0  0  0  0  0  0  0  0  0
 20 21  1  0  0  0
 18 12  1  0  0  0
 19 21  1  0  0  0
 21 22  1  0  0  0
 13 19  1  0  0  0
 14 13  2  0  0  0
 13 18  1  0  0  0
 15 14  1  0  0  0
  1 15  1  0  0  0
 15 16  2  0  0  0
 16 17  1  0  0  0
 17 18  2  0  0  0
 26  1  1  0  0  0
  2  1  1  0  0  0
 27 26  1  0  0  0
 28 27  2  0  0  0
 29 27  1  0  0  0
  3  2  2  0  0  0
  2 11  1  0  0  0
  4  3  1  0  0  0
  4  5  2  0  0  0
  6  5  1  0  0  0
  5 10  1  0  0  0
  7  6  1  0  0  0
  6  8  1  0  0  0
  8  9  2  0  0  0
 10  9  1  0  0  0
 10 11  2  0  0  0
 25 22  1  0  0  0
 22 23  2  0  0  0
 22 24  2  0  0  0
 29 30  1  0  0  0
M  END
> <minimizedAffinity>
-8.29260

$$$$
5FNS_XYY_A_1614


 30 32  0  0  0  0  0  0  0  0999 V2000
   15.1906   66.4478   31.3264 C   0  0  0  0  0  0  0  0  0  0  0  0
   14.2028   65.7392   30.4072 C   0  0  0  0  0  0  0  0  0  0  0  0
   14.2915   65.7893   29.0107 C   0  0  0  0  0  0  0  0  0  0  0  0
   13.3702   65.1274   28.2038 C   0  0  0  0  0  0  0  0  0  0  0  0
   12.3295   64.3950   28.7920 C   0  0  0  0  0  0  0  0  0  0  0  0
   11.2961   63.6561   28.3119 N   0  0  0  0  0  0  0  0  0  0  0  0
   10.9176   63.3750   26.9344 C   0  0  0  0  0  0  0  0  0  0  0  0
   10.5667   63.1483   29.3395 N   0  0  0  0  0  0  0  0  0  0  0  0
   11.1319   63.5593   30.4617 N   0  0  0  0  0  0  0  0  0  0  0  0
   12.2195   64.3297   30.1759 C   0  0  0  0  0  0  0  0  0  0  0  0
   13.1601   65.0043   30.9881 C   0  0  0  0  0  0  0  0  0  0  0  0
   20.1258   63.0499   32.0448 Cl  0  0  0  0  0  0  0  0  0  0  0  0
   18.1970   64.7263   32.9768 C   0  0  0  0  0  0  0  0  0  0  0  0
   17.0579   65.5039   32.7884 C   0  0  0  0  0  0  0  0  0  0  0  0
   16.4365   65.6017   31.5474 C   0  0  0  0  0  0  0  0  0  0  0  0
   16.9768   64.9005   30.4769 C   0  0  0  0  0  0  0  0  0  0  0  0
   18.1059   64.1229   30.6407 C   0  0  0  0  0  0  0  0  0  0  0  0
   18.7106   64.0366   31.8816 C   0  0  0  0  0  0  0  0  0  0  0  0
   18.8461   64.6434   34.3408 C   0  0  0  0  0  0  0  0  0  0  0  0
   17.7739   62.6225   35.2749 C   0  0  0  0  0  0  0  0  0  0  0  0
   19.0162   63.2654   34.8207 N   0  0  0  0  0  0  0  0  0  0  0  0
   20.3959   62.8915   35.6188 S   0  0  0  0  0  0  0  0  0  0  0  0
   21.3905   63.8266   35.2011 O   0  0  0  0  0  0  0  0  0  0  0  0
   20.0822   62.7894   37.0083 O   0  0  0  0  0  0  0  0  0  0  0  0
   20.8552   61.2972   35.0343 C   0  0  0  0  0  0  0  0  0  0  0  0
   14.5959   66.9370   32.6433 C   0  0  0  0  0  0  0  0  0  0  0  0
   14.1354   68.3872   32.6005 C   0  0  0  0  0  0  0  0  0  0  0  0
   12.9490   68.5929   32.2840 O   0  0  0  0  0  0  0  0  0  0  0  0
   14.9560   69.2897   32.8793 O   0  0  0  0  0  0  0  0  0  0  0  0
   15.8364   69.0673   33.1101 H   0  0  0  0  0  0  0  0  0  0  0  0
 20 21  1  0  0  0
 18 12  1  0  0  0
 19 21  1  0  0  0
 21 22  1  0  0  0
 13 19  1  0  0  0
 14 13  2  0  0  0
 13 18  1  0  0  0
 15 14  1  0  0  0
  1 15  1  0  0  0
 15 16  2  0  0  0
 16 17  1  0  0  0
 17 18  2  0  0  0
 26  1  1  0  0  0
  2  1  1  0  0  0
 27 26  1  0  0  0
 28 27  2  0  0  0
 29 27  1  0  0  0
  3  2  2  0  0  0
  2 11  1  0  0  0
  4  3  1  0  0  0
  4  5  2  0  0  0
  6  5  1  0  0  0
  5 10  1  0  0  0
  7  6  1  0  0  0
  6  8  1  0  0  0
  8  9  2  0  0  0
 10  9  1  0  0  0
 10 11  2  0  0  0
 25 22  1  0  0  0
 22 23  2  0  0  0
 22 24  2  0  0  0
 29 30  1  0  0  0
M  END
> <minimizedAffinity>
-8.18672

$$$$
5FNS_XYY_A_1614


 30 32  0  0  0  0  0  0  0  0999 V2000
   14.8470   63.4027   27.0039 C   0  0  0  0  0  0  0  0  0  0  0  0
   14.3072   64.2683   28.1363 C   0  0  0  0  0  0  0  0  0  0  0  0
   14.7230   65.5881   28.3505 C   0  0  0  0  0  0  0  0  0  0  0  0
   14.2056   66.3481   29.3958 C   0  0  0  0  0  0  0  0  0  0  0  0
   13.2503   65.7893   30.2563 C   0  0  0  0  0  0  0  0  0  0  0  0
   12.5641   66.2404   31.3380 N   0  0  0  0  0  0  0  0  0  0  0  0
   12.6117   67.5409   31.9909 C   0  0  0  0  0  0  0  0  0  0  0  0
   11.7417   65.2673   31.8097 N   0  0  0  0  0  0  0  0  0  0  0  0
   11.9025   64.2086   31.0344 N   0  0  0  0  0  0  0  0  0  0  0  0
   12.8211   64.4813   30.0649 C   0  0  0  0  0  0  0  0  0  0  0  0
   13.3512   63.7166   29.0002 C   0  0  0  0  0  0  0  0  0  0  0  0
   10.4431   61.7332   23.2308 Cl  0  0  0  0  0  0  0  0  0  0  0  0
   12.2924   63.5075   24.1423 C   0  0  0  0  0  0  0  0  0  0  0  0
   13.3065   63.8718   25.0235 C   0  0  0  0  0  0  0  0  0  0  0  0
   13.7394   63.0181   26.0332 C   0  0  0  0  0  0  0  0  0  0  0  0
   13.1356   61.7729   26.1544 C   0  0  0  0  0  0  0  0  0  0  0  0
   12.1281   61.3905   25.2915 C   0  0  0  0  0  0  0  0  0  0  0  0
   11.7104   62.2516   24.2929 C   0  0  0  0  0  0  0  0  0  0  0  0
   11.8475   64.4618   23.0560 C   0  0  0  0  0  0  0  0  0  0  0  0
   11.2155   66.7427   23.7662 C   0  0  0  0  0  0  0  0  0  0  0  0
   12.2789   65.8471   23.2868 N   0  0  0  0  0  0  0  0  0  0  0  0
   13.4052   66.4815   22.2821 S   0  0  0  0  0  0  0  0  0  0  0  0
   14.0364   65.3892   21.6139 O   0  0  0  0  0  0  0  0  0  0  0  0
   12.7721   67.4970   21.5026 O   0  0  0  0  0  0  0  0  0  0  0  0
   14.5901   67.2461   23.3337 C   0  0  0  0  0  0  0  0  0  0  0  0
   15.6499   62.1880   27.4588 C   0  0  0  0  0  0  0  0  0  0  0  0
   16.9600   62.5481   28.1453 C   0  0  0  0  0  0  0  0  0  0  0  0
   16.9684   62.5276   29.3901 O   0  0  0  0  0  0  0  0  0  0  0  0
   17.9500   62.8436   27.4396 O   0  0  0  0  0  0  0  0  0  0  0  0
   17.8773   62.8400   26.5055 H   0  0  0  0  0  0  0  0  0  0  0  0
 20 21  1  0  0  0
 18 12  1  0  0  0
 19 21  1  0  0  0
 21 22  1  0  0  0
 13 19  1  0  0  0
 14 13  2  0  0  0
 13 18  1  0  0  0
 15 14  1  0  0  0
  1 15  1  0  0  0
 15 16  2  0  0  0
 16 17  1  0  0  0
 17 18  2  0  0  0
 26  1  1  0  0  0
  2  1  1  0  0  0
 27 26  1  0  0  0
 28 27  2  0  0  0
 29 27  1  0  0  0
  3  2  2  0  0  0
  2 11  1  0  0  0
  4  3  1  0  0  0
  4  5  2  0  0  0
  6  5  1  0  0  0
  5 10  1  0  0  0
  7  6  1  0  0  0
  6  8  1  0  0  0
  8  9  2  0  0  0
 10  9  1  0  0  0
 10 11  2  0  0  0
 25 22  1  0  0  0
 22 23  2  0  0  0
 22 24  2  0  0  0
 29 30  1  0  0  0
M  END
> <minimizedAffinity>
-7.68498

$$$$
5FNS_XYY_A_1614


 30 32  0  0  0  0  0  0  0  0999 V2000
   16.5757   64.9384   31.7649 C   0  0  0  0  0  0  0  0  0  0  0  0
   17.8114   64.4653   32.5213 C   0  0  0  0  0  0  0  0  0  0  0  0
   18.6947   65.3430   33.1617 C   0  0  0  0  0  0  0  0  0  0  0  0
   19.8130   64.8724   33.8443 C   0  0  0  0  0  0  0  0  0  0  0  0
   20.0684   63.4949   33.8958 C   0  0  0  0  0  0  0  0  0  0  0  0
   21.0371   62.7270   34.4583 N   0  0  0  0  0  0  0  0  0  0  0  0
   22.1998   63.1246   35.2393 C   0  0  0  0  0  0  0  0  0  0  0  0
   20.8024   61.4140   34.1998 N   0  0  0  0  0  0  0  0  0  0  0  0
   19.6946   61.3481   33.4814 N   0  0  0  0  0  0  0  0  0  0  0  0
   19.2069   62.6029   33.2683 C   0  0  0  0  0  0  0  0  0  0  0  0
   18.0728   63.0893   32.5778 C   0  0  0  0  0  0  0  0  0  0  0  0
   17.5384   64.4952   25.8239 Cl  0  0  0  0  0  0  0  0  0  0  0  0
   15.9103   64.6067   28.0001 C   0  0  0  0  0  0  0  0  0  0  0  0
   15.7115   64.7103   29.3740 C   0  0  0  0  0  0  0  0  0  0  0  0
   16.7778   64.8242   30.2604 C   0  0  0  0  0  0  0  0  0  0  0  0
   18.0691   64.8334   29.7485 C   0  0  0  0  0  0  0  0  0  0  0  0
   18.2899   64.7321   28.3895 C   0  0  0  0  0  0  0  0  0  0  0  0
   17.2181   64.6200   27.5223 C   0  0  0  0  0  0  0  0  0  0  0  0
   14.7267   64.4844   27.0659 C   0  0  0  0  0  0  0  0  0  0  0  0
   14.0982   62.1481   26.5630 C   0  0  0  0  0  0  0  0  0  0  0  0
   13.8532   63.3459   27.3805 N   0  0  0  0  0  0  0  0  0  0  0  0
   12.3070   63.6582   27.8188 S   0  0  0  0  0  0  0  0  0  0  0  0
   12.2313   65.0486   28.1337 O   0  0  0  0  0  0  0  0  0  0  0  0
   11.4509   63.1307   26.8045 O   0  0  0  0  0  0  0  0  0  0  0  0
   12.0472   62.7411   29.2972 C   0  0  0  0  0  0  0  0  0  0  0  0
   16.0748   66.3221   32.1668 C   0  0  0  0  0  0  0  0  0  0  0  0
   14.6290   66.3302   32.6430 C   0  0  0  0  0  0  0  0  0  0  0  0
   14.2146   67.3797   33.1692 O   0  0  0  0  0  0  0  0  0  0  0  0
   13.9364   65.2999   32.4875 O   0  0  0  0  0  0  0  0  0  0  0  0
   14.3092   64.5413   32.0831 H   0  0  0  0  0  0  0  0  0  0  0  0
 20 21  1  0  0  0
 18 12  1  0  0  0
 19 21  1  0  0  0
 21 22  1  0  0  0
 13 19  1  0  0  0
 14 13  2  0  0  0
 13 18  1  0  0  0
 15 14  1  0  0  0
  1 15  1  0  0  0
 15 16  2  0  0  0
 16 17  1  0  0  0
 17 18  2  0  0  0
 26  1  1  0  0  0
  2  1  1  0  0  0
 27 26  1  0  0  0
 28 27  2  0  0  0
 29 27  1  0  0  0
  3  2  2  0  0  0
  2 11  1  0  0  0
  4  3  1  0  0  0
  4  5  2  0  0  0
  6  5  1  0  0  0
  5 10  1  0  0  0
  7  6  1  0  0  0
  6  8  1  0  0  0
  8  9  2  0  0  0
 10  9  1  0  0  0
 10 11  2  0  0  0
 25 22  1  0  0  0
 22 23  2  0  0  0
 22 24  2  0  0  0
 29 30  1  0  0  0
M  END
> <minimizedAffinity>
-7.64110

$$$$
5FNS_XYY_A_1614


 30 32  0  0  0  0  0  0  0  0999 V2000
   15.0007   63.6837   26.9282 C   0  0  0  0  0  0  0  0  0  0  0  0
   14.5101   64.1978   28.2766 C   0  0  0  0  0  0  0  0  0  0  0  0
   13.2015   64.0035   28.7353 C   0  0  0  0  0  0  0  0  0  0  0  0
   12.7908   64.4874   29.9743 C   0  0  0  0  0  0  0  0  0  0  0  0
   13.6975   65.1848   30.7846 C   0  0  0  0  0  0  0  0  0  0  0  0
   13.6255   65.7699   32.0081 N   0  0  0  0  0  0  0  0  0  0  0  0
   12.4999   65.8642   32.9268 C   0  0  0  0  0  0  0  0  0  0  0  0
   14.8239   66.3203   32.3349 N   0  0  0  0  0  0  0  0  0  0  0  0
   15.6498   66.0859   31.3296 N   0  0  0  0  0  0  0  0  0  0  0  0
   15.0022   65.3908   30.3522 C   0  0  0  0  0  0  0  0  0  0  0  0
   15.4114   64.8953   29.0926 C   0  0  0  0  0  0  0  0  0  0  0  0
   10.4012   61.6803   23.5743 Cl  0  0  0  0  0  0  0  0  0  0  0  0
   12.1449   63.6121   24.3659 C   0  0  0  0  0  0  0  0  0  0  0  0
   13.2076   64.0530   25.1495 C   0  0  0  0  0  0  0  0  0  0  0  0
   13.8377   63.2157   26.0648 C   0  0  0  0  0  0  0  0  0  0  0  0
   13.3850   61.9084   26.1902 C   0  0  0  0  0  0  0  0  0  0  0  0
   12.3328   61.4495   25.4232 C   0  0  0  0  0  0  0  0  0  0  0  0
   11.7181   62.2954   24.5177 C   0  0  0  0  0  0  0  0  0  0  0  0
   11.4837   64.5507   23.3808 C   0  0  0  0  0  0  0  0  0  0  0  0
   13.1920   65.0685   21.6720 C   0  0  0  0  0  0  0  0  0  0  0  0
   11.9445   64.3614   21.9987 N   0  0  0  0  0  0  0  0  0  0  0  0
   10.8155   64.2369   20.8197 S   0  0  0  0  0  0  0  0  0  0  0  0
   11.0456   62.9998   20.1453 O   0  0  0  0  0  0  0  0  0  0  0  0
    9.5379   64.4751   21.4120 O   0  0  0  0  0  0  0  0  0  0  0  0
   11.1627   65.5496   19.7013 C   0  0  0  0  0  0  0  0  0  0  0  0
   16.1044   62.6340   27.0109 C   0  0  0  0  0  0  0  0  0  0  0  0
   17.4901   63.1838   26.7030 C   0  0  0  0  0  0  0  0  0  0  0  0
   17.7127   63.5246   25.5264 O   0  0  0  0  0  0  0  0  0  0  0  0
   18.3269   63.2655   27.6296 O   0  0  0  0  0  0  0  0  0  0  0  0
   18.0956   62.9914   28.4952 H   0  0  0  0  0  0  0  0  0  0  0  0
 20 21  1  0  0  0
 18 12  1  0  0  0
 19 21  1  0  0  0
 21 22  1  0  0  0
 13 19  1  0  0  0
 14 13  2  0  0  0
 13 18  1  0  0  0
 15 14  1  0  0  0
  1 15  1  0  0  0
 15 16  2  0  0  0
 16 17  1  0  0  0
 17 18  2  0  0  0
 26  1  1  0  0  0
  2  1  1  0  0  0
 27 26  1  0  0  0
 28 27  2  0  0  0
 29 27  1  0  0  0
  3  2  2  0  0  0
  2 11  1  0  0  0
  4  3  1  0  0  0
  4  5  2  0  0  0
  6  5  1  0  0  0
  5 10  1  0  0  0
  7  6  1  0  0  0
  6  8  1  0  0  0
  8  9  2  0  0  0
 10  9  1  0  0  0
 10 11  2  0  0  0
 25 22  1  0  0  0
 22 23  2  0  0  0
 22 24  2  0  0  0
 29 30  1  0  0  0
M  END
> <minimizedAffinity>
-7.28380

$$$$
5FNS_XYY_A_1614


 30 32  0  0  0  0  0  0  0  0999 V2000
   15.1530   65.7817   31.0308 C   0  0  0  0  0  0  0  0  0  0  0  0
   14.6961   65.2211   29.6892 C   0  0  0  0  0  0  0  0  0  0  0  0
   13.8643   64.1004   29.5757 C   0  0  0  0  0  0  0  0  0  0  0  0
   13.4671   63.6184   28.3315 C   0  0  0  0  0  0  0  0  0  0  0  0
   13.9042   64.2603   27.1644 C   0  0  0  0  0  0  0  0  0  0  0  0
   13.7091   64.0562   25.8360 N   0  0  0  0  0  0  0  0  0  0  0  0
   12.9289   63.0297   25.1596 C   0  0  0  0  0  0  0  0  0  0  0  0
   14.3786   64.9933   25.1152 N   0  0  0  0  0  0  0  0  0  0  0  0
   14.9919   65.7861   25.9773 N   0  0  0  0  0  0  0  0  0  0  0  0
   14.7304   65.3746   27.2502 C   0  0  0  0  0  0  0  0  0  0  0  0
   15.1285   65.8582   28.5179 C   0  0  0  0  0  0  0  0  0  0  0  0
   20.6278   63.6281   32.3748 Cl  0  0  0  0  0  0  0  0  0  0  0  0
   18.2019   64.6465   33.0657 C   0  0  0  0  0  0  0  0  0  0  0  0
   16.9436   65.1400   32.7328 C   0  0  0  0  0  0  0  0  0  0  0  0
   16.5257   65.2441   31.4099 C   0  0  0  0  0  0  0  0  0  0  0  0
   17.3960   64.8418   30.4047 C   0  0  0  0  0  0  0  0  0  0  0  0
   18.6486   64.3490   30.7116 C   0  0  0  0  0  0  0  0  0  0  0  0
   19.0478   64.2519   32.0324 C   0  0  0  0  0  0  0  0  0  0  0  0
   18.6226   64.5474   34.5155 C   0  0  0  0  0  0  0  0  0  0  0  0
   17.5789   62.4797   35.3767 C   0  0  0  0  0  0  0  0  0  0  0  0
   18.8159   63.1643   34.9714 N   0  0  0  0  0  0  0  0  0  0  0  0
   20.1823   62.8095   35.8005 S   0  0  0  0  0  0  0  0  0  0  0  0
   21.0217   63.9627   35.7422 O   0  0  0  0  0  0  0  0  0  0  0  0
   19.7975   62.2974   37.0770 O   0  0  0  0  0  0  0  0  0  0  0  0
   20.9554   61.5159   34.8931 C   0  0  0  0  0  0  0  0  0  0  0  0
   14.1462   65.6175   32.1650 C   0  0  0  0  0  0  0  0  0  0  0  0
   13.5218   66.9298   32.6180 C   0  0  0  0  0  0  0  0  0  0  0  0
   14.2853   67.7712   33.1271 O   0  0  0  0  0  0  0  0  0  0  0  0
   12.2921   67.0990   32.4616 O   0  0  0  0  0  0  0  0  0  0  0  0
   11.7723   66.4244   32.0708 H   0  0  0  0  0  0  0  0  0  0  0  0
 20 21  1  0  0  0
 18 12  1  0  0  0
 19 21  1  0  0  0
 21 22  1  0  0  0
 13 19  1  0  0  0
 14 13  2  0  0  0
 13 18  1  0  0  0
 15 14  1  0  0  0
  1 15  1  0  0  0
 15 16  2  0  0  0
 16 17  1  0  0  0
 17 18  2  0  0  0
 26  1  1  0  0  0
  2  1  1  0  0  0
 27 26  1  0  0  0
 28 27  2  0  0  0
 29 27  1  0  0  0
  3  2  2  0  0  0
  2 11  1  0  0  0
  4  3  1  0  0  0
  4  5  2  0  0  0
  6  5  1  0  0  0
  5 10  1  0  0  0
  7  6  1  0  0  0
  6  8  1  0  0  0
  8  9  2  0  0  0
 10  9  1  0  0  0
 10 11  2  0  0  0
 25 22  1  0  0  0
 22 23  2  0  0  0
 22 24  2  0  0  0
 29 30  1  0  0  0
M  END
> <minimizedAffinity>
-7.20046

$$$$
