5MNN_MRZ_A_302


 12 12  0  0  0  0  0  0  0  0999 V2000
   -1.7429  -13.3023  -14.3210 C   0  0  0  0  0  0  0  0  0  0  0  0
   -2.5600  -12.8387  -15.4960 C   0  0  0  0  0  0  0  0  0  0  0  0
   -1.8288  -13.0849  -16.8043 C   0  0  0  0  0  0  0  0  0  0  0  0
   -1.5654  -14.5275  -16.9854 N   0  0  0  0  0  0  0  0  0  0  0  0
   -0.6482  -14.9225  -15.8818 C   0  0  0  0  0  0  0  0  0  0  0  0
   -1.2922  -14.7418  -14.5186 C   0  0  0  0  0  0  0  0  0  0  0  0
   -1.9436  -15.3004  -18.0159 C   0  0  0  0  0  0  0  0  0  0  0  0
   -2.7377  -14.8306  -18.9589 N   0  0  0  0  0  0  0  0  0  0  0  0
   -1.6077  -16.5698  -18.0832 N   0  0  0  0  0  0  0  0  0  0  0  0
   -3.0070  -15.4087  -19.7089 H   0  0  0  0  0  0  0  0  0  0  0  0
   -3.0609  -13.9018  -18.9127 H   0  0  0  0  0  0  0  0  0  0  0  0
   -1.0168  -16.9595  -17.3989 H   0  0  0  0  0  0  0  0  0  0  0  0
  9  7  2  0  0  0
  5  6  1  0  0  0
  5  4  1  0  0  0
  6  1  1  0  0  0
  7  4  1  0  0  0
  7  8  1  0  0  0
  4  3  1  0  0  0
  1  2  1  0  0  0
  3  2  1  0  0  0
  8 10  1  0  0  0
  8 11  1  0  0  0
  9 12  1  0  0  0
M  END
> <minimizedAffinity>
-5.80762

$$$$
5MNN_MRZ_A_302


 12 12  0  0  0  0  0  0  0  0999 V2000
   -0.4815  -13.1206  -14.8052 C   0  0  0  0  0  0  0  0  0  0  0  0
   -0.3161  -14.6070  -14.9676 C   0  0  0  0  0  0  0  0  0  0  0  0
   -1.5590  -15.2346  -15.5743 C   0  0  0  0  0  0  0  0  0  0  0  0
   -1.8241  -14.6665  -16.9122 N   0  0  0  0  0  0  0  0  0  0  0  0
   -2.1137  -13.2222  -16.6987 C   0  0  0  0  0  0  0  0  0  0  0  0
   -0.9203  -12.4858  -16.1164 C   0  0  0  0  0  0  0  0  0  0  0  0
   -1.9364  -15.3339  -18.0717 C   0  0  0  0  0  0  0  0  0  0  0  0
   -2.4436  -14.7519  -19.1415 N   0  0  0  0  0  0  0  0  0  0  0  0
   -1.6244  -16.6078  -18.1650 N   0  0  0  0  0  0  0  0  0  0  0  0
   -2.5200  -15.2535  -19.9852 H   0  0  0  0  0  0  0  0  0  0  0  0
   -2.7458  -13.8160  -19.0962 H   0  0  0  0  0  0  0  0  0  0  0  0
   -1.2434  -17.0793  -17.3893 H   0  0  0  0  0  0  0  0  0  0  0  0
  9  7  2  0  0  0
  5  6  1  0  0  0
  5  4  1  0  0  0
  6  1  1  0  0  0
  7  4  1  0  0  0
  7  8  1  0  0  0
  4  3  1  0  0  0
  1  2  1  0  0  0
  3  2  1  0  0  0
  8 10  1  0  0  0
  8 11  1  0  0  0
  9 12  1  0  0  0
M  END
> <minimizedAffinity>
-5.77034

$$$$
5MNN_MRZ_A_302


 12 12  0  0  0  0  0  0  0  0999 V2000
   -2.3830  -12.6023  -14.8082 C   0  0  0  0  0  0  0  0  0  0  0  0
   -2.9258  -12.9587  -16.1652 C   0  0  0  0  0  0  0  0  0  0  0  0
   -1.8200  -13.4348  -17.0910 C   0  0  0  0  0  0  0  0  0  0  0  0
   -1.1687  -14.6413  -16.5402 N   0  0  0  0  0  0  0  0  0  0  0  0
   -0.5298  -14.2204  -15.2634 C   0  0  0  0  0  0  0  0  0  0  0  0
   -1.5542  -13.7480  -14.2469 C   0  0  0  0  0  0  0  0  0  0  0  0
   -1.0397  -15.8388  -17.1333 C   0  0  0  0  0  0  0  0  0  0  0  0
   -0.0117  -16.6206  -16.8640 N   0  0  0  0  0  0  0  0  0  0  0  0
   -1.8815  -16.2417  -18.0595 N   0  0  0  0  0  0  0  0  0  0  0  0
    0.0700  -17.4962  -17.3065 H   0  0  0  0  0  0  0  0  0  0  0  0
    0.6737  -16.3284  -16.2205 H   0  0  0  0  0  0  0  0  0  0  0  0
   -2.6617  -15.6874  -18.2904 H   0  0  0  0  0  0  0  0  0  0  0  0
  9  7  2  0  0  0
  5  6  1  0  0  0
  5  4  1  0  0  0
  6  1  1  0  0  0
  7  4  1  0  0  0
  7  8  1  0  0  0
  4  3  1  0  0  0
  1  2  1  0  0  0
  3  2  1  0  0  0
  8 10  1  0  0  0
  8 11  1  0  0  0
  9 12  1  0  0  0
M  END
> <minimizedAffinity>
-5.38860

$$$$
5MNN_MRZ_A_302


 12 12  0  0  0  0  0  0  0  0999 V2000
   -1.5794  -15.4060  -16.9689 C   0  0  0  0  0  0  0  0  0  0  0  0
   -1.8302  -13.9575  -17.2884 C   0  0  0  0  0  0  0  0  0  0  0  0
   -1.9654  -13.1313  -16.0212 C   0  0  0  0  0  0  0  0  0  0  0  0
   -0.7245  -13.2035  -15.2224 N   0  0  0  0  0  0  0  0  0  0  0  0
   -0.5785  -14.6268  -14.8123 C   0  0  0  0  0  0  0  0  0  0  0  0
   -0.4075  -15.5458  -16.0089 C   0  0  0  0  0  0  0  0  0  0  0  0
    0.0403  -12.1788  -14.8131 C   0  0  0  0  0  0  0  0  0  0  0  0
    0.2272  -11.1237  -15.5828 N   0  0  0  0  0  0  0  0  0  0  0  0
    0.6944  -12.2212  -13.6733 N   0  0  0  0  0  0  0  0  0  0  0  0
    0.7906  -10.3796  -15.2697 H   0  0  0  0  0  0  0  0  0  0  0  0
   -0.1967  -11.0806  -16.4703 H   0  0  0  0  0  0  0  0  0  0  0  0
    0.5828  -12.9912  -13.0700 H   0  0  0  0  0  0  0  0  0  0  0  0
  9  7  2  0  0  0
  5  6  1  0  0  0
  5  4  1  0  0  0
  6  1  1  0  0  0
  7  4  1  0  0  0
  7  8  1  0  0  0
  4  3  1  0  0  0
  1  2  1  0  0  0
  3  2  1  0  0  0
  8 10  1  0  0  0
  8 11  1  0  0  0
  9 12  1  0  0  0
M  END
> <minimizedAffinity>
-4.69893

$$$$
5MNN_MRZ_A_302


 12 12  0  0  0  0  0  0  0  0999 V2000
   -2.1882  -14.7608  -16.7920 C   0  0  0  0  0  0  0  0  0  0  0  0
   -1.6369  -15.2810  -15.4926 C   0  0  0  0  0  0  0  0  0  0  0  0
   -0.3610  -14.5528  -15.1069 C   0  0  0  0  0  0  0  0  0  0  0  0
   -0.6223  -13.1088  -14.9345 N   0  0  0  0  0  0  0  0  0  0  0  0
   -1.0382  -12.6010  -16.2703 C   0  0  0  0  0  0  0  0  0  0  0  0
   -2.3280  -13.2467  -16.7447 C   0  0  0  0  0  0  0  0  0  0  0  0
   -0.3882  -12.3646  -13.8419 C   0  0  0  0  0  0  0  0  0  0  0  0
    0.8300  -11.9469  -13.5554 N   0  0  0  0  0  0  0  0  0  0  0  0
   -1.3410  -12.0936  -12.9773 N   0  0  0  0  0  0  0  0  0  0  0  0
    0.9869  -11.4018  -12.7507 H   0  0  0  0  0  0  0  0  0  0  0  0
    1.5821  -12.1804  -14.1462 H   0  0  0  0  0  0  0  0  0  0  0  0
   -2.2639  -12.3876  -13.1536 H   0  0  0  0  0  0  0  0  0  0  0  0
  9  7  2  0  0  0
  5  6  1  0  0  0
  5  4  1  0  0  0
  6  1  1  0  0  0
  7  4  1  0  0  0
  7  8  1  0  0  0
  4  3  1  0  0  0
  1  2  1  0  0  0
  3  2  1  0  0  0
  8 10  1  0  0  0
  8 11  1  0  0  0
  9 12  1  0  0  0
M  END
> <minimizedAffinity>
-4.57610

$$$$
5MNN_MRZ_A_302


 12 12  0  0  0  0  0  0  0  0999 V2000
   -0.9659  -15.8704  -16.1274 C   0  0  0  0  0  0  0  0  0  0  0  0
   -1.5627  -15.2529  -17.3627 C   0  0  0  0  0  0  0  0  0  0  0  0
   -2.5020  -14.1134  -17.0077 C   0  0  0  0  0  0  0  0  0  0  0  0
   -1.7742  -13.0501  -16.2846 N   0  0  0  0  0  0  0  0  0  0  0  0
   -1.3117  -13.6597  -15.0080 C   0  0  0  0  0  0  0  0  0  0  0  0
   -0.3387  -14.8010  -15.2456 C   0  0  0  0  0  0  0  0  0  0  0  0
   -1.6756  -11.7553  -16.6255 C   0  0  0  0  0  0  0  0  0  0  0  0
   -2.7306  -11.0834  -17.0448 N   0  0  0  0  0  0  0  0  0  0  0  0
   -0.5177  -11.1325  -16.6334 N   0  0  0  0  0  0  0  0  0  0  0  0
   -2.6436  -10.1342  -17.2915 H   0  0  0  0  0  0  0  0  0  0  0  0
   -3.6049  -11.5310  -17.1111 H   0  0  0  0  0  0  0  0  0  0  0  0
    0.2941  -11.5985  -16.3283 H   0  0  0  0  0  0  0  0  0  0  0  0
  9  7  2  0  0  0
  5  6  1  0  0  0
  5  4  1  0  0  0
  6  1  1  0  0  0
  7  4  1  0  0  0
  7  8  1  0  0  0
  4  3  1  0  0  0
  1  2  1  0  0  0
  3  2  1  0  0  0
  8 10  1  0  0  0
  8 11  1  0  0  0
  9 12  1  0  0  0
M  END
> <minimizedAffinity>
-4.47885

$$$$
5MNN_MRZ_A_302


 12 12  0  0  0  0  0  0  0  0999 V2000
   -2.2341  -14.8058  -16.5072 C   0  0  0  0  0  0  0  0  0  0  0  0
   -2.5917  -13.3564  -16.3220 C   0  0  0  0  0  0  0  0  0  0  0  0
   -2.1339  -12.8469  -14.9664 C   0  0  0  0  0  0  0  0  0  0  0  0
   -0.6666  -12.9642  -14.8390 N   0  0  0  0  0  0  0  0  0  0  0  0
   -0.3613  -14.4199  -14.8937 C   0  0  0  0  0  0  0  0  0  0  0  0
   -0.7560  -15.0312  -16.2265 C   0  0  0  0  0  0  0  0  0  0  0  0
    0.2080  -11.9809  -14.5729 C   0  0  0  0  0  0  0  0  0  0  0  0
    0.8036  -11.9041  -13.3982 N   0  0  0  0  0  0  0  0  0  0  0  0
    0.4420  -11.0166  -15.4355 N   0  0  0  0  0  0  0  0  0  0  0  0
    1.4428  -11.1775  -13.2170 H   0  0  0  0  0  0  0  0  0  0  0  0
    0.6088  -12.5732  -12.7029 H   0  0  0  0  0  0  0  0  0  0  0  0
    0.0171  -11.0365  -16.3234 H   0  0  0  0  0  0  0  0  0  0  0  0
  9  7  2  0  0  0
  5  6  1  0  0  0
  5  4  1  0  0  0
  6  1  1  0  0  0
  7  4  1  0  0  0
  7  8  1  0  0  0
  4  3  1  0  0  0
  1  2  1  0  0  0
  3  2  1  0  0  0
  8 10  1  0  0  0
  8 11  1  0  0  0
  9 12  1  0  0  0
M  END
> <minimizedAffinity>
-4.45166

$$$$
5MNN_MRZ_A_302


 12 12  0  0  0  0  0  0  0  0999 V2000
   -1.6611  -15.3067  -17.3168 C   0  0  0  0  0  0  0  0  0  0  0  0
   -1.9501  -13.8334  -17.4122 C   0  0  0  0  0  0  0  0  0  0  0  0
   -2.4288  -13.2807  -16.0810 C   0  0  0  0  0  0  0  0  0  0  0  0
   -1.3943  -13.4662  -15.0424 N   0  0  0  0  0  0  0  0  0  0  0  0
   -1.2293  -14.9365  -14.8804 C   0  0  0  0  0  0  0  0  0  0  0  0
   -0.7240  -15.5928  -16.1530 C   0  0  0  0  0  0  0  0  0  0  0  0
   -0.8241  -12.5167  -14.2836 C   0  0  0  0  0  0  0  0  0  0  0  0
    0.4456  -12.6004  -13.9351 N   0  0  0  0  0  0  0  0  0  0  0  0
   -1.5227  -11.5166  -13.7931 N   0  0  0  0  0  0  0  0  0  0  0  0
    0.8506  -11.8967  -13.3782 H   0  0  0  0  0  0  0  0  0  0  0  0
    0.9880  -13.3664  -14.2319 H   0  0  0  0  0  0  0  0  0  0  0  0
   -2.4736  -11.4182  -14.0285 H   0  0  0  0  0  0  0  0  0  0  0  0
  9  7  2  0  0  0
  5  6  1  0  0  0
  5  4  1  0  0  0
  6  1  1  0  0  0
  7  4  1  0  0  0
  7  8  1  0  0  0
  4  3  1  0  0  0
  1  2  1  0  0  0
  3  2  1  0  0  0
  8 10  1  0  0  0
  8 11  1  0  0  0
  9 12  1  0  0  0
M  END
> <minimizedAffinity>
-4.39106

$$$$
5MNN_MRZ_A_302


 12 12  0  0  0  0  0  0  0  0999 V2000
   -1.6338  -10.7420  -14.5264 C   0  0  0  0  0  0  0  0  0  0  0  0
   -1.5102  -11.1164  -15.9782 C   0  0  0  0  0  0  0  0  0  0  0  0
   -0.8067  -12.4524  -16.1425 C   0  0  0  0  0  0  0  0  0  0  0  0
   -1.5689  -13.5240  -15.4688 N   0  0  0  0  0  0  0  0  0  0  0  0
   -1.5579  -13.1906  -14.0183 C   0  0  0  0  0  0  0  0  0  0  0  0
   -2.2648  -11.8772  -13.7341 C   0  0  0  0  0  0  0  0  0  0  0  0
   -2.0459  -14.6521  -16.0187 C   0  0  0  0  0  0  0  0  0  0  0  0
   -2.7671  -14.6147  -17.1227 N   0  0  0  0  0  0  0  0  0  0  0  0
   -1.8843  -15.8213  -15.4393 N   0  0  0  0  0  0  0  0  0  0  0  0
   -3.1104  -15.4500  -17.5149 H   0  0  0  0  0  0  0  0  0  0  0  0
   -2.9620  -13.7517  -17.5544 H   0  0  0  0  0  0  0  0  0  0  0  0
   -1.3530  -15.8922  -14.6136 H   0  0  0  0  0  0  0  0  0  0  0  0
  9  7  2  0  0  0
  5  6  1  0  0  0
  5  4  1  0  0  0
  6  1  1  0  0  0
  7  4  1  0  0  0
  7  8  1  0  0  0
  4  3  1  0  0  0
  1  2  1  0  0  0
  3  2  1  0  0  0
  8 10  1  0  0  0
  8 11  1  0  0  0
  9 12  1  0  0  0
M  END
> <minimizedAffinity>
-4.13416

$$$$
5MNN_MRZ_A_302


 12 12  0  0  0  0  0  0  0  0999 V2000
   -2.1590  -10.6775  -13.8289 C   0  0  0  0  0  0  0  0  0  0  0  0
   -1.2050  -11.8232  -13.6280 C   0  0  0  0  0  0  0  0  0  0  0  0
   -1.8094  -13.1313  -14.1081 C   0  0  0  0  0  0  0  0  0  0  0  0
   -2.1209  -13.0578  -15.5506 N   0  0  0  0  0  0  0  0  0  0  0  0
   -3.1638  -12.0059  -15.6958 C   0  0  0  0  0  0  0  0  0  0  0  0
   -2.6547  -10.6412  -15.2668 C   0  0  0  0  0  0  0  0  0  0  0  0
   -1.6762  -13.8717  -16.5214 C   0  0  0  0  0  0  0  0  0  0  0  0
   -0.9284  -14.9204  -16.2360 N   0  0  0  0  0  0  0  0  0  0  0  0
   -1.8975  -13.6125  -17.7912 N   0  0  0  0  0  0  0  0  0  0  0  0
   -0.6093  -15.5086  -16.9580 H   0  0  0  0  0  0  0  0  0  0  0  0
   -0.6893  -15.1147  -15.3009 H   0  0  0  0  0  0  0  0  0  0  0  0
   -2.4505  -12.8390  -18.0467 H   0  0  0  0  0  0  0  0  0  0  0  0
  9  7  2  0  0  0
  5  6  1  0  0  0
  5  4  1  0  0  0
  6  1  1  0  0  0
  7  4  1  0  0  0
  7  8  1  0  0  0
  4  3  1  0  0  0
  1  2  1  0  0  0
  3  2  1  0  0  0
  8 10  1  0  0  0
  8 11  1  0  0  0
  9 12  1  0  0  0
M  END
> <minimizedAffinity>
-4.10568

$$$$
