6EL5_PU1_A_301


 32 34  0  0  0  0  0  0  0  0999 V2000
    1.7093   34.8167   25.2603 C   0  0  0  0  0  0  0  0  0  0  0  0
    0.5238   34.3525   25.4994 N   0  0  0  0  0  0  0  0  0  0  0  0
   -0.2925   34.6758   24.4882 C   0  0  0  0  0  0  0  0  0  0  0  0
   -1.6374   34.4266   24.2041 C   0  0  0  0  0  0  0  0  0  0  0  0
   -2.4319   33.7682   25.1218 N   0  0  0  0  0  0  0  0  0  0  0  0
    0.4680   35.4248   23.5843 C   0  0  0  0  0  0  0  0  0  0  0  0
   -0.0900   35.8632   22.4773 N   0  0  0  0  0  0  0  0  0  0  0  0
   -1.3265   35.5539   22.2027 C   0  0  0  0  0  0  0  0  0  0  0  0
   -2.1193   34.8826   23.0411 N   0  0  0  0  0  0  0  0  0  0  0  0
    1.7244   35.5249   24.0935 N   0  0  0  0  0  0  0  0  0  0  0  0
   -1.7725   36.0105   21.0321 F   0  0  0  0  0  0  0  0  0  0  0  0
   -2.0439   33.4463   25.9674 H   0  0  0  0  0  0  0  0  0  0  0  0
   -3.3863   33.6208   24.9306 H   0  0  0  0  0  0  0  0  0  0  0  0
    2.8809   34.5688   26.1849 C   0  0  0  0  0  0  0  0  0  0  0  0
    2.3385   31.7912   24.7113 Cl  0  0  0  0  0  0  0  0  0  0  0  0
    3.8685   32.6239   24.7910 C   0  0  0  0  0  0  0  0  0  0  0  0
    4.9935   31.9989   24.2183 C   0  0  0  0  0  0  0  0  0  0  0  0
    6.2383   32.6410   24.2470 C   0  0  0  0  0  0  0  0  0  0  0  0
    6.3885   33.8388   24.9493 C   0  0  0  0  0  0  0  0  0  0  0  0
    5.2698   34.4456   25.5388 C   0  0  0  0  0  0  0  0  0  0  0  0
    4.0142   33.8500   25.4728 C   0  0  0  0  0  0  0  0  0  0  0  0
    4.8403   30.9138   23.3946 O   0  0  0  0  0  0  0  0  0  0  0  0
    4.8149   29.5930   23.8823 C   0  0  0  0  0  0  0  0  0  0  0  0
    7.3543   32.0433   23.7207 O   0  0  0  0  0  0  0  0  0  0  0  0
    7.6938   32.1796   22.3333 C   0  0  0  0  0  0  0  0  0  0  0  0
    7.6418   34.3822   25.0326 O   0  0  0  0  0  0  0  0  0  0  0  0
    7.8091   35.6584   25.6726 C   0  0  0  0  0  0  0  0  0  0  0  0
    2.8301   36.2743   23.4626 C   0  0  0  0  0  0  0  0  0  0  0  0
    2.9423   37.6983   24.0299 C   0  0  0  0  0  0  0  0  0  0  0  0
    4.2692   37.9335   24.7520 C   0  0  0  0  0  0  0  0  0  0  0  0
    4.1503   37.9512   26.2307 C   0  0  0  0  0  0  0  0  0  0  0  0
    4.0616   37.9133   27.4078 C   0  0  0  0  0  0  0  0  0  0  0  0
 15 16  1  0  0  0
 16 17  2  0  0  0
 16 21  1  0  0  0
 17 22  1  0  0  0
 17 18  1  0  0  0
 22 23  1  0  0  0
 18 24  1  0  0  0
 18 19  2  0  0  0
 24 25  1  0  0  0
 19 26  1  0  0  0
 19 20  1  0  0  0
 26 27  1  0  0  0
 20 21  2  0  0  0
 21 14  1  0  0  0
 14  1  1  0  0  0
  1  2  2  0  0  0
  1 10  1  0  0  0
  2  3  1  0  0  0
  3  4  2  0  0  0
  3  6  1  0  0  0
  4  5  1  0  0  0
  4  9  1  0  0  0
  6  7  2  0  0  0
  6 10  1  0  0  0
  7  8  1  0  0  0
  8  9  2  0  0  0
  8 11  1  0  0  0
 10 28  1  0  0  0
 28 29  1  0  0  0
 29 30  1  0  0  0
 30 31  1  0  0  0
 31 32  3  0  0  0
  5 12  1  0  0  0
  5 13  1  0  0  0
M  END
> <minimizedAffinity>
-8.52819

$$$$
6EL5_PU1_A_301


 32 34  0  0  0  0  0  0  0  0999 V2000
    1.7515   35.5938   25.6479 C   0  0  0  0  0  0  0  0  0  0  0  0
    2.3008   36.7559   25.8086 N   0  0  0  0  0  0  0  0  0  0  0  0
    1.5814   37.6812   25.1609 C   0  0  0  0  0  0  0  0  0  0  0  0
    1.6850   39.0662   25.0101 C   0  0  0  0  0  0  0  0  0  0  0  0
    2.7632   39.7451   25.5425 N   0  0  0  0  0  0  0  0  0  0  0  0
    0.5300   37.0039   24.5345 C   0  0  0  0  0  0  0  0  0  0  0  0
   -0.3504   37.6835   23.8331 N   0  0  0  0  0  0  0  0  0  0  0  0
   -0.2713   38.9833   23.7696 C   0  0  0  0  0  0  0  0  0  0  0  0
    0.7299   39.6854   24.3051 N   0  0  0  0  0  0  0  0  0  0  0  0
    0.6609   35.6839   24.8320 N   0  0  0  0  0  0  0  0  0  0  0  0
   -1.2439   39.5713   23.0725 F   0  0  0  0  0  0  0  0  0  0  0  0
    3.4472   39.2575   26.0559 H   0  0  0  0  0  0  0  0  0  0  0  0
    2.8479   40.7168   25.4087 H   0  0  0  0  0  0  0  0  0  0  0  0
    2.2893   34.3425   26.3066 C   0  0  0  0  0  0  0  0  0  0  0  0
    1.7870   31.6062   24.7443 Cl  0  0  0  0  0  0  0  0  0  0  0  0
    3.2758   32.5136   24.7630 C   0  0  0  0  0  0  0  0  0  0  0  0
    4.3893   31.9737   24.0900 C   0  0  0  0  0  0  0  0  0  0  0  0
    5.6000   32.6782   24.0676 C   0  0  0  0  0  0  0  0  0  0  0  0
    5.7377   33.8510   24.8134 C   0  0  0  0  0  0  0  0  0  0  0  0
    4.6325   34.3724   25.5017 C   0  0  0  0  0  0  0  0  0  0  0  0
    3.4063   33.7153   25.4898 C   0  0  0  0  0  0  0  0  0  0  0  0
    4.2349   30.9184   23.2287 O   0  0  0  0  0  0  0  0  0  0  0  0
    4.4887   29.5873   23.6119 C   0  0  0  0  0  0  0  0  0  0  0  0
    6.7062   32.1629   23.4428 O   0  0  0  0  0  0  0  0  0  0  0  0
    7.5560   31.2061   24.0918 C   0  0  0  0  0  0  0  0  0  0  0  0
    6.9653   34.4552   24.8401 O   0  0  0  0  0  0  0  0  0  0  0  0
    7.5365   34.8214   26.1074 C   0  0  0  0  0  0  0  0  0  0  0  0
   -0.2284   34.6166   24.3295 C   0  0  0  0  0  0  0  0  0  0  0  0
   -1.5999   34.6526   25.0222 C   0  0  0  0  0  0  0  0  0  0  0  0
   -1.9581   33.3159   25.6722 C   0  0  0  0  0  0  0  0  0  0  0  0
   -1.1965   33.0314   26.9132 C   0  0  0  0  0  0  0  0  0  0  0  0
   -0.5924   32.7541   27.8894 C   0  0  0  0  0  0  0  0  0  0  0  0
 15 16  1  0  0  0
 16 17  2  0  0  0
 16 21  1  0  0  0
 17 22  1  0  0  0
 17 18  1  0  0  0
 22 23  1  0  0  0
 18 24  1  0  0  0
 18 19  2  0  0  0
 24 25  1  0  0  0
 19 26  1  0  0  0
 19 20  1  0  0  0
 26 27  1  0  0  0
 20 21  2  0  0  0
 21 14  1  0  0  0
 14  1  1  0  0  0
  1  2  2  0  0  0
  1 10  1  0  0  0
  2  3  1  0  0  0
  3  4  2  0  0  0
  3  6  1  0  0  0
  4  5  1  0  0  0
  4  9  1  0  0  0
  6  7  2  0  0  0
  6 10  1  0  0  0
  7  8  1  0  0  0
  8  9  2  0  0  0
  8 11  1  0  0  0
 10 28  1  0  0  0
 28 29  1  0  0  0
 29 30  1  0  0  0
 30 31  1  0  0  0
 31 32  3  0  0  0
  5 12  1  0  0  0
  5 13  1  0  0  0
M  END
> <minimizedAffinity>
-8.49666

$$$$
6EL5_PU1_A_301


 32 34  0  0  0  0  0  0  0  0999 V2000
    4.2102   33.4246   25.1529 C   0  0  0  0  0  0  0  0  0  0  0  0
    3.9707   32.2395   24.6877 N   0  0  0  0  0  0  0  0  0  0  0  0
    5.0502   31.7921   24.0338 C   0  0  0  0  0  0  0  0  0  0  0  0
    5.3631   30.6044   23.3679 C   0  0  0  0  0  0  0  0  0  0  0  0
    4.4090   29.6169   23.2215 N   0  0  0  0  0  0  0  0  0  0  0  0
    6.0033   32.8143   24.0889 C   0  0  0  0  0  0  0  0  0  0  0  0
    7.1802   32.6322   23.5313 N   0  0  0  0  0  0  0  0  0  0  0  0
    7.4712   31.4869   22.9804 C   0  0  0  0  0  0  0  0  0  0  0  0
    6.5941   30.4884   22.8543 N   0  0  0  0  0  0  0  0  0  0  0  0
    5.4531   33.8479   24.7796 N   0  0  0  0  0  0  0  0  0  0  0  0
    8.7081   31.3980   22.4908 F   0  0  0  0  0  0  0  0  0  0  0  0
    3.5134   29.7359   23.6127 H   0  0  0  0  0  0  0  0  0  0  0  0
    4.6244   28.7940   22.7259 H   0  0  0  0  0  0  0  0  0  0  0  0
    3.2094   34.1845   25.9954 C   0  0  0  0  0  0  0  0  0  0  0  0
    0.4806   32.5330   25.9143 Cl  0  0  0  0  0  0  0  0  0  0  0  0
    0.7969   34.0258   25.0706 C   0  0  0  0  0  0  0  0  0  0  0  0
   -0.2046   34.5300   24.2179 C   0  0  0  0  0  0  0  0  0  0  0  0
    0.0031   35.7346   23.5335 C   0  0  0  0  0  0  0  0  0  0  0  0
    1.2458   36.3685   23.6002 C   0  0  0  0  0  0  0  0  0  0  0  0
    2.2487   35.8496   24.4322 C   0  0  0  0  0  0  0  0  0  0  0  0
    2.0409   34.6840   25.1628 C   0  0  0  0  0  0  0  0  0  0  0  0
   -1.4753   34.0171   24.2608 O   0  0  0  0  0  0  0  0  0  0  0  0
   -2.4073   34.3900   25.2484 C   0  0  0  0  0  0  0  0  0  0  0  0
   -0.9441   36.2335   22.6772 O   0  0  0  0  0  0  0  0  0  0  0  0
   -1.2627   35.5723   21.4443 C   0  0  0  0  0  0  0  0  0  0  0  0
    1.4364   37.4906   22.8403 O   0  0  0  0  0  0  0  0  0  0  0  0
    2.1635   37.3830   21.6050 C   0  0  0  0  0  0  0  0  0  0  0  0
    6.1197   35.1424   25.0284 C   0  0  0  0  0  0  0  0  0  0  0  0
    6.8840   35.1362   26.3618 C   0  0  0  0  0  0  0  0  0  0  0  0
    8.1093   36.0501   26.3338 C   0  0  0  0  0  0  0  0  0  0  0  0
    7.9175   37.2830   25.5311 C   0  0  0  0  0  0  0  0  0  0  0  0
    7.8063   38.2852   24.9162 C   0  0  0  0  0  0  0  0  0  0  0  0
 15 16  1  0  0  0
 16 17  2  0  0  0
 16 21  1  0  0  0
 17 22  1  0  0  0
 17 18  1  0  0  0
 22 23  1  0  0  0
 18 24  1  0  0  0
 18 19  2  0  0  0
 24 25  1  0  0  0
 19 26  1  0  0  0
 19 20  1  0  0  0
 26 27  1  0  0  0
 20 21  2  0  0  0
 21 14  1  0  0  0
 14  1  1  0  0  0
  1  2  2  0  0  0
  1 10  1  0  0  0
  2  3  1  0  0  0
  3  4  2  0  0  0
  3  6  1  0  0  0
  4  5  1  0  0  0
  4  9  1  0  0  0
  6  7  2  0  0  0
  6 10  1  0  0  0
  7  8  1  0  0  0
  8  9  2  0  0  0
  8 11  1  0  0  0
 10 28  1  0  0  0
 28 29  1  0  0  0
 29 30  1  0  0  0
 30 31  1  0  0  0
 31 32  3  0  0  0
  5 12  1  0  0  0
  5 13  1  0  0  0
M  END
> <minimizedAffinity>
-8.37867

$$$$
6EL5_PU1_A_301


 32 34  0  0  0  0  0  0  0  0999 V2000
    1.4366   35.1012   24.2081 C   0  0  0  0  0  0  0  0  0  0  0  0
    0.1516   35.1619   24.0552 N   0  0  0  0  0  0  0  0  0  0  0  0
   -0.4462   34.4857   25.0445 C   0  0  0  0  0  0  0  0  0  0  0  0
   -1.7771   34.2400   25.3910 C   0  0  0  0  0  0  0  0  0  0  0  0
   -2.8008   34.6806   24.5758 N   0  0  0  0  0  0  0  0  0  0  0  0
    0.5747   33.9502   25.8366 C   0  0  0  0  0  0  0  0  0  0  0  0
    0.2642   33.2434   26.9010 N   0  0  0  0  0  0  0  0  0  0  0  0
   -0.9850   33.0913   27.2420 C   0  0  0  0  0  0  0  0  0  0  0  0
   -2.0065   33.5368   26.5070 N   0  0  0  0  0  0  0  0  0  0  0  0
    1.7588   34.3280   25.2858 N   0  0  0  0  0  0  0  0  0  0  0  0
   -1.1799   32.3988   28.3645 F   0  0  0  0  0  0  0  0  0  0  0  0
   -2.5954   35.1956   23.7623 H   0  0  0  0  0  0  0  0  0  0  0  0
   -3.7362   34.4797   24.8081 H   0  0  0  0  0  0  0  0  0  0  0  0
    2.3994   35.8175   23.2867 C   0  0  0  0  0  0  0  0  0  0  0  0
    0.7447   38.5341   23.0375 Cl  0  0  0  0  0  0  0  0  0  0  0  0
    2.2685   38.3379   23.8620 C   0  0  0  0  0  0  0  0  0  0  0  0
    2.8739   39.4826   24.4165 C   0  0  0  0  0  0  0  0  0  0  0  0
    4.0908   39.3660   25.1007 C   0  0  0  0  0  0  0  0  0  0  0  0
    4.7618   38.1413   25.1255 C   0  0  0  0  0  0  0  0  0  0  0  0
    4.1661   37.0090   24.5509 C   0  0  0  0  0  0  0  0  0  0  0  0
    2.9314   37.0942   23.9153 C   0  0  0  0  0  0  0  0  0  0  0  0
    2.1661   40.6498   24.5426 O   0  0  0  0  0  0  0  0  0  0  0  0
    1.2546   40.8706   25.5931 C   0  0  0  0  0  0  0  0  0  0  0  0
    4.7145   40.4679   25.6265 O   0  0  0  0  0  0  0  0  0  0  0  0
    4.6335   40.7790   27.0249 C   0  0  0  0  0  0  0  0  0  0  0  0
    5.9926   38.0948   25.7220 O   0  0  0  0  0  0  0  0  0  0  0  0
    7.0042   37.2348   25.1712 C   0  0  0  0  0  0  0  0  0  0  0  0
    3.0876   33.9347   25.7975 C   0  0  0  0  0  0  0  0  0  0  0  0
    3.8366   33.0425   24.7950 C   0  0  0  0  0  0  0  0  0  0  0  0
    3.1162   31.7175   24.5447 C   0  0  0  0  0  0  0  0  0  0  0  0
    3.9890   30.6600   23.9782 C   0  0  0  0  0  0  0  0  0  0  0  0
    4.6963   29.8040   23.5760 C   0  0  0  0  0  0  0  0  0  0  0  0
 15 16  1  0  0  0
 16 17  2  0  0  0
 16 21  1  0  0  0
 17 22  1  0  0  0
 17 18  1  0  0  0
 22 23  1  0  0  0
 18 24  1  0  0  0
 18 19  2  0  0  0
 24 25  1  0  0  0
 19 26  1  0  0  0
 19 20  1  0  0  0
 26 27  1  0  0  0
 20 21  2  0  0  0
 21 14  1  0  0  0
 14  1  1  0  0  0
  1  2  2  0  0  0
  1 10  1  0  0  0
  2  3  1  0  0  0
  3  4  2  0  0  0
  3  6  1  0  0  0
  4  5  1  0  0  0
  4  9  1  0  0  0
  6  7  2  0  0  0
  6 10  1  0  0  0
  7  8  1  0  0  0
  8  9  2  0  0  0
  8 11  1  0  0  0
 10 28  1  0  0  0
 28 29  1  0  0  0
 29 30  1  0  0  0
 30 31  1  0  0  0
 31 32  3  0  0  0
  5 12  1  0  0  0
  5 13  1  0  0  0
M  END
> <minimizedAffinity>
-8.31183

$$$$
6EL5_PU1_A_301


 32 34  0  0  0  0  0  0  0  0999 V2000
    4.2840   33.4482   25.1328 C   0  0  0  0  0  0  0  0  0  0  0  0
    4.0019   32.2784   24.6533 N   0  0  0  0  0  0  0  0  0  0  0  0
    5.0841   31.7735   24.0473 C   0  0  0  0  0  0  0  0  0  0  0  0
    5.3619   30.5712   23.3923 C   0  0  0  0  0  0  0  0  0  0  0  0
    4.3633   29.6372   23.1996 N   0  0  0  0  0  0  0  0  0  0  0  0
    6.0877   32.7424   24.1489 C   0  0  0  0  0  0  0  0  0  0  0  0
    7.2770   32.4971   23.6444 N   0  0  0  0  0  0  0  0  0  0  0  0
    7.5301   31.3382   23.1033 C   0  0  0  0  0  0  0  0  0  0  0  0
    6.6068   30.3890   22.9343 N   0  0  0  0  0  0  0  0  0  0  0  0
    5.5636   33.8037   24.8175 N   0  0  0  0  0  0  0  0  0  0  0  0
    8.7813   31.1826   22.6698 F   0  0  0  0  0  0  0  0  0  0  0  0
    3.4587   29.8042   23.5503 H   0  0  0  0  0  0  0  0  0  0  0  0
    4.5559   28.8042   22.7115 H   0  0  0  0  0  0  0  0  0  0  0  0
    3.2888   34.2607   25.9318 C   0  0  0  0  0  0  0  0  0  0  0  0
    3.7644   37.0012   24.3685 Cl  0  0  0  0  0  0  0  0  0  0  0  0
    2.3156   36.0326   24.3149 C   0  0  0  0  0  0  0  0  0  0  0  0
    1.2202   36.5193   23.5751 C   0  0  0  0  0  0  0  0  0  0  0  0
    0.0427   35.7646   23.4935 C   0  0  0  0  0  0  0  0  0  0  0  0
   -0.0880   34.5939   24.2439 C   0  0  0  0  0  0  0  0  0  0  0  0
    0.9975   34.1255   24.9984 C   0  0  0  0  0  0  0  0  0  0  0  0
    2.1943   34.8332   25.0472 C   0  0  0  0  0  0  0  0  0  0  0  0
    1.3789   37.5722   22.7116 O   0  0  0  0  0  0  0  0  0  0  0  0
    1.9728   37.4258   21.4432 C   0  0  0  0  0  0  0  0  0  0  0  0
   -1.0471   36.2274   22.8025 O   0  0  0  0  0  0  0  0  0  0  0  0
   -1.3427   35.7698   21.4750 C   0  0  0  0  0  0  0  0  0  0  0  0
   -1.2893   33.9393   24.2094 O   0  0  0  0  0  0  0  0  0  0  0  0
   -2.0665   33.8410   25.4147 C   0  0  0  0  0  0  0  0  0  0  0  0
    6.2876   35.0599   25.1004 C   0  0  0  0  0  0  0  0  0  0  0  0
    6.9546   35.0270   26.4847 C   0  0  0  0  0  0  0  0  0  0  0  0
    8.1534   35.9715   26.5749 C   0  0  0  0  0  0  0  0  0  0  0  0
    8.0123   37.1972   25.7510 C   0  0  0  0  0  0  0  0  0  0  0  0
    7.9483   38.1868   25.1097 C   0  0  0  0  0  0  0  0  0  0  0  0
 15 16  1  0  0  0
 16 17  2  0  0  0
 16 21  1  0  0  0
 17 22  1  0  0  0
 17 18  1  0  0  0
 22 23  1  0  0  0
 18 24  1  0  0  0
 18 19  2  0  0  0
 24 25  1  0  0  0
 19 26  1  0  0  0
 19 20  1  0  0  0
 26 27  1  0  0  0
 20 21  2  0  0  0
 21 14  1  0  0  0
 14  1  1  0  0  0
  1  2  2  0  0  0
  1 10  1  0  0  0
  2  3  1  0  0  0
  3  4  2  0  0  0
  3  6  1  0  0  0
  4  5  1  0  0  0
  4  9  1  0  0  0
  6  7  2  0  0  0
  6 10  1  0  0  0
  7  8  1  0  0  0
  8  9  2  0  0  0
  8 11  1  0  0  0
 10 28  1  0  0  0
 28 29  1  0  0  0
 29 30  1  0  0  0
 30 31  1  0  0  0
 31 32  3  0  0  0
  5 12  1  0  0  0
  5 13  1  0  0  0
M  END
> <minimizedAffinity>
-8.22333

$$$$
6EL5_PU1_A_301


 32 34  0  0  0  0  0  0  0  0999 V2000
    1.8833   34.9837   25.2544 C   0  0  0  0  0  0  0  0  0  0  0  0
    0.7316   34.4595   25.5319 N   0  0  0  0  0  0  0  0  0  0  0  0
   -0.1185   34.6953   24.5245 C   0  0  0  0  0  0  0  0  0  0  0  0
   -1.4505   34.3563   24.2743 C   0  0  0  0  0  0  0  0  0  0  0  0
   -2.1894   33.6873   25.2300 N   0  0  0  0  0  0  0  0  0  0  0  0
    0.5812   35.4531   23.5799 C   0  0  0  0  0  0  0  0  0  0  0  0
   -0.0195   35.8154   22.4677 N   0  0  0  0  0  0  0  0  0  0  0  0
   -1.2395   35.4232   22.2273 C   0  0  0  0  0  0  0  0  0  0  0  0
   -1.9773   34.7385   23.1042 N   0  0  0  0  0  0  0  0  0  0  0  0
    1.8374   35.6468   24.0622 N   0  0  0  0  0  0  0  0  0  0  0  0
   -1.7306   35.8079   21.0489 F   0  0  0  0  0  0  0  0  0  0  0  0
   -1.7694   33.4212   26.0797 H   0  0  0  0  0  0  0  0  0  0  0  0
   -3.1362   33.4765   25.0616 H   0  0  0  0  0  0  0  0  0  0  0  0
    3.0822   34.8408   26.1661 C   0  0  0  0  0  0  0  0  0  0  0  0
    6.1518   35.4490   26.7893 Cl  0  0  0  0  0  0  0  0  0  0  0  0
    5.5513   34.1831   25.7513 C   0  0  0  0  0  0  0  0  0  0  0  0
    6.4899   33.3894   25.0634 C   0  0  0  0  0  0  0  0  0  0  0  0
    6.0496   32.3516   24.2316 C   0  0  0  0  0  0  0  0  0  0  0  0
    4.6844   32.1846   23.9889 C   0  0  0  0  0  0  0  0  0  0  0  0
    3.7540   32.9933   24.6579 C   0  0  0  0  0  0  0  0  0  0  0  0
    4.1712   33.9931   25.5308 C   0  0  0  0  0  0  0  0  0  0  0  0
    7.8167   33.4299   25.4059 O   0  0  0  0  0  0  0  0  0  0  0  0
    8.6753   34.4619   24.9807 C   0  0  0  0  0  0  0  0  0  0  0  0
    6.9409   31.5816   23.5300 O   0  0  0  0  0  0  0  0  0  0  0  0
    7.4885   32.0209   22.2786 C   0  0  0  0  0  0  0  0  0  0  0  0
    4.3037   31.2205   23.0953 O   0  0  0  0  0  0  0  0  0  0  0  0
    4.3494   29.8404   23.4946 C   0  0  0  0  0  0  0  0  0  0  0  0
    2.8861   36.4358   23.3840 C   0  0  0  0  0  0  0  0  0  0  0  0
    2.9232   37.8839   23.8976 C   0  0  0  0  0  0  0  0  0  0  0  0
    2.6622   38.9015   22.7869 C   0  0  0  0  0  0  0  0  0  0  0  0
    2.4033   38.2870   21.4617 C   0  0  0  0  0  0  0  0  0  0  0  0
    2.1778   37.8436   20.3905 C   0  0  0  0  0  0  0  0  0  0  0  0
 15 16  1  0  0  0
 16 17  2  0  0  0
 16 21  1  0  0  0
 17 22  1  0  0  0
 17 18  1  0  0  0
 22 23  1  0  0  0
 18 24  1  0  0  0
 18 19  2  0  0  0
 24 25  1  0  0  0
 19 26  1  0  0  0
 19 20  1  0  0  0
 26 27  1  0  0  0
 20 21  2  0  0  0
 21 14  1  0  0  0
 14  1  1  0  0  0
  1  2  2  0  0  0
  1 10  1  0  0  0
  2  3  1  0  0  0
  3  4  2  0  0  0
  3  6  1  0  0  0
  4  5  1  0  0  0
  4  9  1  0  0  0
  6  7  2  0  0  0
  6 10  1  0  0  0
  7  8  1  0  0  0
  8  9  2  0  0  0
  8 11  1  0  0  0
 10 28  1  0  0  0
 28 29  1  0  0  0
 29 30  1  0  0  0
 30 31  1  0  0  0
 31 32  3  0  0  0
  5 12  1  0  0  0
  5 13  1  0  0  0
M  END
> <minimizedAffinity>
-8.15176

$$$$
6EL5_PU1_A_301


 32 34  0  0  0  0  0  0  0  0999 V2000
    3.0198   34.1967   25.4469 C   0  0  0  0  0  0  0  0  0  0  0  0
    4.3003   34.0976   25.2776 N   0  0  0  0  0  0  0  0  0  0  0  0
    4.5920   32.8840   24.7928 C   0  0  0  0  0  0  0  0  0  0  0  0
    5.7743   32.2469   24.4081 C   0  0  0  0  0  0  0  0  0  0  0  0
    6.9913   32.8766   24.5796 N   0  0  0  0  0  0  0  0  0  0  0  0
    3.3811   32.1907   24.6953 C   0  0  0  0  0  0  0  0  0  0  0  0
    3.3750   30.9622   24.2265 N   0  0  0  0  0  0  0  0  0  0  0  0
    4.4830   30.4184   23.8064 C   0  0  0  0  0  0  0  0  0  0  0  0
    5.6766   31.0068   23.9130 N   0  0  0  0  0  0  0  0  0  0  0  0
    2.3986   33.0229   25.1315 N   0  0  0  0  0  0  0  0  0  0  0  0
    4.3507   29.1894   23.3066 F   0  0  0  0  0  0  0  0  0  0  0  0
    7.0258   33.7894   24.9466 H   0  0  0  0  0  0  0  0  0  0  0  0
    7.8244   32.4126   24.3348 H   0  0  0  0  0  0  0  0  0  0  0  0
    2.3596   35.4707   25.9266 C   0  0  0  0  0  0  0  0  0  0  0  0
    4.5103   37.6773   25.0983 Cl  0  0  0  0  0  0  0  0  0  0  0  0
    2.9632   37.4214   24.3357 C   0  0  0  0  0  0  0  0  0  0  0  0
    2.5800   38.3001   23.3035 C   0  0  0  0  0  0  0  0  0  0  0  0
    1.3519   38.1199   22.6540 C   0  0  0  0  0  0  0  0  0  0  0  0
    0.4574   37.1497   23.1114 C   0  0  0  0  0  0  0  0  0  0  0  0
    0.8339   36.2924   24.1556 C   0  0  0  0  0  0  0  0  0  0  0  0
    2.0725   36.4205   24.7761 C   0  0  0  0  0  0  0  0  0  0  0  0
    3.4970   39.1474   22.7373 O   0  0  0  0  0  0  0  0  0  0  0  0
    3.7791   40.4201   23.2702 C   0  0  0  0  0  0  0  0  0  0  0  0
    0.9430   38.9766   21.6648 O   0  0  0  0  0  0  0  0  0  0  0  0
    1.1909   38.6951   20.2798 C   0  0  0  0  0  0  0  0  0  0  0  0
   -0.7693   37.0719   22.5099 O   0  0  0  0  0  0  0  0  0  0  0  0
   -1.0459   35.9727   21.6258 C   0  0  0  0  0  0  0  0  0  0  0  0
    0.9701   32.6593   25.2280 C   0  0  0  0  0  0  0  0  0  0  0  0
    0.4254   32.8847   26.6474 C   0  0  0  0  0  0  0  0  0  0  0  0
   -1.1016   32.9517   26.6802 C   0  0  0  0  0  0  0  0  0  0  0  0
   -1.6816   33.8728   25.6721 C   0  0  0  0  0  0  0  0  0  0  0  0
   -2.1769   34.6227   24.9058 C   0  0  0  0  0  0  0  0  0  0  0  0
 15 16  1  0  0  0
 16 17  2  0  0  0
 16 21  1  0  0  0
 17 22  1  0  0  0
 17 18  1  0  0  0
 22 23  1  0  0  0
 18 24  1  0  0  0
 18 19  2  0  0  0
 24 25  1  0  0  0
 19 26  1  0  0  0
 19 20  1  0  0  0
 26 27  1  0  0  0
 20 21  2  0  0  0
 21 14  1  0  0  0
 14  1  1  0  0  0
  1  2  2  0  0  0
  1 10  1  0  0  0
  2  3  1  0  0  0
  3  4  2  0  0  0
  3  6  1  0  0  0
  4  5  1  0  0  0
  4  9  1  0  0  0
  6  7  2  0  0  0
  6 10  1  0  0  0
  7  8  1  0  0  0
  8  9  2  0  0  0
  8 11  1  0  0  0
 10 28  1  0  0  0
 28 29  1  0  0  0
 29 30  1  0  0  0
 30 31  1  0  0  0
 31 32  3  0  0  0
  5 12  1  0  0  0
  5 13  1  0  0  0
M  END
> <minimizedAffinity>
-8.04124

$$$$
6EL5_PU1_A_301


 32 34  0  0  0  0  0  0  0  0999 V2000
    4.2798   35.5179   25.9175 C   0  0  0  0  0  0  0  0  0  0  0  0
    5.3754   35.9352   26.4686 N   0  0  0  0  0  0  0  0  0  0  0  0
    6.4130   35.2532   25.9673 C   0  0  0  0  0  0  0  0  0  0  0  0
    7.7947   35.2936   26.1698 C   0  0  0  0  0  0  0  0  0  0  0  0
    8.3337   36.1344   27.1235 N   0  0  0  0  0  0  0  0  0  0  0  0
    5.8835   34.3279   25.0618 C   0  0  0  0  0  0  0  0  0  0  0  0
    6.6949   33.5283   24.4051 N   0  0  0  0  0  0  0  0  0  0  0  0
    7.9849   33.6375   24.5592 C   0  0  0  0  0  0  0  0  0  0  0  0
    8.5522   34.4664   25.4386 N   0  0  0  0  0  0  0  0  0  0  0  0
    4.5338   34.4905   25.0554 N   0  0  0  0  0  0  0  0  0  0  0  0
    8.7118   32.8103   23.8075 F   0  0  0  0  0  0  0  0  0  0  0  0
    7.7465   36.7298   27.6431 H   0  0  0  0  0  0  0  0  0  0  0  0
    9.3050   36.1384   27.2838 H   0  0  0  0  0  0  0  0  0  0  0  0
    2.9311   36.1308   26.2243 C   0  0  0  0  0  0  0  0  0  0  0  0
    0.1310   35.2102   25.0024 Cl  0  0  0  0  0  0  0  0  0  0  0  0
    1.1234   36.5167   24.4120 C   0  0  0  0  0  0  0  0  0  0  0  0
    0.7030   37.1960   23.2518 C   0  0  0  0  0  0  0  0  0  0  0  0
    1.4633   38.2618   22.7532 C   0  0  0  0  0  0  0  0  0  0  0  0
    2.6966   38.5689   23.3324 C   0  0  0  0  0  0  0  0  0  0  0  0
    3.1226   37.8736   24.4735 C   0  0  0  0  0  0  0  0  0  0  0  0
    2.3540   36.8486   25.0160 C   0  0  0  0  0  0  0  0  0  0  0  0
   -0.5671   37.0203   22.7666 O   0  0  0  0  0  0  0  0  0  0  0  0
   -0.8696   36.0765   21.7662 C   0  0  0  0  0  0  0  0  0  0  0  0
    1.0909   38.9224   21.6111 O   0  0  0  0  0  0  0  0  0  0  0  0
    1.4782   38.4509   20.3124 C   0  0  0  0  0  0  0  0  0  0  0  0
    3.4504   39.5542   22.7546 O   0  0  0  0  0  0  0  0  0  0  0  0
    4.3736   40.2962   23.5691 C   0  0  0  0  0  0  0  0  0  0  0  0
    3.5926   33.6763   24.2595 C   0  0  0  0  0  0  0  0  0  0  0  0
    2.9288   32.5849   25.1140 C   0  0  0  0  0  0  0  0  0  0  0  0
    2.8131   31.2542   24.3702 C   0  0  0  0  0  0  0  0  0  0  0  0
    4.1207   30.6181   24.0758 C   0  0  0  0  0  0  0  0  0  0  0  0
    5.1507   30.1156   23.7905 C   0  0  0  0  0  0  0  0  0  0  0  0
 15 16  1  0  0  0
 16 17  2  0  0  0
 16 21  1  0  0  0
 17 22  1  0  0  0
 17 18  1  0  0  0
 22 23  1  0  0  0
 18 24  1  0  0  0
 18 19  2  0  0  0
 24 25  1  0  0  0
 19 26  1  0  0  0
 19 20  1  0  0  0
 26 27  1  0  0  0
 20 21  2  0  0  0
 21 14  1  0  0  0
 14  1  1  0  0  0
  1  2  2  0  0  0
  1 10  1  0  0  0
  2  3  1  0  0  0
  3  4  2  0  0  0
  3  6  1  0  0  0
  4  5  1  0  0  0
  4  9  1  0  0  0
  6  7  2  0  0  0
  6 10  1  0  0  0
  7  8  1  0  0  0
  8  9  2  0  0  0
  8 11  1  0  0  0
 10 28  1  0  0  0
 28 29  1  0  0  0
 29 30  1  0  0  0
 30 31  1  0  0  0
 31 32  3  0  0  0
  5 12  1  0  0  0
  5 13  1  0  0  0
M  END
> <minimizedAffinity>
-7.98024

$$$$
6EL5_PU1_A_301


 32 34  0  0  0  0  0  0  0  0999 V2000
    2.9965   34.3980   25.4304 C   0  0  0  0  0  0  0  0  0  0  0  0
    4.2906   34.4201   25.3766 N   0  0  0  0  0  0  0  0  0  0  0  0
    4.7371   33.2404   24.9270 C   0  0  0  0  0  0  0  0  0  0  0  0
    6.0037   32.7183   24.6532 C   0  0  0  0  0  0  0  0  0  0  0  0
    7.1359   33.4592   24.9287 N   0  0  0  0  0  0  0  0  0  0  0  0
    3.6103   32.4366   24.7260 C   0  0  0  0  0  0  0  0  0  0  0  0
    3.7615   31.2141   24.2659 N   0  0  0  0  0  0  0  0  0  0  0  0
    4.9487   30.7780   23.9497 C   0  0  0  0  0  0  0  0  0  0  0  0
    6.0675   31.4757   24.1587 N   0  0  0  0  0  0  0  0  0  0  0  0
    2.5190   33.1717   25.0679 N   0  0  0  0  0  0  0  0  0  0  0  0
    4.9775   29.5433   23.4474 F   0  0  0  0  0  0  0  0  0  0  0  0
    7.0516   34.3704   25.2919 H   0  0  0  0  0  0  0  0  0  0  0  0
    8.0274   33.0763   24.7621 H   0  0  0  0  0  0  0  0  0  0  0  0
    2.1794   35.6030   25.8417 C   0  0  0  0  0  0  0  0  0  0  0  0
   -0.6048   35.1357   24.3547 Cl  0  0  0  0  0  0  0  0  0  0  0  0
    0.5931   36.3292   23.9293 C   0  0  0  0  0  0  0  0  0  0  0  0
    0.3613   37.1233   22.7891 C   0  0  0  0  0  0  0  0  0  0  0  0
    1.2912   38.1045   22.4215 C   0  0  0  0  0  0  0  0  0  0  0  0
    2.5014   38.2107   23.1105 C   0  0  0  0  0  0  0  0  0  0  0  0
    2.7382   37.4011   24.2311 C   0  0  0  0  0  0  0  0  0  0  0  0
    1.8018   36.4589   24.6445 C   0  0  0  0  0  0  0  0  0  0  0  0
   -0.8762   37.1467   22.1997 O   0  0  0  0  0  0  0  0  0  0  0  0
   -1.2959   36.1615   21.2851 C   0  0  0  0  0  0  0  0  0  0  0  0
    1.1029   38.8726   21.3016 O   0  0  0  0  0  0  0  0  0  0  0  0
    1.4174   38.3780   19.9919 C   0  0  0  0  0  0  0  0  0  0  0  0
    3.4210   39.1176   22.6582 O   0  0  0  0  0  0  0  0  0  0  0  0
    4.0391   40.0137   23.5971 C   0  0  0  0  0  0  0  0  0  0  0  0
    1.1280   32.6751   25.0387 C   0  0  0  0  0  0  0  0  0  0  0  0
    0.7750   31.9107   26.3244 C   0  0  0  0  0  0  0  0  0  0  0  0
    0.0701   32.7961   27.3523 C   0  0  0  0  0  0  0  0  0  0  0  0
   -1.3679   33.0192   27.0634 C   0  0  0  0  0  0  0  0  0  0  0  0
   -2.5104   33.2405   26.8621 C   0  0  0  0  0  0  0  0  0  0  0  0
 15 16  1  0  0  0
 16 17  2  0  0  0
 16 21  1  0  0  0
 17 22  1  0  0  0
 17 18  1  0  0  0
 22 23  1  0  0  0
 18 24  1  0  0  0
 18 19  2  0  0  0
 24 25  1  0  0  0
 19 26  1  0  0  0
 19 20  1  0  0  0
 26 27  1  0  0  0
 20 21  2  0  0  0
 21 14  1  0  0  0
 14  1  1  0  0  0
  1  2  2  0  0  0
  1 10  1  0  0  0
  2  3  1  0  0  0
  3  4  2  0  0  0
  3  6  1  0  0  0
  4  5  1  0  0  0
  4  9  1  0  0  0
  6  7  2  0  0  0
  6 10  1  0  0  0
  7  8  1  0  0  0
  8  9  2  0  0  0
  8 11  1  0  0  0
 10 28  1  0  0  0
 28 29  1  0  0  0
 29 30  1  0  0  0
 30 31  1  0  0  0
 31 32  3  0  0  0
  5 12  1  0  0  0
  5 13  1  0  0  0
M  END
> <minimizedAffinity>
-7.56206

$$$$
6EL5_PU1_A_301


 32 34  0  0  0  0  0  0  0  0999 V2000
    4.3230   35.0971   25.9069 C   0  0  0  0  0  0  0  0  0  0  0  0
    5.3586   35.5777   26.5190 N   0  0  0  0  0  0  0  0  0  0  0  0
    6.4716   35.0637   25.9805 C   0  0  0  0  0  0  0  0  0  0  0  0
    7.8377   35.2357   26.2172 C   0  0  0  0  0  0  0  0  0  0  0  0
    8.2681   36.0364   27.2567 N   0  0  0  0  0  0  0  0  0  0  0  0
    6.0593   34.1758   24.9815 C   0  0  0  0  0  0  0  0  0  0  0  0
    6.9625   33.5354   24.2722 N   0  0  0  0  0  0  0  0  0  0  0  0
    8.2304   33.7699   24.4651 C   0  0  0  0  0  0  0  0  0  0  0  0
    8.6912   34.5690   25.4300 N   0  0  0  0  0  0  0  0  0  0  0  0
    4.7001   34.1897   24.9594 N   0  0  0  0  0  0  0  0  0  0  0  0
    9.0539   33.1019   23.6568 F   0  0  0  0  0  0  0  0  0  0  0  0
    7.6121   36.5123   27.8156 H   0  0  0  0  0  0  0  0  0  0  0  0
    9.2309   36.1314   27.4388 H   0  0  0  0  0  0  0  0  0  0  0  0
    2.9108   35.5271   26.2383 C   0  0  0  0  0  0  0  0  0  0  0  0
    1.1389   36.0789   23.6428 Cl  0  0  0  0  0  0  0  0  0  0  0  0
    1.8649   37.2936   24.6615 C   0  0  0  0  0  0  0  0  0  0  0  0
    1.7257   38.6437   24.2847 C   0  0  0  0  0  0  0  0  0  0  0  0
    2.2805   39.6518   25.0838 C   0  0  0  0  0  0  0  0  0  0  0  0
    3.0737   39.3130   26.1822 C   0  0  0  0  0  0  0  0  0  0  0  0
    3.2294   37.9657   26.5397 C   0  0  0  0  0  0  0  0  0  0  0  0
    2.6396   36.9531   25.7898 C   0  0  0  0  0  0  0  0  0  0  0  0
    0.8281   39.0041   23.3131 O   0  0  0  0  0  0  0  0  0  0  0  0
   -0.5582   39.0689   23.5522 C   0  0  0  0  0  0  0  0  0  0  0  0
    2.1825   40.9717   24.7260 O   0  0  0  0  0  0  0  0  0  0  0  0
    1.2894   41.8676   25.4032 C   0  0  0  0  0  0  0  0  0  0  0  0
    3.6745   40.3266   26.8782 O   0  0  0  0  0  0  0  0  0  0  0  0
    3.9171   40.1603   28.2852 C   0  0  0  0  0  0  0  0  0  0  0  0
    3.8651   33.3564   24.0703 C   0  0  0  0  0  0  0  0  0  0  0  0
    3.2604   32.1601   24.8223 C   0  0  0  0  0  0  0  0  0  0  0  0
    3.4830   30.8384   24.0869 C   0  0  0  0  0  0  0  0  0  0  0  0
    4.9134   30.4885   23.9058 C   0  0  0  0  0  0  0  0  0  0  0  0
    6.0625   30.2608   23.7562 C   0  0  0  0  0  0  0  0  0  0  0  0
 15 16  1  0  0  0
 16 17  2  0  0  0
 16 21  1  0  0  0
 17 22  1  0  0  0
 17 18  1  0  0  0
 22 23  1  0  0  0
 18 24  1  0  0  0
 18 19  2  0  0  0
 24 25  1  0  0  0
 19 26  1  0  0  0
 19 20  1  0  0  0
 26 27  1  0  0  0
 20 21  2  0  0  0
 21 14  1  0  0  0
 14  1  1  0  0  0
  1  2  2  0  0  0
  1 10  1  0  0  0
  2  3  1  0  0  0
  3  4  2  0  0  0
  3  6  1  0  0  0
  4  5  1  0  0  0
  4  9  1  0  0  0
  6  7  2  0  0  0
  6 10  1  0  0  0
  7  8  1  0  0  0
  8  9  2  0  0  0
  8 11  1  0  0  0
 10 28  1  0  0  0
 28 29  1  0  0  0
 29 30  1  0  0  0
 30 31  1  0  0  0
 31 32  3  0  0  0
  5 12  1  0  0  0
  5 13  1  0  0  0
M  END
> <minimizedAffinity>
-7.54764

$$$$
