1AJQ_SPA_B_559


 10 10  0  0  0  0  0  0  0  0999 V2000
   11.2632   36.7813   32.5186 S   0  0  0  0  0  0  0  0  0  0  0  0
   11.9068   36.1203   33.9787 C   0  0  0  0  0  0  0  0  0  0  0  0
   11.0314   35.2221   34.5760 C   0  0  0  0  0  0  0  0  0  0  0  0
    9.8214   35.1148   33.8554 C   0  0  0  0  0  0  0  0  0  0  0  0
    9.8286   35.8509   32.7196 C   0  0  0  0  0  0  0  0  0  0  0  0
   13.2612   36.4890   34.5151 C   0  0  0  0  0  0  0  0  0  0  0  0
   13.0872   37.8834   35.1999 C   0  0  0  0  0  0  0  0  0  0  0  0
   12.0844   38.5325   35.3494 O   0  0  0  0  0  0  0  0  0  0  0  0
   14.3248   38.3470   35.3292 O   0  0  0  0  0  0  0  0  0  0  0  0
   15.0554   37.7757   35.1958 H   0  0  0  0  0  0  0  0  0  0  0  0
  1  2  1  0  0  0
  1  5  1  0  0  0
  2  3  2  0  0  0
  2  6  1  0  0  0
  3  4  1  0  0  0
  4  5  2  0  0  0
  6  7  1  0  0  0
  7  8  2  0  0  0
  7  9  1  0  0  0
  9 10  1  0  0  0
M  END
> <minimizedAffinity>
-5.50156

$$$$
1AJQ_SPA_B_559


 10 10  0  0  0  0  0  0  0  0999 V2000
   11.3056   36.8854   32.2432 S   0  0  0  0  0  0  0  0  0  0  0  0
   11.2168   35.7256   33.5198 C   0  0  0  0  0  0  0  0  0  0  0  0
   10.4736   34.6084   33.1602 C   0  0  0  0  0  0  0  0  0  0  0  0
    9.9458   34.7304   31.8557 C   0  0  0  0  0  0  0  0  0  0  0  0
   10.3475   35.8664   31.2392 C   0  0  0  0  0  0  0  0  0  0  0  0
   11.8798   35.9260   34.8534 C   0  0  0  0  0  0  0  0  0  0  0  0
   12.9561   37.0386   34.6352 C   0  0  0  0  0  0  0  0  0  0  0  0
   14.0963   36.9256   34.2659 O   0  0  0  0  0  0  0  0  0  0  0  0
   12.4451   38.1149   35.2215 O   0  0  0  0  0  0  0  0  0  0  0  0
   11.5446   38.1244   35.4804 H   0  0  0  0  0  0  0  0  0  0  0  0
  1  2  1  0  0  0
  1  5  1  0  0  0
  2  3  2  0  0  0
  2  6  1  0  0  0
  3  4  1  0  0  0
  4  5  2  0  0  0
  6  7  1  0  0  0
  7  8  2  0  0  0
  7  9  1  0  0  0
  9 10  1  0  0  0
M  END
> <minimizedAffinity>
-4.82620

$$$$
1AJQ_SPA_B_559


 10 10  0  0  0  0  0  0  0  0999 V2000
   17.0057   39.7675   38.3857 S   0  0  0  0  0  0  0  0  0  0  0  0
   15.3066   39.5284   38.1886 C   0  0  0  0  0  0  0  0  0  0  0  0
   14.5624   40.4988   38.8477 C   0  0  0  0  0  0  0  0  0  0  0  0
   15.3896   41.4065   39.5454 C   0  0  0  0  0  0  0  0  0  0  0  0
   16.7064   41.1633   39.3481 C   0  0  0  0  0  0  0  0  0  0  0  0
   14.7283   38.3956   37.3882 C   0  0  0  0  0  0  0  0  0  0  0  0
   13.9697   39.0577   36.1925 C   0  0  0  0  0  0  0  0  0  0  0  0
   12.8125   38.9501   35.8785 O   0  0  0  0  0  0  0  0  0  0  0  0
   14.9318   39.5391   35.4141 O   0  0  0  0  0  0  0  0  0  0  0  0
   15.8112   39.5904   35.7335 H   0  0  0  0  0  0  0  0  0  0  0  0
  1  2  1  0  0  0
  1  5  1  0  0  0
  2  3  2  0  0  0
  2  6  1  0  0  0
  3  4  1  0  0  0
  4  5  2  0  0  0
  6  7  1  0  0  0
  7  8  2  0  0  0
  7  9  1  0  0  0
  9 10  1  0  0  0
M  END
> <minimizedAffinity>
-4.60815

$$$$
1AJQ_SPA_B_559


 10 10  0  0  0  0  0  0  0  0999 V2000
   17.5101   38.4289   37.4790 S   0  0  0  0  0  0  0  0  0  0  0  0
   15.9388   38.8657   38.0473 C   0  0  0  0  0  0  0  0  0  0  0  0
   15.5076   38.0400   39.0779 C   0  0  0  0  0  0  0  0  0  0  0  0
   16.4503   37.0281   39.3651 C   0  0  0  0  0  0  0  0  0  0  0  0
   17.5771   37.1453   38.6244 C   0  0  0  0  0  0  0  0  0  0  0  0
   15.1536   40.0131   37.4773 C   0  0  0  0  0  0  0  0  0  0  0  0
   14.1791   39.3874   36.4272 C   0  0  0  0  0  0  0  0  0  0  0  0
   13.1673   38.7622   36.6131 O   0  0  0  0  0  0  0  0  0  0  0  0
   14.8497   39.4345   35.2820 O   0  0  0  0  0  0  0  0  0  0  0  0
   15.6318   39.9465   35.2178 H   0  0  0  0  0  0  0  0  0  0  0  0
  1  2  1  0  0  0
  1  5  1  0  0  0
  2  3  2  0  0  0
  2  6  1  0  0  0
  3  4  1  0  0  0
  4  5  2  0  0  0
  6  7  1  0  0  0
  7  8  2  0  0  0
  7  9  1  0  0  0
  9 10  1  0  0  0
M  END
> <minimizedAffinity>
-4.07350

$$$$
1AJQ_SPA_B_559


 10 10  0  0  0  0  0  0  0  0999 V2000
   15.7131   40.2226   36.6312 S   0  0  0  0  0  0  0  0  0  0  0  0
   15.8166   39.8190   38.3073 C   0  0  0  0  0  0  0  0  0  0  0  0
   15.0093   38.7369   38.6350 C   0  0  0  0  0  0  0  0  0  0  0  0
   14.2786   38.2738   37.5184 C   0  0  0  0  0  0  0  0  0  0  0  0
   14.5907   38.9410   36.3829 C   0  0  0  0  0  0  0  0  0  0  0  0
   16.6900   40.5662   39.2753 C   0  0  0  0  0  0  0  0  0  0  0  0
   15.9848   41.9401   39.5181 C   0  0  0  0  0  0  0  0  0  0  0  0
   14.8084   42.1820   39.6007 O   0  0  0  0  0  0  0  0  0  0  0  0
   16.9395   42.8425   39.3247 O   0  0  0  0  0  0  0  0  0  0  0  0
   17.8353   42.5728   39.2716 H   0  0  0  0  0  0  0  0  0  0  0  0
  1  2  1  0  0  0
  1  5  1  0  0  0
  2  3  2  0  0  0
  2  6  1  0  0  0
  3  4  1  0  0  0
  4  5  2  0  0  0
  6  7  1  0  0  0
  7  8  2  0  0  0
  7  9  1  0  0  0
  9 10  1  0  0  0
M  END
> <minimizedAffinity>
-4.02643

$$$$
1AJQ_SPA_B_559


 10 10  0  0  0  0  0  0  0  0999 V2000
   17.3904   39.1257   38.9408 S   0  0  0  0  0  0  0  0  0  0  0  0
   15.7330   38.8172   38.5657 C   0  0  0  0  0  0  0  0  0  0  0  0
   15.2881   37.6192   39.1106 C   0  0  0  0  0  0  0  0  0  0  0  0
   16.3212   36.9418   39.7953 C   0  0  0  0  0  0  0  0  0  0  0  0
   17.4745   37.6497   39.8231 C   0  0  0  0  0  0  0  0  0  0  0  0
   14.8924   39.7553   37.7462 C   0  0  0  0  0  0  0  0  0  0  0  0
   15.4096   41.1935   38.0741 C   0  0  0  0  0  0  0  0  0  0  0  0
   15.3002   41.8219   39.0951 O   0  0  0  0  0  0  0  0  0  0  0  0
   15.7454   41.7030   36.8947 O   0  0  0  0  0  0  0  0  0  0  0  0
   15.8096   41.1452   36.1445 H   0  0  0  0  0  0  0  0  0  0  0  0
  1  2  1  0  0  0
  1  5  1  0  0  0
  2  3  2  0  0  0
  2  6  1  0  0  0
  3  4  1  0  0  0
  4  5  2  0  0  0
  6  7  1  0  0  0
  7  8  2  0  0  0
  7  9  1  0  0  0
  9 10  1  0  0  0
M  END
> <minimizedAffinity>
-3.70034

$$$$
1AJQ_SPA_B_559


 10 10  0  0  0  0  0  0  0  0999 V2000
    9.4593   35.4505   33.6326 S   0  0  0  0  0  0  0  0  0  0  0  0
   10.5963   35.8389   32.3920 C   0  0  0  0  0  0  0  0  0  0  0  0
   10.4296   35.0460   31.2635 C   0  0  0  0  0  0  0  0  0  0  0  0
    9.3990   34.0964   31.4404 C   0  0  0  0  0  0  0  0  0  0  0  0
    8.7707   34.2306   32.6317 C   0  0  0  0  0  0  0  0  0  0  0  0
   11.6321   36.9172   32.5415 C   0  0  0  0  0  0  0  0  0  0  0  0
   12.0459   36.9095   34.0490 C   0  0  0  0  0  0  0  0  0  0  0  0
   12.0779   37.8259   34.8290 O   0  0  0  0  0  0  0  0  0  0  0  0
   12.6382   35.7342   34.2251 O   0  0  0  0  0  0  0  0  0  0  0  0
   12.5658   35.0699   33.5682 H   0  0  0  0  0  0  0  0  0  0  0  0
  1  2  1  0  0  0
  1  5  1  0  0  0
  2  3  2  0  0  0
  2  6  1  0  0  0
  3  4  1  0  0  0
  4  5  2  0  0  0
  6  7  1  0  0  0
  7  8  2  0  0  0
  7  9  1  0  0  0
  9 10  1  0  0  0
M  END
> <minimizedAffinity>
-3.66285

$$$$
1AJQ_SPA_B_559


 10 10  0  0  0  0  0  0  0  0999 V2000
   11.4551   37.0553   32.5387 S   0  0  0  0  0  0  0  0  0  0  0  0
   10.7186   35.8607   33.5455 C   0  0  0  0  0  0  0  0  0  0  0  0
   11.5341   35.5004   34.6108 C   0  0  0  0  0  0  0  0  0  0  0  0
   12.7747   36.1744   34.5698 C   0  0  0  0  0  0  0  0  0  0  0  0
   12.8477   37.0624   33.5510 C   0  0  0  0  0  0  0  0  0  0  0  0
    9.3514   35.2973   33.2784 C   0  0  0  0  0  0  0  0  0  0  0  0
    9.4887   34.4312   31.9843 C   0  0  0  0  0  0  0  0  0  0  0  0
   10.3682   34.4343   31.1622 O   0  0  0  0  0  0  0  0  0  0  0  0
    8.2876   33.8902   31.8173 O   0  0  0  0  0  0  0  0  0  0  0  0
    7.6558   33.9298   32.5082 H   0  0  0  0  0  0  0  0  0  0  0  0
  1  2  1  0  0  0
  1  5  1  0  0  0
  2  3  2  0  0  0
  2  6  1  0  0  0
  3  4  1  0  0  0
  4  5  2  0  0  0
  6  7  1  0  0  0
  7  8  2  0  0  0
  7  9  1  0  0  0
  9 10  1  0  0  0
M  END
> <minimizedAffinity>
-3.43252

$$$$
1AJQ_SPA_B_559


 10 10  0  0  0  0  0  0  0  0999 V2000
   10.8111   35.1830   34.2038 S   0  0  0  0  0  0  0  0  0  0  0  0
   11.0952   36.1214   32.7820 C   0  0  0  0  0  0  0  0  0  0  0  0
   12.2079   36.9430   32.9117 C   0  0  0  0  0  0  0  0  0  0  0  0
   12.7942   36.8292   34.1917 C   0  0  0  0  0  0  0  0  0  0  0  0
   12.1828   35.8977   34.9600 C   0  0  0  0  0  0  0  0  0  0  0  0
   10.2257   36.0359   31.5593 C   0  0  0  0  0  0  0  0  0  0  0  0
    9.9861   34.5117   31.3082 C   0  0  0  0  0  0  0  0  0  0  0  0
   10.6028   33.7554   30.6031 O   0  0  0  0  0  0  0  0  0  0  0  0
    8.7784   34.2782   31.8083 O   0  0  0  0  0  0  0  0  0  0  0  0
    8.3639   34.9199   32.3508 H   0  0  0  0  0  0  0  0  0  0  0  0
  1  2  1  0  0  0
  1  5  1  0  0  0
  2  3  2  0  0  0
  2  6  1  0  0  0
  3  4  1  0  0  0
  4  5  2  0  0  0
  6  7  1  0  0  0
  7  8  2  0  0  0
  7  9  1  0  0  0
  9 10  1  0  0  0
M  END
> <minimizedAffinity>
-3.40328

$$$$
1AJQ_SPA_B_559


 10 10  0  0  0  0  0  0  0  0999 V2000
    8.7970   34.6697   33.0373 S   0  0  0  0  0  0  0  0  0  0  0  0
   10.3666   35.3501   32.8001 C   0  0  0  0  0  0  0  0  0  0  0  0
   11.1448   35.2818   33.9489 C   0  0  0  0  0  0  0  0  0  0  0  0
   10.4339   34.7113   35.0278 C   0  0  0  0  0  0  0  0  0  0  0  0
    9.1948   34.2998   34.6711 C   0  0  0  0  0  0  0  0  0  0  0  0
   10.8132   35.9374   31.4910 C   0  0  0  0  0  0  0  0  0  0  0  0
   11.7414   37.1416   31.8545 C   0  0  0  0  0  0  0  0  0  0  0  0
   12.8456   37.1273   32.3338 O   0  0  0  0  0  0  0  0  0  0  0  0
   10.9460   38.2034   31.7973 O   0  0  0  0  0  0  0  0  0  0  0  0
   10.0973   38.1325   31.4066 H   0  0  0  0  0  0  0  0  0  0  0  0
  1  2  1  0  0  0
  1  5  1  0  0  0
  2  3  2  0  0  0
  2  6  1  0  0  0
  3  4  1  0  0  0
  4  5  2  0  0  0
  6  7  1  0  0  0
  7  8  2  0  0  0
  7  9  1  0  0  0
  9 10  1  0  0  0
M  END
> <minimizedAffinity>
-2.72411

$$$$
