6FHQ_DE5_A_2003


 13 13  0  0  0  0  0  0  0  0999 V2000
   19.4636    2.6412    8.2161 C   0  0  0  0  0  0  0  0  0  0  0  0
   18.5871    3.3659    7.4355 N   0  0  0  0  0  0  0  0  0  0  0  0
   20.6895    2.8576    8.3097 O   0  0  0  0  0  0  0  0  0  0  0  0
   17.6298    3.1360    7.4340 H   0  0  0  0  0  0  0  0  0  0  0  0
   19.0956    5.6586    7.0929 N   0  0  0  0  0  0  0  0  0  0  0  0
   19.0312    4.3868    6.6742 C   0  0  0  0  0  0  0  0  0  0  0  0
   19.5802    6.5413    6.1741 C   0  0  0  0  0  0  0  0  0  0  0  0
   19.9007    5.9794    4.9892 C   0  0  0  0  0  0  0  0  0  0  0  0
   19.6091    4.3287    5.0739 S   0  0  0  0  0  0  0  0  0  0  0  0
   18.7529    1.5371    9.0753 C   0  0  0  0  0  0  0  0  0  0  0  0
   18.8078    0.1725    8.4515 N   0  0  0  0  0  0  0  0  0  0  0  0
   18.3212    0.1885    7.5552 H   0  0  0  0  0  0  0  0  0  0  0  0
   18.3584   -0.5025    9.0703 H   0  0  0  0  0  0  0  0  0  0  0  0
  7  5  1  0  0  0
  7  8  2  0  0  0
  5  6  2  0  0  0
  8  9  1  0  0  0
  6  2  1  0  0  0
  6  9  1  0  0  0
  2  1  1  0  0  0
  1 10  1  0  0  0
  1  3  2  0  0  0
 10 11  1  0  0  0
  2  4  1  0  0  0
 11 12  1  0  0  0
 11 13  1  0  0  0
M  END
> <minimizedAffinity>
-3.98048

$$$$
6FHQ_DE5_A_2003


 13 13  0  0  0  0  0  0  0  0999 V2000
   18.1671    1.5833    9.8512 C   0  0  0  0  0  0  0  0  0  0  0  0
   18.8170    2.7292    9.4423 N   0  0  0  0  0  0  0  0  0  0  0  0
   18.0544    0.5407    9.1738 O   0  0  0  0  0  0  0  0  0  0  0  0
   18.8727    3.5022   10.0494 H   0  0  0  0  0  0  0  0  0  0  0  0
   20.6991    2.7888    7.9978 N   0  0  0  0  0  0  0  0  0  0  0  0
   19.3767    2.7990    8.2172 C   0  0  0  0  0  0  0  0  0  0  0  0
   21.0636    2.8610    6.6862 C   0  0  0  0  0  0  0  0  0  0  0  0
   20.0224    2.9444    5.8310 C   0  0  0  0  0  0  0  0  0  0  0  0
   18.5929    2.8980    6.7092 S   0  0  0  0  0  0  0  0  0  0  0  0
   17.6368    1.6702   11.3256 C   0  0  0  0  0  0  0  0  0  0  0  0
   18.6304    1.1894   12.3433 N   0  0  0  0  0  0  0  0  0  0  0  0
   18.8387    0.2050   12.1764 H   0  0  0  0  0  0  0  0  0  0  0  0
   18.2395    1.3004   13.2789 H   0  0  0  0  0  0  0  0  0  0  0  0
  7  5  1  0  0  0
  7  8  2  0  0  0
  5  6  2  0  0  0
  8  9  1  0  0  0
  6  2  1  0  0  0
  6  9  1  0  0  0
  2  1  1  0  0  0
  1 10  1  0  0  0
  1  3  2  0  0  0
 10 11  1  0  0  0
  2  4  1  0  0  0
 11 12  1  0  0  0
 11 13  1  0  0  0
M  END
> <minimizedAffinity>
-3.97961

$$$$
6FHQ_DE5_A_2003


 13 13  0  0  0  0  0  0  0  0999 V2000
   17.7367    6.1084    8.5895 C   0  0  0  0  0  0  0  0  0  0  0  0
   19.0858    5.9653    8.3405 N   0  0  0  0  0  0  0  0  0  0  0  0
   16.8649    5.2509    8.3383 O   0  0  0  0  0  0  0  0  0  0  0  0
   19.7073    6.6880    8.5866 H   0  0  0  0  0  0  0  0  0  0  0  0
   19.9577    3.7605    8.4461 N   0  0  0  0  0  0  0  0  0  0  0  0
   19.5603    4.8429    7.7624 C   0  0  0  0  0  0  0  0  0  0  0  0
   20.3992    2.7257    7.6763 C   0  0  0  0  0  0  0  0  0  0  0  0
   20.3717    2.9776    6.3503 C   0  0  0  0  0  0  0  0  0  0  0  0
   19.7541    4.5184    6.1025 S   0  0  0  0  0  0  0  0  0  0  0  0
   17.3857    7.4517    9.3210 C   0  0  0  0  0  0  0  0  0  0  0  0
   18.5967    8.2447    9.7196 N   0  0  0  0  0  0  0  0  0  0  0  0
   19.1561    7.7030   10.3784 H   0  0  0  0  0  0  0  0  0  0  0  0
   18.3024    9.1164   10.1599 H   0  0  0  0  0  0  0  0  0  0  0  0
  7  5  1  0  0  0
  7  8  2  0  0  0
  5  6  2  0  0  0
  8  9  1  0  0  0
  6  2  1  0  0  0
  6  9  1  0  0  0
  2  1  1  0  0  0
  1 10  1  0  0  0
  1  3  2  0  0  0
 10 11  1  0  0  0
  2  4  1  0  0  0
 11 12  1  0  0  0
 11 13  1  0  0  0
M  END
> <minimizedAffinity>
-3.90244

$$$$
6FHQ_DE5_A_2003


 13 13  0  0  0  0  0  0  0  0999 V2000
   18.5899    5.1999    6.2918 C   0  0  0  0  0  0  0  0  0  0  0  0
   19.4783    4.7243    7.2337 N   0  0  0  0  0  0  0  0  0  0  0  0
   17.5493    4.6153    5.9261 O   0  0  0  0  0  0  0  0  0  0  0  0
   20.2679    5.2605    7.4751 H   0  0  0  0  0  0  0  0  0  0  0  0
   19.8572    2.3898    7.4318 N   0  0  0  0  0  0  0  0  0  0  0  0
   19.2738    3.5303    7.8266 C   0  0  0  0  0  0  0  0  0  0  0  0
   19.5247    1.2909    8.1666 C   0  0  0  0  0  0  0  0  0  0  0  0
   18.6490    1.5415    9.1631 C   0  0  0  0  0  0  0  0  0  0  0  0
   18.2863    3.1801    9.1685 S   0  0  0  0  0  0  0  0  0  0  0  0
   18.9627    6.6291    5.7617 C   0  0  0  0  0  0  0  0  0  0  0  0
   20.1971    7.1963    6.4010 N   0  0  0  0  0  0  0  0  0  0  0  0
   20.0439    7.2990    7.4042 H   0  0  0  0  0  0  0  0  0  0  0  0
   20.4027    8.1084    5.9933 H   0  0  0  0  0  0  0  0  0  0  0  0
  7  5  1  0  0  0
  7  8  2  0  0  0
  5  6  2  0  0  0
  8  9  1  0  0  0
  6  2  1  0  0  0
  6  9  1  0  0  0
  2  1  1  0  0  0
  1 10  1  0  0  0
  1  3  2  0  0  0
 10 11  1  0  0  0
  2  4  1  0  0  0
 11 12  1  0  0  0
 11 13  1  0  0  0
M  END
> <minimizedAffinity>
-3.72779

$$$$
6FHQ_DE5_A_2003


 13 13  0  0  0  0  0  0  0  0999 V2000
   18.7477    2.3118    8.8277 C   0  0  0  0  0  0  0  0  0  0  0  0
   18.5484    1.8430    7.5459 N   0  0  0  0  0  0  0  0  0  0  0  0
   19.1868    3.4437    9.1185 O   0  0  0  0  0  0  0  0  0  0  0  0
   18.1812    0.9400    7.4077 H   0  0  0  0  0  0  0  0  0  0  0  0
   20.0873    2.7301    5.9720 N   0  0  0  0  0  0  0  0  0  0  0  0
   18.8526    2.6118    6.4804 C   0  0  0  0  0  0  0  0  0  0  0  0
   20.1853    3.5514    4.8884 C   0  0  0  0  0  0  0  0  0  0  0  0
   19.0160    4.1174    4.5212 C   0  0  0  0  0  0  0  0  0  0  0  0
   17.8027    3.5699    5.5434 S   0  0  0  0  0  0  0  0  0  0  0  0
   18.2780    1.3007    9.9321 C   0  0  0  0  0  0  0  0  0  0  0  0
   17.4201    0.1915    9.3955 N   0  0  0  0  0  0  0  0  0  0  0  0
   16.5691    0.5843    8.9929 H   0  0  0  0  0  0  0  0  0  0  0  0
   17.1750   -0.4457   10.1533 H   0  0  0  0  0  0  0  0  0  0  0  0
  7  5  1  0  0  0
  7  8  2  0  0  0
  5  6  2  0  0  0
  8  9  1  0  0  0
  6  2  1  0  0  0
  6  9  1  0  0  0
  2  1  1  0  0  0
  1 10  1  0  0  0
  1  3  2  0  0  0
 10 11  1  0  0  0
  2  4  1  0  0  0
 11 12  1  0  0  0
 11 13  1  0  0  0
M  END
> <minimizedAffinity>
-3.67540

$$$$
6FHQ_DE5_A_2003


 13 13  0  0  0  0  0  0  0  0999 V2000
   18.4557    5.4071    6.6090 C   0  0  0  0  0  0  0  0  0  0  0  0
   19.5237    4.8001    7.2363 N   0  0  0  0  0  0  0  0  0  0  0  0
   17.3082    4.9243    6.5160 O   0  0  0  0  0  0  0  0  0  0  0  0
   20.3925    5.2614    7.2775 H   0  0  0  0  0  0  0  0  0  0  0  0
   18.7523    3.3537    8.9525 N   0  0  0  0  0  0  0  0  0  0  0  0
   19.3872    3.5796    7.7937 C   0  0  0  0  0  0  0  0  0  0  0  0
   18.7173    2.0480    9.3426 C   0  0  0  0  0  0  0  0  0  0  0  0
   19.3443    1.2050    8.4948 C   0  0  0  0  0  0  0  0  0  0  0  0
   19.9422    2.0850    7.1968 S   0  0  0  0  0  0  0  0  0  0  0  0
   18.7910    6.8452    6.0781 C   0  0  0  0  0  0  0  0  0  0  0  0
   20.2028    7.2692    6.3629 N   0  0  0  0  0  0  0  0  0  0  0  0
   20.3519    7.2993    7.3715 H   0  0  0  0  0  0  0  0  0  0  0  0
   20.3662    8.1950    5.9673 H   0  0  0  0  0  0  0  0  0  0  0  0
  7  5  1  0  0  0
  7  8  2  0  0  0
  5  6  2  0  0  0
  8  9  1  0  0  0
  6  2  1  0  0  0
  6  9  1  0  0  0
  2  1  1  0  0  0
  1 10  1  0  0  0
  1  3  2  0  0  0
 10 11  1  0  0  0
  2  4  1  0  0  0
 11 12  1  0  0  0
 11 13  1  0  0  0
M  END
> <minimizedAffinity>
-3.66255

$$$$
6FHQ_DE5_A_2003


 13 13  0  0  0  0  0  0  0  0999 V2000
   17.6480    7.0795    8.7085 C   0  0  0  0  0  0  0  0  0  0  0  0
   18.6976    7.3178    7.8457 N   0  0  0  0  0  0  0  0  0  0  0  0
   16.8653    6.1096    8.6369 O   0  0  0  0  0  0  0  0  0  0  0  0
   19.2773    8.1010    7.9864 H   0  0  0  0  0  0  0  0  0  0  0  0
   18.4975    6.7014    5.5626 N   0  0  0  0  0  0  0  0  0  0  0  0
   18.9359    6.4862    6.8110 C   0  0  0  0  0  0  0  0  0  0  0  0
   18.8506    5.7451    4.6576 C   0  0  0  0  0  0  0  0  0  0  0  0
   19.5742    4.7335    5.1824 C   0  0  0  0  0  0  0  0  0  0  0  0
   19.8207    5.0318    6.8155 S   0  0  0  0  0  0  0  0  0  0  0  0
   17.5690    8.1183    9.8820 C   0  0  0  0  0  0  0  0  0  0  0  0
   18.8732    8.8124   10.1496 N   0  0  0  0  0  0  0  0  0  0  0  0
   19.5732    8.1249   10.4285 H   0  0  0  0  0  0  0  0  0  0  0  0
   18.7484    9.4936   10.8983 H   0  0  0  0  0  0  0  0  0  0  0  0
  7  5  1  0  0  0
  7  8  2  0  0  0
  5  6  2  0  0  0
  8  9  1  0  0  0
  6  2  1  0  0  0
  6  9  1  0  0  0
  2  1  1  0  0  0
  1 10  1  0  0  0
  1  3  2  0  0  0
 10 11  1  0  0  0
  2  4  1  0  0  0
 11 12  1  0  0  0
 11 13  1  0  0  0
M  END
> <minimizedAffinity>
-3.65477

$$$$
6FHQ_DE5_A_2003


 13 13  0  0  0  0  0  0  0  0999 V2000
   18.5287    6.3955    5.6283 C   0  0  0  0  0  0  0  0  0  0  0  0
   18.2902    5.0369    5.6197 N   0  0  0  0  0  0  0  0  0  0  0  0
   19.5223    6.9471    6.1451 O   0  0  0  0  0  0  0  0  0  0  0  0
   17.4865    4.6850    5.1731 H   0  0  0  0  0  0  0  0  0  0  0  0
   20.0733    3.4718    5.5611 N   0  0  0  0  0  0  0  0  0  0  0  0
   19.1494    4.1869    6.2183 C   0  0  0  0  0  0  0  0  0  0  0  0
   20.8497    2.6752    6.3491 C   0  0  0  0  0  0  0  0  0  0  0  0
   20.5420    2.7351    7.6622 C   0  0  0  0  0  0  0  0  0  0  0  0
   19.2882    3.8299    7.8771 S   0  0  0  0  0  0  0  0  0  0  0  0
   17.4533    7.2135    4.8303 C   0  0  0  0  0  0  0  0  0  0  0  0
   17.7895    7.3760    3.3761 N   0  0  0  0  0  0  0  0  0  0  0  0
   18.6629    7.8949    3.2850 H   0  0  0  0  0  0  0  0  0  0  0  0
   17.0403    7.8866    2.9089 H   0  0  0  0  0  0  0  0  0  0  0  0
  7  5  1  0  0  0
  7  8  2  0  0  0
  5  6  2  0  0  0
  8  9  1  0  0  0
  6  2  1  0  0  0
  6  9  1  0  0  0
  2  1  1  0  0  0
  1 10  1  0  0  0
  1  3  2  0  0  0
 10 11  1  0  0  0
  2  4  1  0  0  0
 11 12  1  0  0  0
 11 13  1  0  0  0
M  END
> <minimizedAffinity>
-3.47686

$$$$
6FHQ_DE5_A_2003


 13 13  0  0  0  0  0  0  0  0999 V2000
   20.0541    2.8391    7.1286 C   0  0  0  0  0  0  0  0  0  0  0  0
   18.7361    2.4812    7.3225 N   0  0  0  0  0  0  0  0  0  0  0  0
   20.8739    3.0816    8.0383 O   0  0  0  0  0  0  0  0  0  0  0  0
   18.1623    2.2911    6.5455 H   0  0  0  0  0  0  0  0  0  0  0  0
   18.3056    1.2883    9.3285 N   0  0  0  0  0  0  0  0  0  0  0  0
   18.2275    2.3896    8.5682 C   0  0  0  0  0  0  0  0  0  0  0  0
   17.7347    1.4004   10.5613 C   0  0  0  0  0  0  0  0  0  0  0  0
   17.1742    2.6053   10.7989 C   0  0  0  0  0  0  0  0  0  0  0  0
   17.4104    3.5882    9.4592 S   0  0  0  0  0  0  0  0  0  0  0  0
   20.4772    2.8316    5.6175 C   0  0  0  0  0  0  0  0  0  0  0  0
   19.3458    3.1475    4.6825 N   0  0  0  0  0  0  0  0  0  0  0  0
   18.6196    2.4373    4.7752 H   0  0  0  0  0  0  0  0  0  0  0  0
   19.6907    3.1578    3.7226 H   0  0  0  0  0  0  0  0  0  0  0  0
  7  5  1  0  0  0
  7  8  2  0  0  0
  5  6  2  0  0  0
  8  9  1  0  0  0
  6  2  1  0  0  0
  6  9  1  0  0  0
  2  1  1  0  0  0
  1 10  1  0  0  0
  1  3  2  0  0  0
 10 11  1  0  0  0
  2  4  1  0  0  0
 11 12  1  0  0  0
 11 13  1  0  0  0
M  END
> <minimizedAffinity>
-3.47002

$$$$
6FHQ_DE5_A_2003


 13 13  0  0  0  0  0  0  0  0999 V2000
   17.9218    3.9724    3.8991 C   0  0  0  0  0  0  0  0  0  0  0  0
   18.2585    2.7920    4.5286 N   0  0  0  0  0  0  0  0  0  0  0  0
   18.2932    5.1090    4.2578 O   0  0  0  0  0  0  0  0  0  0  0  0
   17.9339    1.9358    4.1668 H   0  0  0  0  0  0  0  0  0  0  0  0
   20.3691    2.8161    5.6136 N   0  0  0  0  0  0  0  0  0  0  0  0
   19.0288    2.8017    5.6356 C   0  0  0  0  0  0  0  0  0  0  0  0
   20.9628    2.8308    6.8406 C   0  0  0  0  0  0  0  0  0  0  0  0
   20.0919    2.8147    7.8720 C   0  0  0  0  0  0  0  0  0  0  0  0
   18.5281    2.8126    7.2627 S   0  0  0  0  0  0  0  0  0  0  0  0
   17.0742    3.7545    2.5967 C   0  0  0  0  0  0  0  0  0  0  0  0
   16.9463    2.3104    2.2061 N   0  0  0  0  0  0  0  0  0  0  0  0
   17.8711    1.9287    2.0074 H   0  0  0  0  0  0  0  0  0  0  0  0
   16.3610    2.2337    1.3742 H   0  0  0  0  0  0  0  0  0  0  0  0
  7  5  1  0  0  0
  7  8  2  0  0  0
  5  6  2  0  0  0
  8  9  1  0  0  0
  6  2  1  0  0  0
  6  9  1  0  0  0
  2  1  1  0  0  0
  1 10  1  0  0  0
  1  3  2  0  0  0
 10 11  1  0  0  0
  2  4  1  0  0  0
 11 12  1  0  0  0
 11 13  1  0  0  0
M  END
> <minimizedAffinity>
-3.45448

$$$$
