6F1J_EDG_A_401


 13 13  0  0  0  0  0  0  0  0999 V2000
  -12.2360    6.2040  -30.0005 O   0  0  0  0  0  0  0  0  0  0  0  0
  -11.5854    5.4938  -28.9567 C   0  0  0  0  0  0  0  0  0  0  0  0
  -11.1100    4.1439  -29.4830 C   0  0  0  0  0  0  0  0  0  0  0  0
   -9.6605    4.1161  -29.2747 N   0  0  0  0  0  0  0  0  0  0  0  0
  -10.3182    6.2059  -28.4554 C   0  0  0  0  0  0  0  0  0  0  0  0
  -10.5131    6.9486  -27.2552 O   0  0  0  0  0  0  0  0  0  0  0  0
   -9.3208    5.0690  -28.1907 C   0  0  0  0  0  0  0  0  0  0  0  0
  -13.0259    5.7155  -30.2804 H   0  0  0  0  0  0  0  0  0  0  0  0
   -9.1844    4.3894  -30.1343 H   0  0  0  0  0  0  0  0  0  0  0  0
  -10.8130    6.3526  -26.5511 H   0  0  0  0  0  0  0  0  0  0  0  0
   -7.8389    5.4276  -28.2215 C   0  0  0  0  0  0  0  0  0  0  0  0
   -7.6007    6.8320  -28.1394 O   0  0  0  0  0  0  0  0  0  0  0  0
   -8.0018    7.2732  -28.9044 H   0  0  0  0  0  0  0  0  0  0  0  0
  1  2  1  0  0  0
  2  3  1  0  0  0
  2  5  1  0  0  0
  3  4  1  0  0  0
  4  7  1  0  0  0
  5  6  1  0  0  0
  5  7  1  0  0  0
  7 11  1  0  0  0
 11 12  1  0  0  0
  1  8  1  0  0  0
  4  9  1  0  0  0
  6 10  1  0  0  0
 12 13  1  0  0  0
M  END
> <minimizedAffinity>
-5.68842

$$$$
6F1J_EDG_A_401


 13 13  0  0  0  0  0  0  0  0999 V2000
   -8.1879    3.7830  -29.4511 O   0  0  0  0  0  0  0  0  0  0  0  0
   -9.1684    4.2154  -28.5190 C   0  0  0  0  0  0  0  0  0  0  0  0
   -8.7033    5.5088  -27.8586 C   0  0  0  0  0  0  0  0  0  0  0  0
   -9.7394    6.5039  -28.1438 N   0  0  0  0  0  0  0  0  0  0  0  0
  -10.5107    4.5573  -29.1862 C   0  0  0  0  0  0  0  0  0  0  0  0
  -11.4830    3.5205  -29.0860 O   0  0  0  0  0  0  0  0  0  0  0  0
  -11.0104    5.7947  -28.4269 C   0  0  0  0  0  0  0  0  0  0  0  0
   -7.3632    3.5805  -28.9823 H   0  0  0  0  0  0  0  0  0  0  0  0
   -9.4680    7.0599  -28.9548 H   0  0  0  0  0  0  0  0  0  0  0  0
  -11.6594    3.3321  -28.1510 H   0  0  0  0  0  0  0  0  0  0  0  0
  -11.9938    6.7037  -29.1563 C   0  0  0  0  0  0  0  0  0  0  0  0
  -12.5260    6.1158  -30.3424 O   0  0  0  0  0  0  0  0  0  0  0  0
  -11.8054    5.9398  -30.9675 H   0  0  0  0  0  0  0  0  0  0  0  0
  1  2  1  0  0  0
  2  3  1  0  0  0
  2  5  1  0  0  0
  3  4  1  0  0  0
  4  7  1  0  0  0
  5  6  1  0  0  0
  5  7  1  0  0  0
  7 11  1  0  0  0
 11 12  1  0  0  0
  1  8  1  0  0  0
  4  9  1  0  0  0
  6 10  1  0  0  0
 12 13  1  0  0  0
M  END
> <minimizedAffinity>
-5.68226

$$$$
6F1J_EDG_A_401


 13 13  0  0  0  0  0  0  0  0999 V2000
  -11.5406    7.7033  -27.3890 O   0  0  0  0  0  0  0  0  0  0  0  0
  -11.3712    6.2937  -27.4257 C   0  0  0  0  0  0  0  0  0  0  0  0
  -11.7029    5.7804  -28.8228 C   0  0  0  0  0  0  0  0  0  0  0  0
  -10.4969    5.1005  -29.3009 N   0  0  0  0  0  0  0  0  0  0  0  0
   -9.9177    5.8643  -27.1673 C   0  0  0  0  0  0  0  0  0  0  0  0
   -9.6744    5.4340  -25.8309 O   0  0  0  0  0  0  0  0  0  0  0  0
   -9.6908    4.6874  -28.1270 C   0  0  0  0  0  0  0  0  0  0  0  0
  -12.4706    7.9217  -27.5571 H   0  0  0  0  0  0  0  0  0  0  0  0
   -9.9530    5.7356  -29.8850 H   0  0  0  0  0  0  0  0  0  0  0  0
  -10.2451    4.6770  -25.6260 H   0  0  0  0  0  0  0  0  0  0  0  0
   -8.2502    4.3905  -28.5292 C   0  0  0  0  0  0  0  0  0  0  0  0
   -8.1505    3.6031  -29.7149 O   0  0  0  0  0  0  0  0  0  0  0  0
   -8.5733    2.7425  -29.5680 H   0  0  0  0  0  0  0  0  0  0  0  0
  1  2  1  0  0  0
  2  3  1  0  0  0
  2  5  1  0  0  0
  3  4  1  0  0  0
  4  7  1  0  0  0
  5  6  1  0  0  0
  5  7  1  0  0  0
  7 11  1  0  0  0
 11 12  1  0  0  0
  1  8  1  0  0  0
  4  9  1  0  0  0
  6 10  1  0  0  0
 12 13  1  0  0  0
M  END
> <minimizedAffinity>
-5.42163

$$$$
6F1J_EDG_A_401


 13 13  0  0  0  0  0  0  0  0999 V2000
  -12.8610    6.5662  -27.5640 O   0  0  0  0  0  0  0  0  0  0  0  0
  -11.4677    6.7792  -27.3899 C   0  0  0  0  0  0  0  0  0  0  0  0
  -11.0177    6.1396  -26.0808 C   0  0  0  0  0  0  0  0  0  0  0  0
   -9.9780    5.1725  -26.4395 N   0  0  0  0  0  0  0  0  0  0  0  0
  -10.6236    6.1061  -28.4846 C   0  0  0  0  0  0  0  0  0  0  0  0
  -10.2015    6.9964  -29.5139 O   0  0  0  0  0  0  0  0  0  0  0  0
   -9.3911    5.5710  -27.7416 C   0  0  0  0  0  0  0  0  0  0  0  0
  -13.3474    7.0090  -26.8511 H   0  0  0  0  0  0  0  0  0  0  0  0
  -10.3868    4.2413  -26.5174 H   0  0  0  0  0  0  0  0  0  0  0  0
   -9.6675    7.7078  -29.1271 H   0  0  0  0  0  0  0  0  0  0  0  0
   -8.6464    4.4066  -28.3858 C   0  0  0  0  0  0  0  0  0  0  0  0
   -9.2481    3.9600  -29.6000 O   0  0  0  0  0  0  0  0  0  0  0  0
  -10.1453    3.6396  -29.4175 H   0  0  0  0  0  0  0  0  0  0  0  0
  1  2  1  0  0  0
  2  3  1  0  0  0
  2  5  1  0  0  0
  3  4  1  0  0  0
  4  7  1  0  0  0
  5  6  1  0  0  0
  5  7  1  0  0  0
  7 11  1  0  0  0
 11 12  1  0  0  0
  1  8  1  0  0  0
  4  9  1  0  0  0
  6 10  1  0  0  0
 12 13  1  0  0  0
M  END
> <minimizedAffinity>
-5.32040

$$$$
6F1J_EDG_A_401


 13 13  0  0  0  0  0  0  0  0999 V2000
   -7.8407    3.5719  -29.6716 O   0  0  0  0  0  0  0  0  0  0  0  0
   -8.2235    4.2174  -28.4659 C   0  0  0  0  0  0  0  0  0  0  0  0
   -7.6835    5.6434  -28.4617 C   0  0  0  0  0  0  0  0  0  0  0  0
   -8.8502    6.5175  -28.3212 N   0  0  0  0  0  0  0  0  0  0  0  0
   -9.7483    4.3578  -28.3268 C   0  0  0  0  0  0  0  0  0  0  0  0
  -10.3426    3.3694  -27.4900 O   0  0  0  0  0  0  0  0  0  0  0  0
   -9.9482    5.7427  -27.6946 C   0  0  0  0  0  0  0  0  0  0  0  0
   -6.8736    3.5081  -29.7113 H   0  0  0  0  0  0  0  0  0  0  0  0
   -9.1442    6.8487  -29.2401 H   0  0  0  0  0  0  0  0  0  0  0  0
   -9.9601    3.4265  -26.6004 H   0  0  0  0  0  0  0  0  0  0  0  0
  -11.2955    6.4195  -27.9229 C   0  0  0  0  0  0  0  0  0  0  0  0
  -11.4642    7.6066  -27.1497 O   0  0  0  0  0  0  0  0  0  0  0  0
  -11.4290    7.3854  -26.2059 H   0  0  0  0  0  0  0  0  0  0  0  0
  1  2  1  0  0  0
  2  3  1  0  0  0
  2  5  1  0  0  0
  3  4  1  0  0  0
  4  7  1  0  0  0
  5  6  1  0  0  0
  5  7  1  0  0  0
  7 11  1  0  0  0
 11 12  1  0  0  0
  1  8  1  0  0  0
  4  9  1  0  0  0
  6 10  1  0  0  0
 12 13  1  0  0  0
M  END
> <minimizedAffinity>
-5.29285

$$$$
6F1J_EDG_A_401


 13 13  0  0  0  0  0  0  0  0999 V2000
  -12.7623    4.9186  -26.3674 O   0  0  0  0  0  0  0  0  0  0  0  0
  -12.0549    5.4174  -27.4935 C   0  0  0  0  0  0  0  0  0  0  0  0
  -11.2772    6.6655  -27.0903 C   0  0  0  0  0  0  0  0  0  0  0  0
   -9.8712    6.3781  -27.3825 N   0  0  0  0  0  0  0  0  0  0  0  0
  -10.9990    4.4293  -28.0156 C   0  0  0  0  0  0  0  0  0  0  0  0
  -11.4257    3.6774  -29.1483 O   0  0  0  0  0  0  0  0  0  0  0  0
   -9.8109    5.3159  -28.4153 C   0  0  0  0  0  0  0  0  0  0  0  0
  -13.4137    5.5763  -26.0775 H   0  0  0  0  0  0  0  0  0  0  0  0
   -9.4020    6.0600  -26.5345 H   0  0  0  0  0  0  0  0  0  0  0  0
  -11.6458    4.2825  -29.8737 H   0  0  0  0  0  0  0  0  0  0  0  0
   -8.4355    4.6579  -28.4443 C   0  0  0  0  0  0  0  0  0  0  0  0
   -8.2816    3.7288  -29.5160 O   0  0  0  0  0  0  0  0  0  0  0  0
   -8.9239    3.0090  -29.4148 H   0  0  0  0  0  0  0  0  0  0  0  0
  1  2  1  0  0  0
  2  3  1  0  0  0
  2  5  1  0  0  0
  3  4  1  0  0  0
  4  7  1  0  0  0
  5  6  1  0  0  0
  5  7  1  0  0  0
  7 11  1  0  0  0
 11 12  1  0  0  0
  1  8  1  0  0  0
  4  9  1  0  0  0
  6 10  1  0  0  0
 12 13  1  0  0  0
M  END
> <minimizedAffinity>
-5.24635

$$$$
6F1J_EDG_A_401


 13 13  0  0  0  0  0  0  0  0999 V2000
  -10.6615    3.3284  -27.9906 O   0  0  0  0  0  0  0  0  0  0  0  0
   -9.9573    4.3748  -28.6433 C   0  0  0  0  0  0  0  0  0  0  0  0
  -10.2697    5.7001  -27.9568 C   0  0  0  0  0  0  0  0  0  0  0  0
   -8.9823    6.2387  -27.5123 N   0  0  0  0  0  0  0  0  0  0  0  0
   -8.4314    4.2137  -28.5451 C   0  0  0  0  0  0  0  0  0  0  0  0
   -7.8359    3.6563  -29.7134 O   0  0  0  0  0  0  0  0  0  0  0  0
   -7.9087    5.6434  -28.3437 C   0  0  0  0  0  0  0  0  0  0  0  0
  -11.6160    3.4756  -28.0810 H   0  0  0  0  0  0  0  0  0  0  0  0
   -8.8300    6.0006  -26.5322 H   0  0  0  0  0  0  0  0  0  0  0  0
   -8.0225    4.2270  -30.4752 H   0  0  0  0  0  0  0  0  0  0  0  0
   -6.5482    5.7943  -27.6715 C   0  0  0  0  0  0  0  0  0  0  0  0
   -6.3003    7.1177  -27.1998 O   0  0  0  0  0  0  0  0  0  0  0  0
   -6.3016    7.7337  -27.9491 H   0  0  0  0  0  0  0  0  0  0  0  0
  1  2  1  0  0  0
  2  3  1  0  0  0
  2  5  1  0  0  0
  3  4  1  0  0  0
  4  7  1  0  0  0
  5  6  1  0  0  0
  5  7  1  0  0  0
  7 11  1  0  0  0
 11 12  1  0  0  0
  1  8  1  0  0  0
  4  9  1  0  0  0
  6 10  1  0  0  0
 12 13  1  0  0  0
M  END
> <minimizedAffinity>
-5.14034

$$$$
6F1J_EDG_A_401


 13 13  0  0  0  0  0  0  0  0999 V2000
   -9.8611    3.9542  -29.4801 O   0  0  0  0  0  0  0  0  0  0  0  0
  -10.2923    5.1385  -28.8256 C   0  0  0  0  0  0  0  0  0  0  0  0
  -11.8059    5.0951  -28.6462 C   0  0  0  0  0  0  0  0  0  0  0  0
  -12.0460    5.2082  -27.2058 N   0  0  0  0  0  0  0  0  0  0  0  0
   -9.7166    5.2748  -27.4064 C   0  0  0  0  0  0  0  0  0  0  0  0
   -8.5909    6.1444  -27.3238 O   0  0  0  0  0  0  0  0  0  0  0  0
  -10.8707    5.8613  -26.5809 C   0  0  0  0  0  0  0  0  0  0  0  0
  -10.2500    3.9155  -30.3679 H   0  0  0  0  0  0  0  0  0  0  0  0
  -12.1765    4.2793  -26.8051 H   0  0  0  0  0  0  0  0  0  0  0  0
   -8.8446    7.0311  -27.6242 H   0  0  0  0  0  0  0  0  0  0  0  0
  -10.8415    5.6125  -25.0767 C   0  0  0  0  0  0  0  0  0  0  0  0
   -9.5326    5.7120  -24.5177 O   0  0  0  0  0  0  0  0  0  0  0  0
   -8.9594    5.0377  -24.9147 H   0  0  0  0  0  0  0  0  0  0  0  0
  1  2  1  0  0  0
  2  3  1  0  0  0
  2  5  1  0  0  0
  3  4  1  0  0  0
  4  7  1  0  0  0
  5  6  1  0  0  0
  5  7  1  0  0  0
  7 11  1  0  0  0
 11 12  1  0  0  0
  1  8  1  0  0  0
  4  9  1  0  0  0
  6 10  1  0  0  0
 12 13  1  0  0  0
M  END
> <minimizedAffinity>
-5.11406

$$$$
6F1J_EDG_A_401


 13 13  0  0  0  0  0  0  0  0999 V2000
  -10.3458    6.9205  -29.5143 O   0  0  0  0  0  0  0  0  0  0  0  0
  -10.2756    5.7050  -28.7831 C   0  0  0  0  0  0  0  0  0  0  0  0
   -9.0854    5.7551  -27.8312 C   0  0  0  0  0  0  0  0  0  0  0  0
   -9.6340    5.5610  -26.4871 N   0  0  0  0  0  0  0  0  0  0  0  0
  -11.5052    5.4797  -27.8880 C   0  0  0  0  0  0  0  0  0  0  0  0
  -12.4701    4.5939  -28.4491 O   0  0  0  0  0  0  0  0  0  0  0  0
  -10.9347    4.8592  -26.6046 C   0  0  0  0  0  0  0  0  0  0  0  0
   -9.5502    7.0153  -30.0611 H   0  0  0  0  0  0  0  0  0  0  0  0
   -9.7712    6.4664  -26.0378 H   0  0  0  0  0  0  0  0  0  0  0  0
  -12.0607    3.7292  -28.6089 H   0  0  0  0  0  0  0  0  0  0  0  0
  -11.7603    5.0195  -25.3325 C   0  0  0  0  0  0  0  0  0  0  0  0
  -11.2215    4.3050  -24.2213 O   0  0  0  0  0  0  0  0  0  0  0  0
  -11.2131    3.3558  -24.4206 H   0  0  0  0  0  0  0  0  0  0  0  0
  1  2  1  0  0  0
  2  3  1  0  0  0
  2  5  1  0  0  0
  3  4  1  0  0  0
  4  7  1  0  0  0
  5  6  1  0  0  0
  5  7  1  0  0  0
  7 11  1  0  0  0
 11 12  1  0  0  0
  1  8  1  0  0  0
  4  9  1  0  0  0
  6 10  1  0  0  0
 12 13  1  0  0  0
M  END
> <minimizedAffinity>
-5.03814

$$$$
6F1J_EDG_A_401


 13 13  0  0  0  0  0  0  0  0999 V2000
   -8.4484    6.0200  -27.2639 O   0  0  0  0  0  0  0  0  0  0  0  0
   -9.6139    5.2117  -27.3364 C   0  0  0  0  0  0  0  0  0  0  0  0
  -10.6833    5.7817  -26.4107 C   0  0  0  0  0  0  0  0  0  0  0  0
  -11.8420    6.0684  -27.2594 N   0  0  0  0  0  0  0  0  0  0  0  0
  -10.2467    5.2079  -28.7376 C   0  0  0  0  0  0  0  0  0  0  0  0
   -9.9160    4.0601  -29.5145 O   0  0  0  0  0  0  0  0  0  0  0  0
  -11.7592    5.2217  -28.4737 C   0  0  0  0  0  0  0  0  0  0  0  0
   -8.0888    5.9889  -26.3636 H   0  0  0  0  0  0  0  0  0  0  0  0
  -11.8376    7.0530  -27.5259 H   0  0  0  0  0  0  0  0  0  0  0  0
  -10.2165    3.2608  -29.0544 H   0  0  0  0  0  0  0  0  0  0  0  0
  -12.6502    5.7682  -29.5841 C   0  0  0  0  0  0  0  0  0  0  0  0
  -12.4876    5.0793  -30.8229 O   0  0  0  0  0  0  0  0  0  0  0  0
  -11.5744    5.1830  -31.1331 H   0  0  0  0  0  0  0  0  0  0  0  0
  1  2  1  0  0  0
  2  3  1  0  0  0
  2  5  1  0  0  0
  3  4  1  0  0  0
  4  7  1  0  0  0
  5  6  1  0  0  0
  5  7  1  0  0  0
  7 11  1  0  0  0
 11 12  1  0  0  0
  1  8  1  0  0  0
  4  9  1  0  0  0
  6 10  1  0  0  0
 12 13  1  0  0  0
M  END
> <minimizedAffinity>
-4.94133

$$$$
