1CET_CLQ_A_1001


 23 24  0  0  0  0  0  0  0  0999 V2000
   34.6231   11.6257   20.1131 N   0  0  0  0  0  0  0  0  0  0  0  0
   34.7155   12.4820   20.5902 H   0  0  0  0  0  0  0  0  0  0  0  0
   37.5675   16.4109   16.1295 Cl  0  0  0  0  0  0  0  0  0  0  0  0
   35.7402   11.6001   16.0348 N   0  0  0  0  0  0  0  0  0  0  0  0
   35.1575   10.5118   16.5781 C   0  0  0  0  0  0  0  0  0  0  0  0
   34.7659   10.4838   17.9104 C   0  0  0  0  0  0  0  0  0  0  0  0
   34.9950   11.6255   18.7952 C   0  0  0  0  0  0  0  0  0  0  0  0
   35.6427   12.8195   18.2135 C   0  0  0  0  0  0  0  0  0  0  0  0
   35.9369   14.0573   18.9352 C   0  0  0  0  0  0  0  0  0  0  0  0
   36.5389   15.1509   18.2987 C   0  0  0  0  0  0  0  0  0  0  0  0
   36.8626   15.0521   16.9059 C   0  0  0  0  0  0  0  0  0  0  0  0
   36.6026   13.8905   16.1610 C   0  0  0  0  0  0  0  0  0  0  0  0
   35.9954   12.7707   16.7920 C   0  0  0  0  0  0  0  0  0  0  0  0
   34.0908   10.4739   20.9166 C   0  0  0  0  0  0  0  0  0  0  0  0
   33.1928   10.9809   22.0357 C   0  0  0  0  0  0  0  0  0  0  0  0
   35.2612    9.6169   21.4223 C   0  0  0  0  0  0  0  0  0  0  0  0
   35.0474    8.1146   21.4423 C   0  0  0  0  0  0  0  0  0  0  0  0
   34.0070    7.7337   20.4007 C   0  0  0  0  0  0  0  0  0  0  0  0
   32.7473    7.1593   20.9863 N   0  0  0  0  0  0  0  0  0  0  0  0
   32.8836    6.8412   22.4918 C   0  0  0  0  0  0  0  0  0  0  0  0
   32.0758    7.6795   23.4769 C   0  0  0  0  0  0  0  0  0  0  0  0
   31.5045    7.8839   20.5495 C   0  0  0  0  0  0  0  0  0  0  0  0
   30.4577    7.0250   19.9206 C   0  0  0  0  0  0  0  0  0  0  0  0
  3 11  1  0  0  0
  4  5  2  0  0  0
  4 13  1  0  0  0
  5  6  1  0  0  0
  6  7  2  0  0  0
  7  8  1  0  0  0
  7  1  1  0  0  0
  8  9  2  0  0  0
  8 13  1  0  0  0
  9 10  1  0  0  0
 10 11  2  0  0  0
 11 12  1  0  0  0
 12 13  2  0  0  0
  1 14  1  0  0  0
 14 16  1  0  0  0
 14 15  1  0  0  0
 16 17  1  0  0  0
 17 18  1  0  0  0
 18 19  1  0  0  0
 19 20  1  0  0  0
 19 22  1  0  0  0
 20 21  1  0  0  0
 22 23  1  0  0  0
  1  2  1  0  0  0
M  END
> <minimizedAffinity>
-6.07049

$$$$
1CET_CLQ_A_1001


 23 24  0  0  0  0  0  0  0  0999 V2000
   34.6569   10.6370   18.9054 N   0  0  0  0  0  0  0  0  0  0  0  0
   33.7661   10.9659   19.1654 H   0  0  0  0  0  0  0  0  0  0  0  0
   37.3720   16.5480   16.6416 Cl  0  0  0  0  0  0  0  0  0  0  0  0
   36.0295   11.8285   15.0873 N   0  0  0  0  0  0  0  0  0  0  0  0
   35.5215   10.5913   15.2621 C   0  0  0  0  0  0  0  0  0  0  0  0
   35.0502   10.1653   16.4973 C   0  0  0  0  0  0  0  0  0  0  0  0
   35.1105   11.0305   17.6748 C   0  0  0  0  0  0  0  0  0  0  0  0
   35.6752   12.3846   17.4974 C   0  0  0  0  0  0  0  0  0  0  0  0
   35.8014   13.3920   18.5503 C   0  0  0  0  0  0  0  0  0  0  0  0
   36.3340   14.6616   18.2893 C   0  0  0  0  0  0  0  0  0  0  0  0
   36.7540   14.9779   16.9559 C   0  0  0  0  0  0  0  0  0  0  0  0
   36.6559   14.0523   15.9044 C   0  0  0  0  0  0  0  0  0  0  0  0
   36.1211   12.7588   16.1526 C   0  0  0  0  0  0  0  0  0  0  0  0
   35.3581    9.7629   19.9054 C   0  0  0  0  0  0  0  0  0  0  0  0
   35.2134    8.2980   19.5196 C   0  0  0  0  0  0  0  0  0  0  0  0
   34.8312   10.0714   21.3150 C   0  0  0  0  0  0  0  0  0  0  0  0
   33.6076   10.9647   21.4053 C   0  0  0  0  0  0  0  0  0  0  0  0
   32.3689   10.1115   21.6292 C   0  0  0  0  0  0  0  0  0  0  0  0
   32.6691    8.7373   22.1596 N   0  0  0  0  0  0  0  0  0  0  0  0
   32.4398    8.6256   23.6832 C   0  0  0  0  0  0  0  0  0  0  0  0
   31.9961    9.8764   24.4343 C   0  0  0  0  0  0  0  0  0  0  0  0
   32.1143    7.6347   21.3013 C   0  0  0  0  0  0  0  0  0  0  0  0
   31.1471    8.0735   20.2519 C   0  0  0  0  0  0  0  0  0  0  0  0
  3 11  1  0  0  0
  4  5  2  0  0  0
  4 13  1  0  0  0
  5  6  1  0  0  0
  6  7  2  0  0  0
  7  8  1  0  0  0
  7  1  1  0  0  0
  8  9  2  0  0  0
  8 13  1  0  0  0
  9 10  1  0  0  0
 10 11  2  0  0  0
 11 12  1  0  0  0
 12 13  2  0  0  0
  1 14  1  0  0  0
 14 16  1  0  0  0
 14 15  1  0  0  0
 16 17  1  0  0  0
 17 18  1  0  0  0
 18 19  1  0  0  0
 19 20  1  0  0  0
 19 22  1  0  0  0
 20 21  1  0  0  0
 22 23  1  0  0  0
  1  2  1  0  0  0
M  END
> <minimizedAffinity>
-6.00912

$$$$
1CET_CLQ_A_1001


 23 24  0  0  0  0  0  0  0  0999 V2000
   34.4381    9.9507   17.3523 N   0  0  0  0  0  0  0  0  0  0  0  0
   33.5142    9.7952   17.0498 H   0  0  0  0  0  0  0  0  0  0  0  0
   36.6730   16.3985   18.2837 Cl  0  0  0  0  0  0  0  0  0  0  0  0
   36.7632   12.5075   14.9155 N   0  0  0  0  0  0  0  0  0  0  0  0
   36.4500   11.2692   14.4823 C   0  0  0  0  0  0  0  0  0  0  0  0
   35.6796   10.4030   15.2474 C   0  0  0  0  0  0  0  0  0  0  0  0
   35.1962   10.7841   16.5740 C   0  0  0  0  0  0  0  0  0  0  0  0
   35.5426   12.1348   17.0636 C   0  0  0  0  0  0  0  0  0  0  0  0
   35.1366   12.6964   18.3517 C   0  0  0  0  0  0  0  0  0  0  0  0
   35.4954   13.9973   18.7293 C   0  0  0  0  0  0  0  0  0  0  0  0
   36.2698   14.7946   17.8243 C   0  0  0  0  0  0  0  0  0  0  0  0
   36.6870   14.3099   16.5742 C   0  0  0  0  0  0  0  0  0  0  0  0
   36.3346   12.9913   16.1769 C   0  0  0  0  0  0  0  0  0  0  0  0
   34.8497    9.2457   18.6129 C   0  0  0  0  0  0  0  0  0  0  0  0
   35.8215    8.1187   18.2946 C   0  0  0  0  0  0  0  0  0  0  0  0
   33.5986    8.7699   19.3666 C   0  0  0  0  0  0  0  0  0  0  0  0
   33.1888    9.5763   20.5853 C   0  0  0  0  0  0  0  0  0  0  0  0
   34.3328   10.4875   21.0018 C   0  0  0  0  0  0  0  0  0  0  0  0
   35.0371   10.0406   22.2525 N   0  0  0  0  0  0  0  0  0  0  0  0
   34.1085    9.2630   23.2113 C   0  0  0  0  0  0  0  0  0  0  0  0
   33.2243   10.0655   24.1597 C   0  0  0  0  0  0  0  0  0  0  0  0
   36.3971    9.4552   21.9918 C   0  0  0  0  0  0  0  0  0  0  0  0
   37.3202   10.3230   21.2020 C   0  0  0  0  0  0  0  0  0  0  0  0
  3 11  1  0  0  0
  4  5  2  0  0  0
  4 13  1  0  0  0
  5  6  1  0  0  0
  6  7  2  0  0  0
  7  8  1  0  0  0
  7  1  1  0  0  0
  8  9  2  0  0  0
  8 13  1  0  0  0
  9 10  1  0  0  0
 10 11  2  0  0  0
 11 12  1  0  0  0
 12 13  2  0  0  0
  1 14  1  0  0  0
 14 16  1  0  0  0
 14 15  1  0  0  0
 16 17  1  0  0  0
 17 18  1  0  0  0
 18 19  1  0  0  0
 19 20  1  0  0  0
 19 22  1  0  0  0
 20 21  1  0  0  0
 22 23  1  0  0  0
  1  2  1  0  0  0
M  END
> <minimizedAffinity>
-5.75326

$$$$
1CET_CLQ_A_1001


 23 24  0  0  0  0  0  0  0  0999 V2000
   34.8413    9.9168   16.8816 N   0  0  0  0  0  0  0  0  0  0  0  0
   33.8801    9.8400   16.6830 H   0  0  0  0  0  0  0  0  0  0  0  0
   36.5067   16.4266   18.3934 Cl  0  0  0  0  0  0  0  0  0  0  0  0
   36.9432   12.8677   14.7007 N   0  0  0  0  0  0  0  0  0  0  0  0
   36.7396   11.6497   14.1582 C   0  0  0  0  0  0  0  0  0  0  0  0
   36.0449   10.6568   14.8371 C   0  0  0  0  0  0  0  0  0  0  0  0
   35.5266   10.8773   16.1867 C   0  0  0  0  0  0  0  0  0  0  0  0
   35.7533   12.2047   16.7955 C   0  0  0  0  0  0  0  0  0  0  0  0
   35.2965   12.6144   18.1232 C   0  0  0  0  0  0  0  0  0  0  0  0
   35.5402   13.9032   18.6162 C   0  0  0  0  0  0  0  0  0  0  0  0
   36.2453   14.8403   17.7921 C   0  0  0  0  0  0  0  0  0  0  0  0
   36.7065   14.5047   16.5090 C   0  0  0  0  0  0  0  0  0  0  0  0
   36.4706   13.2005   15.9949 C   0  0  0  0  0  0  0  0  0  0  0  0
   35.3830    8.9667   17.9109 C   0  0  0  0  0  0  0  0  0  0  0  0
   35.8199    7.6667   17.2516 C   0  0  0  0  0  0  0  0  0  0  0  0
   34.3392    8.7613   19.0191 C   0  0  0  0  0  0  0  0  0  0  0  0
   34.6566    7.7121   20.0688 C   0  0  0  0  0  0  0  0  0  0  0  0
   33.4834    7.5787   21.0272 C   0  0  0  0  0  0  0  0  0  0  0  0
   32.4833    8.6956   20.9178 N   0  0  0  0  0  0  0  0  0  0  0  0
   31.1140    8.2166   20.3868 C   0  0  0  0  0  0  0  0  0  0  0  0
   30.9905    6.7673   19.9288 C   0  0  0  0  0  0  0  0  0  0  0  0
   32.4733    9.6039   22.1157 C   0  0  0  0  0  0  0  0  0  0  0  0
   33.1379   10.9257   21.9148 C   0  0  0  0  0  0  0  0  0  0  0  0
  3 11  1  0  0  0
  4  5  2  0  0  0
  4 13  1  0  0  0
  5  6  1  0  0  0
  6  7  2  0  0  0
  7  8  1  0  0  0
  7  1  1  0  0  0
  8  9  2  0  0  0
  8 13  1  0  0  0
  9 10  1  0  0  0
 10 11  2  0  0  0
 11 12  1  0  0  0
 12 13  2  0  0  0
  1 14  1  0  0  0
 14 16  1  0  0  0
 14 15  1  0  0  0
 16 17  1  0  0  0
 17 18  1  0  0  0
 18 19  1  0  0  0
 19 20  1  0  0  0
 19 22  1  0  0  0
 20 21  1  0  0  0
 22 23  1  0  0  0
  1  2  1  0  0  0
M  END
> <minimizedAffinity>
-5.73349

$$$$
1CET_CLQ_A_1001


 23 24  0  0  0  0  0  0  0  0999 V2000
   34.5657   11.1342   19.6128 N   0  0  0  0  0  0  0  0  0  0  0  0
   33.8347   11.7240   19.9078 H   0  0  0  0  0  0  0  0  0  0  0  0
   37.5013   16.4627   16.3839 Cl  0  0  0  0  0  0  0  0  0  0  0  0
   35.8710   11.6404   15.6226 N   0  0  0  0  0  0  0  0  0  0  0  0
   35.3069   10.4754   16.0017 C   0  0  0  0  0  0  0  0  0  0  0  0
   34.8554   10.2731   17.2996 C   0  0  0  0  0  0  0  0  0  0  0  0
   34.9981   11.3061   18.3249 C   0  0  0  0  0  0  0  0  0  0  0  0
   35.6246   12.5829   17.9236 C   0  0  0  0  0  0  0  0  0  0  0  0
   35.8362   13.7331   18.8019 C   0  0  0  0  0  0  0  0  0  0  0  0
   36.4236   14.9154   18.3320 C   0  0  0  0  0  0  0  0  0  0  0  0
   36.8152   14.9970   16.9557 C   0  0  0  0  0  0  0  0  0  0  0  0
   36.6358   13.9262   16.0651 C   0  0  0  0  0  0  0  0  0  0  0  0
   36.0446   12.7185   16.5262 C   0  0  0  0  0  0  0  0  0  0  0  0
   35.0751   10.1520   20.6284 C   0  0  0  0  0  0  0  0  0  0  0  0
   34.2099   10.1895   21.8797 C   0  0  0  0  0  0  0  0  0  0  0  0
   36.5592   10.4299   20.9114 C   0  0  0  0  0  0  0  0  0  0  0  0
   37.5159    9.2644   20.7403 C   0  0  0  0  0  0  0  0  0  0  0  0
   38.6389    9.3726   21.7601 C   0  0  0  0  0  0  0  0  0  0  0  0
   39.9177    9.9248   21.1949 N   0  0  0  0  0  0  0  0  0  0  0  0
   40.4553   11.1253   22.0048 C   0  0  0  0  0  0  0  0  0  0  0  0
   39.4611   12.1938   22.4470 C   0  0  0  0  0  0  0  0  0  0  0  0
   40.9069    8.8596   20.8116 C   0  0  0  0  0  0  0  0  0  0  0  0
   41.7251    9.1605   19.5995 C   0  0  0  0  0  0  0  0  0  0  0  0
  3 11  1  0  0  0
  4  5  2  0  0  0
  4 13  1  0  0  0
  5  6  1  0  0  0
  6  7  2  0  0  0
  7  8  1  0  0  0
  7  1  1  0  0  0
  8  9  2  0  0  0
  8 13  1  0  0  0
  9 10  1  0  0  0
 10 11  2  0  0  0
 11 12  1  0  0  0
 12 13  2  0  0  0
  1 14  1  0  0  0
 14 16  1  0  0  0
 14 15  1  0  0  0
 16 17  1  0  0  0
 17 18  1  0  0  0
 18 19  1  0  0  0
 19 20  1  0  0  0
 19 22  1  0  0  0
 20 21  1  0  0  0
 22 23  1  0  0  0
  1  2  1  0  0  0
M  END
> <minimizedAffinity>
-5.56356

$$$$
1CET_CLQ_A_1001


 23 24  0  0  0  0  0  0  0  0999 V2000
   36.7524   13.1818   14.7960 N   0  0  0  0  0  0  0  0  0  0  0  0
   37.5172   12.5712   14.6889 H   0  0  0  0  0  0  0  0  0  0  0  0
   34.0851   10.9554   20.7429 Cl  0  0  0  0  0  0  0  0  0  0  0  0
   36.3352   15.0429   18.5701 N   0  0  0  0  0  0  0  0  0  0  0  0
   36.8952   15.7193   17.5463 C   0  0  0  0  0  0  0  0  0  0  0  0
   37.0405   15.1479   16.2887 C   0  0  0  0  0  0  0  0  0  0  0  0
   36.6188   13.7728   16.0241 C   0  0  0  0  0  0  0  0  0  0  0  0
   36.0138   13.0184   17.1415 C   0  0  0  0  0  0  0  0  0  0  0  0
   35.5190   11.6441   17.0632 C   0  0  0  0  0  0  0  0  0  0  0  0
   34.9413   11.0094   18.1709 C   0  0  0  0  0  0  0  0  0  0  0  0
   34.8264   11.7318   19.4035 C   0  0  0  0  0  0  0  0  0  0  0  0
   35.2820   13.0532   19.5382 C   0  0  0  0  0  0  0  0  0  0  0  0
   35.8736   13.7107   18.4253 C   0  0  0  0  0  0  0  0  0  0  0  0
   35.8698   13.3553   13.5933 C   0  0  0  0  0  0  0  0  0  0  0  0
   34.6257   12.4884   13.7217 C   0  0  0  0  0  0  0  0  0  0  0  0
   36.6775   13.0681   12.3185 C   0  0  0  0  0  0  0  0  0  0  0  0
   37.8270   12.0855   12.4464 C   0  0  0  0  0  0  0  0  0  0  0  0
   37.3491   10.6907   12.0741 C   0  0  0  0  0  0  0  0  0  0  0  0
   37.5420    9.6743   13.1647 N   0  0  0  0  0  0  0  0  0  0  0  0
   36.2066    9.0841   13.6694 C   0  0  0  0  0  0  0  0  0  0  0  0
   36.1185    8.6588   15.1312 C   0  0  0  0  0  0  0  0  0  0  0  0
   38.6560    8.7048   12.8834 C   0  0  0  0  0  0  0  0  0  0  0  0
   39.6468    8.5393   13.9880 C   0  0  0  0  0  0  0  0  0  0  0  0
  3 11  1  0  0  0
  4  5  2  0  0  0
  4 13  1  0  0  0
  5  6  1  0  0  0
  6  7  2  0  0  0
  7  8  1  0  0  0
  7  1  1  0  0  0
  8  9  2  0  0  0
  8 13  1  0  0  0
  9 10  1  0  0  0
 10 11  2  0  0  0
 11 12  1  0  0  0
 12 13  2  0  0  0
  1 14  1  0  0  0
 14 16  1  0  0  0
 14 15  1  0  0  0
 16 17  1  0  0  0
 17 18  1  0  0  0
 18 19  1  0  0  0
 19 20  1  0  0  0
 19 22  1  0  0  0
 20 21  1  0  0  0
 22 23  1  0  0  0
  1  2  1  0  0  0
M  END
> <minimizedAffinity>
-5.54930

$$$$
1CET_CLQ_A_1001


 23 24  0  0  0  0  0  0  0  0999 V2000
   34.8019   12.2576   18.8745 N   0  0  0  0  0  0  0  0  0  0  0  0
   33.8749   12.5350   19.0562 H   0  0  0  0  0  0  0  0  0  0  0  0
   35.9644   11.4628   12.1326 Cl  0  0  0  0  0  0  0  0  0  0  0  0
   36.9551   14.6011   16.0901 N   0  0  0  0  0  0  0  0  0  0  0  0
   36.8910   14.9835   17.3819 C   0  0  0  0  0  0  0  0  0  0  0  0
   36.2034   14.2362   18.3295 C   0  0  0  0  0  0  0  0  0  0  0  0
   35.4907   13.0128   17.9633 C   0  0  0  0  0  0  0  0  0  0  0  0
   35.5450   12.5899   16.5484 C   0  0  0  0  0  0  0  0  0  0  0  0
   34.9112   11.3913   15.9998 C   0  0  0  0  0  0  0  0  0  0  0  0
   35.0293   11.0552   14.6446 C   0  0  0  0  0  0  0  0  0  0  0  0
   35.7982   11.9041   13.7829 C   0  0  0  0  0  0  0  0  0  0  0  0
   36.4305   13.0665   14.2528 C   0  0  0  0  0  0  0  0  0  0  0  0
   36.3180   13.4239   15.6241 C   0  0  0  0  0  0  0  0  0  0  0  0
   35.2936   11.0559   19.6293 C   0  0  0  0  0  0  0  0  0  0  0  0
   36.7255   11.2748   20.0959 C   0  0  0  0  0  0  0  0  0  0  0  0
   35.1267    9.8004   18.7600 C   0  0  0  0  0  0  0  0  0  0  0  0
   33.9392    8.9082   19.0716 C   0  0  0  0  0  0  0  0  0  0  0  0
   34.0152    8.4450   20.5180 C   0  0  0  0  0  0  0  0  0  0  0  0
   32.7100    8.5508   21.2562 N   0  0  0  0  0  0  0  0  0  0  0  0
   32.8162    9.4201   22.5288 C   0  0  0  0  0  0  0  0  0  0  0  0
   33.0557   10.9162   22.3562 C   0  0  0  0  0  0  0  0  0  0  0  0
   31.5348    8.8009   20.3526 C   0  0  0  0  0  0  0  0  0  0  0  0
   30.6778    7.6085   20.0821 C   0  0  0  0  0  0  0  0  0  0  0  0
  3 11  1  0  0  0
  4  5  2  0  0  0
  4 13  1  0  0  0
  5  6  1  0  0  0
  6  7  2  0  0  0
  7  8  1  0  0  0
  7  1  1  0  0  0
  8  9  2  0  0  0
  8 13  1  0  0  0
  9 10  1  0  0  0
 10 11  2  0  0  0
 11 12  1  0  0  0
 12 13  2  0  0  0
  1 14  1  0  0  0
 14 16  1  0  0  0
 14 15  1  0  0  0
 16 17  1  0  0  0
 17 18  1  0  0  0
 18 19  1  0  0  0
 19 20  1  0  0  0
 19 22  1  0  0  0
 20 21  1  0  0  0
 22 23  1  0  0  0
  1  2  1  0  0  0
M  END
> <minimizedAffinity>
-5.44755

$$$$
1CET_CLQ_A_1001


 23 24  0  0  0  0  0  0  0  0999 V2000
   34.7996   10.9574   19.7163 N   0  0  0  0  0  0  0  0  0  0  0  0
   35.5350   11.0522   20.3640 H   0  0  0  0  0  0  0  0  0  0  0  0
   37.4043   16.4128   16.4161 Cl  0  0  0  0  0  0  0  0  0  0  0  0
   35.7604   11.5962   15.6480 N   0  0  0  0  0  0  0  0  0  0  0  0
   35.2410   10.4140   16.0375 C   0  0  0  0  0  0  0  0  0  0  0  0
   34.9019   10.1683   17.3619 C   0  0  0  0  0  0  0  0  0  0  0  0
   35.1207   11.1722   18.4025 C   0  0  0  0  0  0  0  0  0  0  0  0
   35.6995   12.4676   17.9891 C   0  0  0  0  0  0  0  0  0  0  0  0
   35.9734   13.5938   18.8811 C   0  0  0  0  0  0  0  0  0  0  0  0
   36.5083   14.7962   18.3998 C   0  0  0  0  0  0  0  0  0  0  0  0
   36.7822   14.9229   16.9986 C   0  0  0  0  0  0  0  0  0  0  0  0
   36.5386   13.8768   16.0941 C   0  0  0  0  0  0  0  0  0  0  0  0
   35.9993   12.6492   16.5662 C   0  0  0  0  0  0  0  0  0  0  0  0
   33.4581   10.5944   20.2856 C   0  0  0  0  0  0  0  0  0  0  0  0
   33.3531   11.0622   21.7298 C   0  0  0  0  0  0  0  0  0  0  0  0
   33.2221    9.0855   20.1205 C   0  0  0  0  0  0  0  0  0  0  0  0
   31.8171    8.5811   20.3942 C   0  0  0  0  0  0  0  0  0  0  0  0
   31.8438    7.6061   21.5609 C   0  0  0  0  0  0  0  0  0  0  0  0
   31.6706    6.1697   21.1526 N   0  0  0  0  0  0  0  0  0  0  0  0
   30.6623    5.9989   19.9949 C   0  0  0  0  0  0  0  0  0  0  0  0
   31.1265    5.2606   18.7439 C   0  0  0  0  0  0  0  0  0  0  0  0
   32.9703    5.4218   21.0444 C   0  0  0  0  0  0  0  0  0  0  0  0
   33.3062    4.5612   22.2172 C   0  0  0  0  0  0  0  0  0  0  0  0
  3 11  1  0  0  0
  4  5  2  0  0  0
  4 13  1  0  0  0
  5  6  1  0  0  0
  6  7  2  0  0  0
  7  8  1  0  0  0
  7  1  1  0  0  0
  8  9  2  0  0  0
  8 13  1  0  0  0
  9 10  1  0  0  0
 10 11  2  0  0  0
 11 12  1  0  0  0
 12 13  2  0  0  0
  1 14  1  0  0  0
 14 16  1  0  0  0
 14 15  1  0  0  0
 16 17  1  0  0  0
 17 18  1  0  0  0
 18 19  1  0  0  0
 19 20  1  0  0  0
 19 22  1  0  0  0
 20 21  1  0  0  0
 22 23  1  0  0  0
  1  2  1  0  0  0
M  END
> <minimizedAffinity>
-5.42042

$$$$
1CET_CLQ_A_1001


 23 24  0  0  0  0  0  0  0  0999 V2000
   34.6200   11.3072   19.8211 N   0  0  0  0  0  0  0  0  0  0  0  0
   33.8539   11.8603   20.0975 H   0  0  0  0  0  0  0  0  0  0  0  0
   37.5163   16.4741   16.3066 Cl  0  0  0  0  0  0  0  0  0  0  0  0
   35.7968   11.6521   15.7742 N   0  0  0  0  0  0  0  0  0  0  0  0
   35.2303   10.5097   16.2135 C   0  0  0  0  0  0  0  0  0  0  0  0
   34.8200   10.3603   17.5321 C   0  0  0  0  0  0  0  0  0  0  0  0
   35.0110   11.4269   18.5142 C   0  0  0  0  0  0  0  0  0  0  0  0
   35.6407   12.6793   18.0466 C   0  0  0  0  0  0  0  0  0  0  0  0
   35.8971   13.8569   18.8754 C   0  0  0  0  0  0  0  0  0  0  0  0
   36.4841   15.0130   18.3440 C   0  0  0  0  0  0  0  0  0  0  0  0
   36.8302   15.0398   16.9533 C   0  0  0  0  0  0  0  0  0  0  0  0
   36.6066   13.9408   16.1084 C   0  0  0  0  0  0  0  0  0  0  0  0
   36.0151   12.7590   16.6321 C   0  0  0  0  0  0  0  0  0  0  0  0
   35.2221   10.4318   20.8826 C   0  0  0  0  0  0  0  0  0  0  0  0
   36.7061   10.2241   20.6168 C   0  0  0  0  0  0  0  0  0  0  0  0
   34.4340    9.1162   20.9705 C   0  0  0  0  0  0  0  0  0  0  0  0
   33.9593    8.6965   22.3495 C   0  0  0  0  0  0  0  0  0  0  0  0
   32.5347    9.1819   22.5678 C   0  0  0  0  0  0  0  0  0  0  0  0
   31.9552    8.7783   23.8948 N   0  0  0  0  0  0  0  0  0  0  0  0
   32.5787    7.4759   24.4437 C   0  0  0  0  0  0  0  0  0  0  0  0
   31.6521    6.2936   24.7065 C   0  0  0  0  0  0  0  0  0  0  0  0
   31.8122    9.9264   24.8549 C   0  0  0  0  0  0  0  0  0  0  0  0
   30.6235    9.8556   25.7555 C   0  0  0  0  0  0  0  0  0  0  0  0
  3 11  1  0  0  0
  4  5  2  0  0  0
  4 13  1  0  0  0
  5  6  1  0  0  0
  6  7  2  0  0  0
  7  8  1  0  0  0
  7  1  1  0  0  0
  8  9  2  0  0  0
  8 13  1  0  0  0
  9 10  1  0  0  0
 10 11  2  0  0  0
 11 12  1  0  0  0
 12 13  2  0  0  0
  1 14  1  0  0  0
 14 16  1  0  0  0
 14 15  1  0  0  0
 16 17  1  0  0  0
 17 18  1  0  0  0
 18 19  1  0  0  0
 19 20  1  0  0  0
 19 22  1  0  0  0
 20 21  1  0  0  0
 22 23  1  0  0  0
  1  2  1  0  0  0
M  END
> <minimizedAffinity>
-5.37270

$$$$
1CET_CLQ_A_1001


 23 24  0  0  0  0  0  0  0  0999 V2000
   36.4145   13.1187   16.6185 N   0  0  0  0  0  0  0  0  0  0  0  0
   37.1530   12.5761   16.9781 H   0  0  0  0  0  0  0  0  0  0  0  0
   35.3273    7.7551   12.4368 Cl  0  0  0  0  0  0  0  0  0  0  0  0
   35.7849   12.8817   12.4437 N   0  0  0  0  0  0  0  0  0  0  0  0
   35.9886   14.0817   13.0248 C   0  0  0  0  0  0  0  0  0  0  0  0
   36.2099   14.2013   14.3908 C   0  0  0  0  0  0  0  0  0  0  0  0
   36.2028   13.0315   15.2684 C   0  0  0  0  0  0  0  0  0  0  0  0
   35.9697   11.7125   14.6441 C   0  0  0  0  0  0  0  0  0  0  0  0
   35.9439   10.4341   15.3545 C   0  0  0  0  0  0  0  0  0  0  0  0
   35.7334    9.2247   14.6788 C   0  0  0  0  0  0  0  0  0  0  0  0
   35.5493    9.2462   13.2575 C   0  0  0  0  0  0  0  0  0  0  0  0
   35.5654   10.4422   12.5219 C   0  0  0  0  0  0  0  0  0  0  0  0
   35.7744   11.6782   13.1922 C   0  0  0  0  0  0  0  0  0  0  0  0
   35.6529   13.9445   17.6153 C   0  0  0  0  0  0  0  0  0  0  0  0
   36.4731   15.1561   18.0338 C   0  0  0  0  0  0  0  0  0  0  0  0
   35.2328   13.0608   18.7995 C   0  0  0  0  0  0  0  0  0  0  0  0
   35.8345   11.6688   18.8587 C   0  0  0  0  0  0  0  0  0  0  0  0
   34.7228   10.6314   18.8332 C   0  0  0  0  0  0  0  0  0  0  0  0
   34.8348    9.5983   19.9194 N   0  0  0  0  0  0  0  0  0  0  0  0
   34.6451   10.1974   21.3306 C   0  0  0  0  0  0  0  0  0  0  0  0
   33.3651   10.9773   21.6114 C   0  0  0  0  0  0  0  0  0  0  0  0
   34.0935    8.3276   19.6098 C   0  0  0  0  0  0  0  0  0  0  0  0
   34.9362    7.2147   19.0803 C   0  0  0  0  0  0  0  0  0  0  0  0
  3 11  1  0  0  0
  4  5  2  0  0  0
  4 13  1  0  0  0
  5  6  1  0  0  0
  6  7  2  0  0  0
  7  8  1  0  0  0
  7  1  1  0  0  0
  8  9  2  0  0  0
  8 13  1  0  0  0
  9 10  1  0  0  0
 10 11  2  0  0  0
 11 12  1  0  0  0
 12 13  2  0  0  0
  1 14  1  0  0  0
 14 16  1  0  0  0
 14 15  1  0  0  0
 16 17  1  0  0  0
 17 18  1  0  0  0
 18 19  1  0  0  0
 19 20  1  0  0  0
 19 22  1  0  0  0
 20 21  1  0  0  0
 22 23  1  0  0  0
  1  2  1  0  0  0
M  END
> <minimizedAffinity>
-5.18946

$$$$
