5HCV_60R_A_1001


 29 33  0  0  0  0  0  0  0  0999 V2000
   -4.2334  -20.5716   -8.5014 C   0  0  0  0  0  0  0  0  0  0  0  0
   -1.9382  -18.9779   -7.8091 C   0  0  0  0  0  0  0  0  0  0  0  0
   -1.7750  -20.3038   -8.1279 C   0  0  0  0  0  0  0  0  0  0  0  0
   -0.1123  -21.9270   -8.8221 C   0  0  0  0  0  0  0  0  0  0  0  0
   -0.4969  -23.0646   -7.9558 C   0  0  0  0  0  0  0  0  0  0  0  0
   -1.9338  -23.4143   -7.9396 C   0  0  0  0  0  0  0  0  0  0  0  0
   -2.3182  -24.4730   -7.1395 C   0  0  0  0  0  0  0  0  0  0  0  0
   -1.3331  -25.1238   -6.3845 C   0  0  0  0  0  0  0  0  0  0  0  0
   -3.4032  -17.1865   -7.5674 F   0  0  0  0  0  0  0  0  0  0  0  0
   -3.2373  -18.4702   -7.8312 C   0  0  0  0  0  0  0  0  0  0  0  0
   -4.3659  -19.2254   -8.1681 C   0  0  0  0  0  0  0  0  0  0  0  0
   -2.9646  -21.1526   -8.4726 C   0  0  0  0  0  0  0  0  0  0  0  0
   -0.5095  -20.7658   -8.0973 O   0  0  0  0  0  0  0  0  0  0  0  0
    0.4323  -23.7199   -7.1976 C   0  0  0  0  0  0  0  0  0  0  0  0
   -0.0033  -24.7731   -6.3972 C   0  0  0  0  0  0  0  0  0  0  0  0
   -2.8621  -22.5942   -8.8050 C   0  0  0  0  0  0  0  0  0  0  0  0
   -3.5506  -23.0100   -9.8883 C   0  0  0  0  0  0  0  0  0  0  0  0
   -2.5688  -25.2835  -10.5076 C   0  0  0  0  0  0  0  0  0  0  0  0
   -2.7903  -26.5948  -10.9791 C   0  0  0  0  0  0  0  0  0  0  0  0
   -3.6521  -24.3929  -10.4068 C   0  0  0  0  0  0  0  0  0  0  0  0
   -4.9654  -24.7740  -10.7588 C   0  0  0  0  0  0  0  0  0  0  0  0
   -5.2358  -26.0563  -11.2227 C   0  0  0  0  0  0  0  0  0  0  0  0
   -6.4785  -26.4552  -11.6088 N   0  0  0  0  0  0  0  0  0  0  0  0
   -6.8098  -27.7575  -11.7267 C   0  0  0  0  0  0  0  0  0  0  0  0
   -7.9688  -28.1400  -11.9563 O   0  0  0  0  0  0  0  0  0  0  0  0
   -4.0941  -27.0105  -11.3309 C   0  0  0  0  0  0  0  0  0  0  0  0
   -4.4141  -28.2638  -11.8102 O   0  0  0  0  0  0  0  0  0  0  0  0
   -5.7170  -28.8008  -11.5460 C   0  0  0  0  0  0  0  0  0  0  0  0
   -7.1577  -25.7711  -11.8087 H   0  0  0  0  0  0  0  0  0  0  0  0
 25 24  2  0  0  0
 27 28  1  0  0  0
 27 26  1  0  0  0
 24 23  1  0  0  0
 24 28  1  0  0  0
 23 22  1  0  0  0
 26 22  2  0  0  0
 26 19  1  0  0  0
 22 21  1  0  0  0
 19 18  2  0  0  0
 21 20  2  0  0  0
 18 20  1  0  0  0
 20 17  1  0  0  0
 17 16  2  0  0  0
 16 12  1  0  0  0
 16  6  1  0  0  0
  4 13  1  0  0  0
  4  5  1  0  0  0
 12  1  2  0  0  0
 12  3  1  0  0  0
  1 11  1  0  0  0
 11 10  2  0  0  0
  3 13  1  0  0  0
  3  2  2  0  0  0
  6  5  2  0  0  0
  6  7  1  0  0  0
  5 14  1  0  0  0
 10  2  1  0  0  0
 10  9  1  0  0  0
  7  8  2  0  0  0
 14 15  2  0  0  0
  8 15  1  0  0  0
 23 29  1  0  0  0
M  END
> <minimizedAffinity>
-14.52400

$$$$
