5DUW_5GO_A_201


 35 36  0  0  0  0  0  0  0  0999 V2000
   77.8084  -13.9841  -51.9893 C   0  0  0  0  0  0  0  0  0  0  0  0
   76.7706  -14.4821  -51.0030 C   0  0  0  0  0  0  0  0  0  0  0  0
   77.0963  -15.8717  -50.4776 C   0  0  0  0  0  0  0  0  0  0  0  0
   77.4811  -16.8138  -51.6256 C   0  0  0  0  0  0  0  0  0  0  0  0
   78.5297  -16.1670  -52.5386 C   0  0  0  0  0  0  0  0  0  0  0  0
   76.7246  -13.5640  -49.8980 O   0  0  0  0  0  0  0  0  0  0  0  0
   76.2902  -17.0840  -52.3768 O   0  0  0  0  0  0  0  0  0  0  0  0
   78.0209  -14.9213  -53.0417 O   0  0  0  0  0  0  0  0  0  0  0  0
   77.5921  -13.5355  -49.4650 H   0  0  0  0  0  0  0  0  0  0  0  0
   75.9296  -16.2520  -52.7213 H   0  0  0  0  0  0  0  0  0  0  0  0
   78.8974  -17.0041  -53.7608 C   0  0  0  0  0  0  0  0  0  0  0  0
   80.1003  -16.4903  -54.3632 O   0  0  0  0  0  0  0  0  0  0  0  0
   79.9566  -15.5716  -54.6394 H   0  0  0  0  0  0  0  0  0  0  0  0
   77.2567  -12.7845  -52.5257 O   0  0  0  0  0  0  0  0  0  0  0  0
   78.7029   -9.6151  -54.7480 C   0  0  0  0  0  0  0  0  0  0  0  0
   78.1862  -10.8121  -55.5435 C   0  0  0  0  0  0  0  0  0  0  0  0
   77.3950  -11.7490  -54.6483 C   0  0  0  0  0  0  0  0  0  0  0  0
   78.1731  -12.0973  -53.3795 C   0  0  0  0  0  0  0  0  0  0  0  0
   78.6879  -10.8219  -52.7229 C   0  0  0  0  0  0  0  0  0  0  0  0
   79.5342   -8.8661  -55.6327 O   0  0  0  0  0  0  0  0  0  0  0  0
   77.3315  -10.3639  -56.6064 O   0  0  0  0  0  0  0  0  0  0  0  0
   77.0576  -12.9212  -55.3855 O   0  0  0  0  0  0  0  0  0  0  0  0
   79.4922  -10.0921  -53.6556 O   0  0  0  0  0  0  0  0  0  0  0  0
   80.2508   -9.4322  -55.9599 H   0  0  0  0  0  0  0  0  0  0  0  0
   76.5696   -9.8943  -56.2325 H   0  0  0  0  0  0  0  0  0  0  0  0
   77.8695  -13.3684  -55.6712 H   0  0  0  0  0  0  0  0  0  0  0  0
   79.5130  -11.0894  -51.4728 C   0  0  0  0  0  0  0  0  0  0  0  0
   78.6998  -11.2434  -50.3117 O   0  0  0  0  0  0  0  0  0  0  0  0
   78.2033  -10.4251  -50.1539 H   0  0  0  0  0  0  0  0  0  0  0  0
   75.9437  -16.3372  -49.7837 O   0  0  0  0  0  0  0  0  0  0  0  0
   76.0846  -16.6780  -48.2430 S   0  0  0  0  0  0  0  0  0  0  0  0
   74.8019  -16.9307  -47.5669 O   0  0  0  0  0  0  0  0  0  0  0  0
   76.7866  -15.5056  -47.6439 O   0  0  0  0  0  0  0  0  0  0  0  0
   76.9839  -17.8134  -48.2466 O   0  0  0  0  0  0  0  0  0  0  0  0
   77.8040  -17.5749  -48.7064 H   0  0  0  0  0  0  0  0  0  0  0  0
 33 31  2  0  0  0
  7  4  1  0  0  0
 30 31  1  0  0  0
 30  3  1  0  0  0
 31 32  2  0  0  0
 31 34  1  0  0  0
 22 17  1  0  0  0
  4  3  1  0  0  0
  4  5  1  0  0  0
 21 16  1  0  0  0
  2  3  1  0  0  0
  2  6  1  0  0  0
  2  1  1  0  0  0
 17 16  1  0  0  0
 17 18  1  0  0  0
 14  1  1  0  0  0
 14 18  1  0  0  0
  8  5  1  0  0  0
  8  1  1  0  0  0
 11  5  1  0  0  0
 11 12  1  0  0  0
 16 15  1  0  0  0
 18 19  1  0  0  0
 15 20  1  0  0  0
 15 23  1  0  0  0
 19 23  1  0  0  0
 19 27  1  0  0  0
 27 28  1  0  0  0
  6  9  1  0  0  0
  7 10  1  0  0  0
 12 13  1  0  0  0
 20 24  1  0  0  0
 21 25  1  0  0  0
 22 26  1  0  0  0
 28 29  1  0  0  0
 34 35  1  0  0  0
M  END
> <minimizedAffinity>
-6.04517

$$$$
5DUW_5GO_A_201


 35 36  0  0  0  0  0  0  0  0999 V2000
   78.5342  -10.7469  -51.7867 C   0  0  0  0  0  0  0  0  0  0  0  0
   77.8831  -12.0685  -51.4300 C   0  0  0  0  0  0  0  0  0  0  0  0
   77.9507  -13.0702  -52.5724 C   0  0  0  0  0  0  0  0  0  0  0  0
   77.5330  -12.4180  -53.8967 C   0  0  0  0  0  0  0  0  0  0  0  0
   78.2683  -11.0894  -54.1103 C   0  0  0  0  0  0  0  0  0  0  0  0
   78.5687  -12.6133  -50.2901 O   0  0  0  0  0  0  0  0  0  0  0  0
   76.1204  -12.1810  -53.8316 O   0  0  0  0  0  0  0  0  0  0  0  0
   78.0076  -10.2160  -53.0000 O   0  0  0  0  0  0  0  0  0  0  0  0
   79.5003  -12.7640  -50.5147 H   0  0  0  0  0  0  0  0  0  0  0  0
   75.9250  -11.5953  -53.0835 H   0  0  0  0  0  0  0  0  0  0  0  0
   77.8379  -10.3300  -55.3625 C   0  0  0  0  0  0  0  0  0  0  0  0
   77.2470  -11.2403  -56.3090 O   0  0  0  0  0  0  0  0  0  0  0  0
   77.8967  -11.9169  -56.5559 H   0  0  0  0  0  0  0  0  0  0  0  0
   78.2091   -9.8760  -50.7065 O   0  0  0  0  0  0  0  0  0  0  0  0
   79.7172   -6.3542  -49.1582 C   0  0  0  0  0  0  0  0  0  0  0  0
   79.1127   -6.2673  -50.5581 C   0  0  0  0  0  0  0  0  0  0  0  0
   78.3133   -7.5185  -50.8749 C   0  0  0  0  0  0  0  0  0  0  0  0
   79.1231   -8.7839  -50.5927 C   0  0  0  0  0  0  0  0  0  0  0  0
   79.7240   -8.7114  -49.1940 C   0  0  0  0  0  0  0  0  0  0  0  0
   80.5481   -5.2054  -49.0011 O   0  0  0  0  0  0  0  0  0  0  0  0
   78.2394   -5.1312  -50.6467 O   0  0  0  0  0  0  0  0  0  0  0  0
   77.8912   -7.4680  -52.2353 O   0  0  0  0  0  0  0  0  0  0  0  0
   80.5250   -7.5308  -49.0758 O   0  0  0  0  0  0  0  0  0  0  0  0
   81.2232   -5.1970  -49.6976 H   0  0  0  0  0  0  0  0  0  0  0  0
   77.5162   -5.2287  -50.0077 H   0  0  0  0  0  0  0  0  0  0  0  0
   78.6689   -7.4353  -52.8142 H   0  0  0  0  0  0  0  0  0  0  0  0
   80.5838   -9.9198  -48.8541 C   0  0  0  0  0  0  0  0  0  0  0  0
   79.8076  -11.0199  -48.3847 O   0  0  0  0  0  0  0  0  0  0  0  0
   79.3435  -10.7648  -47.5721 H   0  0  0  0  0  0  0  0  0  0  0  0
   77.0930  -14.1535  -52.2300 O   0  0  0  0  0  0  0  0  0  0  0  0
   77.7288  -15.5985  -52.0976 S   0  0  0  0  0  0  0  0  0  0  0  0
   78.8192  -15.6840  -51.1126 O   0  0  0  0  0  0  0  0  0  0  0  0
   78.2126  -15.9417  -53.4666 O   0  0  0  0  0  0  0  0  0  0  0  0
   76.5824  -16.4258  -51.7825 O   0  0  0  0  0  0  0  0  0  0  0  0
   75.9077  -16.3192  -52.4712 H   0  0  0  0  0  0  0  0  0  0  0  0
 33 31  2  0  0  0
  7  4  1  0  0  0
 30 31  1  0  0  0
 30  3  1  0  0  0
 31 32  2  0  0  0
 31 34  1  0  0  0
 22 17  1  0  0  0
  4  3  1  0  0  0
  4  5  1  0  0  0
 21 16  1  0  0  0
  2  3  1  0  0  0
  2  6  1  0  0  0
  2  1  1  0  0  0
 17 16  1  0  0  0
 17 18  1  0  0  0
 14  1  1  0  0  0
 14 18  1  0  0  0
  8  5  1  0  0  0
  8  1  1  0  0  0
 11  5  1  0  0  0
 11 12  1  0  0  0
 16 15  1  0  0  0
 18 19  1  0  0  0
 15 20  1  0  0  0
 15 23  1  0  0  0
 19 23  1  0  0  0
 19 27  1  0  0  0
 27 28  1  0  0  0
  6  9  1  0  0  0
  7 10  1  0  0  0
 12 13  1  0  0  0
 20 24  1  0  0  0
 21 25  1  0  0  0
 22 26  1  0  0  0
 28 29  1  0  0  0
 34 35  1  0  0  0
M  END
> <minimizedAffinity>
-5.83337

$$$$
5DUW_5GO_A_201


 35 36  0  0  0  0  0  0  0  0999 V2000
   77.3912  -14.1023  -50.6627 C   0  0  0  0  0  0  0  0  0  0  0  0
   78.2663  -13.2691  -51.5780 C   0  0  0  0  0  0  0  0  0  0  0  0
   77.6683  -11.8986  -51.8553 C   0  0  0  0  0  0  0  0  0  0  0  0
   76.1827  -12.0142  -52.2203 C   0  0  0  0  0  0  0  0  0  0  0  0
   75.4356  -12.8922  -51.2092 C   0  0  0  0  0  0  0  0  0  0  0  0
   79.5457  -13.1009  -50.9447 O   0  0  0  0  0  0  0  0  0  0  0  0
   76.1057  -12.6085  -53.5228 O   0  0  0  0  0  0  0  0  0  0  0  0
   76.0553  -14.1869  -51.1521 O   0  0  0  0  0  0  0  0  0  0  0  0
   79.4302  -12.6372  -50.1006 H   0  0  0  0  0  0  0  0  0  0  0  0
   76.5239  -13.4835  -53.5042 H   0  0  0  0  0  0  0  0  0  0  0  0
   73.9686  -13.1346  -51.5541 C   0  0  0  0  0  0  0  0  0  0  0  0
   73.3460  -13.9227  -50.5221 O   0  0  0  0  0  0  0  0  0  0  0  0
   73.8001  -14.7767  -50.4492 H   0  0  0  0  0  0  0  0  0  0  0  0
   77.9833  -15.3986  -50.6712 O   0  0  0  0  0  0  0  0  0  0  0  0
   76.5795  -19.2777  -50.9107 C   0  0  0  0  0  0  0  0  0  0  0  0
   76.8492  -18.5782  -52.2414 C   0  0  0  0  0  0  0  0  0  0  0  0
   77.6558  -17.3101  -52.0262 C   0  0  0  0  0  0  0  0  0  0  0  0
   77.0329  -16.4302  -50.9425 C   0  0  0  0  0  0  0  0  0  0  0  0
   76.7537  -17.2638  -49.6975 C   0  0  0  0  0  0  0  0  0  0  0  0
   75.7150  -20.3759  -51.1956 O   0  0  0  0  0  0  0  0  0  0  0  0
   77.5872  -19.4480  -53.1132 O   0  0  0  0  0  0  0  0  0  0  0  0
   77.7600  -16.6101  -53.2634 O   0  0  0  0  0  0  0  0  0  0  0  0
   75.9070  -18.3669  -50.0378 O   0  0  0  0  0  0  0  0  0  0  0  0
   74.9037  -20.0486  -51.6145 H   0  0  0  0  0  0  0  0  0  0  0  0
   78.4397  -19.6670  -52.7054 H   0  0  0  0  0  0  0  0  0  0  0  0
   76.8731  -16.3709  -53.5751 H   0  0  0  0  0  0  0  0  0  0  0  0
   76.0904  -16.4653  -48.5851 C   0  0  0  0  0  0  0  0  0  0  0  0
   74.8656  -15.8684  -49.0054 O   0  0  0  0  0  0  0  0  0  0  0  0
   75.0398  -15.2506  -49.7326 H   0  0  0  0  0  0  0  0  0  0  0  0
   78.4231  -11.3195  -52.9144 O   0  0  0  0  0  0  0  0  0  0  0  0
   78.6583   -9.7530  -52.8960 S   0  0  0  0  0  0  0  0  0  0  0  0
   77.7620   -9.0033  -53.7909 O   0  0  0  0  0  0  0  0  0  0  0  0
   80.0865   -9.5656  -53.2849 O   0  0  0  0  0  0  0  0  0  0  0  0
   78.5051   -9.4220  -51.4943 O   0  0  0  0  0  0  0  0  0  0  0  0
   79.1240   -9.9515  -50.9675 H   0  0  0  0  0  0  0  0  0  0  0  0
 33 31  2  0  0  0
  7  4  1  0  0  0
 30 31  1  0  0  0
 30  3  1  0  0  0
 31 32  2  0  0  0
 31 34  1  0  0  0
 22 17  1  0  0  0
  4  3  1  0  0  0
  4  5  1  0  0  0
 21 16  1  0  0  0
  2  3  1  0  0  0
  2  6  1  0  0  0
  2  1  1  0  0  0
 17 16  1  0  0  0
 17 18  1  0  0  0
 14  1  1  0  0  0
 14 18  1  0  0  0
  8  5  1  0  0  0
  8  1  1  0  0  0
 11  5  1  0  0  0
 11 12  1  0  0  0
 16 15  1  0  0  0
 18 19  1  0  0  0
 15 20  1  0  0  0
 15 23  1  0  0  0
 19 23  1  0  0  0
 19 27  1  0  0  0
 27 28  1  0  0  0
  6  9  1  0  0  0
  7 10  1  0  0  0
 12 13  1  0  0  0
 20 24  1  0  0  0
 21 25  1  0  0  0
 22 26  1  0  0  0
 28 29  1  0  0  0
 34 35  1  0  0  0
M  END
> <minimizedAffinity>
-5.83252

$$$$
5DUW_5GO_A_201


 35 36  0  0  0  0  0  0  0  0999 V2000
   79.0121  -12.9295  -52.3349 C   0  0  0  0  0  0  0  0  0  0  0  0
   77.7368  -13.5790  -51.8351 C   0  0  0  0  0  0  0  0  0  0  0  0
   77.9700  -14.9970  -51.3374 C   0  0  0  0  0  0  0  0  0  0  0  0
   78.8176  -15.7946  -52.3368 C   0  0  0  0  0  0  0  0  0  0  0  0
   80.0642  -15.0044  -52.7531 C   0  0  0  0  0  0  0  0  0  0  0  0
   77.2218  -12.7835  -50.7543 O   0  0  0  0  0  0  0  0  0  0  0  0
   78.0007  -16.0458  -53.4880 O   0  0  0  0  0  0  0  0  0  0  0  0
   79.6649  -13.7409  -53.3078 O   0  0  0  0  0  0  0  0  0  0  0  0
   77.8719  -12.7559  -50.0348 H   0  0  0  0  0  0  0  0  0  0  0  0
   77.7178  -15.2021  -53.8740 H   0  0  0  0  0  0  0  0  0  0  0  0
   80.9134  -15.6909  -53.8195 C   0  0  0  0  0  0  0  0  0  0  0  0
   81.3008  -14.7373  -54.8266 O   0  0  0  0  0  0  0  0  0  0  0  0
   80.5070  -14.3667  -55.2432 H   0  0  0  0  0  0  0  0  0  0  0  0
   78.5887  -11.7105  -52.9397 O   0  0  0  0  0  0  0  0  0  0  0  0
   79.3987   -9.7034  -56.4597 C   0  0  0  0  0  0  0  0  0  0  0  0
   78.3771  -10.8351  -56.5522 C   0  0  0  0  0  0  0  0  0  0  0  0
   77.9279  -11.2657  -55.1673 C   0  0  0  0  0  0  0  0  0  0  0  0
   79.1225  -11.5398  -54.2538 C   0  0  0  0  0  0  0  0  0  0  0  0
   80.0930  -10.3659  -54.3064 C   0  0  0  0  0  0  0  0  0  0  0  0
   79.8549   -9.4568  -57.7885 O   0  0  0  0  0  0  0  0  0  0  0  0
   77.2265  -10.3993  -57.2920 O   0  0  0  0  0  0  0  0  0  0  0  0
   77.0938  -12.4153  -55.2860 O   0  0  0  0  0  0  0  0  0  0  0  0
   80.5005  -10.1396  -55.6600 O   0  0  0  0  0  0  0  0  0  0  0  0
   80.2339  -10.2704  -58.1565 H   0  0  0  0  0  0  0  0  0  0  0  0
   76.8122   -9.6511  -56.8343 H   0  0  0  0  0  0  0  0  0  0  0  0
   77.5958  -13.1382  -55.6940 H   0  0  0  0  0  0  0  0  0  0  0  0
   81.3343  -10.5835  -53.4537 C   0  0  0  0  0  0  0  0  0  0  0  0
   81.8573  -11.9031  -53.5882 O   0  0  0  0  0  0  0  0  0  0  0  0
   81.1938  -12.5457  -53.2920 H   0  0  0  0  0  0  0  0  0  0  0  0
   76.6896  -15.5897  -51.1482 O   0  0  0  0  0  0  0  0  0  0  0  0
   76.1226  -15.6913  -49.6724 S   0  0  0  0  0  0  0  0  0  0  0  0
   75.6719  -17.0412  -49.2968 O   0  0  0  0  0  0  0  0  0  0  0  0
   74.9973  -14.7133  -49.6157 O   0  0  0  0  0  0  0  0  0  0  0  0
   77.2212  -15.1915  -48.8717 O   0  0  0  0  0  0  0  0  0  0  0  0
   77.4635  -14.3023  -49.1742 H   0  0  0  0  0  0  0  0  0  0  0  0
 33 31  2  0  0  0
  7  4  1  0  0  0
 30 31  1  0  0  0
 30  3  1  0  0  0
 31 32  2  0  0  0
 31 34  1  0  0  0
 22 17  1  0  0  0
  4  3  1  0  0  0
  4  5  1  0  0  0
 21 16  1  0  0  0
  2  3  1  0  0  0
  2  6  1  0  0  0
  2  1  1  0  0  0
 17 16  1  0  0  0
 17 18  1  0  0  0
 14  1  1  0  0  0
 14 18  1  0  0  0
  8  5  1  0  0  0
  8  1  1  0  0  0
 11  5  1  0  0  0
 11 12  1  0  0  0
 16 15  1  0  0  0
 18 19  1  0  0  0
 15 20  1  0  0  0
 15 23  1  0  0  0
 19 23  1  0  0  0
 19 27  1  0  0  0
 27 28  1  0  0  0
  6  9  1  0  0  0
  7 10  1  0  0  0
 12 13  1  0  0  0
 20 24  1  0  0  0
 21 25  1  0  0  0
 22 26  1  0  0  0
 28 29  1  0  0  0
 34 35  1  0  0  0
M  END
> <minimizedAffinity>
-5.80029

$$$$
5DUW_5GO_A_201


 35 36  0  0  0  0  0  0  0  0999 V2000
   77.9347  -13.3459  -51.8273 C   0  0  0  0  0  0  0  0  0  0  0  0
   77.6374  -12.1836  -52.7539 C   0  0  0  0  0  0  0  0  0  0  0  0
   78.6112  -12.1136  -53.9200 C   0  0  0  0  0  0  0  0  0  0  0  0
   80.0579  -12.2703  -53.4343 C   0  0  0  0  0  0  0  0  0  0  0  0
   80.1961  -13.4802  -52.5021 C   0  0  0  0  0  0  0  0  0  0  0  0
   76.3050  -12.3485  -53.2674 O   0  0  0  0  0  0  0  0  0  0  0  0
   80.4042  -11.0739  -52.7241 O   0  0  0  0  0  0  0  0  0  0  0  0
   79.2926  -13.3348  -51.3948 O   0  0  0  0  0  0  0  0  0  0  0  0
   76.2510  -13.1789  -53.7658 H   0  0  0  0  0  0  0  0  0  0  0  0
   79.8006  -10.9571  -51.9738 H   0  0  0  0  0  0  0  0  0  0  0  0
   81.5880  -13.6504  -51.8995 C   0  0  0  0  0  0  0  0  0  0  0  0
   81.4855  -13.8478  -50.4767 O   0  0  0  0  0  0  0  0  0  0  0  0
   81.0573  -13.0766  -50.0733 H   0  0  0  0  0  0  0  0  0  0  0  0
   77.0773  -13.1481  -50.7062 O   0  0  0  0  0  0  0  0  0  0  0  0
   74.9348  -15.6965  -48.2587 C   0  0  0  0  0  0  0  0  0  0  0  0
   76.3348  -16.1632  -48.6522 C   0  0  0  0  0  0  0  0  0  0  0  0
   77.1281  -15.0217  -49.2626 C   0  0  0  0  0  0  0  0  0  0  0  0
   76.3390  -14.3242  -50.3705 C   0  0  0  0  0  0  0  0  0  0  0  0
   74.9432  -13.9742  -49.8685 C   0  0  0  0  0  0  0  0  0  0  0  0
   74.2276  -16.8548  -47.8195 O   0  0  0  0  0  0  0  0  0  0  0  0
   77.0369  -16.6412  -47.4947 O   0  0  0  0  0  0  0  0  0  0  0  0
   78.3681  -15.5269  -49.7512 O   0  0  0  0  0  0  0  0  0  0  0  0
   74.2845  -15.1611  -49.4138 O   0  0  0  0  0  0  0  0  0  0  0  0
   74.2134  -17.5140  -48.5309 H   0  0  0  0  0  0  0  0  0  0  0  0
   77.1251  -15.9217  -46.8501 H   0  0  0  0  0  0  0  0  0  0  0  0
   78.1987  -16.1943  -50.4344 H   0  0  0  0  0  0  0  0  0  0  0  0
   74.0783  -13.3139  -50.9321 C   0  0  0  0  0  0  0  0  0  0  0  0
   74.2441  -13.9166  -52.2136 O   0  0  0  0  0  0  0  0  0  0  0  0
   75.1662  -13.8214  -52.4989 H   0  0  0  0  0  0  0  0  0  0  0  0
   78.4079  -10.8583  -54.5599 O   0  0  0  0  0  0  0  0  0  0  0  0
   77.8134  -10.8544  -56.0283 S   0  0  0  0  0  0  0  0  0  0  0  0
   78.7887  -10.4853  -57.0671 O   0  0  0  0  0  0  0  0  0  0  0  0
   76.6772   -9.8882  -55.9897 O   0  0  0  0  0  0  0  0  0  0  0  0
   77.2856  -12.1963  -56.1643 O   0  0  0  0  0  0  0  0  0  0  0  0
   76.6529  -12.3689  -55.4495 H   0  0  0  0  0  0  0  0  0  0  0  0
 33 31  2  0  0  0
  7  4  1  0  0  0
 30 31  1  0  0  0
 30  3  1  0  0  0
 31 32  2  0  0  0
 31 34  1  0  0  0
 22 17  1  0  0  0
  4  3  1  0  0  0
  4  5  1  0  0  0
 21 16  1  0  0  0
  2  3  1  0  0  0
  2  6  1  0  0  0
  2  1  1  0  0  0
 17 16  1  0  0  0
 17 18  1  0  0  0
 14  1  1  0  0  0
 14 18  1  0  0  0
  8  5  1  0  0  0
  8  1  1  0  0  0
 11  5  1  0  0  0
 11 12  1  0  0  0
 16 15  1  0  0  0
 18 19  1  0  0  0
 15 20  1  0  0  0
 15 23  1  0  0  0
 19 23  1  0  0  0
 19 27  1  0  0  0
 27 28  1  0  0  0
  6  9  1  0  0  0
  7 10  1  0  0  0
 12 13  1  0  0  0
 20 24  1  0  0  0
 21 25  1  0  0  0
 22 26  1  0  0  0
 28 29  1  0  0  0
 34 35  1  0  0  0
M  END
> <minimizedAffinity>
-5.78430

$$$$
5DUW_5GO_A_201


 35 36  0  0  0  0  0  0  0  0999 V2000
   77.0593  -16.9420  -51.2712 C   0  0  0  0  0  0  0  0  0  0  0  0
   77.0828  -15.4686  -51.6268 C   0  0  0  0  0  0  0  0  0  0  0  0
   77.3772  -14.5902  -50.4207 C   0  0  0  0  0  0  0  0  0  0  0  0
   76.5206  -15.0074  -49.2184 C   0  0  0  0  0  0  0  0  0  0  0  0
   76.5925  -16.5224  -48.9923 C   0  0  0  0  0  0  0  0  0  0  0  0
   78.1052  -15.2619  -52.6158 O   0  0  0  0  0  0  0  0  0  0  0  0
   75.1677  -14.6271  -49.5027 O   0  0  0  0  0  0  0  0  0  0  0  0
   76.1734  -17.2032  -50.1858 O   0  0  0  0  0  0  0  0  0  0  0  0
   78.9660  -15.5180  -52.2494 H   0  0  0  0  0  0  0  0  0  0  0  0
   74.8687  -15.0750  -50.3095 H   0  0  0  0  0  0  0  0  0  0  0  0
   75.6915  -17.0314  -47.8703 C   0  0  0  0  0  0  0  0  0  0  0  0
   74.3435  -17.1817  -48.3540 O   0  0  0  0  0  0  0  0  0  0  0  0
   74.0128  -16.3233  -48.6617 H   0  0  0  0  0  0  0  0  0  0  0  0
   76.5787  -17.5935  -52.4441 O   0  0  0  0  0  0  0  0  0  0  0  0
   76.8886  -21.3660  -54.1013 C   0  0  0  0  0  0  0  0  0  0  0  0
   75.9817  -21.2426  -52.8786 C   0  0  0  0  0  0  0  0  0  0  0  0
   75.6943  -19.7841  -52.5700 C   0  0  0  0  0  0  0  0  0  0  0  0
   76.9819  -18.9624  -52.5113 C   0  0  0  0  0  0  0  0  0  0  0  0
   77.8220  -19.2292  -53.7546 C   0  0  0  0  0  0  0  0  0  0  0  0
   77.2061  -22.7503  -54.2350 O   0  0  0  0  0  0  0  0  0  0  0  0
   74.7358  -21.9135  -53.1211 O   0  0  0  0  0  0  0  0  0  0  0  0
   74.9729  -19.7022  -51.3435 O   0  0  0  0  0  0  0  0  0  0  0  0
   78.0911  -20.6312  -53.8609 O   0  0  0  0  0  0  0  0  0  0  0  0
   77.6330  -23.0640  -53.4224 H   0  0  0  0  0  0  0  0  0  0  0  0
   74.2879  -21.5008  -53.8760 H   0  0  0  0  0  0  0  0  0  0  0  0
   75.5092  -20.0766  -50.6273 H   0  0  0  0  0  0  0  0  0  0  0  0
   79.1452  -18.4780  -53.7491 C   0  0  0  0  0  0  0  0  0  0  0  0
   79.0256  -17.1694  -54.3024 O   0  0  0  0  0  0  0  0  0  0  0  0
   78.7403  -17.2342  -55.2272 H   0  0  0  0  0  0  0  0  0  0  0  0
   77.1143  -13.2458  -50.8084 O   0  0  0  0  0  0  0  0  0  0  0  0
   78.3480  -12.2822  -51.0514 S   0  0  0  0  0  0  0  0  0  0  0  0
   79.2583  -12.7333  -52.1164 O   0  0  0  0  0  0  0  0  0  0  0  0
   79.0521  -12.2065  -49.7382 O   0  0  0  0  0  0  0  0  0  0  0  0
   77.7122  -11.0084  -51.3185 O   0  0  0  0  0  0  0  0  0  0  0  0
   77.1301  -10.7760  -50.5782 H   0  0  0  0  0  0  0  0  0  0  0  0
 33 31  2  0  0  0
  7  4  1  0  0  0
 30 31  1  0  0  0
 30  3  1  0  0  0
 31 32  2  0  0  0
 31 34  1  0  0  0
 22 17  1  0  0  0
  4  3  1  0  0  0
  4  5  1  0  0  0
 21 16  1  0  0  0
  2  3  1  0  0  0
  2  6  1  0  0  0
  2  1  1  0  0  0
 17 16  1  0  0  0
 17 18  1  0  0  0
 14  1  1  0  0  0
 14 18  1  0  0  0
  8  5  1  0  0  0
  8  1  1  0  0  0
 11  5  1  0  0  0
 11 12  1  0  0  0
 16 15  1  0  0  0
 18 19  1  0  0  0
 15 20  1  0  0  0
 15 23  1  0  0  0
 19 23  1  0  0  0
 19 27  1  0  0  0
 27 28  1  0  0  0
  6  9  1  0  0  0
  7 10  1  0  0  0
 12 13  1  0  0  0
 20 24  1  0  0  0
 21 25  1  0  0  0
 22 26  1  0  0  0
 28 29  1  0  0  0
 34 35  1  0  0  0
M  END
> <minimizedAffinity>
-5.78384

$$$$
5DUW_5GO_A_201


 35 36  0  0  0  0  0  0  0  0999 V2000
   77.7347  -10.9808  -51.7274 C   0  0  0  0  0  0  0  0  0  0  0  0
   78.9264  -10.0750  -51.4879 C   0  0  0  0  0  0  0  0  0  0  0  0
   79.0593   -9.0036  -52.5590 C   0  0  0  0  0  0  0  0  0  0  0  0
   78.9105   -9.6101  -53.9603 C   0  0  0  0  0  0  0  0  0  0  0  0
   77.6682  -10.5055  -54.0419 C   0  0  0  0  0  0  0  0  0  0  0  0
   78.7571   -9.4392  -50.2099 O   0  0  0  0  0  0  0  0  0  0  0  0
   80.0846  -10.3921  -54.2165 O   0  0  0  0  0  0  0  0  0  0  0  0
   77.7539  -11.5326  -53.0413 O   0  0  0  0  0  0  0  0  0  0  0  0
   77.9458   -8.9077  -50.2181 H   0  0  0  0  0  0  0  0  0  0  0  0
   80.1612  -11.0894  -53.5467 H   0  0  0  0  0  0  0  0  0  0  0  0
   77.5003  -11.2229  -55.3786 C   0  0  0  0  0  0  0  0  0  0  0  0
   77.0197  -12.5625  -55.1590 O   0  0  0  0  0  0  0  0  0  0  0  0
   77.6581  -13.0500  -54.6153 H   0  0  0  0  0  0  0  0  0  0  0  0
   77.8731  -12.0277  -50.7703 O   0  0  0  0  0  0  0  0  0  0  0  0
   76.8956  -16.0417  -50.6855 C   0  0  0  0  0  0  0  0  0  0  0  0
   78.3210  -15.7071  -51.1206 C   0  0  0  0  0  0  0  0  0  0  0  0
   78.6534  -14.2609  -50.7996 C   0  0  0  0  0  0  0  0  0  0  0  0
   77.5740  -13.3119  -51.3202 C   0  0  0  0  0  0  0  0  0  0  0  0
   76.2003  -13.7968  -50.8724 C   0  0  0  0  0  0  0  0  0  0  0  0
   76.6315  -17.3676  -51.1403 O   0  0  0  0  0  0  0  0  0  0  0  0
   79.2556  -16.5547  -50.4357 O   0  0  0  0  0  0  0  0  0  0  0  0
   79.9291  -13.9441  -51.3507 O   0  0  0  0  0  0  0  0  0  0  0  0
   75.9924  -15.1382  -51.3272 O   0  0  0  0  0  0  0  0  0  0  0  0
   76.7455  -17.4081  -52.1027 H   0  0  0  0  0  0  0  0  0  0  0  0
   79.1859  -16.4067  -49.4796 H   0  0  0  0  0  0  0  0  0  0  0  0
   79.9020  -14.0555  -52.3139 H   0  0  0  0  0  0  0  0  0  0  0  0
   75.0655  -12.9254  -51.3900 C   0  0  0  0  0  0  0  0  0  0  0  0
   75.0481  -12.8510  -52.8138 O   0  0  0  0  0  0  0  0  0  0  0  0
   75.8759  -12.4540  -53.1270 H   0  0  0  0  0  0  0  0  0  0  0  0
   80.3346   -8.3951  -52.3858 O   0  0  0  0  0  0  0  0  0  0  0  0
   80.3936   -6.8245  -52.1870 S   0  0  0  0  0  0  0  0  0  0  0  0
   80.1640   -6.0566  -53.4215 O   0  0  0  0  0  0  0  0  0  0  0  0
   81.7489   -6.5499  -51.6270 O   0  0  0  0  0  0  0  0  0  0  0  0
   79.4028   -6.5943  -51.1557 O   0  0  0  0  0  0  0  0  0  0  0  0
   79.6171   -7.1303  -50.3762 H   0  0  0  0  0  0  0  0  0  0  0  0
 33 31  2  0  0  0
  7  4  1  0  0  0
 30 31  1  0  0  0
 30  3  1  0  0  0
 31 32  2  0  0  0
 31 34  1  0  0  0
 22 17  1  0  0  0
  4  3  1  0  0  0
  4  5  1  0  0  0
 21 16  1  0  0  0
  2  3  1  0  0  0
  2  6  1  0  0  0
  2  1  1  0  0  0
 17 16  1  0  0  0
 17 18  1  0  0  0
 14  1  1  0  0  0
 14 18  1  0  0  0
  8  5  1  0  0  0
  8  1  1  0  0  0
 11  5  1  0  0  0
 11 12  1  0  0  0
 16 15  1  0  0  0
 18 19  1  0  0  0
 15 20  1  0  0  0
 15 23  1  0  0  0
 19 23  1  0  0  0
 19 27  1  0  0  0
 27 28  1  0  0  0
  6  9  1  0  0  0
  7 10  1  0  0  0
 12 13  1  0  0  0
 20 24  1  0  0  0
 21 25  1  0  0  0
 22 26  1  0  0  0
 28 29  1  0  0  0
 34 35  1  0  0  0
M  END
> <minimizedAffinity>
-5.70261

$$$$
5DUW_5GO_A_201


 35 36  0  0  0  0  0  0  0  0999 V2000
   77.3325  -12.2223  -52.5501 C   0  0  0  0  0  0  0  0  0  0  0  0
   77.2113  -11.5063  -53.8807 C   0  0  0  0  0  0  0  0  0  0  0  0
   78.3978  -10.5950  -54.1539 C   0  0  0  0  0  0  0  0  0  0  0  0
   78.7234   -9.7378  -52.9240 C   0  0  0  0  0  0  0  0  0  0  0  0
   78.8036  -10.6009  -51.6590 C   0  0  0  0  0  0  0  0  0  0  0  0
   77.1353  -12.4979  -54.9186 O   0  0  0  0  0  0  0  0  0  0  0  0
   77.6721   -8.7734  -52.7824 O   0  0  0  0  0  0  0  0  0  0  0  0
   77.5645  -11.3062  -51.4833 O   0  0  0  0  0  0  0  0  0  0  0  0
   77.9441  -13.0333  -54.9141 H   0  0  0  0  0  0  0  0  0  0  0  0
   76.8255   -9.2325  -52.6668 H   0  0  0  0  0  0  0  0  0  0  0  0
   79.0313   -9.8090  -50.3742 C   0  0  0  0  0  0  0  0  0  0  0  0
   79.5157  -10.6840  -49.3382 O   0  0  0  0  0  0  0  0  0  0  0  0
   78.8609  -11.3797  -49.1702 H   0  0  0  0  0  0  0  0  0  0  0  0
   76.0722  -12.8607  -52.3625 O   0  0  0  0  0  0  0  0  0  0  0  0
   77.4123  -15.6207  -49.5946 C   0  0  0  0  0  0  0  0  0  0  0  0
   77.9888  -15.7486  -51.0032 C   0  0  0  0  0  0  0  0  0  0  0  0
   77.6826  -14.5073  -51.8220 C   0  0  0  0  0  0  0  0  0  0  0  0
   76.1982  -14.1481  -51.7561 C   0  0  0  0  0  0  0  0  0  0  0  0
   75.7375  -14.1207  -50.3036 C   0  0  0  0  0  0  0  0  0  0  0  0
   77.6341  -16.8729  -48.9484 O   0  0  0  0  0  0  0  0  0  0  0  0
   79.4134  -15.9142  -50.9379 O   0  0  0  0  0  0  0  0  0  0  0  0
   78.1027  -14.7226  -53.1668 O   0  0  0  0  0  0  0  0  0  0  0  0
   76.0053  -15.3864  -49.6906 O   0  0  0  0  0  0  0  0  0  0  0  0
   77.2114  -17.5802  -49.4601 H   0  0  0  0  0  0  0  0  0  0  0  0
   79.8103  -15.1366  -50.5153 H   0  0  0  0  0  0  0  0  0  0  0  0
   77.6177  -15.4748  -53.5406 H   0  0  0  0  0  0  0  0  0  0  0  0
   74.2547  -13.8123  -50.1571 C   0  0  0  0  0  0  0  0  0  0  0  0
   73.5664  -13.8650  -51.4047 O   0  0  0  0  0  0  0  0  0  0  0  0
   73.9361  -13.2000  -52.0063 H   0  0  0  0  0  0  0  0  0  0  0  0
   78.0564   -9.7892  -55.2768 O   0  0  0  0  0  0  0  0  0  0  0  0
   78.6130  -10.2123  -56.6984 S   0  0  0  0  0  0  0  0  0  0  0  0
   79.3953   -9.1624  -57.3708 O   0  0  0  0  0  0  0  0  0  0  0  0
   77.4086  -10.5810  -57.4981 O   0  0  0  0  0  0  0  0  0  0  0  0
   79.3674  -11.4130  -56.4031 O   0  0  0  0  0  0  0  0  0  0  0  0
   78.7909  -12.0570  -55.9629 H   0  0  0  0  0  0  0  0  0  0  0  0
 33 31  2  0  0  0
  7  4  1  0  0  0
 30 31  1  0  0  0
 30  3  1  0  0  0
 31 32  2  0  0  0
 31 34  1  0  0  0
 22 17  1  0  0  0
  4  3  1  0  0  0
  4  5  1  0  0  0
 21 16  1  0  0  0
  2  3  1  0  0  0
  2  6  1  0  0  0
  2  1  1  0  0  0
 17 16  1  0  0  0
 17 18  1  0  0  0
 14  1  1  0  0  0
 14 18  1  0  0  0
  8  5  1  0  0  0
  8  1  1  0  0  0
 11  5  1  0  0  0
 11 12  1  0  0  0
 16 15  1  0  0  0
 18 19  1  0  0  0
 15 20  1  0  0  0
 15 23  1  0  0  0
 19 23  1  0  0  0
 19 27  1  0  0  0
 27 28  1  0  0  0
  6  9  1  0  0  0
  7 10  1  0  0  0
 12 13  1  0  0  0
 20 24  1  0  0  0
 21 25  1  0  0  0
 22 26  1  0  0  0
 28 29  1  0  0  0
 34 35  1  0  0  0
M  END
> <minimizedAffinity>
-5.58078

$$$$
5DUW_5GO_A_201


 35 36  0  0  0  0  0  0  0  0999 V2000
   78.2852  -11.7624  -53.7096 C   0  0  0  0  0  0  0  0  0  0  0  0
   77.2221  -12.6565  -53.1026 C   0  0  0  0  0  0  0  0  0  0  0  0
   77.7909  -13.5916  -52.0467 C   0  0  0  0  0  0  0  0  0  0  0  0
   79.0726  -14.2686  -52.5493 C   0  0  0  0  0  0  0  0  0  0  0  0
   80.0419  -13.2382  -53.1411 C   0  0  0  0  0  0  0  0  0  0  0  0
   76.2242  -11.8187  -52.4955 O   0  0  0  0  0  0  0  0  0  0  0  0
   78.6923  -15.2087  -53.5628 O   0  0  0  0  0  0  0  0  0  0  0  0
   79.3877  -12.5208  -54.1998 O   0  0  0  0  0  0  0  0  0  0  0  0
   76.6323  -11.2842  -51.7965 H   0  0  0  0  0  0  0  0  0  0  0  0
   78.2444  -14.7417  -54.2854 H   0  0  0  0  0  0  0  0  0  0  0  0
   81.3039  -13.8434  -53.7501 C   0  0  0  0  0  0  0  0  0  0  0  0
   81.1052  -14.0786  -55.1568 O   0  0  0  0  0  0  0  0  0  0  0  0
   80.3663  -14.6948  -55.2804 H   0  0  0  0  0  0  0  0  0  0  0  0
   77.6362  -11.1097  -54.7976 O   0  0  0  0  0  0  0  0  0  0  0  0
   80.3972   -8.0361  -54.7298 C   0  0  0  0  0  0  0  0  0  0  0  0
   79.2543   -7.9339  -53.7218 C   0  0  0  0  0  0  0  0  0  0  0  0
   78.5104   -9.2535  -53.6198 C   0  0  0  0  0  0  0  0  0  0  0  0
   78.1164   -9.7795  -54.9999 C   0  0  0  0  0  0  0  0  0  0  0  0
   79.3287   -9.7656  -55.9235 C   0  0  0  0  0  0  0  0  0  0  0  0
   80.9501   -6.7270  -54.8529 O   0  0  0  0  0  0  0  0  0  0  0  0
   79.7712   -7.5982  -52.4251 O   0  0  0  0  0  0  0  0  0  0  0  0
   77.3666   -9.0789  -52.7876 O   0  0  0  0  0  0  0  0  0  0  0  0
   79.8643   -8.4398  -55.9934 O   0  0  0  0  0  0  0  0  0  0  0  0
   80.2583   -6.1092  -55.1369 H   0  0  0  0  0  0  0  0  0  0  0  0
   80.3780   -8.2946  -52.1287 H   0  0  0  0  0  0  0  0  0  0  0  0
   76.7790   -8.4149  -53.1809 H   0  0  0  0  0  0  0  0  0  0  0  0
   79.0055  -10.2357  -57.3340 C   0  0  0  0  0  0  0  0  0  0  0  0
   77.6030  -10.2496  -57.5906 O   0  0  0  0  0  0  0  0  0  0  0  0
   77.1687  -10.8656  -56.9801 H   0  0  0  0  0  0  0  0  0  0  0  0
   76.7792  -14.5467  -51.7452 O   0  0  0  0  0  0  0  0  0  0  0  0
   76.1857  -14.5700  -50.2766 S   0  0  0  0  0  0  0  0  0  0  0  0
   75.8364  -15.9159  -49.7942 O   0  0  0  0  0  0  0  0  0  0  0  0
   74.9840  -13.6871  -50.3244 O   0  0  0  0  0  0  0  0  0  0  0  0
   77.2200  -13.9153  -49.5023 O   0  0  0  0  0  0  0  0  0  0  0  0
   77.3971  -13.0378  -49.8759 H   0  0  0  0  0  0  0  0  0  0  0  0
 33 31  2  0  0  0
  7  4  1  0  0  0
 30 31  1  0  0  0
 30  3  1  0  0  0
 31 32  2  0  0  0
 31 34  1  0  0  0
 22 17  1  0  0  0
  4  3  1  0  0  0
  4  5  1  0  0  0
 21 16  1  0  0  0
  2  3  1  0  0  0
  2  6  1  0  0  0
  2  1  1  0  0  0
 17 16  1  0  0  0
 17 18  1  0  0  0
 14  1  1  0  0  0
 14 18  1  0  0  0
  8  5  1  0  0  0
  8  1  1  0  0  0
 11  5  1  0  0  0
 11 12  1  0  0  0
 16 15  1  0  0  0
 18 19  1  0  0  0
 15 20  1  0  0  0
 15 23  1  0  0  0
 19 23  1  0  0  0
 19 27  1  0  0  0
 27 28  1  0  0  0
  6  9  1  0  0  0
  7 10  1  0  0  0
 12 13  1  0  0  0
 20 24  1  0  0  0
 21 25  1  0  0  0
 22 26  1  0  0  0
 28 29  1  0  0  0
 34 35  1  0  0  0
M  END
> <minimizedAffinity>
-5.53773

$$$$
5DUW_5GO_A_201


 35 36  0  0  0  0  0  0  0  0999 V2000
   78.2849  -10.1314  -52.2845 C   0  0  0  0  0  0  0  0  0  0  0  0
   77.7307  -11.4138  -51.6962 C   0  0  0  0  0  0  0  0  0  0  0  0
   77.8867  -12.5950  -52.6413 C   0  0  0  0  0  0  0  0  0  0  0  0
   77.4368  -12.2230  -54.0601 C   0  0  0  0  0  0  0  0  0  0  0  0
   78.0729  -10.9019  -54.5090 C   0  0  0  0  0  0  0  0  0  0  0  0
   78.4417  -11.6930  -50.4785 O   0  0  0  0  0  0  0  0  0  0  0  0
   76.0098  -12.0861  -54.0358 O   0  0  0  0  0  0  0  0  0  0  0  0
   77.7344   -9.8668  -53.5721 O   0  0  0  0  0  0  0  0  0  0  0  0
   79.3845  -11.8102  -50.6742 H   0  0  0  0  0  0  0  0  0  0  0  0
   75.7622  -11.3930  -53.4041 H   0  0  0  0  0  0  0  0  0  0  0  0
   77.6016  -10.4128  -55.8759 C   0  0  0  0  0  0  0  0  0  0  0  0
   77.3460  -11.5378  -56.7377 O   0  0  0  0  0  0  0  0  0  0  0  0
   78.1610  -12.0520  -56.8485 H   0  0  0  0  0  0  0  0  0  0  0  0
   77.8827   -9.1091  -51.3766 O   0  0  0  0  0  0  0  0  0  0  0  0
   81.0636   -6.7643  -52.5844 C   0  0  0  0  0  0  0  0  0  0  0  0
   81.3394   -7.7272  -51.4313 C   0  0  0  0  0  0  0  0  0  0  0  0
   80.2189   -8.7435  -51.3025 C   0  0  0  0  0  0  0  0  0  0  0  0
   78.8503   -8.0634  -51.2698 C   0  0  0  0  0  0  0  0  0  0  0  0
   78.7329   -7.0831  -52.4308 C   0  0  0  0  0  0  0  0  0  0  0  0
   82.0930   -5.7776  -52.5463 O   0  0  0  0  0  0  0  0  0  0  0  0
   82.5704   -8.4293  -51.6611 O   0  0  0  0  0  0  0  0  0  0  0  0
   80.4346   -9.5269  -50.1315 O   0  0  0  0  0  0  0  0  0  0  0  0
   79.8004   -6.1315  -52.3661 O   0  0  0  0  0  0  0  0  0  0  0  0
   82.0852   -5.3354  -51.6830 H   0  0  0  0  0  0  0  0  0  0  0  0
   82.5004   -8.9455  -52.4793 H   0  0  0  0  0  0  0  0  0  0  0  0
   80.4291   -8.9505  -49.3514 H   0  0  0  0  0  0  0  0  0  0  0  0
   77.4100   -6.3314  -52.4412 C   0  0  0  0  0  0  0  0  0  0  0  0
   76.3671   -7.0822  -53.0591 O   0  0  0  0  0  0  0  0  0  0  0  0
   76.6001   -7.2587  -53.9840 H   0  0  0  0  0  0  0  0  0  0  0  0
   77.1086  -13.6619  -52.1093 O   0  0  0  0  0  0  0  0  0  0  0  0
   77.7745  -15.0959  -52.0087 S   0  0  0  0  0  0  0  0  0  0  0  0
   78.4076  -15.5500  -53.2574 O   0  0  0  0  0  0  0  0  0  0  0  0
   76.6712  -16.0135  -51.6003 O   0  0  0  0  0  0  0  0  0  0  0  0
   78.6953  -14.9449  -50.9008 O   0  0  0  0  0  0  0  0  0  0  0  0
   78.2106  -14.6447  -50.1161 H   0  0  0  0  0  0  0  0  0  0  0  0
 33 31  2  0  0  0
  7  4  1  0  0  0
 30 31  1  0  0  0
 30  3  1  0  0  0
 31 32  2  0  0  0
 31 34  1  0  0  0
 22 17  1  0  0  0
  4  3  1  0  0  0
  4  5  1  0  0  0
 21 16  1  0  0  0
  2  3  1  0  0  0
  2  6  1  0  0  0
  2  1  1  0  0  0
 17 16  1  0  0  0
 17 18  1  0  0  0
 14  1  1  0  0  0
 14 18  1  0  0  0
  8  5  1  0  0  0
  8  1  1  0  0  0
 11  5  1  0  0  0
 11 12  1  0  0  0
 16 15  1  0  0  0
 18 19  1  0  0  0
 15 20  1  0  0  0
 15 23  1  0  0  0
 19 23  1  0  0  0
 19 27  1  0  0  0
 27 28  1  0  0  0
  6  9  1  0  0  0
  7 10  1  0  0  0
 12 13  1  0  0  0
 20 24  1  0  0  0
 21 25  1  0  0  0
 22 26  1  0  0  0
 28 29  1  0  0  0
 34 35  1  0  0  0
M  END
> <minimizedAffinity>
-5.52210

$$$$
