3QX9_ATP_A_1


 39 41  0  0  0  0  0  0  0  0999 V2000
   18.7324    9.3977  -16.6695 C   0  0  0  0  0  0  0  0  0  0  0  0
   20.1248    9.3393  -16.3563 O   0  0  0  0  0  0  0  0  0  0  0  0
   18.2427   10.7828  -16.2660 C   0  0  0  0  0  0  0  0  0  0  0  0
   17.1055   10.6615  -15.4031 O   0  0  0  0  0  0  0  0  0  0  0  0
   19.4201   11.4362  -15.5560 C   0  0  0  0  0  0  0  0  0  0  0  0
   19.0524   12.0091  -14.2979 O   0  0  0  0  0  0  0  0  0  0  0  0
   20.4334   10.3128  -15.3605 C   0  0  0  0  0  0  0  0  0  0  0  0
   17.3444   10.1329  -14.6257 H   0  0  0  0  0  0  0  0  0  0  0  0
   18.6882   11.3185  -13.7223 H   0  0  0  0  0  0  0  0  0  0  0  0
   21.8241   10.8027  -15.5001 N   0  0  0  0  0  0  0  0  0  0  0  0
   22.3564   11.3789  -16.5957 C   0  0  0  0  0  0  0  0  0  0  0  0
   23.6559   11.7137  -16.3916 N   0  0  0  0  0  0  0  0  0  0  0  0
   23.9786   11.3517  -15.1352 C   0  0  0  0  0  0  0  0  0  0  0  0
   25.1866   11.4176  -14.2789 C   0  0  0  0  0  0  0  0  0  0  0  0
   26.3477   11.9551  -14.7323 N   0  0  0  0  0  0  0  0  0  0  0  0
   25.0958   10.9239  -13.0291 N   0  0  0  0  0  0  0  0  0  0  0  0
   23.9510   10.3898  -12.5624 C   0  0  0  0  0  0  0  0  0  0  0  0
   22.8177   10.2997  -13.2786 N   0  0  0  0  0  0  0  0  0  0  0  0
   22.7679   10.7559  -14.5522 C   0  0  0  0  0  0  0  0  0  0  0  0
   26.4002   12.3124  -15.6482 H   0  0  0  0  0  0  0  0  0  0  0  0
   27.1374   11.9877  -14.1452 H   0  0  0  0  0  0  0  0  0  0  0  0
   18.4823    9.1159  -18.1466 C   0  0  0  0  0  0  0  0  0  0  0  0
   19.4192    8.1535  -18.6288 O   0  0  0  0  0  0  0  0  0  0  0  0
   19.2533    7.5171  -20.0983 P   0  0  0  0  0  0  0  0  0  0  0  0
   19.2801    6.0141  -19.9811 O   0  0  0  0  0  0  0  0  0  0  0  0
   18.0917    8.2070  -20.7750 O   0  0  0  0  0  0  0  0  0  0  0  0
   17.9713    7.8399  -21.6647 H   0  0  0  0  0  0  0  0  0  0  0  0
   20.6048    8.0457  -20.7987 O   0  0  0  0  0  0  0  0  0  0  0  0
   20.8316    7.9260  -22.3850 P   0  0  0  0  0  0  0  0  0  0  0  0
   21.8237    8.9735  -22.8237 O   0  0  0  0  0  0  0  0  0  0  0  0
   19.4699    7.8774  -23.0322 O   0  0  0  0  0  0  0  0  0  0  0  0
   19.5715    7.8048  -23.9941 H   0  0  0  0  0  0  0  0  0  0  0  0
   21.5110    6.4668  -22.5116 O   0  0  0  0  0  0  0  0  0  0  0  0
   22.2322    5.9739  -23.8639 P   0  0  0  0  0  0  0  0  0  0  0  0
   23.6825    6.3491  -23.6775 O   0  0  0  0  0  0  0  0  0  0  0  0
   21.9724    4.4874  -23.8743 O   0  0  0  0  0  0  0  0  0  0  0  0
   21.5234    6.7461  -24.9513 O   0  0  0  0  0  0  0  0  0  0  0  0
   22.3750    4.0943  -24.6644 H   0  0  0  0  0  0  0  0  0  0  0  0
   21.8986    6.5086  -25.8136 H   0  0  0  0  0  0  0  0  0  0  0  0
 34 35  2  0  0  0
 34 36  1  0  0  0
 34 37  1  0  0  0
 34 33  1  0  0  0
 29 30  2  0  0  0
 29 31  1  0  0  0
 29 33  1  0  0  0
 29 28  1  0  0  0
 24 25  2  0  0  0
 24 26  1  0  0  0
 24 28  1  0  0  0
 24 23  1  0  0  0
 23 22  1  0  0  0
 22  1  1  0  0  0
  1  2  1  0  0  0
  1  3  1  0  0  0
  2  7  1  0  0  0
  3  4  1  0  0  0
  3  5  1  0  0  0
  5  6  1  0  0  0
  5  7  1  0  0  0
  7 10  1  0  0  0
 10 11  1  0  0  0
 10 19  1  0  0  0
 11 12  2  0  0  0
 12 13  1  0  0  0
 13 14  1  0  0  0
 13 19  2  0  0  0
 14 15  1  0  0  0
 14 16  2  0  0  0
 16 17  1  0  0  0
 17 18  2  0  0  0
 18 19  1  0  0  0
 36 38  1  0  0  0
 37 39  1  0  0  0
 31 32  1  0  0  0
 26 27  1  0  0  0
  4  8  1  0  0  0
  6  9  1  0  0  0
 15 20  1  0  0  0
 15 21  1  0  0  0
M  END
> <minimizedAffinity>
-8.12620

$$$$
3QX9_ATP_A_1


 39 41  0  0  0  0  0  0  0  0999 V2000
   19.1637   11.1150  -17.9478 C   0  0  0  0  0  0  0  0  0  0  0  0
   20.5461   10.8125  -17.7527 O   0  0  0  0  0  0  0  0  0  0  0  0
   18.6616   11.7556  -16.6600 C   0  0  0  0  0  0  0  0  0  0  0  0
   17.4989   11.0598  -16.1948 O   0  0  0  0  0  0  0  0  0  0  0  0
   19.8169   11.6412  -15.6753 C   0  0  0  0  0  0  0  0  0  0  0  0
   19.4111   11.1008  -14.4145 O   0  0  0  0  0  0  0  0  0  0  0  0
   20.8241   10.7203  -16.3567 C   0  0  0  0  0  0  0  0  0  0  0  0
   17.7144   10.1235  -16.0610 H   0  0  0  0  0  0  0  0  0  0  0  0
   19.0298   10.2189  -14.5483 H   0  0  0  0  0  0  0  0  0  0  0  0
   22.2183   11.1214  -16.0584 N   0  0  0  0  0  0  0  0  0  0  0  0
   23.0584   11.7569  -16.8987 C   0  0  0  0  0  0  0  0  0  0  0  0
   24.2628   11.9788  -16.3134 N   0  0  0  0  0  0  0  0  0  0  0  0
   24.2075   11.4808  -15.0633 C   0  0  0  0  0  0  0  0  0  0  0  0
   25.1313   11.3820  -13.9084 C   0  0  0  0  0  0  0  0  0  0  0  0
   26.3944   11.8756  -13.9675 N   0  0  0  0  0  0  0  0  0  0  0  0
   24.6754   10.7830  -12.7915 N   0  0  0  0  0  0  0  0  0  0  0  0
   23.4244   10.2906  -12.7148 C   0  0  0  0  0  0  0  0  0  0  0  0
   22.5323   10.3471  -13.7181 N   0  0  0  0  0  0  0  0  0  0  0  0
   22.8582   10.9210  -14.9000 C   0  0  0  0  0  0  0  0  0  0  0  0
   26.7148   12.3110  -14.7903 H   0  0  0  0  0  0  0  0  0  0  0  0
   26.9902   11.7980  -13.1876 H   0  0  0  0  0  0  0  0  0  0  0  0
   18.9586   12.0267  -19.1522 C   0  0  0  0  0  0  0  0  0  0  0  0
   18.8482   11.2495  -20.3439 O   0  0  0  0  0  0  0  0  0  0  0  0
   20.0559   11.2093  -21.4077 P   0  0  0  0  0  0  0  0  0  0  0  0
   19.9577   12.4222  -22.2980 O   0  0  0  0  0  0  0  0  0  0  0  0
   21.3319   10.9219  -20.6512 O   0  0  0  0  0  0  0  0  0  0  0  0
   22.0764   10.8925  -21.2723 H   0  0  0  0  0  0  0  0  0  0  0  0
   19.6726    9.8795  -22.2332 O   0  0  0  0  0  0  0  0  0  0  0  0
   20.5749    8.5522  -22.1544 P   0  0  0  0  0  0  0  0  0  0  0  0
   21.9766    8.8790  -22.6045 O   0  0  0  0  0  0  0  0  0  0  0  0
   19.8132    7.4482  -22.8446 O   0  0  0  0  0  0  0  0  0  0  0  0
   20.3324    6.6295  -22.8147 H   0  0  0  0  0  0  0  0  0  0  0  0
   20.5839    8.2536  -20.5678 O   0  0  0  0  0  0  0  0  0  0  0  0
   19.3301    7.5773  -19.8178 P   0  0  0  0  0  0  0  0  0  0  0  0
   19.4551    6.1046  -20.1248 O   0  0  0  0  0  0  0  0  0  0  0  0
   19.5600    7.9307  -18.3688 O   0  0  0  0  0  0  0  0  0  0  0  0
   18.1313    8.2458  -20.4480 O   0  0  0  0  0  0  0  0  0  0  0  0
   18.8444    7.5610  -17.8284 H   0  0  0  0  0  0  0  0  0  0  0  0
   17.3191    7.8943  -20.0508 H   0  0  0  0  0  0  0  0  0  0  0  0
 34 35  2  0  0  0
 34 36  1  0  0  0
 34 37  1  0  0  0
 34 33  1  0  0  0
 29 30  2  0  0  0
 29 31  1  0  0  0
 29 33  1  0  0  0
 29 28  1  0  0  0
 24 25  2  0  0  0
 24 26  1  0  0  0
 24 28  1  0  0  0
 24 23  1  0  0  0
 23 22  1  0  0  0
 22  1  1  0  0  0
  1  2  1  0  0  0
  1  3  1  0  0  0
  2  7  1  0  0  0
  3  4  1  0  0  0
  3  5  1  0  0  0
  5  6  1  0  0  0
  5  7  1  0  0  0
  7 10  1  0  0  0
 10 11  1  0  0  0
 10 19  1  0  0  0
 11 12  2  0  0  0
 12 13  1  0  0  0
 13 14  1  0  0  0
 13 19  2  0  0  0
 14 15  1  0  0  0
 14 16  2  0  0  0
 16 17  1  0  0  0
 17 18  2  0  0  0
 18 19  1  0  0  0
 36 38  1  0  0  0
 37 39  1  0  0  0
 31 32  1  0  0  0
 26 27  1  0  0  0
  4  8  1  0  0  0
  6  9  1  0  0  0
 15 20  1  0  0  0
 15 21  1  0  0  0
M  END
> <minimizedAffinity>
-7.86414

$$$$
3QX9_ATP_A_1


 39 41  0  0  0  0  0  0  0  0999 V2000
   18.7063    9.4470  -16.8482 C   0  0  0  0  0  0  0  0  0  0  0  0
   20.0812    9.3763  -16.4670 O   0  0  0  0  0  0  0  0  0  0  0  0
   18.2241   10.8539  -16.5178 C   0  0  0  0  0  0  0  0  0  0  0  0
   17.0455   10.7833  -15.7063 O   0  0  0  0  0  0  0  0  0  0  0  0
   19.3789   11.5125  -15.7761 C   0  0  0  0  0  0  0  0  0  0  0  0
   18.9631   12.1369  -14.5580 O   0  0  0  0  0  0  0  0  0  0  0  0
   20.3606   10.3800  -15.4928 C   0  0  0  0  0  0  0  0  0  0  0  0
   17.2377   10.2793  -14.9002 H   0  0  0  0  0  0  0  0  0  0  0  0
   18.5594   11.4739  -13.9763 H   0  0  0  0  0  0  0  0  0  0  0  0
   21.7654   10.8408  -15.5831 N   0  0  0  0  0  0  0  0  0  0  0  0
   22.3472   11.4071  -16.6585 C   0  0  0  0  0  0  0  0  0  0  0  0
   23.6455   11.7144  -16.4088 N   0  0  0  0  0  0  0  0  0  0  0  0
   23.9169   11.3441  -15.1427 C   0  0  0  0  0  0  0  0  0  0  0  0
   25.0956   11.3835  -14.2450 C   0  0  0  0  0  0  0  0  0  0  0  0
   26.2827   11.8972  -14.6568 N   0  0  0  0  0  0  0  0  0  0  0  0
   24.9512   10.8901  -13.0001 N   0  0  0  0  0  0  0  0  0  0  0  0
   23.7801   10.3796  -12.5743 C   0  0  0  0  0  0  0  0  0  0  0  0
   22.6706   10.3141  -13.3296 N   0  0  0  0  0  0  0  0  0  0  0  0
   22.6745   10.7730  -14.6032 C   0  0  0  0  0  0  0  0  0  0  0  0
   26.3743   12.2545  -15.5695 H   0  0  0  0  0  0  0  0  0  0  0  0
   27.0520   11.9124  -14.0427 H   0  0  0  0  0  0  0  0  0  0  0  0
   18.5209    9.1161  -18.3246 C   0  0  0  0  0  0  0  0  0  0  0  0
   19.4772    8.1388  -18.7331 O   0  0  0  0  0  0  0  0  0  0  0  0
   19.3005    7.3568  -20.1292 P   0  0  0  0  0  0  0  0  0  0  0  0
   19.3125    5.8735  -19.8584 O   0  0  0  0  0  0  0  0  0  0  0  0
   18.1438    7.9856  -20.8708 O   0  0  0  0  0  0  0  0  0  0  0  0
   18.0170    7.5303  -21.7179 H   0  0  0  0  0  0  0  0  0  0  0  0
   20.6551    7.7967  -20.8829 O   0  0  0  0  0  0  0  0  0  0  0  0
   20.6208    8.5484  -22.3027 P   0  0  0  0  0  0  0  0  0  0  0  0
   19.8580    7.7034  -23.2918 O   0  0  0  0  0  0  0  0  0  0  0  0
   22.0329    8.9712  -22.6227 O   0  0  0  0  0  0  0  0  0  0  0  0
   22.0473    9.4299  -23.4773 H   0  0  0  0  0  0  0  0  0  0  0  0
   19.7573    9.8679  -21.9562 O   0  0  0  0  0  0  0  0  0  0  0  0
   20.4031   11.1413  -21.2125 P   0  0  0  0  0  0  0  0  0  0  0  0
   19.2170   11.9740  -20.7898 O   0  0  0  0  0  0  0  0  0  0  0  0
   21.1675   10.5241  -20.0671 O   0  0  0  0  0  0  0  0  0  0  0  0
   21.2654   11.7794  -22.2757 O   0  0  0  0  0  0  0  0  0  0  0  0
   21.5986   11.2238  -19.5518 H   0  0  0  0  0  0  0  0  0  0  0  0
   21.6997   12.5661  -21.9107 H   0  0  0  0  0  0  0  0  0  0  0  0
 34 35  2  0  0  0
 34 36  1  0  0  0
 34 37  1  0  0  0
 34 33  1  0  0  0
 29 30  2  0  0  0
 29 31  1  0  0  0
 29 33  1  0  0  0
 29 28  1  0  0  0
 24 25  2  0  0  0
 24 26  1  0  0  0
 24 28  1  0  0  0
 24 23  1  0  0  0
 23 22  1  0  0  0
 22  1  1  0  0  0
  1  2  1  0  0  0
  1  3  1  0  0  0
  2  7  1  0  0  0
  3  4  1  0  0  0
  3  5  1  0  0  0
  5  6  1  0  0  0
  5  7  1  0  0  0
  7 10  1  0  0  0
 10 11  1  0  0  0
 10 19  1  0  0  0
 11 12  2  0  0  0
 12 13  1  0  0  0
 13 14  1  0  0  0
 13 19  2  0  0  0
 14 15  1  0  0  0
 14 16  2  0  0  0
 16 17  1  0  0  0
 17 18  2  0  0  0
 18 19  1  0  0  0
 36 38  1  0  0  0
 37 39  1  0  0  0
 31 32  1  0  0  0
 26 27  1  0  0  0
  4  8  1  0  0  0
  6  9  1  0  0  0
 15 20  1  0  0  0
 15 21  1  0  0  0
M  END
> <minimizedAffinity>
-7.82886

$$$$
3QX9_ATP_A_1


 39 41  0  0  0  0  0  0  0  0999 V2000
   19.3831    9.7930  -19.4246 C   0  0  0  0  0  0  0  0  0  0  0  0
   19.8268   10.0275  -20.7619 O   0  0  0  0  0  0  0  0  0  0  0  0
   19.7213    8.3457  -19.0902 C   0  0  0  0  0  0  0  0  0  0  0  0
   18.5479    7.6705  -18.6213 O   0  0  0  0  0  0  0  0  0  0  0  0
   20.2367    7.7413  -20.3888 C   0  0  0  0  0  0  0  0  0  0  0  0
   19.6043    6.4974  -20.7036 O   0  0  0  0  0  0  0  0  0  0  0  0
   19.9306    8.7863  -21.4570 C   0  0  0  0  0  0  0  0  0  0  0  0
   17.8535    7.7222  -19.2966 H   0  0  0  0  0  0  0  0  0  0  0  0
   18.6470    6.6324  -20.7833 H   0  0  0  0  0  0  0  0  0  0  0  0
   20.9903    8.8359  -22.4907 N   0  0  0  0  0  0  0  0  0  0  0  0
   21.5621    9.9499  -22.9883 C   0  0  0  0  0  0  0  0  0  0  0  0
   22.5004    9.6452  -23.9206 N   0  0  0  0  0  0  0  0  0  0  0  0
   22.5450    8.3038  -24.0321 C   0  0  0  0  0  0  0  0  0  0  0  0
   23.3137    7.3210  -24.8322 C   0  0  0  0  0  0  0  0  0  0  0  0
   24.2546    7.7171  -25.7269 N   0  0  0  0  0  0  0  0  0  0  0  0
   23.0474    6.0144  -24.6428 N   0  0  0  0  0  0  0  0  0  0  0  0
   22.1194    5.6040  -23.7574 C   0  0  0  0  0  0  0  0  0  0  0  0
   21.3879    6.4356  -22.9965 N   0  0  0  0  0  0  0  0  0  0  0  0
   21.5513    7.7765  -23.0860 C   0  0  0  0  0  0  0  0  0  0  0  0
   24.4392    8.6755  -25.8553 H   0  0  0  0  0  0  0  0  0  0  0  0
   24.7524    7.0458  -26.2473 H   0  0  0  0  0  0  0  0  0  0  0  0
   20.0286   10.7670  -18.4456 C   0  0  0  0  0  0  0  0  0  0  0  0
   19.3088   10.7748  -17.2134 O   0  0  0  0  0  0  0  0  0  0  0  0
   18.4008   12.0403  -16.8059 P   0  0  0  0  0  0  0  0  0  0  0  0
   19.3040   13.1559  -16.3443 O   0  0  0  0  0  0  0  0  0  0  0  0
   17.4072   12.2769  -17.9194 O   0  0  0  0  0  0  0  0  0  0  0  0
   16.8468   13.0367  -17.6966 H   0  0  0  0  0  0  0  0  0  0  0  0
   17.5900   11.4264  -15.5560 O   0  0  0  0  0  0  0  0  0  0  0  0
   17.1849    9.8725  -15.4984 P   0  0  0  0  0  0  0  0  0  0  0  0
   18.1719    9.1356  -14.6283 O   0  0  0  0  0  0  0  0  0  0  0  0
   16.9599    9.4128  -16.9173 O   0  0  0  0  0  0  0  0  0  0  0  0
   16.7128    8.4748  -16.9180 H   0  0  0  0  0  0  0  0  0  0  0  0
   15.7572    9.9317  -14.7468 O   0  0  0  0  0  0  0  0  0  0  0  0
   14.5965   10.9531  -15.1955 P   0  0  0  0  0  0  0  0  0  0  0  0
   13.3117   10.2478  -14.8346 O   0  0  0  0  0  0  0  0  0  0  0  0
   14.8804   12.1852  -14.3717 O   0  0  0  0  0  0  0  0  0  0  0  0
   14.8197   11.1212  -16.6798 O   0  0  0  0  0  0  0  0  0  0  0  0
   14.2229   12.8688  -14.5752 H   0  0  0  0  0  0  0  0  0  0  0  0
   14.1555   11.7296  -17.0398 H   0  0  0  0  0  0  0  0  0  0  0  0
 34 35  2  0  0  0
 34 36  1  0  0  0
 34 37  1  0  0  0
 34 33  1  0  0  0
 29 30  2  0  0  0
 29 31  1  0  0  0
 29 33  1  0  0  0
 29 28  1  0  0  0
 24 25  2  0  0  0
 24 26  1  0  0  0
 24 28  1  0  0  0
 24 23  1  0  0  0
 23 22  1  0  0  0
 22  1  1  0  0  0
  1  2  1  0  0  0
  1  3  1  0  0  0
  2  7  1  0  0  0
  3  4  1  0  0  0
  3  5  1  0  0  0
  5  6  1  0  0  0
  5  7  1  0  0  0
  7 10  1  0  0  0
 10 11  1  0  0  0
 10 19  1  0  0  0
 11 12  2  0  0  0
 12 13  1  0  0  0
 13 14  1  0  0  0
 13 19  2  0  0  0
 14 15  1  0  0  0
 14 16  2  0  0  0
 16 17  1  0  0  0
 17 18  2  0  0  0
 18 19  1  0  0  0
 36 38  1  0  0  0
 37 39  1  0  0  0
 31 32  1  0  0  0
 26 27  1  0  0  0
  4  8  1  0  0  0
  6  9  1  0  0  0
 15 20  1  0  0  0
 15 21  1  0  0  0
M  END
> <minimizedAffinity>
-7.61284

$$$$
3QX9_ATP_A_1


 39 41  0  0  0  0  0  0  0  0999 V2000
   18.1138   10.5468  -15.1505 C   0  0  0  0  0  0  0  0  0  0  0  0
   19.5081   10.4420  -14.8583 O   0  0  0  0  0  0  0  0  0  0  0  0
   17.8510   11.9914  -15.5568 C   0  0  0  0  0  0  0  0  0  0  0  0
   16.7884   12.5319  -14.7622 O   0  0  0  0  0  0  0  0  0  0  0  0
   19.1632   12.7239  -15.3141 C   0  0  0  0  0  0  0  0  0  0  0  0
   18.9878   13.9287  -14.5629 O   0  0  0  0  0  0  0  0  0  0  0  0
   20.0306   11.7319  -14.5457 C   0  0  0  0  0  0  0  0  0  0  0  0
   17.0222   12.4679  -13.8230 H   0  0  0  0  0  0  0  0  0  0  0  0
   18.5868   13.7192  -13.7049 H   0  0  0  0  0  0  0  0  0  0  0  0
   21.4565   11.8422  -14.9306 N   0  0  0  0  0  0  0  0  0  0  0  0
   21.9323   12.3949  -16.0637 C   0  0  0  0  0  0  0  0  0  0  0  0
   23.2877   12.3359  -16.1067 N   0  0  0  0  0  0  0  0  0  0  0  0
   23.7066   11.7350  -14.9766 C   0  0  0  0  0  0  0  0  0  0  0  0
   25.0123   11.3567  -14.3860 C   0  0  0  0  0  0  0  0  0  0  0  0
   26.1810   11.6165  -15.0257 N   0  0  0  0  0  0  0  0  0  0  0  0
   25.0028   10.7427  -13.1873 N   0  0  0  0  0  0  0  0  0  0  0  0
   23.8528   10.4799  -12.5376 C   0  0  0  0  0  0  0  0  0  0  0  0
   22.6349   10.7961  -13.0091 N   0  0  0  0  0  0  0  0  0  0  0  0
   22.4970   11.4155  -14.2049 C   0  0  0  0  0  0  0  0  0  0  0  0
   26.1734   12.0660  -15.9016 H   0  0  0  0  0  0  0  0  0  0  0  0
   27.0362   11.3556  -14.6138 H   0  0  0  0  0  0  0  0  0  0  0  0
   17.6989    9.5664  -16.2416 C   0  0  0  0  0  0  0  0  0  0  0  0
   17.7625   10.1979  -17.5198 O   0  0  0  0  0  0  0  0  0  0  0  0
   18.9351    9.8246  -18.5578 P   0  0  0  0  0  0  0  0  0  0  0  0
   18.8073   10.7098  -19.7717 O   0  0  0  0  0  0  0  0  0  0  0  0
   20.2353    9.7695  -17.7898 O   0  0  0  0  0  0  0  0  0  0  0  0
   20.9593    9.5457  -18.3953 H   0  0  0  0  0  0  0  0  0  0  0  0
   18.5264    8.3103  -18.9267 O   0  0  0  0  0  0  0  0  0  0  0  0
   19.2434    7.5142  -20.1243 P   0  0  0  0  0  0  0  0  0  0  0  0
   19.3228    6.0510  -19.7683 O   0  0  0  0  0  0  0  0  0  0  0  0
   20.5066    8.2627  -20.4699 O   0  0  0  0  0  0  0  0  0  0  0  0
   20.9653    7.8064  -21.1925 H   0  0  0  0  0  0  0  0  0  0  0  0
   18.1866    7.7097  -21.3292 O   0  0  0  0  0  0  0  0  0  0  0  0
   18.6005    8.3922  -22.7272 P   0  0  0  0  0  0  0  0  0  0  0  0
   17.4056    8.1733  -23.6234 O   0  0  0  0  0  0  0  0  0  0  0  0
   18.8391    9.8344  -22.3527 O   0  0  0  0  0  0  0  0  0  0  0  0
   19.8392    7.6351  -23.1440 O   0  0  0  0  0  0  0  0  0  0  0  0
   19.0976   10.3350  -23.1423 H   0  0  0  0  0  0  0  0  0  0  0  0
   20.1627    7.9845  -23.9891 H   0  0  0  0  0  0  0  0  0  0  0  0
 34 35  2  0  0  0
 34 36  1  0  0  0
 34 37  1  0  0  0
 34 33  1  0  0  0
 29 30  2  0  0  0
 29 31  1  0  0  0
 29 33  1  0  0  0
 29 28  1  0  0  0
 24 25  2  0  0  0
 24 26  1  0  0  0
 24 28  1  0  0  0
 24 23  1  0  0  0
 23 22  1  0  0  0
 22  1  1  0  0  0
  1  2  1  0  0  0
  1  3  1  0  0  0
  2  7  1  0  0  0
  3  4  1  0  0  0
  3  5  1  0  0  0
  5  6  1  0  0  0
  5  7  1  0  0  0
  7 10  1  0  0  0
 10 11  1  0  0  0
 10 19  1  0  0  0
 11 12  2  0  0  0
 12 13  1  0  0  0
 13 14  1  0  0  0
 13 19  2  0  0  0
 14 15  1  0  0  0
 14 16  2  0  0  0
 16 17  1  0  0  0
 17 18  2  0  0  0
 18 19  1  0  0  0
 36 38  1  0  0  0
 37 39  1  0  0  0
 31 32  1  0  0  0
 26 27  1  0  0  0
  4  8  1  0  0  0
  6  9  1  0  0  0
 15 20  1  0  0  0
 15 21  1  0  0  0
M  END
> <minimizedAffinity>
-7.59934

$$$$
3QX9_ATP_A_1


 39 41  0  0  0  0  0  0  0  0999 V2000
   19.8545   13.3093  -14.0510 C   0  0  0  0  0  0  0  0  0  0  0  0
   20.8592   12.6048  -13.3197 O   0  0  0  0  0  0  0  0  0  0  0  0
   20.5758   14.2859  -14.9714 C   0  0  0  0  0  0  0  0  0  0  0  0
   20.0594   15.6077  -14.7746 O   0  0  0  0  0  0  0  0  0  0  0  0
   22.0456   14.1932  -14.5860 C   0  0  0  0  0  0  0  0  0  0  0  0
   22.6375   15.4774  -14.3690 O   0  0  0  0  0  0  0  0  0  0  0  0
   22.0639   13.3683  -13.3030 C   0  0  0  0  0  0  0  0  0  0  0  0
   20.1631   15.8600  -13.8437 H   0  0  0  0  0  0  0  0  0  0  0  0
   22.1602   15.9380  -13.6613 H   0  0  0  0  0  0  0  0  0  0  0  0
   23.2555   12.4912  -13.2358 N   0  0  0  0  0  0  0  0  0  0  0  0
   23.2689   11.1984  -12.8564 C   0  0  0  0  0  0  0  0  0  0  0  0
   24.5243   10.6848  -12.9085 N   0  0  0  0  0  0  0  0  0  0  0  0
   25.3480   11.6617  -13.3340 C   0  0  0  0  0  0  0  0  0  0  0  0
   26.7980   11.7943  -13.6111 C   0  0  0  0  0  0  0  0  0  0  0  0
   27.6497   10.7508  -13.4428 N   0  0  0  0  0  0  0  0  0  0  0  0
   27.2470   12.9905  -14.0373 N   0  0  0  0  0  0  0  0  0  0  0  0
   26.4157   14.0353  -14.2123 C   0  0  0  0  0  0  0  0  0  0  0  0
   25.0921   13.9880  -13.9850 N   0  0  0  0  0  0  0  0  0  0  0  0
   24.5066   12.8472  -13.5512 C   0  0  0  0  0  0  0  0  0  0  0  0
   27.3079    9.8819  -13.1307 H   0  0  0  0  0  0  0  0  0  0  0  0
   28.6091   10.8628  -13.6330 H   0  0  0  0  0  0  0  0  0  0  0  0
   18.9593   12.3522  -14.8295 C   0  0  0  0  0  0  0  0  0  0  0  0
   19.5037   11.0335  -14.7966 O   0  0  0  0  0  0  0  0  0  0  0  0
   18.5973    9.7653  -15.1992 P   0  0  0  0  0  0  0  0  0  0  0  0
   18.6056    8.7817  -14.0564 O   0  0  0  0  0  0  0  0  0  0  0  0
   17.2882   10.2849  -15.7466 O   0  0  0  0  0  0  0  0  0  0  0  0
   16.7230    9.5374  -15.9970 H   0  0  0  0  0  0  0  0  0  0  0  0
   19.4445    9.1842  -16.4407 O   0  0  0  0  0  0  0  0  0  0  0  0
   18.8667    9.2144  -17.9398 P   0  0  0  0  0  0  0  0  0  0  0  0
   19.1586   10.5596  -18.5558 O   0  0  0  0  0  0  0  0  0  0  0  0
   17.4436    8.7176  -17.8842 O   0  0  0  0  0  0  0  0  0  0  0  0
   17.0640    8.7233  -18.7768 H   0  0  0  0  0  0  0  0  0  0  0  0
   19.7730    8.0919  -18.6648 O   0  0  0  0  0  0  0  0  0  0  0  0
   19.4684    7.5828  -20.1614 P   0  0  0  0  0  0  0  0  0  0  0  0
   19.1701    6.1112  -20.0070 O   0  0  0  0  0  0  0  0  0  0  0  0
   18.2811    8.4163  -20.5772 O   0  0  0  0  0  0  0  0  0  0  0  0
   20.7448    7.8848  -20.9104 O   0  0  0  0  0  0  0  0  0  0  0  0
   18.0192    8.1781  -21.4803 H   0  0  0  0  0  0  0  0  0  0  0  0
   20.6506    7.6070  -21.8350 H   0  0  0  0  0  0  0  0  0  0  0  0
 34 35  2  0  0  0
 34 36  1  0  0  0
 34 37  1  0  0  0
 34 33  1  0  0  0
 29 30  2  0  0  0
 29 31  1  0  0  0
 29 33  1  0  0  0
 29 28  1  0  0  0
 24 25  2  0  0  0
 24 26  1  0  0  0
 24 28  1  0  0  0
 24 23  1  0  0  0
 23 22  1  0  0  0
 22  1  1  0  0  0
  1  2  1  0  0  0
  1  3  1  0  0  0
  2  7  1  0  0  0
  3  4  1  0  0  0
  3  5  1  0  0  0
  5  6  1  0  0  0
  5  7  1  0  0  0
  7 10  1  0  0  0
 10 11  1  0  0  0
 10 19  1  0  0  0
 11 12  2  0  0  0
 12 13  1  0  0  0
 13 14  1  0  0  0
 13 19  2  0  0  0
 14 15  1  0  0  0
 14 16  2  0  0  0
 16 17  1  0  0  0
 17 18  2  0  0  0
 18 19  1  0  0  0
 36 38  1  0  0  0
 37 39  1  0  0  0
 31 32  1  0  0  0
 26 27  1  0  0  0
  4  8  1  0  0  0
  6  9  1  0  0  0
 15 20  1  0  0  0
 15 21  1  0  0  0
M  END
> <minimizedAffinity>
-7.55545

$$$$
3QX9_ATP_A_1


 39 41  0  0  0  0  0  0  0  0999 V2000
   19.1017    9.5029  -19.7853 C   0  0  0  0  0  0  0  0  0  0  0  0
   19.4150    9.4273  -21.1769 O   0  0  0  0  0  0  0  0  0  0  0  0
   19.4687    8.1574  -19.1722 C   0  0  0  0  0  0  0  0  0  0  0  0
   18.3450    7.6285  -18.4580 O   0  0  0  0  0  0  0  0  0  0  0  0
   19.8560    7.2706  -20.3473 C   0  0  0  0  0  0  0  0  0  0  0  0
   19.1947    6.0025  -20.3185 O   0  0  0  0  0  0  0  0  0  0  0  0
   19.4500    8.0616  -21.5868 C   0  0  0  0  0  0  0  0  0  0  0  0
   17.5889    7.5460  -19.0600 H   0  0  0  0  0  0  0  0  0  0  0  0
   18.2344    6.1381  -20.3363 H   0  0  0  0  0  0  0  0  0  0  0  0
   20.4053    7.8586  -22.7003 N   0  0  0  0  0  0  0  0  0  0  0  0
   21.7141    7.5619  -22.5789 C   0  0  0  0  0  0  0  0  0  0  0  0
   22.3044    7.4407  -23.7952 N   0  0  0  0  0  0  0  0  0  0  0  0
   21.3609    7.6594  -24.7310 C   0  0  0  0  0  0  0  0  0  0  0  0
   21.3072    7.6837  -26.2119 C   0  0  0  0  0  0  0  0  0  0  0  0
   22.4103    7.4405  -26.9648 N   0  0  0  0  0  0  0  0  0  0  0  0
   20.1222    7.9566  -26.7910 N   0  0  0  0  0  0  0  0  0  0  0  0
   19.0176    8.1972  -26.0594 C   0  0  0  0  0  0  0  0  0  0  0  0
   18.9901    8.1888  -24.7160 N   0  0  0  0  0  0  0  0  0  0  0  0
   20.1122    7.9304  -24.0043 C   0  0  0  0  0  0  0  0  0  0  0  0
   23.2702    7.2423  -26.5284 H   0  0  0  0  0  0  0  0  0  0  0  0
   22.3504    7.4624  -27.9472 H   0  0  0  0  0  0  0  0  0  0  0  0
   19.8396   10.6537  -19.1108 C   0  0  0  0  0  0  0  0  0  0  0  0
   19.5003   10.7105  -17.7258 O   0  0  0  0  0  0  0  0  0  0  0  0
   18.6346   11.9381  -17.1466 P   0  0  0  0  0  0  0  0  0  0  0  0
   19.5520   13.1129  -16.9190 O   0  0  0  0  0  0  0  0  0  0  0  0
   17.4055   12.0891  -18.0125 O   0  0  0  0  0  0  0  0  0  0  0  0
   16.8660   12.8247  -17.6826 H   0  0  0  0  0  0  0  0  0  0  0  0
   18.1602   11.3200  -15.7362 O   0  0  0  0  0  0  0  0  0  0  0  0
   17.5057    9.8557  -15.6379 P   0  0  0  0  0  0  0  0  0  0  0  0
   18.3730    8.9834  -14.7654 O   0  0  0  0  0  0  0  0  0  0  0  0
   17.1830    9.4113  -17.0427 O   0  0  0  0  0  0  0  0  0  0  0  0
   16.7848    8.5272  -17.0188 H   0  0  0  0  0  0  0  0  0  0  0  0
   16.1207   10.1648  -14.8678 O   0  0  0  0  0  0  0  0  0  0  0  0
   14.6957   10.1059  -15.6145 P   0  0  0  0  0  0  0  0  0  0  0  0
   14.7613   11.2096  -16.6423 O   0  0  0  0  0  0  0  0  0  0  0  0
   14.6668    8.7149  -16.1989 O   0  0  0  0  0  0  0  0  0  0  0  0
   13.6987   10.3455  -14.5054 O   0  0  0  0  0  0  0  0  0  0  0  0
   13.8328    8.5820  -16.6761 H   0  0  0  0  0  0  0  0  0  0  0  0
   12.7997   10.3268  -14.8692 H   0  0  0  0  0  0  0  0  0  0  0  0
 34 35  2  0  0  0
 34 36  1  0  0  0
 34 37  1  0  0  0
 34 33  1  0  0  0
 29 30  2  0  0  0
 29 31  1  0  0  0
 29 33  1  0  0  0
 29 28  1  0  0  0
 24 25  2  0  0  0
 24 26  1  0  0  0
 24 28  1  0  0  0
 24 23  1  0  0  0
 23 22  1  0  0  0
 22  1  1  0  0  0
  1  2  1  0  0  0
  1  3  1  0  0  0
  2  7  1  0  0  0
  3  4  1  0  0  0
  3  5  1  0  0  0
  5  6  1  0  0  0
  5  7  1  0  0  0
  7 10  1  0  0  0
 10 11  1  0  0  0
 10 19  1  0  0  0
 11 12  2  0  0  0
 12 13  1  0  0  0
 13 14  1  0  0  0
 13 19  2  0  0  0
 14 15  1  0  0  0
 14 16  2  0  0  0
 16 17  1  0  0  0
 17 18  2  0  0  0
 18 19  1  0  0  0
 36 38  1  0  0  0
 37 39  1  0  0  0
 31 32  1  0  0  0
 26 27  1  0  0  0
  4  8  1  0  0  0
  6  9  1  0  0  0
 15 20  1  0  0  0
 15 21  1  0  0  0
M  END
> <minimizedAffinity>
-7.46614

$$$$
3QX9_ATP_A_1


 39 41  0  0  0  0  0  0  0  0999 V2000
   22.3990   11.6097  -14.1666 C   0  0  0  0  0  0  0  0  0  0  0  0
   23.3472   11.8432  -15.2092 O   0  0  0  0  0  0  0  0  0  0  0  0
   23.1834   11.5159  -12.8639 C   0  0  0  0  0  0  0  0  0  0  0  0
   22.8514   10.2983  -12.1858 O   0  0  0  0  0  0  0  0  0  0  0  0
   24.6495   11.5504  -13.2721 C   0  0  0  0  0  0  0  0  0  0  0  0
   25.4113   10.5004  -12.6693 O   0  0  0  0  0  0  0  0  0  0  0  0
   24.6379   11.4039  -14.7904 C   0  0  0  0  0  0  0  0  0  0  0  0
   23.0406    9.5437  -12.7651 H   0  0  0  0  0  0  0  0  0  0  0  0
   25.0386    9.6423  -12.9256 H   0  0  0  0  0  0  0  0  0  0  0  0
   25.7104   12.2054  -15.4237 N   0  0  0  0  0  0  0  0  0  0  0  0
   25.5511   13.3828  -16.0594 C   0  0  0  0  0  0  0  0  0  0  0  0
   26.7364   13.8538  -16.5238 N   0  0  0  0  0  0  0  0  0  0  0  0
   27.6908   12.9673  -16.1814 C   0  0  0  0  0  0  0  0  0  0  0  0
   29.1575   12.8511  -16.3598 C   0  0  0  0  0  0  0  0  0  0  0  0
   29.8693   13.8040  -17.0140 N   0  0  0  0  0  0  0  0  0  0  0  0
   29.7659   11.7632  -15.8495 N   0  0  0  0  0  0  0  0  0  0  0  0
   29.0756   10.8098  -15.1953 C   0  0  0  0  0  0  0  0  0  0  0  0
   27.7478   10.8495  -14.9928 N   0  0  0  0  0  0  0  0  0  0  0  0
   27.0099   11.8863  -15.4544 C   0  0  0  0  0  0  0  0  0  0  0  0
   29.4118   14.5943  -17.3820 H   0  0  0  0  0  0  0  0  0  0  0  0
   30.8430   13.7049  -17.1204 H   0  0  0  0  0  0  0  0  0  0  0  0
   21.3455   12.7102  -14.1163 C   0  0  0  0  0  0  0  0  0  0  0  0
   20.0409   12.1485  -14.2547 O   0  0  0  0  0  0  0  0  0  0  0  0
   19.3712   11.9873  -15.7098 P   0  0  0  0  0  0  0  0  0  0  0  0
   19.2538   13.3509  -16.3427 O   0  0  0  0  0  0  0  0  0  0  0  0
   20.0918   10.8727  -16.4321 O   0  0  0  0  0  0  0  0  0  0  0  0
   19.7052   10.7560  -17.3140 H   0  0  0  0  0  0  0  0  0  0  0  0
   17.9137   11.4358  -15.3001 O   0  0  0  0  0  0  0  0  0  0  0  0
   17.5874    9.8626  -15.2734 P   0  0  0  0  0  0  0  0  0  0  0  0
   18.4826    9.1885  -14.2643 O   0  0  0  0  0  0  0  0  0  0  0  0
   17.5846    9.3788  -16.7021 O   0  0  0  0  0  0  0  0  0  0  0  0
   17.3900    8.4288  -16.7214 H   0  0  0  0  0  0  0  0  0  0  0  0
   16.0686    9.8504  -14.7257 O   0  0  0  0  0  0  0  0  0  0  0  0
   14.8039   10.0108  -15.7089 P   0  0  0  0  0  0  0  0  0  0  0  0
   13.6433   10.3005  -14.7880 O   0  0  0  0  0  0  0  0  0  0  0  0
   15.1968   11.1677  -16.5946 O   0  0  0  0  0  0  0  0  0  0  0  0
   14.7237    8.6764  -16.4119 O   0  0  0  0  0  0  0  0  0  0  0  0
   14.4864   11.3433  -17.2313 H   0  0  0  0  0  0  0  0  0  0  0  0
   13.9787    8.6825  -17.0331 H   0  0  0  0  0  0  0  0  0  0  0  0
 34 35  2  0  0  0
 34 36  1  0  0  0
 34 37  1  0  0  0
 34 33  1  0  0  0
 29 30  2  0  0  0
 29 31  1  0  0  0
 29 33  1  0  0  0
 29 28  1  0  0  0
 24 25  2  0  0  0
 24 26  1  0  0  0
 24 28  1  0  0  0
 24 23  1  0  0  0
 23 22  1  0  0  0
 22  1  1  0  0  0
  1  2  1  0  0  0
  1  3  1  0  0  0
  2  7  1  0  0  0
  3  4  1  0  0  0
  3  5  1  0  0  0
  5  6  1  0  0  0
  5  7  1  0  0  0
  7 10  1  0  0  0
 10 11  1  0  0  0
 10 19  1  0  0  0
 11 12  2  0  0  0
 12 13  1  0  0  0
 13 14  1  0  0  0
 13 19  2  0  0  0
 14 15  1  0  0  0
 14 16  2  0  0  0
 16 17  1  0  0  0
 17 18  2  0  0  0
 18 19  1  0  0  0
 36 38  1  0  0  0
 37 39  1  0  0  0
 31 32  1  0  0  0
 26 27  1  0  0  0
  4  8  1  0  0  0
  6  9  1  0  0  0
 15 20  1  0  0  0
 15 21  1  0  0  0
M  END
> <minimizedAffinity>
-7.45172

$$$$
3QX9_ATP_A_1


 39 41  0  0  0  0  0  0  0  0999 V2000
   18.9331    9.8925  -19.9454 C   0  0  0  0  0  0  0  0  0  0  0  0
   18.7678    9.7869  -21.3603 O   0  0  0  0  0  0  0  0  0  0  0  0
   19.4658    8.5512  -19.4576 C   0  0  0  0  0  0  0  0  0  0  0  0
   18.6351    8.0561  -18.4005 O   0  0  0  0  0  0  0  0  0  0  0  0
   19.4320    7.6369  -20.6743 C   0  0  0  0  0  0  0  0  0  0  0  0
   18.8021    6.3822  -20.4000 O   0  0  0  0  0  0  0  0  0  0  0  0
   18.6486    8.4138  -21.7277 C   0  0  0  0  0  0  0  0  0  0  0  0
   17.7215    7.9775  -18.7170 H   0  0  0  0  0  0  0  0  0  0  0  0
   17.8916    6.5357  -20.1027 H   0  0  0  0  0  0  0  0  0  0  0  0
   19.1796    8.1735  -23.0893 N   0  0  0  0  0  0  0  0  0  0  0  0
   20.4794    8.0596  -23.4256 C   0  0  0  0  0  0  0  0  0  0  0  0
   20.6242    7.8402  -24.7573 N   0  0  0  0  0  0  0  0  0  0  0  0
   19.3930    7.8068  -25.3021 C   0  0  0  0  0  0  0  0  0  0  0  0
   18.8273    7.6139  -26.6584 C   0  0  0  0  0  0  0  0  0  0  0  0
   19.6260    7.4034  -27.7357 N   0  0  0  0  0  0  0  0  0  0  0  0
   17.4874    7.6547  -26.7895 N   0  0  0  0  0  0  0  0  0  0  0  0
   16.6803    7.8596  -25.7312 C   0  0  0  0  0  0  0  0  0  0  0  0
   17.1208    8.0385  -24.4744 N   0  0  0  0  0  0  0  0  0  0  0  0
   18.4461    8.0232  -24.1988 C   0  0  0  0  0  0  0  0  0  0  0  0
   20.6039    7.3760  -27.6255 H   0  0  0  0  0  0  0  0  0  0  0  0
   19.2273    7.2782  -28.6271 H   0  0  0  0  0  0  0  0  0  0  0  0
   19.8664   11.0406  -19.5787 C   0  0  0  0  0  0  0  0  0  0  0  0
   20.8254   10.6059  -18.6154 O   0  0  0  0  0  0  0  0  0  0  0  0
   20.8109   11.2041  -17.1209 P   0  0  0  0  0  0  0  0  0  0  0  0
   22.1897   11.0597  -16.5280 O   0  0  0  0  0  0  0  0  0  0  0  0
   20.1411   12.5578  -17.1688 O   0  0  0  0  0  0  0  0  0  0  0  0
   20.1201   12.9398  -16.2774 H   0  0  0  0  0  0  0  0  0  0  0  0
   19.7881   10.1830  -16.4084 O   0  0  0  0  0  0  0  0  0  0  0  0
   19.0345   10.5653  -15.0417 P   0  0  0  0  0  0  0  0  0  0  0  0
   19.8799   11.5451  -14.2675 O   0  0  0  0  0  0  0  0  0  0  0  0
   18.6075    9.2753  -14.3868 O   0  0  0  0  0  0  0  0  0  0  0  0
   18.1475    9.4715  -13.5556 H   0  0  0  0  0  0  0  0  0  0  0  0
   17.7177   11.3206  -15.5916 O   0  0  0  0  0  0  0  0  0  0  0  0
   16.3722   10.5239  -15.9744 P   0  0  0  0  0  0  0  0  0  0  0  0
   15.8102   10.0716  -14.6484 O   0  0  0  0  0  0  0  0  0  0  0  0
   15.5390   11.5669  -16.6781 O   0  0  0  0  0  0  0  0  0  0  0  0
   16.8588    9.4017  -16.8605 O   0  0  0  0  0  0  0  0  0  0  0  0
   14.6945   11.1757  -16.9514 H   0  0  0  0  0  0  0  0  0  0  0  0
   16.1038    8.8619  -17.1426 H   0  0  0  0  0  0  0  0  0  0  0  0
 34 35  2  0  0  0
 34 36  1  0  0  0
 34 37  1  0  0  0
 34 33  1  0  0  0
 29 30  2  0  0  0
 29 31  1  0  0  0
 29 33  1  0  0  0
 29 28  1  0  0  0
 24 25  2  0  0  0
 24 26  1  0  0  0
 24 28  1  0  0  0
 24 23  1  0  0  0
 23 22  1  0  0  0
 22  1  1  0  0  0
  1  2  1  0  0  0
  1  3  1  0  0  0
  2  7  1  0  0  0
  3  4  1  0  0  0
  3  5  1  0  0  0
  5  6  1  0  0  0
  5  7  1  0  0  0
  7 10  1  0  0  0
 10 11  1  0  0  0
 10 19  1  0  0  0
 11 12  2  0  0  0
 12 13  1  0  0  0
 13 14  1  0  0  0
 13 19  2  0  0  0
 14 15  1  0  0  0
 14 16  2  0  0  0
 16 17  1  0  0  0
 17 18  2  0  0  0
 18 19  1  0  0  0
 36 38  1  0  0  0
 37 39  1  0  0  0
 31 32  1  0  0  0
 26 27  1  0  0  0
  4  8  1  0  0  0
  6  9  1  0  0  0
 15 20  1  0  0  0
 15 21  1  0  0  0
M  END
> <minimizedAffinity>
-7.38219

$$$$
3QX9_ATP_A_1


 39 41  0  0  0  0  0  0  0  0999 V2000
   22.9056   11.3046  -15.2593 C   0  0  0  0  0  0  0  0  0  0  0  0
   24.1894   11.7964  -15.6470 O   0  0  0  0  0  0  0  0  0  0  0  0
   22.9319   11.1351  -13.7455 C   0  0  0  0  0  0  0  0  0  0  0  0
   22.5285    9.8044  -13.4006 O   0  0  0  0  0  0  0  0  0  0  0  0
   24.3712   11.4110  -13.3335 C   0  0  0  0  0  0  0  0  0  0  0  0
   24.9011   10.3942  -12.4781 O   0  0  0  0  0  0  0  0  0  0  0  0
   25.1499   11.4720  -14.6437 C   0  0  0  0  0  0  0  0  0  0  0  0
   23.1145    9.1657  -13.8360 H   0  0  0  0  0  0  0  0  0  0  0  0
   24.8680    9.5386  -12.9339 H   0  0  0  0  0  0  0  0  0  0  0  0
   26.2318   12.4820  -14.5884 N   0  0  0  0  0  0  0  0  0  0  0  0
   26.2580   13.6541  -15.2526 C   0  0  0  0  0  0  0  0  0  0  0  0
   27.3928   14.3472  -14.9799 N   0  0  0  0  0  0  0  0  0  0  0  0
   28.1218   13.6142  -14.1168 C   0  0  0  0  0  0  0  0  0  0  0  0
   29.4237   13.7587  -13.4233 C   0  0  0  0  0  0  0  0  0  0  0  0
   30.2006   14.8582  -13.5970 N   0  0  0  0  0  0  0  0  0  0  0  0
   29.8144   12.7585  -12.6103 N   0  0  0  0  0  0  0  0  0  0  0  0
   29.0547   11.6622  -12.4243 C   0  0  0  0  0  0  0  0  0  0  0  0
   27.8644   11.4643  -13.0155 N   0  0  0  0  0  0  0  0  0  0  0  0
   27.3509   12.3893  -13.8600 C   0  0  0  0  0  0  0  0  0  0  0  0
   29.9028   15.5820  -14.1943 H   0  0  0  0  0  0  0  0  0  0  0  0
   31.0619   14.9318  -13.1259 H   0  0  0  0  0  0  0  0  0  0  0  0
   21.7918   12.2450  -15.7053 C   0  0  0  0  0  0  0  0  0  0  0  0
   20.8930   11.5629  -16.5790 O   0  0  0  0  0  0  0  0  0  0  0  0
   19.5201   10.9399  -16.0145 P   0  0  0  0  0  0  0  0  0  0  0  0
   19.6425   10.7720  -14.5210 O   0  0  0  0  0  0  0  0  0  0  0  0
   18.3748   11.7331  -16.5997 O   0  0  0  0  0  0  0  0  0  0  0  0
   17.5341   11.3757  -16.2734 H   0  0  0  0  0  0  0  0  0  0  0  0
   19.5331    9.5012  -16.7400 O   0  0  0  0  0  0  0  0  0  0  0  0
   18.8633    9.2822  -18.1842 P   0  0  0  0  0  0  0  0  0  0  0  0
   19.1938   10.4594  -19.0668 O   0  0  0  0  0  0  0  0  0  0  0  0
   17.4199    8.9066  -17.9589 O   0  0  0  0  0  0  0  0  0  0  0  0
   16.9849    8.7667  -18.8145 H   0  0  0  0  0  0  0  0  0  0  0  0
   19.6536    7.9801  -18.7198 O   0  0  0  0  0  0  0  0  0  0  0  0
   19.4469    7.4076  -20.2102 P   0  0  0  0  0  0  0  0  0  0  0  0
   19.1885    5.9330  -20.0166 O   0  0  0  0  0  0  0  0  0  0  0  0
   18.2573    8.1843  -20.7190 O   0  0  0  0  0  0  0  0  0  0  0  0
   20.7514    7.7263  -20.9017 O   0  0  0  0  0  0  0  0  0  0  0  0
   18.0524    7.9051  -21.6251 H   0  0  0  0  0  0  0  0  0  0  0  0
   20.7163    7.4124  -21.8188 H   0  0  0  0  0  0  0  0  0  0  0  0
 34 35  2  0  0  0
 34 36  1  0  0  0
 34 37  1  0  0  0
 34 33  1  0  0  0
 29 30  2  0  0  0
 29 31  1  0  0  0
 29 33  1  0  0  0
 29 28  1  0  0  0
 24 25  2  0  0  0
 24 26  1  0  0  0
 24 28  1  0  0  0
 24 23  1  0  0  0
 23 22  1  0  0  0
 22  1  1  0  0  0
  1  2  1  0  0  0
  1  3  1  0  0  0
  2  7  1  0  0  0
  3  4  1  0  0  0
  3  5  1  0  0  0
  5  6  1  0  0  0
  5  7  1  0  0  0
  7 10  1  0  0  0
 10 11  1  0  0  0
 10 19  1  0  0  0
 11 12  2  0  0  0
 12 13  1  0  0  0
 13 14  1  0  0  0
 13 19  2  0  0  0
 14 15  1  0  0  0
 14 16  2  0  0  0
 16 17  1  0  0  0
 17 18  2  0  0  0
 18 19  1  0  0  0
 36 38  1  0  0  0
 37 39  1  0  0  0
 31 32  1  0  0  0
 26 27  1  0  0  0
  4  8  1  0  0  0
  6  9  1  0  0  0
 15 20  1  0  0  0
 15 21  1  0  0  0
M  END
> <minimizedAffinity>
-7.37013

$$$$
