3P3S_3M2_A_128


 21 22  0  0  0  0  0  0  0  0999 V2000
    0.0916   -2.0736   -8.2333 C   0  0  0  0  0  0  0  0  0  0  0  0
   -0.0404   -2.7031  -11.0212 N   0  0  0  0  0  0  0  0  0  0  0  0
   -0.1062    1.9698  -10.7006 O   0  0  0  0  0  0  0  0  0  0  0  0
    0.0241    0.9520   -8.0787 C   0  0  0  0  0  0  0  0  0  0  0  0
   -0.0850   -0.2671  -11.3389 N   0  0  0  0  0  0  0  0  0  0  0  0
   -0.0317   -1.4116  -10.6210 C   0  0  0  0  0  0  0  0  0  0  0  0
   -0.0748    0.7406  -10.4577 C   0  0  0  0  0  0  0  0  0  0  0  0
   -0.0031    0.1740   -9.1915 C   0  0  0  0  0  0  0  0  0  0  0  0
    0.0173   -1.1147   -9.3380 N   0  0  0  0  0  0  0  0  0  0  0  0
   -0.0770   -2.9209  -11.9806 H   0  0  0  0  0  0  0  0  0  0  0  0
   -0.0101   -3.4257  -10.3532 H   0  0  0  0  0  0  0  0  0  0  0  0
   -0.1765    0.1273   -2.6126 O   0  0  0  0  0  0  0  0  0  0  0  0
    1.9152   -1.6844   -3.6493 Br  0  0  0  0  0  0  0  0  0  0  0  0
   -2.1224    2.2234   -3.8081 Br  0  0  0  0  0  0  0  0  0  0  0  0
    0.9258   -0.3285   -6.0787 C   0  0  0  0  0  0  0  0  0  0  0  0
   -0.7866    1.3107   -5.9820 C   0  0  0  0  0  0  0  0  0  0  0  0
   -0.0616    0.2576   -3.9564 C   0  0  0  0  0  0  0  0  0  0  0  0
    0.0822    0.5873   -6.7384 C   0  0  0  0  0  0  0  0  0  0  0  0
    0.8354   -0.4918   -4.6765 C   0  0  0  0  0  0  0  0  0  0  0  0
   -0.8525    1.1366   -4.6365 C   0  0  0  0  0  0  0  0  0  0  0  0
    0.3701   -0.4786   -2.1522 H   0  0  0  0  0  0  0  0  0  0  0  0
  1  9  1  0  0  0
  2  6  1  0  0  0
  7  3  2  0  0  0
 12 17  1  0  0  0
 13 19  1  0  0  0
 20 14  1  0  0  0
 18  4  1  0  0  0
  4  8  2  0  0  0
 19 15  2  0  0  0
 15 18  1  0  0  0
 20 16  1  0  0  0
 16 18  2  0  0  0
  6  5  2  0  0  0
  7  5  1  0  0  0
 17 19  1  0  0  0
 17 20  2  0  0  0
  9  6  1  0  0  0
  8  7  1  0  0  0
  9  8  1  0  0  0
  2 10  1  0  0  0
  2 11  1  0  0  0
 12 21  1  0  0  0
M  END
> <minimizedAffinity>
-7.75413

$$$$
3P3S_3M2_A_128


 21 22  0  0  0  0  0  0  0  0999 V2000
   -0.1151    2.1887   -8.1757 C   0  0  0  0  0  0  0  0  0  0  0  0
    0.0342    2.8515  -10.9550 N   0  0  0  0  0  0  0  0  0  0  0  0
    0.1526   -1.8237  -10.6867 O   0  0  0  0  0  0  0  0  0  0  0  0
   -0.0131   -0.8375   -8.0547 C   0  0  0  0  0  0  0  0  0  0  0  0
    0.1105    0.4199  -11.2998 N   0  0  0  0  0  0  0  0  0  0  0  0
    0.0372    1.5554  -10.5695 C   0  0  0  0  0  0  0  0  0  0  0  0
    0.1044   -0.5978  -10.4302 C   0  0  0  0  0  0  0  0  0  0  0  0
    0.0148   -0.0466   -9.1584 C   0  0  0  0  0  0  0  0  0  0  0  0
   -0.0196    1.2434   -9.2904 N   0  0  0  0  0  0  0  0  0  0  0  0
    0.0767    3.0807  -11.9115 H   0  0  0  0  0  0  0  0  0  0  0  0
   -0.0106    3.5659  -10.2791 H   0  0  0  0  0  0  0  0  0  0  0  0
    0.1273   -0.0744   -2.5778 O   0  0  0  0  0  0  0  0  0  0  0  0
   -1.9703    1.7308   -3.6140 Br  0  0  0  0  0  0  0  0  0  0  0  0
    2.1032   -2.1394   -3.7782 Br  0  0  0  0  0  0  0  0  0  0  0  0
   -0.9454    0.4118   -6.0490 C   0  0  0  0  0  0  0  0  0  0  0  0
    0.7805   -1.2134   -5.9544 C   0  0  0  0  0  0  0  0  0  0  0  0
    0.0266   -0.1901   -3.9240 C   0  0  0  0  0  0  0  0  0  0  0  0
   -0.0874   -0.4888   -6.7109 C   0  0  0  0  0  0  0  0  0  0  0  0
   -0.8700    0.5597   -4.6442 C   0  0  0  0  0  0  0  0  0  0  0  0
    0.8317   -1.0542   -4.6064 C   0  0  0  0  0  0  0  0  0  0  0  0
   -0.4292    0.5214   -2.1158 H   0  0  0  0  0  0  0  0  0  0  0  0
  1  9  1  0  0  0
  2  6  1  0  0  0
  7  3  2  0  0  0
 12 17  1  0  0  0
 13 19  1  0  0  0
 20 14  1  0  0  0
 18  4  1  0  0  0
  4  8  2  0  0  0
 19 15  2  0  0  0
 15 18  1  0  0  0
 20 16  1  0  0  0
 16 18  2  0  0  0
  6  5  2  0  0  0
  7  5  1  0  0  0
 17 19  1  0  0  0
 17 20  2  0  0  0
  9  6  1  0  0  0
  8  7  1  0  0  0
  9  8  1  0  0  0
  2 10  1  0  0  0
  2 11  1  0  0  0
 12 21  1  0  0  0
M  END
> <minimizedAffinity>
-7.72829

$$$$
3P3S_3M2_A_128


 21 22  0  0  0  0  0  0  0  0999 V2000
   -1.5897    1.6040   -5.8839 C   0  0  0  0  0  0  0  0  0  0  0  0
   -2.1222    1.9816   -3.0982 N   0  0  0  0  0  0  0  0  0  0  0  0
    1.3965   -1.0975   -3.3818 O   0  0  0  0  0  0  0  0  0  0  0  0
    0.6732   -0.4073   -6.0139 C   0  0  0  0  0  0  0  0  0  0  0  0
   -0.2888    0.3809   -2.7611 N   0  0  0  0  0  0  0  0  0  0  0  0
   -1.1360    1.1431   -3.4888 C   0  0  0  0  0  0  0  0  0  0  0  0
    0.4762   -0.2852   -3.6347 C   0  0  0  0  0  0  0  0  0  0  0  0
    0.0753    0.1033   -4.9066 C   0  0  0  0  0  0  0  0  0  0  0  0
   -0.8931    0.9557   -4.7704 N   0  0  0  0  0  0  0  0  0  0  0  0
   -2.3008    2.1190   -2.1398 H   0  0  0  0  0  0  0  0  0  0  0  0
   -2.6618    2.4547   -3.7722 H   0  0  0  0  0  0  0  0  0  0  0  0
   -0.0919   -0.1476  -11.4861 O   0  0  0  0  0  0  0  0  0  0  0  0
   -0.3404    2.6201  -10.4808 Br  0  0  0  0  0  0  0  0  0  0  0  0
    0.4640   -2.9388  -10.2576 Br  0  0  0  0  0  0  0  0  0  0  0  0
    0.1705    1.0511   -8.0320 C   0  0  0  0  0  0  0  0  0  0  0  0
    0.4976   -1.2977   -8.1015 C   0  0  0  0  0  0  0  0  0  0  0  0
    0.0758   -0.1158  -10.1420 C   0  0  0  0  0  0  0  0  0  0  0  0
    0.4166   -0.1615   -7.3580 C   0  0  0  0  0  0  0  0  0  0  0  0
   -0.0095    1.0579   -9.4351 C   0  0  0  0  0  0  0  0  0  0  0  0
    0.3230   -1.2640   -9.4482 C   0  0  0  0  0  0  0  0  0  0  0  0
   -0.2615    0.6452  -11.9560 H   0  0  0  0  0  0  0  0  0  0  0  0
  1  9  1  0  0  0
  2  6  1  0  0  0
  7  3  2  0  0  0
 12 17  1  0  0  0
 13 19  1  0  0  0
 20 14  1  0  0  0
 18  4  1  0  0  0
  4  8  2  0  0  0
 19 15  2  0  0  0
 15 18  1  0  0  0
 20 16  1  0  0  0
 16 18  2  0  0  0
  6  5  2  0  0  0
  7  5  1  0  0  0
 17 19  1  0  0  0
 17 20  2  0  0  0
  9  6  1  0  0  0
  8  7  1  0  0  0
  9  8  1  0  0  0
  2 10  1  0  0  0
  2 11  1  0  0  0
 12 21  1  0  0  0
M  END
> <minimizedAffinity>
-7.26237

$$$$
3P3S_3M2_A_128


 21 22  0  0  0  0  0  0  0  0999 V2000
    1.5970   -1.6200   -5.8802 C   0  0  0  0  0  0  0  0  0  0  0  0
    2.1240   -2.0007   -3.0939 N   0  0  0  0  0  0  0  0  0  0  0  0
   -1.3878    1.0860   -3.3813 O   0  0  0  0  0  0  0  0  0  0  0  0
   -0.6615    0.3962   -6.0126 C   0  0  0  0  0  0  0  0  0  0  0  0
    0.2933   -0.3965   -2.7588 N   0  0  0  0  0  0  0  0  0  0  0  0
    1.1402   -1.1599   -3.4856 C   0  0  0  0  0  0  0  0  0  0  0  0
   -0.4687    0.2719   -3.6332 C   0  0  0  0  0  0  0  0  0  0  0  0
   -0.0665   -0.1166   -4.9047 C   0  0  0  0  0  0  0  0  0  0  0  0
    0.8999   -0.9710   -4.7674 N   0  0  0  0  0  0  0  0  0  0  0  0
    2.3006   -2.1392   -2.1353 H   0  0  0  0  0  0  0  0  0  0  0  0
    2.6638   -2.4744   -3.7673 H   0  0  0  0  0  0  0  0  0  0  0  0
    0.1087    0.1374  -11.4842 O   0  0  0  0  0  0  0  0  0  0  0  0
    0.3649   -2.6292  -10.4780 Br  0  0  0  0  0  0  0  0  0  0  0  0
   -0.4568    2.9272  -10.2568 Br  0  0  0  0  0  0  0  0  0  0  0  0
   -0.1527   -1.0612   -8.0300 C   0  0  0  0  0  0  0  0  0  0  0  0
   -0.4869    1.2865   -8.1004 C   0  0  0  0  0  0  0  0  0  0  0  0
   -0.0600    0.1055  -10.1402 C   0  0  0  0  0  0  0  0  0  0  0  0
   -0.4031    0.1508   -7.3564 C   0  0  0  0  0  0  0  0  0  0  0  0
    0.0284   -1.0678   -9.4329 C   0  0  0  0  0  0  0  0  0  0  0  0
   -0.3112    1.2531   -9.4469 C   0  0  0  0  0  0  0  0  0  0  0  0
    0.2810   -0.6549  -11.9537 H   0  0  0  0  0  0  0  0  0  0  0  0
  1  9  1  0  0  0
  2  6  1  0  0  0
  7  3  2  0  0  0
 12 17  1  0  0  0
 13 19  1  0  0  0
 20 14  1  0  0  0
 18  4  1  0  0  0
  4  8  2  0  0  0
 19 15  2  0  0  0
 15 18  1  0  0  0
 20 16  1  0  0  0
 16 18  2  0  0  0
  6  5  2  0  0  0
  7  5  1  0  0  0
 17 19  1  0  0  0
 17 20  2  0  0  0
  9  6  1  0  0  0
  8  7  1  0  0  0
  9  8  1  0  0  0
  2 10  1  0  0  0
  2 11  1  0  0  0
 12 21  1  0  0  0
M  END
> <minimizedAffinity>
-7.25024

$$$$
3P3S_3M2_A_128


 21 22  0  0  0  0  0  0  0  0999 V2000
    0.3238    2.0708   -7.6175 C   0  0  0  0  0  0  0  0  0  0  0  0
    0.1520    3.3325  -10.1797 N   0  0  0  0  0  0  0  0  0  0  0  0
   -0.3169   -1.2690  -10.9206 O   0  0  0  0  0  0  0  0  0  0  0  0
    0.0374   -0.8982   -8.1522 C   0  0  0  0  0  0  0  0  0  0  0  0
   -0.1482    1.0484  -11.0338 N   0  0  0  0  0  0  0  0  0  0  0  0
    0.0384    1.9888  -10.0805 C   0  0  0  0  0  0  0  0  0  0  0  0
   -0.1628   -0.1353  -10.4088 C   0  0  0  0  0  0  0  0  0  0  0  0
    0.0089    0.1171   -9.0538 C   0  0  0  0  0  0  0  0  0  0  0  0
    0.1281    1.4002   -8.9049 N   0  0  0  0  0  0  0  0  0  0  0  0
    0.0844    3.7687  -11.0597 H   0  0  0  0  0  0  0  0  0  0  0  0
    0.3024    3.8748   -9.3718 H   0  0  0  0  0  0  0  0  0  0  0  0
    0.2312   -0.1433   -2.6758 O   0  0  0  0  0  0  0  0  0  0  0  0
    2.4305   -2.0033   -3.3358 Br  0  0  0  0  0  0  0  0  0  0  0  0
   -1.9786    1.3635   -4.2429 Br  0  0  0  0  0  0  0  0  0  0  0  0
    1.1745   -1.4794   -5.9563 C   0  0  0  0  0  0  0  0  0  0  0  0
   -0.6844   -0.0221   -6.1790 C   0  0  0  0  0  0  0  0  0  0  0  0
    0.2559   -0.3929   -4.0073 C   0  0  0  0  0  0  0  0  0  0  0  0
    0.2077   -0.8598   -6.7729 C   0  0  0  0  0  0  0  0  0  0  0  0
    1.1807   -1.2428   -4.5617 C   0  0  0  0  0  0  0  0  0  0  0  0
   -0.6559    0.1900   -4.8376 C   0  0  0  0  0  0  0  0  0  0  0  0
    0.8607   -0.5474   -2.1116 H   0  0  0  0  0  0  0  0  0  0  0  0
  1  9  1  0  0  0
  2  6  1  0  0  0
  7  3  2  0  0  0
 12 17  1  0  0  0
 13 19  1  0  0  0
 20 14  1  0  0  0
 18  4  1  0  0  0
  4  8  2  0  0  0
 19 15  2  0  0  0
 15 18  1  0  0  0
 20 16  1  0  0  0
 16 18  2  0  0  0
  6  5  2  0  0  0
  7  5  1  0  0  0
 17 19  1  0  0  0
 17 20  2  0  0  0
  9  6  1  0  0  0
  8  7  1  0  0  0
  9  8  1  0  0  0
  2 10  1  0  0  0
  2 11  1  0  0  0
 12 21  1  0  0  0
M  END
> <minimizedAffinity>
-6.86350

$$$$
3P3S_3M2_A_128


 21 22  0  0  0  0  0  0  0  0999 V2000
   -0.4431   -1.9687   -7.6624 C   0  0  0  0  0  0  0  0  0  0  0  0
   -0.3261   -3.1750  -10.2542 N   0  0  0  0  0  0  0  0  0  0  0  0
    0.4131    1.4084  -10.8776 O   0  0  0  0  0  0  0  0  0  0  0  0
    0.0180    0.9910   -8.1214 C   0  0  0  0  0  0  0  0  0  0  0  0
    0.1118   -0.8918  -11.0494 N   0  0  0  0  0  0  0  0  0  0  0  0
   -0.1357   -1.8430  -10.1209 C   0  0  0  0  0  0  0  0  0  0  0  0
    0.1902    0.2734  -10.3951 C   0  0  0  0  0  0  0  0  0  0  0  0
   -0.0056   -0.0019   -9.0477 C   0  0  0  0  0  0  0  0  0  0  0  0
   -0.1998   -1.2792   -8.9315 N   0  0  0  0  0  0  0  0  0  0  0  0
   -0.2774   -3.5926  -11.1444 H   0  0  0  0  0  0  0  0  0  0  0  0
   -0.5133   -3.7273   -9.4609 H   0  0  0  0  0  0  0  0  0  0  0  0
   -0.2193    0.1441   -2.6601 O   0  0  0  0  0  0  0  0  0  0  0  0
   -2.4239    2.0020   -3.3087 Br  0  0  0  0  0  0  0  0  0  0  0  0
    2.0130   -1.3235   -4.2323 Br  0  0  0  0  0  0  0  0  0  0  0  0
   -1.1417    1.5290   -5.9263 C   0  0  0  0  0  0  0  0  0  0  0  0
    0.7277    0.0864   -6.1566 C   0  0  0  0  0  0  0  0  0  0  0  0
   -0.2339    0.4157   -3.9875 C   0  0  0  0  0  0  0  0  0  0  0  0
   -0.1642    0.9287   -6.7445 C   0  0  0  0  0  0  0  0  0  0  0  0
   -1.1588    1.2692   -4.5359 C   0  0  0  0  0  0  0  0  0  0  0  0
    0.6887   -0.1481   -4.8192 C   0  0  0  0  0  0  0  0  0  0  0  0
   -0.8563    0.5351   -2.0949 H   0  0  0  0  0  0  0  0  0  0  0  0
  1  9  1  0  0  0
  2  6  1  0  0  0
  7  3  2  0  0  0
 12 17  1  0  0  0
 13 19  1  0  0  0
 20 14  1  0  0  0
 18  4  1  0  0  0
  4  8  2  0  0  0
 19 15  2  0  0  0
 15 18  1  0  0  0
 20 16  1  0  0  0
 16 18  2  0  0  0
  6  5  2  0  0  0
  7  5  1  0  0  0
 17 19  1  0  0  0
 17 20  2  0  0  0
  9  6  1  0  0  0
  8  7  1  0  0  0
  9  8  1  0  0  0
  2 10  1  0  0  0
  2 11  1  0  0  0
 12 21  1  0  0  0
M  END
> <minimizedAffinity>
-6.83481

$$$$
3P3S_3M2_A_128


 21 22  0  0  0  0  0  0  0  0999 V2000
    1.5840   -1.5181   -6.3408 C   0  0  0  0  0  0  0  0  0  0  0  0
    2.5768   -2.4300   -3.8171 N   0  0  0  0  0  0  0  0  0  0  0  0
   -0.8357    0.6399   -2.8819 O   0  0  0  0  0  0  0  0  0  0  0  0
   -0.6004    0.4765   -5.6828 C   0  0  0  0  0  0  0  0  0  0  0  0
    0.8823   -0.9285   -2.8624 N   0  0  0  0  0  0  0  0  0  0  0  0
    1.5658   -1.5330   -3.8601 C   0  0  0  0  0  0  0  0  0  0  0  0
    0.0002   -0.1062   -3.4436 C   0  0  0  0  0  0  0  0  0  0  0  0
    0.1626   -0.2391   -4.8167 C   0  0  0  0  0  0  0  0  0  0  0  0
    1.1116   -1.1001   -5.0189 N   0  0  0  0  0  0  0  0  0  0  0  0
    2.9134   -2.7510   -2.9495 H   0  0  0  0  0  0  0  0  0  0  0  0
    2.9762   -2.7619   -4.6535 H   0  0  0  0  0  0  0  0  0  0  0  0
   -0.3604   -0.1874  -11.1691 O   0  0  0  0  0  0  0  0  0  0  0  0
   -0.4643    2.7266  -10.6893 Br  0  0  0  0  0  0  0  0  0  0  0  0
   -0.3498   -2.7491   -9.4237 Br  0  0  0  0  0  0  0  0  0  0  0  0
   -0.5724    1.5856   -7.9679 C   0  0  0  0  0  0  0  0  0  0  0  0
   -0.5079   -0.7564   -7.5942 C   0  0  0  0  0  0  0  0  0  0  0  0
   -0.4282    0.0710   -9.8408 C   0  0  0  0  0  0  0  0  0  0  0  0
   -0.5879    0.4975   -7.0728 C   0  0  0  0  0  0  0  0  0  0  0  0
   -0.5018    1.3555   -9.3618 C   0  0  0  0  0  0  0  0  0  0  0  0
   -0.4388   -0.9505   -8.9369 C   0  0  0  0  0  0  0  0  0  0  0  0
   -0.3535    0.5195  -11.7842 H   0  0  0  0  0  0  0  0  0  0  0  0
  1  9  1  0  0  0
  2  6  1  0  0  0
  7  3  2  0  0  0
 12 17  1  0  0  0
 13 19  1  0  0  0
 20 14  1  0  0  0
 18  4  1  0  0  0
  4  8  2  0  0  0
 19 15  2  0  0  0
 15 18  1  0  0  0
 20 16  1  0  0  0
 16 18  2  0  0  0
  6  5  2  0  0  0
  7  5  1  0  0  0
 17 19  1  0  0  0
 17 20  2  0  0  0
  9  6  1  0  0  0
  8  7  1  0  0  0
  9  8  1  0  0  0
  2 10  1  0  0  0
  2 11  1  0  0  0
 12 21  1  0  0  0
M  END
> <minimizedAffinity>
-5.44795

$$$$
3P3S_3M2_A_128


 21 22  0  0  0  0  0  0  0  0999 V2000
   -1.5238    1.3532   -6.2079 C   0  0  0  0  0  0  0  0  0  0  0  0
   -2.3624    2.1824   -3.6011 N   0  0  0  0  0  0  0  0  0  0  0  0
    1.1475   -0.8556   -2.9735 O   0  0  0  0  0  0  0  0  0  0  0  0
    0.7274   -0.6226   -5.7478 C   0  0  0  0  0  0  0  0  0  0  0  0
   -0.5878    0.6839   -2.7997 N   0  0  0  0  0  0  0  0  0  0  0  0
   -1.3437    1.3033   -3.7341 C   0  0  0  0  0  0  0  0  0  0  0  0
    0.2661   -0.1086   -3.4592 C   0  0  0  0  0  0  0  0  0  0  0  0
    0.0123    0.0576   -4.8147 C   0  0  0  0  0  0  0  0  0  0  0  0
   -0.9600    0.9083   -4.9313 N   0  0  0  0  0  0  0  0  0  0  0  0
   -2.6462    2.4752   -2.7050 H   0  0  0  0  0  0  0  0  0  0  0  0
   -2.8204    2.5297   -4.4004 H   0  0  0  0  0  0  0  0  0  0  0  0
    0.1719    0.1934  -11.1906 O   0  0  0  0  0  0  0  0  0  0  0  0
    0.1448   -2.7333  -10.7828 Br  0  0  0  0  0  0  0  0  0  0  0  0
    0.4157    2.7065   -9.3922 Br  0  0  0  0  0  0  0  0  0  0  0  0
    0.4909   -1.6698   -8.0500 C   0  0  0  0  0  0  0  0  0  0  0  0
    0.5804    0.6619   -7.6214 C   0  0  0  0  0  0  0  0  0  0  0  0
    0.3107   -0.1022   -9.8756 C   0  0  0  0  0  0  0  0  0  0  0  0
    0.6242   -0.6073   -7.1341 C   0  0  0  0  0  0  0  0  0  0  0  0
    0.3436   -1.4006   -9.4309 C   0  0  0  0  0  0  0  0  0  0  0  0
    0.4360    0.8938   -8.9520 C   0  0  0  0  0  0  0  0  0  0  0  0
    0.0863   -0.4961  -11.8193 H   0  0  0  0  0  0  0  0  0  0  0  0
  1  9  1  0  0  0
  2  6  1  0  0  0
  7  3  2  0  0  0
 12 17  1  0  0  0
 13 19  1  0  0  0
 20 14  1  0  0  0
 18  4  1  0  0  0
  4  8  2  0  0  0
 19 15  2  0  0  0
 15 18  1  0  0  0
 20 16  1  0  0  0
 16 18  2  0  0  0
  6  5  2  0  0  0
  7  5  1  0  0  0
 17 19  1  0  0  0
 17 20  2  0  0  0
  9  6  1  0  0  0
  8  7  1  0  0  0
  9  8  1  0  0  0
  2 10  1  0  0  0
  2 11  1  0  0  0
 12 21  1  0  0  0
M  END
> <minimizedAffinity>
-5.43911

$$$$
3P3S_3M2_A_128


 21 22  0  0  0  0  0  0  0  0999 V2000
    0.6579   -1.1171   -9.3808 C   0  0  0  0  0  0  0  0  0  0  0  0
    0.4650   -0.1855  -12.0792 N   0  0  0  0  0  0  0  0  0  0  0  0
   -0.9748    3.3336   -9.3431 O   0  0  0  0  0  0  0  0  0  0  0  0
   -0.3029    1.1819   -7.6561 C   0  0  0  0  0  0  0  0  0  0  0  0
   -0.3401    1.9018  -11.0631 N   0  0  0  0  0  0  0  0  0  0  0  0
    0.1213    0.6309  -11.0575 C   0  0  0  0  0  0  0  0  0  0  0  0
   -0.5525    2.2395   -9.7853 C   0  0  0  0  0  0  0  0  0  0  0  0
   -0.1971    1.1435   -9.0096 C   0  0  0  0  0  0  0  0  0  0  0  0
    0.1968    0.2043   -9.8130 N   0  0  0  0  0  0  0  0  0  0  0  0
    0.4073    0.1369  -13.0076 H   0  0  0  0  0  0  0  0  0  0  0  0
    0.7729   -1.1022  -11.8946 H   0  0  0  0  0  0  0  0  0  0  0  0
    0.1312   -2.9762   -4.0339 O   0  0  0  0  0  0  0  0  0  0  0  0
    2.4242   -1.1845   -3.5197 Br  0  0  0  0  0  0  0  0  0  0  0  0
   -2.2738   -3.0368   -5.9888 Br  0  0  0  0  0  0  0  0  0  0  0  0
    1.0268    0.1279   -5.7657 C   0  0  0  0  0  0  0  0  0  0  0  0
   -0.9577   -0.7770   -6.6992 C   0  0  0  0  0  0  0  0  0  0  0  0
    0.1097   -1.9239   -4.8871 C   0  0  0  0  0  0  0  0  0  0  0  0
   -0.0143    0.2028   -6.7122 C   0  0  0  0  0  0  0  0  0  0  0  0
    1.0825   -0.9556   -4.8580 C   0  0  0  0  0  0  0  0  0  0  0  0
   -0.8827   -1.8060   -5.8156 C   0  0  0  0  0  0  0  0  0  0  0  0
    0.8160   -3.0504   -3.3987 H   0  0  0  0  0  0  0  0  0  0  0  0
  1  9  1  0  0  0
  2  6  1  0  0  0
  7  3  2  0  0  0
 12 17  1  0  0  0
 13 19  1  0  0  0
 20 14  1  0  0  0
 18  4  1  0  0  0
  4  8  2  0  0  0
 19 15  2  0  0  0
 15 18  1  0  0  0
 20 16  1  0  0  0
 16 18  2  0  0  0
  6  5  2  0  0  0
  7  5  1  0  0  0
 17 19  1  0  0  0
 17 20  2  0  0  0
  9  6  1  0  0  0
  8  7  1  0  0  0
  9  8  1  0  0  0
  2 10  1  0  0  0
  2 11  1  0  0  0
 12 21  1  0  0  0
M  END
> <minimizedAffinity>
-4.86163

$$$$
3P3S_3M2_A_128


 21 22  0  0  0  0  0  0  0  0999 V2000
   -0.6055    1.1380   -9.3864 C   0  0  0  0  0  0  0  0  0  0  0  0
   -0.3927    0.2043  -12.0825 N   0  0  0  0  0  0  0  0  0  0  0  0
    0.9788   -3.3300   -9.3309 O   0  0  0  0  0  0  0  0  0  0  0  0
    0.3114   -1.1711   -7.6513 C   0  0  0  0  0  0  0  0  0  0  0  0
    0.3786   -1.8915  -11.0577 N   0  0  0  0  0  0  0  0  0  0  0  0
   -0.0692   -0.6157  -11.0572 C   0  0  0  0  0  0  0  0  0  0  0  0
    0.5732   -2.2314   -9.7777 C   0  0  0  0  0  0  0  0  0  0  0  0
    0.2210   -1.1316   -9.0058 C   0  0  0  0  0  0  0  0  0  0  0  0
   -0.1538   -0.1882   -9.8135 N   0  0  0  0  0  0  0  0  0  0  0  0
   -0.3282   -0.1187  -13.0103 H   0  0  0  0  0  0  0  0  0  0  0  0
   -0.6928    1.1243  -11.9012 H   0  0  0  0  0  0  0  0  0  0  0  0
   -0.1213    2.9973   -4.0408 O   0  0  0  0  0  0  0  0  0  0  0  0
   -2.4195    1.2121   -3.5271 Br  0  0  0  0  0  0  0  0  0  0  0  0
    2.2881    3.0475   -5.9906 Br  0  0  0  0  0  0  0  0  0  0  0  0
   -1.0201   -0.1092   -5.7665 C   0  0  0  0  0  0  0  0  0  0  0  0
    0.9685    0.7889   -6.6980 C   0  0  0  0  0  0  0  0  0  0  0  0
   -0.1003    1.9428   -4.8913 C   0  0  0  0  0  0  0  0  0  0  0  0
    0.0229   -0.1889   -6.7106 C   0  0  0  0  0  0  0  0  0  0  0  0
   -1.0754    0.9768   -4.8618 C   0  0  0  0  0  0  0  0  0  0  0  0
    0.8938    1.8203   -5.8173 C   0  0  0  0  0  0  0  0  0  0  0  0
   -0.8074    3.0748   -3.4074 H   0  0  0  0  0  0  0  0  0  0  0  0
  1  9  1  0  0  0
  2  6  1  0  0  0
  7  3  2  0  0  0
 12 17  1  0  0  0
 13 19  1  0  0  0
 20 14  1  0  0  0
 18  4  1  0  0  0
  4  8  2  0  0  0
 19 15  2  0  0  0
 15 18  1  0  0  0
 20 16  1  0  0  0
 16 18  2  0  0  0
  6  5  2  0  0  0
  7  5  1  0  0  0
 17 19  1  0  0  0
 17 20  2  0  0  0
  9  6  1  0  0  0
  8  7  1  0  0  0
  9  8  1  0  0  0
  2 10  1  0  0  0
  2 11  1  0  0  0
 12 21  1  0  0  0
M  END
> <minimizedAffinity>
-4.84893

$$$$
