1G54_FFB_A_555


 28 29  0  0  0  0  0  0  0  0999 V2000
   -5.3637    5.8975   12.2816 C   0  0  0  0  0  0  0  0  0  0  0  0
   -4.6002    6.5296   12.9984 O   0  0  0  0  0  0  0  0  0  0  0  0
   -5.5139    4.4907   12.5622 N   0  0  0  0  0  0  0  0  0  0  0  0
   -6.1016    3.8969   12.0415 H   0  0  0  0  0  0  0  0  0  0  0  0
   -6.2779    6.3237    9.9131 C   0  0  0  0  0  0  0  0  0  0  0  0
   -6.8749    7.1633    8.9512 C   0  0  0  0  0  0  0  0  0  0  0  0
   -7.2195    8.5060    9.2804 C   0  0  0  0  0  0  0  0  0  0  0  0
   -6.9399    8.9129   10.5779 C   0  0  0  0  0  0  0  0  0  0  0  0
   -6.3539    8.0562   11.5074 C   0  0  0  0  0  0  0  0  0  0  0  0
   -6.0111    6.7632   11.2048 C   0  0  0  0  0  0  0  0  0  0  0  0
   -7.9784    9.5757    8.0127 S   0  0  0  0  0  0  0  0  0  0  0  0
   -7.8279   11.1553    8.4891 N   0  0  0  0  0  0  0  0  0  0  0  0
   -9.3251    9.0369    7.9512 O   0  0  0  0  0  0  0  0  0  0  0  0
   -7.2519    9.2825    6.7806 O   0  0  0  0  0  0  0  0  0  0  0  0
   -8.3533   11.3021    9.3510 H   0  0  0  0  0  0  0  0  0  0  0  0
   -8.1941   11.7668    7.7594 H   0  0  0  0  0  0  0  0  0  0  0  0
   -4.6922    4.0202   13.7189 C   0  0  0  0  0  0  0  0  0  0  0  0
   -5.2244    3.4681   14.9170 C   0  0  0  0  0  0  0  0  0  0  0  0
   -5.0020    2.0827   15.2405 C   0  0  0  0  0  0  0  0  0  0  0  0
   -5.5497    1.5659   16.4689 C   0  0  0  0  0  0  0  0  0  0  0  0
   -6.2919    2.4105   17.3301 C   0  0  0  0  0  0  0  0  0  0  0  0
   -6.5066    3.7758   16.9981 C   0  0  0  0  0  0  0  0  0  0  0  0
   -5.9805    4.3093   15.8055 C   0  0  0  0  0  0  0  0  0  0  0  0
   -4.2987    1.2843   14.4264 F   0  0  0  0  0  0  0  0  0  0  0  0
   -5.3564    0.2823   16.7974 F   0  0  0  0  0  0  0  0  0  0  0  0
   -6.7993    1.9255   18.4704 F   0  0  0  0  0  0  0  0  0  0  0  0
   -7.2099    4.5742   17.8122 F   0  0  0  0  0  0  0  0  0  0  0  0
   -6.2058    5.6021   15.5326 F   0  0  0  0  0  0  0  0  0  0  0  0
  5  6  2  0  0  0
  5 10  1  0  0  0
  6  7  1  0  0  0
  7  8  2  0  0  0
  7 11  1  0  0  0
  8  9  1  0  0  0
  9 10  2  0  0  0
 10  1  1  0  0  0
  1  2  2  0  0  0
  1  3  1  0  0  0
  3 17  1  0  0  0
 17 18  1  0  0  0
 11 12  1  0  0  0
 11 13  2  0  0  0
 11 14  2  0  0  0
 18 19  2  0  0  0
 18 23  1  0  0  0
 19 20  1  0  0  0
 19 24  1  0  0  0
 20 21  2  0  0  0
 20 25  1  0  0  0
 21 22  1  0  0  0
 21 26  1  0  0  0
 22 23  2  0  0  0
 22 27  1  0  0  0
 23 28  1  0  0  0
  3  4  1  0  0  0
 12 15  1  0  0  0
 12 16  1  0  0  0
M  END
> <minimizedAffinity>
-8.23691

$$$$
1G54_FFB_A_555


 28 29  0  0  0  0  0  0  0  0999 V2000
   -3.6422    6.1465   14.5929 C   0  0  0  0  0  0  0  0  0  0  0  0
   -3.4706    5.3994   13.6397 O   0  0  0  0  0  0  0  0  0  0  0  0
   -4.7695    5.8698   15.4490 N   0  0  0  0  0  0  0  0  0  0  0  0
   -4.9932    6.4136   16.2386 H   0  0  0  0  0  0  0  0  0  0  0  0
   -2.5239    8.1850   15.6979 C   0  0  0  0  0  0  0  0  0  0  0  0
   -1.5365    9.1905   15.7233 C   0  0  0  0  0  0  0  0  0  0  0  0
   -0.5729    9.2814   14.6777 C   0  0  0  0  0  0  0  0  0  0  0  0
   -0.6694    8.3341   13.6675 C   0  0  0  0  0  0  0  0  0  0  0  0
   -1.6545    7.3488   13.6746 C   0  0  0  0  0  0  0  0  0  0  0  0
   -2.5925    7.2511   14.6703 C   0  0  0  0  0  0  0  0  0  0  0  0
    0.6857   10.6007   14.7278 S   0  0  0  0  0  0  0  0  0  0  0  0
    0.2971   11.7507   13.6001 N   0  0  0  0  0  0  0  0  0  0  0  0
    1.9035    9.8447   14.4976 O   0  0  0  0  0  0  0  0  0  0  0  0
    0.6498   11.1114   16.0952 O   0  0  0  0  0  0  0  0  0  0  0  0
    0.3382   11.3399   12.6674 H   0  0  0  0  0  0  0  0  0  0  0  0
    0.9597   12.5238   13.6607 H   0  0  0  0  0  0  0  0  0  0  0  0
   -5.5661    4.6787   15.0232 C   0  0  0  0  0  0  0  0  0  0  0  0
   -5.6133    3.4439   15.7279 C   0  0  0  0  0  0  0  0  0  0  0  0
   -5.0017    2.2652   15.1710 C   0  0  0  0  0  0  0  0  0  0  0  0
   -5.0632    1.0372   15.9221 C   0  0  0  0  0  0  0  0  0  0  0  0
   -5.7165    1.0011   17.1782 C   0  0  0  0  0  0  0  0  0  0  0  0
   -6.3185    2.1711   17.7159 C   0  0  0  0  0  0  0  0  0  0  0  0
   -6.2714    3.3863   17.0055 C   0  0  0  0  0  0  0  0  0  0  0  0
   -4.3826    2.2999   13.9834 F   0  0  0  0  0  0  0  0  0  0  0  0
   -4.5007   -0.0742   15.4307 F   0  0  0  0  0  0  0  0  0  0  0  0
   -5.7714   -0.1426   17.8723 F   0  0  0  0  0  0  0  0  0  0  0  0
   -6.9377    2.1365   18.9034 F   0  0  0  0  0  0  0  0  0  0  0  0
   -6.8508    4.4652   17.5503 F   0  0  0  0  0  0  0  0  0  0  0  0
  5  6  2  0  0  0
  5 10  1  0  0  0
  6  7  1  0  0  0
  7  8  2  0  0  0
  7 11  1  0  0  0
  8  9  1  0  0  0
  9 10  2  0  0  0
 10  1  1  0  0  0
  1  2  2  0  0  0
  1  3  1  0  0  0
  3 17  1  0  0  0
 17 18  1  0  0  0
 11 12  1  0  0  0
 11 13  2  0  0  0
 11 14  2  0  0  0
 18 19  2  0  0  0
 18 23  1  0  0  0
 19 20  1  0  0  0
 19 24  1  0  0  0
 20 21  2  0  0  0
 20 25  1  0  0  0
 21 22  1  0  0  0
 21 26  1  0  0  0
 22 23  2  0  0  0
 22 27  1  0  0  0
 23 28  1  0  0  0
  3  4  1  0  0  0
 12 15  1  0  0  0
 12 16  1  0  0  0
M  END
> <minimizedAffinity>
-8.23184

$$$$
1G54_FFB_A_555


 28 29  0  0  0  0  0  0  0  0999 V2000
   -5.3793    5.9694   12.2345 C   0  0  0  0  0  0  0  0  0  0  0  0
   -4.6187    6.6035   12.9526 O   0  0  0  0  0  0  0  0  0  0  0  0
   -5.5272    4.5624   12.5155 N   0  0  0  0  0  0  0  0  0  0  0  0
   -6.1126    3.9671   11.9939 H   0  0  0  0  0  0  0  0  0  0  0  0
   -6.2559    6.4045    9.8535 C   0  0  0  0  0  0  0  0  0  0  0  0
   -6.8541    7.2419    8.8904 C   0  0  0  0  0  0  0  0  0  0  0  0
   -7.2386    8.5712    9.2297 C   0  0  0  0  0  0  0  0  0  0  0  0
   -6.9955    8.9675   10.5377 C   0  0  0  0  0  0  0  0  0  0  0  0
   -6.4072    8.1131   11.4680 C   0  0  0  0  0  0  0  0  0  0  0  0
   -6.0263    6.8331   11.1559 C   0  0  0  0  0  0  0  0  0  0  0  0
   -7.9982    9.6386    7.9605 S   0  0  0  0  0  0  0  0  0  0  0  0
   -9.6102    9.2719    7.8513 N   0  0  0  0  0  0  0  0  0  0  0  0
   -7.1786    9.3344    6.8015 O   0  0  0  0  0  0  0  0  0  0  0  0
   -7.7563   11.0048    8.4155 O   0  0  0  0  0  0  0  0  0  0  0  0
   -9.7190    8.3098    7.5304 H   0  0  0  0  0  0  0  0  0  0  0  0
  -10.0586    9.9042    7.1884 H   0  0  0  0  0  0  0  0  0  0  0  0
   -4.7070    4.0943   13.6742 C   0  0  0  0  0  0  0  0  0  0  0  0
   -5.2415    3.5642   14.8812 C   0  0  0  0  0  0  0  0  0  0  0  0
   -5.9995    4.4048   15.7715 C   0  0  0  0  0  0  0  0  0  0  0  0
   -6.5322    3.8257   16.9785 C   0  0  0  0  0  0  0  0  0  0  0  0
   -6.3060    2.4593   17.2744 C   0  0  0  0  0  0  0  0  0  0  0  0
   -5.5539    1.6407   16.3886 C   0  0  0  0  0  0  0  0  0  0  0  0
   -5.0237    2.1787   15.1999 C   0  0  0  0  0  0  0  0  0  0  0  0
   -6.2145    5.6970   15.4907 F   0  0  0  0  0  0  0  0  0  0  0  0
   -7.2436    4.5823   17.8238 F   0  0  0  0  0  0  0  0  0  0  0  0
   -6.8027    1.9257   18.3976 F   0  0  0  0  0  0  0  0  0  0  0  0
   -5.3389    0.3485   16.6693 F   0  0  0  0  0  0  0  0  0  0  0  0
   -4.3220    1.3707   14.3928 F   0  0  0  0  0  0  0  0  0  0  0  0
  5  6  2  0  0  0
  5 10  1  0  0  0
  6  7  1  0  0  0
  7  8  2  0  0  0
  7 11  1  0  0  0
  8  9  1  0  0  0
  9 10  2  0  0  0
 10  1  1  0  0  0
  1  2  2  0  0  0
  1  3  1  0  0  0
  3 17  1  0  0  0
 17 18  1  0  0  0
 11 12  1  0  0  0
 11 13  2  0  0  0
 11 14  2  0  0  0
 18 19  2  0  0  0
 18 23  1  0  0  0
 19 20  1  0  0  0
 19 24  1  0  0  0
 20 21  2  0  0  0
 20 25  1  0  0  0
 21 22  1  0  0  0
 21 26  1  0  0  0
 22 23  2  0  0  0
 22 27  1  0  0  0
 23 28  1  0  0  0
  3  4  1  0  0  0
 12 15  1  0  0  0
 12 16  1  0  0  0
M  END
> <minimizedAffinity>
-8.22863

$$$$
1G54_FFB_A_555


 28 29  0  0  0  0  0  0  0  0999 V2000
   -3.5274    6.0983   14.5421 C   0  0  0  0  0  0  0  0  0  0  0  0
   -3.2884    5.3218   13.6278 O   0  0  0  0  0  0  0  0  0  0  0  0
   -4.6980    5.8309   15.3412 N   0  0  0  0  0  0  0  0  0  0  0  0
   -4.9761    6.3977   16.0966 H   0  0  0  0  0  0  0  0  0  0  0  0
   -2.4629    8.1488   15.6777 C   0  0  0  0  0  0  0  0  0  0  0  0
   -1.4975    9.1748   15.7221 C   0  0  0  0  0  0  0  0  0  0  0  0
   -0.5268    9.2969   14.6863 C   0  0  0  0  0  0  0  0  0  0  0  0
   -0.5940    8.3582   13.6658 C   0  0  0  0  0  0  0  0  0  0  0  0
   -1.5579    7.3521   13.6541 C   0  0  0  0  0  0  0  0  0  0  0  0
   -2.5024    7.2242   14.6402 C   0  0  0  0  0  0  0  0  0  0  0  0
    0.7028   10.6421   14.7611 S   0  0  0  0  0  0  0  0  0  0  0  0
    0.3351   11.7651   13.5998 N   0  0  0  0  0  0  0  0  0  0  0  0
    1.9431    9.9073   14.5904 O   0  0  0  0  0  0  0  0  0  0  0  0
    0.6046   11.1747   16.1171 O   0  0  0  0  0  0  0  0  0  0  0  0
    0.4199   11.3398   12.6766 H   0  0  0  0  0  0  0  0  0  0  0  0
    0.9795   12.5524   13.6719 H   0  0  0  0  0  0  0  0  0  0  0  0
   -5.4487    4.6112   14.9132 C   0  0  0  0  0  0  0  0  0  0  0  0
   -5.5441    3.4125   15.6733 C   0  0  0  0  0  0  0  0  0  0  0  0
   -6.2492    3.4020   16.9288 C   0  0  0  0  0  0  0  0  0  0  0  0
   -6.3312    2.1645   17.6622 C   0  0  0  0  0  0  0  0  0  0  0  0
   -5.7247    0.9910   17.1514 C   0  0  0  0  0  0  0  0  0  0  0  0
   -5.0292    1.0152   15.9120 C   0  0  0  0  0  0  0  0  0  0  0  0
   -4.9355    2.2096   15.1718 C   0  0  0  0  0  0  0  0  0  0  0  0
   -6.8241    4.5118   17.4111 F   0  0  0  0  0  0  0  0  0  0  0  0
   -6.9831    2.1238   18.8311 F   0  0  0  0  0  0  0  0  0  0  0  0
   -5.8031   -0.1566   17.8369 F   0  0  0  0  0  0  0  0  0  0  0  0
   -4.4543   -0.0947   15.4297 F   0  0  0  0  0  0  0  0  0  0  0  0
   -4.2717    2.1869   14.0077 F   0  0  0  0  0  0  0  0  0  0  0  0
  5  6  2  0  0  0
  5 10  1  0  0  0
  6  7  1  0  0  0
  7  8  2  0  0  0
  7 11  1  0  0  0
  8  9  1  0  0  0
  9 10  2  0  0  0
 10  1  1  0  0  0
  1  2  2  0  0  0
  1  3  1  0  0  0
  3 17  1  0  0  0
 17 18  1  0  0  0
 11 12  1  0  0  0
 11 13  2  0  0  0
 11 14  2  0  0  0
 18 19  2  0  0  0
 18 23  1  0  0  0
 19 20  1  0  0  0
 19 24  1  0  0  0
 20 21  2  0  0  0
 20 25  1  0  0  0
 21 22  1  0  0  0
 21 26  1  0  0  0
 22 23  2  0  0  0
 22 27  1  0  0  0
 23 28  1  0  0  0
  3  4  1  0  0  0
 12 15  1  0  0  0
 12 16  1  0  0  0
M  END
> <minimizedAffinity>
-8.16633

$$$$
1G54_FFB_A_555


 28 29  0  0  0  0  0  0  0  0999 V2000
   -5.2120    5.6149   13.1605 C   0  0  0  0  0  0  0  0  0  0  0  0
   -4.3130    5.3176   12.3862 O   0  0  0  0  0  0  0  0  0  0  0  0
   -5.9072    6.8544   12.9142 N   0  0  0  0  0  0  0  0  0  0  0  0
   -6.6424    7.1821   13.4811 H   0  0  0  0  0  0  0  0  0  0  0  0
   -4.9401    3.2692   14.1854 C   0  0  0  0  0  0  0  0  0  0  0  0
   -5.1489    2.3441   15.2282 C   0  0  0  0  0  0  0  0  0  0  0  0
   -5.8604    2.7283   16.4013 C   0  0  0  0  0  0  0  0  0  0  0  0
   -6.3129    4.0400   16.4449 C   0  0  0  0  0  0  0  0  0  0  0  0
   -6.0850    4.9320   15.3991 C   0  0  0  0  0  0  0  0  0  0  0  0
   -5.4072    4.5764   14.2611 C   0  0  0  0  0  0  0  0  0  0  0  0
   -6.1287    1.5076   17.7299 S   0  0  0  0  0  0  0  0  0  0  0  0
   -6.1883    2.3044   19.1813 N   0  0  0  0  0  0  0  0  0  0  0  0
   -5.0082    0.6079   17.5236 O   0  0  0  0  0  0  0  0  0  0  0  0
   -7.3862    0.8465   17.3931 O   0  0  0  0  0  0  0  0  0  0  0  0
   -5.2869    2.7454   19.3643 H   0  0  0  0  0  0  0  0  0  0  0  0
   -6.3990    1.6397   19.9257 H   0  0  0  0  0  0  0  0  0  0  0  0
   -5.4052    7.5941   11.7161 C   0  0  0  0  0  0  0  0  0  0  0  0
   -6.1995    7.9381   10.5872 C   0  0  0  0  0  0  0  0  0  0  0  0
   -6.7303    6.9092    9.7310 C   0  0  0  0  0  0  0  0  0  0  0  0
   -7.5387    7.3001    8.6042 C   0  0  0  0  0  0  0  0  0  0  0  0
   -7.7962    8.6698    8.3519 C   0  0  0  0  0  0  0  0  0  0  0  0
   -7.2642    9.6761    9.2032 C   0  0  0  0  0  0  0  0  0  0  0  0
   -6.4733    9.3234   10.3139 C   0  0  0  0  0  0  0  0  0  0  0  0
   -6.4878    5.6136    9.9706 F   0  0  0  0  0  0  0  0  0  0  0  0
   -8.0482    6.3651    7.7923 F   0  0  0  0  0  0  0  0  0  0  0  0
   -8.5476    9.0282    7.3031 F   0  0  0  0  0  0  0  0  0  0  0  0
   -7.5068   10.9717    8.9636 F   0  0  0  0  0  0  0  0  0  0  0  0
   -5.9933   10.3044   11.0909 F   0  0  0  0  0  0  0  0  0  0  0  0
  5  6  2  0  0  0
  5 10  1  0  0  0
  6  7  1  0  0  0
  7  8  2  0  0  0
  7 11  1  0  0  0
  8  9  1  0  0  0
  9 10  2  0  0  0
 10  1  1  0  0  0
  1  2  2  0  0  0
  1  3  1  0  0  0
  3 17  1  0  0  0
 17 18  1  0  0  0
 11 12  1  0  0  0
 11 13  2  0  0  0
 11 14  2  0  0  0
 18 19  2  0  0  0
 18 23  1  0  0  0
 19 20  1  0  0  0
 19 24  1  0  0  0
 20 21  2  0  0  0
 20 25  1  0  0  0
 21 22  1  0  0  0
 21 26  1  0  0  0
 22 23  2  0  0  0
 22 27  1  0  0  0
 23 28  1  0  0  0
  3  4  1  0  0  0
 12 15  1  0  0  0
 12 16  1  0  0  0
M  END
> <minimizedAffinity>
-7.87061

$$$$
1G54_FFB_A_555


 28 29  0  0  0  0  0  0  0  0999 V2000
   -5.2546    5.6011   13.0863 C   0  0  0  0  0  0  0  0  0  0  0  0
   -4.3355    5.3255   12.3277 O   0  0  0  0  0  0  0  0  0  0  0  0
   -5.9383    6.8512   12.8622 N   0  0  0  0  0  0  0  0  0  0  0  0
   -6.6877    7.1632   13.4191 H   0  0  0  0  0  0  0  0  0  0  0  0
   -5.0378    3.2159   14.0302 C   0  0  0  0  0  0  0  0  0  0  0  0
   -5.2782    2.2580   15.0358 C   0  0  0  0  0  0  0  0  0  0  0  0
   -6.0014    2.6123   16.2112 C   0  0  0  0  0  0  0  0  0  0  0  0
   -6.4327    3.9292   16.2951 C   0  0  0  0  0  0  0  0  0  0  0  0
   -6.1737    4.8538   15.2855 C   0  0  0  0  0  0  0  0  0  0  0  0
   -5.4842    4.5274   14.1458 C   0  0  0  0  0  0  0  0  0  0  0  0
   -6.3106    1.3498   17.4909 S   0  0  0  0  0  0  0  0  0  0  0  0
   -5.2918    0.0690   17.2327 N   0  0  0  0  0  0  0  0  0  0  0  0
   -7.7299    1.1023   17.3130 O   0  0  0  0  0  0  0  0  0  0  0  0
   -6.0629    2.0250   18.7616 O   0  0  0  0  0  0  0  0  0  0  0  0
   -5.5094   -0.3628   16.3346 H   0  0  0  0  0  0  0  0  0  0  0  0
   -5.4125   -0.6170   17.9778 H   0  0  0  0  0  0  0  0  0  0  0  0
   -5.4004    7.6280   11.7038 C   0  0  0  0  0  0  0  0  0  0  0  0
   -6.1691    8.0394   10.5798 C   0  0  0  0  0  0  0  0  0  0  0  0
   -6.3893    9.4390   10.3226 C   0  0  0  0  0  0  0  0  0  0  0  0
   -7.1649    9.8132    9.1674 C   0  0  0  0  0  0  0  0  0  0  0  0
   -7.6971    8.8175    8.3123 C   0  0  0  0  0  0  0  0  0  0  0  0
   -7.4747    7.4391    8.5787 C   0  0  0  0  0  0  0  0  0  0  0  0
   -6.7179    7.0438    9.6986 C   0  0  0  0  0  0  0  0  0  0  0  0
   -5.8845   10.3808   11.1308 F   0  0  0  0  0  0  0  0  0  0  0  0
   -7.3834   11.1073    8.9014 F   0  0  0  0  0  0  0  0  0  0  0  0
   -8.4177    9.1702    7.2403 F   0  0  0  0  0  0  0  0  0  0  0  0
   -7.9795    6.4973    7.7705 F   0  0  0  0  0  0  0  0  0  0  0  0
   -6.5317    5.7335    9.9110 F   0  0  0  0  0  0  0  0  0  0  0  0
  5  6  2  0  0  0
  5 10  1  0  0  0
  6  7  1  0  0  0
  7  8  2  0  0  0
  7 11  1  0  0  0
  8  9  1  0  0  0
  9 10  2  0  0  0
 10  1  1  0  0  0
  1  2  2  0  0  0
  1  3  1  0  0  0
  3 17  1  0  0  0
 17 18  1  0  0  0
 11 12  1  0  0  0
 11 13  2  0  0  0
 11 14  2  0  0  0
 18 19  2  0  0  0
 18 23  1  0  0  0
 19 20  1  0  0  0
 19 24  1  0  0  0
 20 21  2  0  0  0
 20 25  1  0  0  0
 21 22  1  0  0  0
 21 26  1  0  0  0
 22 23  2  0  0  0
 22 27  1  0  0  0
 23 28  1  0  0  0
  3  4  1  0  0  0
 12 15  1  0  0  0
 12 16  1  0  0  0
M  END
> <minimizedAffinity>
-7.81770

$$$$
1G54_FFB_A_555


 28 29  0  0  0  0  0  0  0  0999 V2000
   -5.3518    5.9614   12.3747 C   0  0  0  0  0  0  0  0  0  0  0  0
   -6.2477    5.2841   11.8902 O   0  0  0  0  0  0  0  0  0  0  0  0
   -4.5156    5.3310   13.3666 N   0  0  0  0  0  0  0  0  0  0  0  0
   -3.7711    5.7924   13.8162 H   0  0  0  0  0  0  0  0  0  0  0  0
   -4.1419    8.0833   11.5620 C   0  0  0  0  0  0  0  0  0  0  0  0
   -4.1586    9.3930   11.0413 C   0  0  0  0  0  0  0  0  0  0  0  0
   -5.3957   10.0400   10.7565 C   0  0  0  0  0  0  0  0  0  0  0  0
   -6.5468    9.3081   11.0142 C   0  0  0  0  0  0  0  0  0  0  0  0
   -6.4961    8.0124   11.5241 C   0  0  0  0  0  0  0  0  0  0  0  0
   -5.3141    7.3778   11.8089 C   0  0  0  0  0  0  0  0  0  0  0  0
   -5.3895   11.7403   10.0962 S   0  0  0  0  0  0  0  0  0  0  0  0
   -4.8530   11.7012    8.5291 N   0  0  0  0  0  0  0  0  0  0  0  0
   -4.5429   12.4196   11.0602 O   0  0  0  0  0  0  0  0  0  0  0  0
   -6.7704   12.2004   10.2122 O   0  0  0  0  0  0  0  0  0  0  0  0
   -3.8872   11.3738    8.5085 H   0  0  0  0  0  0  0  0  0  0  0  0
   -4.9030   12.6381    8.1291 H   0  0  0  0  0  0  0  0  0  0  0  0
   -4.8871    3.9105   13.6470 C   0  0  0  0  0  0  0  0  0  0  0  0
   -5.3276    3.4243   14.9092 C   0  0  0  0  0  0  0  0  0  0  0  0
   -5.0109    2.0815   15.3218 C   0  0  0  0  0  0  0  0  0  0  0  0
   -5.4674    1.6319   16.6124 C   0  0  0  0  0  0  0  0  0  0  0  0
   -6.2135    2.4993   17.4471 C   0  0  0  0  0  0  0  0  0  0  0  0
   -6.5217    3.8218   17.0271 C   0  0  0  0  0  0  0  0  0  0  0  0
   -6.0860    4.2896   15.7722 C   0  0  0  0  0  0  0  0  0  0  0  0
   -4.3040    1.2616   14.5326 F   0  0  0  0  0  0  0  0  0  0  0  0
   -5.1853    0.3893   17.0240 F   0  0  0  0  0  0  0  0  0  0  0  0
   -6.6359    2.0768   18.6455 F   0  0  0  0  0  0  0  0  0  0  0  0
   -7.2287    4.6417   17.8163 F   0  0  0  0  0  0  0  0  0  0  0  0
   -6.3978    5.5438   15.4169 F   0  0  0  0  0  0  0  0  0  0  0  0
  5  6  2  0  0  0
  5 10  1  0  0  0
  6  7  1  0  0  0
  7  8  2  0  0  0
  7 11  1  0  0  0
  8  9  1  0  0  0
  9 10  2  0  0  0
 10  1  1  0  0  0
  1  2  2  0  0  0
  1  3  1  0  0  0
  3 17  1  0  0  0
 17 18  1  0  0  0
 11 12  1  0  0  0
 11 13  2  0  0  0
 11 14  2  0  0  0
 18 19  2  0  0  0
 18 23  1  0  0  0
 19 20  1  0  0  0
 19 24  1  0  0  0
 20 21  2  0  0  0
 20 25  1  0  0  0
 21 22  1  0  0  0
 21 26  1  0  0  0
 22 23  2  0  0  0
 22 27  1  0  0  0
 23 28  1  0  0  0
  3  4  1  0  0  0
 12 15  1  0  0  0
 12 16  1  0  0  0
M  END
> <minimizedAffinity>
-7.69845

$$$$
1G54_FFB_A_555


 28 29  0  0  0  0  0  0  0  0999 V2000
   -2.8989    5.8899   14.3889 C   0  0  0  0  0  0  0  0  0  0  0  0
   -2.2733    4.9300   14.8173 O   0  0  0  0  0  0  0  0  0  0  0  0
   -4.2156    5.6319   13.8596 N   0  0  0  0  0  0  0  0  0  0  0  0
   -4.7955    6.3363   13.4899 H   0  0  0  0  0  0  0  0  0  0  0  0
   -2.2688    8.0949   15.5585 C   0  0  0  0  0  0  0  0  0  0  0  0
   -1.5301    9.2937   15.6210 C   0  0  0  0  0  0  0  0  0  0  0  0
   -0.6051    9.6254   14.5893 C   0  0  0  0  0  0  0  0  0  0  0  0
   -0.4826    8.7085   13.5542 C   0  0  0  0  0  0  0  0  0  0  0  0
   -1.2236    7.5290   13.5247 C   0  0  0  0  0  0  0  0  0  0  0  0
   -2.1220    7.1978   14.5067 C   0  0  0  0  0  0  0  0  0  0  0  0
    0.3279   11.1897   14.6877 S   0  0  0  0  0  0  0  0  0  0  0  0
    0.9997   11.3152   16.1970 N   0  0  0  0  0  0  0  0  0  0  0  0
   -0.6984   12.1581   14.3465 O   0  0  0  0  0  0  0  0  0  0  0  0
    1.3273   11.1060   13.6265 O   0  0  0  0  0  0  0  0  0  0  0  0
    0.2585   11.3701   16.8956 H   0  0  0  0  0  0  0  0  0  0  0  0
    1.5746   12.1564   16.2444 H   0  0  0  0  0  0  0  0  0  0  0  0
   -4.6157    4.1932   13.9259 C   0  0  0  0  0  0  0  0  0  0  0  0
   -5.1851    3.5644   15.0678 C   0  0  0  0  0  0  0  0  0  0  0  0
   -4.9768    2.1592   15.3035 C   0  0  0  0  0  0  0  0  0  0  0  0
   -5.5624    1.5637   16.4776 C   0  0  0  0  0  0  0  0  0  0  0  0
   -6.3273    2.3521   17.3715 C   0  0  0  0  0  0  0  0  0  0  0  0
   -6.5278    3.7378   17.1261 C   0  0  0  0  0  0  0  0  0  0  0  0
   -5.9648    4.3477   15.9883 C   0  0  0  0  0  0  0  0  0  0  0  0
   -4.2520    1.4139   14.4585 F   0  0  0  0  0  0  0  0  0  0  0  0
   -5.3830    0.2599   16.7243 F   0  0  0  0  0  0  0  0  0  0  0  0
   -6.8700    1.7941   18.4610 F   0  0  0  0  0  0  0  0  0  0  0  0
   -7.2526    4.4831   17.9711 F   0  0  0  0  0  0  0  0  0  0  0  0
   -6.1778    5.6570   15.7966 F   0  0  0  0  0  0  0  0  0  0  0  0
  5  6  2  0  0  0
  5 10  1  0  0  0
  6  7  1  0  0  0
  7  8  2  0  0  0
  7 11  1  0  0  0
  8  9  1  0  0  0
  9 10  2  0  0  0
 10  1  1  0  0  0
  1  2  2  0  0  0
  1  3  1  0  0  0
  3 17  1  0  0  0
 17 18  1  0  0  0
 11 12  1  0  0  0
 11 13  2  0  0  0
 11 14  2  0  0  0
 18 19  2  0  0  0
 18 23  1  0  0  0
 19 20  1  0  0  0
 19 24  1  0  0  0
 20 21  2  0  0  0
 20 25  1  0  0  0
 21 22  1  0  0  0
 21 26  1  0  0  0
 22 23  2  0  0  0
 22 27  1  0  0  0
 23 28  1  0  0  0
  3  4  1  0  0  0
 12 15  1  0  0  0
 12 16  1  0  0  0
M  END
> <minimizedAffinity>
-7.59127

$$$$
1G54_FFB_A_555


 28 29  0  0  0  0  0  0  0  0999 V2000
   -5.3213    5.9667   12.4011 C   0  0  0  0  0  0  0  0  0  0  0  0
   -6.1732    5.2134   11.9505 O   0  0  0  0  0  0  0  0  0  0  0  0
   -4.4193    5.4229   13.3865 N   0  0  0  0  0  0  0  0  0  0  0  0
   -3.7027    5.9487   13.8099 H   0  0  0  0  0  0  0  0  0  0  0  0
   -6.5962    8.0386   11.5591 C   0  0  0  0  0  0  0  0  0  0  0  0
   -6.6204    9.3339   11.0039 C   0  0  0  0  0  0  0  0  0  0  0  0
   -5.4049    9.9982   10.6703 C   0  0  0  0  0  0  0  0  0  0  0  0
   -4.2319    9.3025   10.9296 C   0  0  0  0  0  0  0  0  0  0  0  0
   -4.2419    8.0246   11.4848 C   0  0  0  0  0  0  0  0  0  0  0  0
   -5.4030    7.3693   11.8062 C   0  0  0  0  0  0  0  0  0  0  0  0
   -5.4648   11.6687    9.9402 S   0  0  0  0  0  0  0  0  0  0  0  0
   -4.0480   11.9459    9.1273 N   0  0  0  0  0  0  0  0  0  0  0  0
   -5.7160   12.4859   11.1135 O   0  0  0  0  0  0  0  0  0  0  0  0
   -6.6312   11.6602    9.0618 O   0  0  0  0  0  0  0  0  0  0  0  0
   -3.2706   11.9409    9.7876 H   0  0  0  0  0  0  0  0  0  0  0  0
   -4.0942   12.8530    8.6632 H   0  0  0  0  0  0  0  0  0  0  0  0
   -4.6759    3.9848   13.7036 C   0  0  0  0  0  0  0  0  0  0  0  0
   -5.2154    3.5118   14.9319 C   0  0  0  0  0  0  0  0  0  0  0  0
   -5.9963    4.3865   15.7678 C   0  0  0  0  0  0  0  0  0  0  0  0
   -6.5331    3.8645   16.9988 C   0  0  0  0  0  0  0  0  0  0  0  0
   -6.2888    2.5199   17.3702 C   0  0  0  0  0  0  0  0  0  0  0  0
   -5.5141    1.6672   16.5375 C   0  0  0  0  0  0  0  0  0  0  0  0
   -4.9793    2.1491   15.3270 C   0  0  0  0  0  0  0  0  0  0  0  0
   -6.2284    5.6581   15.4155 F   0  0  0  0  0  0  0  0  0  0  0  0
   -7.2656    4.6539   17.7947 F   0  0  0  0  0  0  0  0  0  0  0  0
   -6.7893    2.0395   18.5155 F   0  0  0  0  0  0  0  0  0  0  0  0
   -5.2819    0.3957   16.8898 F   0  0  0  0  0  0  0  0  0  0  0  0
   -4.2562    1.3104   14.5719 F   0  0  0  0  0  0  0  0  0  0  0  0
  5  6  2  0  0  0
  5 10  1  0  0  0
  6  7  1  0  0  0
  7  8  2  0  0  0
  7 11  1  0  0  0
  8  9  1  0  0  0
  9 10  2  0  0  0
 10  1  1  0  0  0
  1  2  2  0  0  0
  1  3  1  0  0  0
  3 17  1  0  0  0
 17 18  1  0  0  0
 11 12  1  0  0  0
 11 13  2  0  0  0
 11 14  2  0  0  0
 18 19  2  0  0  0
 18 23  1  0  0  0
 19 20  1  0  0  0
 19 24  1  0  0  0
 20 21  2  0  0  0
 20 25  1  0  0  0
 21 22  1  0  0  0
 21 26  1  0  0  0
 22 23  2  0  0  0
 22 27  1  0  0  0
 23 28  1  0  0  0
  3  4  1  0  0  0
 12 15  1  0  0  0
 12 16  1  0  0  0
M  END
> <minimizedAffinity>
-7.52000

$$$$
1G54_FFB_A_555


 28 29  0  0  0  0  0  0  0  0999 V2000
   -5.9291    6.1060   13.3075 C   0  0  0  0  0  0  0  0  0  0  0  0
   -7.0610    5.8103   13.6647 O   0  0  0  0  0  0  0  0  0  0  0  0
   -4.8662    5.9045   14.2615 N   0  0  0  0  0  0  0  0  0  0  0  0
   -3.9234    6.1141   14.0704 H   0  0  0  0  0  0  0  0  0  0  0  0
   -6.2856    7.9309   11.5271 C   0  0  0  0  0  0  0  0  0  0  0  0
   -6.2299    8.3846   10.1938 C   0  0  0  0  0  0  0  0  0  0  0  0
   -5.7614    7.5251    9.1586 C   0  0  0  0  0  0  0  0  0  0  0  0
   -5.3696    6.2510    9.5465 C   0  0  0  0  0  0  0  0  0  0  0  0
   -5.4316    5.8347   10.8747 C   0  0  0  0  0  0  0  0  0  0  0  0
   -5.8854    6.6476   11.8818 C   0  0  0  0  0  0  0  0  0  0  0  0
   -5.7124    8.1327    7.4394 S   0  0  0  0  0  0  0  0  0  0  0  0
   -7.0557    9.0629    7.1648 N   0  0  0  0  0  0  0  0  0  0  0  0
   -5.6162    6.8884    6.6978 O   0  0  0  0  0  0  0  0  0  0  0  0
   -4.4675    8.8888    7.3366 O   0  0  0  0  0  0  0  0  0  0  0  0
   -7.8922    8.4854    7.2492 H   0  0  0  0  0  0  0  0  0  0  0  0
   -7.0091    9.4586    6.2259 H   0  0  0  0  0  0  0  0  0  0  0  0
   -5.3324    5.3473   15.5678 C   0  0  0  0  0  0  0  0  0  0  0  0
   -5.4429    3.9598   15.8614 C   0  0  0  0  0  0  0  0  0  0  0  0
   -4.7068    2.9924   15.0895 C   0  0  0  0  0  0  0  0  0  0  0  0
   -4.8390    1.5978   15.4265 C   0  0  0  0  0  0  0  0  0  0  0  0
   -5.6802    1.1983   16.4935 C   0  0  0  0  0  0  0  0  0  0  0  0
   -6.4036    2.1629   17.2463 C   0  0  0  0  0  0  0  0  0  0  0  0
   -6.2915    3.5334   16.9417 C   0  0  0  0  0  0  0  0  0  0  0  0
   -3.9100    3.3707   14.0810 F   0  0  0  0  0  0  0  0  0  0  0  0
   -4.1641    0.6760   14.7280 F   0  0  0  0  0  0  0  0  0  0  0  0
   -5.8002   -0.0990   16.8026 F   0  0  0  0  0  0  0  0  0  0  0  0
   -7.2004    1.7847   18.2547 F   0  0  0  0  0  0  0  0  0  0  0  0
   -6.9902    4.4086   17.6781 F   0  0  0  0  0  0  0  0  0  0  0  0
  5  6  2  0  0  0
  5 10  1  0  0  0
  6  7  1  0  0  0
  7  8  2  0  0  0
  7 11  1  0  0  0
  8  9  1  0  0  0
  9 10  2  0  0  0
 10  1  1  0  0  0
  1  2  2  0  0  0
  1  3  1  0  0  0
  3 17  1  0  0  0
 17 18  1  0  0  0
 11 12  1  0  0  0
 11 13  2  0  0  0
 11 14  2  0  0  0
 18 19  2  0  0  0
 18 23  1  0  0  0
 19 20  1  0  0  0
 19 24  1  0  0  0
 20 21  2  0  0  0
 20 25  1  0  0  0
 21 22  1  0  0  0
 21 26  1  0  0  0
 22 23  2  0  0  0
 22 27  1  0  0  0
 23 28  1  0  0  0
  3  4  1  0  0  0
 12 15  1  0  0  0
 12 16  1  0  0  0
M  END
> <minimizedAffinity>
-7.47042

$$$$
