1G32_R11_B_1


 36 40  0  0  0  0  0  0  0  0999 V2000
   14.9106  -15.4105   20.9933 N   0  0  0  0  0  0  0  0  0  0  0  0
   14.5038  -14.1916   20.4683 C   0  0  0  0  0  0  0  0  0  0  0  0
   15.4174  -13.1075   20.3813 N   0  0  0  0  0  0  0  0  0  0  0  0
   16.5231  -13.7511   20.9260 C   0  0  0  0  0  0  0  0  0  0  0  0
   16.2106  -15.1158   21.2876 C   0  0  0  0  0  0  0  0  0  0  0  0
   17.8353  -13.2374   21.1547 C   0  0  0  0  0  0  0  0  0  0  0  0
   18.7968  -14.0778   21.7307 C   0  0  0  0  0  0  0  0  0  0  0  0
   18.4958  -15.4275   22.0902 C   0  0  0  0  0  0  0  0  0  0  0  0
   17.2050  -15.9600   21.8705 C   0  0  0  0  0  0  0  0  0  0  0  0
   15.2662  -11.7095   19.8690 C   0  0  0  0  0  0  0  0  0  0  0  0
   13.0400  -14.0852   19.9993 C   0  0  0  0  0  0  0  0  0  0  0  0
   12.0063  -13.7934   21.0321 N   0  0  0  0  0  0  0  0  0  0  0  0
   11.3079  -14.4794   21.1367 H   0  0  0  0  0  0  0  0  0  0  0  0
   11.6768  -10.3053   23.5626 C   0  0  0  0  0  0  0  0  0  0  0  0
   11.2302  -11.5990   24.0150 C   0  0  0  0  0  0  0  0  0  0  0  0
   11.3336  -12.7454   23.1993 C   0  0  0  0  0  0  0  0  0  0  0  0
   11.8840  -12.6462   21.9019 C   0  0  0  0  0  0  0  0  0  0  0  0
   12.3320  -11.3978   21.4237 C   0  0  0  0  0  0  0  0  0  0  0  0
   12.2321  -10.2480   22.2344 C   0  0  0  0  0  0  0  0  0  0  0  0
   12.6056   -8.4798   24.8540 N   0  0  0  0  0  0  0  0  0  0  0  0
   10.4428   -8.6791   24.8814 N   0  0  0  0  0  0  0  0  0  0  0  0
   11.5745   -9.1542   24.3794 C   0  0  0  0  0  0  0  0  0  0  0  0
   12.4574   -7.6861   25.4175 H   0  0  0  0  0  0  0  0  0  0  0  0
   10.4546   -7.8703   25.4426 H   0  0  0  0  0  0  0  0  0  0  0  0
    9.5909   -9.1351   24.6929 H   0  0  0  0  0  0  0  0  0  0  0  0
   19.5906  -16.2902   22.7378 C   0  0  0  0  0  0  0  0  0  0  0  0
   19.5996  -16.1515   24.2344 N   0  0  0  0  0  0  0  0  0  0  0  0
   19.0245  -16.9171   25.2715 C   0  0  0  0  0  0  0  0  0  0  0  0
   19.1916  -16.5795   26.6223 N   0  0  0  0  0  0  0  0  0  0  0  0
   19.9732  -15.4558   26.4334 C   0  0  0  0  0  0  0  0  0  0  0  0
   20.2169  -15.2016   25.0307 C   0  0  0  0  0  0  0  0  0  0  0  0
   20.5224  -14.5801   27.4213 C   0  0  0  0  0  0  0  0  0  0  0  0
   21.2978  -13.4754   26.9877 C   0  0  0  0  0  0  0  0  0  0  0  0
   21.5424  -13.2259   25.6248 C   0  0  0  0  0  0  0  0  0  0  0  0
   21.0046  -14.0692   24.6359 C   0  0  0  0  0  0  0  0  0  0  0  0
   18.1975  -18.1547   24.9642 C   0  0  0  0  0  0  0  0  0  0  0  0
 20 22  2  0  0  0
 21 22  1  0  0  0
 22 14  1  0  0  0
 14 15  2  0  0  0
 14 19  1  0  0  0
 15 16  1  0  0  0
 16 17  2  0  0  0
 17 18  1  0  0  0
 17 12  1  0  0  0
 18 19  2  0  0  0
 12 11  1  0  0  0
 11  2  1  0  0  0
  1  2  2  0  0  0
  1  5  1  0  0  0
  2  3  1  0  0  0
  3  4  1  0  0  0
  3 10  1  0  0  0
  4  5  2  0  0  0
  4  6  1  0  0  0
  5  9  1  0  0  0
  6  7  2  0  0  0
  7  8  1  0  0  0
  8  9  2  0  0  0
  8 26  1  0  0  0
 26 27  1  0  0  0
 27 28  1  0  0  0
 27 31  1  0  0  0
 28 29  2  0  0  0
 28 36  1  0  0  0
 29 30  1  0  0  0
 30 31  2  0  0  0
 30 32  1  0  0  0
 31 35  1  0  0  0
 32 33  2  0  0  0
 33 34  1  0  0  0
 34 35  2  0  0  0
 20 23  1  0  0  0
 21 24  1  0  0  0
 21 25  1  0  0  0
 12 13  1  0  0  0
M  END
> <minimizedAffinity>
-10.43592

$$$$
1G32_R11_B_1


 36 40  0  0  0  0  0  0  0  0999 V2000
   17.1601  -13.4062   21.1164 N   0  0  0  0  0  0  0  0  0  0  0  0
   16.2147  -13.5452   20.1096 C   0  0  0  0  0  0  0  0  0  0  0  0
   15.5571  -14.7883   19.9098 N   0  0  0  0  0  0  0  0  0  0  0  0
   16.1863  -15.4977   20.9270 C   0  0  0  0  0  0  0  0  0  0  0  0
   17.1367  -14.6689   21.6345 C   0  0  0  0  0  0  0  0  0  0  0  0
   16.0083  -16.8613   21.3099 C   0  0  0  0  0  0  0  0  0  0  0  0
   16.7681  -17.3673   22.3726 C   0  0  0  0  0  0  0  0  0  0  0  0
   17.7086  -16.5546   23.0770 C   0  0  0  0  0  0  0  0  0  0  0  0
   17.9002  -15.2007   22.7188 C   0  0  0  0  0  0  0  0  0  0  0  0
   14.5145  -15.2230   18.9282 C   0  0  0  0  0  0  0  0  0  0  0  0
   15.9288  -12.3045   19.2419 C   0  0  0  0  0  0  0  0  0  0  0  0
   14.5718  -11.6963   19.3373 N   0  0  0  0  0  0  0  0  0  0  0  0
   14.2197  -11.3151   18.5007 H   0  0  0  0  0  0  0  0  0  0  0  0
   12.0105  -11.2873   22.7944 C   0  0  0  0  0  0  0  0  0  0  0  0
   11.8172  -12.3555   21.8459 C   0  0  0  0  0  0  0  0  0  0  0  0
   12.6473  -12.5006   20.7144 C   0  0  0  0  0  0  0  0  0  0  0  0
   13.6997  -11.5868   20.4841 C   0  0  0  0  0  0  0  0  0  0  0  0
   13.9205  -10.5287   21.3895 C   0  0  0  0  0  0  0  0  0  0  0  0
   13.0948  -10.3783   22.5228 C   0  0  0  0  0  0  0  0  0  0  0  0
   10.8089   -9.9802   24.4408 N   0  0  0  0  0  0  0  0  0  0  0  0
   10.7719  -12.1358   24.7056 N   0  0  0  0  0  0  0  0  0  0  0  0
   11.1794  -11.1402   23.9303 C   0  0  0  0  0  0  0  0  0  0  0  0
   10.2276   -9.9551   25.2350 H   0  0  0  0  0  0  0  0  0  0  0  0
   10.1929  -11.9513   25.4802 H   0  0  0  0  0  0  0  0  0  0  0  0
   11.0484  -13.0595   24.5066 H   0  0  0  0  0  0  0  0  0  0  0  0
   18.5257  -17.1772   24.2202 C   0  0  0  0  0  0  0  0  0  0  0  0
   19.9278  -16.6373   24.2640 N   0  0  0  0  0  0  0  0  0  0  0  0
   21.0508  -16.8176   23.4281 C   0  0  0  0  0  0  0  0  0  0  0  0
   22.2734  -16.1790   23.6813 N   0  0  0  0  0  0  0  0  0  0  0  0
   21.8913  -15.5010   24.8230 C   0  0  0  0  0  0  0  0  0  0  0  0
   20.5121  -15.7663   25.1680 C   0  0  0  0  0  0  0  0  0  0  0  0
   22.6739  -14.6269   25.6402 C   0  0  0  0  0  0  0  0  0  0  0  0
   22.0643  -14.0414   26.7783 C   0  0  0  0  0  0  0  0  0  0  0  0
   20.7217  -14.2919   27.1162 C   0  0  0  0  0  0  0  0  0  0  0  0
   19.9362  -15.1554   26.3315 C   0  0  0  0  0  0  0  0  0  0  0  0
   20.9789  -17.7153   22.2037 C   0  0  0  0  0  0  0  0  0  0  0  0
 20 22  2  0  0  0
 21 22  1  0  0  0
 22 14  1  0  0  0
 14 15  2  0  0  0
 14 19  1  0  0  0
 15 16  1  0  0  0
 16 17  2  0  0  0
 17 18  1  0  0  0
 17 12  1  0  0  0
 18 19  2  0  0  0
 12 11  1  0  0  0
 11  2  1  0  0  0
  1  2  2  0  0  0
  1  5  1  0  0  0
  2  3  1  0  0  0
  3  4  1  0  0  0
  3 10  1  0  0  0
  4  5  2  0  0  0
  4  6  1  0  0  0
  5  9  1  0  0  0
  6  7  2  0  0  0
  7  8  1  0  0  0
  8  9  2  0  0  0
  8 26  1  0  0  0
 26 27  1  0  0  0
 27 28  1  0  0  0
 27 31  1  0  0  0
 28 29  2  0  0  0
 28 36  1  0  0  0
 29 30  1  0  0  0
 30 31  2  0  0  0
 30 32  1  0  0  0
 31 35  1  0  0  0
 32 33  2  0  0  0
 33 34  1  0  0  0
 34 35  2  0  0  0
 20 23  1  0  0  0
 21 24  1  0  0  0
 21 25  1  0  0  0
 12 13  1  0  0  0
M  END
> <minimizedAffinity>
-9.76428

$$$$
1G32_R11_B_1


 36 40  0  0  0  0  0  0  0  0999 V2000
   15.2802  -14.9681   21.3353 N   0  0  0  0  0  0  0  0  0  0  0  0
   14.7451  -14.0727   20.4194 C   0  0  0  0  0  0  0  0  0  0  0  0
   15.5390  -13.0136   19.9041 N   0  0  0  0  0  0  0  0  0  0  0  0
   16.7086  -13.3022   20.5986 C   0  0  0  0  0  0  0  0  0  0  0  0
   16.5430  -14.4619   21.4463 C   0  0  0  0  0  0  0  0  0  0  0  0
   17.9603  -12.6164   20.5682 C   0  0  0  0  0  0  0  0  0  0  0  0
   19.0073  -13.0894   21.3698 C   0  0  0  0  0  0  0  0  0  0  0  0
   18.8516  -14.2349   22.2095 C   0  0  0  0  0  0  0  0  0  0  0  0
   17.6231  -14.9328   22.2543 C   0  0  0  0  0  0  0  0  0  0  0  0
   15.2393  -11.9233   18.9239 C   0  0  0  0  0  0  0  0  0  0  0  0
   13.2764  -14.2878   20.0065 C   0  0  0  0  0  0  0  0  0  0  0  0
   12.2230  -13.9137   20.9918 N   0  0  0  0  0  0  0  0  0  0  0  0
   11.4967  -14.5688   21.1032 H   0  0  0  0  0  0  0  0  0  0  0  0
   11.8431  -10.4065   23.4888 C   0  0  0  0  0  0  0  0  0  0  0  0
   12.7262  -10.4181   22.3495 C   0  0  0  0  0  0  0  0  0  0  0  0
   12.8581  -11.5560   21.5259 C   0  0  0  0  0  0  0  0  0  0  0  0
   12.1168  -12.7253   21.8068 C   0  0  0  0  0  0  0  0  0  0  0  0
   11.2423  -12.7527   22.9125 C   0  0  0  0  0  0  0  0  0  0  0  0
   11.1054  -11.6185   23.7394 C   0  0  0  0  0  0  0  0  0  0  0  0
   12.7208   -8.5616   24.7883 N   0  0  0  0  0  0  0  0  0  0  0  0
   10.5662   -8.8331   24.8305 N   0  0  0  0  0  0  0  0  0  0  0  0
   11.7090   -9.2662   24.3159 C   0  0  0  0  0  0  0  0  0  0  0  0
   12.5508   -7.7779   25.3595 H   0  0  0  0  0  0  0  0  0  0  0  0
   10.5554   -8.0290   25.3984 H   0  0  0  0  0  0  0  0  0  0  0  0
    9.7284   -9.3158   24.6447 H   0  0  0  0  0  0  0  0  0  0  0  0
   20.0338  -14.6894   23.0802 C   0  0  0  0  0  0  0  0  0  0  0  0
   19.9126  -16.1340   23.4776 N   0  0  0  0  0  0  0  0  0  0  0  0
   20.2272  -17.3400   22.8151 C   0  0  0  0  0  0  0  0  0  0  0  0
   20.0283  -18.5905   23.4178 N   0  0  0  0  0  0  0  0  0  0  0  0
   19.5228  -18.1344   24.6202 C   0  0  0  0  0  0  0  0  0  0  0  0
   19.4549  -16.6903   24.6602 C   0  0  0  0  0  0  0  0  0  0  0  0
   19.0881  -18.8988   25.7476 C   0  0  0  0  0  0  0  0  0  0  0  0
   18.5970  -18.2069   26.8832 C   0  0  0  0  0  0  0  0  0  0  0  0
   18.5331  -16.8021   26.9297 C   0  0  0  0  0  0  0  0  0  0  0  0
   18.9471  -16.0308   25.8288 C   0  0  0  0  0  0  0  0  0  0  0  0
   20.8059  -17.3328   21.4097 C   0  0  0  0  0  0  0  0  0  0  0  0
 20 22  2  0  0  0
 21 22  1  0  0  0
 22 14  1  0  0  0
 14 15  2  0  0  0
 14 19  1  0  0  0
 15 16  1  0  0  0
 16 17  2  0  0  0
 17 18  1  0  0  0
 17 12  1  0  0  0
 18 19  2  0  0  0
 12 11  1  0  0  0
 11  2  1  0  0  0
  1  2  2  0  0  0
  1  5  1  0  0  0
  2  3  1  0  0  0
  3  4  1  0  0  0
  3 10  1  0  0  0
  4  5  2  0  0  0
  4  6  1  0  0  0
  5  9  1  0  0  0
  6  7  2  0  0  0
  7  8  1  0  0  0
  8  9  2  0  0  0
  8 26  1  0  0  0
 26 27  1  0  0  0
 27 28  1  0  0  0
 27 31  1  0  0  0
 28 29  2  0  0  0
 28 36  1  0  0  0
 29 30  1  0  0  0
 30 31  2  0  0  0
 30 32  1  0  0  0
 31 35  1  0  0  0
 32 33  2  0  0  0
 33 34  1  0  0  0
 34 35  2  0  0  0
 20 23  1  0  0  0
 21 24  1  0  0  0
 21 25  1  0  0  0
 12 13  1  0  0  0
M  END
> <minimizedAffinity>
-9.43294

$$$$
1G32_R11_B_1


 36 40  0  0  0  0  0  0  0  0999 V2000
   16.5408  -15.3998   21.0439 N   0  0  0  0  0  0  0  0  0  0  0  0
   15.3619  -15.8367   20.4556 C   0  0  0  0  0  0  0  0  0  0  0  0
   14.6855  -16.9767   20.9657 N   0  0  0  0  0  0  0  0  0  0  0  0
   15.5696  -17.2720   21.9976 C   0  0  0  0  0  0  0  0  0  0  0  0
   16.6675  -16.3317   22.0332 C   0  0  0  0  0  0  0  0  0  0  0  0
   15.5120  -18.3345   22.9494 C   0  0  0  0  0  0  0  0  0  0  0  0
   16.5324  -18.4404   23.9034 C   0  0  0  0  0  0  0  0  0  0  0  0
   17.6201  -17.5149   23.9453 C   0  0  0  0  0  0  0  0  0  0  0  0
   17.6975  -16.4527   23.0159 C   0  0  0  0  0  0  0  0  0  0  0  0
   13.4221  -17.6615   20.5478 C   0  0  0  0  0  0  0  0  0  0  0  0
   14.8440  -15.0346   19.2463 C   0  0  0  0  0  0  0  0  0  0  0  0
   14.6779  -13.5636   19.4168 N   0  0  0  0  0  0  0  0  0  0  0  0
   15.1285  -13.0063   18.7418 H   0  0  0  0  0  0  0  0  0  0  0  0
   12.4360  -11.4733   22.4637 C   0  0  0  0  0  0  0  0  0  0  0  0
   13.6183  -10.8926   21.8783 C   0  0  0  0  0  0  0  0  0  0  0  0
   14.3580  -11.5640   20.8820 C   0  0  0  0  0  0  0  0  0  0  0  0
   13.9490  -12.8395   20.4327 C   0  0  0  0  0  0  0  0  0  0  0  0
   12.7975  -13.4404   20.9813 C   0  0  0  0  0  0  0  0  0  0  0  0
   12.0533  -12.7742   21.9771 C   0  0  0  0  0  0  0  0  0  0  0  0
   12.0936   -9.7087   24.0861 N   0  0  0  0  0  0  0  0  0  0  0  0
   10.5629  -11.2471   23.9956 N   0  0  0  0  0  0  0  0  0  0  0  0
   11.6923  -10.8013   23.4628 C   0  0  0  0  0  0  0  0  0  0  0  0
   11.5214   -9.2951   24.7722 H   0  0  0  0  0  0  0  0  0  0  0  0
   10.1035  -10.7194   24.6883 H   0  0  0  0  0  0  0  0  0  0  0  0
   10.1836  -12.1057   23.6985 H   0  0  0  0  0  0  0  0  0  0  0  0
   18.7182  -17.6999   25.0047 C   0  0  0  0  0  0  0  0  0  0  0  0
   19.9942  -17.0082   24.6139 N   0  0  0  0  0  0  0  0  0  0  0  0
   20.9822  -17.2940   23.6472 C   0  0  0  0  0  0  0  0  0  0  0  0
   22.1004  -16.4680   23.4634 N   0  0  0  0  0  0  0  0  0  0  0  0
   21.7955  -15.5312   24.4323 C   0  0  0  0  0  0  0  0  0  0  0  0
   20.5568  -15.8442   25.1099 C   0  0  0  0  0  0  0  0  0  0  0  0
   22.5362  -14.3664   24.8053 C   0  0  0  0  0  0  0  0  0  0  0  0
   22.0257  -13.5455   25.8422 C   0  0  0  0  0  0  0  0  0  0  0  0
   20.8188  -13.8423   26.5017 C   0  0  0  0  0  0  0  0  0  0  0  0
   20.0787  -14.9876   26.1569 C   0  0  0  0  0  0  0  0  0  0  0  0
   20.8706  -18.5176   22.7524 C   0  0  0  0  0  0  0  0  0  0  0  0
 20 22  2  0  0  0
 21 22  1  0  0  0
 22 14  1  0  0  0
 14 15  2  0  0  0
 14 19  1  0  0  0
 15 16  1  0  0  0
 16 17  2  0  0  0
 17 18  1  0  0  0
 17 12  1  0  0  0
 18 19  2  0  0  0
 12 11  1  0  0  0
 11  2  1  0  0  0
  1  2  2  0  0  0
  1  5  1  0  0  0
  2  3  1  0  0  0
  3  4  1  0  0  0
  3 10  1  0  0  0
  4  5  2  0  0  0
  4  6  1  0  0  0
  5  9  1  0  0  0
  6  7  2  0  0  0
  7  8  1  0  0  0
  8  9  2  0  0  0
  8 26  1  0  0  0
 26 27  1  0  0  0
 27 28  1  0  0  0
 27 31  1  0  0  0
 28 29  2  0  0  0
 28 36  1  0  0  0
 29 30  1  0  0  0
 30 31  2  0  0  0
 30 32  1  0  0  0
 31 35  1  0  0  0
 32 33  2  0  0  0
 33 34  1  0  0  0
 34 35  2  0  0  0
 20 23  1  0  0  0
 21 24  1  0  0  0
 21 25  1  0  0  0
 12 13  1  0  0  0
M  END
> <minimizedAffinity>
-9.10296

$$$$
1G32_R11_B_1


 36 40  0  0  0  0  0  0  0  0999 V2000
   17.4324  -16.1422   22.7098 N   0  0  0  0  0  0  0  0  0  0  0  0
   17.8983  -17.4496   22.7312 C   0  0  0  0  0  0  0  0  0  0  0  0
   17.4996  -18.3696   21.7252 N   0  0  0  0  0  0  0  0  0  0  0  0
   16.6836  -17.5094   20.9986 C   0  0  0  0  0  0  0  0  0  0  0  0
   16.6492  -16.1917   21.5929 C   0  0  0  0  0  0  0  0  0  0  0  0
   15.9267  -17.7772   19.8182 C   0  0  0  0  0  0  0  0  0  0  0  0
   15.1610  -16.7452   19.2603 C   0  0  0  0  0  0  0  0  0  0  0  0
   15.1223  -15.4405   19.8413 C   0  0  0  0  0  0  0  0  0  0  0  0
   15.8657  -15.1499   21.0080 C   0  0  0  0  0  0  0  0  0  0  0  0
   17.8367  -19.8093   21.4947 C   0  0  0  0  0  0  0  0  0  0  0  0
   18.8475  -17.8355   23.8819 C   0  0  0  0  0  0  0  0  0  0  0  0
   19.4008  -16.7321   24.7166 N   0  0  0  0  0  0  0  0  0  0  0  0
   18.7912  -16.3741   25.4018 H   0  0  0  0  0  0  0  0  0  0  0  0
   23.3421  -14.9680   24.5342 C   0  0  0  0  0  0  0  0  0  0  0  0
   22.1746  -14.1597   24.7821 C   0  0  0  0  0  0  0  0  0  0  0  0
   20.8830  -14.7236   24.8454 C   0  0  0  0  0  0  0  0  0  0  0  0
   20.7053  -16.1131   24.6626 C   0  0  0  0  0  0  0  0  0  0  0  0
   21.8231  -16.9370   24.4181 C   0  0  0  0  0  0  0  0  0  0  0  0
   23.1170  -16.3797   24.3541 C   0  0  0  0  0  0  0  0  0  0  0  0
   24.8942  -13.1507   24.1456 N   0  0  0  0  0  0  0  0  0  0  0  0
   25.7686  -15.0863   24.5999 N   0  0  0  0  0  0  0  0  0  0  0  0
   24.6387  -14.4046   24.4708 C   0  0  0  0  0  0  0  0  0  0  0  0
   25.8240  -12.8278   24.1223 H   0  0  0  0  0  0  0  0  0  0  0  0
   26.6340  -14.6202   24.5434 H   0  0  0  0  0  0  0  0  0  0  0  0
   25.7423  -16.0586   24.7523 H   0  0  0  0  0  0  0  0  0  0  0  0
   14.2453  -14.3587   19.1912 C   0  0  0  0  0  0  0  0  0  0  0  0
   14.2391  -13.0874   19.9932 N   0  0  0  0  0  0  0  0  0  0  0  0
   15.1150  -11.9816   20.0437 C   0  0  0  0  0  0  0  0  0  0  0  0
   14.8781  -10.8863   20.8866 N   0  0  0  0  0  0  0  0  0  0  0  0
   13.7015  -11.3417   21.4501 C   0  0  0  0  0  0  0  0  0  0  0  0
   13.3213  -12.6349   20.9261 C   0  0  0  0  0  0  0  0  0  0  0  0
   12.8834  -10.7040   22.4343 C   0  0  0  0  0  0  0  0  0  0  0  0
   11.7106  -11.3698   22.8711 C   0  0  0  0  0  0  0  0  0  0  0  0
   11.3331  -12.6257   22.3614 C   0  0  0  0  0  0  0  0  0  0  0  0
   12.1276  -13.2750   21.3994 C   0  0  0  0  0  0  0  0  0  0  0  0
   16.3600  -11.9293   19.1734 C   0  0  0  0  0  0  0  0  0  0  0  0
 20 22  2  0  0  0
 21 22  1  0  0  0
 22 14  1  0  0  0
 14 15  2  0  0  0
 14 19  1  0  0  0
 15 16  1  0  0  0
 16 17  2  0  0  0
 17 18  1  0  0  0
 17 12  1  0  0  0
 18 19  2  0  0  0
 12 11  1  0  0  0
 11  2  1  0  0  0
  1  2  2  0  0  0
  1  5  1  0  0  0
  2  3  1  0  0  0
  3  4  1  0  0  0
  3 10  1  0  0  0
  4  5  2  0  0  0
  4  6  1  0  0  0
  5  9  1  0  0  0
  6  7  2  0  0  0
  7  8  1  0  0  0
  8  9  2  0  0  0
  8 26  1  0  0  0
 26 27  1  0  0  0
 27 28  1  0  0  0
 27 31  1  0  0  0
 28 29  2  0  0  0
 28 36  1  0  0  0
 29 30  1  0  0  0
 30 31  2  0  0  0
 30 32  1  0  0  0
 31 35  1  0  0  0
 32 33  2  0  0  0
 33 34  1  0  0  0
 34 35  2  0  0  0
 20 23  1  0  0  0
 21 24  1  0  0  0
 21 25  1  0  0  0
 12 13  1  0  0  0
M  END
> <minimizedAffinity>
-8.97743

$$$$
1G32_R11_B_1


 36 40  0  0  0  0  0  0  0  0999 V2000
   16.9539  -14.0441   22.0893 N   0  0  0  0  0  0  0  0  0  0  0  0
   16.3357  -14.8229   21.1208 C   0  0  0  0  0  0  0  0  0  0  0  0
   16.4949  -16.2343   21.1263 N   0  0  0  0  0  0  0  0  0  0  0  0
   17.3187  -16.3248   22.2429 C   0  0  0  0  0  0  0  0  0  0  0  0
   17.5864  -15.0195   22.8046 C   0  0  0  0  0  0  0  0  0  0  0  0
   17.8908  -17.4876   22.8415 C   0  0  0  0  0  0  0  0  0  0  0  0
   18.7065  -17.3325   23.9699 C   0  0  0  0  0  0  0  0  0  0  0  0
   18.9752  -16.0464   24.5311 C   0  0  0  0  0  0  0  0  0  0  0  0
   18.4176  -14.8805   23.9584 C   0  0  0  0  0  0  0  0  0  0  0  0
   15.9573  -17.3059   20.2307 C   0  0  0  0  0  0  0  0  0  0  0  0
   15.4898  -14.0857   20.0649 C   0  0  0  0  0  0  0  0  0  0  0  0
   14.0605  -13.8199   20.3919 N   0  0  0  0  0  0  0  0  0  0  0  0
   13.4076  -14.3961   19.9324 H   0  0  0  0  0  0  0  0  0  0  0  0
   12.4393  -10.8117   23.0380 C   0  0  0  0  0  0  0  0  0  0  0  0
   11.8788  -12.1387   22.9860 C   0  0  0  0  0  0  0  0  0  0  0  0
   12.3997  -13.1299   22.1277 C   0  0  0  0  0  0  0  0  0  0  0  0
   13.4971  -12.8363   21.2879 C   0  0  0  0  0  0  0  0  0  0  0  0
   14.0729  -11.5494   21.3103 C   0  0  0  0  0  0  0  0  0  0  0  0
   13.5573  -10.5543   22.1664 C   0  0  0  0  0  0  0  0  0  0  0  0
   12.6516   -8.9278   24.5443 N   0  0  0  0  0  0  0  0  0  0  0  0
   10.6495   -9.7248   24.2715 N   0  0  0  0  0  0  0  0  0  0  0  0
   11.9187   -9.8162   23.8985 C   0  0  0  0  0  0  0  0  0  0  0  0
   12.2188   -8.2631   25.1275 H   0  0  0  0  0  0  0  0  0  0  0  0
   10.3646   -9.0008   24.8747 H   0  0  0  0  0  0  0  0  0  0  0  0
    9.9921  -10.3810   23.9452 H   0  0  0  0  0  0  0  0  0  0  0  0
   19.8956  -15.9437   25.7576 C   0  0  0  0  0  0  0  0  0  0  0  0
   21.2696  -15.4598   25.3867 N   0  0  0  0  0  0  0  0  0  0  0  0
   21.9070  -14.2055   25.4999 C   0  0  0  0  0  0  0  0  0  0  0  0
   23.2310  -14.0066   25.0827 N   0  0  0  0  0  0  0  0  0  0  0  0
   23.4794  -15.2939   24.6464 C   0  0  0  0  0  0  0  0  0  0  0  0
   22.3292  -16.1521   24.8251 C   0  0  0  0  0  0  0  0  0  0  0  0
   24.6784  -15.8210   24.0727 C   0  0  0  0  0  0  0  0  0  0  0  0
   24.7005  -17.1862   23.6915 C   0  0  0  0  0  0  0  0  0  0  0  0
   23.5863  -18.0271   23.8674 C   0  0  0  0  0  0  0  0  0  0  0  0
   22.3940  -17.5274   24.4215 C   0  0  0  0  0  0  0  0  0  0  0  0
   21.1797  -13.0086   26.0902 C   0  0  0  0  0  0  0  0  0  0  0  0
 20 22  2  0  0  0
 21 22  1  0  0  0
 22 14  1  0  0  0
 14 15  2  0  0  0
 14 19  1  0  0  0
 15 16  1  0  0  0
 16 17  2  0  0  0
 17 18  1  0  0  0
 17 12  1  0  0  0
 18 19  2  0  0  0
 12 11  1  0  0  0
 11  2  1  0  0  0
  1  2  2  0  0  0
  1  5  1  0  0  0
  2  3  1  0  0  0
  3  4  1  0  0  0
  3 10  1  0  0  0
  4  5  2  0  0  0
  4  6  1  0  0  0
  5  9  1  0  0  0
  6  7  2  0  0  0
  7  8  1  0  0  0
  8  9  2  0  0  0
  8 26  1  0  0  0
 26 27  1  0  0  0
 27 28  1  0  0  0
 27 31  1  0  0  0
 28 29  2  0  0  0
 28 36  1  0  0  0
 29 30  1  0  0  0
 30 31  2  0  0  0
 30 32  1  0  0  0
 31 35  1  0  0  0
 32 33  2  0  0  0
 33 34  1  0  0  0
 34 35  2  0  0  0
 20 23  1  0  0  0
 21 24  1  0  0  0
 21 25  1  0  0  0
 12 13  1  0  0  0
M  END
> <minimizedAffinity>
-8.95385

$$$$
1G32_R11_B_1


 36 40  0  0  0  0  0  0  0  0999 V2000
   15.4062  -14.8324   20.8378 N   0  0  0  0  0  0  0  0  0  0  0  0
   14.3551  -15.1185   19.9775 C   0  0  0  0  0  0  0  0  0  0  0  0
   14.2393  -16.4067   19.3904 N   0  0  0  0  0  0  0  0  0  0  0  0
   15.3682  -16.9772   19.9680 C   0  0  0  0  0  0  0  0  0  0  0  0
   16.0540  -16.0338   20.8226 C   0  0  0  0  0  0  0  0  0  0  0  0
   15.8848  -18.2984   19.8086 C   0  0  0  0  0  0  0  0  0  0  0  0
   17.0564  -18.6506   20.4912 C   0  0  0  0  0  0  0  0  0  0  0  0
   17.7394  -17.7243   21.3379 C   0  0  0  0  0  0  0  0  0  0  0  0
   17.2456  -16.4115   21.5145 C   0  0  0  0  0  0  0  0  0  0  0  0
   13.2328  -16.9914   18.4498 C   0  0  0  0  0  0  0  0  0  0  0  0
   13.3479  -13.9856   19.7019 C   0  0  0  0  0  0  0  0  0  0  0  0
   12.3252  -13.7047   20.7487 N   0  0  0  0  0  0  0  0  0  0  0  0
   11.6279  -14.3918   20.8534 H   0  0  0  0  0  0  0  0  0  0  0  0
   11.9151  -10.3466   23.4383 C   0  0  0  0  0  0  0  0  0  0  0  0
   12.9218  -10.3564   22.4065 C   0  0  0  0  0  0  0  0  0  0  0  0
   13.0649  -11.4457   21.5215 C   0  0  0  0  0  0  0  0  0  0  0  0
   12.2122  -12.5667   21.6318 C   0  0  0  0  0  0  0  0  0  0  0  0
   11.2152  -12.5942   22.6284 C   0  0  0  0  0  0  0  0  0  0  0  0
   11.0665  -11.5082   23.5159 C   0  0  0  0  0  0  0  0  0  0  0  0
   10.6203   -8.8569   24.8408 N   0  0  0  0  0  0  0  0  0  0  0  0
   12.7382   -8.4113   24.6564 N   0  0  0  0  0  0  0  0  0  0  0  0
   11.7696   -9.2548   24.3267 C   0  0  0  0  0  0  0  0  0  0  0  0
   10.5956   -8.0869   25.4539 H   0  0  0  0  0  0  0  0  0  0  0  0
   12.5569   -7.6744   25.2835 H   0  0  0  0  0  0  0  0  0  0  0  0
   13.6387   -8.5221   24.2741 H   0  0  0  0  0  0  0  0  0  0  0  0
   19.0316  -18.1679   22.0419 C   0  0  0  0  0  0  0  0  0  0  0  0
   18.9062  -18.0959   23.5381 N   0  0  0  0  0  0  0  0  0  0  0  0
   18.4796  -19.0263   24.5100 C   0  0  0  0  0  0  0  0  0  0  0  0
   18.4654  -18.7158   25.8775 N   0  0  0  0  0  0  0  0  0  0  0  0
   18.9435  -17.4235   25.7753 C   0  0  0  0  0  0  0  0  0  0  0  0
   19.2058  -17.0556   24.4015 C   0  0  0  0  0  0  0  0  0  0  0  0
   19.1838  -16.4804   26.8229 C   0  0  0  0  0  0  0  0  0  0  0  0
   19.6770  -15.1975   26.4759 C   0  0  0  0  0  0  0  0  0  0  0  0
   19.9386  -14.8356   25.1416 C   0  0  0  0  0  0  0  0  0  0  0  0
   19.7011  -15.7445   24.0947 C   0  0  0  0  0  0  0  0  0  0  0  0
   18.0194  -20.4190   24.1113 C   0  0  0  0  0  0  0  0  0  0  0  0
 20 22  2  0  0  0
 21 22  1  0  0  0
 22 14  1  0  0  0
 14 15  2  0  0  0
 14 19  1  0  0  0
 15 16  1  0  0  0
 16 17  2  0  0  0
 17 18  1  0  0  0
 17 12  1  0  0  0
 18 19  2  0  0  0
 12 11  1  0  0  0
 11  2  1  0  0  0
  1  2  2  0  0  0
  1  5  1  0  0  0
  2  3  1  0  0  0
  3  4  1  0  0  0
  3 10  1  0  0  0
  4  5  2  0  0  0
  4  6  1  0  0  0
  5  9  1  0  0  0
  6  7  2  0  0  0
  7  8  1  0  0  0
  8  9  2  0  0  0
  8 26  1  0  0  0
 26 27  1  0  0  0
 27 28  1  0  0  0
 27 31  1  0  0  0
 28 29  2  0  0  0
 28 36  1  0  0  0
 29 30  1  0  0  0
 30 31  2  0  0  0
 30 32  1  0  0  0
 31 35  1  0  0  0
 32 33  2  0  0  0
 33 34  1  0  0  0
 34 35  2  0  0  0
 20 23  1  0  0  0
 21 24  1  0  0  0
 21 25  1  0  0  0
 12 13  1  0  0  0
M  END
> <minimizedAffinity>
-8.20293

$$$$
1G32_R11_B_1


 36 40  0  0  0  0  0  0  0  0999 V2000
   16.8980  -12.7761   20.1455 N   0  0  0  0  0  0  0  0  0  0  0  0
   15.8203  -13.4509   19.5889 C   0  0  0  0  0  0  0  0  0  0  0  0
   15.5025  -14.7687   20.0133 N   0  0  0  0  0  0  0  0  0  0  0  0
   16.5210  -14.9141   20.9488 C   0  0  0  0  0  0  0  0  0  0  0  0
   17.3441  -13.7272   21.0172 C   0  0  0  0  0  0  0  0  0  0  0  0
   16.8193  -16.0352   21.7806 C   0  0  0  0  0  0  0  0  0  0  0  0
   17.9143  -15.9561   22.6508 C   0  0  0  0  0  0  0  0  0  0  0  0
   18.7318  -14.7867   22.7246 C   0  0  0  0  0  0  0  0  0  0  0  0
   18.4547  -13.6625   21.9136 C   0  0  0  0  0  0  0  0  0  0  0  0
   14.4213  -15.7189   19.6040 C   0  0  0  0  0  0  0  0  0  0  0  0
   15.0105  -12.7071   18.5096 C   0  0  0  0  0  0  0  0  0  0  0  0
   13.8889  -11.8393   18.9673 N   0  0  0  0  0  0  0  0  0  0  0  0
   13.5635  -11.1857   18.3069 H   0  0  0  0  0  0  0  0  0  0  0  0
   11.8325  -11.8781   22.7686 C   0  0  0  0  0  0  0  0  0  0  0  0
   12.5905  -10.7282   22.3430 C   0  0  0  0  0  0  0  0  0  0  0  0
   13.2649  -10.7025   21.1041 C   0  0  0  0  0  0  0  0  0  0  0  0
   13.2113  -11.8215   20.2434 C   0  0  0  0  0  0  0  0  0  0  0  0
   12.4799  -12.9651   20.6245 C   0  0  0  0  0  0  0  0  0  0  0  0
   11.8030  -12.9970   21.8613 C   0  0  0  0  0  0  0  0  0  0  0  0
   10.6041  -12.9835   24.5383 N   0  0  0  0  0  0  0  0  0  0  0  0
   10.8702  -10.8375   24.7427 N   0  0  0  0  0  0  0  0  0  0  0  0
   11.1549  -11.9058   24.0106 C   0  0  0  0  0  0  0  0  0  0  0  0
   10.1478  -12.9270   25.4089 H   0  0  0  0  0  0  0  0  0  0  0  0
   10.3944  -10.9398   25.5985 H   0  0  0  0  0  0  0  0  0  0  0  0
   11.1345   -9.9420   24.4305 H   0  0  0  0  0  0  0  0  0  0  0  0
   19.9311  -14.7727   23.6857 C   0  0  0  0  0  0  0  0  0  0  0  0
   20.2309  -16.1430   24.2257 N   0  0  0  0  0  0  0  0  0  0  0  0
   20.0565  -16.7317   25.4968 C   0  0  0  0  0  0  0  0  0  0  0  0
   20.4125  -18.0638   25.7518 N   0  0  0  0  0  0  0  0  0  0  0  0
   20.8737  -18.3741   24.4868 C   0  0  0  0  0  0  0  0  0  0  0  0
   20.7669  -17.2479   23.5859 C   0  0  0  0  0  0  0  0  0  0  0  0
   21.4113  -19.6129   24.0169 C   0  0  0  0  0  0  0  0  0  0  0  0
   21.8289  -19.6977   22.6649 C   0  0  0  0  0  0  0  0  0  0  0  0
   21.7230  -18.6069   21.7825 C   0  0  0  0  0  0  0  0  0  0  0  0
   21.2054  -17.3765   22.2258 C   0  0  0  0  0  0  0  0  0  0  0  0
   19.4640  -15.9400   26.6511 C   0  0  0  0  0  0  0  0  0  0  0  0
 20 22  2  0  0  0
 21 22  1  0  0  0
 22 14  1  0  0  0
 14 15  2  0  0  0
 14 19  1  0  0  0
 15 16  1  0  0  0
 16 17  2  0  0  0
 17 18  1  0  0  0
 17 12  1  0  0  0
 18 19  2  0  0  0
 12 11  1  0  0  0
 11  2  1  0  0  0
  1  2  2  0  0  0
  1  5  1  0  0  0
  2  3  1  0  0  0
  3  4  1  0  0  0
  3 10  1  0  0  0
  4  5  2  0  0  0
  4  6  1  0  0  0
  5  9  1  0  0  0
  6  7  2  0  0  0
  7  8  1  0  0  0
  8  9  2  0  0  0
  8 26  1  0  0  0
 26 27  1  0  0  0
 27 28  1  0  0  0
 27 31  1  0  0  0
 28 29  2  0  0  0
 28 36  1  0  0  0
 29 30  1  0  0  0
 30 31  2  0  0  0
 30 32  1  0  0  0
 31 35  1  0  0  0
 32 33  2  0  0  0
 33 34  1  0  0  0
 34 35  2  0  0  0
 20 23  1  0  0  0
 21 24  1  0  0  0
 21 25  1  0  0  0
 12 13  1  0  0  0
M  END
> <minimizedAffinity>
-7.97681

$$$$
1G32_R11_B_1


 36 40  0  0  0  0  0  0  0  0999 V2000
   15.6881  -17.1485   21.7295 N   0  0  0  0  0  0  0  0  0  0  0  0
   15.0167  -18.0371   20.9010 C   0  0  0  0  0  0  0  0  0  0  0  0
   15.7356  -19.0246   20.1760 N   0  0  0  0  0  0  0  0  0  0  0  0
   17.0103  -18.6914   20.6207 C   0  0  0  0  0  0  0  0  0  0  0  0
   16.9706  -17.5758   21.5398 C   0  0  0  0  0  0  0  0  0  0  0  0
   18.2616  -19.2889   20.2813 C   0  0  0  0  0  0  0  0  0  0  0  0
   19.4318  -18.7729   20.8531 C   0  0  0  0  0  0  0  0  0  0  0  0
   19.4006  -17.6714   21.7625 C   0  0  0  0  0  0  0  0  0  0  0  0
   18.1737  -17.0651   22.1167 C   0  0  0  0  0  0  0  0  0  0  0  0
   15.2894  -20.0955   19.2308 C   0  0  0  0  0  0  0  0  0  0  0  0
   13.4852  -17.8924   20.8143 C   0  0  0  0  0  0  0  0  0  0  0  0
   12.9398  -16.9543   19.7930 N   0  0  0  0  0  0  0  0  0  0  0  0
   12.0173  -17.1368   19.5014 H   0  0  0  0  0  0  0  0  0  0  0  0
   14.7981  -13.4883   18.0007 C   0  0  0  0  0  0  0  0  0  0  0  0
   14.9790  -14.8041   17.4406 C   0  0  0  0  0  0  0  0  0  0  0  0
   14.3767  -15.9431   18.0153 C   0  0  0  0  0  0  0  0  0  0  0  0
   13.5732  -15.8148   19.1702 C   0  0  0  0  0  0  0  0  0  0  0  0
   13.3725  -14.5440   19.7473 C   0  0  0  0  0  0  0  0  0  0  0  0
   13.9713  -13.4014   19.1774 C   0  0  0  0  0  0  0  0  0  0  0  0
   16.3849  -11.6595   17.9787 N   0  0  0  0  0  0  0  0  0  0  0  0
   14.9758  -11.7347   16.3275 N   0  0  0  0  0  0  0  0  0  0  0  0
   15.4009  -12.3444   17.4256 C   0  0  0  0  0  0  0  0  0  0  0  0
   16.7557  -10.8719   17.5188 H   0  0  0  0  0  0  0  0  0  0  0  0
   15.4511  -10.9416   15.9894 H   0  0  0  0  0  0  0  0  0  0  0  0
   14.1849  -12.0752   15.8502 H   0  0  0  0  0  0  0  0  0  0  0  0
   20.7228  -17.1400   22.3383 C   0  0  0  0  0  0  0  0  0  0  0  0
   20.6606  -16.9867   23.8322 N   0  0  0  0  0  0  0  0  0  0  0  0
   20.5510  -17.9177   24.8876 C   0  0  0  0  0  0  0  0  0  0  0  0
   20.5248  -17.5158   26.2308 N   0  0  0  0  0  0  0  0  0  0  0  0
   20.6318  -16.1551   26.0155 C   0  0  0  0  0  0  0  0  0  0  0  0
   20.7138  -15.8399   24.6065 C   0  0  0  0  0  0  0  0  0  0  0  0
   20.6637  -15.1029   26.9832 C   0  0  0  0  0  0  0  0  0  0  0  0
   20.7751  -13.7665   26.5235 C   0  0  0  0  0  0  0  0  0  0  0  0
   20.8601  -13.4542   25.1543 C   0  0  0  0  0  0  0  0  0  0  0  0
   20.8217  -14.4727   24.1850 C   0  0  0  0  0  0  0  0  0  0  0  0
   20.4621  -19.4092   24.6091 C   0  0  0  0  0  0  0  0  0  0  0  0
 20 22  2  0  0  0
 21 22  1  0  0  0
 22 14  1  0  0  0
 14 15  2  0  0  0
 14 19  1  0  0  0
 15 16  1  0  0  0
 16 17  2  0  0  0
 17 18  1  0  0  0
 17 12  1  0  0  0
 18 19  2  0  0  0
 12 11  1  0  0  0
 11  2  1  0  0  0
  1  2  2  0  0  0
  1  5  1  0  0  0
  2  3  1  0  0  0
  3  4  1  0  0  0
  3 10  1  0  0  0
  4  5  2  0  0  0
  4  6  1  0  0  0
  5  9  1  0  0  0
  6  7  2  0  0  0
  7  8  1  0  0  0
  8  9  2  0  0  0
  8 26  1  0  0  0
 26 27  1  0  0  0
 27 28  1  0  0  0
 27 31  1  0  0  0
 28 29  2  0  0  0
 28 36  1  0  0  0
 29 30  1  0  0  0
 30 31  2  0  0  0
 30 32  1  0  0  0
 31 35  1  0  0  0
 32 33  2  0  0  0
 33 34  1  0  0  0
 34 35  2  0  0  0
 20 23  1  0  0  0
 21 24  1  0  0  0
 21 25  1  0  0  0
 12 13  1  0  0  0
M  END
> <minimizedAffinity>
-7.96338

$$$$
1G32_R11_B_1


 36 40  0  0  0  0  0  0  0  0999 V2000
   14.7140  -18.1399   23.0788 N   0  0  0  0  0  0  0  0  0  0  0  0
   15.8464  -18.9423   23.1048 C   0  0  0  0  0  0  0  0  0  0  0  0
   16.6584  -19.0744   21.9469 N   0  0  0  0  0  0  0  0  0  0  0  0
   15.9225  -18.2454   21.1074 C   0  0  0  0  0  0  0  0  0  0  0  0
   14.7701  -17.6985   21.7883 C   0  0  0  0  0  0  0  0  0  0  0  0
   16.1665  -17.9108   19.7412 C   0  0  0  0  0  0  0  0  0  0  0  0
   15.2727  -17.0522   19.0880 C   0  0  0  0  0  0  0  0  0  0  0  0
   14.1323  -16.5073   19.7541 C   0  0  0  0  0  0  0  0  0  0  0  0
   13.8713  -16.8211   21.1075 C   0  0  0  0  0  0  0  0  0  0  0  0
   17.9121  -19.8489   21.6865 C   0  0  0  0  0  0  0  0  0  0  0  0
   16.1620  -19.6646   24.4286 C   0  0  0  0  0  0  0  0  0  0  0  0
   17.3531  -19.2039   25.1965 N   0  0  0  0  0  0  0  0  0  0  0  0
   17.6433  -19.8001   25.9242 H   0  0  0  0  0  0  0  0  0  0  0  0
   19.7905  -15.6762   24.6545 C   0  0  0  0  0  0  0  0  0  0  0  0
   18.4028  -15.5726   25.0306 C   0  0  0  0  0  0  0  0  0  0  0  0
   17.5971  -16.7164   25.2120 C   0  0  0  0  0  0  0  0  0  0  0  0
   18.1424  -18.0060   25.0240 C   0  0  0  0  0  0  0  0  0  0  0  0
   19.4961  -18.1483   24.6560 C   0  0  0  0  0  0  0  0  0  0  0  0
   20.3071  -17.0090   24.4737 C   0  0  0  0  0  0  0  0  0  0  0  0
   20.7610  -13.5771   25.3720 N   0  0  0  0  0  0  0  0  0  0  0  0
   21.1979  -14.1968   23.3366 N   0  0  0  0  0  0  0  0  0  0  0  0
   20.6007  -14.5303   24.4726 C   0  0  0  0  0  0  0  0  0  0  0  0
   21.3419  -12.8071   25.1750 H   0  0  0  0  0  0  0  0  0  0  0  0
   21.7469  -13.3809   23.2902 H   0  0  0  0  0  0  0  0  0  0  0  0
   21.0922  -14.7650   22.5396 H   0  0  0  0  0  0  0  0  0  0  0  0
   13.1794  -15.5880   18.9737 C   0  0  0  0  0  0  0  0  0  0  0  0
   13.4878  -14.1355   19.2071 N   0  0  0  0  0  0  0  0  0  0  0  0
   14.3224  -13.2135   18.5395 C   0  0  0  0  0  0  0  0  0  0  0  0
   14.4323  -11.8782   18.9537 N   0  0  0  0  0  0  0  0  0  0  0  0
   13.5586  -11.9469   20.0220 C   0  0  0  0  0  0  0  0  0  0  0  0
   12.9995  -13.2720   20.1733 C   0  0  0  0  0  0  0  0  0  0  0  0
   13.1832  -10.9081   20.9300 C   0  0  0  0  0  0  0  0  0  0  0  0
   12.2633  -11.2155   21.9639 C   0  0  0  0  0  0  0  0  0  0  0  0
   11.7124  -12.5015   22.1131 C   0  0  0  0  0  0  0  0  0  0  0  0
   12.0745  -13.5403   21.2367 C   0  0  0  0  0  0  0  0  0  0  0  0
   15.1396  -13.6323   17.3283 C   0  0  0  0  0  0  0  0  0  0  0  0
 20 22  2  0  0  0
 21 22  1  0  0  0
 22 14  1  0  0  0
 14 15  2  0  0  0
 14 19  1  0  0  0
 15 16  1  0  0  0
 16 17  2  0  0  0
 17 18  1  0  0  0
 17 12  1  0  0  0
 18 19  2  0  0  0
 12 11  1  0  0  0
 11  2  1  0  0  0
  1  2  2  0  0  0
  1  5  1  0  0  0
  2  3  1  0  0  0
  3  4  1  0  0  0
  3 10  1  0  0  0
  4  5  2  0  0  0
  4  6  1  0  0  0
  5  9  1  0  0  0
  6  7  2  0  0  0
  7  8  1  0  0  0
  8  9  2  0  0  0
  8 26  1  0  0  0
 26 27  1  0  0  0
 27 28  1  0  0  0
 27 31  1  0  0  0
 28 29  2  0  0  0
 28 36  1  0  0  0
 29 30  1  0  0  0
 30 31  2  0  0  0
 30 32  1  0  0  0
 31 35  1  0  0  0
 32 33  2  0  0  0
 33 34  1  0  0  0
 34 35  2  0  0  0
 20 23  1  0  0  0
 21 24  1  0  0  0
 21 25  1  0  0  0
 12 13  1  0  0  0
M  END
> <minimizedAffinity>
-7.90562

$$$$
