1X8T_RC1_A_501


 32 32  0  0  0  0  0  0  0  0999 V2000
   55.8579   11.7609   27.6612 C   0  0  0  0  0  0  0  0  0  0  0  0
   54.7771   10.9423   28.1787 C   0  0  0  0  0  0  0  0  0  0  0  0
   55.1022    9.6816   28.9878 C   0  0  0  0  0  0  0  0  0  0  0  0
   56.5866    9.6761   29.6212 C   0  0  0  0  0  0  0  0  0  0  0  0
   57.5965    9.9165   28.4448 C   0  0  0  0  0  0  0  0  0  0  0  0
   57.3136   11.3916   27.9084 C   0  0  0  0  0  0  0  0  0  0  0  0
   56.6920    8.4020   30.2736 O   0  0  0  0  0  0  0  0  0  0  0  0
   56.5029    7.6958   29.6361 H   0  0  0  0  0  0  0  0  0  0  0  0
   55.5734   12.9984   26.8849 C   0  0  0  0  0  0  0  0  0  0  0  0
   54.8717   12.9129   25.8798 O   0  0  0  0  0  0  0  0  0  0  0  0
   56.0508   14.0218   27.3272 O   0  0  0  0  0  0  0  0  0  0  0  0
   56.5765   13.9967   28.1024 H   0  0  0  0  0  0  0  0  0  0  0  0
   54.8638    8.4105   28.0675 O   0  0  0  0  0  0  0  0  0  0  0  0
   53.3870    7.6477   27.8554 P   0  0  0  0  0  0  0  0  0  0  0  0
   53.7077    6.2853   27.2379 O   0  0  0  0  0  0  0  0  0  0  0  0
   52.6020    8.6236   26.8986 O   0  0  0  0  0  0  0  0  0  0  0  0
   52.9398    7.5739   29.3359 O   0  0  0  0  0  0  0  0  0  0  0  0
   52.9795    8.5748   26.0064 H   0  0  0  0  0  0  0  0  0  0  0  0
   53.5004    6.9413   29.8119 H   0  0  0  0  0  0  0  0  0  0  0  0
   58.9212    9.8791   28.9117 O   0  0  0  0  0  0  0  0  0  0  0  0
   59.6136    8.5970   28.7466 C   0  0  0  0  0  0  0  0  0  0  0  0
   58.8814    7.2112   28.2991 C   0  0  0  0  0  0  0  0  0  0  0  0
   60.4011    8.3391   30.4034 P   0  0  0  0  0  0  0  0  0  0  0  0
   59.2586    7.6575   31.1858 O   0  0  0  0  0  0  0  0  0  0  0  0
   60.8394    9.6153   31.0786 O   0  0  0  0  0  0  0  0  0  0  0  0
   61.5500    7.3173   30.2185 O   0  0  0  0  0  0  0  0  0  0  0  0
   58.5309    8.2868   31.3092 H   0  0  0  0  0  0  0  0  0  0  0  0
   61.2080    6.5218   29.7813 H   0  0  0  0  0  0  0  0  0  0  0  0
   60.7479    9.1660   27.7948 C   0  0  0  0  0  0  0  0  0  0  0  0
   61.3025   10.2164   27.3403 O   0  0  0  0  0  0  0  0  0  0  0  0
   61.1023    8.0028   27.4568 O   0  0  0  0  0  0  0  0  0  0  0  0
   60.6651    7.2565   27.8172 H   0  0  0  0  0  0  0  0  0  0  0  0
  1  2  2  0  0  0
  1  6  1  0  0  0
  1  9  1  0  0  0
  2  3  1  0  0  0
  3  4  1  0  0  0
  3 13  1  0  0  0
  4  5  1  0  0  0
  4  7  1  0  0  0
  5  6  1  0  0  0
  5 20  1  0  0  0
  9 10  2  0  0  0
  9 11  1  0  0  0
 13 14  1  0  0  0
 20 21  1  0  0  0
 14 15  2  0  0  0
 14 16  1  0  0  0
 14 17  1  0  0  0
 21 22  1  0  0  0
 21 29  1  0  0  0
 21 23  1  0  0  0
 29 30  2  0  0  0
 29 31  1  0  0  0
 23 24  1  0  0  0
 23 25  2  0  0  0
 23 26  1  0  0  0
  7  8  1  0  0  0
 11 12  1  0  0  0
 16 18  1  0  0  0
 17 19  1  0  0  0
 31 32  1  0  0  0
 24 27  1  0  0  0
 26 28  1  0  0  0
M  END
> <minimizedAffinity>
-11.11798

$$$$
1X8T_RC1_A_501


 32 32  0  0  0  0  0  0  0  0999 V2000
   55.8861   11.6937   27.7406 C   0  0  0  0  0  0  0  0  0  0  0  0
   54.8168   10.8789   28.2872 C   0  0  0  0  0  0  0  0  0  0  0  0
   55.1566    9.5797   29.0264 C   0  0  0  0  0  0  0  0  0  0  0  0
   56.6739    9.5160   29.5725 C   0  0  0  0  0  0  0  0  0  0  0  0
   57.6211    9.7813   28.3501 C   0  0  0  0  0  0  0  0  0  0  0  0
   57.3441   11.2828   27.8888 C   0  0  0  0  0  0  0  0  0  0  0  0
   56.7852    8.2147   30.1675 O   0  0  0  0  0  0  0  0  0  0  0  0
   56.5432    7.5391   29.5150 H   0  0  0  0  0  0  0  0  0  0  0  0
   55.5881   12.9675   27.0308 C   0  0  0  0  0  0  0  0  0  0  0  0
   54.6757   12.9817   26.2079 O   0  0  0  0  0  0  0  0  0  0  0  0
   56.2721   13.9193   27.3425 O   0  0  0  0  0  0  0  0  0  0  0  0
   56.9499   13.8198   27.9819 H   0  0  0  0  0  0  0  0  0  0  0  0
   54.8356    8.3523   28.0725 O   0  0  0  0  0  0  0  0  0  0  0  0
   53.3324    7.6274   27.9209 P   0  0  0  0  0  0  0  0  0  0  0  0
   52.5138    8.5529   27.0189 O   0  0  0  0  0  0  0  0  0  0  0  0
   52.8119    7.5441   29.4062 O   0  0  0  0  0  0  0  0  0  0  0  0
   53.7690    6.3101   27.2342 O   0  0  0  0  0  0  0  0  0  0  0  0
   52.5727    8.4319   29.7153 H   0  0  0  0  0  0  0  0  0  0  0  0
   54.0657    6.4996   26.3303 H   0  0  0  0  0  0  0  0  0  0  0  0
   58.9688    9.6960   28.7381 O   0  0  0  0  0  0  0  0  0  0  0  0
   59.8586    9.0212   27.7877 C   0  0  0  0  0  0  0  0  0  0  0  0
   59.8700    9.3055   26.1827 C   0  0  0  0  0  0  0  0  0  0  0  0
   59.4750    7.2304   28.0662 P   0  0  0  0  0  0  0  0  0  0  0  0
   60.7563    6.5537   27.5347 O   0  0  0  0  0  0  0  0  0  0  0  0
   58.2534    6.7433   27.3265 O   0  0  0  0  0  0  0  0  0  0  0  0
   59.3963    7.0039   29.5962 O   0  0  0  0  0  0  0  0  0  0  0  0
   60.8188    6.6876   26.5760 H   0  0  0  0  0  0  0  0  0  0  0  0
   60.2062    7.3358   30.0143 H   0  0  0  0  0  0  0  0  0  0  0  0
   61.1902    9.3252   28.5944 C   0  0  0  0  0  0  0  0  0  0  0  0
   61.7763    9.2315   29.7192 O   0  0  0  0  0  0  0  0  0  0  0  0
   61.7260    9.8605   27.5848 O   0  0  0  0  0  0  0  0  0  0  0  0
   61.2568    9.9078   26.7752 H   0  0  0  0  0  0  0  0  0  0  0  0
  1  2  2  0  0  0
  1  6  1  0  0  0
  1  9  1  0  0  0
  2  3  1  0  0  0
  3  4  1  0  0  0
  3 13  1  0  0  0
  4  5  1  0  0  0
  4  7  1  0  0  0
  5  6  1  0  0  0
  5 20  1  0  0  0
  9 10  2  0  0  0
  9 11  1  0  0  0
 13 14  1  0  0  0
 20 21  1  0  0  0
 14 15  2  0  0  0
 14 16  1  0  0  0
 14 17  1  0  0  0
 21 22  1  0  0  0
 21 29  1  0  0  0
 21 23  1  0  0  0
 29 30  2  0  0  0
 29 31  1  0  0  0
 23 24  1  0  0  0
 23 25  2  0  0  0
 23 26  1  0  0  0
  7  8  1  0  0  0
 11 12  1  0  0  0
 16 18  1  0  0  0
 17 19  1  0  0  0
 31 32  1  0  0  0
 24 27  1  0  0  0
 26 28  1  0  0  0
M  END
> <minimizedAffinity>
-9.84430

$$$$
1X8T_RC1_A_501


 32 32  0  0  0  0  0  0  0  0999 V2000
   57.6892    5.0143   25.9398 C   0  0  0  0  0  0  0  0  0  0  0  0
   59.0063    4.5994   25.4934 C   0  0  0  0  0  0  0  0  0  0  0  0
   60.2533    5.2230   26.1305 C   0  0  0  0  0  0  0  0  0  0  0  0
   59.9865    5.8843   27.5783 C   0  0  0  0  0  0  0  0  0  0  0  0
   58.8138    6.9134   27.4120 C   0  0  0  0  0  0  0  0  0  0  0  0
   57.5211    6.0593   27.0336 C   0  0  0  0  0  0  0  0  0  0  0  0
   61.2524    6.4475   27.9526 O   0  0  0  0  0  0  0  0  0  0  0  0
   61.5530    7.0563   27.2599 H   0  0  0  0  0  0  0  0  0  0  0  0
   56.4603    4.4160   25.3506 C   0  0  0  0  0  0  0  0  0  0  0  0
   55.4528    5.1135   25.2603 O   0  0  0  0  0  0  0  0  0  0  0  0
   56.5582    3.2660   24.9781 O   0  0  0  0  0  0  0  0  0  0  0  0
   57.3673    2.8058   25.0858 H   0  0  0  0  0  0  0  0  0  0  0  0
   60.8673    6.2806   25.1184 O   0  0  0  0  0  0  0  0  0  0  0  0
   62.4144    6.2049   24.4792 P   0  0  0  0  0  0  0  0  0  0  0  0
   62.2464    6.3510   22.9657 O   0  0  0  0  0  0  0  0  0  0  0  0
   62.9346    4.7901   24.9394 O   0  0  0  0  0  0  0  0  0  0  0  0
   63.0192    7.4544   25.1651 O   0  0  0  0  0  0  0  0  0  0  0  0
   62.4786    4.0982   24.4352 H   0  0  0  0  0  0  0  0  0  0  0  0
   62.6161    8.2544   24.7930 H   0  0  0  0  0  0  0  0  0  0  0  0
   58.5516    7.5684   28.6271 O   0  0  0  0  0  0  0  0  0  0  0  0
   59.0762    8.9335   28.7352 C   0  0  0  0  0  0  0  0  0  0  0  0
   59.8238    9.7265   27.5232 C   0  0  0  0  0  0  0  0  0  0  0  0
   60.2434    8.8127   30.1686 P   0  0  0  0  0  0  0  0  0  0  0  0
   61.5866    9.1844   29.5056 O   0  0  0  0  0  0  0  0  0  0  0  0
   60.3049    7.4411   30.7946 O   0  0  0  0  0  0  0  0  0  0  0  0
   59.8640    9.9287   31.1731 O   0  0  0  0  0  0  0  0  0  0  0  0
   61.8372    8.4931   28.8729 H   0  0  0  0  0  0  0  0  0  0  0  0
   59.8408   10.7828   30.7138 H   0  0  0  0  0  0  0  0  0  0  0  0
   57.7338    9.5606   29.3019 C   0  0  0  0  0  0  0  0  0  0  0  0
   56.9094   10.5246   29.2103 O   0  0  0  0  0  0  0  0  0  0  0  0
   57.6036    8.6245   30.1383 O   0  0  0  0  0  0  0  0  0  0  0  0
   58.2359    7.9337   30.1706 H   0  0  0  0  0  0  0  0  0  0  0  0
  1  2  2  0  0  0
  1  6  1  0  0  0
  1  9  1  0  0  0
  2  3  1  0  0  0
  3  4  1  0  0  0
  3 13  1  0  0  0
  4  5  1  0  0  0
  4  7  1  0  0  0
  5  6  1  0  0  0
  5 20  1  0  0  0
  9 10  2  0  0  0
  9 11  1  0  0  0
 13 14  1  0  0  0
 20 21  1  0  0  0
 14 15  2  0  0  0
 14 16  1  0  0  0
 14 17  1  0  0  0
 21 22  1  0  0  0
 21 29  1  0  0  0
 21 23  1  0  0  0
 29 30  2  0  0  0
 29 31  1  0  0  0
 23 24  1  0  0  0
 23 25  2  0  0  0
 23 26  1  0  0  0
  7  8  1  0  0  0
 11 12  1  0  0  0
 16 18  1  0  0  0
 17 19  1  0  0  0
 31 32  1  0  0  0
 24 27  1  0  0  0
 26 28  1  0  0  0
M  END
> <minimizedAffinity>
-9.08479

$$$$
1X8T_RC1_A_501


 32 32  0  0  0  0  0  0  0  0999 V2000
   56.1414   11.6944   27.7046 C   0  0  0  0  0  0  0  0  0  0  0  0
   55.0161   10.9284   28.2077 C   0  0  0  0  0  0  0  0  0  0  0  0
   55.2703    9.6684   29.0427 C   0  0  0  0  0  0  0  0  0  0  0  0
   56.7378    9.6127   29.7120 C   0  0  0  0  0  0  0  0  0  0  0  0
   57.7843    9.7936   28.5569 C   0  0  0  0  0  0  0  0  0  0  0  0
   57.5746   11.2704   27.9923 C   0  0  0  0  0  0  0  0  0  0  0  0
   56.7756    8.3458   30.3852 O   0  0  0  0  0  0  0  0  0  0  0  0
   56.5730    7.6379   29.7538 H   0  0  0  0  0  0  0  0  0  0  0  0
   55.9261   12.9303   26.9035 C   0  0  0  0  0  0  0  0  0  0  0  0
   55.2031   12.8688   25.9118 O   0  0  0  0  0  0  0  0  0  0  0  0
   56.4777   13.9294   27.3139 O   0  0  0  0  0  0  0  0  0  0  0  0
   57.0137   13.8870   28.0812 H   0  0  0  0  0  0  0  0  0  0  0  0
   55.0020    8.3937   28.1355 O   0  0  0  0  0  0  0  0  0  0  0  0
   53.4954    7.7099   27.8698 P   0  0  0  0  0  0  0  0  0  0  0  0
   53.7655    6.3349   27.2564 O   0  0  0  0  0  0  0  0  0  0  0  0
   52.7953    8.7289   26.8923 O   0  0  0  0  0  0  0  0  0  0  0  0
   52.9951    7.6545   29.3341 O   0  0  0  0  0  0  0  0  0  0  0  0
   53.1998    8.6635   26.0131 H   0  0  0  0  0  0  0  0  0  0  0  0
   53.5055    6.9918   29.8253 H   0  0  0  0  0  0  0  0  0  0  0  0
   59.0949    9.7099   29.0563 O   0  0  0  0  0  0  0  0  0  0  0  0
   59.8901    8.5828   28.5588 C   0  0  0  0  0  0  0  0  0  0  0  0
   61.2182    7.9994   29.3023 C   0  0  0  0  0  0  0  0  0  0  0  0
   60.3630    9.1342   26.8547 P   0  0  0  0  0  0  0  0  0  0  0  0
   58.9876    9.1961   26.1571 O   0  0  0  0  0  0  0  0  0  0  0  0
   61.2949    8.1863   26.1406 O   0  0  0  0  0  0  0  0  0  0  0  0
   60.9226   10.5736   26.9699 O   0  0  0  0  0  0  0  0  0  0  0  0
   58.6246    8.3001   26.0780 H   0  0  0  0  0  0  0  0  0  0  0  0
   60.2818   11.1333   27.4359 H   0  0  0  0  0  0  0  0  0  0  0  0
   58.6569    7.6001   28.3858 C   0  0  0  0  0  0  0  0  0  0  0  0
   57.6495    7.3018   27.6691 O   0  0  0  0  0  0  0  0  0  0  0  0
   58.9557    6.9764   29.4416 O   0  0  0  0  0  0  0  0  0  0  0  0
   59.7078    7.2308   29.9391 H   0  0  0  0  0  0  0  0  0  0  0  0
  1  2  2  0  0  0
  1  6  1  0  0  0
  1  9  1  0  0  0
  2  3  1  0  0  0
  3  4  1  0  0  0
  3 13  1  0  0  0
  4  5  1  0  0  0
  4  7  1  0  0  0
  5  6  1  0  0  0
  5 20  1  0  0  0
  9 10  2  0  0  0
  9 11  1  0  0  0
 13 14  1  0  0  0
 20 21  1  0  0  0
 14 15  2  0  0  0
 14 16  1  0  0  0
 14 17  1  0  0  0
 21 22  1  0  0  0
 21 29  1  0  0  0
 21 23  1  0  0  0
 29 30  2  0  0  0
 29 31  1  0  0  0
 23 24  1  0  0  0
 23 25  2  0  0  0
 23 26  1  0  0  0
  7  8  1  0  0  0
 11 12  1  0  0  0
 16 18  1  0  0  0
 17 19  1  0  0  0
 31 32  1  0  0  0
 24 27  1  0  0  0
 26 28  1  0  0  0
M  END
> <minimizedAffinity>
-8.21485

$$$$
