1OE8_GSH_A_301


 27 26  0  0  0  0  0  0  0  0999 V2000
   17.5112   -3.3353   23.8936 C   0  0  0  0  0  0  0  0  0  0  0  0
   17.1201   -3.9652   24.9371 O   0  0  0  0  0  0  0  0  0  0  0  0
   16.9971   -2.1232   23.6374 N   0  0  0  0  0  0  0  0  0  0  0  0
   17.3071   -1.5505   22.8991 H   0  0  0  0  0  0  0  0  0  0  0  0
   18.5877   -3.8470   22.9448 C   0  0  0  0  0  0  0  0  0  0  0  0
   18.0513   -5.0911   22.1754 C   0  0  0  0  0  0  0  0  0  0  0  0
   15.6318   -4.5544   21.9472 N   0  0  0  0  0  0  0  0  0  0  0  0
   16.9470   -4.6824   21.1645 C   0  0  0  0  0  0  0  0  0  0  0  0
   14.8818   -4.2857   21.3102 H   0  0  0  0  0  0  0  0  0  0  0  0
   15.7346   -3.8428   22.6707 H   0  0  0  0  0  0  0  0  0  0  0  0
   16.7297   -5.9447   20.2308 C   0  0  0  0  0  0  0  0  0  0  0  0
   17.4872   -6.2266   19.3201 O   0  0  0  0  0  0  0  0  0  0  0  0
   15.6372   -6.5117   20.5334 O   0  0  0  0  0  0  0  0  0  0  0  0
   15.1356   -6.2037   21.2624 H   0  0  0  0  0  0  0  0  0  0  0  0
   15.9439   -1.7389   24.5501 C   0  0  0  0  0  0  0  0  0  0  0  0
   14.6824   -1.5029   23.5987 C   0  0  0  0  0  0  0  0  0  0  0  0
   14.1431   -2.4241   22.9965 O   0  0  0  0  0  0  0  0  0  0  0  0
   14.2660   -0.2207   23.4611 N   0  0  0  0  0  0  0  0  0  0  0  0
   14.7159    0.5214   23.9261 H   0  0  0  0  0  0  0  0  0  0  0  0
   13.1068    0.0077   22.5813 C   0  0  0  0  0  0  0  0  0  0  0  0
   11.8362    0.2024   23.4003 C   0  0  0  0  0  0  0  0  0  0  0  0
   11.4438   -0.7817   24.0885 O   0  0  0  0  0  0  0  0  0  0  0  0
   11.2353    1.3058   23.2900 O   0  0  0  0  0  0  0  0  0  0  0  0
   11.5978    1.9855   22.7565 H   0  0  0  0  0  0  0  0  0  0  0  0
   16.2029   -0.2911   25.0598 C   0  0  0  0  0  0  0  0  0  0  0  0
   17.8985    0.1723   24.6613 S   0  0  0  0  0  0  0  0  0  0  0  0
   18.7582   -0.6932   25.2624 H   0  0  0  0  0  0  0  0  0  0  0  0
  7  8  1  0  0  0
  8 11  1  0  0  0
  8  6  1  0  0  0
 11 12  2  0  0  0
 11 13  1  0  0  0
  6  5  1  0  0  0
  5  1  1  0  0  0
  1  2  2  0  0  0
  1  3  1  0  0  0
  3 15  1  0  0  0
 15 16  1  0  0  0
 15 25  1  0  0  0
 16 17  2  0  0  0
 16 18  1  0  0  0
 25 26  1  0  0  0
 18 20  1  0  0  0
 20 21  1  0  0  0
 21 22  2  0  0  0
 21 23  1  0  0  0
  7  9  1  0  0  0
  7 10  1  0  0  0
 13 14  1  0  0  0
  3  4  1  0  0  0
 26 27  1  0  0  0
 18 19  1  0  0  0
 23 24  1  0  0  0
M  END
> <minimizedAffinity>
-6.57338

$$$$
1OE8_GSH_A_301


 27 26  0  0  0  0  0  0  0  0999 V2000
   17.3864   -3.4730   24.3912 C   0  0  0  0  0  0  0  0  0  0  0  0
   16.3175   -3.4083   25.0926 O   0  0  0  0  0  0  0  0  0  0  0  0
   17.3068   -3.2682   23.0680 N   0  0  0  0  0  0  0  0  0  0  0  0
   18.0953   -3.2257   22.4801 H   0  0  0  0  0  0  0  0  0  0  0  0
   18.7745   -3.7026   24.9754 C   0  0  0  0  0  0  0  0  0  0  0  0
   18.6487   -4.0450   26.4903 C   0  0  0  0  0  0  0  0  0  0  0  0
   18.6799   -6.2636   25.3629 N   0  0  0  0  0  0  0  0  0  0  0  0
   18.8072   -5.5705   26.7275 C   0  0  0  0  0  0  0  0  0  0  0  0
   18.7797   -7.2715   25.4828 H   0  0  0  0  0  0  0  0  0  0  0  0
   19.4104   -5.9216   24.7384 H   0  0  0  0  0  0  0  0  0  0  0  0
   17.5106   -6.0196   27.5209 C   0  0  0  0  0  0  0  0  0  0  0  0
   16.6011   -5.2528   27.7814 O   0  0  0  0  0  0  0  0  0  0  0  0
   17.6370   -7.2254   27.8903 O   0  0  0  0  0  0  0  0  0  0  0  0
   18.3868   -7.7206   27.6249 H   0  0  0  0  0  0  0  0  0  0  0  0
   15.9515   -3.1161   22.5885 C   0  0  0  0  0  0  0  0  0  0  0  0
   15.9762   -3.8096   21.1495 C   0  0  0  0  0  0  0  0  0  0  0  0
   15.7552   -3.1791   20.1220 O   0  0  0  0  0  0  0  0  0  0  0  0
   16.2145   -5.1434   21.1302 N   0  0  0  0  0  0  0  0  0  0  0  0
   16.3672   -5.6531   21.9586 H   0  0  0  0  0  0  0  0  0  0  0  0
   16.2337   -5.7930   19.8082 C   0  0  0  0  0  0  0  0  0  0  0  0
   15.3316   -7.0214   19.7959 C   0  0  0  0  0  0  0  0  0  0  0  0
   14.9295   -7.4235   18.6678 O   0  0  0  0  0  0  0  0  0  0  0  0
   15.0029   -7.5141   20.9094 O   0  0  0  0  0  0  0  0  0  0  0  0
   15.3492   -7.1534   21.7019 H   0  0  0  0  0  0  0  0  0  0  0  0
   15.7051   -1.6304   22.1949 C   0  0  0  0  0  0  0  0  0  0  0  0
   14.0288   -1.1714   22.6724 S   0  0  0  0  0  0  0  0  0  0  0  0
   13.1387   -1.9761   22.0322 H   0  0  0  0  0  0  0  0  0  0  0  0
  7  8  1  0  0  0
  8 11  1  0  0  0
  8  6  1  0  0  0
 11 12  2  0  0  0
 11 13  1  0  0  0
  6  5  1  0  0  0
  5  1  1  0  0  0
  1  2  2  0  0  0
  1  3  1  0  0  0
  3 15  1  0  0  0
 15 16  1  0  0  0
 15 25  1  0  0  0
 16 17  2  0  0  0
 16 18  1  0  0  0
 25 26  1  0  0  0
 18 20  1  0  0  0
 20 21  1  0  0  0
 21 22  2  0  0  0
 21 23  1  0  0  0
  7  9  1  0  0  0
  7 10  1  0  0  0
 13 14  1  0  0  0
  3  4  1  0  0  0
 26 27  1  0  0  0
 18 19  1  0  0  0
 23 24  1  0  0  0
M  END
> <minimizedAffinity>
-6.44913

$$$$
1OE8_GSH_A_301


 27 26  0  0  0  0  0  0  0  0999 V2000
   17.6482   -4.6042   21.7535 C   0  0  0  0  0  0  0  0  0  0  0  0
   18.7563   -4.9310   21.2024 O   0  0  0  0  0  0  0  0  0  0  0  0
   17.6677   -4.0832   22.9893 N   0  0  0  0  0  0  0  0  0  0  0  0
   16.8645   -3.7384   23.4425 H   0  0  0  0  0  0  0  0  0  0  0  0
   16.2933   -4.7046   21.0643 C   0  0  0  0  0  0  0  0  0  0  0  0
   16.3154   -5.8855   20.0480 C   0  0  0  0  0  0  0  0  0  0  0  0
   15.1327   -4.0871   18.7986 N   0  0  0  0  0  0  0  0  0  0  0  0
   15.9064   -5.4031   18.6308 C   0  0  0  0  0  0  0  0  0  0  0  0
   14.8478   -3.7409   17.8824 H   0  0  0  0  0  0  0  0  0  0  0  0
   15.7310   -3.3964   19.2520 H   0  0  0  0  0  0  0  0  0  0  0  0
   14.8193   -6.4380   18.1211 C   0  0  0  0  0  0  0  0  0  0  0  0
   15.1145   -7.5095   17.6235 O   0  0  0  0  0  0  0  0  0  0  0  0
   13.6641   -5.9291   18.2358 O   0  0  0  0  0  0  0  0  0  0  0  0
   13.5597   -5.0904   18.6404 H   0  0  0  0  0  0  0  0  0  0  0  0
   18.9818   -4.0769   23.5918 C   0  0  0  0  0  0  0  0  0  0  0  0
   18.9770   -5.3696   24.5304 C   0  0  0  0  0  0  0  0  0  0  0  0
   19.4675   -6.4337   24.1710 O   0  0  0  0  0  0  0  0  0  0  0  0
   18.3636   -5.2369   25.7314 N   0  0  0  0  0  0  0  0  0  0  0  0
   17.9482   -4.3885   26.0085 H   0  0  0  0  0  0  0  0  0  0  0  0
   18.3491   -6.4253   26.6018 C   0  0  0  0  0  0  0  0  0  0  0  0
   17.3189   -6.2687   27.7141 C   0  0  0  0  0  0  0  0  0  0  0  0
   16.6371   -5.2052   27.7155 O   0  0  0  0  0  0  0  0  0  0  0  0
   17.2588   -7.1792   28.5850 O   0  0  0  0  0  0  0  0  0  0  0  0
   17.8022   -7.9385   28.5072 H   0  0  0  0  0  0  0  0  0  0  0  0
   19.0591   -2.9420   24.6544 C   0  0  0  0  0  0  0  0  0  0  0  0
   17.7069   -1.7847   24.3703 S   0  0  0  0  0  0  0  0  0  0  0  0
   17.8146   -1.2597   23.1203 H   0  0  0  0  0  0  0  0  0  0  0  0
  7  8  1  0  0  0
  8 11  1  0  0  0
  8  6  1  0  0  0
 11 12  2  0  0  0
 11 13  1  0  0  0
  6  5  1  0  0  0
  5  1  1  0  0  0
  1  2  2  0  0  0
  1  3  1  0  0  0
  3 15  1  0  0  0
 15 16  1  0  0  0
 15 25  1  0  0  0
 16 17  2  0  0  0
 16 18  1  0  0  0
 25 26  1  0  0  0
 18 20  1  0  0  0
 20 21  1  0  0  0
 21 22  2  0  0  0
 21 23  1  0  0  0
  7  9  1  0  0  0
  7 10  1  0  0  0
 13 14  1  0  0  0
  3  4  1  0  0  0
 26 27  1  0  0  0
 18 19  1  0  0  0
 23 24  1  0  0  0
M  END
> <minimizedAffinity>
-6.44383

$$$$
1OE8_GSH_A_301


 27 26  0  0  0  0  0  0  0  0999 V2000
   16.7010   -2.1761   24.3670 C   0  0  0  0  0  0  0  0  0  0  0  0
   16.3337   -3.3311   24.7788 O   0  0  0  0  0  0  0  0  0  0  0  0
   15.9759   -1.5654   23.4182 N   0  0  0  0  0  0  0  0  0  0  0  0
   16.1534   -0.6472   23.1105 H   0  0  0  0  0  0  0  0  0  0  0  0
   17.8848   -1.4062   24.9385 C   0  0  0  0  0  0  0  0  0  0  0  0
   18.0985   -0.0998   24.1166 C   0  0  0  0  0  0  0  0  0  0  0  0
   17.4980    1.9255   25.4326 N   0  0  0  0  0  0  0  0  0  0  0  0
   18.6728    1.0297   25.0128 C   0  0  0  0  0  0  0  0  0  0  0  0
   17.8416    2.6813   26.0251 H   0  0  0  0  0  0  0  0  0  0  0  0
   16.8158    1.3712   25.9501 H   0  0  0  0  0  0  0  0  0  0  0  0
   19.5412    1.9424   24.0510 C   0  0  0  0  0  0  0  0  0  0  0  0
   20.3725    1.4870   23.2864 O   0  0  0  0  0  0  0  0  0  0  0  0
   19.2889    3.1626   24.2837 O   0  0  0  0  0  0  0  0  0  0  0  0
   18.6206    3.3938   24.8984 H   0  0  0  0  0  0  0  0  0  0  0  0
   14.9086   -2.3856   22.8908 C   0  0  0  0  0  0  0  0  0  0  0  0
   15.5609   -3.0826   21.6098 C   0  0  0  0  0  0  0  0  0  0  0  0
   15.7456   -2.4725   20.5631 O   0  0  0  0  0  0  0  0  0  0  0  0
   15.8615   -4.3985   21.7305 N   0  0  0  0  0  0  0  0  0  0  0  0
   15.6896   -4.8934   22.5640 H   0  0  0  0  0  0  0  0  0  0  0  0
   16.4584   -5.0515   20.5527 C   0  0  0  0  0  0  0  0  0  0  0  0
   16.0152   -6.5067   20.4583 C   0  0  0  0  0  0  0  0  0  0  0  0
   16.7453   -7.2834   19.7804 O   0  0  0  0  0  0  0  0  0  0  0  0
   14.9259   -6.8211   21.0111 O   0  0  0  0  0  0  0  0  0  0  0  0
   14.4454   -6.1804   21.4976 H   0  0  0  0  0  0  0  0  0  0  0  0
   13.8399   -1.4754   22.2181 C   0  0  0  0  0  0  0  0  0  0  0  0
   13.2438   -0.2826   23.4307 S   0  0  0  0  0  0  0  0  0  0  0  0
   12.6948   -0.9436   24.4849 H   0  0  0  0  0  0  0  0  0  0  0  0
  7  8  1  0  0  0
  8 11  1  0  0  0
  8  6  1  0  0  0
 11 12  2  0  0  0
 11 13  1  0  0  0
  6  5  1  0  0  0
  5  1  1  0  0  0
  1  2  2  0  0  0
  1  3  1  0  0  0
  3 15  1  0  0  0
 15 16  1  0  0  0
 15 25  1  0  0  0
 16 17  2  0  0  0
 16 18  1  0  0  0
 25 26  1  0  0  0
 18 20  1  0  0  0
 20 21  1  0  0  0
 21 22  2  0  0  0
 21 23  1  0  0  0
  7  9  1  0  0  0
  7 10  1  0  0  0
 13 14  1  0  0  0
  3  4  1  0  0  0
 26 27  1  0  0  0
 18 19  1  0  0  0
 23 24  1  0  0  0
M  END
> <minimizedAffinity>
-6.37260

$$$$
1OE8_GSH_A_301


 27 26  0  0  0  0  0  0  0  0999 V2000
   17.1154   -0.3145   24.8035 C   0  0  0  0  0  0  0  0  0  0  0  0
   17.7580   -0.8914   25.7484 O   0  0  0  0  0  0  0  0  0  0  0  0
   17.7037    0.6914   24.1394 N   0  0  0  0  0  0  0  0  0  0  0  0
   17.3016    1.1277   23.3538 H   0  0  0  0  0  0  0  0  0  0  0  0
   15.7329   -0.7441   24.3291 C   0  0  0  0  0  0  0  0  0  0  0  0
   15.8003   -1.1336   22.8219 C   0  0  0  0  0  0  0  0  0  0  0  0
   14.7107   -2.3157   20.9220 N   0  0  0  0  0  0  0  0  0  0  0  0
   14.5634   -1.9768   22.4127 C   0  0  0  0  0  0  0  0  0  0  0  0
   13.9111   -2.8718   20.6191 H   0  0  0  0  0  0  0  0  0  0  0  0
   15.5691   -2.8475   20.7774 H   0  0  0  0  0  0  0  0  0  0  0  0
   13.3281   -0.9855   22.4721 C   0  0  0  0  0  0  0  0  0  0  0  0
   13.2731    0.0362   21.8118 O   0  0  0  0  0  0  0  0  0  0  0  0
   12.5070   -1.3848   23.3513 O   0  0  0  0  0  0  0  0  0  0  0  0
   12.6557   -2.1951   23.7977 H   0  0  0  0  0  0  0  0  0  0  0  0
   18.9853    1.0733   24.6886 C   0  0  0  0  0  0  0  0  0  0  0  0
   18.9087    2.6674   24.7622 C   0  0  0  0  0  0  0  0  0  0  0  0
   19.7360    3.3826   24.2089 O   0  0  0  0  0  0  0  0  0  0  0  0
   17.9012    3.1861   25.5054 N   0  0  0  0  0  0  0  0  0  0  0  0
   17.2521    2.6097   25.9697 H   0  0  0  0  0  0  0  0  0  0  0  0
   17.8256    4.6552   25.5839 C   0  0  0  0  0  0  0  0  0  0  0  0
   16.8915    5.0895   26.7072 C   0  0  0  0  0  0  0  0  0  0  0  0
   15.9911    4.2721   27.0495 O   0  0  0  0  0  0  0  0  0  0  0  0
   17.0434    6.2509   27.1750 O   0  0  0  0  0  0  0  0  0  0  0  0
   17.7407    6.7939   26.8636 H   0  0  0  0  0  0  0  0  0  0  0  0
   20.0896    0.8815   23.6084 C   0  0  0  0  0  0  0  0  0  0  0  0
   20.9389   -0.6786   23.9141 S   0  0  0  0  0  0  0  0  0  0  0  0
   21.4992   -0.6546   25.1531 H   0  0  0  0  0  0  0  0  0  0  0  0
  7  8  1  0  0  0
  8 11  1  0  0  0
  8  6  1  0  0  0
 11 12  2  0  0  0
 11 13  1  0  0  0
  6  5  1  0  0  0
  5  1  1  0  0  0
  1  2  2  0  0  0
  1  3  1  0  0  0
  3 15  1  0  0  0
 15 16  1  0  0  0
 15 25  1  0  0  0
 16 17  2  0  0  0
 16 18  1  0  0  0
 25 26  1  0  0  0
 18 20  1  0  0  0
 20 21  1  0  0  0
 21 22  2  0  0  0
 21 23  1  0  0  0
  7  9  1  0  0  0
  7 10  1  0  0  0
 13 14  1  0  0  0
  3  4  1  0  0  0
 26 27  1  0  0  0
 18 19  1  0  0  0
 23 24  1  0  0  0
M  END
> <minimizedAffinity>
-6.32487

$$$$
1OE8_GSH_A_301


 27 26  0  0  0  0  0  0  0  0999 V2000
   17.7234   -3.7245   24.8431 C   0  0  0  0  0  0  0  0  0  0  0  0
   17.1903   -3.8070   26.0039 O   0  0  0  0  0  0  0  0  0  0  0  0
   17.5276   -2.6135   24.1174 N   0  0  0  0  0  0  0  0  0  0  0  0
   17.9687   -2.4489   23.2528 H   0  0  0  0  0  0  0  0  0  0  0  0
   18.6353   -4.7899   24.2481 C   0  0  0  0  0  0  0  0  0  0  0  0
   19.9280   -4.9055   25.1103 C   0  0  0  0  0  0  0  0  0  0  0  0
   19.4858   -7.2953   24.5742 N   0  0  0  0  0  0  0  0  0  0  0  0
   20.1329   -6.3613   25.6075 C   0  0  0  0  0  0  0  0  0  0  0  0
   19.6027   -8.2640   24.8712 H   0  0  0  0  0  0  0  0  0  0  0  0
   19.9334   -7.1613   23.6674 H   0  0  0  0  0  0  0  0  0  0  0  0
   19.2227   -6.5078   26.8968 C   0  0  0  0  0  0  0  0  0  0  0  0
   18.1625   -7.1067   26.8881 O   0  0  0  0  0  0  0  0  0  0  0  0
   19.7301   -5.8448   27.8505 O   0  0  0  0  0  0  0  0  0  0  0  0
   20.5595   -5.4233   27.7389 H   0  0  0  0  0  0  0  0  0  0  0  0
   16.6063   -1.6812   24.7274 C   0  0  0  0  0  0  0  0  0  0  0  0
   15.3200   -1.7427   23.7820 C   0  0  0  0  0  0  0  0  0  0  0  0
   14.7829   -2.8039   23.4861 O   0  0  0  0  0  0  0  0  0  0  0  0
   14.8791   -0.5592   23.2908 N   0  0  0  0  0  0  0  0  0  0  0  0
   15.3267    0.2899   23.5095 H   0  0  0  0  0  0  0  0  0  0  0  0
   13.6967   -0.6064   22.4134 C   0  0  0  0  0  0  0  0  0  0  0  0
   12.4315   -0.2648   23.1917 C   0  0  0  0  0  0  0  0  0  0  0  0
   11.7378   -1.2349   23.6084 O   0  0  0  0  0  0  0  0  0  0  0  0
   12.1349    0.9549   23.3153 O   0  0  0  0  0  0  0  0  0  0  0  0
   12.7085    1.6133   22.9756 H   0  0  0  0  0  0  0  0  0  0  0  0
   17.0936   -0.2260   24.4668 C   0  0  0  0  0  0  0  0  0  0  0  0
   18.8548   -0.1262   24.8369 S   0  0  0  0  0  0  0  0  0  0  0  0
   19.0642   -0.4609   26.1383 H   0  0  0  0  0  0  0  0  0  0  0  0
  7  8  1  0  0  0
  8 11  1  0  0  0
  8  6  1  0  0  0
 11 12  2  0  0  0
 11 13  1  0  0  0
  6  5  1  0  0  0
  5  1  1  0  0  0
  1  2  2  0  0  0
  1  3  1  0  0  0
  3 15  1  0  0  0
 15 16  1  0  0  0
 15 25  1  0  0  0
 16 17  2  0  0  0
 16 18  1  0  0  0
 25 26  1  0  0  0
 18 20  1  0  0  0
 20 21  1  0  0  0
 21 22  2  0  0  0
 21 23  1  0  0  0
  7  9  1  0  0  0
  7 10  1  0  0  0
 13 14  1  0  0  0
  3  4  1  0  0  0
 26 27  1  0  0  0
 18 19  1  0  0  0
 23 24  1  0  0  0
M  END
> <minimizedAffinity>
-6.32391

$$$$
1OE8_GSH_A_301


 27 26  0  0  0  0  0  0  0  0999 V2000
   18.7728   -4.8533   22.5095 C   0  0  0  0  0  0  0  0  0  0  0  0
   19.4461   -4.7940   21.4225 O   0  0  0  0  0  0  0  0  0  0  0  0
   17.4362   -4.7570   22.4502 N   0  0  0  0  0  0  0  0  0  0  0  0
   16.8515   -4.8717   23.2338 H   0  0  0  0  0  0  0  0  0  0  0  0
   19.3904   -5.0980   23.8804 C   0  0  0  0  0  0  0  0  0  0  0  0
   19.8118   -3.7360   24.5093 C   0  0  0  0  0  0  0  0  0  0  0  0
   18.3279   -4.7391   26.2373 N   0  0  0  0  0  0  0  0  0  0  0  0
   18.9592   -3.4203   25.7670 C   0  0  0  0  0  0  0  0  0  0  0  0
   17.7584   -4.5669   27.0659 H   0  0  0  0  0  0  0  0  0  0  0  0
   19.0648   -5.4069   26.4640 H   0  0  0  0  0  0  0  0  0  0  0  0
   17.7336   -2.5579   25.2507 C   0  0  0  0  0  0  0  0  0  0  0  0
   17.8013   -1.3534   25.0847 O   0  0  0  0  0  0  0  0  0  0  0  0
   16.7107   -3.2986   25.1425 O   0  0  0  0  0  0  0  0  0  0  0  0
   16.7813   -4.2203   25.2957 H   0  0  0  0  0  0  0  0  0  0  0  0
   16.9372   -4.4683   21.1244 C   0  0  0  0  0  0  0  0  0  0  0  0
   15.8795   -3.2949   21.3624 C   0  0  0  0  0  0  0  0  0  0  0  0
   15.6805   -2.4218   20.5256 O   0  0  0  0  0  0  0  0  0  0  0  0
   15.2433   -3.2939   22.5589 N   0  0  0  0  0  0  0  0  0  0  0  0
   15.4226   -3.9819   23.2399 H   0  0  0  0  0  0  0  0  0  0  0  0
   14.2701   -2.2124   22.7898 C   0  0  0  0  0  0  0  0  0  0  0  0
   14.9214   -1.0463   23.5240 C   0  0  0  0  0  0  0  0  0  0  0  0
   14.5503   -0.8417   24.7141 O   0  0  0  0  0  0  0  0  0  0  0  0
   15.7380   -0.3342   22.8782 O   0  0  0  0  0  0  0  0  0  0  0  0
   15.9591   -0.5583   21.9956 H   0  0  0  0  0  0  0  0  0  0  0  0
   15.9987   -5.6209   20.6619 C   0  0  0  0  0  0  0  0  0  0  0  0
   16.0801   -5.7536   18.8663 S   0  0  0  0  0  0  0  0  0  0  0  0
   15.6849   -4.5788   18.3065 H   0  0  0  0  0  0  0  0  0  0  0  0
  7  8  1  0  0  0
  8 11  1  0  0  0
  8  6  1  0  0  0
 11 12  2  0  0  0
 11 13  1  0  0  0
  6  5  1  0  0  0
  5  1  1  0  0  0
  1  2  2  0  0  0
  1  3  1  0  0  0
  3 15  1  0  0  0
 15 16  1  0  0  0
 15 25  1  0  0  0
 16 17  2  0  0  0
 16 18  1  0  0  0
 25 26  1  0  0  0
 18 20  1  0  0  0
 20 21  1  0  0  0
 21 22  2  0  0  0
 21 23  1  0  0  0
  7  9  1  0  0  0
  7 10  1  0  0  0
 13 14  1  0  0  0
  3  4  1  0  0  0
 26 27  1  0  0  0
 18 19  1  0  0  0
 23 24  1  0  0  0
M  END
> <minimizedAffinity>
-6.27237

$$$$
1OE8_GSH_A_301


 27 26  0  0  0  0  0  0  0  0999 V2000
   21.1902   -3.3495   24.4969 C   0  0  0  0  0  0  0  0  0  0  0  0
   21.6035   -4.5449   24.6935 O   0  0  0  0  0  0  0  0  0  0  0  0
   19.8754   -3.1360   24.3386 N   0  0  0  0  0  0  0  0  0  0  0  0
   19.4799   -2.2378   24.2617 H   0  0  0  0  0  0  0  0  0  0  0  0
   22.0965   -2.1250   24.4985 C   0  0  0  0  0  0  0  0  0  0  0  0
   21.4975   -1.0360   23.5588 C   0  0  0  0  0  0  0  0  0  0  0  0
   22.8217    0.5186   24.9815 N   0  0  0  0  0  0  0  0  0  0  0  0
   22.3967    0.2287   23.5344 C   0  0  0  0  0  0  0  0  0  0  0  0
   23.4162    1.3471   25.0018 H   0  0  0  0  0  0  0  0  0  0  0  0
   23.3383   -0.2797   25.3505 H   0  0  0  0  0  0  0  0  0  0  0  0
   21.4367    1.4319   23.1562 C   0  0  0  0  0  0  0  0  0  0  0  0
   20.2311    1.3878   23.3221 O   0  0  0  0  0  0  0  0  0  0  0  0
   22.1086    2.3498   22.5971 O   0  0  0  0  0  0  0  0  0  0  0  0
   23.0398    2.2725   22.5272 H   0  0  0  0  0  0  0  0  0  0  0  0
   19.0953   -4.3522   24.2917 C   0  0  0  0  0  0  0  0  0  0  0  0
   18.3095   -4.2478   22.9046 C   0  0  0  0  0  0  0  0  0  0  0  0
   18.8727   -4.4028   21.8272 O   0  0  0  0  0  0  0  0  0  0  0  0
   16.9928   -3.9373   22.9827 N   0  0  0  0  0  0  0  0  0  0  0  0
   16.5474   -3.7887   23.8480 H   0  0  0  0  0  0  0  0  0  0  0  0
   16.2609   -3.8333   21.7085 C   0  0  0  0  0  0  0  0  0  0  0  0
   15.0399   -2.9333   21.8579 C   0  0  0  0  0  0  0  0  0  0  0  0
   14.8451   -2.0792   20.9476 O   0  0  0  0  0  0  0  0  0  0  0  0
   14.3451   -3.0626   22.9025 O   0  0  0  0  0  0  0  0  0  0  0  0
   14.5599   -3.7254   23.5291 H   0  0  0  0  0  0  0  0  0  0  0  0
   17.9179   -4.2517   25.3050 C   0  0  0  0  0  0  0  0  0  0  0  0
   18.5371   -4.6233   26.9564 S   0  0  0  0  0  0  0  0  0  0  0  0
   19.0592   -5.8789   26.9729 H   0  0  0  0  0  0  0  0  0  0  0  0
  7  8  1  0  0  0
  8 11  1  0  0  0
  8  6  1  0  0  0
 11 12  2  0  0  0
 11 13  1  0  0  0
  6  5  1  0  0  0
  5  1  1  0  0  0
  1  2  2  0  0  0
  1  3  1  0  0  0
  3 15  1  0  0  0
 15 16  1  0  0  0
 15 25  1  0  0  0
 16 17  2  0  0  0
 16 18  1  0  0  0
 25 26  1  0  0  0
 18 20  1  0  0  0
 20 21  1  0  0  0
 21 22  2  0  0  0
 21 23  1  0  0  0
  7  9  1  0  0  0
  7 10  1  0  0  0
 13 14  1  0  0  0
  3  4  1  0  0  0
 26 27  1  0  0  0
 18 19  1  0  0  0
 23 24  1  0  0  0
M  END
> <minimizedAffinity>
-6.25245

$$$$
1OE8_GSH_A_301


 27 26  0  0  0  0  0  0  0  0999 V2000
   18.6125    2.3804   24.5989 C   0  0  0  0  0  0  0  0  0  0  0  0
   19.4761    2.0976   23.6974 O   0  0  0  0  0  0  0  0  0  0  0  0
   17.8620    1.3931   25.1100 N   0  0  0  0  0  0  0  0  0  0  0  0
   17.2354    1.5234   25.8580 H   0  0  0  0  0  0  0  0  0  0  0  0
   18.4233    3.7721   25.1889 C   0  0  0  0  0  0  0  0  0  0  0  0
   18.7770    3.7440   26.7061 C   0  0  0  0  0  0  0  0  0  0  0  0
   16.2909    3.6386   26.6584 N   0  0  0  0  0  0  0  0  0  0  0  0
   17.4986    3.8846   27.5747 C   0  0  0  0  0  0  0  0  0  0  0  0
   15.4305    3.7238   27.1996 H   0  0  0  0  0  0  0  0  0  0  0  0
   16.3511    2.7012   26.2609 H   0  0  0  0  0  0  0  0  0  0  0  0
   17.4016    5.4211   27.9519 C   0  0  0  0  0  0  0  0  0  0  0  0
   16.9960    6.2646   27.1729 O   0  0  0  0  0  0  0  0  0  0  0  0
   17.8849    5.6040   29.1093 O   0  0  0  0  0  0  0  0  0  0  0  0
   18.1661    4.8710   29.6208 H   0  0  0  0  0  0  0  0  0  0  0  0
   18.0621    0.1192   24.4565 C   0  0  0  0  0  0  0  0  0  0  0  0
   16.5996   -0.5225   24.4163 C   0  0  0  0  0  0  0  0  0  0  0  0
   16.1411   -1.1512   25.3632 O   0  0  0  0  0  0  0  0  0  0  0  0
   15.9084   -0.3688   23.2609 N   0  0  0  0  0  0  0  0  0  0  0  0
   16.2879    0.1153   22.4922 H   0  0  0  0  0  0  0  0  0  0  0  0
   14.5608   -0.9619   23.2123 C   0  0  0  0  0  0  0  0  0  0  0  0
   14.5363   -2.1741   22.2886 C   0  0  0  0  0  0  0  0  0  0  0  0
   14.5226   -1.9453   21.0463 O   0  0  0  0  0  0  0  0  0  0  0  0
   14.4727   -3.3140   22.8248 O   0  0  0  0  0  0  0  0  0  0  0  0
   14.4892   -3.3942   23.7582 H   0  0  0  0  0  0  0  0  0  0  0  0
   18.7843   -0.8556   25.4318 C   0  0  0  0  0  0  0  0  0  0  0  0
   19.9634   -1.8478   24.4970 S   0  0  0  0  0  0  0  0  0  0  0  0
   19.3039   -2.5523   23.5388 H   0  0  0  0  0  0  0  0  0  0  0  0
  7  8  1  0  0  0
  8 11  1  0  0  0
  8  6  1  0  0  0
 11 12  2  0  0  0
 11 13  1  0  0  0
  6  5  1  0  0  0
  5  1  1  0  0  0
  1  2  2  0  0  0
  1  3  1  0  0  0
  3 15  1  0  0  0
 15 16  1  0  0  0
 15 25  1  0  0  0
 16 17  2  0  0  0
 16 18  1  0  0  0
 25 26  1  0  0  0
 18 20  1  0  0  0
 20 21  1  0  0  0
 21 22  2  0  0  0
 21 23  1  0  0  0
  7  9  1  0  0  0
  7 10  1  0  0  0
 13 14  1  0  0  0
  3  4  1  0  0  0
 26 27  1  0  0  0
 18 19  1  0  0  0
 23 24  1  0  0  0
M  END
> <minimizedAffinity>
-6.18959

$$$$
1OE8_GSH_A_301


 27 26  0  0  0  0  0  0  0  0999 V2000
   17.0940   -0.3764   24.6913 C   0  0  0  0  0  0  0  0  0  0  0  0
   17.6678   -0.9295   25.6930 O   0  0  0  0  0  0  0  0  0  0  0  0
   17.7305    0.6107   24.0434 N   0  0  0  0  0  0  0  0  0  0  0  0
   17.3851    1.0270   23.2209 H   0  0  0  0  0  0  0  0  0  0  0  0
   15.7460   -0.8155   24.1340 C   0  0  0  0  0  0  0  0  0  0  0  0
   15.8276   -0.8907   22.5797 C   0  0  0  0  0  0  0  0  0  0  0  0
   14.1394   -2.6134   23.1930 N   0  0  0  0  0  0  0  0  0  0  0  0
   14.7262   -1.8253   22.0126 C   0  0  0  0  0  0  0  0  0  0  0  0
   13.4095   -3.2401   22.8542 H   0  0  0  0  0  0  0  0  0  0  0  0
   13.7419   -1.9638   23.8715 H   0  0  0  0  0  0  0  0  0  0  0  0
   15.4886   -2.9150   21.1503 C   0  0  0  0  0  0  0  0  0  0  0  0
   16.5252   -3.4372   21.5189 O   0  0  0  0  0  0  0  0  0  0  0  0
   14.9025   -3.0586   20.0357 O   0  0  0  0  0  0  0  0  0  0  0  0
   14.1030   -2.6011   19.8644 H   0  0  0  0  0  0  0  0  0  0  0  0
   18.9727    1.0043   24.6696 C   0  0  0  0  0  0  0  0  0  0  0  0
   18.8879    2.5990   24.7154 C   0  0  0  0  0  0  0  0  0  0  0  0
   19.7399    3.3089   24.1937 O   0  0  0  0  0  0  0  0  0  0  0  0
   17.8427    3.1251   25.3989 N   0  0  0  0  0  0  0  0  0  0  0  0
   17.1725    2.5533   25.8385 H   0  0  0  0  0  0  0  0  0  0  0  0
   17.7590    4.5948   25.4514 C   0  0  0  0  0  0  0  0  0  0  0  0
   17.0695    5.0521   26.7314 C   0  0  0  0  0  0  0  0  0  0  0  0
   17.6490    5.9521   27.4022 O   0  0  0  0  0  0  0  0  0  0  0  0
   16.0041    4.4632   27.0617 O   0  0  0  0  0  0  0  0  0  0  0  0
   15.6404    3.8045   26.5032 H   0  0  0  0  0  0  0  0  0  0  0  0
   20.1456    0.8008   23.6668 C   0  0  0  0  0  0  0  0  0  0  0  0
   20.9973   -0.7355   24.0704 S   0  0  0  0  0  0  0  0  0  0  0  0
   21.4780   -0.6672   25.3408 H   0  0  0  0  0  0  0  0  0  0  0  0
  7  8  1  0  0  0
  8 11  1  0  0  0
  8  6  1  0  0  0
 11 12  2  0  0  0
 11 13  1  0  0  0
  6  5  1  0  0  0
  5  1  1  0  0  0
  1  2  2  0  0  0
  1  3  1  0  0  0
  3 15  1  0  0  0
 15 16  1  0  0  0
 15 25  1  0  0  0
 16 17  2  0  0  0
 16 18  1  0  0  0
 25 26  1  0  0  0
 18 20  1  0  0  0
 20 21  1  0  0  0
 21 22  2  0  0  0
 21 23  1  0  0  0
  7  9  1  0  0  0
  7 10  1  0  0  0
 13 14  1  0  0  0
  3  4  1  0  0  0
 26 27  1  0  0  0
 18 19  1  0  0  0
 23 24  1  0  0  0
M  END
> <minimizedAffinity>
-6.10010

$$$$
