6UPJ_NIU_A_100


 23 25  0  0  0  0  0  0  0  0999 V2000
   -0.6772   17.9001   20.7886 C   0  0  0  0  0  0  0  0  0  0  0  0
   -1.8409   17.4294   21.4661 C   0  0  0  0  0  0  0  0  0  0  0  0
   -2.1620   16.2944   21.3922 O   0  0  0  0  0  0  0  0  0  0  0  0
   -2.6603   18.2341   22.1864 O   0  0  0  0  0  0  0  0  0  0  0  0
   -2.2916   19.5866   22.2348 C   0  0  0  0  0  0  0  0  0  0  0  0
   -1.1571   20.1333   21.5983 C   0  0  0  0  0  0  0  0  0  0  0  0
   -0.3444   19.2419   20.8649 C   0  0  0  0  0  0  0  0  0  0  0  0
    0.8078   19.6454   20.2190 O   0  0  0  0  0  0  0  0  0  0  0  0
   -3.2571   20.4516   23.0625 C   0  0  0  0  0  0  0  0  0  0  0  0
   -3.8340   21.7166   22.4270 C   0  0  0  0  0  0  0  0  0  0  0  0
   -3.3300   22.0551   21.0142 C   0  0  0  0  0  0  0  0  0  0  0  0
   -1.8508   22.4931   20.9221 C   0  0  0  0  0  0  0  0  0  0  0  0
   -0.8415   21.6111   21.6849 C   0  0  0  0  0  0  0  0  0  0  0  0
    1.3202   19.0225   19.7422 H   0  0  0  0  0  0  0  0  0  0  0  0
    0.1918   16.9755   19.9041 C   0  0  0  0  0  0  0  0  0  0  0  0
   -0.5153   16.4498   18.6406 C   0  0  0  0  0  0  0  0  0  0  0  0
   -0.6319   15.0481   18.4327 C   0  0  0  0  0  0  0  0  0  0  0  0
   -1.3071   14.5695   17.2919 C   0  0  0  0  0  0  0  0  0  0  0  0
   -1.8487   15.4640   16.3473 C   0  0  0  0  0  0  0  0  0  0  0  0
   -1.7276   16.8428   16.5501 C   0  0  0  0  0  0  0  0  0  0  0  0
   -1.0622   17.3501   17.6795 C   0  0  0  0  0  0  0  0  0  0  0  0
    1.0584   15.9539   20.6545 C   0  0  0  0  0  0  0  0  0  0  0  0
    2.0370   16.5052   21.6903 C   0  0  0  0  0  0  0  0  0  0  0  0
  1  2  1  0  0  0
  1  7  2  0  0  0
  1 15  1  0  0  0
  2  3  2  0  0  0
  2  4  1  0  0  0
  4  5  1  0  0  0
  5  6  2  0  0  0
  5  9  1  0  0  0
  6  7  1  0  0  0
  6 13  1  0  0  0
  7  8  1  0  0  0
 16 17  2  0  0  0
 16 21  1  0  0  0
 16 15  1  0  0  0
 17 18  1  0  0  0
 18 19  2  0  0  0
 19 20  1  0  0  0
 20 21  2  0  0  0
 15 22  1  0  0  0
 22 23  1  0  0  0
  9 10  1  0  0  0
 10 11  1  0  0  0
 11 12  1  0  0  0
 12 13  1  0  0  0
  8 14  1  0  0  0
M  END
> <minimizedAffinity>
-8.75667

$$$$
6UPJ_NIU_A_100


 23 25  0  0  0  0  0  0  0  0999 V2000
    1.7341   14.7225   18.7055 C   0  0  0  0  0  0  0  0  0  0  0  0
    2.6511   14.4366   17.6509 C   0  0  0  0  0  0  0  0  0  0  0  0
    3.7882   14.2165   17.8857 O   0  0  0  0  0  0  0  0  0  0  0  0
    2.3035   14.4385   16.3405 O   0  0  0  0  0  0  0  0  0  0  0  0
    0.9604   14.7398   16.0705 C   0  0  0  0  0  0  0  0  0  0  0  0
   -0.0109   15.0298   17.0522 C   0  0  0  0  0  0  0  0  0  0  0  0
    0.4153   15.0104   18.3979 C   0  0  0  0  0  0  0  0  0  0  0  0
   -0.4425   15.2499   19.4535 O   0  0  0  0  0  0  0  0  0  0  0  0
    0.6239   14.7298   14.5698 C   0  0  0  0  0  0  0  0  0  0  0  0
   -0.0742   15.9497   13.9685 C   0  0  0  0  0  0  0  0  0  0  0  0
   -0.4493   17.0693   14.9535 C   0  0  0  0  0  0  0  0  0  0  0  0
   -1.5723   16.7241   15.9576 C   0  0  0  0  0  0  0  0  0  0  0  0
   -1.4375   15.3648   16.6733 C   0  0  0  0  0  0  0  0  0  0  0  0
   -0.1205   15.2280   20.3332 H   0  0  0  0  0  0  0  0  0  0  0  0
    2.1779   14.7970   20.1854 C   0  0  0  0  0  0  0  0  0  0  0  0
    1.9651   13.4967   20.9831 C   0  0  0  0  0  0  0  0  0  0  0  0
    2.7944   12.3708   20.7256 C   0  0  0  0  0  0  0  0  0  0  0  0
    2.6187   11.1926   21.4788 C   0  0  0  0  0  0  0  0  0  0  0  0
    1.6183   11.1126   22.4681 C   0  0  0  0  0  0  0  0  0  0  0  0
    0.7991   12.2191   22.7159 C   0  0  0  0  0  0  0  0  0  0  0  0
    0.9522   13.4086   21.9830 C   0  0  0  0  0  0  0  0  0  0  0  0
    1.8246   16.0958   20.9246 C   0  0  0  0  0  0  0  0  0  0  0  0
    2.9161   16.7142   21.7967 C   0  0  0  0  0  0  0  0  0  0  0  0
  1  2  1  0  0  0
  1  7  2  0  0  0
  1 15  1  0  0  0
  2  3  2  0  0  0
  2  4  1  0  0  0
  4  5  1  0  0  0
  5  6  2  0  0  0
  5  9  1  0  0  0
  6  7  1  0  0  0
  6 13  1  0  0  0
  7  8  1  0  0  0
 16 17  2  0  0  0
 16 21  1  0  0  0
 16 15  1  0  0  0
 17 18  1  0  0  0
 18 19  2  0  0  0
 19 20  1  0  0  0
 20 21  2  0  0  0
 15 22  1  0  0  0
 22 23  1  0  0  0
  9 10  1  0  0  0
 10 11  1  0  0  0
 11 12  1  0  0  0
 12 13  1  0  0  0
  8 14  1  0  0  0
M  END
> <minimizedAffinity>
-8.42489

$$$$
6UPJ_NIU_A_100


 23 25  0  0  0  0  0  0  0  0999 V2000
    1.1081   14.2689   18.3670 C   0  0  0  0  0  0  0  0  0  0  0  0
    2.1862   14.4095   17.4435 C   0  0  0  0  0  0  0  0  0  0  0  0
    3.3015   14.2254   17.7884 O   0  0  0  0  0  0  0  0  0  0  0  0
    2.0177   14.7939   16.1544 O   0  0  0  0  0  0  0  0  0  0  0  0
    0.6939   15.0481   15.7664 C   0  0  0  0  0  0  0  0  0  0  0  0
   -0.4285   14.9297   16.6134 C   0  0  0  0  0  0  0  0  0  0  0  0
   -0.1850   14.5245   17.9436 C   0  0  0  0  0  0  0  0  0  0  0  0
   -1.1989   14.3448   18.8640 O   0  0  0  0  0  0  0  0  0  0  0  0
    0.5629   15.4822   14.2966 C   0  0  0  0  0  0  0  0  0  0  0  0
   -0.2060   16.7645   13.9783 C   0  0  0  0  0  0  0  0  0  0  0  0
   -0.8540   17.4805   15.1750 C   0  0  0  0  0  0  0  0  0  0  0  0
   -2.0435   16.7416   15.8286 C   0  0  0  0  0  0  0  0  0  0  0  0
   -1.8244   15.2429   16.1190 C   0  0  0  0  0  0  0  0  0  0  0  0
   -0.9959   14.0748   19.7380 H   0  0  0  0  0  0  0  0  0  0  0  0
    1.3386   13.9117   19.8542 C   0  0  0  0  0  0  0  0  0  0  0  0
    1.4857   15.1273   20.7886 C   0  0  0  0  0  0  0  0  0  0  0  0
    2.7811   15.6341   21.0834 C   0  0  0  0  0  0  0  0  0  0  0  0
    2.9113   16.7658   21.9131 C   0  0  0  0  0  0  0  0  0  0  0  0
    1.7745   17.3864   22.4686 C   0  0  0  0  0  0  0  0  0  0  0  0
    0.5011   16.8827   22.1826 C   0  0  0  0  0  0  0  0  0  0  0  0
    0.3393   15.7573   21.3564 C   0  0  0  0  0  0  0  0  0  0  0  0
    2.3047   12.7480   20.1201 C   0  0  0  0  0  0  0  0  0  0  0  0
    2.0799   11.9405   21.3975 C   0  0  0  0  0  0  0  0  0  0  0  0
  1  2  1  0  0  0
  1  7  2  0  0  0
  1 15  1  0  0  0
  2  3  2  0  0  0
  2  4  1  0  0  0
  4  5  1  0  0  0
  5  6  2  0  0  0
  5  9  1  0  0  0
  6  7  1  0  0  0
  6 13  1  0  0  0
  7  8  1  0  0  0
 16 17  2  0  0  0
 16 21  1  0  0  0
 16 15  1  0  0  0
 17 18  1  0  0  0
 18 19  2  0  0  0
 19 20  1  0  0  0
 20 21  2  0  0  0
 15 22  1  0  0  0
 22 23  1  0  0  0
  9 10  1  0  0  0
 10 11  1  0  0  0
 11 12  1  0  0  0
 12 13  1  0  0  0
  8 14  1  0  0  0
M  END
> <minimizedAffinity>
-7.99145

$$$$
6UPJ_NIU_A_100


 23 25  0  0  0  0  0  0  0  0999 V2000
   -1.7501   20.4628   21.3434 C   0  0  0  0  0  0  0  0  0  0  0  0
   -2.7875   19.4870   21.4248 C   0  0  0  0  0  0  0  0  0  0  0  0
   -3.8726   19.7911   21.7808 O   0  0  0  0  0  0  0  0  0  0  0  0
   -2.5980   18.1733   21.1489 O   0  0  0  0  0  0  0  0  0  0  0  0
   -1.2967   17.8166   20.7655 C   0  0  0  0  0  0  0  0  0  0  0  0
   -0.2160   18.7173   20.6559 C   0  0  0  0  0  0  0  0  0  0  0  0
   -0.4799   20.0712   20.9562 C   0  0  0  0  0  0  0  0  0  0  0  0
    0.4841   21.0558   20.8615 O   0  0  0  0  0  0  0  0  0  0  0  0
   -1.1396   16.3159   20.4674 C   0  0  0  0  0  0  0  0  0  0  0  0
   -0.0181   15.5451   21.1638 C   0  0  0  0  0  0  0  0  0  0  0  0
    0.9157   16.3727   22.0625 C   0  0  0  0  0  0  0  0  0  0  0  0
    1.8416   17.3661   21.3250 C   0  0  0  0  0  0  0  0  0  0  0  0
    1.1647   18.2451   20.2537 C   0  0  0  0  0  0  0  0  0  0  0  0
    0.2689   21.9437   21.0698 H   0  0  0  0  0  0  0  0  0  0  0  0
   -1.9744   21.9392   21.7464 C   0  0  0  0  0  0  0  0  0  0  0  0
   -2.2119   22.1622   23.2518 C   0  0  0  0  0  0  0  0  0  0  0  0
   -2.8990   23.3276   23.6895 C   0  0  0  0  0  0  0  0  0  0  0  0
   -3.1431   23.5138   25.0650 C   0  0  0  0  0  0  0  0  0  0  0  0
   -2.6963   22.5691   26.0103 C   0  0  0  0  0  0  0  0  0  0  0  0
   -2.0148   21.4262   25.5786 C   0  0  0  0  0  0  0  0  0  0  0  0
   -1.7590   21.2115   24.2133 C   0  0  0  0  0  0  0  0  0  0  0  0
   -2.8652   22.7614   20.8038 C   0  0  0  0  0  0  0  0  0  0  0  0
   -2.4975   22.7517   19.3209 C   0  0  0  0  0  0  0  0  0  0  0  0
  1  2  1  0  0  0
  1  7  2  0  0  0
  1 15  1  0  0  0
  2  3  2  0  0  0
  2  4  1  0  0  0
  4  5  1  0  0  0
  5  6  2  0  0  0
  5  9  1  0  0  0
  6  7  1  0  0  0
  6 13  1  0  0  0
  7  8  1  0  0  0
 16 17  2  0  0  0
 16 21  1  0  0  0
 16 15  1  0  0  0
 17 18  1  0  0  0
 18 19  2  0  0  0
 19 20  1  0  0  0
 20 21  2  0  0  0
 15 22  1  0  0  0
 22 23  1  0  0  0
  9 10  1  0  0  0
 10 11  1  0  0  0
 11 12  1  0  0  0
 12 13  1  0  0  0
  8 14  1  0  0  0
M  END
> <minimizedAffinity>
-7.96450

$$$$
6UPJ_NIU_A_100


 23 25  0  0  0  0  0  0  0  0999 V2000
   -0.3218   17.9335   20.6777 C   0  0  0  0  0  0  0  0  0  0  0  0
    0.4663   19.1178   20.5715 C   0  0  0  0  0  0  0  0  0  0  0  0
    1.4963   19.1049   19.9923 O   0  0  0  0  0  0  0  0  0  0  0  0
    0.1212   20.2963   21.1460 O   0  0  0  0  0  0  0  0  0  0  0  0
   -1.0836   20.2901   21.8644 C   0  0  0  0  0  0  0  0  0  0  0  0
   -1.9233   19.1661   22.0152 C   0  0  0  0  0  0  0  0  0  0  0  0
   -1.5074   17.9698   21.3916 C   0  0  0  0  0  0  0  0  0  0  0  0
   -2.2520   16.8075   21.4406 O   0  0  0  0  0  0  0  0  0  0  0  0
   -1.4232   21.6510   22.4954 C   0  0  0  0  0  0  0  0  0  0  0  0
   -1.7519   21.7039   23.9874 C   0  0  0  0  0  0  0  0  0  0  0  0
   -1.7844   20.3534   24.7221 C   0  0  0  0  0  0  0  0  0  0  0  0
   -2.9496   19.4140   24.3373 C   0  0  0  0  0  0  0  0  0  0  0  0
   -3.1996   19.2400   22.8255 C   0  0  0  0  0  0  0  0  0  0  0  0
   -1.9411   16.0337   21.0133 H   0  0  0  0  0  0  0  0  0  0  0  0
    0.1388   16.5815   20.0840 C   0  0  0  0  0  0  0  0  0  0  0  0
   -0.5362   16.2049   18.7517 C   0  0  0  0  0  0  0  0  0  0  0  0
   -0.7234   14.8346   18.4217 C   0  0  0  0  0  0  0  0  0  0  0  0
   -1.3697   14.4929   17.2168 C   0  0  0  0  0  0  0  0  0  0  0  0
   -1.8131   15.4930   16.3285 C   0  0  0  0  0  0  0  0  0  0  0  0
   -1.6225   16.8406   16.6516 C   0  0  0  0  0  0  0  0  0  0  0  0
   -0.9838   17.2124   17.8471 C   0  0  0  0  0  0  0  0  0  0  0  0
    0.3111   15.4339   21.0896 C   0  0  0  0  0  0  0  0  0  0  0  0
    1.7172   14.8571   21.2466 C   0  0  0  0  0  0  0  0  0  0  0  0
  1  2  1  0  0  0
  1  7  2  0  0  0
  1 15  1  0  0  0
  2  3  2  0  0  0
  2  4  1  0  0  0
  4  5  1  0  0  0
  5  6  2  0  0  0
  5  9  1  0  0  0
  6  7  1  0  0  0
  6 13  1  0  0  0
  7  8  1  0  0  0
 16 17  2  0  0  0
 16 21  1  0  0  0
 16 15  1  0  0  0
 17 18  1  0  0  0
 18 19  2  0  0  0
 19 20  1  0  0  0
 20 21  2  0  0  0
 15 22  1  0  0  0
 22 23  1  0  0  0
  9 10  1  0  0  0
 10 11  1  0  0  0
 11 12  1  0  0  0
 12 13  1  0  0  0
  8 14  1  0  0  0
M  END
> <minimizedAffinity>
-7.92129

$$$$
6UPJ_NIU_A_100


 23 25  0  0  0  0  0  0  0  0999 V2000
   -1.7600   19.3774   22.3890 C   0  0  0  0  0  0  0  0  0  0  0  0
   -0.6300   20.1812   22.0546 C   0  0  0  0  0  0  0  0  0  0  0  0
   -0.5353   21.2857   22.4642 O   0  0  0  0  0  0  0  0  0  0  0  0
    0.3648   19.7634   21.2339 O   0  0  0  0  0  0  0  0  0  0  0  0
    0.2225   18.4652   20.7218 C   0  0  0  0  0  0  0  0  0  0  0  0
   -0.8591   17.6042   21.0045 C   0  0  0  0  0  0  0  0  0  0  0  0
   -1.8612   18.0992   21.8668 C   0  0  0  0  0  0  0  0  0  0  0  0
   -2.9567   17.3471   22.2435 O   0  0  0  0  0  0  0  0  0  0  0  0
    1.3773   18.0458   19.7965 C   0  0  0  0  0  0  0  0  0  0  0  0
    1.0413   17.4995   18.4088 C   0  0  0  0  0  0  0  0  0  0  0  0
   -0.4542   17.3482   18.0844 C   0  0  0  0  0  0  0  0  0  0  0  0
   -1.1982   16.2462   18.8719 C   0  0  0  0  0  0  0  0  0  0  0  0
   -0.9458   16.2223   20.3931 C   0  0  0  0  0  0  0  0  0  0  0  0
   -3.6005   17.7122   22.8181 H   0  0  0  0  0  0  0  0  0  0  0  0
   -2.9221   19.9111   23.2593 C   0  0  0  0  0  0  0  0  0  0  0  0
   -3.7972   20.9772   22.5738 C   0  0  0  0  0  0  0  0  0  0  0  0
   -4.4560   20.6662   21.3527 C   0  0  0  0  0  0  0  0  0  0  0  0
   -5.2815   21.6326   20.7438 C   0  0  0  0  0  0  0  0  0  0  0  0
   -5.4442   22.9078   21.3210 C   0  0  0  0  0  0  0  0  0  0  0  0
   -4.7904   23.2144   22.5191 C   0  0  0  0  0  0  0  0  0  0  0  0
   -3.9628   22.2705   23.1512 C   0  0  0  0  0  0  0  0  0  0  0  0
   -2.5859   20.1750   24.7342 C   0  0  0  0  0  0  0  0  0  0  0  0
   -3.5316   19.5801   25.7764 C   0  0  0  0  0  0  0  0  0  0  0  0
  1  2  1  0  0  0
  1  7  2  0  0  0
  1 15  1  0  0  0
  2  3  2  0  0  0
  2  4  1  0  0  0
  4  5  1  0  0  0
  5  6  2  0  0  0
  5  9  1  0  0  0
  6  7  1  0  0  0
  6 13  1  0  0  0
  7  8  1  0  0  0
 16 17  2  0  0  0
 16 21  1  0  0  0
 16 15  1  0  0  0
 17 18  1  0  0  0
 18 19  2  0  0  0
 19 20  1  0  0  0
 20 21  2  0  0  0
 15 22  1  0  0  0
 22 23  1  0  0  0
  9 10  1  0  0  0
 10 11  1  0  0  0
 11 12  1  0  0  0
 12 13  1  0  0  0
  8 14  1  0  0  0
M  END
> <minimizedAffinity>
-7.75874

$$$$
6UPJ_NIU_A_100


 23 25  0  0  0  0  0  0  0  0999 V2000
   -0.9488   18.7274   21.2829 C   0  0  0  0  0  0  0  0  0  0  0  0
   -2.1696   18.2032   21.8021 C   0  0  0  0  0  0  0  0  0  0  0  0
   -2.3633   17.0375   21.8223 O   0  0  0  0  0  0  0  0  0  0  0  0
   -3.1815   18.9825   22.2566 O   0  0  0  0  0  0  0  0  0  0  0  0
   -2.9569   20.3657   22.1914 C   0  0  0  0  0  0  0  0  0  0  0  0
   -1.7794   20.9660   21.6972 C   0  0  0  0  0  0  0  0  0  0  0  0
   -0.7636   20.0988   21.2402 C   0  0  0  0  0  0  0  0  0  0  0  0
    0.4464   20.5588   20.7586 O   0  0  0  0  0  0  0  0  0  0  0  0
   -4.1375   21.1996   22.7173 C   0  0  0  0  0  0  0  0  0  0  0  0
   -4.7008   22.3103   21.8309 C   0  0  0  0  0  0  0  0  0  0  0  0
   -3.9745   22.5455   20.4960 C   0  0  0  0  0  0  0  0  0  0  0  0
   -2.5521   23.1391   20.6076 C   0  0  0  0  0  0  0  0  0  0  0  0
   -1.6258   22.4708   21.6437 C   0  0  0  0  0  0  0  0  0  0  0  0
    1.0953   19.9504   20.4643 H   0  0  0  0  0  0  0  0  0  0  0  0
    0.1536   17.8171   20.6925 C   0  0  0  0  0  0  0  0  0  0  0  0
   -0.2715   17.0282   19.4398 C   0  0  0  0  0  0  0  0  0  0  0  0
   -0.1031   15.6166   19.4078 C   0  0  0  0  0  0  0  0  0  0  0  0
   -0.5220   14.8933   18.2731 C   0  0  0  0  0  0  0  0  0  0  0  0
   -1.0860   15.5555   17.1644 C   0  0  0  0  0  0  0  0  0  0  0  0
   -1.2452   16.9450   17.1949 C   0  0  0  0  0  0  0  0  0  0  0  0
   -0.8395   17.6932   18.3134 C   0  0  0  0  0  0  0  0  0  0  0  0
    0.9961   17.0392   21.7138 C   0  0  0  0  0  0  0  0  0  0  0  0
    2.2363   16.3211   21.1839 C   0  0  0  0  0  0  0  0  0  0  0  0
  1  2  1  0  0  0
  1  7  2  0  0  0
  1 15  1  0  0  0
  2  3  2  0  0  0
  2  4  1  0  0  0
  4  5  1  0  0  0
  5  6  2  0  0  0
  5  9  1  0  0  0
  6  7  1  0  0  0
  6 13  1  0  0  0
  7  8  1  0  0  0
 16 17  2  0  0  0
 16 21  1  0  0  0
 16 15  1  0  0  0
 17 18  1  0  0  0
 18 19  2  0  0  0
 19 20  1  0  0  0
 20 21  2  0  0  0
 15 22  1  0  0  0
 22 23  1  0  0  0
  9 10  1  0  0  0
 10 11  1  0  0  0
 11 12  1  0  0  0
 12 13  1  0  0  0
  8 14  1  0  0  0
M  END
> <minimizedAffinity>
-7.68236

$$$$
6UPJ_NIU_A_100


 23 25  0  0  0  0  0  0  0  0999 V2000
   -1.5954   20.2979   21.8708 C   0  0  0  0  0  0  0  0  0  0  0  0
   -0.4022   20.8569   21.3243 C   0  0  0  0  0  0  0  0  0  0  0  0
   -0.2412   22.0275   21.3034 O   0  0  0  0  0  0  0  0  0  0  0  0
    0.5835   20.1105   20.7682 O   0  0  0  0  0  0  0  0  0  0  0  0
    0.3642   18.7250   20.7626 C   0  0  0  0  0  0  0  0  0  0  0  0
   -0.7833   18.0911   21.2847 C   0  0  0  0  0  0  0  0  0  0  0  0
   -1.7719   18.9248   21.8507 C   0  0  0  0  0  0  0  0  0  0  0  0
   -2.9282   18.4275   22.4193 O   0  0  0  0  0  0  0  0  0  0  0  0
    1.5122   17.9295   20.1184 C   0  0  0  0  0  0  0  0  0  0  0  0
    1.1779   16.9277   19.0132 C   0  0  0  0  0  0  0  0  0  0  0  0
   -0.3147   16.7500   18.6889 C   0  0  0  0  0  0  0  0  0  0  0  0
   -1.1570   16.0609   19.7862 C   0  0  0  0  0  0  0  0  0  0  0  0
   -0.9502   16.5881   21.2206 C   0  0  0  0  0  0  0  0  0  0  0  0
   -3.5605   19.0145   22.7848 H   0  0  0  0  0  0  0  0  0  0  0  0
   -2.7409   21.1793   22.4216 C   0  0  0  0  0  0  0  0  0  0  0  0
   -2.5232   21.6860   23.8597 C   0  0  0  0  0  0  0  0  0  0  0  0
   -1.9991   20.8035   24.8437 C   0  0  0  0  0  0  0  0  0  0  0  0
   -1.7710   21.2783   26.1509 C   0  0  0  0  0  0  0  0  0  0  0  0
   -2.0755   22.6099   26.4970 C   0  0  0  0  0  0  0  0  0  0  0  0
   -2.5971   23.4752   25.5294 C   0  0  0  0  0  0  0  0  0  0  0  0
   -2.8328   23.0314   24.2168 C   0  0  0  0  0  0  0  0  0  0  0  0
   -4.1647   20.7084   22.0910 C   0  0  0  0  0  0  0  0  0  0  0  0
   -4.7642   21.1917   20.7714 C   0  0  0  0  0  0  0  0  0  0  0  0
  1  2  1  0  0  0
  1  7  2  0  0  0
  1 15  1  0  0  0
  2  3  2  0  0  0
  2  4  1  0  0  0
  4  5  1  0  0  0
  5  6  2  0  0  0
  5  9  1  0  0  0
  6  7  1  0  0  0
  6 13  1  0  0  0
  7  8  1  0  0  0
 16 17  2  0  0  0
 16 21  1  0  0  0
 16 15  1  0  0  0
 17 18  1  0  0  0
 18 19  2  0  0  0
 19 20  1  0  0  0
 20 21  2  0  0  0
 15 22  1  0  0  0
 22 23  1  0  0  0
  9 10  1  0  0  0
 10 11  1  0  0  0
 11 12  1  0  0  0
 12 13  1  0  0  0
  8 14  1  0  0  0
M  END
> <minimizedAffinity>
-7.56259

$$$$
6UPJ_NIU_A_100


 23 25  0  0  0  0  0  0  0  0999 V2000
    0.0681   17.5261   20.1713 C   0  0  0  0  0  0  0  0  0  0  0  0
    1.2336   17.8506   19.4156 C   0  0  0  0  0  0  0  0  0  0  0  0
    1.9013   18.7804   19.7094 O   0  0  0  0  0  0  0  0  0  0  0  0
    1.6233   17.1621   18.3147 O   0  0  0  0  0  0  0  0  0  0  0  0
    0.8017   16.0846   17.9518 C   0  0  0  0  0  0  0  0  0  0  0  0
   -0.3638   15.6941   18.6448 C   0  0  0  0  0  0  0  0  0  0  0  0
   -0.7141   16.4516   19.7834 C   0  0  0  0  0  0  0  0  0  0  0  0
   -1.8149   16.1564   20.5636 O   0  0  0  0  0  0  0  0  0  0  0  0
    1.2900   15.3425   16.6963 C   0  0  0  0  0  0  0  0  0  0  0  0
    0.3044   15.1183   15.5494 C   0  0  0  0  0  0  0  0  0  0  0  0
   -1.1356   15.6014   15.7897 C   0  0  0  0  0  0  0  0  0  0  0  0
   -1.9375   14.8060   16.8444 C   0  0  0  0  0  0  0  0  0  0  0  0
   -1.2065   14.5284   18.1736 C   0  0  0  0  0  0  0  0  0  0  0  0
   -2.0137   16.6840   21.3120 H   0  0  0  0  0  0  0  0  0  0  0  0
   -0.3993   18.3810   21.3727 C   0  0  0  0  0  0  0  0  0  0  0  0
   -0.9961   19.7486   20.9907 C   0  0  0  0  0  0  0  0  0  0  0  0
   -0.5153   20.9268   21.6251 C   0  0  0  0  0  0  0  0  0  0  0  0
   -1.0405   22.1800   21.2511 C   0  0  0  0  0  0  0  0  0  0  0  0
   -2.0493   22.2751   20.2717 C   0  0  0  0  0  0  0  0  0  0  0  0
   -2.5257   21.1144   19.6530 C   0  0  0  0  0  0  0  0  0  0  0  0
   -2.0195   19.8508   20.0029 C   0  0  0  0  0  0  0  0  0  0  0  0
    0.5291   18.3791   22.5958 C   0  0  0  0  0  0  0  0  0  0  0  0
    1.3904   17.1352   22.8085 C   0  0  0  0  0  0  0  0  0  0  0  0
  1  2  1  0  0  0
  1  7  2  0  0  0
  1 15  1  0  0  0
  2  3  2  0  0  0
  2  4  1  0  0  0
  4  5  1  0  0  0
  5  6  2  0  0  0
  5  9  1  0  0  0
  6  7  1  0  0  0
  6 13  1  0  0  0
  7  8  1  0  0  0
 16 17  2  0  0  0
 16 21  1  0  0  0
 16 15  1  0  0  0
 17 18  1  0  0  0
 18 19  2  0  0  0
 19 20  1  0  0  0
 20 21  2  0  0  0
 15 22  1  0  0  0
 22 23  1  0  0  0
  9 10  1  0  0  0
 10 11  1  0  0  0
 11 12  1  0  0  0
 12 13  1  0  0  0
  8 14  1  0  0  0
M  END
> <minimizedAffinity>
-7.44177

$$$$
6UPJ_NIU_A_100


 23 25  0  0  0  0  0  0  0  0999 V2000
    0.1873   17.2387   20.3971 C   0  0  0  0  0  0  0  0  0  0  0  0
    0.4686   18.3371   19.5314 C   0  0  0  0  0  0  0  0  0  0  0  0
    0.7239   19.4023   19.9750 O   0  0  0  0  0  0  0  0  0  0  0  0
    0.4230   18.2507   18.1793 O   0  0  0  0  0  0  0  0  0  0  0  0
    0.0803   16.9918   17.6640 C   0  0  0  0  0  0  0  0  0  0  0  0
   -0.2084   15.8545   18.4477 C   0  0  0  0  0  0  0  0  0  0  0  0
   -0.1424   16.0108   19.8491 C   0  0  0  0  0  0  0  0  0  0  0  0
   -0.3758   14.9693   20.7257 O   0  0  0  0  0  0  0  0  0  0  0  0
    0.0418   16.9531   16.1269 C   0  0  0  0  0  0  0  0  0  0  0  0
   -1.2111   16.4096   15.4400 C   0  0  0  0  0  0  0  0  0  0  0  0
   -2.3134   15.8728   16.3681 C   0  0  0  0  0  0  0  0  0  0  0  0
   -1.9707   14.5696   17.1246 C   0  0  0  0  0  0  0  0  0  0  0  0
   -0.5898   14.5356   17.8104 C   0  0  0  0  0  0  0  0  0  0  0  0
   -0.3222   15.1139   21.6499 H   0  0  0  0  0  0  0  0  0  0  0  0
    0.1635   17.3881   21.9364 C   0  0  0  0  0  0  0  0  0  0  0  0
   -0.8017   18.4685   22.4593 C   0  0  0  0  0  0  0  0  0  0  0  0
   -2.1901   18.3703   22.1687 C   0  0  0  0  0  0  0  0  0  0  0  0
   -3.0757   19.3428   22.6749 C   0  0  0  0  0  0  0  0  0  0  0  0
   -2.5975   20.4201   23.4473 C   0  0  0  0  0  0  0  0  0  0  0  0
   -1.2304   20.5188   23.7270 C   0  0  0  0  0  0  0  0  0  0  0  0
   -0.3232   19.5629   23.2384 C   0  0  0  0  0  0  0  0  0  0  0  0
    1.5291   17.3220   22.6356 C   0  0  0  0  0  0  0  0  0  0  0  0
    2.6912   16.7428   21.8303 C   0  0  0  0  0  0  0  0  0  0  0  0
  1  2  1  0  0  0
  1  7  2  0  0  0
  1 15  1  0  0  0
  2  3  2  0  0  0
  2  4  1  0  0  0
  4  5  1  0  0  0
  5  6  2  0  0  0
  5  9  1  0  0  0
  6  7  1  0  0  0
  6 13  1  0  0  0
  7  8  1  0  0  0
 16 17  2  0  0  0
 16 21  1  0  0  0
 16 15  1  0  0  0
 17 18  1  0  0  0
 18 19  2  0  0  0
 19 20  1  0  0  0
 20 21  2  0  0  0
 15 22  1  0  0  0
 22 23  1  0  0  0
  9 10  1  0  0  0
 10 11  1  0  0  0
 11 12  1  0  0  0
 12 13  1  0  0  0
  8 14  1  0  0  0
M  END
> <minimizedAffinity>
-7.29324

$$$$
