2YFA_LMR_A_501


 12 11  0  0  0  0  0  0  0  0999 V2000
  -61.7713   27.0285   18.9487 C   0  0  0  0  0  0  0  0  0  0  0  0
  -62.3169   28.3217   19.0963 O   0  0  0  0  0  0  0  0  0  0  0  0
  -61.9497   28.9073   18.4158 H   0  0  0  0  0  0  0  0  0  0  0  0
  -60.2926   27.1584   19.0804 C   0  0  0  0  0  0  0  0  0  0  0  0
  -59.8015   28.2836   19.3560 O   0  0  0  0  0  0  0  0  0  0  0  0
  -59.5680   26.1349   18.9478 O   0  0  0  0  0  0  0  0  0  0  0  0
  -59.9582   25.3081   18.7424 H   0  0  0  0  0  0  0  0  0  0  0  0
  -62.1270   26.4396   17.5883 C   0  0  0  0  0  0  0  0  0  0  0  0
  -62.9980   27.4076   16.8282 C   0  0  0  0  0  0  0  0  0  0  0  0
  -62.4862   28.2883   16.1006 O   0  0  0  0  0  0  0  0  0  0  0  0
  -64.2449   27.3439   16.9164 O   0  0  0  0  0  0  0  0  0  0  0  0
  -61.5543   28.3492   16.0239 H   0  0  0  0  0  0  0  0  0  0  0  0
  4  5  2  0  0  0
  4  6  1  0  0  0
  4  1  1  0  0  0
  1  2  1  0  0  0
  1  8  1  0  0  0
  8  9  1  0  0  0
  9 10  1  0  0  0
  9 11  2  0  0  0
  6  7  1  0  0  0
  2  3  1  0  0  0
 10 12  1  0  0  0
M  END
> <minimizedAffinity>
-5.71908

$$$$
2YFA_LMR_A_501


 12 11  0  0  0  0  0  0  0  0999 V2000
  -62.5912   27.0728   18.0884 C   0  0  0  0  0  0  0  0  0  0  0  0
  -61.7584   27.6711   17.1186 O   0  0  0  0  0  0  0  0  0  0  0  0
  -61.4668   28.5405   17.4349 H   0  0  0  0  0  0  0  0  0  0  0  0
  -63.7452   27.9910   18.3025 C   0  0  0  0  0  0  0  0  0  0  0  0
  -64.8980   27.5025   18.4284 O   0  0  0  0  0  0  0  0  0  0  0  0
  -63.5398   29.2323   18.3877 O   0  0  0  0  0  0  0  0  0  0  0  0
  -62.6718   29.5713   18.2902 H   0  0  0  0  0  0  0  0  0  0  0  0
  -61.8385   26.8622   19.3972 C   0  0  0  0  0  0  0  0  0  0  0  0
  -60.3657   27.1009   19.1798 C   0  0  0  0  0  0  0  0  0  0  0  0
  -59.6055   26.1541   18.8756 O   0  0  0  0  0  0  0  0  0  0  0  0
  -59.8838   28.2495   19.3025 O   0  0  0  0  0  0  0  0  0  0  0  0
  -59.9506   25.2883   18.7800 H   0  0  0  0  0  0  0  0  0  0  0  0
  4  5  2  0  0  0
  4  6  1  0  0  0
  4  1  1  0  0  0
  1  2  1  0  0  0
  1  8  1  0  0  0
  8  9  1  0  0  0
  9 10  1  0  0  0
  9 11  2  0  0  0
  6  7  1  0  0  0
  2  3  1  0  0  0
 10 12  1  0  0  0
M  END
> <minimizedAffinity>
-4.95157

$$$$
2YFA_LMR_A_501


 12 11  0  0  0  0  0  0  0  0999 V2000
  -61.5367   27.1060   18.2024 C   0  0  0  0  0  0  0  0  0  0  0  0
  -61.7038   25.7725   17.7714 O   0  0  0  0  0  0  0  0  0  0  0  0
  -61.6977   25.1810   18.5402 H   0  0  0  0  0  0  0  0  0  0  0  0
  -60.2388   27.1721   18.9317 C   0  0  0  0  0  0  0  0  0  0  0  0
  -59.8589   28.2758   19.4015 O   0  0  0  0  0  0  0  0  0  0  0  0
  -59.5662   26.1178   19.0930 O   0  0  0  0  0  0  0  0  0  0  0  0
  -59.8708   25.3080   18.7331 H   0  0  0  0  0  0  0  0  0  0  0  0
  -62.6772   27.5279   19.1218 C   0  0  0  0  0  0  0  0  0  0  0  0
  -63.4503   26.3109   19.5630 C   0  0  0  0  0  0  0  0  0  0  0  0
  -63.0478   25.6143   20.5221 O   0  0  0  0  0  0  0  0  0  0  0  0
  -64.5042   25.9805   18.9744 O   0  0  0  0  0  0  0  0  0  0  0  0
  -62.2606   25.8483   20.9732 H   0  0  0  0  0  0  0  0  0  0  0  0
  4  5  2  0  0  0
  4  6  1  0  0  0
  4  1  1  0  0  0
  1  2  1  0  0  0
  1  8  1  0  0  0
  8  9  1  0  0  0
  9 10  1  0  0  0
  9 11  2  0  0  0
  6  7  1  0  0  0
  2  3  1  0  0  0
 10 12  1  0  0  0
M  END
> <minimizedAffinity>
-4.78414

$$$$
2YFA_LMR_A_501


 12 11  0  0  0  0  0  0  0  0999 V2000
  -62.7469   27.2221   19.0070 C   0  0  0  0  0  0  0  0  0  0  0  0
  -62.8893   26.1729   19.9402 O   0  0  0  0  0  0  0  0  0  0  0  0
  -63.0429   25.3393   19.4685 H   0  0  0  0  0  0  0  0  0  0  0  0
  -64.0031   27.2712   18.2068 C   0  0  0  0  0  0  0  0  0  0  0  0
  -63.9848   26.8609   17.0174 O   0  0  0  0  0  0  0  0  0  0  0  0
  -65.0635   27.6892   18.7462 O   0  0  0  0  0  0  0  0  0  0  0  0
  -65.0508   27.9896   19.6336 H   0  0  0  0  0  0  0  0  0  0  0  0
  -61.5515   26.9790   18.0927 C   0  0  0  0  0  0  0  0  0  0  0  0
  -60.2739   27.1035   18.8836 C   0  0  0  0  0  0  0  0  0  0  0  0
  -59.9235   28.2080   19.3571 O   0  0  0  0  0  0  0  0  0  0  0  0
  -59.5460   26.1036   19.0755 O   0  0  0  0  0  0  0  0  0  0  0  0
  -60.4574   28.9662   19.2223 H   0  0  0  0  0  0  0  0  0  0  0  0
  4  5  2  0  0  0
  4  6  1  0  0  0
  4  1  1  0  0  0
  1  2  1  0  0  0
  1  8  1  0  0  0
  8  9  1  0  0  0
  9 10  1  0  0  0
  9 11  2  0  0  0
  6  7  1  0  0  0
  2  3  1  0  0  0
 10 12  1  0  0  0
M  END
> <minimizedAffinity>
-4.78078

$$$$
2YFA_LMR_A_501


 12 11  0  0  0  0  0  0  0  0999 V2000
  -63.7940   27.7692   17.8296 C   0  0  0  0  0  0  0  0  0  0  0  0
  -62.8226   28.1482   16.8785 O   0  0  0  0  0  0  0  0  0  0  0  0
  -62.2516   28.8356   17.2557 H   0  0  0  0  0  0  0  0  0  0  0  0
  -64.5696   28.9935   18.1765 C   0  0  0  0  0  0  0  0  0  0  0  0
  -65.7706   28.8740   18.5322 O   0  0  0  0  0  0  0  0  0  0  0  0
  -63.9991   30.1175   18.1402 O   0  0  0  0  0  0  0  0  0  0  0  0
  -63.1036   30.1799   17.8717 H   0  0  0  0  0  0  0  0  0  0  0  0
  -63.1370   27.1930   19.0788 C   0  0  0  0  0  0  0  0  0  0  0  0
  -61.6405   27.1626   18.8972 C   0  0  0  0  0  0  0  0  0  0  0  0
  -60.9371   28.1378   19.2453 O   0  0  0  0  0  0  0  0  0  0  0  0
  -61.0823   26.1617   18.3940 O   0  0  0  0  0  0  0  0  0  0  0  0
  -61.3398   28.8946   19.6236 H   0  0  0  0  0  0  0  0  0  0  0  0
  4  5  2  0  0  0
  4  6  1  0  0  0
  4  1  1  0  0  0
  1  2  1  0  0  0
  1  8  1  0  0  0
  8  9  1  0  0  0
  9 10  1  0  0  0
  9 11  2  0  0  0
  6  7  1  0  0  0
  2  3  1  0  0  0
 10 12  1  0  0  0
M  END
> <minimizedAffinity>
-4.63713

$$$$
2YFA_LMR_A_501


 12 11  0  0  0  0  0  0  0  0999 V2000
  -63.2638   27.5808   16.6144 C   0  0  0  0  0  0  0  0  0  0  0  0
  -62.3118   28.4034   15.9750 O   0  0  0  0  0  0  0  0  0  0  0  0
  -61.7828   28.8658   16.6438 H   0  0  0  0  0  0  0  0  0  0  0  0
  -64.1100   28.4666   17.4629 C   0  0  0  0  0  0  0  0  0  0  0  0
  -63.9984   29.7142   17.3427 O   0  0  0  0  0  0  0  0  0  0  0  0
  -64.9427   27.9504   18.2569 O   0  0  0  0  0  0  0  0  0  0  0  0
  -65.0064   27.0183   18.3281 H   0  0  0  0  0  0  0  0  0  0  0  0
  -62.5801   26.5256   17.4766 C   0  0  0  0  0  0  0  0  0  0  0  0
  -61.7300   27.1990   18.5241 C   0  0  0  0  0  0  0  0  0  0  0  0
  -62.1424   27.3150   19.7003 O   0  0  0  0  0  0  0  0  0  0  0  0
  -60.6011   27.6524   18.2303 O   0  0  0  0  0  0  0  0  0  0  0  0
  -62.9853   26.9809   19.9364 H   0  0  0  0  0  0  0  0  0  0  0  0
  4  5  2  0  0  0
  4  6  1  0  0  0
  4  1  1  0  0  0
  1  2  1  0  0  0
  1  8  1  0  0  0
  8  9  1  0  0  0
  9 10  1  0  0  0
  9 11  2  0  0  0
  6  7  1  0  0  0
  2  3  1  0  0  0
 10 12  1  0  0  0
M  END
> <minimizedAffinity>
-4.59318

$$$$
2YFA_LMR_A_501


 12 11  0  0  0  0  0  0  0  0999 V2000
  -63.4641   27.7907   18.0385 C   0  0  0  0  0  0  0  0  0  0  0  0
  -64.2790   26.6862   17.7099 O   0  0  0  0  0  0  0  0  0  0  0  0
  -64.6869   26.3340   18.5164 H   0  0  0  0  0  0  0  0  0  0  0  0
  -62.4367   27.3065   19.0032 C   0  0  0  0  0  0  0  0  0  0  0  0
  -61.3644   27.9530   19.1276 O   0  0  0  0  0  0  0  0  0  0  0  0
  -62.6759   26.2819   19.6983 O   0  0  0  0  0  0  0  0  0  0  0  0
  -63.4822   25.8178   19.5866 H   0  0  0  0  0  0  0  0  0  0  0  0
  -64.2891   28.9079   18.6674 C   0  0  0  0  0  0  0  0  0  0  0  0
  -65.5193   28.3264   19.3168 C   0  0  0  0  0  0  0  0  0  0  0  0
  -65.4330   27.6993   20.3968 O   0  0  0  0  0  0  0  0  0  0  0  0
  -66.6433   28.4621   18.7831 O   0  0  0  0  0  0  0  0  0  0  0  0
  -64.5988   27.5890   20.8090 H   0  0  0  0  0  0  0  0  0  0  0  0
  4  5  2  0  0  0
  4  6  1  0  0  0
  4  1  1  0  0  0
  1  2  1  0  0  0
  1  8  1  0  0  0
  8  9  1  0  0  0
  9 10  1  0  0  0
  9 11  2  0  0  0
  6  7  1  0  0  0
  2  3  1  0  0  0
 10 12  1  0  0  0
M  END
> <minimizedAffinity>
-4.40001

$$$$
2YFA_LMR_A_501


 12 11  0  0  0  0  0  0  0  0999 V2000
  -63.3329   27.6634   18.7021 C   0  0  0  0  0  0  0  0  0  0  0  0
  -62.1427   28.2553   19.1767 O   0  0  0  0  0  0  0  0  0  0  0  0
  -62.0064   29.1074   18.7338 H   0  0  0  0  0  0  0  0  0  0  0  0
  -63.1822   27.4950   17.2291 C   0  0  0  0  0  0  0  0  0  0  0  0
  -64.1249   26.9790   16.5748 O   0  0  0  0  0  0  0  0  0  0  0  0
  -62.1309   27.9031   16.6648 O   0  0  0  0  0  0  0  0  0  0  0  0
  -61.4430   28.2838   17.1746 H   0  0  0  0  0  0  0  0  0  0  0  0
  -64.5388   28.5443   19.0088 C   0  0  0  0  0  0  0  0  0  0  0  0
  -65.5811   27.7399   19.7437 C   0  0  0  0  0  0  0  0  0  0  0  0
  -66.5983   28.2960   20.2157 O   0  0  0  0  0  0  0  0  0  0  0  0
  -65.4414   26.5050   19.8926 O   0  0  0  0  0  0  0  0  0  0  0  0
  -66.7176   29.2197   20.1127 H   0  0  0  0  0  0  0  0  0  0  0  0
  4  5  2  0  0  0
  4  6  1  0  0  0
  4  1  1  0  0  0
  1  2  1  0  0  0
  1  8  1  0  0  0
  8  9  1  0  0  0
  9 10  1  0  0  0
  9 11  2  0  0  0
  6  7  1  0  0  0
  2  3  1  0  0  0
 10 12  1  0  0  0
M  END
> <minimizedAffinity>
-4.32070

$$$$
2YFA_LMR_A_501


 12 11  0  0  0  0  0  0  0  0999 V2000
  -64.7143   29.2907   18.5208 C   0  0  0  0  0  0  0  0  0  0  0  0
  -65.9622   28.6413   18.4076 O   0  0  0  0  0  0  0  0  0  0  0  0
  -65.9444   28.0366   17.6494 H   0  0  0  0  0  0  0  0  0  0  0  0
  -64.4834   30.0233   17.2438 C   0  0  0  0  0  0  0  0  0  0  0  0
  -65.1071   31.0959   17.0348 O   0  0  0  0  0  0  0  0  0  0  0  0
  -63.6448   29.5736   16.4163 O   0  0  0  0  0  0  0  0  0  0  0  0
  -63.1933   28.7723   16.5953 H   0  0  0  0  0  0  0  0  0  0  0  0
  -63.5953   28.2826   18.7570 C   0  0  0  0  0  0  0  0  0  0  0  0
  -64.0371   26.9167   18.2959 C   0  0  0  0  0  0  0  0  0  0  0  0
  -64.0748   26.6381   17.0761 O   0  0  0  0  0  0  0  0  0  0  0  0
  -64.3734   26.0439   19.1275 O   0  0  0  0  0  0  0  0  0  0  0  0
  -63.8262   27.2805   16.4409 H   0  0  0  0  0  0  0  0  0  0  0  0
  4  5  2  0  0  0
  4  6  1  0  0  0
  4  1  1  0  0  0
  1  2  1  0  0  0
  1  8  1  0  0  0
  8  9  1  0  0  0
  9 10  1  0  0  0
  9 11  2  0  0  0
  6  7  1  0  0  0
  2  3  1  0  0  0
 10 12  1  0  0  0
M  END
> <minimizedAffinity>
-4.23758

$$$$
2YFA_LMR_A_501


 12 11  0  0  0  0  0  0  0  0999 V2000
  -63.4436   27.1540   18.3623 C   0  0  0  0  0  0  0  0  0  0  0  0
  -64.2049   26.8835   17.2050 O   0  0  0  0  0  0  0  0  0  0  0  0
  -65.1462   26.8535   17.4369 H   0  0  0  0  0  0  0  0  0  0  0  0
  -63.7304   26.0668   19.3402 C   0  0  0  0  0  0  0  0  0  0  0  0
  -62.8415   25.7427   20.1698 O   0  0  0  0  0  0  0  0  0  0  0  0
  -64.8661   25.5187   19.3397 O   0  0  0  0  0  0  0  0  0  0  0  0
  -65.5110   25.7779   18.7113 H   0  0  0  0  0  0  0  0  0  0  0  0
  -63.8187   28.5068   18.9568 C   0  0  0  0  0  0  0  0  0  0  0  0
  -65.1892   28.9106   18.4748 C   0  0  0  0  0  0  0  0  0  0  0  0
  -65.3196   29.7739   17.5778 O   0  0  0  0  0  0  0  0  0  0  0  0
  -66.2146   28.3885   18.9671 O   0  0  0  0  0  0  0  0  0  0  0  0
  -64.5618   30.1742   17.1991 H   0  0  0  0  0  0  0  0  0  0  0  0
  4  5  2  0  0  0
  4  6  1  0  0  0
  4  1  1  0  0  0
  1  2  1  0  0  0
  1  8  1  0  0  0
  8  9  1  0  0  0
  9 10  1  0  0  0
  9 11  2  0  0  0
  6  7  1  0  0  0
  2  3  1  0  0  0
 10 12  1  0  0  0
M  END
> <minimizedAffinity>
-4.15776

$$$$
