2Y5G_FJD_A_1244


 31 35  0  0  0  0  0  0  0  0999 V2000
   -1.0375   11.8471   22.3190 C   0  0  0  0  0  0  0  0  0  0  0  0
   -1.5092   13.1205   21.7523 N   0  0  0  0  0  0  0  0  0  0  0  0
   -1.4315   12.9998   20.2839 C   0  0  0  0  0  0  0  0  0  0  0  0
   -0.1155   13.6206   19.8330 C   0  0  0  0  0  0  0  0  0  0  0  0
    0.2844   14.5567   20.9659 C   0  0  0  0  0  0  0  0  0  0  0  0
   -0.6734   14.2784   22.1241 C   0  0  0  0  0  0  0  0  0  0  0  0
   -1.5468   11.5235   19.9671 C   0  0  0  0  0  0  0  0  0  0  0  0
   -1.5103   10.8007   21.3114 C   0  0  0  0  0  0  0  0  0  0  0  0
   -2.9315   10.2901   21.4238 C   0  0  0  0  0  0  0  0  0  0  0  0
   -3.4777    9.8545   22.4236 O   0  0  0  0  0  0  0  0  0  0  0  0
   -2.8983   11.2544   19.3811 C   0  0  0  0  0  0  0  0  0  0  0  0
   -3.3802   11.7859   18.3807 O   0  0  0  0  0  0  0  0  0  0  0  0
   -3.5806   10.3102   20.1561 N   0  0  0  0  0  0  0  0  0  0  0  0
   -1.8430   10.4319   25.4797 C   0  0  0  0  0  0  0  0  0  0  0  0
   -1.1992   10.4067   24.2683 O   0  0  0  0  0  0  0  0  0  0  0  0
   -2.6576   11.4978   25.5620 C   0  0  0  0  0  0  0  0  0  0  0  0
   -2.4394   12.2460   24.3949 N   0  0  0  0  0  0  0  0  0  0  0  0
   -1.5860   11.5849   23.6752 C   0  0  0  0  0  0  0  0  0  0  0  0
   -0.4324    5.6762   27.8678 Cl  0  0  0  0  0  0  0  0  0  0  0  0
   -1.1999    7.2532   27.4506 C   0  0  0  0  0  0  0  0  0  0  0  0
   -2.3184    7.7882   28.0349 C   0  0  0  0  0  0  0  0  0  0  0  0
   -2.6415    9.0097   27.4060 C   0  0  0  0  0  0  0  0  0  0  0  0
   -0.5165    8.1428   26.1652 S   0  0  0  0  0  0  0  0  0  0  0  0
   -1.7462    9.3310   26.3698 C   0  0  0  0  0  0  0  0  0  0  0  0
   -5.0403   10.2616   20.0899 C   0  0  0  0  0  0  0  0  0  0  0  0
   -5.2653    8.7536   19.9279 C   0  0  0  0  0  0  0  0  0  0  0  0
   -4.7430    8.2263   18.6011 C   0  0  0  0  0  0  0  0  0  0  0  0
   -5.6716    7.3481   17.8692 N   0  0  0  0  0  0  0  0  0  0  0  0
   -7.0253    7.3943   18.4623 C   0  0  0  0  0  0  0  0  0  0  0  0
   -5.1616    5.9861   18.0425 C   0  0  0  0  0  0  0  0  0  0  0  0
   -5.6970    7.6480   16.4243 C   0  0  0  0  0  0  0  0  0  0  0  0
  1  8  1  0  0  0
  1  2  1  0  0  0
  1 18  1  0  0  0
 23 24  1  0  0  0
 23 20  1  0  0  0
 19 20  1  0  0  0
  8  7  1  0  0  0
  8  9  1  0  0  0
  2  3  1  0  0  0
  2  6  1  0  0  0
 18 17  2  0  0  0
 18 15  1  0  0  0
  7  3  1  0  0  0
  7 11  1  0  0  0
  9 13  1  0  0  0
  9 10  2  0  0  0
  3  4  1  0  0  0
  6  5  1  0  0  0
 17 16  1  0  0  0
 16 14  2  0  0  0
 11 13  1  0  0  0
 11 12  2  0  0  0
 13 25  1  0  0  0
  4  5  1  0  0  0
 15 14  1  0  0  0
 14 24  1  0  0  0
 25 26  1  0  0  0
 24 22  2  0  0  0
 26 27  1  0  0  0
 22 21  1  0  0  0
 27 28  1  0  0  0
 21 20  2  0  0  0
 28 31  1  0  0  0
 28 30  1  0  0  0
 28 29  1  0  0  0
M  CHG 1  28   1
M  END
> <minimizedAffinity>
-9.23124

$$$$
2Y5G_FJD_A_1244


 31 35  0  0  0  0  0  0  0  0999 V2000
   -3.2884   12.7781   23.4086 C   0  0  0  0  0  0  0  0  0  0  0  0
   -4.5693   12.5906   24.1081 N   0  0  0  0  0  0  0  0  0  0  0  0
   -5.6389   12.9928   23.1748 C   0  0  0  0  0  0  0  0  0  0  0  0
   -6.0123   14.4364   23.4861 C   0  0  0  0  0  0  0  0  0  0  0  0
   -5.5454   14.6616   24.9182 C   0  0  0  0  0  0  0  0  0  0  0  0
   -4.7172   13.4373   25.3075 C   0  0  0  0  0  0  0  0  0  0  0  0
   -5.0876   12.7955   21.7782 C   0  0  0  0  0  0  0  0  0  0  0  0
   -3.6129   12.4416   21.9543 C   0  0  0  0  0  0  0  0  0  0  0  0
   -3.5946   10.9865   21.5354 C   0  0  0  0  0  0  0  0  0  0  0  0
   -2.6994   10.1799   21.7239 O   0  0  0  0  0  0  0  0  0  0  0  0
   -5.7378   11.5956   21.1620 C   0  0  0  0  0  0  0  0  0  0  0  0
   -6.9460   11.4187   21.0052 O   0  0  0  0  0  0  0  0  0  0  0  0
   -4.7679   10.6547   20.7991 N   0  0  0  0  0  0  0  0  0  0  0  0
   -1.4311   10.2842   25.1326 C   0  0  0  0  0  0  0  0  0  0  0  0
   -2.6060   10.9147   24.8096 O   0  0  0  0  0  0  0  0  0  0  0  0
   -0.3829   10.9270   24.5897 C   0  0  0  0  0  0  0  0  0  0  0  0
   -0.9223   11.9487   23.7931 N   0  0  0  0  0  0  0  0  0  0  0  0
   -2.2104   11.9055   23.9427 C   0  0  0  0  0  0  0  0  0  0  0  0
   -0.3986    5.5586   27.7616 Cl  0  0  0  0  0  0  0  0  0  0  0  0
   -1.0358    7.1705   27.2659 C   0  0  0  0  0  0  0  0  0  0  0  0
   -2.0993    7.8277   27.8276 C   0  0  0  0  0  0  0  0  0  0  0  0
   -2.3256    9.0374   27.1366 C   0  0  0  0  0  0  0  0  0  0  0  0
   -0.2938    7.9308   25.9308 S   0  0  0  0  0  0  0  0  0  0  0  0
   -1.4174    9.2274   26.0794 C   0  0  0  0  0  0  0  0  0  0  0  0
   -5.1597    9.2535   20.6554 C   0  0  0  0  0  0  0  0  0  0  0  0
   -5.0251    9.0771   19.1382 C   0  0  0  0  0  0  0  0  0  0  0  0
   -4.7897    7.6292   18.7392 C   0  0  0  0  0  0  0  0  0  0  0  0
   -5.8816    7.0079   17.9704 N   0  0  0  0  0  0  0  0  0  0  0  0
   -5.9909    5.5650   18.2743 C   0  0  0  0  0  0  0  0  0  0  0  0
   -5.5059    7.1334   16.5604 C   0  0  0  0  0  0  0  0  0  0  0  0
   -7.1665    7.7071   18.1667 C   0  0  0  0  0  0  0  0  0  0  0  0
  1  8  1  0  0  0
  1  2  1  0  0  0
  1 18  1  0  0  0
 23 24  1  0  0  0
 23 20  1  0  0  0
 19 20  1  0  0  0
  8  7  1  0  0  0
  8  9  1  0  0  0
  2  3  1  0  0  0
  2  6  1  0  0  0
 18 17  2  0  0  0
 18 15  1  0  0  0
  7  3  1  0  0  0
  7 11  1  0  0  0
  9 13  1  0  0  0
  9 10  2  0  0  0
  3  4  1  0  0  0
  6  5  1  0  0  0
 17 16  1  0  0  0
 16 14  2  0  0  0
 11 13  1  0  0  0
 11 12  2  0  0  0
 13 25  1  0  0  0
  4  5  1  0  0  0
 15 14  1  0  0  0
 14 24  1  0  0  0
 25 26  1  0  0  0
 24 22  2  0  0  0
 26 27  1  0  0  0
 22 21  1  0  0  0
 27 28  1  0  0  0
 21 20  2  0  0  0
 28 31  1  0  0  0
 28 30  1  0  0  0
 28 29  1  0  0  0
M  CHG 1  28   1
M  END
> <minimizedAffinity>
-8.64894

$$$$
2Y5G_FJD_A_1244


 31 35  0  0  0  0  0  0  0  0999 V2000
   -0.6073   11.5950   22.4496 C   0  0  0  0  0  0  0  0  0  0  0  0
   -0.8455   12.9420   21.9073 N   0  0  0  0  0  0  0  0  0  0  0  0
   -0.7207   12.8499   20.4401 C   0  0  0  0  0  0  0  0  0  0  0  0
    0.6961   13.2650   20.0647 C   0  0  0  0  0  0  0  0  0  0  0  0
    1.1866   14.0947   21.2440 C   0  0  0  0  0  0  0  0  0  0  0  0
    0.1449   13.9416   22.3519 C   0  0  0  0  0  0  0  0  0  0  0  0
   -1.0533   11.4199   20.0692 C   0  0  0  0  0  0  0  0  0  0  0  0
   -1.1930   10.6647   21.3887 C   0  0  0  0  0  0  0  0  0  0  0  0
   -2.6806   10.3843   21.4256 C   0  0  0  0  0  0  0  0  0  0  0  0
   -3.3340   10.0146   22.3869 O   0  0  0  0  0  0  0  0  0  0  0  0
   -2.4021   11.3854   19.4197 C   0  0  0  0  0  0  0  0  0  0  0  0
   -2.7476   12.0136   18.4189 O   0  0  0  0  0  0  0  0  0  0  0  0
   -3.2598   10.5416   20.1337 N   0  0  0  0  0  0  0  0  0  0  0  0
   -1.6779   10.2850   25.5767 C   0  0  0  0  0  0  0  0  0  0  0  0
   -0.9618   10.2040   24.4093 O   0  0  0  0  0  0  0  0  0  0  0  0
   -2.4423   11.3905   25.5888 C   0  0  0  0  0  0  0  0  0  0  0  0
   -2.1149   12.1033   24.4251 N   0  0  0  0  0  0  0  0  0  0  0  0
   -1.2519   11.3873   23.7725 C   0  0  0  0  0  0  0  0  0  0  0  0
   -0.6275    5.5345   28.1534 Cl  0  0  0  0  0  0  0  0  0  0  0  0
   -1.3055    7.1264   27.6473 C   0  0  0  0  0  0  0  0  0  0  0  0
   -2.4505    7.7075   28.1270 C   0  0  0  0  0  0  0  0  0  0  0  0
   -2.6800    8.9261   27.4530 C   0  0  0  0  0  0  0  0  0  0  0  0
   -0.4888    7.9692   26.4088 S   0  0  0  0  0  0  0  0  0  0  0  0
   -1.6916    9.1991   26.4901 C   0  0  0  0  0  0  0  0  0  0  0  0
   -4.7042   10.7281   20.0063 C   0  0  0  0  0  0  0  0  0  0  0  0
   -4.8504   12.1628   20.5273 C   0  0  0  0  0  0  0  0  0  0  0  0
   -5.8206   12.2626   21.6934 C   0  0  0  0  0  0  0  0  0  0  0  0
   -5.5865   13.3954   22.6052 N   0  0  0  0  0  0  0  0  0  0  0  0
   -5.6797   12.9682   24.0177 C   0  0  0  0  0  0  0  0  0  0  0  0
   -6.6753   14.3438   22.3597 C   0  0  0  0  0  0  0  0  0  0  0  0
   -4.3096   14.0799   22.3238 C   0  0  0  0  0  0  0  0  0  0  0  0
  1  8  1  0  0  0
  1  2  1  0  0  0
  1 18  1  0  0  0
 23 24  1  0  0  0
 23 20  1  0  0  0
 19 20  1  0  0  0
  8  7  1  0  0  0
  8  9  1  0  0  0
  2  3  1  0  0  0
  2  6  1  0  0  0
 18 17  2  0  0  0
 18 15  1  0  0  0
  7  3  1  0  0  0
  7 11  1  0  0  0
  9 13  1  0  0  0
  9 10  2  0  0  0
  3  4  1  0  0  0
  6  5  1  0  0  0
 17 16  1  0  0  0
 16 14  2  0  0  0
 11 13  1  0  0  0
 11 12  2  0  0  0
 13 25  1  0  0  0
  4  5  1  0  0  0
 15 14  1  0  0  0
 14 24  1  0  0  0
 25 26  1  0  0  0
 24 22  2  0  0  0
 26 27  1  0  0  0
 22 21  1  0  0  0
 27 28  1  0  0  0
 21 20  2  0  0  0
 28 31  1  0  0  0
 28 30  1  0  0  0
 28 29  1  0  0  0
M  CHG 1  28   1
M  END
> <minimizedAffinity>
-8.17140

$$$$
2Y5G_FJD_A_1244


 31 35  0  0  0  0  0  0  0  0999 V2000
   -1.2040   12.1633   22.2671 C   0  0  0  0  0  0  0  0  0  0  0  0
   -1.8234   13.3623   21.6805 N   0  0  0  0  0  0  0  0  0  0  0  0
   -1.6911   13.2492   20.2155 C   0  0  0  0  0  0  0  0  0  0  0  0
   -0.4564   14.0363   19.7956 C   0  0  0  0  0  0  0  0  0  0  0  0
   -0.2133   15.0197   20.9330 C   0  0  0  0  0  0  0  0  0  0  0  0
   -1.1571   14.6209   22.0672 C   0  0  0  0  0  0  0  0  0  0  0  0
   -1.6032   11.7697   19.9046 C   0  0  0  0  0  0  0  0  0  0  0  0
   -1.5082   11.0614   21.2537 C   0  0  0  0  0  0  0  0  0  0  0  0
   -2.8526   10.3688   21.3318 C   0  0  0  0  0  0  0  0  0  0  0  0
   -3.3635    9.8677   22.3194 O   0  0  0  0  0  0  0  0  0  0  0  0
   -2.8914   11.3239   19.2849 C   0  0  0  0  0  0  0  0  0  0  0  0
   -3.4118   11.7851   18.2690 O   0  0  0  0  0  0  0  0  0  0  0  0
   -3.4645   10.3003   20.0473 N   0  0  0  0  0  0  0  0  0  0  0  0
   -1.9488   10.6277   25.3862 C   0  0  0  0  0  0  0  0  0  0  0  0
   -1.2903   10.6729   24.1834 O   0  0  0  0  0  0  0  0  0  0  0  0
   -2.8354   11.6336   25.4799 C   0  0  0  0  0  0  0  0  0  0  0  0
   -2.6549   12.4203   24.3318 N   0  0  0  0  0  0  0  0  0  0  0  0
   -1.7496   11.8348   23.6099 C   0  0  0  0  0  0  0  0  0  0  0  0
   -0.3943    5.8309   27.5960 Cl  0  0  0  0  0  0  0  0  0  0  0  0
   -1.1749    7.4215   27.2633 C   0  0  0  0  0  0  0  0  0  0  0  0
   -2.2296    7.9645   27.9499 C   0  0  0  0  0  0  0  0  0  0  0  0
   -2.5912    9.1963   27.3634 C   0  0  0  0  0  0  0  0  0  0  0  0
   -0.5971    8.3155   25.9299 S   0  0  0  0  0  0  0  0  0  0  0  0
   -1.7877    9.5168   26.2542 C   0  0  0  0  0  0  0  0  0  0  0  0
   -4.9028   10.0602   19.9431 C   0  0  0  0  0  0  0  0  0  0  0  0
   -5.4452   11.4631   20.2415 C   0  0  0  0  0  0  0  0  0  0  0  0
   -6.2984   11.5020   21.4991 C   0  0  0  0  0  0  0  0  0  0  0  0
   -7.7529   11.4932   21.2675 N   0  0  0  0  0  0  0  0  0  0  0  0
   -8.0840   12.0725   19.9480 C   0  0  0  0  0  0  0  0  0  0  0  0
   -8.3305   12.3687   22.2897 C   0  0  0  0  0  0  0  0  0  0  0  0
   -8.3337   10.1468   21.4351 C   0  0  0  0  0  0  0  0  0  0  0  0
  1  8  1  0  0  0
  1  2  1  0  0  0
  1 18  1  0  0  0
 23 24  1  0  0  0
 23 20  1  0  0  0
 19 20  1  0  0  0
  8  7  1  0  0  0
  8  9  1  0  0  0
  2  3  1  0  0  0
  2  6  1  0  0  0
 18 17  2  0  0  0
 18 15  1  0  0  0
  7  3  1  0  0  0
  7 11  1  0  0  0
  9 13  1  0  0  0
  9 10  2  0  0  0
  3  4  1  0  0  0
  6  5  1  0  0  0
 17 16  1  0  0  0
 16 14  2  0  0  0
 11 13  1  0  0  0
 11 12  2  0  0  0
 13 25  1  0  0  0
  4  5  1  0  0  0
 15 14  1  0  0  0
 14 24  1  0  0  0
 25 26  1  0  0  0
 24 22  2  0  0  0
 26 27  1  0  0  0
 22 21  1  0  0  0
 27 28  1  0  0  0
 21 20  2  0  0  0
 28 31  1  0  0  0
 28 30  1  0  0  0
 28 29  1  0  0  0
M  CHG 1  28   1
M  END
> <minimizedAffinity>
-7.65474

$$$$
2Y5G_FJD_A_1244


 31 35  0  0  0  0  0  0  0  0999 V2000
   -2.8531   10.2147   22.2940 C   0  0  0  0  0  0  0  0  0  0  0  0
   -2.5998   11.2901   23.2659 N   0  0  0  0  0  0  0  0  0  0  0  0
   -1.1392   11.3688   23.4585 C   0  0  0  0  0  0  0  0  0  0  0  0
   -0.7872   10.5593   24.7000 C   0  0  0  0  0  0  0  0  0  0  0  0
   -2.0829   10.4806   25.4966 C   0  0  0  0  0  0  0  0  0  0  0  0
   -3.1863   11.0349   24.5958 C   0  0  0  0  0  0  0  0  0  0  0  0
   -0.5087   10.8379   22.1881 C   0  0  0  0  0  0  0  0  0  0  0  0
   -1.6579   10.2898   21.3456 C   0  0  0  0  0  0  0  0  0  0  0  0
   -1.7083   11.2887   20.2086 C   0  0  0  0  0  0  0  0  0  0  0  0
   -2.6071   11.4314   19.3966 O   0  0  0  0  0  0  0  0  0  0  0  0
    0.0708   11.9824   21.4158 C   0  0  0  0  0  0  0  0  0  0  0  0
    0.9102   12.7868   21.8207 O   0  0  0  0  0  0  0  0  0  0  0  0
   -0.5017   12.0427   20.1405 N   0  0  0  0  0  0  0  0  0  0  0  0
   -5.7054    9.7845   20.2153 C   0  0  0  0  0  0  0  0  0  0  0  0
   -4.5124    9.3569   20.7411 O   0  0  0  0  0  0  0  0  0  0  0  0
   -5.9728   11.0422   20.6068 C   0  0  0  0  0  0  0  0  0  0  0  0
   -4.9595   11.3922   21.5125 N   0  0  0  0  0  0  0  0  0  0  0  0
   -4.1376   10.3897   21.5672 C   0  0  0  0  0  0  0  0  0  0  0  0
   -8.6390    8.1726   15.8444 Cl  0  0  0  0  0  0  0  0  0  0  0  0
   -7.6844    8.2341   17.3725 C   0  0  0  0  0  0  0  0  0  0  0  0
   -7.5077    7.2029   18.2580 C   0  0  0  0  0  0  0  0  0  0  0  0
   -6.7426    7.6496   19.3567 C   0  0  0  0  0  0  0  0  0  0  0  0
   -6.9835    9.7296   17.8002 S   0  0  0  0  0  0  0  0  0  0  0  0
   -6.3847    9.0052   19.2433 C   0  0  0  0  0  0  0  0  0  0  0  0
   -0.4816   13.3116   19.4148 C   0  0  0  0  0  0  0  0  0  0  0  0
   -1.1020   14.2450   20.4612 C   0  0  0  0  0  0  0  0  0  0  0  0
   -2.2115   15.1100   19.8849 C   0  0  0  0  0  0  0  0  0  0  0  0
   -3.3719   15.3085   20.7699 N   0  0  0  0  0  0  0  0  0  0  0  0
   -3.5095   16.7296   21.1545 C   0  0  0  0  0  0  0  0  0  0  0  0
   -3.0858   14.5486   21.9888 C   0  0  0  0  0  0  0  0  0  0  0  0
   -4.6168   14.7784   20.1804 C   0  0  0  0  0  0  0  0  0  0  0  0
  1  8  1  0  0  0
  1  2  1  0  0  0
  1 18  1  0  0  0
 23 24  1  0  0  0
 23 20  1  0  0  0
 19 20  1  0  0  0
  8  7  1  0  0  0
  8  9  1  0  0  0
  2  3  1  0  0  0
  2  6  1  0  0  0
 18 17  2  0  0  0
 18 15  1  0  0  0
  7  3  1  0  0  0
  7 11  1  0  0  0
  9 13  1  0  0  0
  9 10  2  0  0  0
  3  4  1  0  0  0
  6  5  1  0  0  0
 17 16  1  0  0  0
 16 14  2  0  0  0
 11 13  1  0  0  0
 11 12  2  0  0  0
 13 25  1  0  0  0
  4  5  1  0  0  0
 15 14  1  0  0  0
 14 24  1  0  0  0
 25 26  1  0  0  0
 24 22  2  0  0  0
 26 27  1  0  0  0
 22 21  1  0  0  0
 27 28  1  0  0  0
 21 20  2  0  0  0
 28 31  1  0  0  0
 28 30  1  0  0  0
 28 29  1  0  0  0
M  CHG 1  28   1
M  END
> <minimizedAffinity>
-7.61273

$$$$
2Y5G_FJD_A_1244


 31 35  0  0  0  0  0  0  0  0999 V2000
   -2.6316   11.6888   21.5941 C   0  0  0  0  0  0  0  0  0  0  0  0
   -2.6639   10.8086   22.7728 N   0  0  0  0  0  0  0  0  0  0  0  0
   -2.5180   11.6680   23.9632 C   0  0  0  0  0  0  0  0  0  0  0  0
   -1.0481   11.6666   24.3632 C   0  0  0  0  0  0  0  0  0  0  0  0
   -0.4739   10.4009   23.7403 C   0  0  0  0  0  0  0  0  0  0  0  0
   -1.5533    9.8379   22.8161 C   0  0  0  0  0  0  0  0  0  0  0  0
   -3.0402   13.0349   23.5733 C   0  0  0  0  0  0  0  0  0  0  0  0
   -3.3170   12.9672   22.0733 C   0  0  0  0  0  0  0  0  0  0  0  0
   -4.8298   13.0245   22.0378 C   0  0  0  0  0  0  0  0  0  0  0  0
   -5.5519   12.7631   21.0902 O   0  0  0  0  0  0  0  0  0  0  0  0
   -4.3642   13.2586   24.2360 C   0  0  0  0  0  0  0  0  0  0  0  0
   -4.5933   13.2143   25.4448 O   0  0  0  0  0  0  0  0  0  0  0  0
   -5.3495   13.5054   23.2737 N   0  0  0  0  0  0  0  0  0  0  0  0
   -4.6420    9.6982   19.4407 C   0  0  0  0  0  0  0  0  0  0  0  0
   -4.1411   10.0215   20.6764 O   0  0  0  0  0  0  0  0  0  0  0  0
   -4.0784   10.4588   18.4865 C   0  0  0  0  0  0  0  0  0  0  0  0
   -3.2636   11.3843   19.1566 N   0  0  0  0  0  0  0  0  0  0  0  0
   -3.3308   11.1022   20.4212 C   0  0  0  0  0  0  0  0  0  0  0  0
   -6.7795    4.8943   17.8089 Cl  0  0  0  0  0  0  0  0  0  0  0  0
   -6.4890    6.4953   18.5851 C   0  0  0  0  0  0  0  0  0  0  0  0
   -7.4089    7.2359   19.2808 C   0  0  0  0  0  0  0  0  0  0  0  0
   -6.8224    8.4519   19.6924 C   0  0  0  0  0  0  0  0  0  0  0  0
   -4.9454    7.1948   18.3871 S   0  0  0  0  0  0  0  0  0  0  0  0
   -5.4832    8.5671   19.2779 C   0  0  0  0  0  0  0  0  0  0  0  0
   -6.7496   13.2587   23.6147 C   0  0  0  0  0  0  0  0  0  0  0  0
   -7.3261   14.6732   23.4806 C   0  0  0  0  0  0  0  0  0  0  0  0
   -7.5878   15.3254   24.8286 C   0  0  0  0  0  0  0  0  0  0  0  0
   -6.9256   16.6251   25.0325 N   0  0  0  0  0  0  0  0  0  0  0  0
   -7.8409   17.5926   25.6748 C   0  0  0  0  0  0  0  0  0  0  0  0
   -6.6147   17.1348   23.6951 C   0  0  0  0  0  0  0  0  0  0  0  0
   -5.6591   16.4920   25.7785 C   0  0  0  0  0  0  0  0  0  0  0  0
  1  8  1  0  0  0
  1  2  1  0  0  0
  1 18  1  0  0  0
 23 24  1  0  0  0
 23 20  1  0  0  0
 19 20  1  0  0  0
  8  7  1  0  0  0
  8  9  1  0  0  0
  2  3  1  0  0  0
  2  6  1  0  0  0
 18 17  2  0  0  0
 18 15  1  0  0  0
  7  3  1  0  0  0
  7 11  1  0  0  0
  9 13  1  0  0  0
  9 10  2  0  0  0
  3  4  1  0  0  0
  6  5  1  0  0  0
 17 16  1  0  0  0
 16 14  2  0  0  0
 11 13  1  0  0  0
 11 12  2  0  0  0
 13 25  1  0  0  0
  4  5  1  0  0  0
 15 14  1  0  0  0
 14 24  1  0  0  0
 25 26  1  0  0  0
 24 22  2  0  0  0
 26 27  1  0  0  0
 22 21  1  0  0  0
 27 28  1  0  0  0
 21 20  2  0  0  0
 28 31  1  0  0  0
 28 30  1  0  0  0
 28 29  1  0  0  0
M  CHG 1  28   1
M  END
> <minimizedAffinity>
-7.48329

$$$$
2Y5G_FJD_A_1244


 31 35  0  0  0  0  0  0  0  0999 V2000
   -0.6735   12.0891   22.5794 C   0  0  0  0  0  0  0  0  0  0  0  0
   -0.4817   13.3870   21.9132 N   0  0  0  0  0  0  0  0  0  0  0  0
   -0.0399   13.1080   20.5334 C   0  0  0  0  0  0  0  0  0  0  0  0
    1.4807   13.1953   20.5030 C   0  0  0  0  0  0  0  0  0  0  0  0
    1.8487   14.0414   21.7148 C   0  0  0  0  0  0  0  0  0  0  0  0
    0.5687   14.2190   22.5312 C   0  0  0  0  0  0  0  0  0  0  0  0
   -0.5768   11.7372   20.1789 C   0  0  0  0  0  0  0  0  0  0  0  0
   -1.1811   11.1768   21.4641 C   0  0  0  0  0  0  0  0  0  0  0  0
   -2.6604   11.1963   21.1415 C   0  0  0  0  0  0  0  0  0  0  0  0
   -3.5846   11.0710   21.9275 O   0  0  0  0  0  0  0  0  0  0  0  0
   -1.7108   11.8921   19.2133 C   0  0  0  0  0  0  0  0  0  0  0  0
   -1.6686   12.4587   18.1212 O   0  0  0  0  0  0  0  0  0  0  0  0
   -2.8731   11.3165   19.7381 N   0  0  0  0  0  0  0  0  0  0  0  0
   -3.2852   13.0167   24.8064 C   0  0  0  0  0  0  0  0  0  0  0  0
   -2.5400   13.1981   23.6688 O   0  0  0  0  0  0  0  0  0  0  0  0
   -2.7897   12.0070   25.5423 C   0  0  0  0  0  0  0  0  0  0  0  0
   -1.7488   11.4475   24.7853 N   0  0  0  0  0  0  0  0  0  0  0  0
   -1.6390   12.1606   23.7070 C   0  0  0  0  0  0  0  0  0  0  0  0
   -7.9052   16.0081   24.9382 Cl  0  0  0  0  0  0  0  0  0  0  0  0
   -6.2737   15.3114   25.2594 C   0  0  0  0  0  0  0  0  0  0  0  0
   -5.3223   15.8324   26.0973 C   0  0  0  0  0  0  0  0  0  0  0  0
   -4.1596   15.0340   26.0463 C   0  0  0  0  0  0  0  0  0  0  0  0
   -5.8366   13.9063   24.3961 S   0  0  0  0  0  0  0  0  0  0  0  0
   -4.2948   13.9482   25.1623 C   0  0  0  0  0  0  0  0  0  0  0  0
   -4.1723   11.7641   19.2391 C   0  0  0  0  0  0  0  0  0  0  0  0
   -4.4630   10.6786   18.1959 C   0  0  0  0  0  0  0  0  0  0  0  0
   -4.4420    9.2795   18.7903 C   0  0  0  0  0  0  0  0  0  0  0  0
   -5.3993    8.3329   18.1929 N   0  0  0  0  0  0  0  0  0  0  0  0
   -4.9656    6.9351   18.4035 C   0  0  0  0  0  0  0  0  0  0  0  0
   -5.3746    8.5886   16.7510 C   0  0  0  0  0  0  0  0  0  0  0  0
   -6.7761    8.5570   18.6750 C   0  0  0  0  0  0  0  0  0  0  0  0
  1  8  1  0  0  0
  1  2  1  0  0  0
  1 18  1  0  0  0
 23 24  1  0  0  0
 23 20  1  0  0  0
 19 20  1  0  0  0
  8  7  1  0  0  0
  8  9  1  0  0  0
  2  3  1  0  0  0
  2  6  1  0  0  0
 18 17  2  0  0  0
 18 15  1  0  0  0
  7  3  1  0  0  0
  7 11  1  0  0  0
  9 13  1  0  0  0
  9 10  2  0  0  0
  3  4  1  0  0  0
  6  5  1  0  0  0
 17 16  1  0  0  0
 16 14  2  0  0  0
 11 13  1  0  0  0
 11 12  2  0  0  0
 13 25  1  0  0  0
  4  5  1  0  0  0
 15 14  1  0  0  0
 14 24  1  0  0  0
 25 26  1  0  0  0
 24 22  2  0  0  0
 26 27  1  0  0  0
 22 21  1  0  0  0
 27 28  1  0  0  0
 21 20  2  0  0  0
 28 31  1  0  0  0
 28 30  1  0  0  0
 28 29  1  0  0  0
M  CHG 1  28   1
M  END
> <minimizedAffinity>
-7.29993

$$$$
2Y5G_FJD_A_1244


 31 35  0  0  0  0  0  0  0  0999 V2000
   -3.8106   11.1733   22.4547 C   0  0  0  0  0  0  0  0  0  0  0  0
   -3.8710   12.6047   22.7904 N   0  0  0  0  0  0  0  0  0  0  0  0
   -2.6810   12.9118   23.6066 C   0  0  0  0  0  0  0  0  0  0  0  0
   -3.0904   12.8478   25.0725 C   0  0  0  0  0  0  0  0  0  0  0  0
   -4.6015   13.0381   25.0657 C   0  0  0  0  0  0  0  0  0  0  0  0
   -5.0457   12.9716   23.6047 C   0  0  0  0  0  0  0  0  0  0  0  0
   -1.6246   11.8958   23.2260 C   0  0  0  0  0  0  0  0  0  0  0  0
   -2.3161   10.8959   22.3024 C   0  0  0  0  0  0  0  0  0  0  0  0
   -1.6630   11.2052   20.9716 C   0  0  0  0  0  0  0  0  0  0  0  0
   -2.0386   10.8448   19.8686 O   0  0  0  0  0  0  0  0  0  0  0  0
   -0.5721   12.5713   22.4025 C   0  0  0  0  0  0  0  0  0  0  0  0
    0.0979   13.5499   22.7326 O   0  0  0  0  0  0  0  0  0  0  0  0
   -0.4607   11.9465   21.1555 N   0  0  0  0  0  0  0  0  0  0  0  0
   -5.3372    9.5096   19.7083 C   0  0  0  0  0  0  0  0  0  0  0  0
   -4.6045    9.5139   20.8682 O   0  0  0  0  0  0  0  0  0  0  0  0
   -5.6105   10.7654   19.3149 C   0  0  0  0  0  0  0  0  0  0  0  0
   -5.1256   11.6056   20.3291 N   0  0  0  0  0  0  0  0  0  0  0  0
   -4.5557   10.8441   21.2116 C   0  0  0  0  0  0  0  0  0  0  0  0
   -7.2792    4.6412   18.0237 Cl  0  0  0  0  0  0  0  0  0  0  0  0
   -6.3286    6.1597   18.2258 C   0  0  0  0  0  0  0  0  0  0  0  0
   -5.1370    6.4554   17.6163 C   0  0  0  0  0  0  0  0  0  0  0  0
   -4.6775    7.7131   18.0625 C   0  0  0  0  0  0  0  0  0  0  0  0
   -6.9256    7.3186   19.3265 S   0  0  0  0  0  0  0  0  0  0  0  0
   -5.5505    8.3012   18.9956 C   0  0  0  0  0  0  0  0  0  0  0  0
    0.1048   12.6971   20.0356 C   0  0  0  0  0  0  0  0  0  0  0  0
   -1.0216   13.7039   19.7733 C   0  0  0  0  0  0  0  0  0  0  0  0
   -1.3489   13.8391   18.2949 C   0  0  0  0  0  0  0  0  0  0  0  0
   -2.3325   14.8850   17.9663 N   0  0  0  0  0  0  0  0  0  0  0  0
   -3.5585   14.7355   18.7793 C   0  0  0  0  0  0  0  0  0  0  0  0
   -2.7034   14.6659   16.5665 C   0  0  0  0  0  0  0  0  0  0  0  0
   -1.7610   16.2408   18.0826 C   0  0  0  0  0  0  0  0  0  0  0  0
  1  8  1  0  0  0
  1  2  1  0  0  0
  1 18  1  0  0  0
 23 24  1  0  0  0
 23 20  1  0  0  0
 19 20  1  0  0  0
  8  7  1  0  0  0
  8  9  1  0  0  0
  2  3  1  0  0  0
  2  6  1  0  0  0
 18 17  2  0  0  0
 18 15  1  0  0  0
  7  3  1  0  0  0
  7 11  1  0  0  0
  9 13  1  0  0  0
  9 10  2  0  0  0
  3  4  1  0  0  0
  6  5  1  0  0  0
 17 16  1  0  0  0
 16 14  2  0  0  0
 11 13  1  0  0  0
 11 12  2  0  0  0
 13 25  1  0  0  0
  4  5  1  0  0  0
 15 14  1  0  0  0
 14 24  1  0  0  0
 25 26  1  0  0  0
 24 22  2  0  0  0
 26 27  1  0  0  0
 22 21  1  0  0  0
 27 28  1  0  0  0
 21 20  2  0  0  0
 28 31  1  0  0  0
 28 30  1  0  0  0
 28 29  1  0  0  0
M  CHG 1  28   1
M  END
> <minimizedAffinity>
-7.20938

$$$$
2Y5G_FJD_A_1244


 31 35  0  0  0  0  0  0  0  0999 V2000
   -6.9623   12.2058   21.8835 C   0  0  0  0  0  0  0  0  0  0  0  0
   -7.4876   13.5756   21.7691 N   0  0  0  0  0  0  0  0  0  0  0  0
   -7.1587   14.2752   23.0257 C   0  0  0  0  0  0  0  0  0  0  0  0
   -8.3762   14.1949   23.9378 C   0  0  0  0  0  0  0  0  0  0  0  0
   -9.5492   13.9309   23.0028 C   0  0  0  0  0  0  0  0  0  0  0  0
   -8.9551   13.6357   21.6258 C   0  0  0  0  0  0  0  0  0  0  0  0
   -5.9309   13.5915   23.5899 C   0  0  0  0  0  0  0  0  0  0  0  0
   -5.6857   12.3710   22.7060 C   0  0  0  0  0  0  0  0  0  0  0  0
   -4.4150   12.7662   21.9832 C   0  0  0  0  0  0  0  0  0  0  0  0
   -3.9386   12.2358   20.9936 O   0  0  0  0  0  0  0  0  0  0  0  0
   -4.7458   14.4884   23.4073 C   0  0  0  0  0  0  0  0  0  0  0  0
   -4.6308   15.6413   23.8235 O   0  0  0  0  0  0  0  0  0  0  0  0
   -3.7615   13.8396   22.6539 N   0  0  0  0  0  0  0  0  0  0  0  0
   -6.3097    9.9329   19.2285 C   0  0  0  0  0  0  0  0  0  0  0  0
   -6.5598   10.2177   20.5471 O   0  0  0  0  0  0  0  0  0  0  0  0
   -6.1729   11.0645   18.5163 C   0  0  0  0  0  0  0  0  0  0  0  0
   -6.4590   12.1174   19.3990 N   0  0  0  0  0  0  0  0  0  0  0  0
   -6.6829   11.5867   20.5616 C   0  0  0  0  0  0  0  0  0  0  0  0
   -6.8128    4.5930   17.9865 Cl  0  0  0  0  0  0  0  0  0  0  0  0
   -6.1915    6.2588   18.2855 C   0  0  0  0  0  0  0  0  0  0  0  0
   -4.8743    6.6353   18.3284 C   0  0  0  0  0  0  0  0  0  0  0  0
   -4.7857    8.0098   18.6367 C   0  0  0  0  0  0  0  0  0  0  0  0
   -7.3398    7.4780   18.6110 S   0  0  0  0  0  0  0  0  0  0  0  0
   -6.0498    8.6002   18.8163 C   0  0  0  0  0  0  0  0  0  0  0  0
   -2.7723   14.6441   21.9387 C   0  0  0  0  0  0  0  0  0  0  0  0
   -1.4717   14.0230   22.4622 C   0  0  0  0  0  0  0  0  0  0  0  0
   -0.2787   14.3346   21.5730 C   0  0  0  0  0  0  0  0  0  0  0  0
    0.2000   13.2085   20.7532 N   0  0  0  0  0  0  0  0  0  0  0  0
   -0.5078   13.1575   19.4559 C   0  0  0  0  0  0  0  0  0  0  0  0
   -0.1484   11.9932   21.4925 C   0  0  0  0  0  0  0  0  0  0  0  0
    1.6651   13.2338   20.5763 C   0  0  0  0  0  0  0  0  0  0  0  0
  1  8  1  0  0  0
  1  2  1  0  0  0
  1 18  1  0  0  0
 23 24  1  0  0  0
 23 20  1  0  0  0
 19 20  1  0  0  0
  8  7  1  0  0  0
  8  9  1  0  0  0
  2  3  1  0  0  0
  2  6  1  0  0  0
 18 17  2  0  0  0
 18 15  1  0  0  0
  7  3  1  0  0  0
  7 11  1  0  0  0
  9 13  1  0  0  0
  9 10  2  0  0  0
  3  4  1  0  0  0
  6  5  1  0  0  0
 17 16  1  0  0  0
 16 14  2  0  0  0
 11 13  1  0  0  0
 11 12  2  0  0  0
 13 25  1  0  0  0
  4  5  1  0  0  0
 15 14  1  0  0  0
 14 24  1  0  0  0
 25 26  1  0  0  0
 24 22  2  0  0  0
 26 27  1  0  0  0
 22 21  1  0  0  0
 27 28  1  0  0  0
 21 20  2  0  0  0
 28 31  1  0  0  0
 28 30  1  0  0  0
 28 29  1  0  0  0
M  CHG 1  28   1
M  END
> <minimizedAffinity>
-7.02381

$$$$
2Y5G_FJD_A_1244


 31 35  0  0  0  0  0  0  0  0999 V2000
   -5.8752    8.4100   19.5655 C   0  0  0  0  0  0  0  0  0  0  0  0
   -5.6582    7.8663   18.2155 N   0  0  0  0  0  0  0  0  0  0  0  0
   -6.9843    7.5331   17.6612 C   0  0  0  0  0  0  0  0  0  0  0  0
   -7.2328    6.0498   17.9036 C   0  0  0  0  0  0  0  0  0  0  0  0
   -5.8477    5.4478   18.1009 C   0  0  0  0  0  0  0  0  0  0  0  0
   -4.8703    6.6187   18.2004 C   0  0  0  0  0  0  0  0  0  0  0  0
   -7.9805    8.4374   18.3561 C   0  0  0  0  0  0  0  0  0  0  0  0
   -7.1987    9.1637   19.4481 C   0  0  0  0  0  0  0  0  0  0  0  0
   -7.1704   10.5805   18.9143 C   0  0  0  0  0  0  0  0  0  0  0  0
   -6.4619   11.4956   19.2993 O   0  0  0  0  0  0  0  0  0  0  0  0
   -8.4372    9.4903   17.3943 C   0  0  0  0  0  0  0  0  0  0  0  0
   -8.9618    9.2998   16.2970 O   0  0  0  0  0  0  0  0  0  0  0  0
   -8.1580   10.7630   17.9041 N   0  0  0  0  0  0  0  0  0  0  0  0
   -3.7172   10.5319   21.4316 C   0  0  0  0  0  0  0  0  0  0  0  0
   -4.8315    9.7408   21.3092 O   0  0  0  0  0  0  0  0  0  0  0  0
   -3.0948   10.6613   20.2474 C   0  0  0  0  0  0  0  0  0  0  0  0
   -3.7805    9.8248   19.3533 N   0  0  0  0  0  0  0  0  0  0  0  0
   -4.7747    9.3064   20.0062 C   0  0  0  0  0  0  0  0  0  0  0  0
   -3.8517   14.1681   25.5631 Cl  0  0  0  0  0  0  0  0  0  0  0  0
   -3.4433   12.8009   24.4612 C   0  0  0  0  0  0  0  0  0  0  0  0
   -2.3316   12.0030   24.5397 C   0  0  0  0  0  0  0  0  0  0  0  0
   -2.3381   11.0778   23.4739 C   0  0  0  0  0  0  0  0  0  0  0  0
   -4.4998   12.5034   23.1550 S   0  0  0  0  0  0  0  0  0  0  0  0
   -3.4597   11.2314   22.6390 C   0  0  0  0  0  0  0  0  0  0  0  0
   -8.0454   11.8879   16.9772 C   0  0  0  0  0  0  0  0  0  0  0  0
   -6.6749   11.6020   16.3518 C   0  0  0  0  0  0  0  0  0  0  0  0
   -6.7275   11.5492   14.8334 C   0  0  0  0  0  0  0  0  0  0  0  0
   -5.8933   10.5043   14.2157 N   0  0  0  0  0  0  0  0  0  0  0  0
   -6.7290    9.4297   13.6385 C   0  0  0  0  0  0  0  0  0  0  0  0
   -5.1102    9.9157   15.3045 C   0  0  0  0  0  0  0  0  0  0  0  0
   -4.9531   11.0593   13.2225 C   0  0  0  0  0  0  0  0  0  0  0  0
  1  8  1  0  0  0
  1  2  1  0  0  0
  1 18  1  0  0  0
 23 24  1  0  0  0
 23 20  1  0  0  0
 19 20  1  0  0  0
  8  7  1  0  0  0
  8  9  1  0  0  0
  2  3  1  0  0  0
  2  6  1  0  0  0
 18 17  2  0  0  0
 18 15  1  0  0  0
  7  3  1  0  0  0
  7 11  1  0  0  0
  9 13  1  0  0  0
  9 10  2  0  0  0
  3  4  1  0  0  0
  6  5  1  0  0  0
 17 16  1  0  0  0
 16 14  2  0  0  0
 11 13  1  0  0  0
 11 12  2  0  0  0
 13 25  1  0  0  0
  4  5  1  0  0  0
 15 14  1  0  0  0
 14 24  1  0  0  0
 25 26  1  0  0  0
 24 22  2  0  0  0
 26 27  1  0  0  0
 22 21  1  0  0  0
 27 28  1  0  0  0
 21 20  2  0  0  0
 28 31  1  0  0  0
 28 30  1  0  0  0
 28 29  1  0  0  0
M  CHG 1  28   1
M  END
> <minimizedAffinity>
-7.01105

$$$$
