6H29_FK8_A_302


 13 13  0  0  0  0  0  0  0  0999 V2000
   -4.7914    2.7732   13.9909 C   0  0  0  0  0  0  0  0  0  0  0  0
   -5.4262    2.7979   15.3429 C   0  0  0  0  0  0  0  0  0  0  0  0
   -5.7863    1.8791   17.5396 C   0  0  0  0  0  0  0  0  0  0  0  0
   -6.7971    3.9628   16.9285 C   0  0  0  0  0  0  0  0  0  0  0  0
   -5.2171    1.8040   16.2803 C   0  0  0  0  0  0  0  0  0  0  0  0
   -6.5671    2.9702   17.8321 C   0  0  0  0  0  0  0  0  0  0  0  0
   -6.2225    3.8618   15.6947 C   0  0  0  0  0  0  0  0  0  0  0  0
   -4.3212    1.4454   13.7002 O   0  0  0  0  0  0  0  0  0  0  0  0
   -4.3459    1.1010   12.4037 C   0  0  0  0  0  0  0  0  0  0  0  0
   -4.9397    2.0267   11.6666 N   0  0  0  0  0  0  0  0  0  0  0  0
   -3.8705    0.0591   11.9996 O   0  0  0  0  0  0  0  0  0  0  0  0
   -5.2943    2.8411   12.0911 H   0  0  0  0  0  0  0  0  0  0  0  0
   -5.0266    1.9006   10.6941 H   0  0  0  0  0  0  0  0  0  0  0  0
  3  6  2  0  0  0
  3  5  1  0  0  0
  6  4  1  0  0  0
  5  2  2  0  0  0
  4  7  2  0  0  0
  2  7  1  0  0  0
  2  1  1  0  0  0
 10  9  1  0  0  0
  8  9  1  0  0  0
  8  1  1  0  0  0
  9 11  2  0  0  0
 10 12  1  0  0  0
 10 13  1  0  0  0
M  END
> <minimizedAffinity>
-5.93893

$$$$
6H29_FK8_A_302


 13 13  0  0  0  0  0  0  0  0999 V2000
   -4.7638    2.7782   13.9658 C   0  0  0  0  0  0  0  0  0  0  0  0
   -5.3798    2.8331   15.3255 C   0  0  0  0  0  0  0  0  0  0  0  0
   -6.7911    3.8679   16.9799 C   0  0  0  0  0  0  0  0  0  0  0  0
   -5.7259    1.7746   17.4493 C   0  0  0  0  0  0  0  0  0  0  0  0
   -6.2015    3.8691   15.7278 C   0  0  0  0  0  0  0  0  0  0  0  0
   -6.5355    2.8072   17.8138 C   0  0  0  0  0  0  0  0  0  0  0  0
   -5.1585    1.8029   16.2084 C   0  0  0  0  0  0  0  0  0  0  0  0
   -4.3224    1.4379   13.6874 O   0  0  0  0  0  0  0  0  0  0  0  0
   -4.3460    1.0853   12.3930 C   0  0  0  0  0  0  0  0  0  0  0  0
   -4.9260    2.0130   11.6476 N   0  0  0  0  0  0  0  0  0  0  0  0
   -3.8813    0.0352   11.9977 O   0  0  0  0  0  0  0  0  0  0  0  0
   -5.2727    2.8343   12.0653 H   0  0  0  0  0  0  0  0  0  0  0  0
   -5.0106    1.8815   10.6756 H   0  0  0  0  0  0  0  0  0  0  0  0
  3  6  2  0  0  0
  3  5  1  0  0  0
  6  4  1  0  0  0
  5  2  2  0  0  0
  4  7  2  0  0  0
  2  7  1  0  0  0
  2  1  1  0  0  0
 10  9  1  0  0  0
  8  9  1  0  0  0
  8  1  1  0  0  0
  9 11  2  0  0  0
 10 12  1  0  0  0
 10 13  1  0  0  0
M  END
> <minimizedAffinity>
-5.92329

$$$$
6H29_FK8_A_302


 13 13  0  0  0  0  0  0  0  0999 V2000
   -5.0977    2.9255   16.6788 C   0  0  0  0  0  0  0  0  0  0  0  0
   -5.1133    4.0707   15.7199 C   0  0  0  0  0  0  0  0  0  0  0  0
   -6.2177    5.9031   14.6145 C   0  0  0  0  0  0  0  0  0  0  0  0
   -3.8926    5.4868   14.2182 C   0  0  0  0  0  0  0  0  0  0  0  0
   -6.2482    4.8212   15.4770 C   0  0  0  0  0  0  0  0  0  0  0  0
   -5.0264    6.2102   14.0045 C   0  0  0  0  0  0  0  0  0  0  0  0
   -3.9528    4.4254   15.0740 C   0  0  0  0  0  0  0  0  0  0  0  0
   -4.1229    1.9549   16.2590 O   0  0  0  0  0  0  0  0  0  0  0  0
   -4.6277    0.8141   15.7648 C   0  0  0  0  0  0  0  0  0  0  0  0
   -4.2874    0.6417   14.4971 N   0  0  0  0  0  0  0  0  0  0  0  0
   -5.3076    0.0619   16.4332 O   0  0  0  0  0  0  0  0  0  0  0  0
   -3.7298    1.3131   14.0414 H   0  0  0  0  0  0  0  0  0  0  0  0
   -4.5920   -0.1577   14.0100 H   0  0  0  0  0  0  0  0  0  0  0  0
  3  6  2  0  0  0
  3  5  1  0  0  0
  6  4  1  0  0  0
  5  2  2  0  0  0
  4  7  2  0  0  0
  2  7  1  0  0  0
  2  1  1  0  0  0
 10  9  1  0  0  0
  8  9  1  0  0  0
  8  1  1  0  0  0
  9 11  2  0  0  0
 10 12  1  0  0  0
 10 13  1  0  0  0
M  END
> <minimizedAffinity>
-5.82582

$$$$
6H29_FK8_A_302


 13 13  0  0  0  0  0  0  0  0999 V2000
   -4.6771    2.3809   15.7838 C   0  0  0  0  0  0  0  0  0  0  0  0
   -4.7651    3.8380   15.4670 C   0  0  0  0  0  0  0  0  0  0  0  0
   -3.8496    5.8788   14.5746 C   0  0  0  0  0  0  0  0  0  0  0  0
   -6.0937    5.8336   15.4105 C   0  0  0  0  0  0  0  0  0  0  0  0
   -3.7200    4.5387   14.8951 C   0  0  0  0  0  0  0  0  0  0  0  0
   -5.0474    6.4946   14.8422 C   0  0  0  0  0  0  0  0  0  0  0  0
   -5.9368    4.5126   15.7155 C   0  0  0  0  0  0  0  0  0  0  0  0
   -5.1899    2.1403   17.1058 O   0  0  0  0  0  0  0  0  0  0  0  0
   -6.0724    1.1342   17.2026 C   0  0  0  0  0  0  0  0  0  0  0  0
   -7.3191    1.5729   17.1255 N   0  0  0  0  0  0  0  0  0  0  0  0
   -5.7265   -0.0214   17.3430 O   0  0  0  0  0  0  0  0  0  0  0  0
   -7.4964    2.5346   17.0111 H   0  0  0  0  0  0  0  0  0  0  0  0
   -8.0689    0.9376   17.1826 H   0  0  0  0  0  0  0  0  0  0  0  0
  3  6  2  0  0  0
  3  5  1  0  0  0
  6  4  1  0  0  0
  5  2  2  0  0  0
  4  7  2  0  0  0
  2  7  1  0  0  0
  2  1  1  0  0  0
 10  9  1  0  0  0
  8  9  1  0  0  0
  8  1  1  0  0  0
  9 11  2  0  0  0
 10 12  1  0  0  0
 10 13  1  0  0  0
M  END
> <minimizedAffinity>
-5.61795

$$$$
6H29_FK8_A_302


 13 13  0  0  0  0  0  0  0  0999 V2000
   -4.3515    4.0905   14.3224 C   0  0  0  0  0  0  0  0  0  0  0  0
   -5.1857    3.7656   15.5181 C   0  0  0  0  0  0  0  0  0  0  0  0
   -5.7285    2.3963   17.4233 C   0  0  0  0  0  0  0  0  0  0  0  0
   -6.9628    4.4040   16.9963 C   0  0  0  0  0  0  0  0  0  0  0  0
   -4.9643    2.6453   16.2967 C   0  0  0  0  0  0  0  0  0  0  0  0
   -6.7158    3.2944   17.7462 C   0  0  0  0  0  0  0  0  0  0  0  0
   -6.1930    4.6236   15.8910 C   0  0  0  0  0  0  0  0  0  0  0  0
   -2.9858    4.2941   14.7249 O   0  0  0  0  0  0  0  0  0  0  0  0
   -2.2953    5.1722   13.9817 C   0  0  0  0  0  0  0  0  0  0  0  0
   -1.0416    4.7829   13.8100 N   0  0  0  0  0  0  0  0  0  0  0  0
   -2.7976    6.1863   13.5411 O   0  0  0  0  0  0  0  0  0  0  0  0
   -0.7289    3.9395   14.2102 H   0  0  0  0  0  0  0  0  0  0  0  0
   -0.4221    5.3367   13.2821 H   0  0  0  0  0  0  0  0  0  0  0  0
  3  6  2  0  0  0
  3  5  1  0  0  0
  6  4  1  0  0  0
  5  2  2  0  0  0
  4  7  2  0  0  0
  2  7  1  0  0  0
  2  1  1  0  0  0
 10  9  1  0  0  0
  8  9  1  0  0  0
  8  1  1  0  0  0
  9 11  2  0  0  0
 10 12  1  0  0  0
 10 13  1  0  0  0
M  END
> <minimizedAffinity>
-5.46654

$$$$
6H29_FK8_A_302


 13 13  0  0  0  0  0  0  0  0999 V2000
   -4.1649    4.1023   14.2419 C   0  0  0  0  0  0  0  0  0  0  0  0
   -5.0247    3.8246   15.4314 C   0  0  0  0  0  0  0  0  0  0  0  0
   -6.8996    4.3158   16.8607 C   0  0  0  0  0  0  0  0  0  0  0  0
   -5.5478    2.3824   17.2746 C   0  0  0  0  0  0  0  0  0  0  0  0
   -6.0967    4.6257   15.7769 C   0  0  0  0  0  0  0  0  0  0  0  0
   -6.6003    3.1886   17.5856 C   0  0  0  0  0  0  0  0  0  0  0  0
   -4.7737    2.7130   16.2003 C   0  0  0  0  0  0  0  0  0  0  0  0
   -3.3612    5.2697   14.4866 O   0  0  0  0  0  0  0  0  0  0  0  0
   -2.1520    5.2638   13.9052 C   0  0  0  0  0  0  0  0  0  0  0  0
   -1.2849    4.5400   14.5958 N   0  0  0  0  0  0  0  0  0  0  0  0
   -1.9249    5.8622   12.8731 O   0  0  0  0  0  0  0  0  0  0  0  0
   -1.5683    4.0912   15.4250 H   0  0  0  0  0  0  0  0  0  0  0  0
   -0.3566    4.4506   14.2803 H   0  0  0  0  0  0  0  0  0  0  0  0
  3  6  2  0  0  0
  3  5  1  0  0  0
  6  4  1  0  0  0
  5  2  2  0  0  0
  4  7  2  0  0  0
  2  7  1  0  0  0
  2  1  1  0  0  0
 10  9  1  0  0  0
  8  9  1  0  0  0
  8  1  1  0  0  0
  9 11  2  0  0  0
 10 12  1  0  0  0
 10 13  1  0  0  0
M  END
> <minimizedAffinity>
-5.44956

$$$$
6H29_FK8_A_302


 13 13  0  0  0  0  0  0  0  0999 V2000
   -4.7723    2.1268   14.3113 C   0  0  0  0  0  0  0  0  0  0  0  0
   -5.0635    3.5413   14.6933 C   0  0  0  0  0  0  0  0  0  0  0  0
   -6.4365    5.2220   15.7371 C   0  0  0  0  0  0  0  0  0  0  0  0
   -4.3297    5.8231   14.7690 C   0  0  0  0  0  0  0  0  0  0  0  0
   -6.2173    3.9087   15.3595 C   0  0  0  0  0  0  0  0  0  0  0  0
   -5.4741    6.1521   15.4296 C   0  0  0  0  0  0  0  0  0  0  0  0
   -4.1409    4.5201   14.4094 C   0  0  0  0  0  0  0  0  0  0  0  0
   -3.9602    2.1025   13.1245 O   0  0  0  0  0  0  0  0  0  0  0  0
   -4.4062    1.3044   12.1425 C   0  0  0  0  0  0  0  0  0  0  0  0
   -5.2992    1.9207   11.3839 N   0  0  0  0  0  0  0  0  0  0  0  0
   -4.0124    0.1640   12.0034 O   0  0  0  0  0  0  0  0  0  0  0  0
   -5.5533    2.8514   11.5800 H   0  0  0  0  0  0  0  0  0  0  0  0
   -5.7093    1.4483   10.6237 H   0  0  0  0  0  0  0  0  0  0  0  0
  3  6  2  0  0  0
  3  5  1  0  0  0
  6  4  1  0  0  0
  5  2  2  0  0  0
  4  7  2  0  0  0
  2  7  1  0  0  0
  2  1  1  0  0  0
 10  9  1  0  0  0
  8  9  1  0  0  0
  8  1  1  0  0  0
  9 11  2  0  0  0
 10 12  1  0  0  0
 10 13  1  0  0  0
M  END
> <minimizedAffinity>
-5.32952

$$$$
6H29_FK8_A_302


 13 13  0  0  0  0  0  0  0  0999 V2000
   -5.4020    3.5230   15.0213 C   0  0  0  0  0  0  0  0  0  0  0  0
   -4.5449    4.7047   14.7046 C   0  0  0  0  0  0  0  0  0  0  0  0
   -4.0490    7.0592   14.8041 C   0  0  0  0  0  0  0  0  0  0  0  0
   -2.5040    5.5489   13.7702 C   0  0  0  0  0  0  0  0  0  0  0  0
   -4.8867    5.9915   15.0753 C   0  0  0  0  0  0  0  0  0  0  0  0
   -2.8666    6.8041   14.1539 C   0  0  0  0  0  0  0  0  0  0  0  0
   -3.3502    4.5156   14.0513 C   0  0  0  0  0  0  0  0  0  0  0  0
   -4.6564    2.3119   14.8071 O   0  0  0  0  0  0  0  0  0  0  0  0
   -4.7123    1.4211   15.8089 C   0  0  0  0  0  0  0  0  0  0  0  0
   -5.8886    1.4463   16.4159 N   0  0  0  0  0  0  0  0  0  0  0  0
   -3.7760    0.7004   16.0898 O   0  0  0  0  0  0  0  0  0  0  0  0
   -6.5864    2.0705   16.1114 H   0  0  0  0  0  0  0  0  0  0  0  0
   -6.0655    0.8408   17.1717 H   0  0  0  0  0  0  0  0  0  0  0  0
  3  6  2  0  0  0
  3  5  1  0  0  0
  6  4  1  0  0  0
  5  2  2  0  0  0
  4  7  2  0  0  0
  2  7  1  0  0  0
  2  1  1  0  0  0
 10  9  1  0  0  0
  8  9  1  0  0  0
  8  1  1  0  0  0
  9 11  2  0  0  0
 10 12  1  0  0  0
 10 13  1  0  0  0
M  END
> <minimizedAffinity>
-5.02731

$$$$
6H29_FK8_A_302


 13 13  0  0  0  0  0  0  0  0999 V2000
   -4.2569    3.9637   14.3167 C   0  0  0  0  0  0  0  0  0  0  0  0
   -5.1317    3.6864   15.4953 C   0  0  0  0  0  0  0  0  0  0  0  0
   -5.7512    2.3835   17.4235 C   0  0  0  0  0  0  0  0  0  0  0  0
   -6.9443    4.3926   16.8976 C   0  0  0  0  0  0  0  0  0  0  0  0
   -4.9495    2.5880   16.3141 C   0  0  0  0  0  0  0  0  0  0  0  0
   -6.7356    3.3036   17.6882 C   0  0  0  0  0  0  0  0  0  0  0  0
   -6.1381    4.5683   15.8105 C   0  0  0  0  0  0  0  0  0  0  0  0
   -5.0687    4.3105   13.1812 O   0  0  0  0  0  0  0  0  0  0  0  0
   -4.6116    5.3329   12.4422 C   0  0  0  0  0  0  0  0  0  0  0  0
   -3.6889    6.0262   13.0906 N   0  0  0  0  0  0  0  0  0  0  0  0
   -5.0217    5.5580   11.3214 O   0  0  0  0  0  0  0  0  0  0  0  0
   -3.4237    5.7617   14.0011 H   0  0  0  0  0  0  0  0  0  0  0  0
   -3.2679    6.8063   12.6624 H   0  0  0  0  0  0  0  0  0  0  0  0
  3  6  2  0  0  0
  3  5  1  0  0  0
  6  4  1  0  0  0
  5  2  2  0  0  0
  4  7  2  0  0  0
  2  7  1  0  0  0
  2  1  1  0  0  0
 10  9  1  0  0  0
  8  9  1  0  0  0
  8  1  1  0  0  0
  9 11  2  0  0  0
 10 12  1  0  0  0
 10 13  1  0  0  0
M  END
> <minimizedAffinity>
-4.98099

$$$$
6H29_FK8_A_302


 13 13  0  0  0  0  0  0  0  0999 V2000
   -6.2609    3.6306   15.8688 C   0  0  0  0  0  0  0  0  0  0  0  0
   -5.2539    4.5690   15.2884 C   0  0  0  0  0  0  0  0  0  0  0  0
   -4.4735    6.7825   14.7492 C   0  0  0  0  0  0  0  0  0  0  0  0
   -3.0943    4.8782   14.2926 C   0  0  0  0  0  0  0  0  0  0  0  0
   -5.4456    5.9373   15.2551 C   0  0  0  0  0  0  0  0  0  0  0  0
   -3.3110    6.2225   14.2792 C   0  0  0  0  0  0  0  0  0  0  0  0
   -4.0709    4.0695   14.7976 C   0  0  0  0  0  0  0  0  0  0  0  0
   -5.6408    2.3618   16.1411 O   0  0  0  0  0  0  0  0  0  0  0  0
   -5.8672    1.8660   17.3672 C   0  0  0  0  0  0  0  0  0  0  0  0
   -5.7613    0.5464   17.3844 N   0  0  0  0  0  0  0  0  0  0  0  0
   -6.1334    2.5762   18.3157 O   0  0  0  0  0  0  0  0  0  0  0  0
   -5.5403    0.0595   16.5577 H   0  0  0  0  0  0  0  0  0  0  0  0
   -5.9035    0.0521   18.2238 H   0  0  0  0  0  0  0  0  0  0  0  0
  3  6  2  0  0  0
  3  5  1  0  0  0
  6  4  1  0  0  0
  5  2  2  0  0  0
  4  7  2  0  0  0
  2  7  1  0  0  0
  2  1  1  0  0  0
 10  9  1  0  0  0
  8  9  1  0  0  0
  8  1  1  0  0  0
  9 11  2  0  0  0
 10 12  1  0  0  0
 10 13  1  0  0  0
M  END
> <minimizedAffinity>
-4.89546

$$$$
