5EDD_DUP_A_202


 35 36  0  0  0  0  0  0  0  0999 V2000
   15.1413   -8.7236   -0.7754 O   0  0  0  0  0  0  0  0  0  0  0  0
   15.3068  -10.2929   -1.1204 P   0  0  0  0  0  0  0  0  0  0  0  0
   14.3860  -10.5461   -2.2665 O   0  0  0  0  0  0  0  0  0  0  0  0
   16.8120  -10.5273   -1.3018 O   0  0  0  0  0  0  0  0  0  0  0  0
   17.1143  -10.0791   -2.1071 H   0  0  0  0  0  0  0  0  0  0  0  0
   14.7350  -11.0407    0.2475 N   0  0  0  0  0  0  0  0  0  0  0  0
   15.4726  -10.9001    0.9379 H   0  0  0  0  0  0  0  0  0  0  0  0
   13.3229  -10.7683    1.0932 P   0  0  0  0  0  0  0  0  0  0  0  0
   13.3487  -11.6972    2.3164 O   0  0  0  0  0  0  0  0  0  0  0  0
   13.2745   -9.2491    1.3293 O   0  0  0  0  0  0  0  0  0  0  0  0
   14.0153   -8.9864    1.8977 H   0  0  0  0  0  0  0  0  0  0  0  0
   12.0633  -11.1555    0.1373 O   0  0  0  0  0  0  0  0  0  0  0  0
   10.9444  -10.1725   -0.5614 P   0  0  0  0  0  0  0  0  0  0  0  0
   10.9086   -8.8465    0.1827 O   0  0  0  0  0  0  0  0  0  0  0  0
   11.5003  -10.0819   -1.9625 O   0  0  0  0  0  0  0  0  0  0  0  0
    9.6879  -11.0174   -0.2879 O   0  0  0  0  0  0  0  0  0  0  0  0
   12.2872   -9.5148   -1.9622 H   0  0  0  0  0  0  0  0  0  0  0  0
    9.4649  -10.9694    0.6549 H   0  0  0  0  0  0  0  0  0  0  0  0
   14.1799   -7.9666   -1.5619 C   0  0  0  0  0  0  0  0  0  0  0  0
   16.6596   -5.3951   -1.2741 C   0  0  0  0  0  0  0  0  0  0  0  0
   16.7842   -5.6118   -2.7884 C   0  0  0  0  0  0  0  0  0  0  0  0
   15.9409   -6.8427   -3.0689 C   0  0  0  0  0  0  0  0  0  0  0  0
   15.4826   -6.9244   -4.4242 O   0  0  0  0  0  0  0  0  0  0  0  0
   15.5008   -6.1182   -0.8801 O   0  0  0  0  0  0  0  0  0  0  0  0
   14.8496   -6.6820   -2.0143 C   0  0  0  0  0  0  0  0  0  0  0  0
   14.9792   -6.1249   -4.6440 H   0  0  0  0  0  0  0  0  0  0  0  0
   21.3148   -7.2091    1.1028 O   0  0  0  0  0  0  0  0  0  0  0  0
   20.1633   -6.7680    0.5681 C   0  0  0  0  0  0  0  0  0  0  0  0
   19.2820   -7.6693    0.0003 C   0  0  0  0  0  0  0  0  0  0  0  0
   18.1198   -7.2157   -0.5846 C   0  0  0  0  0  0  0  0  0  0  0  0
   19.8827   -5.4547    0.5263 N   0  0  0  0  0  0  0  0  0  0  0  0
   18.7680   -5.0304   -0.0993 C   0  0  0  0  0  0  0  0  0  0  0  0
   18.5205   -3.6963   -0.1474 O   0  0  0  0  0  0  0  0  0  0  0  0
   17.8842   -5.9053   -0.6287 N   0  0  0  0  0  0  0  0  0  0  0  0
   20.4890   -4.8057    0.9510 H   0  0  0  0  0  0  0  0  0  0  0  0
 27 28  2  0  0  0
 28 29  1  0  0  0
 28 31  1  0  0  0
 29 30  2  0  0  0
 30 34  1  0  0  0
 31 32  1  0  0  0
 32 33  2  0  0  0
 32 34  1  0  0  0
 34 20  1  0  0  0
 20 21  1  0  0  0
 20 24  1  0  0  0
 21 22  1  0  0  0
 22 23  1  0  0  0
 22 25  1  0  0  0
 24 25  1  0  0  0
 25 19  1  0  0  0
 19  1  1  0  0  0
  1  2  1  0  0  0
  2  3  2  0  0  0
  2  4  1  0  0  0
  2  6  1  0  0  0
  6  8  1  0  0  0
  8  9  2  0  0  0
  8 10  1  0  0  0
  8 12  1  0  0  0
 12 13  1  0  0  0
 13 14  2  0  0  0
 13 15  1  0  0  0
 13 16  1  0  0  0
 31 35  1  0  0  0
 23 26  1  0  0  0
  4  5  1  0  0  0
  6  7  1  0  0  0
 10 11  1  0  0  0
 15 17  1  0  0  0
 16 18  1  0  0  0
M  END
> <minimizedAffinity>
-8.94220

$$$$
5EDD_DUP_A_202


 35 36  0  0  0  0  0  0  0  0999 V2000
   16.0283   -6.2441   -0.9225 O   0  0  0  0  0  0  0  0  0  0  0  0
   15.4340   -7.5314   -1.6964 P   0  0  0  0  0  0  0  0  0  0  0  0
   13.9508   -7.3940   -1.6131 O   0  0  0  0  0  0  0  0  0  0  0  0
   16.1098   -7.5435   -3.0735 O   0  0  0  0  0  0  0  0  0  0  0  0
   15.7920   -6.7907   -3.5962 H   0  0  0  0  0  0  0  0  0  0  0  0
   15.9434   -8.8025   -0.7573 N   0  0  0  0  0  0  0  0  0  0  0  0
   15.3018   -8.8023    0.0356 H   0  0  0  0  0  0  0  0  0  0  0  0
   16.1067  -10.4149   -1.1537 P   0  0  0  0  0  0  0  0  0  0  0  0
   15.5663  -10.5805   -2.5821 O   0  0  0  0  0  0  0  0  0  0  0  0
   17.5831  -10.7540   -0.8862 O   0  0  0  0  0  0  0  0  0  0  0  0
   18.1464  -10.2427   -1.4879 H   0  0  0  0  0  0  0  0  0  0  0  0
   15.2073  -11.2961   -0.1218 O   0  0  0  0  0  0  0  0  0  0  0  0
   13.6828  -11.0183    0.4308 P   0  0  0  0  0  0  0  0  0  0  0  0
   12.9061  -12.3258    0.4356 O   0  0  0  0  0  0  0  0  0  0  0  0
   13.9880  -10.4738    1.8059 O   0  0  0  0  0  0  0  0  0  0  0  0
   13.2009  -10.0693   -0.6803 O   0  0  0  0  0  0  0  0  0  0  0  0
   14.2774  -11.1975    2.3833 H   0  0  0  0  0  0  0  0  0  0  0  0
   13.0512  -10.5745   -1.4947 H   0  0  0  0  0  0  0  0  0  0  0  0
   17.1392   -5.5446   -1.5490 C   0  0  0  0  0  0  0  0  0  0  0  0
   18.5802   -5.1891    1.7131 C   0  0  0  0  0  0  0  0  0  0  0  0
   19.3039   -6.4858    1.3250 C   0  0  0  0  0  0  0  0  0  0  0  0
   18.6453   -6.9170    0.0269 C   0  0  0  0  0  0  0  0  0  0  0  0
   19.4717   -7.7674   -0.7778 O   0  0  0  0  0  0  0  0  0  0  0  0
   17.9624   -4.7261    0.5195 O   0  0  0  0  0  0  0  0  0  0  0  0
   18.3093   -5.5588   -0.5825 C   0  0  0  0  0  0  0  0  0  0  0  0
   20.3096   -7.3174   -0.9688 H   0  0  0  0  0  0  0  0  0  0  0  0
   14.9507   -6.4738    5.6865 O   0  0  0  0  0  0  0  0  0  0  0  0
   15.8440   -6.1226    4.7456 C   0  0  0  0  0  0  0  0  0  0  0  0
   15.4181   -5.4573    3.6109 C   0  0  0  0  0  0  0  0  0  0  0  0
   16.3251   -5.1320    2.6261 C   0  0  0  0  0  0  0  0  0  0  0  0
   17.1387   -6.4605    4.8657 N   0  0  0  0  0  0  0  0  0  0  0  0
   17.9966   -6.1812    3.8657 C   0  0  0  0  0  0  0  0  0  0  0  0
   19.2946   -6.5548    4.0028 O   0  0  0  0  0  0  0  0  0  0  0  0
   17.5969   -5.5026    2.7673 N   0  0  0  0  0  0  0  0  0  0  0  0
   17.4589   -6.9102    5.6809 H   0  0  0  0  0  0  0  0  0  0  0  0
 27 28  2  0  0  0
 28 29  1  0  0  0
 28 31  1  0  0  0
 29 30  2  0  0  0
 30 34  1  0  0  0
 31 32  1  0  0  0
 32 33  2  0  0  0
 32 34  1  0  0  0
 34 20  1  0  0  0
 20 21  1  0  0  0
 20 24  1  0  0  0
 21 22  1  0  0  0
 22 23  1  0  0  0
 22 25  1  0  0  0
 24 25  1  0  0  0
 25 19  1  0  0  0
 19  1  1  0  0  0
  1  2  1  0  0  0
  2  3  2  0  0  0
  2  4  1  0  0  0
  2  6  1  0  0  0
  6  8  1  0  0  0
  8  9  2  0  0  0
  8 10  1  0  0  0
  8 12  1  0  0  0
 12 13  1  0  0  0
 13 14  2  0  0  0
 13 15  1  0  0  0
 13 16  1  0  0  0
 31 35  1  0  0  0
 23 26  1  0  0  0
  4  5  1  0  0  0
  6  7  1  0  0  0
 10 11  1  0  0  0
 15 17  1  0  0  0
 16 18  1  0  0  0
M  END
> <minimizedAffinity>
-8.74917

$$$$
5EDD_DUP_A_202


 35 36  0  0  0  0  0  0  0  0999 V2000
   13.8850   -6.9147    1.6302 O   0  0  0  0  0  0  0  0  0  0  0  0
   12.5326   -7.7404    1.9437 P   0  0  0  0  0  0  0  0  0  0  0  0
   12.1916   -7.4197    3.3602 O   0  0  0  0  0  0  0  0  0  0  0  0
   11.5443   -7.3668    0.8315 O   0  0  0  0  0  0  0  0  0  0  0  0
   11.2791   -6.4393    0.9327 H   0  0  0  0  0  0  0  0  0  0  0  0
   13.0207   -9.3226    1.8179 N   0  0  0  0  0  0  0  0  0  0  0  0
   12.3428   -9.8400    2.3774 H   0  0  0  0  0  0  0  0  0  0  0  0
   13.2318  -10.2619    0.4553 P   0  0  0  0  0  0  0  0  0  0  0  0
   12.8910  -11.7064    0.8516 O   0  0  0  0  0  0  0  0  0  0  0  0
   12.3905   -9.5863   -0.6411 O   0  0  0  0  0  0  0  0  0  0  0  0
   11.4522   -9.6240   -0.3980 H   0  0  0  0  0  0  0  0  0  0  0  0
   14.7922  -10.1719    0.0003 O   0  0  0  0  0  0  0  0  0  0  0  0
   15.5088  -10.7133   -1.3781 P   0  0  0  0  0  0  0  0  0  0  0  0
   17.0146  -10.7668   -1.1718 O   0  0  0  0  0  0  0  0  0  0  0  0
   14.8530  -12.0672   -1.5106 O   0  0  0  0  0  0  0  0  0  0  0  0
   15.0995   -9.5674   -2.3198 O   0  0  0  0  0  0  0  0  0  0  0  0
   15.2215  -12.6713   -0.8472 H   0  0  0  0  0  0  0  0  0  0  0  0
   15.6115   -8.7725   -2.1032 H   0  0  0  0  0  0  0  0  0  0  0  0
   13.7438   -5.5040    1.3049 C   0  0  0  0  0  0  0  0  0  0  0  0
   16.4416   -4.9946   -0.9988 C   0  0  0  0  0  0  0  0  0  0  0  0
   15.6838   -6.0455   -1.8216 C   0  0  0  0  0  0  0  0  0  0  0  0
   14.5967   -6.5495   -0.8893 C   0  0  0  0  0  0  0  0  0  0  0  0
   13.4747   -7.1188   -1.5754 O   0  0  0  0  0  0  0  0  0  0  0  0
   15.5614   -4.6300    0.0564 O   0  0  0  0  0  0  0  0  0  0  0  0
   14.3045   -5.2839   -0.0882 C   0  0  0  0  0  0  0  0  0  0  0  0
   13.1041   -6.4642   -2.1878 H   0  0  0  0  0  0  0  0  0  0  0  0
   21.1863   -7.1857    0.8176 O   0  0  0  0  0  0  0  0  0  0  0  0
   20.0179   -6.6524    0.4211 C   0  0  0  0  0  0  0  0  0  0  0  0
   19.0158   -7.4763   -0.0568 C   0  0  0  0  0  0  0  0  0  0  0  0
   17.8323   -6.9288   -0.5018 C   0  0  0  0  0  0  0  0  0  0  0  0
   19.8310   -5.3219    0.4289 N   0  0  0  0  0  0  0  0  0  0  0  0
   18.6879   -4.8061   -0.0623 C   0  0  0  0  0  0  0  0  0  0  0  0
   18.5347   -3.4571   -0.0643 O   0  0  0  0  0  0  0  0  0  0  0  0
   17.6896   -5.6043   -0.5014 N   0  0  0  0  0  0  0  0  0  0  0  0
   20.5263   -4.7269    0.7918 H   0  0  0  0  0  0  0  0  0  0  0  0
 27 28  2  0  0  0
 28 29  1  0  0  0
 28 31  1  0  0  0
 29 30  2  0  0  0
 30 34  1  0  0  0
 31 32  1  0  0  0
 32 33  2  0  0  0
 32 34  1  0  0  0
 34 20  1  0  0  0
 20 21  1  0  0  0
 20 24  1  0  0  0
 21 22  1  0  0  0
 22 23  1  0  0  0
 22 25  1  0  0  0
 24 25  1  0  0  0
 25 19  1  0  0  0
 19  1  1  0  0  0
  1  2  1  0  0  0
  2  3  2  0  0  0
  2  4  1  0  0  0
  2  6  1  0  0  0
  6  8  1  0  0  0
  8  9  2  0  0  0
  8 10  1  0  0  0
  8 12  1  0  0  0
 12 13  1  0  0  0
 13 14  2  0  0  0
 13 15  1  0  0  0
 13 16  1  0  0  0
 31 35  1  0  0  0
 23 26  1  0  0  0
  4  5  1  0  0  0
  6  7  1  0  0  0
 10 11  1  0  0  0
 15 17  1  0  0  0
 16 18  1  0  0  0
M  END
> <minimizedAffinity>
-8.53284

$$$$
5EDD_DUP_A_202


 35 36  0  0  0  0  0  0  0  0999 V2000
   15.9464   -7.3780   -0.5324 O   0  0  0  0  0  0  0  0  0  0  0  0
   15.0440   -7.9470   -1.7453 P   0  0  0  0  0  0  0  0  0  0  0  0
   13.9816   -6.9225   -1.9634 O   0  0  0  0  0  0  0  0  0  0  0  0
   16.0220   -8.2670   -2.8831 O   0  0  0  0  0  0  0  0  0  0  0  0
   16.3903   -7.4414   -3.2347 H   0  0  0  0  0  0  0  0  0  0  0  0
   14.3821   -9.3287   -1.1051 N   0  0  0  0  0  0  0  0  0  0  0  0
   13.7462   -9.6619   -1.8297 H   0  0  0  0  0  0  0  0  0  0  0  0
   15.1385  -10.7102   -0.5548 P   0  0  0  0  0  0  0  0  0  0  0  0
   14.8063  -11.8292   -1.5535 O   0  0  0  0  0  0  0  0  0  0  0  0
   16.6131  -10.3185   -0.3591 O   0  0  0  0  0  0  0  0  0  0  0  0
   17.0033  -10.0890   -1.2170 H   0  0  0  0  0  0  0  0  0  0  0  0
   14.5330  -11.0846    0.9093 O   0  0  0  0  0  0  0  0  0  0  0  0
   13.0308  -10.8040    1.5186 P   0  0  0  0  0  0  0  0  0  0  0  0
   12.7873  -11.7331    2.6977 O   0  0  0  0  0  0  0  0  0  0  0  0
   13.1585   -9.3468    1.8939 O   0  0  0  0  0  0  0  0  0  0  0  0
   12.2003  -11.2091    0.2883 O   0  0  0  0  0  0  0  0  0  0  0  0
   13.7108   -9.2644    2.6871 H   0  0  0  0  0  0  0  0  0  0  0  0
   12.2205  -12.1737    0.1880 H   0  0  0  0  0  0  0  0  0  0  0  0
   17.1738   -6.6816   -0.8853 C   0  0  0  0  0  0  0  0  0  0  0  0
   15.9934   -4.2946    1.5134 C   0  0  0  0  0  0  0  0  0  0  0  0
   17.4759   -3.9009    1.5659 C   0  0  0  0  0  0  0  0  0  0  0  0
   18.1842   -4.9699    0.7532 C   0  0  0  0  0  0  0  0  0  0  0  0
   19.4476   -4.5444    0.2276 O   0  0  0  0  0  0  0  0  0  0  0  0
   15.8722   -5.1743    0.4032 O   0  0  0  0  0  0  0  0  0  0  0  0
   17.1132   -5.2884   -0.2862 C   0  0  0  0  0  0  0  0  0  0  0  0
   19.3212   -3.7502   -0.3147 H   0  0  0  0  0  0  0  0  0  0  0  0
   14.5663   -6.6787    6.2978 O   0  0  0  0  0  0  0  0  0  0  0  0
   14.9125   -6.1424    5.1150 C   0  0  0  0  0  0  0  0  0  0  0  0
   16.2423   -5.8756    4.8467 C   0  0  0  0  0  0  0  0  0  0  0  0
   16.5960   -5.2885    3.6515 C   0  0  0  0  0  0  0  0  0  0  0  0
   13.9767   -5.8080    4.2108 N   0  0  0  0  0  0  0  0  0  0  0  0
   14.3406   -5.1849    3.0735 C   0  0  0  0  0  0  0  0  0  0  0  0
   13.3724   -4.8369    2.1877 O   0  0  0  0  0  0  0  0  0  0  0  0
   15.6403   -4.9492    2.7875 N   0  0  0  0  0  0  0  0  0  0  0  0
   13.0296   -6.0175    4.3788 H   0  0  0  0  0  0  0  0  0  0  0  0
 27 28  2  0  0  0
 28 29  1  0  0  0
 28 31  1  0  0  0
 29 30  2  0  0  0
 30 34  1  0  0  0
 31 32  1  0  0  0
 32 33  2  0  0  0
 32 34  1  0  0  0
 34 20  1  0  0  0
 20 21  1  0  0  0
 20 24  1  0  0  0
 21 22  1  0  0  0
 22 23  1  0  0  0
 22 25  1  0  0  0
 24 25  1  0  0  0
 25 19  1  0  0  0
 19  1  1  0  0  0
  1  2  1  0  0  0
  2  3  2  0  0  0
  2  4  1  0  0  0
  2  6  1  0  0  0
  6  8  1  0  0  0
  8  9  2  0  0  0
  8 10  1  0  0  0
  8 12  1  0  0  0
 12 13  1  0  0  0
 13 14  2  0  0  0
 13 15  1  0  0  0
 13 16  1  0  0  0
 31 35  1  0  0  0
 23 26  1  0  0  0
  4  5  1  0  0  0
  6  7  1  0  0  0
 10 11  1  0  0  0
 15 17  1  0  0  0
 16 18  1  0  0  0
M  END
> <minimizedAffinity>
-8.41376

$$$$
5EDD_DUP_A_202


 35 36  0  0  0  0  0  0  0  0999 V2000
   13.6281   -7.6840   -1.9534 O   0  0  0  0  0  0  0  0  0  0  0  0
   12.7833   -8.9652   -2.4573 P   0  0  0  0  0  0  0  0  0  0  0  0
   12.2805   -8.6000   -3.8136 O   0  0  0  0  0  0  0  0  0  0  0  0
   13.7176  -10.1722   -2.3038 O   0  0  0  0  0  0  0  0  0  0  0  0
   14.4418  -10.1041   -2.9456 H   0  0  0  0  0  0  0  0  0  0  0  0
   11.5219   -9.0311   -1.3794 N   0  0  0  0  0  0  0  0  0  0  0  0
   10.7500   -8.5771   -1.8676 H   0  0  0  0  0  0  0  0  0  0  0  0
   10.8221  -10.3562   -0.6461 P   0  0  0  0  0  0  0  0  0  0  0  0
    9.7594   -9.8199    0.3250 O   0  0  0  0  0  0  0  0  0  0  0  0
   10.3664  -11.2678   -1.7983 O   0  0  0  0  0  0  0  0  0  0  0  0
    9.6793  -10.8177   -2.3143 H   0  0  0  0  0  0  0  0  0  0  0  0
   11.9710  -11.1555    0.1855 O   0  0  0  0  0  0  0  0  0  0  0  0
   13.0650  -10.5776    1.2697 P   0  0  0  0  0  0  0  0  0  0  0  0
   14.4547  -10.6277    0.6539 O   0  0  0  0  0  0  0  0  0  0  0  0
   12.5292   -9.1810    1.4772 O   0  0  0  0  0  0  0  0  0  0  0  0
   12.8867  -11.6387    2.3696 O   0  0  0  0  0  0  0  0  0  0  0  0
   12.7233   -8.6408    0.6953 H   0  0  0  0  0  0  0  0  0  0  0  0
   13.2844  -12.4746    2.0799 H   0  0  0  0  0  0  0  0  0  0  0  0
   14.4530   -7.0011   -2.9379 C   0  0  0  0  0  0  0  0  0  0  0  0
   17.1003   -5.4250   -1.1070 C   0  0  0  0  0  0  0  0  0  0  0  0
   17.2943   -6.8394   -0.5435 C   0  0  0  0  0  0  0  0  0  0  0  0
   16.0985   -7.6220   -1.0558 C   0  0  0  0  0  0  0  0  0  0  0  0
   16.3226   -9.0364   -1.1107 O   0  0  0  0  0  0  0  0  0  0  0  0
   16.1872   -5.5674   -2.1872 O   0  0  0  0  0  0  0  0  0  0  0  0
   15.8716   -6.9395   -2.4017 C   0  0  0  0  0  0  0  0  0  0  0  0
   17.0968   -9.2198   -1.6656 H   0  0  0  0  0  0  0  0  0  0  0  0
   15.2113   -2.2098    2.9803 O   0  0  0  0  0  0  0  0  0  0  0  0
   15.6614   -2.9556    1.9568 C   0  0  0  0  0  0  0  0  0  0  0  0
   14.8200   -3.8737    1.3561 C   0  0  0  0  0  0  0  0  0  0  0  0
   15.2907   -4.6682    0.3335 C   0  0  0  0  0  0  0  0  0  0  0  0
   16.9371   -2.8621    1.5461 N   0  0  0  0  0  0  0  0  0  0  0  0
   17.3900   -3.6872    0.5826 C   0  0  0  0  0  0  0  0  0  0  0  0
   18.6897   -3.5876    0.2030 O   0  0  0  0  0  0  0  0  0  0  0  0
   16.5673   -4.5652   -0.0330 N   0  0  0  0  0  0  0  0  0  0  0  0
   17.5381   -2.1936    1.9474 H   0  0  0  0  0  0  0  0  0  0  0  0
 27 28  2  0  0  0
 28 29  1  0  0  0
 28 31  1  0  0  0
 29 30  2  0  0  0
 30 34  1  0  0  0
 31 32  1  0  0  0
 32 33  2  0  0  0
 32 34  1  0  0  0
 34 20  1  0  0  0
 20 21  1  0  0  0
 20 24  1  0  0  0
 21 22  1  0  0  0
 22 23  1  0  0  0
 22 25  1  0  0  0
 24 25  1  0  0  0
 25 19  1  0  0  0
 19  1  1  0  0  0
  1  2  1  0  0  0
  2  3  2  0  0  0
  2  4  1  0  0  0
  2  6  1  0  0  0
  6  8  1  0  0  0
  8  9  2  0  0  0
  8 10  1  0  0  0
  8 12  1  0  0  0
 12 13  1  0  0  0
 13 14  2  0  0  0
 13 15  1  0  0  0
 13 16  1  0  0  0
 31 35  1  0  0  0
 23 26  1  0  0  0
  4  5  1  0  0  0
  6  7  1  0  0  0
 10 11  1  0  0  0
 15 17  1  0  0  0
 16 18  1  0  0  0
M  END
> <minimizedAffinity>
-8.14535

$$$$
5EDD_DUP_A_202


 35 36  0  0  0  0  0  0  0  0999 V2000
   14.0784   -8.2332   -1.3694 O   0  0  0  0  0  0  0  0  0  0  0  0
   12.9978   -8.9386   -2.3409 P   0  0  0  0  0  0  0  0  0  0  0  0
   12.8697   -8.0299   -3.5172 O   0  0  0  0  0  0  0  0  0  0  0  0
   13.4963  -10.3738   -2.5529 O   0  0  0  0  0  0  0  0  0  0  0  0
   14.3094  -10.3589   -3.0815 H   0  0  0  0  0  0  0  0  0  0  0  0
   11.6038   -8.9055   -1.4393 N   0  0  0  0  0  0  0  0  0  0  0  0
   10.8642   -8.7547   -2.1253 H   0  0  0  0  0  0  0  0  0  0  0  0
   10.9799  -10.0598   -0.4089 P   0  0  0  0  0  0  0  0  0  0  0  0
   10.3719   -9.3100    0.7861 O   0  0  0  0  0  0  0  0  0  0  0  0
   10.0517  -10.9250   -1.2785 O   0  0  0  0  0  0  0  0  0  0  0  0
    9.3130  -10.3846   -1.5997 H   0  0  0  0  0  0  0  0  0  0  0  0
   12.1981  -11.0107    0.1028 O   0  0  0  0  0  0  0  0  0  0  0  0
   13.3296  -10.7218    1.2615 P   0  0  0  0  0  0  0  0  0  0  0  0
   14.6843  -11.2086    0.7709 O   0  0  0  0  0  0  0  0  0  0  0  0
   13.2170   -9.2206    1.3819 O   0  0  0  0  0  0  0  0  0  0  0  0
   12.7634  -11.6248    2.3712 O   0  0  0  0  0  0  0  0  0  0  0  0
   13.6203   -8.8028    0.6049 H   0  0  0  0  0  0  0  0  0  0  0  0
   12.9166  -12.5545    2.1411 H   0  0  0  0  0  0  0  0  0  0  0  0
   13.8562   -6.8366   -1.0289 C   0  0  0  0  0  0  0  0  0  0  0  0
   16.9126   -4.9709   -0.8814 C   0  0  0  0  0  0  0  0  0  0  0  0
   17.2500   -5.7911   -2.1340 C   0  0  0  0  0  0  0  0  0  0  0  0
   16.1339   -6.8158   -2.2317 C   0  0  0  0  0  0  0  0  0  0  0  0
   15.9408   -7.3253   -3.5571 O   0  0  0  0  0  0  0  0  0  0  0  0
   15.5330   -5.2066   -0.6321 O   0  0  0  0  0  0  0  0  0  0  0  0
   14.9674   -6.0163   -1.6580 C   0  0  0  0  0  0  0  0  0  0  0  0
   15.7643   -6.5893   -4.1639 H   0  0  0  0  0  0  0  0  0  0  0  0
   20.1484   -6.6028    3.2994 O   0  0  0  0  0  0  0  0  0  0  0  0
   19.3264   -6.2305    2.3032 C   0  0  0  0  0  0  0  0  0  0  0  0
   19.3327   -6.9316    1.1116 C   0  0  0  0  0  0  0  0  0  0  0  0
   18.5206   -6.5276    0.0744 C   0  0  0  0  0  0  0  0  0  0  0  0
   18.5386   -5.1495    2.4289 N   0  0  0  0  0  0  0  0  0  0  0  0
   17.7948   -4.7409    1.3830 C   0  0  0  0  0  0  0  0  0  0  0  0
   17.0257   -3.6317    1.5295 O   0  0  0  0  0  0  0  0  0  0  0  0
   17.7693   -5.4378    0.2253 N   0  0  0  0  0  0  0  0  0  0  0  0
   18.5052   -4.6583    3.2815 H   0  0  0  0  0  0  0  0  0  0  0  0
 27 28  2  0  0  0
 28 29  1  0  0  0
 28 31  1  0  0  0
 29 30  2  0  0  0
 30 34  1  0  0  0
 31 32  1  0  0  0
 32 33  2  0  0  0
 32 34  1  0  0  0
 34 20  1  0  0  0
 20 21  1  0  0  0
 20 24  1  0  0  0
 21 22  1  0  0  0
 22 23  1  0  0  0
 22 25  1  0  0  0
 24 25  1  0  0  0
 25 19  1  0  0  0
 19  1  1  0  0  0
  1  2  1  0  0  0
  2  3  2  0  0  0
  2  4  1  0  0  0
  2  6  1  0  0  0
  6  8  1  0  0  0
  8  9  2  0  0  0
  8 10  1  0  0  0
  8 12  1  0  0  0
 12 13  1  0  0  0
 13 14  2  0  0  0
 13 15  1  0  0  0
 13 16  1  0  0  0
 31 35  1  0  0  0
 23 26  1  0  0  0
  4  5  1  0  0  0
  6  7  1  0  0  0
 10 11  1  0  0  0
 15 17  1  0  0  0
 16 18  1  0  0  0
M  END
> <minimizedAffinity>
-8.12394

$$$$
5EDD_DUP_A_202


 35 36  0  0  0  0  0  0  0  0999 V2000
   15.7647   -8.6415   -1.1776 O   0  0  0  0  0  0  0  0  0  0  0  0
   15.4528  -10.2249   -1.2468 P   0  0  0  0  0  0  0  0  0  0  0  0
   15.7389  -10.6241   -2.6555 O   0  0  0  0  0  0  0  0  0  0  0  0
   16.2592  -10.8627   -0.1082 O   0  0  0  0  0  0  0  0  0  0  0  0
   17.2061  -10.8032   -0.3099 H   0  0  0  0  0  0  0  0  0  0  0  0
   13.8203  -10.2995   -0.9524 N   0  0  0  0  0  0  0  0  0  0  0  0
   13.4977  -11.0818   -1.5218 H   0  0  0  0  0  0  0  0  0  0  0  0
   13.0113  -10.4833    0.4951 P   0  0  0  0  0  0  0  0  0  0  0  0
   12.1729  -11.7652    0.3784 O   0  0  0  0  0  0  0  0  0  0  0  0
   14.0979  -10.4163    1.5819 O   0  0  0  0  0  0  0  0  0  0  0  0
   14.7015  -11.1691    1.4825 H   0  0  0  0  0  0  0  0  0  0  0  0
   12.0285   -9.2028    0.7059 O   0  0  0  0  0  0  0  0  0  0  0  0
   12.3077   -7.7963    1.5124 P   0  0  0  0  0  0  0  0  0  0  0  0
   11.3518   -6.7288    1.0031 O   0  0  0  0  0  0  0  0  0  0  0  0
   12.0419   -8.2402    2.9312 O   0  0  0  0  0  0  0  0  0  0  0  0
   13.7518   -7.5424    1.0461 O   0  0  0  0  0  0  0  0  0  0  0  0
   11.0875   -8.3548    3.0607 H   0  0  0  0  0  0  0  0  0  0  0  0
   13.7475   -7.2658    0.1164 H   0  0  0  0  0  0  0  0  0  0  0  0
   14.8163   -7.7470   -1.8228 C   0  0  0  0  0  0  0  0  0  0  0  0
   16.6020   -5.0137   -0.3448 C   0  0  0  0  0  0  0  0  0  0  0  0
   17.3461   -5.0243   -1.6871 C   0  0  0  0  0  0  0  0  0  0  0  0
   16.8599   -6.2827   -2.3835 C   0  0  0  0  0  0  0  0  0  0  0  0
   16.9935   -6.2342   -3.8095 O   0  0  0  0  0  0  0  0  0  0  0  0
   15.4923   -5.8853   -0.5177 O   0  0  0  0  0  0  0  0  0  0  0  0
   15.4287   -6.3589   -1.8594 C   0  0  0  0  0  0  0  0  0  0  0  0
   16.5150   -5.4635   -4.1530 H   0  0  0  0  0  0  0  0  0  0  0  0
   20.0464   -6.6792    3.6520 O   0  0  0  0  0  0  0  0  0  0  0  0
   19.1841   -6.3141    2.6877 C   0  0  0  0  0  0  0  0  0  0  0  0
   19.4892   -6.5689    1.3635 C   0  0  0  0  0  0  0  0  0  0  0  0
   18.6263   -6.1596    0.3704 C   0  0  0  0  0  0  0  0  0  0  0  0
   18.0545   -5.6523    2.9893 N   0  0  0  0  0  0  0  0  0  0  0  0
   17.2539   -5.2135    1.9991 C   0  0  0  0  0  0  0  0  0  0  0  0
   16.1307   -4.5268    2.3308 O   0  0  0  0  0  0  0  0  0  0  0  0
   17.5266   -5.4856    0.7036 N   0  0  0  0  0  0  0  0  0  0  0  0
   17.8131   -5.4889    3.9296 H   0  0  0  0  0  0  0  0  0  0  0  0
 27 28  2  0  0  0
 28 29  1  0  0  0
 28 31  1  0  0  0
 29 30  2  0  0  0
 30 34  1  0  0  0
 31 32  1  0  0  0
 32 33  2  0  0  0
 32 34  1  0  0  0
 34 20  1  0  0  0
 20 21  1  0  0  0
 20 24  1  0  0  0
 21 22  1  0  0  0
 22 23  1  0  0  0
 22 25  1  0  0  0
 24 25  1  0  0  0
 25 19  1  0  0  0
 19  1  1  0  0  0
  1  2  1  0  0  0
  2  3  2  0  0  0
  2  4  1  0  0  0
  2  6  1  0  0  0
  6  8  1  0  0  0
  8  9  2  0  0  0
  8 10  1  0  0  0
  8 12  1  0  0  0
 12 13  1  0  0  0
 13 14  2  0  0  0
 13 15  1  0  0  0
 13 16  1  0  0  0
 31 35  1  0  0  0
 23 26  1  0  0  0
  4  5  1  0  0  0
  6  7  1  0  0  0
 10 11  1  0  0  0
 15 17  1  0  0  0
 16 18  1  0  0  0
M  END
> <minimizedAffinity>
-8.11596

$$$$
5EDD_DUP_A_202


 35 36  0  0  0  0  0  0  0  0999 V2000
   12.6129   -7.3500   -1.2188 O   0  0  0  0  0  0  0  0  0  0  0  0
   11.8584   -8.4212   -2.1635 P   0  0  0  0  0  0  0  0  0  0  0  0
   10.4144   -8.0504   -2.1085 O   0  0  0  0  0  0  0  0  0  0  0  0
   12.5914   -8.3840   -3.5106 O   0  0  0  0  0  0  0  0  0  0  0  0
   12.4255   -7.5330   -3.9455 H   0  0  0  0  0  0  0  0  0  0  0  0
   12.1089   -9.8604   -1.3740 N   0  0  0  0  0  0  0  0  0  0  0  0
   13.1234   -9.9657   -1.3589 H   0  0  0  0  0  0  0  0  0  0  0  0
   11.6239  -10.3315    0.1512 P   0  0  0  0  0  0  0  0  0  0  0  0
   12.3946  -11.6170    0.4878 O   0  0  0  0  0  0  0  0  0  0  0  0
   11.8332   -9.0977    1.0458 O   0  0  0  0  0  0  0  0  0  0  0  0
   12.7788   -8.8857    1.0882 H   0  0  0  0  0  0  0  0  0  0  0  0
   10.0267  -10.6437    0.1139 O   0  0  0  0  0  0  0  0  0  0  0  0
    9.1532  -11.4752   -1.0051 P   0  0  0  0  0  0  0  0  0  0  0  0
    7.9133  -12.0553   -0.3423 O   0  0  0  0  0  0  0  0  0  0  0  0
    8.8672  -10.3742   -1.9984 O   0  0  0  0  0  0  0  0  0  0  0  0
   10.1850  -12.5650   -1.3441 O   0  0  0  0  0  0  0  0  0  0  0  0
    8.1981   -9.7747   -1.6327 H   0  0  0  0  0  0  0  0  0  0  0  0
   10.2490  -13.1907   -0.6056 H   0  0  0  0  0  0  0  0  0  0  0  0
   14.0356   -7.5493   -0.9902 C   0  0  0  0  0  0  0  0  0  0  0  0
   16.7669   -5.2464   -1.2743 C   0  0  0  0  0  0  0  0  0  0  0  0
   16.7413   -5.6942   -2.7421 C   0  0  0  0  0  0  0  0  0  0  0  0
   15.7626   -6.8545   -2.7706 C   0  0  0  0  0  0  0  0  0  0  0  0
   15.1854   -7.0832   -4.0621 O   0  0  0  0  0  0  0  0  0  0  0  0
   15.5814   -5.7747   -0.6943 O   0  0  0  0  0  0  0  0  0  0  0  0
   14.7852   -6.4245   -1.6803 C   0  0  0  0  0  0  0  0  0  0  0  0
   14.7445   -6.2747   -4.3670 H   0  0  0  0  0  0  0  0  0  0  0  0
   21.4069   -7.1730    1.0433 O   0  0  0  0  0  0  0  0  0  0  0  0
   20.2597   -6.7039    0.5233 C   0  0  0  0  0  0  0  0  0  0  0  0
   19.3476   -7.5837   -0.0294 C   0  0  0  0  0  0  0  0  0  0  0  0
   18.1894   -7.1021   -0.5995 C   0  0  0  0  0  0  0  0  0  0  0  0
   20.0123   -5.3840    0.4813 N   0  0  0  0  0  0  0  0  0  0  0  0
   18.9002   -4.9328   -0.1300 C   0  0  0  0  0  0  0  0  0  0  0  0
   18.6865   -3.5930   -0.1789 O   0  0  0  0  0  0  0  0  0  0  0  0
   17.9870   -5.7861   -0.6444 N   0  0  0  0  0  0  0  0  0  0  0  0
   20.6410   -4.7496    0.8954 H   0  0  0  0  0  0  0  0  0  0  0  0
 27 28  2  0  0  0
 28 29  1  0  0  0
 28 31  1  0  0  0
 29 30  2  0  0  0
 30 34  1  0  0  0
 31 32  1  0  0  0
 32 33  2  0  0  0
 32 34  1  0  0  0
 34 20  1  0  0  0
 20 21  1  0  0  0
 20 24  1  0  0  0
 21 22  1  0  0  0
 22 23  1  0  0  0
 22 25  1  0  0  0
 24 25  1  0  0  0
 25 19  1  0  0  0
 19  1  1  0  0  0
  1  2  1  0  0  0
  2  3  2  0  0  0
  2  4  1  0  0  0
  2  6  1  0  0  0
  6  8  1  0  0  0
  8  9  2  0  0  0
  8 10  1  0  0  0
  8 12  1  0  0  0
 12 13  1  0  0  0
 13 14  2  0  0  0
 13 15  1  0  0  0
 13 16  1  0  0  0
 31 35  1  0  0  0
 23 26  1  0  0  0
  4  5  1  0  0  0
  6  7  1  0  0  0
 10 11  1  0  0  0
 15 17  1  0  0  0
 16 18  1  0  0  0
M  END
> <minimizedAffinity>
-8.00169

$$$$
5EDD_DUP_A_202


 35 36  0  0  0  0  0  0  0  0999 V2000
   13.8314   -6.6655    1.6224 O   0  0  0  0  0  0  0  0  0  0  0  0
   12.6973   -7.7243    1.1733 P   0  0  0  0  0  0  0  0  0  0  0  0
   11.4476   -7.2802    1.8565 O   0  0  0  0  0  0  0  0  0  0  0  0
   12.7408   -7.7625   -0.3597 O   0  0  0  0  0  0  0  0  0  0  0  0
   12.4228   -6.9171   -0.7133 H   0  0  0  0  0  0  0  0  0  0  0  0
   13.2327   -9.1509    1.8330 N   0  0  0  0  0  0  0  0  0  0  0  0
   12.7177   -9.2314    2.7098 H   0  0  0  0  0  0  0  0  0  0  0  0
   13.2013  -10.6920    1.1946 P   0  0  0  0  0  0  0  0  0  0  0  0
   12.7031  -11.6263    2.3076 O   0  0  0  0  0  0  0  0  0  0  0  0
   12.3704  -10.5831   -0.0954 O   0  0  0  0  0  0  0  0  0  0  0  0
   11.4591  -10.3360    0.1269 H   0  0  0  0  0  0  0  0  0  0  0  0
   14.7163  -11.1072    0.7675 O   0  0  0  0  0  0  0  0  0  0  0  0
   15.5395  -10.7668   -0.6155 P   0  0  0  0  0  0  0  0  0  0  0  0
   17.0251  -10.9952   -0.3830 O   0  0  0  0  0  0  0  0  0  0  0  0
   14.9011  -11.7559   -1.5614 O   0  0  0  0  0  0  0  0  0  0  0  0
   15.2002   -9.2702   -0.7270 O   0  0  0  0  0  0  0  0  0  0  0  0
   15.2194  -12.6494   -1.3581 H   0  0  0  0  0  0  0  0  0  0  0  0
   15.6908   -8.7762   -0.0516 H   0  0  0  0  0  0  0  0  0  0  0  0
   13.5968   -5.9180    2.8481 C   0  0  0  0  0  0  0  0  0  0  0  0
   16.8991   -4.5429    2.6271 C   0  0  0  0  0  0  0  0  0  0  0  0
   16.1917   -3.4782    1.7776 C   0  0  0  0  0  0  0  0  0  0  0  0
   14.7877   -4.0201    1.5772 C   0  0  0  0  0  0  0  0  0  0  0  0
   13.8194   -3.0042    1.2871 O   0  0  0  0  0  0  0  0  0  0  0  0
   15.8591   -5.3095    3.2201 O   0  0  0  0  0  0  0  0  0  0  0  0
   14.5840   -4.7660    2.8929 C   0  0  0  0  0  0  0  0  0  0  0  0
   13.8183   -2.3458    1.9993 H   0  0  0  0  0  0  0  0  0  0  0  0
   20.2113   -7.5399   -0.6375 O   0  0  0  0  0  0  0  0  0  0  0  0
   19.3839   -6.8518    0.1677 C   0  0  0  0  0  0  0  0  0  0  0  0
   18.2762   -6.2203   -0.3666 C   0  0  0  0  0  0  0  0  0  0  0  0
   17.4487   -5.4805    0.4497 C   0  0  0  0  0  0  0  0  0  0  0  0
   19.6504   -6.7207    1.4780 N   0  0  0  0  0  0  0  0  0  0  0  0
   18.8586   -5.9475    2.2456 C   0  0  0  0  0  0  0  0  0  0  0  0
   19.1642   -5.8132    3.5616 O   0  0  0  0  0  0  0  0  0  0  0  0
   17.7555   -5.3527    1.7398 N   0  0  0  0  0  0  0  0  0  0  0  0
   20.4208   -7.1876    1.8751 H   0  0  0  0  0  0  0  0  0  0  0  0
 27 28  2  0  0  0
 28 29  1  0  0  0
 28 31  1  0  0  0
 29 30  2  0  0  0
 30 34  1  0  0  0
 31 32  1  0  0  0
 32 33  2  0  0  0
 32 34  1  0  0  0
 34 20  1  0  0  0
 20 21  1  0  0  0
 20 24  1  0  0  0
 21 22  1  0  0  0
 22 23  1  0  0  0
 22 25  1  0  0  0
 24 25  1  0  0  0
 25 19  1  0  0  0
 19  1  1  0  0  0
  1  2  1  0  0  0
  2  3  2  0  0  0
  2  4  1  0  0  0
  2  6  1  0  0  0
  6  8  1  0  0  0
  8  9  2  0  0  0
  8 10  1  0  0  0
  8 12  1  0  0  0
 12 13  1  0  0  0
 13 14  2  0  0  0
 13 15  1  0  0  0
 13 16  1  0  0  0
 31 35  1  0  0  0
 23 26  1  0  0  0
  4  5  1  0  0  0
  6  7  1  0  0  0
 10 11  1  0  0  0
 15 17  1  0  0  0
 16 18  1  0  0  0
M  END
> <minimizedAffinity>
-7.80965

$$$$
5EDD_DUP_A_202


 35 36  0  0  0  0  0  0  0  0999 V2000
   15.2941   -5.8316    2.0396 O   0  0  0  0  0  0  0  0  0  0  0  0
   14.3712   -6.1216    3.3331 P   0  0  0  0  0  0  0  0  0  0  0  0
   15.3129   -6.5719    4.3990 O   0  0  0  0  0  0  0  0  0  0  0  0
   13.5430   -4.8492    3.5529 O   0  0  0  0  0  0  0  0  0  0  0  0
   14.1263   -4.1293    3.8401 H   0  0  0  0  0  0  0  0  0  0  0  0
   13.4195   -7.3894    2.8391 N   0  0  0  0  0  0  0  0  0  0  0  0
   12.7982   -7.5604    3.6297 H   0  0  0  0  0  0  0  0  0  0  0  0
   12.4281   -7.5132    1.5028 P   0  0  0  0  0  0  0  0  0  0  0  0
   10.9829   -7.5569    2.0216 O   0  0  0  0  0  0  0  0  0  0  0  0
   12.8393   -6.3531    0.5801 O   0  0  0  0  0  0  0  0  0  0  0  0
   12.6447   -5.5087    1.0159 H   0  0  0  0  0  0  0  0  0  0  0  0
   12.7745   -8.9020    0.7273 O   0  0  0  0  0  0  0  0  0  0  0  0
   12.7896  -10.4423    1.3048 P   0  0  0  0  0  0  0  0  0  0  0  0
   14.2270  -10.9326    1.3856 O   0  0  0  0  0  0  0  0  0  0  0  0
   12.1293  -10.2350    2.6471 O   0  0  0  0  0  0  0  0  0  0  0  0
   12.0137  -11.1265    0.1659 O   0  0  0  0  0  0  0  0  0  0  0  0
   12.7499   -9.7937    3.2480 H   0  0  0  0  0  0  0  0  0  0  0  0
   12.5770  -11.1812   -0.6218 H   0  0  0  0  0  0  0  0  0  0  0  0
   16.5645   -5.1598    2.2649 C   0  0  0  0  0  0  0  0  0  0  0  0
   17.3020   -6.7041   -0.8841 C   0  0  0  0  0  0  0  0  0  0  0  0
   17.6720   -5.2692   -1.2838 C   0  0  0  0  0  0  0  0  0  0  0  0
   17.2129   -4.4164   -0.1146 C   0  0  0  0  0  0  0  0  0  0  0  0
   17.9020   -3.1637   -0.0161 O   0  0  0  0  0  0  0  0  0  0  0  0
   17.1249   -6.6727    0.5261 O   0  0  0  0  0  0  0  0  0  0  0  0
   17.4381   -5.3836    1.0441 C   0  0  0  0  0  0  0  0  0  0  0  0
   18.8564   -3.3240    0.0496 H   0  0  0  0  0  0  0  0  0  0  0  0
   12.7142   -8.2318   -3.5730 O   0  0  0  0  0  0  0  0  0  0  0  0
   13.8022   -7.8518   -2.8813 C   0  0  0  0  0  0  0  0  0  0  0  0
   14.2839   -6.5628   -3.0157 C   0  0  0  0  0  0  0  0  0  0  0  0
   15.4225   -6.1826   -2.3393 C   0  0  0  0  0  0  0  0  0  0  0  0
   14.4633   -8.7257   -2.1040 N   0  0  0  0  0  0  0  0  0  0  0  0
   15.6044   -8.3477   -1.4965 C   0  0  0  0  0  0  0  0  0  0  0  0
   16.2651   -9.2577   -0.7358 O   0  0  0  0  0  0  0  0  0  0  0  0
   16.0657   -7.0812   -1.5954 N   0  0  0  0  0  0  0  0  0  0  0  0
   14.1152   -9.6381   -1.9790 H   0  0  0  0  0  0  0  0  0  0  0  0
 27 28  2  0  0  0
 28 29  1  0  0  0
 28 31  1  0  0  0
 29 30  2  0  0  0
 30 34  1  0  0  0
 31 32  1  0  0  0
 32 33  2  0  0  0
 32 34  1  0  0  0
 34 20  1  0  0  0
 20 21  1  0  0  0
 20 24  1  0  0  0
 21 22  1  0  0  0
 22 23  1  0  0  0
 22 25  1  0  0  0
 24 25  1  0  0  0
 25 19  1  0  0  0
 19  1  1  0  0  0
  1  2  1  0  0  0
  2  3  2  0  0  0
  2  4  1  0  0  0
  2  6  1  0  0  0
  6  8  1  0  0  0
  8  9  2  0  0  0
  8 10  1  0  0  0
  8 12  1  0  0  0
 12 13  1  0  0  0
 13 14  2  0  0  0
 13 15  1  0  0  0
 13 16  1  0  0  0
 31 35  1  0  0  0
 23 26  1  0  0  0
  4  5  1  0  0  0
  6  7  1  0  0  0
 10 11  1  0  0  0
 15 17  1  0  0  0
 16 18  1  0  0  0
M  END
> <minimizedAffinity>
-7.62501

$$$$
