3GNW_XNC_A_579


 46 51  0  0  0  0  0  0  0  0999 V2000
   26.9831    6.6247   40.1781 O   0  0  0  0  0  0  0  0  0  0  0  0
   28.0174    6.2319   39.6626 C   0  0  0  0  0  0  0  0  0  0  0  0
   28.2902    6.4452   38.3006 N   0  0  0  0  0  0  0  0  0  0  0  0
   29.5926    6.3790   37.7339 C   0  0  0  0  0  0  0  0  0  0  0  0
   30.6121    7.2253   38.1951 C   0  0  0  0  0  0  0  0  0  0  0  0
   31.8782    7.1918   37.6266 C   0  0  0  0  0  0  0  0  0  0  0  0
   27.1733    6.7486   37.3810 C   0  0  0  0  0  0  0  0  0  0  0  0
   26.7199    5.4721   36.7221 C   0  0  0  0  0  0  0  0  0  0  0  0
   25.0164    5.3213   36.7094 S   0  0  0  0  0  0  0  0  0  0  0  0
   24.4676    6.4963   36.0369 O   0  0  0  0  0  0  0  0  0  0  0  0
   24.4789    5.2925   38.0490 O   0  0  0  0  0  0  0  0  0  0  0  0
   24.6012    3.7848   35.8600 C   0  0  0  0  0  0  0  0  0  0  0  0
   25.6129    3.4127   34.7805 C   0  0  0  0  0  0  0  0  0  0  0  0
   25.2140    2.0409   34.1826 C   0  0  0  0  0  0  0  0  0  0  0  0
   25.6838    4.4817   33.6563 C   0  0  0  0  0  0  0  0  0  0  0  0
   26.9715    3.2836   35.5105 C   0  0  0  0  0  0  0  0  0  0  0  0
   27.5301    4.5240   36.1928 C   0  0  0  0  0  0  0  0  0  0  0  0
   28.9179    4.5728   36.1775 N   0  0  0  0  0  0  0  0  0  0  0  0
   29.8573    5.4805   36.6940 C   0  0  0  0  0  0  0  0  0  0  0  0
   31.1302    5.4406   36.1544 C   0  0  0  0  0  0  0  0  0  0  0  0
   31.4403    4.5812   35.1424 O   0  0  0  0  0  0  0  0  0  0  0  0
   32.1247    6.2936   36.6185 C   0  0  0  0  0  0  0  0  0  0  0  0
   29.3291    3.8126   35.7062 H   0  0  0  0  0  0  0  0  0  0  0  0
   30.7896    3.9948   34.8097 H   0  0  0  0  0  0  0  0  0  0  0  0
   28.9928    5.5287   40.5343 C   0  0  0  0  0  0  0  0  0  0  0  0
   29.1415    4.1526   40.4763 C   0  0  0  0  0  0  0  0  0  0  0  0
   30.0706    3.5498   41.3202 C   0  0  0  0  0  0  0  0  0  0  0  0
   30.8564    4.3327   42.1853 C   0  0  0  0  0  0  0  0  0  0  0  0
   30.7223    5.7117   42.2166 C   0  0  0  0  0  0  0  0  0  0  0  0
   31.5364    6.5782   43.1394 C   0  0  0  0  0  0  0  0  0  0  0  0
   29.7818    6.2960   41.3926 N   0  0  0  0  0  0  0  0  0  0  0  0
   27.6580    7.8862   36.4510 C   0  0  0  0  0  0  0  0  0  0  0  0
   27.9365    9.1304   37.0016 C   0  0  0  0  0  0  0  0  0  0  0  0
   27.7711    9.2949   38.3119 F   0  0  0  0  0  0  0  0  0  0  0  0
   28.3635   10.1913   36.2007 C   0  0  0  0  0  0  0  0  0  0  0  0
   28.5197   10.0065   34.8261 C   0  0  0  0  0  0  0  0  0  0  0  0
   28.2430    8.7494   34.2712 C   0  0  0  0  0  0  0  0  0  0  0  0
   27.8092    7.7034   35.0775 C   0  0  0  0  0  0  0  0  0  0  0  0
   28.9614   11.0621   34.0698 O   0  0  0  0  0  0  0  0  0  0  0  0
   29.4007   10.9191   32.7010 C   0  0  0  0  0  0  0  0  0  0  0  0
   28.2029   10.8849   31.7620 C   0  0  0  0  0  0  0  0  0  0  0  0
   28.2183   10.0565   30.6548 C   0  0  0  0  0  0  0  0  0  0  0  0
   27.1198    9.9839   29.8062 C   0  0  0  0  0  0  0  0  0  0  0  0
   25.9979   10.7601   30.0591 C   0  0  0  0  0  0  0  0  0  0  0  0
   25.9782   11.6068   31.1790 C   0  0  0  0  0  0  0  0  0  0  0  0
   27.0739   11.6632   32.0312 C   0  0  0  0  0  0  0  0  0  0  0  0
  1  2  2  0  0  0
  2 25  1  0  0  0
  2  3  1  0  0  0
 25 26  2  0  0  0
 25 31  1  0  0  0
 26 27  1  0  0  0
 27 28  2  0  0  0
 28 29  1  0  0  0
 29 30  1  0  0  0
 29 31  2  0  0  0
  3  4  1  0  0  0
  3  7  1  0  0  0
  4  5  2  0  0  0
  4 19  1  0  0  0
  5  6  1  0  0  0
  6 22  2  0  0  0
  7  8  1  0  0  0
  7 32  1  0  0  0
  8  9  1  0  0  0
  8 17  2  0  0  0
  9 10  2  0  0  0
  9 11  2  0  0  0
  9 12  1  0  0  0
 12 13  1  0  0  0
 13 14  1  0  0  0
 13 15  1  0  0  0
 13 16  1  0  0  0
 16 17  1  0  0  0
 17 18  1  0  0  0
 18 19  1  0  0  0
 19 20  2  0  0  0
 20 21  1  0  0  0
 20 22  1  0  0  0
 32 33  2  0  0  0
 32 38  1  0  0  0
 33 34  1  0  0  0
 33 35  1  0  0  0
 35 36  2  0  0  0
 36 37  1  0  0  0
 36 39  1  0  0  0
 37 38  2  0  0  0
 39 40  1  0  0  0
 40 41  1  0  0  0
 41 42  2  0  0  0
 41 46  1  0  0  0
 42 43  1  0  0  0
 43 44  2  0  0  0
 44 45  1  0  0  0
 45 46  2  0  0  0
 18 23  1  0  0  0
 21 24  1  0  0  0
M  END
> <minimizedAffinity>
-12.96977

$$$$
3GNW_XNC_A_579


 46 51  0  0  0  0  0  0  0  0999 V2000
   27.5706    1.5146   34.2853 O   0  0  0  0  0  0  0  0  0  0  0  0
   27.0866    2.0610   35.2636 C   0  0  0  0  0  0  0  0  0  0  0  0
   27.6039    3.2670   35.7665 N   0  0  0  0  0  0  0  0  0  0  0  0
   26.8812    4.1434   36.6216 C   0  0  0  0  0  0  0  0  0  0  0  0
   25.6630    4.6998   36.2033 C   0  0  0  0  0  0  0  0  0  0  0  0
   24.9656    5.5822   37.0170 C   0  0  0  0  0  0  0  0  0  0  0  0
   28.9814    3.6653   35.4075 C   0  0  0  0  0  0  0  0  0  0  0  0
   29.9203    3.2231   36.4994 C   0  0  0  0  0  0  0  0  0  0  0  0
   31.3296    2.4799   35.8779 S   0  0  0  0  0  0  0  0  0  0  0  0
   31.9719    3.4266   34.9692 O   0  0  0  0  0  0  0  0  0  0  0  0
   31.0105    1.2933   35.1201 O   0  0  0  0  0  0  0  0  0  0  0  0
   32.3859    2.0389   37.2723 C   0  0  0  0  0  0  0  0  0  0  0  0
   32.2364    2.9927   38.4535 C   0  0  0  0  0  0  0  0  0  0  0  0
   33.1115    2.4728   39.6208 C   0  0  0  0  0  0  0  0  0  0  0  0
   32.6493    4.4438   38.0855 C   0  0  0  0  0  0  0  0  0  0  0  0
   30.7436    2.9253   38.8561 C   0  0  0  0  0  0  0  0  0  0  0  0
   29.7119    3.3710   37.8298 C   0  0  0  0  0  0  0  0  0  0  0  0
   28.5899    3.9520   38.4059 N   0  0  0  0  0  0  0  0  0  0  0  0
   27.3957    4.4730   37.8808 C   0  0  0  0  0  0  0  0  0  0  0  0
   26.6773    5.3336   38.6908 C   0  0  0  0  0  0  0  0  0  0  0  0
   27.1333    5.6835   39.9272 O   0  0  0  0  0  0  0  0  0  0  0  0
   25.4768    5.8821   38.2549 C   0  0  0  0  0  0  0  0  0  0  0  0
   28.6423    4.0111   39.3872 H   0  0  0  0  0  0  0  0  0  0  0  0
   27.9397    5.3291   40.2468 H   0  0  0  0  0  0  0  0  0  0  0  0
   25.9129    1.4107   35.9004 C   0  0  0  0  0  0  0  0  0  0  0  0
   24.6240    1.6859   35.4740 C   0  0  0  0  0  0  0  0  0  0  0  0
   23.5638    1.0469   36.1116 C   0  0  0  0  0  0  0  0  0  0  0  0
   23.8093    0.1220   37.1426 C   0  0  0  0  0  0  0  0  0  0  0  0
   25.1033   -0.1699   37.5438 C   0  0  0  0  0  0  0  0  0  0  0  0
   25.4013   -1.1432   38.6524 C   0  0  0  0  0  0  0  0  0  0  0  0
   26.1449    0.4870   36.9206 N   0  0  0  0  0  0  0  0  0  0  0  0
   28.9387    5.1784   35.0871 C   0  0  0  0  0  0  0  0  0  0  0  0
   28.2914    5.6022   33.9338 C   0  0  0  0  0  0  0  0  0  0  0  0
   27.7347    4.6850   33.1463 F   0  0  0  0  0  0  0  0  0  0  0  0
   28.2383    6.9557   33.5956 C   0  0  0  0  0  0  0  0  0  0  0  0
   28.8383    7.9043   34.4253 C   0  0  0  0  0  0  0  0  0  0  0  0
   29.4877    7.4769   35.5917 C   0  0  0  0  0  0  0  0  0  0  0  0
   29.5422    6.1255   35.9127 C   0  0  0  0  0  0  0  0  0  0  0  0
   28.7501    9.2280   34.0767 O   0  0  0  0  0  0  0  0  0  0  0  0
   29.2479    9.7456   32.8232 C   0  0  0  0  0  0  0  0  0  0  0  0
   28.0990   10.2749   31.9759 C   0  0  0  0  0  0  0  0  0  0  0  0
   27.8340    9.7084   30.7426 C   0  0  0  0  0  0  0  0  0  0  0  0
   26.7669   10.1532   29.9708 C   0  0  0  0  0  0  0  0  0  0  0  0
   25.9642   11.1872   30.4309 C   0  0  0  0  0  0  0  0  0  0  0  0
   26.2313   11.7697   31.6802 C   0  0  0  0  0  0  0  0  0  0  0  0
   27.2904   11.3100   32.4529 C   0  0  0  0  0  0  0  0  0  0  0  0
  1  2  2  0  0  0
  2 25  1  0  0  0
  2  3  1  0  0  0
 25 26  2  0  0  0
 25 31  1  0  0  0
 26 27  1  0  0  0
 27 28  2  0  0  0
 28 29  1  0  0  0
 29 30  1  0  0  0
 29 31  2  0  0  0
  3  4  1  0  0  0
  3  7  1  0  0  0
  4  5  2  0  0  0
  4 19  1  0  0  0
  5  6  1  0  0  0
  6 22  2  0  0  0
  7  8  1  0  0  0
  7 32  1  0  0  0
  8  9  1  0  0  0
  8 17  2  0  0  0
  9 10  2  0  0  0
  9 11  2  0  0  0
  9 12  1  0  0  0
 12 13  1  0  0  0
 13 14  1  0  0  0
 13 15  1  0  0  0
 13 16  1  0  0  0
 16 17  1  0  0  0
 17 18  1  0  0  0
 18 19  1  0  0  0
 19 20  2  0  0  0
 20 21  1  0  0  0
 20 22  1  0  0  0
 32 33  2  0  0  0
 32 38  1  0  0  0
 33 34  1  0  0  0
 33 35  1  0  0  0
 35 36  2  0  0  0
 36 37  1  0  0  0
 36 39  1  0  0  0
 37 38  2  0  0  0
 39 40  1  0  0  0
 40 41  1  0  0  0
 41 42  2  0  0  0
 41 46  1  0  0  0
 42 43  1  0  0  0
 43 44  2  0  0  0
 44 45  1  0  0  0
 45 46  2  0  0  0
 18 23  1  0  0  0
 21 24  1  0  0  0
M  END
> <minimizedAffinity>
-11.25284

$$$$
3GNW_XNC_A_579


 46 51  0  0  0  0  0  0  0  0999 V2000
   27.3699    7.6425   40.3810 O   0  0  0  0  0  0  0  0  0  0  0  0
   28.5150    7.2797   40.1640 C   0  0  0  0  0  0  0  0  0  0  0  0
   28.9091    6.7947   38.9053 N   0  0  0  0  0  0  0  0  0  0  0  0
   30.2608    6.7321   38.4684 C   0  0  0  0  0  0  0  0  0  0  0  0
   31.0395    7.8970   38.3980 C   0  0  0  0  0  0  0  0  0  0  0  0
   32.3499    7.8521   37.9418 C   0  0  0  0  0  0  0  0  0  0  0  0
   27.8775    6.3064   37.9660 C   0  0  0  0  0  0  0  0  0  0  0  0
   27.7553    4.8113   38.1054 C   0  0  0  0  0  0  0  0  0  0  0  0
   26.1248    4.3000   38.1730 S   0  0  0  0  0  0  0  0  0  0  0  0
   25.4534    4.7829   36.9687 O   0  0  0  0  0  0  0  0  0  0  0  0
   25.4409    4.8649   39.3119 O   0  0  0  0  0  0  0  0  0  0  0  0
   26.1119    2.5000   38.2939 C   0  0  0  0  0  0  0  0  0  0  0  0
   27.3006    1.8507   37.5920 C   0  0  0  0  0  0  0  0  0  0  0  0
   27.2417    0.3222   37.8347 C   0  0  0  0  0  0  0  0  0  0  0  0
   27.3089    2.1465   36.0676 C   0  0  0  0  0  0  0  0  0  0  0  0
   28.5587    2.4354   38.2780 C   0  0  0  0  0  0  0  0  0  0  0  0
   28.7873    3.9367   38.1781 C   0  0  0  0  0  0  0  0  0  0  0  0
   30.1326    4.2791   38.1417 N   0  0  0  0  0  0  0  0  0  0  0  0
   30.8150    5.5056   38.0842 C   0  0  0  0  0  0  0  0  0  0  0  0
   32.1296    5.4724   37.6558 C   0  0  0  0  0  0  0  0  0  0  0  0
   32.7173    4.3028   37.2739 O   0  0  0  0  0  0  0  0  0  0  0  0
   32.8823    6.6387   37.5841 C   0  0  0  0  0  0  0  0  0  0  0  0
   30.7336    3.4996   38.1601 H   0  0  0  0  0  0  0  0  0  0  0  0
   32.2336    3.5012   37.3118 H   0  0  0  0  0  0  0  0  0  0  0  0
   29.4894    7.3838   41.2801 C   0  0  0  0  0  0  0  0  0  0  0  0
   29.7644    8.6027   41.8780 C   0  0  0  0  0  0  0  0  0  0  0  0
   30.6892    8.6373   42.9184 C   0  0  0  0  0  0  0  0  0  0  0  0
   31.3006    7.4516   43.3643 C   0  0  0  0  0  0  0  0  0  0  0  0
   30.9983    6.2316   42.7802 C   0  0  0  0  0  0  0  0  0  0  0  0
   31.6439    4.9461   43.2227 C   0  0  0  0  0  0  0  0  0  0  0  0
   30.0979    6.2128   41.7344 N   0  0  0  0  0  0  0  0  0  0  0  0
   28.2523    6.8538   36.5682 C   0  0  0  0  0  0  0  0  0  0  0  0
   28.1436    8.2177   36.3304 C   0  0  0  0  0  0  0  0  0  0  0  0
   27.7165    9.0010   37.3180 F   0  0  0  0  0  0  0  0  0  0  0  0
   28.4574    8.7566   35.0813 C   0  0  0  0  0  0  0  0  0  0  0  0
   28.8916    7.9201   34.0517 C   0  0  0  0  0  0  0  0  0  0  0  0
   29.0057    6.5441   34.2932 C   0  0  0  0  0  0  0  0  0  0  0  0
   28.6811    6.0181   35.5384 C   0  0  0  0  0  0  0  0  0  0  0  0
   29.2128    8.4828   32.8427 O   0  0  0  0  0  0  0  0  0  0  0  0
   29.2629    9.9107   32.6288 C   0  0  0  0  0  0  0  0  0  0  0  0
   28.0556   10.3671   31.8213 C   0  0  0  0  0  0  0  0  0  0  0  0
   27.2284   11.3577   32.3182 C   0  0  0  0  0  0  0  0  0  0  0  0
   26.1427   11.8136   31.5797 C   0  0  0  0  0  0  0  0  0  0  0  0
   25.8717   11.2620   30.3357 C   0  0  0  0  0  0  0  0  0  0  0  0
   26.7051   10.2525   29.8280 C   0  0  0  0  0  0  0  0  0  0  0  0
   27.7973    9.8121   30.5651 C   0  0  0  0  0  0  0  0  0  0  0  0
  1  2  2  0  0  0
  2 25  1  0  0  0
  2  3  1  0  0  0
 25 26  2  0  0  0
 25 31  1  0  0  0
 26 27  1  0  0  0
 27 28  2  0  0  0
 28 29  1  0  0  0
 29 30  1  0  0  0
 29 31  2  0  0  0
  3  4  1  0  0  0
  3  7  1  0  0  0
  4  5  2  0  0  0
  4 19  1  0  0  0
  5  6  1  0  0  0
  6 22  2  0  0  0
  7  8  1  0  0  0
  7 32  1  0  0  0
  8  9  1  0  0  0
  8 17  2  0  0  0
  9 10  2  0  0  0
  9 11  2  0  0  0
  9 12  1  0  0  0
 12 13  1  0  0  0
 13 14  1  0  0  0
 13 15  1  0  0  0
 13 16  1  0  0  0
 16 17  1  0  0  0
 17 18  1  0  0  0
 18 19  1  0  0  0
 19 20  2  0  0  0
 20 21  1  0  0  0
 20 22  1  0  0  0
 32 33  2  0  0  0
 32 38  1  0  0  0
 33 34  1  0  0  0
 33 35  1  0  0  0
 35 36  2  0  0  0
 36 37  1  0  0  0
 36 39  1  0  0  0
 37 38  2  0  0  0
 39 40  1  0  0  0
 40 41  1  0  0  0
 41 42  2  0  0  0
 41 46  1  0  0  0
 42 43  1  0  0  0
 43 44  2  0  0  0
 44 45  1  0  0  0
 45 46  2  0  0  0
 18 23  1  0  0  0
 21 24  1  0  0  0
M  END
> <minimizedAffinity>
-10.49116

$$$$
3GNW_XNC_A_579


 46 51  0  0  0  0  0  0  0  0999 V2000
   28.1279    1.1663   34.8238 O   0  0  0  0  0  0  0  0  0  0  0  0
   27.8616    1.4939   35.9690 C   0  0  0  0  0  0  0  0  0  0  0  0
   28.4963    2.5824   36.5914 N   0  0  0  0  0  0  0  0  0  0  0  0
   27.9790    3.2537   37.7331 C   0  0  0  0  0  0  0  0  0  0  0  0
   26.7148    3.8606   37.6885 C   0  0  0  0  0  0  0  0  0  0  0  0
   26.2142    4.5466   38.7867 C   0  0  0  0  0  0  0  0  0  0  0  0
   29.7829    3.0709   36.0520 C   0  0  0  0  0  0  0  0  0  0  0  0
   30.9108    2.4341   36.8214 C   0  0  0  0  0  0  0  0  0  0  0  0
   32.1503    1.8587   35.7931 S   0  0  0  0  0  0  0  0  0  0  0  0
   32.6193    2.9817   34.9850 O   0  0  0  0  0  0  0  0  0  0  0  0
   31.6593    0.8446   34.8906 O   0  0  0  0  0  0  0  0  0  0  0  0
   33.4536    1.1640   36.8293 C   0  0  0  0  0  0  0  0  0  0  0  0
   33.5647    1.8557   38.1844 C   0  0  0  0  0  0  0  0  0  0  0  0
   34.6433    1.1264   39.0232 C   0  0  0  0  0  0  0  0  0  0  0  0
   33.9286    3.3587   38.0425 C   0  0  0  0  0  0  0  0  0  0  0  0
   32.1813    1.6802   38.8556 C   0  0  0  0  0  0  0  0  0  0  0  0
   30.9758    2.3054   38.1685 C   0  0  0  0  0  0  0  0  0  0  0  0
   30.0049    2.7366   39.0629 N   0  0  0  0  0  0  0  0  0  0  0  0
   28.7421    3.3308   38.9039 C   0  0  0  0  0  0  0  0  0  0  0  0
   28.2197    3.9959   39.9983 C   0  0  0  0  0  0  0  0  0  0  0  0
   28.9213    4.0964   41.1631 O   0  0  0  0  0  0  0  0  0  0  0  0
   26.9691    4.5988   39.9317 C   0  0  0  0  0  0  0  0  0  0  0  0
   30.2536    2.5965   40.0051 H   0  0  0  0  0  0  0  0  0  0  0  0
   29.7670    3.6997   41.2363 H   0  0  0  0  0  0  0  0  0  0  0  0
   26.8244    0.7063   36.6830 C   0  0  0  0  0  0  0  0  0  0  0  0
   27.1738   -0.2633   37.6086 C   0  0  0  0  0  0  0  0  0  0  0  0
   26.1566   -0.9707   38.2440 C   0  0  0  0  0  0  0  0  0  0  0  0
   24.8088   -0.6780   37.9676 C   0  0  0  0  0  0  0  0  0  0  0  0
   24.4671    0.3137   37.0617 C   0  0  0  0  0  0  0  0  0  0  0  0
   23.0361    0.6432   36.7319 C   0  0  0  0  0  0  0  0  0  0  0  0
   25.4838    0.9921   36.4207 N   0  0  0  0  0  0  0  0  0  0  0  0
   29.7115    4.6164   36.0595 C   0  0  0  0  0  0  0  0  0  0  0  0
   28.7577    5.2479   35.2718 C   0  0  0  0  0  0  0  0  0  0  0  0
   27.9429    4.4945   34.5372 F   0  0  0  0  0  0  0  0  0  0  0  0
   28.6636    6.6404   35.2352 C   0  0  0  0  0  0  0  0  0  0  0  0
   29.5341    7.4171   36.0016 C   0  0  0  0  0  0  0  0  0  0  0  0
   30.4936    6.7795   36.8001 C   0  0  0  0  0  0  0  0  0  0  0  0
   30.5838    5.3924   36.8207 C   0  0  0  0  0  0  0  0  0  0  0  0
   29.4020    8.7818   35.9605 O   0  0  0  0  0  0  0  0  0  0  0  0
   28.3484    9.4907   36.6493 C   0  0  0  0  0  0  0  0  0  0  0  0
   28.4190    9.2193   38.1457 C   0  0  0  0  0  0  0  0  0  0  0  0
   27.3577    8.6060   38.7860 C   0  0  0  0  0  0  0  0  0  0  0  0
   27.4184    8.3167   40.1442 C   0  0  0  0  0  0  0  0  0  0  0  0
   28.5476    8.6583   40.8744 C   0  0  0  0  0  0  0  0  0  0  0  0
   29.6264    9.2856   40.2309 C   0  0  0  0  0  0  0  0  0  0  0  0
   29.5650    9.5583   38.8700 C   0  0  0  0  0  0  0  0  0  0  0  0
  1  2  2  0  0  0
  2 25  1  0  0  0
  2  3  1  0  0  0
 25 26  2  0  0  0
 25 31  1  0  0  0
 26 27  1  0  0  0
 27 28  2  0  0  0
 28 29  1  0  0  0
 29 30  1  0  0  0
 29 31  2  0  0  0
  3  4  1  0  0  0
  3  7  1  0  0  0
  4  5  2  0  0  0
  4 19  1  0  0  0
  5  6  1  0  0  0
  6 22  2  0  0  0
  7  8  1  0  0  0
  7 32  1  0  0  0
  8  9  1  0  0  0
  8 17  2  0  0  0
  9 10  2  0  0  0
  9 11  2  0  0  0
  9 12  1  0  0  0
 12 13  1  0  0  0
 13 14  1  0  0  0
 13 15  1  0  0  0
 13 16  1  0  0  0
 16 17  1  0  0  0
 17 18  1  0  0  0
 18 19  1  0  0  0
 19 20  2  0  0  0
 20 21  1  0  0  0
 20 22  1  0  0  0
 32 33  2  0  0  0
 32 38  1  0  0  0
 33 34  1  0  0  0
 33 35  1  0  0  0
 35 36  2  0  0  0
 36 37  1  0  0  0
 36 39  1  0  0  0
 37 38  2  0  0  0
 39 40  1  0  0  0
 40 41  1  0  0  0
 41 42  2  0  0  0
 41 46  1  0  0  0
 42 43  1  0  0  0
 43 44  2  0  0  0
 44 45  1  0  0  0
 45 46  2  0  0  0
 18 23  1  0  0  0
 21 24  1  0  0  0
M  END
> <minimizedAffinity>
-10.25927

$$$$
3GNW_XNC_A_579


 46 51  0  0  0  0  0  0  0  0999 V2000
   30.3153    1.3916   36.9452 O   0  0  0  0  0  0  0  0  0  0  0  0
   29.4062    1.9954   37.4919 C   0  0  0  0  0  0  0  0  0  0  0  0
   29.2609    3.3870   37.3604 N   0  0  0  0  0  0  0  0  0  0  0  0
   28.0501    4.0850   37.6220 C   0  0  0  0  0  0  0  0  0  0  0  0
   26.8823    3.7739   36.9094 C   0  0  0  0  0  0  0  0  0  0  0  0
   25.7031    4.4714   37.1338 C   0  0  0  0  0  0  0  0  0  0  0  0
   30.4229    4.1958   36.9356 C   0  0  0  0  0  0  0  0  0  0  0  0
   31.1124    4.7437   38.1579 C   0  0  0  0  0  0  0  0  0  0  0  0
   32.8115    4.5686   38.0742 S   0  0  0  0  0  0  0  0  0  0  0  0
   33.2710    5.2323   36.8566 O   0  0  0  0  0  0  0  0  0  0  0  0
   33.1956    3.1797   37.9874 O   0  0  0  0  0  0  0  0  0  0  0  0
   33.5190    5.2978   39.5650 C   0  0  0  0  0  0  0  0  0  0  0  0
   32.6923    6.4603   40.1054 C   0  0  0  0  0  0  0  0  0  0  0  0
   33.3339    6.9490   41.4277 C   0  0  0  0  0  0  0  0  0  0  0  0
   32.6056    7.6336   39.0918 C   0  0  0  0  0  0  0  0  0  0  0  0
   31.2901    5.8734   40.3967 C   0  0  0  0  0  0  0  0  0  0  0  0
   30.4993    5.3119   39.2240 C   0  0  0  0  0  0  0  0  0  0  0  0
   29.1277    5.4766   39.3662 N   0  0  0  0  0  0  0  0  0  0  0  0
   28.0245    5.1049   38.5802 C   0  0  0  0  0  0  0  0  0  0  0  0
   26.8362    5.7741   38.8109 C   0  0  0  0  0  0  0  0  0  0  0  0
   26.7576    6.7728   39.7357 O   0  0  0  0  0  0  0  0  0  0  0  0
   25.6919    5.4577   38.0881 C   0  0  0  0  0  0  0  0  0  0  0  0
   28.8761    5.9535   40.1899 H   0  0  0  0  0  0  0  0  0  0  0  0
   27.5134    7.0073   40.2374 H   0  0  0  0  0  0  0  0  0  0  0  0
   28.4419    1.2007   38.2947 C   0  0  0  0  0  0  0  0  0  0  0  0
   27.5541    0.3280   37.6874 C   0  0  0  0  0  0  0  0  0  0  0  0
   26.6722   -0.3880   38.4927 C   0  0  0  0  0  0  0  0  0  0  0  0
   26.7118   -0.2437   39.8914 C   0  0  0  0  0  0  0  0  0  0  0  0
   27.6228    0.6098   40.4934 C   0  0  0  0  0  0  0  0  0  0  0  0
   27.6832    0.7989   41.9853 C   0  0  0  0  0  0  0  0  0  0  0  0
   28.4761    1.3318   39.6838 N   0  0  0  0  0  0  0  0  0  0  0  0
   29.8981    5.2231   35.9046 C   0  0  0  0  0  0  0  0  0  0  0  0
   29.4690    4.7697   34.6641 C   0  0  0  0  0  0  0  0  0  0  0  0
   29.5303    3.4646   34.4106 F   0  0  0  0  0  0  0  0  0  0  0  0
   28.9999    5.6601   33.6964 C   0  0  0  0  0  0  0  0  0  0  0  0
   28.9540    7.0275   33.9728 C   0  0  0  0  0  0  0  0  0  0  0  0
   29.3828    7.4846   35.2266 C   0  0  0  0  0  0  0  0  0  0  0  0
   29.8569    6.5892   36.1785 C   0  0  0  0  0  0  0  0  0  0  0  0
   28.4678    7.8740   33.0093 O   0  0  0  0  0  0  0  0  0  0  0  0
   28.7685    9.2867   32.9797 C   0  0  0  0  0  0  0  0  0  0  0  0
   27.7830   10.0184   32.0790 C   0  0  0  0  0  0  0  0  0  0  0  0
   27.4079    9.4602   30.8706 C   0  0  0  0  0  0  0  0  0  0  0  0
   26.4816   10.0952   30.0516 C   0  0  0  0  0  0  0  0  0  0  0  0
   25.9349   11.3105   30.4381 C   0  0  0  0  0  0  0  0  0  0  0  0
   26.3155   11.8845   31.6617 C   0  0  0  0  0  0  0  0  0  0  0  0
   27.2306   11.2371   32.4822 C   0  0  0  0  0  0  0  0  0  0  0  0
  1  2  2  0  0  0
  2 25  1  0  0  0
  2  3  1  0  0  0
 25 26  2  0  0  0
 25 31  1  0  0  0
 26 27  1  0  0  0
 27 28  2  0  0  0
 28 29  1  0  0  0
 29 30  1  0  0  0
 29 31  2  0  0  0
  3  4  1  0  0  0
  3  7  1  0  0  0
  4  5  2  0  0  0
  4 19  1  0  0  0
  5  6  1  0  0  0
  6 22  2  0  0  0
  7  8  1  0  0  0
  7 32  1  0  0  0
  8  9  1  0  0  0
  8 17  2  0  0  0
  9 10  2  0  0  0
  9 11  2  0  0  0
  9 12  1  0  0  0
 12 13  1  0  0  0
 13 14  1  0  0  0
 13 15  1  0  0  0
 13 16  1  0  0  0
 16 17  1  0  0  0
 17 18  1  0  0  0
 18 19  1  0  0  0
 19 20  2  0  0  0
 20 21  1  0  0  0
 20 22  1  0  0  0
 32 33  2  0  0  0
 32 38  1  0  0  0
 33 34  1  0  0  0
 33 35  1  0  0  0
 35 36  2  0  0  0
 36 37  1  0  0  0
 36 39  1  0  0  0
 37 38  2  0  0  0
 39 40  1  0  0  0
 40 41  1  0  0  0
 41 42  2  0  0  0
 41 46  1  0  0  0
 42 43  1  0  0  0
 43 44  2  0  0  0
 44 45  1  0  0  0
 45 46  2  0  0  0
 18 23  1  0  0  0
 21 24  1  0  0  0
M  END
> <minimizedAffinity>
-9.99341

$$$$
