6EJ3_B7T_A_501


 30 34  0  0  0  0  0  0  0  0999 V2000
  -21.8619  -39.3341   -8.7460 C   0  0  0  0  0  0  0  0  0  0  0  0
  -21.2544  -38.5978   -9.7454 C   0  0  0  0  0  0  0  0  0  0  0  0
  -19.7495  -40.0558   -7.9263 C   0  0  0  0  0  0  0  0  0  0  0  0
  -21.1292  -40.0690   -7.8242 C   0  0  0  0  0  0  0  0  0  0  0  0
  -19.8805  -38.6110   -9.8314 C   0  0  0  0  0  0  0  0  0  0  0  0
  -19.1385  -39.3293   -8.9337 C   0  0  0  0  0  0  0  0  0  0  0  0
  -16.2091  -40.0063   -7.7476 C   0  0  0  0  0  0  0  0  0  0  0  0
  -19.0279  -37.9107  -10.8231 C   0  0  0  0  0  0  0  0  0  0  0  0
  -16.1762  -36.8526  -12.0547 C   0  0  0  0  0  0  0  0  0  0  0  0
  -17.1317  -35.4336  -10.1880 C   0  0  0  0  0  0  0  0  0  0  0  0
  -16.5319  -38.1194  -11.2694 C   0  0  0  0  0  0  0  0  0  0  0  0
  -15.9719  -35.6277  -11.1602 C   0  0  0  0  0  0  0  0  0  0  0  0
  -17.6706  -39.1940   -9.2077 C   0  0  0  0  0  0  0  0  0  0  0  0
  -17.6256  -37.9844  -10.1856 C   0  0  0  0  0  0  0  0  0  0  0  0
  -16.9180  -38.9493   -7.9749 N   0  0  0  0  0  0  0  0  0  0  0  0
  -15.3570  -40.2077   -6.6784 N   0  0  0  0  0  0  0  0  0  0  0  0
  -17.3880  -36.6946   -9.3721 C   0  0  0  0  0  0  0  0  0  0  0  0
  -17.1258  -40.5350   -9.7139 C   0  0  0  0  0  0  0  0  0  0  0  0
  -16.3014  -41.0285   -8.6515 O   0  0  0  0  0  0  0  0  0  0  0  0
  -14.8602  -41.0538   -6.5974 H   0  0  0  0  0  0  0  0  0  0  0  0
  -15.2467  -39.5051   -5.9976 H   0  0  0  0  0  0  0  0  0  0  0  0
  -21.7688  -40.8987   -6.8186 C   0  0  0  0  0  0  0  0  0  0  0  0
  -21.8445  -41.8911   -4.6323 C   0  0  0  0  0  0  0  0  0  0  0  0
  -21.3316  -42.0212   -3.2429 C   0  0  0  0  0  0  0  0  0  0  0  0
  -21.2993  -40.9841   -5.5192 C   0  0  0  0  0  0  0  0  0  0  0  0
  -22.8159  -41.7451   -7.1399 C   0  0  0  0  0  0  0  0  0  0  0  0
  -22.8982  -42.6677   -5.0654 C   0  0  0  0  0  0  0  0  0  0  0  0
  -23.4109  -42.6048   -6.2996 N   0  0  0  0  0  0  0  0  0  0  0  0
  -15.9464  -34.4918  -12.0166 O   0  0  0  0  0  0  0  0  0  0  0  0
  -14.7240  -33.7706  -11.9164 C   0  0  0  0  0  0  0  0  0  0  0  0
 29 30  1  0  0  0
 29 12  1  0  0  0
  9 11  1  0  0  0
  9 12  1  0  0  0
 11 14  1  0  0  0
 12 10  1  0  0  0
  8 14  1  0  0  0
  8  5  1  0  0  0
 10 17  1  0  0  0
 14 17  1  0  0  0
 14 13  1  0  0  0
  5  2  2  0  0  0
  5  6  1  0  0  0
 18 13  1  0  0  0
 18 19  1  0  0  0
  2  1  1  0  0  0
 13  6  1  0  0  0
 13 15  1  0  0  0
  6  3  2  0  0  0
 19  7  1  0  0  0
  1  4  2  0  0  0
 15  7  2  0  0  0
  7 16  1  0  0  0
  3  4  1  0  0  0
  4 22  1  0  0  0
 26 22  2  0  0  0
 26 28  1  0  0  0
 22 25  1  0  0  0
 28 27  2  0  0  0
 25 23  2  0  0  0
 27 23  1  0  0  0
 23 24  1  0  0  0
 16 20  1  0  0  0
 16 21  1  0  0  0
M  END
> <minimizedAffinity>
-11.23782

$$$$
6EJ3_B7T_A_501


 30 34  0  0  0  0  0  0  0  0999 V2000
  -17.3107  -37.0373  -11.6464 C   0  0  0  0  0  0  0  0  0  0  0  0
  -18.5563  -37.5107  -11.2800 C   0  0  0  0  0  0  0  0  0  0  0  0
  -16.2419  -38.5646  -10.1699 C   0  0  0  0  0  0  0  0  0  0  0  0
  -16.1399  -37.5509  -11.1059 C   0  0  0  0  0  0  0  0  0  0  0  0
  -18.6300  -38.5121  -10.3382 C   0  0  0  0  0  0  0  0  0  0  0  0
  -17.4886  -39.0324   -9.7916 C   0  0  0  0  0  0  0  0  0  0  0  0
  -16.1514  -41.3411   -7.9673 C   0  0  0  0  0  0  0  0  0  0  0  0
  -19.8506  -39.1549   -9.7926 C   0  0  0  0  0  0  0  0  0  0  0  0
  -21.4884  -41.4118   -8.0627 C   0  0  0  0  0  0  0  0  0  0  0  0
  -20.7635  -42.1488  -10.3741 C   0  0  0  0  0  0  0  0  0  0  0  0
  -20.1164  -40.7662   -7.8418 C   0  0  0  0  0  0  0  0  0  0  0  0
  -21.4584  -42.5564   -9.0783 C   0  0  0  0  0  0  0  0  0  0  0  0
  -17.8021  -40.1128   -8.8004 C   0  0  0  0  0  0  0  0  0  0  0  0
  -19.2968  -40.4196   -9.1055 C   0  0  0  0  0  0  0  0  0  0  0  0
  -16.9376  -41.2798   -8.9919 N   0  0  0  0  0  0  0  0  0  0  0  0
  -15.1662  -42.2846   -7.7452 N   0  0  0  0  0  0  0  0  0  0  0  0
  -19.3705  -41.5932  -10.1051 C   0  0  0  0  0  0  0  0  0  0  0  0
  -17.4532  -39.6212   -7.3904 C   0  0  0  0  0  0  0  0  0  0  0  0
  -16.3062  -40.3857   -7.0011 O   0  0  0  0  0  0  0  0  0  0  0  0
  -14.6191  -42.2419   -6.9277 H   0  0  0  0  0  0  0  0  0  0  0  0
  -15.0114  -42.9993   -8.4043 H   0  0  0  0  0  0  0  0  0  0  0  0
  -14.8354  -37.0059  -11.4378 C   0  0  0  0  0  0  0  0  0  0  0  0
  -12.4632  -36.8428  -11.0969 C   0  0  0  0  0  0  0  0  0  0  0  0
  -11.2027  -37.3161  -10.4663 C   0  0  0  0  0  0  0  0  0  0  0  0
  -13.6666  -37.4794  -10.8670 C   0  0  0  0  0  0  0  0  0  0  0  0
  -14.7026  -35.8978  -12.2566 C   0  0  0  0  0  0  0  0  0  0  0  0
  -12.4561  -35.7582  -11.9482 C   0  0  0  0  0  0  0  0  0  0  0  0
  -13.5500  -35.2775  -12.5501 N   0  0  0  0  0  0  0  0  0  0  0  0
  -22.8111  -42.8553   -9.4023 O   0  0  0  0  0  0  0  0  0  0  0  0
  -23.6388  -41.6983   -9.3735 C   0  0  0  0  0  0  0  0  0  0  0  0
 29 30  1  0  0  0
 29 12  1  0  0  0
  9 11  1  0  0  0
  9 12  1  0  0  0
 11 14  1  0  0  0
 12 10  1  0  0  0
  8 14  1  0  0  0
  8  5  1  0  0  0
 10 17  1  0  0  0
 14 17  1  0  0  0
 14 13  1  0  0  0
  5  2  2  0  0  0
  5  6  1  0  0  0
 18 13  1  0  0  0
 18 19  1  0  0  0
  2  1  1  0  0  0
 13  6  1  0  0  0
 13 15  1  0  0  0
  6  3  2  0  0  0
 19  7  1  0  0  0
  1  4  2  0  0  0
 15  7  2  0  0  0
  7 16  1  0  0  0
  3  4  1  0  0  0
  4 22  1  0  0  0
 26 22  2  0  0  0
 26 28  1  0  0  0
 22 25  1  0  0  0
 28 27  2  0  0  0
 25 23  2  0  0  0
 27 23  1  0  0  0
 23 24  1  0  0  0
 16 20  1  0  0  0
 16 21  1  0  0  0
M  END
> <minimizedAffinity>
-10.23832

$$$$
6EJ3_B7T_A_501


 30 34  0  0  0  0  0  0  0  0999 V2000
  -21.7237  -39.9320   -9.0563 C   0  0  0  0  0  0  0  0  0  0  0  0
  -21.1984  -38.9721   -9.9004 C   0  0  0  0  0  0  0  0  0  0  0  0
  -19.5431  -40.6454   -8.4309 C   0  0  0  0  0  0  0  0  0  0  0  0
  -20.9150  -40.7782   -8.3102 C   0  0  0  0  0  0  0  0  0  0  0  0
  -19.8300  -38.8686  -10.0104 C   0  0  0  0  0  0  0  0  0  0  0  0
  -19.0139  -39.6933   -9.2849 C   0  0  0  0  0  0  0  0  0  0  0  0
  -16.0104  -40.3757   -8.3052 C   0  0  0  0  0  0  0  0  0  0  0  0
  -19.0576  -37.9278  -10.8582 C   0  0  0  0  0  0  0  0  0  0  0  0
  -16.3232  -36.4452  -11.9040 C   0  0  0  0  0  0  0  0  0  0  0  0
  -17.3148  -35.4925   -9.7780 C   0  0  0  0  0  0  0  0  0  0  0  0
  -16.5681  -37.8637  -11.3787 C   0  0  0  0  0  0  0  0  0  0  0  0
  -16.1749  -35.4078  -10.7887 C   0  0  0  0  0  0  0  0  0  0  0  0
  -17.5677  -39.4010   -9.5513 C   0  0  0  0  0  0  0  0  0  0  0  0
  -17.6346  -38.0232  -10.2715 C   0  0  0  0  0  0  0  0  0  0  0  0
  -16.7959  -39.3487   -8.3072 N   0  0  0  0  0  0  0  0  0  0  0  0
  -15.1142  -40.7205   -7.3113 N   0  0  0  0  0  0  0  0  0  0  0  0
  -17.4600  -36.9041   -9.2232 C   0  0  0  0  0  0  0  0  0  0  0  0
  -16.9491  -40.5738  -10.3215 C   0  0  0  0  0  0  0  0  0  0  0  0
  -16.0610  -41.2049   -9.3916 O   0  0  0  0  0  0  0  0  0  0  0  0
  -14.5590  -41.5278   -7.4075 H   0  0  0  0  0  0  0  0  0  0  0  0
  -15.0309  -40.1588   -6.5070 H   0  0  0  0  0  0  0  0  0  0  0  0
  -21.4658  -41.8329   -7.4779 C   0  0  0  0  0  0  0  0  0  0  0  0
  -21.2565  -43.8951   -6.2637 C   0  0  0  0  0  0  0  0  0  0  0  0
  -20.4314  -44.9936   -5.6956 C   0  0  0  0  0  0  0  0  0  0  0  0
  -20.6798  -42.8309   -6.9280 C   0  0  0  0  0  0  0  0  0  0  0  0
  -22.8306  -41.9649   -7.2882 C   0  0  0  0  0  0  0  0  0  0  0  0
  -22.6281  -43.9047   -6.1230 C   0  0  0  0  0  0  0  0  0  0  0  0
  -23.4325  -42.9517   -6.6075 N   0  0  0  0  0  0  0  0  0  0  0  0
  -16.2526  -34.1274  -11.4040 O   0  0  0  0  0  0  0  0  0  0  0  0
  -14.9736  -33.5199  -11.5439 C   0  0  0  0  0  0  0  0  0  0  0  0
 29 30  1  0  0  0
 29 12  1  0  0  0
  9 11  1  0  0  0
  9 12  1  0  0  0
 11 14  1  0  0  0
 12 10  1  0  0  0
  8 14  1  0  0  0
  8  5  1  0  0  0
 10 17  1  0  0  0
 14 17  1  0  0  0
 14 13  1  0  0  0
  5  2  2  0  0  0
  5  6  1  0  0  0
 18 13  1  0  0  0
 18 19  1  0  0  0
  2  1  1  0  0  0
 13  6  1  0  0  0
 13 15  1  0  0  0
  6  3  2  0  0  0
 19  7  1  0  0  0
  1  4  2  0  0  0
 15  7  2  0  0  0
  7 16  1  0  0  0
  3  4  1  0  0  0
  4 22  1  0  0  0
 26 22  2  0  0  0
 26 28  1  0  0  0
 22 25  1  0  0  0
 28 27  2  0  0  0
 25 23  2  0  0  0
 27 23  1  0  0  0
 23 24  1  0  0  0
 16 20  1  0  0  0
 16 21  1  0  0  0
M  END
> <minimizedAffinity>
-10.21105

$$$$
6EJ3_B7T_A_501


 30 34  0  0  0  0  0  0  0  0999 V2000
  -19.3059  -37.9990  -10.5776 C   0  0  0  0  0  0  0  0  0  0  0  0
  -18.1640  -37.6346  -11.2655 C   0  0  0  0  0  0  0  0  0  0  0  0
  -18.2706  -40.0022   -9.8223 C   0  0  0  0  0  0  0  0  0  0  0  0
  -19.3810  -39.1773   -9.8476 C   0  0  0  0  0  0  0  0  0  0  0  0
  -17.0772  -38.4790  -11.2329 C   0  0  0  0  0  0  0  0  0  0  0  0
  -17.1296  -39.6461  -10.5204 C   0  0  0  0  0  0  0  0  0  0  0  0
  -15.5201  -42.1847   -9.3325 C   0  0  0  0  0  0  0  0  0  0  0  0
  -15.7664  -38.2952  -11.9028 C   0  0  0  0  0  0  0  0  0  0  0  0
  -12.6297  -39.0309  -12.5258 C   0  0  0  0  0  0  0  0  0  0  0  0
  -13.0177  -37.6820  -10.4185 C   0  0  0  0  0  0  0  0  0  0  0  0
  -13.8272  -39.9196  -12.1735 C   0  0  0  0  0  0  0  0  0  0  0  0
  -11.9853  -38.3765  -11.3016 C   0  0  0  0  0  0  0  0  0  0  0  0
  -15.8382  -40.4018  -10.6161 C   0  0  0  0  0  0  0  0  0  0  0  0
  -14.8691  -39.3309  -11.1953 C   0  0  0  0  0  0  0  0  0  0  0  0
  -15.4112  -40.8967   -9.3050 N   0  0  0  0  0  0  0  0  0  0  0  0
  -15.2316  -43.0541   -8.2976 N   0  0  0  0  0  0  0  0  0  0  0  0
  -14.1417  -38.6331  -10.0267 C   0  0  0  0  0  0  0  0  0  0  0  0
  -16.0590  -41.6767  -11.4390 C   0  0  0  0  0  0  0  0  0  0  0  0
  -15.9582  -42.7515  -10.4974 O   0  0  0  0  0  0  0  0  0  0  0  0
  -15.3492  -44.0237   -8.4220 H   0  0  0  0  0  0  0  0  0  0  0  0
  -14.9084  -42.7040   -7.4361 H   0  0  0  0  0  0  0  0  0  0  0  0
  -20.6032  -39.5944   -9.1835 C   0  0  0  0  0  0  0  0  0  0  0  0
  -21.8284  -40.2400   -7.2208 C   0  0  0  0  0  0  0  0  0  0  0  0
  -21.9368  -40.3965   -5.7463 C   0  0  0  0  0  0  0  0  0  0  0  0
  -20.6993  -39.7035   -7.8069 C   0  0  0  0  0  0  0  0  0  0  0  0
  -21.7058  -40.0227   -9.9023 C   0  0  0  0  0  0  0  0  0  0  0  0
  -22.8701  -40.6138   -8.0432 C   0  0  0  0  0  0  0  0  0  0  0  0
  -22.8427  -40.5023   -9.3761 N   0  0  0  0  0  0  0  0  0  0  0  0
  -11.1035  -37.3715  -11.7879 O   0  0  0  0  0  0  0  0  0  0  0  0
  -11.0181  -36.2586  -10.9055 C   0  0  0  0  0  0  0  0  0  0  0  0
 29 30  1  0  0  0
 29 12  1  0  0  0
  9 11  1  0  0  0
  9 12  1  0  0  0
 11 14  1  0  0  0
 12 10  1  0  0  0
  8 14  1  0  0  0
  8  5  1  0  0  0
 10 17  1  0  0  0
 14 17  1  0  0  0
 14 13  1  0  0  0
  5  2  2  0  0  0
  5  6  1  0  0  0
 18 13  1  0  0  0
 18 19  1  0  0  0
  2  1  1  0  0  0
 13  6  1  0  0  0
 13 15  1  0  0  0
  6  3  2  0  0  0
 19  7  1  0  0  0
  1  4  2  0  0  0
 15  7  2  0  0  0
  7 16  1  0  0  0
  3  4  1  0  0  0
  4 22  1  0  0  0
 26 22  2  0  0  0
 26 28  1  0  0  0
 22 25  1  0  0  0
 28 27  2  0  0  0
 25 23  2  0  0  0
 27 23  1  0  0  0
 23 24  1  0  0  0
 16 20  1  0  0  0
 16 21  1  0  0  0
M  END
> <minimizedAffinity>
-10.03656

$$$$
6EJ3_B7T_A_501


 30 34  0  0  0  0  0  0  0  0999 V2000
  -15.5067  -41.1377  -11.2011 C   0  0  0  0  0  0  0  0  0  0  0  0
  -16.8069  -41.4109  -10.8204 C   0  0  0  0  0  0  0  0  0  0  0  0
  -15.8383  -38.8107  -10.8400 C   0  0  0  0  0  0  0  0  0  0  0  0
  -15.0004  -39.8453  -11.2164 C   0  0  0  0  0  0  0  0  0  0  0  0
  -17.6228  -40.3619  -10.4613 C   0  0  0  0  0  0  0  0  0  0  0  0
  -17.1448  -39.0798  -10.4701 C   0  0  0  0  0  0  0  0  0  0  0  0
  -17.6347  -35.9864   -9.6717 C   0  0  0  0  0  0  0  0  0  0  0  0
  -19.0426  -40.4228  -10.0355 C   0  0  0  0  0  0  0  0  0  0  0  0
  -21.8243  -39.1819   -8.8143 C   0  0  0  0  0  0  0  0  0  0  0  0
  -20.0995  -39.8542   -7.0868 C   0  0  0  0  0  0  0  0  0  0  0  0
  -20.7197  -38.5459   -9.6649 C   0  0  0  0  0  0  0  0  0  0  0  0
  -21.4771  -39.2429   -7.3251 C   0  0  0  0  0  0  0  0  0  0  0  0
  -18.1963  -38.1028  -10.0368 C   0  0  0  0  0  0  0  0  0  0  0  0
  -19.2750  -39.0326   -9.4097 C   0  0  0  0  0  0  0  0  0  0  0  0
  -17.6615  -37.1340   -9.0768 N   0  0  0  0  0  0  0  0  0  0  0  0
  -17.1899  -34.7939   -9.1331 N   0  0  0  0  0  0  0  0  0  0  0  0
  -19.0256  -39.1307   -7.8898 C   0  0  0  0  0  0  0  0  0  0  0  0
  -18.6124  -37.2436  -11.2368 C   0  0  0  0  0  0  0  0  0  0  0  0
  -18.0946  -35.9373  -10.9587 O   0  0  0  0  0  0  0  0  0  0  0  0
  -17.2117  -33.9713   -9.6734 H   0  0  0  0  0  0  0  0  0  0  0  0
  -16.8511  -34.7672   -8.2091 H   0  0  0  0  0  0  0  0  0  0  0  0
  -13.6575  -39.5506  -11.6836 C   0  0  0  0  0  0  0  0  0  0  0  0
  -11.6697  -38.2019  -11.6905 C   0  0  0  0  0  0  0  0  0  0  0  0
  -10.8380  -37.1056  -11.1276 C   0  0  0  0  0  0  0  0  0  0  0  0
  -12.8818  -38.5481  -11.1273 C   0  0  0  0  0  0  0  0  0  0  0  0
  -13.1250  -40.1804  -12.7953 C   0  0  0  0  0  0  0  0  0  0  0  0
  -11.2370  -38.9167  -12.7873 C   0  0  0  0  0  0  0  0  0  0  0  0
  -11.9314  -39.9142  -13.3466 N   0  0  0  0  0  0  0  0  0  0  0  0
  -22.4308  -40.1043   -6.7147 O   0  0  0  0  0  0  0  0  0  0  0  0
  -23.0582  -40.9655   -7.6576 C   0  0  0  0  0  0  0  0  0  0  0  0
 29 30  1  0  0  0
 29 12  1  0  0  0
  9 11  1  0  0  0
  9 12  1  0  0  0
 11 14  1  0  0  0
 12 10  1  0  0  0
  8 14  1  0  0  0
  8  5  1  0  0  0
 10 17  1  0  0  0
 14 17  1  0  0  0
 14 13  1  0  0  0
  5  2  2  0  0  0
  5  6  1  0  0  0
 18 13  1  0  0  0
 18 19  1  0  0  0
  2  1  1  0  0  0
 13  6  1  0  0  0
 13 15  1  0  0  0
  6  3  2  0  0  0
 19  7  1  0  0  0
  1  4  2  0  0  0
 15  7  2  0  0  0
  7 16  1  0  0  0
  3  4  1  0  0  0
  4 22  1  0  0  0
 26 22  2  0  0  0
 26 28  1  0  0  0
 22 25  1  0  0  0
 28 27  2  0  0  0
 25 23  2  0  0  0
 27 23  1  0  0  0
 23 24  1  0  0  0
 16 20  1  0  0  0
 16 21  1  0  0  0
M  END
> <minimizedAffinity>
-9.94943

$$$$
6EJ3_B7T_A_501


 30 34  0  0  0  0  0  0  0  0999 V2000
  -14.5440  -37.7611  -12.5368 C   0  0  0  0  0  0  0  0  0  0  0  0
  -14.3723  -39.0942  -12.8584 C   0  0  0  0  0  0  0  0  0  0  0  0
  -15.2781  -38.3330  -10.3485 C   0  0  0  0  0  0  0  0  0  0  0  0
  -14.9939  -37.3574  -11.2873 C   0  0  0  0  0  0  0  0  0  0  0  0
  -14.6732  -40.0451  -11.9095 C   0  0  0  0  0  0  0  0  0  0  0  0
  -15.1190  -39.6696  -10.6715 C   0  0  0  0  0  0  0  0  0  0  0  0
  -15.8250  -40.5620   -7.6463 C   0  0  0  0  0  0  0  0  0  0  0  0
  -14.5769  -41.5196  -12.0419 C   0  0  0  0  0  0  0  0  0  0  0  0
  -14.6209  -44.6031  -10.9201 C   0  0  0  0  0  0  0  0  0  0  0  0
  -12.4455  -43.3595  -10.5565 C   0  0  0  0  0  0  0  0  0  0  0  0
  -15.4014  -43.3574  -10.4879 C   0  0  0  0  0  0  0  0  0  0  0  0
  -13.2086  -44.6618  -10.3334 C   0  0  0  0  0  0  0  0  0  0  0  0
  -15.3747  -40.8620   -9.7993 C   0  0  0  0  0  0  0  0  0  0  0  0
  -14.6616  -42.0035  -10.5801 C   0  0  0  0  0  0  0  0  0  0  0  0
  -14.8228  -40.6688   -8.4561 N   0  0  0  0  0  0  0  0  0  0  0  0
  -15.7579  -40.3581   -6.2811 N   0  0  0  0  0  0  0  0  0  0  0  0
  -13.2277  -42.1619  -10.0318 C   0  0  0  0  0  0  0  0  0  0  0  0
  -16.8836  -41.0003   -9.5629 C   0  0  0  0  0  0  0  0  0  0  0  0
  -17.0783  -40.6647   -8.1841 O   0  0  0  0  0  0  0  0  0  0  0  0
  -16.5855  -40.2907   -5.7522 H   0  0  0  0  0  0  0  0  0  0  0  0
  -14.8825  -40.2804   -5.8374 H   0  0  0  0  0  0  0  0  0  0  0  0
  -15.2417  -35.9616  -10.9728 C   0  0  0  0  0  0  0  0  0  0  0  0
  -16.6727  -34.1864  -10.2169 C   0  0  0  0  0  0  0  0  0  0  0  0
  -17.9380  -33.7065   -9.6012 C   0  0  0  0  0  0  0  0  0  0  0  0
  -16.4114  -35.5336  -10.3688 C   0  0  0  0  0  0  0  0  0  0  0  0
  -14.3677  -34.9650  -11.3717 C   0  0  0  0  0  0  0  0  0  0  0  0
  -15.7142  -33.2889  -10.6378 C   0  0  0  0  0  0  0  0  0  0  0  0
  -14.5543  -33.6479  -11.1996 N   0  0  0  0  0  0  0  0  0  0  0  0
  -12.5121  -45.6834  -11.0375 O   0  0  0  0  0  0  0  0  0  0  0  0
  -13.1972  -46.0853  -12.2180 C   0  0  0  0  0  0  0  0  0  0  0  0
 29 30  1  0  0  0
 29 12  1  0  0  0
  9 11  1  0  0  0
  9 12  1  0  0  0
 11 14  1  0  0  0
 12 10  1  0  0  0
  8 14  1  0  0  0
  8  5  1  0  0  0
 10 17  1  0  0  0
 14 17  1  0  0  0
 14 13  1  0  0  0
  5  2  2  0  0  0
  5  6  1  0  0  0
 18 13  1  0  0  0
 18 19  1  0  0  0
  2  1  1  0  0  0
 13  6  1  0  0  0
 13 15  1  0  0  0
  6  3  2  0  0  0
 19  7  1  0  0  0
  1  4  2  0  0  0
 15  7  2  0  0  0
  7 16  1  0  0  0
  3  4  1  0  0  0
  4 22  1  0  0  0
 26 22  2  0  0  0
 26 28  1  0  0  0
 22 25  1  0  0  0
 28 27  2  0  0  0
 25 23  2  0  0  0
 27 23  1  0  0  0
 23 24  1  0  0  0
 16 20  1  0  0  0
 16 21  1  0  0  0
M  END
> <minimizedAffinity>
-9.66900

$$$$
6EJ3_B7T_A_501


 30 34  0  0  0  0  0  0  0  0999 V2000
  -15.3024  -38.1280  -11.6229 C   0  0  0  0  0  0  0  0  0  0  0  0
  -15.3152  -39.4964  -11.8165 C   0  0  0  0  0  0  0  0  0  0  0  0
  -16.9212  -38.3089   -9.8903 C   0  0  0  0  0  0  0  0  0  0  0  0
  -16.0955  -37.5129  -10.6640 C   0  0  0  0  0  0  0  0  0  0  0  0
  -16.1543  -40.2640  -11.0408 C   0  0  0  0  0  0  0  0  0  0  0  0
  -16.9455  -39.6784  -10.0903 C   0  0  0  0  0  0  0  0  0  0  0  0
  -18.9281  -40.0864   -7.5705 C   0  0  0  0  0  0  0  0  0  0  0  0
  -16.3379  -41.7353  -11.0872 C   0  0  0  0  0  0  0  0  0  0  0  0
  -17.4758  -44.6140   -9.9975 C   0  0  0  0  0  0  0  0  0  0  0  0
  -15.3897  -43.7743   -8.8337 C   0  0  0  0  0  0  0  0  0  0  0  0
  -18.0711  -43.2032   -9.9410 C   0  0  0  0  0  0  0  0  0  0  0  0
  -16.4435  -44.8759   -8.8984 C   0  0  0  0  0  0  0  0  0  0  0  0
  -17.7673  -40.6985   -9.3610 C   0  0  0  0  0  0  0  0  0  0  0  0
  -17.0769  -42.0327   -9.7667 C   0  0  0  0  0  0  0  0  0  0  0  0
  -17.7419  -40.4690   -7.9143 N   0  0  0  0  0  0  0  0  0  0  0  0
  -19.3443  -39.7520   -6.2958 N   0  0  0  0  0  0  0  0  0  0  0  0
  -16.0323  -42.4001   -8.6918 C   0  0  0  0  0  0  0  0  0  0  0  0
  -19.2431  -40.5212   -9.7379 C   0  0  0  0  0  0  0  0  0  0  0  0
  -19.8712  -40.0069   -8.5577 O   0  0  0  0  0  0  0  0  0  0  0  0
  -20.2750  -39.4715   -6.1396 H   0  0  0  0  0  0  0  0  0  0  0  0
  -18.7102  -39.7942   -5.5439 H   0  0  0  0  0  0  0  0  0  0  0  0
  -16.1347  -36.0696  -10.5085 C   0  0  0  0  0  0  0  0  0  0  0  0
  -17.3056  -34.0240  -10.0452 C   0  0  0  0  0  0  0  0  0  0  0  0
  -18.5131  -33.2913   -9.5807 C   0  0  0  0  0  0  0  0  0  0  0  0
  -17.2555  -35.4038  -10.0430 C   0  0  0  0  0  0  0  0  0  0  0  0
  -15.0887  -35.2687  -10.9335 C   0  0  0  0  0  0  0  0  0  0  0  0
  -16.1911  -33.3357  -10.4755 C   0  0  0  0  0  0  0  0  0  0  0  0
  -15.0714  -33.9277  -10.9066 N   0  0  0  0  0  0  0  0  0  0  0  0
  -15.7713  -46.0814   -9.2433 O   0  0  0  0  0  0  0  0  0  0  0  0
  -15.2306  -46.0378  -10.5587 C   0  0  0  0  0  0  0  0  0  0  0  0
 29 30  1  0  0  0
 29 12  1  0  0  0
  9 11  1  0  0  0
  9 12  1  0  0  0
 11 14  1  0  0  0
 12 10  1  0  0  0
  8 14  1  0  0  0
  8  5  1  0  0  0
 10 17  1  0  0  0
 14 17  1  0  0  0
 14 13  1  0  0  0
  5  2  2  0  0  0
  5  6  1  0  0  0
 18 13  1  0  0  0
 18 19  1  0  0  0
  2  1  1  0  0  0
 13  6  1  0  0  0
 13 15  1  0  0  0
  6  3  2  0  0  0
 19  7  1  0  0  0
  1  4  2  0  0  0
 15  7  2  0  0  0
  7 16  1  0  0  0
  3  4  1  0  0  0
  4 22  1  0  0  0
 26 22  2  0  0  0
 26 28  1  0  0  0
 22 25  1  0  0  0
 28 27  2  0  0  0
 25 23  2  0  0  0
 27 23  1  0  0  0
 23 24  1  0  0  0
 16 20  1  0  0  0
 16 21  1  0  0  0
M  END
> <minimizedAffinity>
-9.57335

$$$$
6EJ3_B7T_A_501


 30 34  0  0  0  0  0  0  0  0999 V2000
  -18.7684  -37.5845  -10.7334 C   0  0  0  0  0  0  0  0  0  0  0  0
  -19.8882  -38.1993  -10.2059 C   0  0  0  0  0  0  0  0  0  0  0  0
  -17.5325  -39.6118  -10.5998 C   0  0  0  0  0  0  0  0  0  0  0  0
  -17.5804  -38.2718  -10.9409 C   0  0  0  0  0  0  0  0  0  0  0  0
  -19.8099  -39.5306   -9.8646 C   0  0  0  0  0  0  0  0  0  0  0  0
  -18.6485  -40.2273  -10.0597 C   0  0  0  0  0  0  0  0  0  0  0  0
  -17.1711  -43.1018  -10.0920 C   0  0  0  0  0  0  0  0  0  0  0  0
  -20.8750  -40.3794   -9.2765 C   0  0  0  0  0  0  0  0  0  0  0  0
  -22.2000  -43.2200   -8.3048 C   0  0  0  0  0  0  0  0  0  0  0  0
  -22.3777  -42.7458  -10.7856 C   0  0  0  0  0  0  0  0  0  0  0  0
  -20.7472  -42.7331   -8.3191 C   0  0  0  0  0  0  0  0  0  0  0  0
  -22.6745  -43.7375   -9.6647 C   0  0  0  0  0  0  0  0  0  0  0  0
  -18.7907  -41.6562   -9.6286 C   0  0  0  0  0  0  0  0  0  0  0  0
  -20.3328  -41.8079   -9.4858 C   0  0  0  0  0  0  0  0  0  0  0  0
  -18.2248  -42.5722  -10.6220 N   0  0  0  0  0  0  0  0  0  0  0  0
  -16.3251  -44.0174  -10.6888 N   0  0  0  0  0  0  0  0  0  0  0  0
  -20.9037  -42.3605  -10.8089 C   0  0  0  0  0  0  0  0  0  0  0  0
  -17.9366  -41.8935   -8.3774 C   0  0  0  0  0  0  0  0  0  0  0  0
  -16.8581  -42.7291   -8.8140 O   0  0  0  0  0  0  0  0  0  0  0  0
  -15.5452  -44.3610  -10.1960 H   0  0  0  0  0  0  0  0  0  0  0  0
  -16.5024  -44.3259  -11.6067 H   0  0  0  0  0  0  0  0  0  0  0  0
  -16.3835  -37.6097  -11.4286 C   0  0  0  0  0  0  0  0  0  0  0  0
  -15.1897  -35.6462  -12.1284 C   0  0  0  0  0  0  0  0  0  0  0  0
  -15.0817  -34.1705  -12.2733 C   0  0  0  0  0  0  0  0  0  0  0  0
  -16.2854  -36.2324  -11.5267 C   0  0  0  0  0  0  0  0  0  0  0  0
  -15.3160  -38.3295  -11.9368 C   0  0  0  0  0  0  0  0  0  0  0  0
  -14.1801  -36.4699  -12.5795 C   0  0  0  0  0  0  0  0  0  0  0  0
  -14.2093  -37.8040  -12.4829 N   0  0  0  0  0  0  0  0  0  0  0  0
  -24.0888  -43.8704   -9.5842 O   0  0  0  0  0  0  0  0  0  0  0  0
  -24.7637  -42.6836   -9.9849 C   0  0  0  0  0  0  0  0  0  0  0  0
 29 30  1  0  0  0
 29 12  1  0  0  0
  9 11  1  0  0  0
  9 12  1  0  0  0
 11 14  1  0  0  0
 12 10  1  0  0  0
  8 14  1  0  0  0
  8  5  1  0  0  0
 10 17  1  0  0  0
 14 17  1  0  0  0
 14 13  1  0  0  0
  5  2  2  0  0  0
  5  6  1  0  0  0
 18 13  1  0  0  0
 18 19  1  0  0  0
  2  1  1  0  0  0
 13  6  1  0  0  0
 13 15  1  0  0  0
  6  3  2  0  0  0
 19  7  1  0  0  0
  1  4  2  0  0  0
 15  7  2  0  0  0
  7 16  1  0  0  0
  3  4  1  0  0  0
  4 22  1  0  0  0
 26 22  2  0  0  0
 26 28  1  0  0  0
 22 25  1  0  0  0
 28 27  2  0  0  0
 25 23  2  0  0  0
 27 23  1  0  0  0
 23 24  1  0  0  0
 16 20  1  0  0  0
 16 21  1  0  0  0
M  END
> <minimizedAffinity>
-9.24441

$$$$
6EJ3_B7T_A_501


 30 34  0  0  0  0  0  0  0  0999 V2000
  -16.4272  -40.5962  -10.9286 C   0  0  0  0  0  0  0  0  0  0  0  0
  -16.8191  -41.8898  -10.6406 C   0  0  0  0  0  0  0  0  0  0  0  0
  -18.5967  -39.7716  -10.4106 C   0  0  0  0  0  0  0  0  0  0  0  0
  -17.2986  -39.5214  -10.8185 C   0  0  0  0  0  0  0  0  0  0  0  0
  -18.1195  -42.1125  -10.2477 C   0  0  0  0  0  0  0  0  0  0  0  0
  -18.9958  -41.0678  -10.1334 C   0  0  0  0  0  0  0  0  0  0  0  0
  -21.8918  -40.0412   -9.1305 C   0  0  0  0  0  0  0  0  0  0  0  0
  -18.7532  -43.4094   -9.9052 C   0  0  0  0  0  0  0  0  0  0  0  0
  -21.1600  -45.3152   -8.7458 C   0  0  0  0  0  0  0  0  0  0  0  0
  -19.6546  -44.2958   -6.9834 C   0  0  0  0  0  0  0  0  0  0  0  0
  -21.1981  -43.9733   -9.4846 C   0  0  0  0  0  0  0  0  0  0  0  0
  -20.8767  -45.1700   -7.2488 C   0  0  0  0  0  0  0  0  0  0  0  0
  -20.3475  -41.5364   -9.6848 C   0  0  0  0  0  0  0  0  0  0  0  0
  -20.0503  -42.9813   -9.1893 C   0  0  0  0  0  0  0  0  0  0  0  0
  -20.8858  -40.6782   -8.6266 N   0  0  0  0  0  0  0  0  0  0  0  0
  -22.6853  -39.1155   -8.4798 N   0  0  0  0  0  0  0  0  0  0  0  0
  -19.7821  -42.9416   -7.6700 C   0  0  0  0  0  0  0  0  0  0  0  0
  -21.3462  -41.3739  -10.8370 C   0  0  0  0  0  0  0  0  0  0  0  0
  -22.2126  -40.3071  -10.4331 O   0  0  0  0  0  0  0  0  0  0  0  0
  -23.4312  -38.6849   -8.9566 H   0  0  0  0  0  0  0  0  0  0  0  0
  -22.5046  -38.8867   -7.5394 H   0  0  0  0  0  0  0  0  0  0  0  0
  -16.9076  -38.1727  -11.1886 C   0  0  0  0  0  0  0  0  0  0  0  0
  -15.2763  -36.5724  -11.9289 C   0  0  0  0  0  0  0  0  0  0  0  0
  -13.9332  -36.2380  -12.4718 C   0  0  0  0  0  0  0  0  0  0  0  0
  -15.6649  -37.8813  -11.7244 C   0  0  0  0  0  0  0  0  0  0  0  0
  -17.7169  -37.0844  -10.9120 C   0  0  0  0  0  0  0  0  0  0  0  0
  -16.1797  -35.5741  -11.6315 C   0  0  0  0  0  0  0  0  0  0  0  0
  -17.4037  -35.8003  -11.1408 N   0  0  0  0  0  0  0  0  0  0  0  0
  -20.5776  -46.4714   -6.7579 O   0  0  0  0  0  0  0  0  0  0  0  0
  -19.3222  -46.5184   -6.0901 C   0  0  0  0  0  0  0  0  0  0  0  0
 29 30  1  0  0  0
 29 12  1  0  0  0
  9 11  1  0  0  0
  9 12  1  0  0  0
 11 14  1  0  0  0
 12 10  1  0  0  0
  8 14  1  0  0  0
  8  5  1  0  0  0
 10 17  1  0  0  0
 14 17  1  0  0  0
 14 13  1  0  0  0
  5  2  2  0  0  0
  5  6  1  0  0  0
 18 13  1  0  0  0
 18 19  1  0  0  0
  2  1  1  0  0  0
 13  6  1  0  0  0
 13 15  1  0  0  0
  6  3  2  0  0  0
 19  7  1  0  0  0
  1  4  2  0  0  0
 15  7  2  0  0  0
  7 16  1  0  0  0
  3  4  1  0  0  0
  4 22  1  0  0  0
 26 22  2  0  0  0
 26 28  1  0  0  0
 22 25  1  0  0  0
 28 27  2  0  0  0
 25 23  2  0  0  0
 27 23  1  0  0  0
 23 24  1  0  0  0
 16 20  1  0  0  0
 16 21  1  0  0  0
M  END
> <minimizedAffinity>
-8.83572

$$$$
6EJ3_B7T_A_501


 30 34  0  0  0  0  0  0  0  0999 V2000
  -20.9377  -38.4679   -9.5856 C   0  0  0  0  0  0  0  0  0  0  0  0
  -21.9825  -39.0341   -8.8799 C   0  0  0  0  0  0  0  0  0  0  0  0
  -19.7523  -40.5294   -9.5798 C   0  0  0  0  0  0  0  0  0  0  0  0
  -19.8137  -39.1972   -9.9481 C   0  0  0  0  0  0  0  0  0  0  0  0
  -21.8909  -40.3587   -8.5162 C   0  0  0  0  0  0  0  0  0  0  0  0
  -20.7915  -41.0962   -8.8622 C   0  0  0  0  0  0  0  0  0  0  0  0
  -19.4156  -44.0159   -9.0322 C   0  0  0  0  0  0  0  0  0  0  0  0
  -22.8790  -41.1590   -7.7521 C   0  0  0  0  0  0  0  0  0  0  0  0
  -24.1216  -43.9321   -6.5133 C   0  0  0  0  0  0  0  0  0  0  0  0
  -24.6555  -43.5123   -8.9525 C   0  0  0  0  0  0  0  0  0  0  0  0
  -22.6744  -43.4917   -6.7577 C   0  0  0  0  0  0  0  0  0  0  0  0
  -24.8085  -44.4668   -7.7720 C   0  0  0  0  0  0  0  0  0  0  0  0
  -20.9070  -42.5091   -8.3742 C   0  0  0  0  0  0  0  0  0  0  0  0
  -22.4140  -42.6085   -7.9990 C   0  0  0  0  0  0  0  0  0  0  0  0
  -20.5217  -43.4662   -9.4142 N   0  0  0  0  0  0  0  0  0  0  0  0
  -18.6942  -44.9718   -9.7220 N   0  0  0  0  0  0  0  0  0  0  0  0
  -23.1916  -43.1744   -9.2061 C   0  0  0  0  0  0  0  0  0  0  0  0
  -19.8820  -42.7431   -7.2578 C   0  0  0  0  0  0  0  0  0  0  0  0
  -18.9047  -43.6226   -7.8262 O   0  0  0  0  0  0  0  0  0  0  0  0
  -17.8591  -45.3280   -9.3412 H   0  0  0  0  0  0  0  0  0  0  0  0
  -19.0153  -45.2966  -10.5941 H   0  0  0  0  0  0  0  0  0  0  0  0
  -18.6855  -38.5852  -10.6272 C   0  0  0  0  0  0  0  0  0  0  0  0
  -16.3769  -38.5605  -11.2907 C   0  0  0  0  0  0  0  0  0  0  0  0
  -15.0518  -39.2225  -11.4192 C   0  0  0  0  0  0  0  0  0  0  0  0
  -17.4673  -39.2273  -10.7684 C   0  0  0  0  0  0  0  0  0  0  0  0
  -18.7317  -37.2732  -11.0661 C   0  0  0  0  0  0  0  0  0  0  0  0
  -16.5534  -37.2593  -11.7111 C   0  0  0  0  0  0  0  0  0  0  0  0
  -17.7150  -36.6010  -11.6262 N   0  0  0  0  0  0  0  0  0  0  0  0
  -26.1979  -44.5530   -7.4781 O   0  0  0  0  0  0  0  0  0  0  0  0
  -26.8522  -45.5450   -8.2606 C   0  0  0  0  0  0  0  0  0  0  0  0
 29 30  1  0  0  0
 29 12  1  0  0  0
  9 11  1  0  0  0
  9 12  1  0  0  0
 11 14  1  0  0  0
 12 10  1  0  0  0
  8 14  1  0  0  0
  8  5  1  0  0  0
 10 17  1  0  0  0
 14 17  1  0  0  0
 14 13  1  0  0  0
  5  2  2  0  0  0
  5  6  1  0  0  0
 18 13  1  0  0  0
 18 19  1  0  0  0
  2  1  1  0  0  0
 13  6  1  0  0  0
 13 15  1  0  0  0
  6  3  2  0  0  0
 19  7  1  0  0  0
  1  4  2  0  0  0
 15  7  2  0  0  0
  7 16  1  0  0  0
  3  4  1  0  0  0
  4 22  1  0  0  0
 26 22  2  0  0  0
 26 28  1  0  0  0
 22 25  1  0  0  0
 28 27  2  0  0  0
 25 23  2  0  0  0
 27 23  1  0  0  0
 23 24  1  0  0  0
 16 20  1  0  0  0
 16 21  1  0  0  0
M  END
> <minimizedAffinity>
-8.82750

$$$$
