3UEW_PLM_A_1000


 19 18  0  0  0  0  0  0  0  0999 V2000
   -2.5176   12.0449   20.3335 C   0  0  0  0  0  0  0  0  0  0  0  0
   -1.9208   10.7093   19.8830 C   0  0  0  0  0  0  0  0  0  0  0  0
   -3.0075    9.6707   19.6324 C   0  0  0  0  0  0  0  0  0  0  0  0
   -2.6999    8.3935   20.4101 C   0  0  0  0  0  0  0  0  0  0  0  0
   -3.7232    7.2952   20.1489 C   0  0  0  0  0  0  0  0  0  0  0  0
   -4.7594    7.7388   19.1245 C   0  0  0  0  0  0  0  0  0  0  0  0
   -6.0455    6.9856   19.3915 C   0  0  0  0  0  0  0  0  0  0  0  0
   -6.1668    5.8246   18.9425 O   0  0  0  0  0  0  0  0  0  0  0  0
   -6.9403    7.5550   20.0612 O   0  0  0  0  0  0  0  0  0  0  0  0
   -5.4714    5.4389   18.4468 H   0  0  0  0  0  0  0  0  0  0  0  0
   -2.5201   13.0546   19.1947 C   0  0  0  0  0  0  0  0  0  0  0  0
   -3.8893   13.1164   18.5271 C   0  0  0  0  0  0  0  0  0  0  0  0
   -4.0551   14.4419   17.8075 C   0  0  0  0  0  0  0  0  0  0  0  0
   -2.8612   15.3291   18.0523 C   0  0  0  0  0  0  0  0  0  0  0  0
   -3.3061   16.7722   18.0159 C   0  0  0  0  0  0  0  0  0  0  0  0
   -4.8000   16.8247   17.8022 C   0  0  0  0  0  0  0  0  0  0  0  0
   -5.1882   17.9198   16.8218 C   0  0  0  0  0  0  0  0  0  0  0  0
   -3.9994   18.6518   16.2409 C   0  0  0  0  0  0  0  0  0  0  0  0
   -4.4026   19.7438   15.2761 C   0  0  0  0  0  0  0  0  0  0  0  0
  7  8  1  0  0  0
  7  9  2  0  0  0
  7  6  1  0  0  0
  6  5  1  0  0  0
  5  4  1  0  0  0
  4  3  1  0  0  0
  3  2  1  0  0  0
  2  1  1  0  0  0
  1 11  1  0  0  0
 11 12  1  0  0  0
 12 13  1  0  0  0
 13 14  1  0  0  0
 14 15  1  0  0  0
 15 16  1  0  0  0
 16 17  1  0  0  0
 17 18  1  0  0  0
 18 19  1  0  0  0
  8 10  1  0  0  0
M  END
> <minimizedAffinity>
-6.42571

$$$$
3UEW_PLM_A_1000


 19 18  0  0  0  0  0  0  0  0999 V2000
   -4.0034   12.3764   18.8676 C   0  0  0  0  0  0  0  0  0  0  0  0
   -3.7746   13.7761   18.2916 C   0  0  0  0  0  0  0  0  0  0  0  0
   -2.5245   14.4213   18.8778 C   0  0  0  0  0  0  0  0  0  0  0  0
   -2.5170   15.9176   18.5751 C   0  0  0  0  0  0  0  0  0  0  0  0
   -3.6781   16.3336   17.6804 C   0  0  0  0  0  0  0  0  0  0  0  0
   -3.9113   17.8375   17.7425 C   0  0  0  0  0  0  0  0  0  0  0  0
   -4.5928   18.2669   16.4603 C   0  0  0  0  0  0  0  0  0  0  0  0
   -4.2722   19.3610   15.9461 O   0  0  0  0  0  0  0  0  0  0  0  0
   -5.4510   17.5024   15.9580 O   0  0  0  0  0  0  0  0  0  0  0  0
   -3.6253   19.9001   16.3570 H   0  0  0  0  0  0  0  0  0  0  0  0
   -2.7947   11.4828   18.6294 C   0  0  0  0  0  0  0  0  0  0  0  0
   -2.1265   11.1105   19.9482 C   0  0  0  0  0  0  0  0  0  0  0  0
   -1.8304    9.6227   19.9768 C   0  0  0  0  0  0  0  0  0  0  0  0
   -3.1000    8.8349   20.1768 C   0  0  0  0  0  0  0  0  0  0  0  0
   -2.7440    7.4272   20.5932 C   0  0  0  0  0  0  0  0  0  0  0  0
   -3.1013    6.4751   19.4768 C   0  0  0  0  0  0  0  0  0  0  0  0
   -1.9954    5.4621   19.2282 C   0  0  0  0  0  0  0  0  0  0  0  0
   -0.6853    5.8330   19.8858 C   0  0  0  0  0  0  0  0  0  0  0  0
    0.4125    6.1070   18.8829 C   0  0  0  0  0  0  0  0  0  0  0  0
  7  8  1  0  0  0
  7  9  2  0  0  0
  7  6  1  0  0  0
  6  5  1  0  0  0
  5  4  1  0  0  0
  4  3  1  0  0  0
  3  2  1  0  0  0
  2  1  1  0  0  0
  1 11  1  0  0  0
 11 12  1  0  0  0
 12 13  1  0  0  0
 13 14  1  0  0  0
 14 15  1  0  0  0
 15 16  1  0  0  0
 16 17  1  0  0  0
 17 18  1  0  0  0
 18 19  1  0  0  0
  8 10  1  0  0  0
M  END
> <minimizedAffinity>
-6.40068

$$$$
3UEW_PLM_A_1000


 19 18  0  0  0  0  0  0  0  0999 V2000
   -1.6059   11.0940   19.9973 C   0  0  0  0  0  0  0  0  0  0  0  0
   -2.6351    9.9615   20.0358 C   0  0  0  0  0  0  0  0  0  0  0  0
   -1.9604    8.6006   20.1594 C   0  0  0  0  0  0  0  0  0  0  0  0
   -3.0072    7.5187   20.4129 C   0  0  0  0  0  0  0  0  0  0  0  0
   -2.3795    6.1561   20.6795 C   0  0  0  0  0  0  0  0  0  0  0  0
   -1.0984    5.9720   19.8765 C   0  0  0  0  0  0  0  0  0  0  0  0
   -0.1790    5.0517   20.6514 C   0  0  0  0  0  0  0  0  0  0  0  0
   -0.5197    3.8595   20.8148 O   0  0  0  0  0  0  0  0  0  0  0  0
    0.8962    5.5209   21.0953 O   0  0  0  0  0  0  0  0  0  0  0  0
   -1.3330    3.5525   20.4650 H   0  0  0  0  0  0  0  0  0  0  0  0
   -2.2289   12.4138   20.4287 C   0  0  0  0  0  0  0  0  0  0  0  0
   -2.2729   13.3990   19.2661 C   0  0  0  0  0  0  0  0  0  0  0  0
   -3.6141   13.3100   18.5623 C   0  0  0  0  0  0  0  0  0  0  0  0
   -4.0240   14.6607   18.0331 C   0  0  0  0  0  0  0  0  0  0  0  0
   -2.8890   15.6353   18.2427 C   0  0  0  0  0  0  0  0  0  0  0  0
   -3.3906   17.0390   18.0016 C   0  0  0  0  0  0  0  0  0  0  0  0
   -4.8446   17.0466   17.5579 C   0  0  0  0  0  0  0  0  0  0  0  0
   -5.0723   17.8008   16.2672 C   0  0  0  0  0  0  0  0  0  0  0  0
   -4.2345   19.0556   16.1704 C   0  0  0  0  0  0  0  0  0  0  0  0
  7  8  1  0  0  0
  7  9  2  0  0  0
  7  6  1  0  0  0
  6  5  1  0  0  0
  5  4  1  0  0  0
  4  3  1  0  0  0
  3  2  1  0  0  0
  2  1  1  0  0  0
  1 11  1  0  0  0
 11 12  1  0  0  0
 12 13  1  0  0  0
 13 14  1  0  0  0
 14 15  1  0  0  0
 15 16  1  0  0  0
 16 17  1  0  0  0
 17 18  1  0  0  0
 18 19  1  0  0  0
  8 10  1  0  0  0
M  END
> <minimizedAffinity>
-6.36460

$$$$
3UEW_PLM_A_1000


 19 18  0  0  0  0  0  0  0  0999 V2000
   -2.3700   12.4755   20.3342 C   0  0  0  0  0  0  0  0  0  0  0  0
   -1.1088   11.6172   20.2074 C   0  0  0  0  0  0  0  0  0  0  0  0
   -1.4546   10.1458   20.0129 C   0  0  0  0  0  0  0  0  0  0  0  0
   -2.9681    9.9726   19.9141 C   0  0  0  0  0  0  0  0  0  0  0  0
   -3.3920    8.5124   20.0132 C   0  0  0  0  0  0  0  0  0  0  0  0
   -2.1900    7.6022   20.2290 C   0  0  0  0  0  0  0  0  0  0  0  0
   -2.5532    6.2124   19.7503 C   0  0  0  0  0  0  0  0  0  0  0  0
   -2.3710    5.9241   18.5470 O   0  0  0  0  0  0  0  0  0  0  0  0
   -3.0183    5.3988   20.5840 O   0  0  0  0  0  0  0  0  0  0  0  0
   -2.0209    6.5646   17.9596 H   0  0  0  0  0  0  0  0  0  0  0  0
   -2.3897   13.5767   19.2838 C   0  0  0  0  0  0  0  0  0  0  0  0
   -3.5965   13.4283   18.3643 C   0  0  0  0  0  0  0  0  0  0  0  0
   -3.8831   14.7463   17.6693 C   0  0  0  0  0  0  0  0  0  0  0  0
   -2.8375   15.7713   18.0281 C   0  0  0  0  0  0  0  0  0  0  0  0
   -3.4737   17.1414   18.0308 C   0  0  0  0  0  0  0  0  0  0  0  0
   -4.9205   17.0166   17.6168 C   0  0  0  0  0  0  0  0  0  0  0  0
   -5.3176   18.1038   16.6312 C   0  0  0  0  0  0  0  0  0  0  0  0
   -4.1361   18.8594   16.0658 C   0  0  0  0  0  0  0  0  0  0  0  0
   -4.5505   19.9739   15.1320 C   0  0  0  0  0  0  0  0  0  0  0  0
  7  8  1  0  0  0
  7  9  2  0  0  0
  7  6  1  0  0  0
  6  5  1  0  0  0
  5  4  1  0  0  0
  4  3  1  0  0  0
  3  2  1  0  0  0
  2  1  1  0  0  0
  1 11  1  0  0  0
 11 12  1  0  0  0
 12 13  1  0  0  0
 13 14  1  0  0  0
 14 15  1  0  0  0
 15 16  1  0  0  0
 16 17  1  0  0  0
 17 18  1  0  0  0
 18 19  1  0  0  0
  8 10  1  0  0  0
M  END
> <minimizedAffinity>
-6.36077

$$$$
3UEW_PLM_A_1000


 19 18  0  0  0  0  0  0  0  0999 V2000
   -3.7384   13.9003   18.2269 C   0  0  0  0  0  0  0  0  0  0  0  0
   -2.4438   14.3757   18.8911 C   0  0  0  0  0  0  0  0  0  0  0  0
   -2.2687   15.8833   18.7529 C   0  0  0  0  0  0  0  0  0  0  0  0
   -3.2432   16.4300   17.7126 C   0  0  0  0  0  0  0  0  0  0  0  0
   -3.7239   17.8357   18.0513 C   0  0  0  0  0  0  0  0  0  0  0  0
   -5.1299   18.0812   17.5195 C   0  0  0  0  0  0  0  0  0  0  0  0
   -5.0488   18.2426   16.0161 C   0  0  0  0  0  0  0  0  0  0  0  0
   -5.6854   17.4471   15.2907 O   0  0  0  0  0  0  0  0  0  0  0  0
   -4.3490   19.1758   15.5549 O   0  0  0  0  0  0  0  0  0  0  0  0
   -6.1957   16.7642   15.6796 H   0  0  0  0  0  0  0  0  0  0  0  0
   -4.1604   12.5399   18.7631 C   0  0  0  0  0  0  0  0  0  0  0  0
   -3.1831   11.4559   18.3228 C   0  0  0  0  0  0  0  0  0  0  0  0
   -2.4044   10.9435   19.5200 C   0  0  0  0  0  0  0  0  0  0  0  0
   -2.8579    9.5542   19.8901 C   0  0  0  0  0  0  0  0  0  0  0  0
   -1.6567    8.7423   20.3143 C   0  0  0  0  0  0  0  0  0  0  0  0
   -1.8833    7.2948   19.9489 C   0  0  0  0  0  0  0  0  0  0  0  0
   -0.6663    6.4398   20.2636 C   0  0  0  0  0  0  0  0  0  0  0  0
    0.0269    5.9083   19.0293 C   0  0  0  0  0  0  0  0  0  0  0  0
   -0.6276    4.6581   18.4867 C   0  0  0  0  0  0  0  0  0  0  0  0
  7  8  1  0  0  0
  7  9  2  0  0  0
  7  6  1  0  0  0
  6  5  1  0  0  0
  5  4  1  0  0  0
  4  3  1  0  0  0
  3  2  1  0  0  0
  2  1  1  0  0  0
  1 11  1  0  0  0
 11 12  1  0  0  0
 12 13  1  0  0  0
 13 14  1  0  0  0
 14 15  1  0  0  0
 15 16  1  0  0  0
 16 17  1  0  0  0
 17 18  1  0  0  0
 18 19  1  0  0  0
  8 10  1  0  0  0
M  END
> <minimizedAffinity>
-6.29842

$$$$
3UEW_PLM_A_1000


 19 18  0  0  0  0  0  0  0  0999 V2000
   -4.1842   12.2776   18.7007 C   0  0  0  0  0  0  0  0  0  0  0  0
   -4.0178   13.7217   18.2212 C   0  0  0  0  0  0  0  0  0  0  0  0
   -2.6439   14.2731   18.5829 C   0  0  0  0  0  0  0  0  0  0  0  0
   -2.6701   15.7994   18.5602 C   0  0  0  0  0  0  0  0  0  0  0  0
   -3.9342   16.3476   17.9096 C   0  0  0  0  0  0  0  0  0  0  0  0
   -3.8683   17.8625   17.7657 C   0  0  0  0  0  0  0  0  0  0  0  0
   -4.5593   18.2485   16.4749 C   0  0  0  0  0  0  0  0  0  0  0  0
   -4.2348   19.3193   15.9160 O   0  0  0  0  0  0  0  0  0  0  0  0
   -5.4290   17.4729   16.0107 O   0  0  0  0  0  0  0  0  0  0  0  0
   -3.5792   19.8680   16.2995 H   0  0  0  0  0  0  0  0  0  0  0  0
   -2.8637   11.5239   18.6346 C   0  0  0  0  0  0  0  0  0  0  0  0
   -2.5368   10.8824   19.9784 C   0  0  0  0  0  0  0  0  0  0  0  0
   -2.7926    9.3882   19.9148 C   0  0  0  0  0  0  0  0  0  0  0  0
   -1.5455    8.6226   20.2766 C   0  0  0  0  0  0  0  0  0  0  0  0
   -1.7092    7.1846   19.8440 C   0  0  0  0  0  0  0  0  0  0  0  0
   -3.1628    6.9247   19.5283 C   0  0  0  0  0  0  0  0  0  0  0  0
   -3.3222    6.0834   18.2722 C   0  0  0  0  0  0  0  0  0  0  0  0
   -4.7359    5.5920   18.0566 C   0  0  0  0  0  0  0  0  0  0  0  0
   -5.7728    6.6483   18.3645 C   0  0  0  0  0  0  0  0  0  0  0  0
  7  8  1  0  0  0
  7  9  2  0  0  0
  7  6  1  0  0  0
  6  5  1  0  0  0
  5  4  1  0  0  0
  4  3  1  0  0  0
  3  2  1  0  0  0
  2  1  1  0  0  0
  1 11  1  0  0  0
 11 12  1  0  0  0
 12 13  1  0  0  0
 13 14  1  0  0  0
 14 15  1  0  0  0
 15 16  1  0  0  0
 16 17  1  0  0  0
 17 18  1  0  0  0
 18 19  1  0  0  0
  8 10  1  0  0  0
M  END
> <minimizedAffinity>
-6.28932

$$$$
3UEW_PLM_A_1000


 19 18  0  0  0  0  0  0  0  0999 V2000
   -3.8147   14.4966   17.9467 C   0  0  0  0  0  0  0  0  0  0  0  0
   -2.7725   15.5091   18.4282 C   0  0  0  0  0  0  0  0  0  0  0  0
   -3.2165   16.9400   18.1488 C   0  0  0  0  0  0  0  0  0  0  0  0
   -4.3527   16.9456   17.1292 C   0  0  0  0  0  0  0  0  0  0  0  0
   -4.9040   18.3447   16.8836 C   0  0  0  0  0  0  0  0  0  0  0  0
   -3.9996   19.1381   15.9496 C   0  0  0  0  0  0  0  0  0  0  0  0
   -4.8597   19.7632   14.8715 C   0  0  0  0  0  0  0  0  0  0  0  0
   -5.1365   20.9801   14.9531 O   0  0  0  0  0  0  0  0  0  0  0  0
   -5.2573   19.0347   13.9309 O   0  0  0  0  0  0  0  0  0  0  0  0
   -4.8173   21.4858   15.6745 H   0  0  0  0  0  0  0  0  0  0  0  0
   -3.5181   13.1063   18.4902 C   0  0  0  0  0  0  0  0  0  0  0  0
   -2.3636   13.1472   19.4851 C   0  0  0  0  0  0  0  0  0  0  0  0
   -1.6783   11.7946   19.5389 C   0  0  0  0  0  0  0  0  0  0  0  0
   -2.6678   10.7147   19.8956 C   0  0  0  0  0  0  0  0  0  0  0  0
   -1.9260    9.4127   20.0869 C   0  0  0  0  0  0  0  0  0  0  0  0
   -2.9254    8.2946   20.2637 C   0  0  0  0  0  0  0  0  0  0  0  0
   -4.1550    8.4987   19.3934 C   0  0  0  0  0  0  0  0  0  0  0  0
   -5.2032    7.4243   19.5773 C   0  0  0  0  0  0  0  0  0  0  0  0
   -5.3694    6.5570   18.3502 C   0  0  0  0  0  0  0  0  0  0  0  0
  7  8  1  0  0  0
  7  9  2  0  0  0
  7  6  1  0  0  0
  6  5  1  0  0  0
  5  4  1  0  0  0
  4  3  1  0  0  0
  3  2  1  0  0  0
  2  1  1  0  0  0
  1 11  1  0  0  0
 11 12  1  0  0  0
 12 13  1  0  0  0
 13 14  1  0  0  0
 14 15  1  0  0  0
 15 16  1  0  0  0
 16 17  1  0  0  0
 17 18  1  0  0  0
 18 19  1  0  0  0
  8 10  1  0  0  0
M  END
> <minimizedAffinity>
-5.93221

$$$$
3UEW_PLM_A_1000


 19 18  0  0  0  0  0  0  0  0999 V2000
   -1.3748    8.4141   20.1607 C   0  0  0  0  0  0  0  0  0  0  0  0
   -1.0721    6.9145   20.1077 C   0  0  0  0  0  0  0  0  0  0  0  0
   -2.3254    6.0848   20.3596 C   0  0  0  0  0  0  0  0  0  0  0  0
   -2.5911    5.1643   19.1711 C   0  0  0  0  0  0  0  0  0  0  0  0
   -4.0742    5.0633   18.8365 C   0  0  0  0  0  0  0  0  0  0  0  0
   -4.9289    5.7157   19.9152 C   0  0  0  0  0  0  0  0  0  0  0  0
   -5.9662    6.5869   19.2386 C   0  0  0  0  0  0  0  0  0  0  0  0
   -6.8256    7.1578   19.9454 O   0  0  0  0  0  0  0  0  0  0  0  0
   -5.9189    6.7080   17.9910 O   0  0  0  0  0  0  0  0  0  0  0  0
   -6.8226    7.0382   20.8747 H   0  0  0  0  0  0  0  0  0  0  0  0
   -2.8739    8.6671   20.2316 C   0  0  0  0  0  0  0  0  0  0  0  0
   -3.2307   10.0002   19.5837 C   0  0  0  0  0  0  0  0  0  0  0  0
   -2.0470   10.9463   19.6602 C   0  0  0  0  0  0  0  0  0  0  0  0
   -2.5110   12.3794   19.6002 C   0  0  0  0  0  0  0  0  0  0  0  0
   -3.9661   12.4078   19.1954 C   0  0  0  0  0  0  0  0  0  0  0  0
   -4.1560   13.4310   18.1012 C   0  0  0  0  0  0  0  0  0  0  0  0
   -3.2825   14.6557   18.3209 C   0  0  0  0  0  0  0  0  0  0  0  0
   -3.4471   15.7082   17.2478 C   0  0  0  0  0  0  0  0  0  0  0  0
   -3.7538   17.0755   17.8155 C   0  0  0  0  0  0  0  0  0  0  0  0
  7  8  1  0  0  0
  7  9  2  0  0  0
  7  6  1  0  0  0
  6  5  1  0  0  0
  5  4  1  0  0  0
  4  3  1  0  0  0
  3  2  1  0  0  0
  2  1  1  0  0  0
  1 11  1  0  0  0
 11 12  1  0  0  0
 12 13  1  0  0  0
 13 14  1  0  0  0
 14 15  1  0  0  0
 15 16  1  0  0  0
 16 17  1  0  0  0
 17 18  1  0  0  0
 18 19  1  0  0  0
  8 10  1  0  0  0
M  END
> <minimizedAffinity>
-5.88013

$$$$
3UEW_PLM_A_1000


 19 18  0  0  0  0  0  0  0  0999 V2000
   -2.7049   12.0999   19.9762 C   0  0  0  0  0  0  0  0  0  0  0  0
   -3.1299   13.0827   18.8822 C   0  0  0  0  0  0  0  0  0  0  0  0
   -2.3327   14.3792   18.9590 C   0  0  0  0  0  0  0  0  0  0  0  0
   -2.6832   15.2797   17.7771 C   0  0  0  0  0  0  0  0  0  0  0  0
   -3.9454   16.0964   18.0251 C   0  0  0  0  0  0  0  0  0  0  0  0
   -3.6625   17.5903   17.9357 C   0  0  0  0  0  0  0  0  0  0  0  0
   -4.6946   18.2164   17.0217 C   0  0  0  0  0  0  0  0  0  0  0  0
   -5.8813   17.8294   17.1002 O   0  0  0  0  0  0  0  0  0  0  0  0
   -4.3191   19.1075   16.2226 O   0  0  0  0  0  0  0  0  0  0  0  0
   -6.1162   17.1602   17.7126 H   0  0  0  0  0  0  0  0  0  0  0  0
   -2.9100   10.6601   19.5274 C   0  0  0  0  0  0  0  0  0  0  0  0
   -1.8444    9.7482   20.1250 C   0  0  0  0  0  0  0  0  0  0  0  0
   -2.3914    8.3408   20.2737 C   0  0  0  0  0  0  0  0  0  0  0  0
   -1.3017    7.3237   20.0484 C   0  0  0  0  0  0  0  0  0  0  0  0
   -1.9323    5.9682   19.8324 C   0  0  0  0  0  0  0  0  0  0  0  0
   -3.2953    6.1497   19.2084 C   0  0  0  0  0  0  0  0  0  0  0  0
   -3.2632    5.9013   17.7089 C   0  0  0  0  0  0  0  0  0  0  0  0
   -2.6980    4.5486   17.3385 C   0  0  0  0  0  0  0  0  0  0  0  0
   -2.9108    4.2079   15.8809 C   0  0  0  0  0  0  0  0  0  0  0  0
  7  8  1  0  0  0
  7  9  2  0  0  0
  7  6  1  0  0  0
  6  5  1  0  0  0
  5  4  1  0  0  0
  4  3  1  0  0  0
  3  2  1  0  0  0
  2  1  1  0  0  0
  1 11  1  0  0  0
 11 12  1  0  0  0
 12 13  1  0  0  0
 13 14  1  0  0  0
 14 15  1  0  0  0
 15 16  1  0  0  0
 16 17  1  0  0  0
 17 18  1  0  0  0
 18 19  1  0  0  0
  8 10  1  0  0  0
M  END
> <minimizedAffinity>
-5.70029

$$$$
3UEW_PLM_A_1000


 19 18  0  0  0  0  0  0  0  0999 V2000
   -1.7034    8.0065   20.2842 C   0  0  0  0  0  0  0  0  0  0  0  0
   -1.8549    6.5520   19.8319 C   0  0  0  0  0  0  0  0  0  0  0  0
   -2.5671    5.7129   20.8860 C   0  0  0  0  0  0  0  0  0  0  0  0
   -1.5681    4.7965   21.5880 C   0  0  0  0  0  0  0  0  0  0  0  0
   -1.8772    3.3216   21.3628 C   0  0  0  0  0  0  0  0  0  0  0  0
   -1.3380    2.8433   20.0210 C   0  0  0  0  0  0  0  0  0  0  0  0
   -0.2066    1.8714   20.2817 C   0  0  0  0  0  0  0  0  0  0  0  0
    0.3494    1.3202   19.3065 O   0  0  0  0  0  0  0  0  0  0  0  0
    0.1349    1.6610   21.4702 O   0  0  0  0  0  0  0  0  0  0  0  0
    0.0606    1.5076   18.4350 H   0  0  0  0  0  0  0  0  0  0  0  0
   -3.0518    8.7115   20.3188 C   0  0  0  0  0  0  0  0  0  0  0  0
   -2.9167   10.1635   19.8741 C   0  0  0  0  0  0  0  0  0  0  0  0
   -1.4535   10.5644   19.8526 C   0  0  0  0  0  0  0  0  0  0  0  0
   -1.3143   12.0619   19.9558 C   0  0  0  0  0  0  0  0  0  0  0  0
   -2.6851   12.6900   19.8645 C   0  0  0  0  0  0  0  0  0  0  0  0
   -2.8131   13.4098   18.5433 C   0  0  0  0  0  0  0  0  0  0  0  0
   -2.5540   14.9007   18.6894 C   0  0  0  0  0  0  0  0  0  0  0  0
   -3.6320   15.7592   18.0672 C   0  0  0  0  0  0  0  0  0  0  0  0
   -3.3242   17.2367   18.1573 C   0  0  0  0  0  0  0  0  0  0  0  0
  7  8  1  0  0  0
  7  9  2  0  0  0
  7  6  1  0  0  0
  6  5  1  0  0  0
  5  4  1  0  0  0
  4  3  1  0  0  0
  3  2  1  0  0  0
  2  1  1  0  0  0
  1 11  1  0  0  0
 11 12  1  0  0  0
 12 13  1  0  0  0
 13 14  1  0  0  0
 14 15  1  0  0  0
 15 16  1  0  0  0
 16 17  1  0  0  0
 17 18  1  0  0  0
 18 19  1  0  0  0
  8 10  1  0  0  0
M  END
> <minimizedAffinity>
-5.54424

$$$$
