1H23_E12_A_1536


 40 43  0  0  0  0  0  0  0  0999 V2000
    4.8550   63.6202   70.5997 C   0  0  0  0  0  0  0  0  0  0  0  0
    4.7519   64.5635   69.4221 C   0  0  0  0  0  0  0  0  0  0  0  0
    3.8972   63.9663   68.3324 C   0  0  0  0  0  0  0  0  0  0  0  0
    3.8369   64.8641   67.1047 C   0  0  0  0  0  0  0  0  0  0  0  0
    4.7189   66.0740   67.2991 C   0  0  0  0  0  0  0  0  0  0  0  0
    5.1217   66.6883   65.9455 C   0  0  0  0  0  0  0  0  0  0  0  0
    3.8491   67.3833   65.4373 N   0  0  0  0  0  0  0  0  0  0  0  0
    3.2866   67.5931   66.2618 H   0  0  0  0  0  0  0  0  0  0  0  0
    1.1808   68.5317   61.1332 C   0  0  0  0  0  0  0  0  0  0  0  0
    2.5558   68.6912   61.0754 N   0  0  0  0  0  0  0  0  0  0  0  0
    0.4980   68.4823   60.0909 O   0  0  0  0  0  0  0  0  0  0  0  0
    2.9705   68.5710   63.4150 C   0  0  0  0  0  0  0  0  0  0  0  0
    1.4995   68.4074   63.6000 C   0  0  0  0  0  0  0  0  0  0  0  0
    5.8307   68.4166   62.8847 C   0  0  0  0  0  0  0  0  0  0  0  0
    0.6301   68.3789   62.5331 C   0  0  0  0  0  0  0  0  0  0  0  0
    4.9108   68.9618   61.7769 C   0  0  0  0  0  0  0  0  0  0  0  0
    3.9168   68.6583   64.6315 C   0  0  0  0  0  0  0  0  0  0  0  0
    5.3970   68.9704   64.2805 C   0  0  0  0  0  0  0  0  0  0  0  0
    3.4338   68.7334   62.1218 C   0  0  0  0  0  0  0  0  0  0  0  0
    2.9455   68.7850   60.1762 H   0  0  0  0  0  0  0  0  0  0  0  0
    4.0572   62.3471   70.4106 C   0  0  0  0  0  0  0  0  0  0  0  0
    3.5354   61.7608   71.7118 C   0  0  0  0  0  0  0  0  0  0  0  0
    2.0265   61.5958   71.6624 C   0  0  0  0  0  0  0  0  0  0  0  0
    1.3577   62.3735   70.5326 C   0  0  0  0  0  0  0  0  0  0  0  0
    0.0639   63.0880   70.9672 C   0  0  0  0  0  0  0  0  0  0  0  0
    0.2657   64.5798   71.2569 C   0  0  0  0  0  0  0  0  0  0  0  0
    0.9842   65.1412   70.0854 N   0  0  0  0  0  0  0  0  0  0  0  0
    1.9713   64.9135   70.2045 H   0  0  0  0  0  0  0  0  0  0  0  0
   -1.7969   67.8883   66.5679 C   0  0  0  0  0  0  0  0  0  0  0  0
   -0.5168   68.3883   66.7826 N   0  0  0  0  0  0  0  0  0  0  0  0
    0.3498   68.0213   67.7700 C   0  0  0  0  0  0  0  0  0  0  0  0
   -0.0322   67.0289   68.6721 C   0  0  0  0  0  0  0  0  0  0  0  0
   -1.3741   66.4143   68.5145 C   0  0  0  0  0  0  0  0  0  0  0  0
   -2.2281   66.7942   67.5234 C   0  0  0  0  0  0  0  0  0  0  0  0
   -2.5268   68.3936   65.7044 O   0  0  0  0  0  0  0  0  0  0  0  0
    1.7160   68.7381   67.8149 C   0  0  0  0  0  0  0  0  0  0  0  0
    0.9037   66.6302   69.8100 C   0  0  0  0  0  0  0  0  0  0  0  0
    2.3482   67.1553   69.6711 C   0  0  0  0  0  0  0  0  0  0  0  0
    2.3554   68.6174   69.2107 C   0  0  0  0  0  0  0  0  0  0  0  0
   -0.2032   69.0798   66.1559 H   0  0  0  0  0  0  0  0  0  0  0  0
  9 10  1  0  0  0
  9 11  2  0  0  0
  9 15  1  0  0  0
 10 19  1  0  0  0
 12 13  1  0  0  0
 12 17  1  0  0  0
 12 19  2  0  0  0
 13 15  2  0  0  0
 14 16  1  0  0  0
 14 18  1  0  0  0
  7  6  1  0  0  0
  7 17  1  0  0  0
  6  5  1  0  0  0
 16 19  1  0  0  0
 17 18  1  0  0  0
  5  4  1  0  0  0
 29 30  1  0  0  0
 29 34  1  0  0  0
 29 35  2  0  0  0
 30 31  1  0  0  0
 31 32  2  0  0  0
 31 36  1  0  0  0
 32 33  1  0  0  0
 32 37  1  0  0  0
 33 34  2  0  0  0
 36 39  1  0  0  0
 37 38  1  0  0  0
 37 27  1  0  0  0
 38 39  1  0  0  0
 27 26  1  0  0  0
 26 25  1  0  0  0
  4  3  1  0  0  0
  3  2  1  0  0  0
  2  1  1  0  0  0
  1 21  1  0  0  0
 21 22  1  0  0  0
 22 23  1  0  0  0
 23 24  1  0  0  0
 24 25  1  0  0  0
 10 20  1  0  0  0
  7  8  1  0  0  0
 30 40  1  0  0  0
 27 28  1  0  0  0
M  END
> <minimizedAffinity>
-11.06363

$$$$
1H23_E12_A_1536


 40 43  0  0  0  0  0  0  0  0999 V2000
    1.0281   64.1297   70.9121 C   0  0  0  0  0  0  0  0  0  0  0  0
    0.2156   62.8549   70.8682 C   0  0  0  0  0  0  0  0  0  0  0  0
    0.6797   61.8887   71.9291 C   0  0  0  0  0  0  0  0  0  0  0  0
    0.6373   62.5103   73.3179 C   0  0  0  0  0  0  0  0  0  0  0  0
    1.9762   62.3582   73.9990 C   0  0  0  0  0  0  0  0  0  0  0  0
    2.6333   61.0141   73.6335 C   0  0  0  0  0  0  0  0  0  0  0  0
    4.0691   61.3788   73.2261 N   0  0  0  0  0  0  0  0  0  0  0  0
    4.6780   61.0131   73.9582 H   0  0  0  0  0  0  0  0  0  0  0  0
    3.6526   63.7058   68.6028 C   0  0  0  0  0  0  0  0  0  0  0  0
    3.3096   62.3647   68.6588 N   0  0  0  0  0  0  0  0  0  0  0  0
    3.3019   64.4163   67.6398 O   0  0  0  0  0  0  0  0  0  0  0  0
    4.2709   61.8976   70.7843 C   0  0  0  0  0  0  0  0  0  0  0  0
    4.7062   63.3236   70.8267 C   0  0  0  0  0  0  0  0  0  0  0  0
    2.9604   59.2960   70.7884 C   0  0  0  0  0  0  0  0  0  0  0  0
    4.4195   64.2031   69.8073 C   0  0  0  0  0  0  0  0  0  0  0  0
    3.1274   60.0277   69.4440 C   0  0  0  0  0  0  0  0  0  0  0  0
    4.6561   60.9181   71.9136 C   0  0  0  0  0  0  0  0  0  0  0  0
    4.2520   59.4408   71.6564 C   0  0  0  0  0  0  0  0  0  0  0  0
    3.5941   61.4735   69.6550 C   0  0  0  0  0  0  0  0  0  0  0  0
    2.8020   62.0130   67.8920 H   0  0  0  0  0  0  0  0  0  0  0  0
    0.1932   65.3724   70.6852 C   0  0  0  0  0  0  0  0  0  0  0  0
    0.8841   66.4170   69.8246 C   0  0  0  0  0  0  0  0  0  0  0  0
    0.0034   66.8206   68.6550 C   0  0  0  0  0  0  0  0  0  0  0  0
    0.6670   67.8020   67.6932 C   0  0  0  0  0  0  0  0  0  0  0  0
    2.0488   68.2856   68.1729 C   0  0  0  0  0  0  0  0  0  0  0  0
    3.2137   67.5760   67.4729 C   0  0  0  0  0  0  0  0  0  0  0  0
    2.8083   67.4028   66.0553 N   0  0  0  0  0  0  0  0  0  0  0  0
    3.1574   66.4927   65.7549 H   0  0  0  0  0  0  0  0  0  0  0  0
    1.0642   68.4779   61.2121 C   0  0  0  0  0  0  0  0  0  0  0  0
    2.4472   68.5548   61.3385 N   0  0  0  0  0  0  0  0  0  0  0  0
    3.1651   68.5334   62.4982 C   0  0  0  0  0  0  0  0  0  0  0  0
    2.4894   68.4004   63.7108 C   0  0  0  0  0  0  0  0  0  0  0  0
    1.0096   68.2881   63.6824 C   0  0  0  0  0  0  0  0  0  0  0  0
    0.3079   68.3130   62.5148 C   0  0  0  0  0  0  0  0  0  0  0  0
    0.5300   68.6283   60.1050 O   0  0  0  0  0  0  0  0  0  0  0  0
    4.6995   68.6536   62.3828 C   0  0  0  0  0  0  0  0  0  0  0  0
    3.2673   68.4151   65.0239 C   0  0  0  0  0  0  0  0  0  0  0  0
    4.7951   68.2612   64.8703 C   0  0  0  0  0  0  0  0  0  0  0  0
    5.3168   69.1216   63.7138 C   0  0  0  0  0  0  0  0  0  0  0  0
    2.9621   68.6328   60.5031 H   0  0  0  0  0  0  0  0  0  0  0  0
  9 10  1  0  0  0
  9 11  2  0  0  0
  9 15  1  0  0  0
 10 19  1  0  0  0
 12 13  1  0  0  0
 12 17  1  0  0  0
 12 19  2  0  0  0
 13 15  2  0  0  0
 14 16  1  0  0  0
 14 18  1  0  0  0
  7  6  1  0  0  0
  7 17  1  0  0  0
  6  5  1  0  0  0
 16 19  1  0  0  0
 17 18  1  0  0  0
  5  4  1  0  0  0
 29 30  1  0  0  0
 29 34  1  0  0  0
 29 35  2  0  0  0
 30 31  1  0  0  0
 31 32  2  0  0  0
 31 36  1  0  0  0
 32 33  1  0  0  0
 32 37  1  0  0  0
 33 34  2  0  0  0
 36 39  1  0  0  0
 37 38  1  0  0  0
 37 27  1  0  0  0
 38 39  1  0  0  0
 27 26  1  0  0  0
 26 25  1  0  0  0
  4  3  1  0  0  0
  3  2  1  0  0  0
  2  1  1  0  0  0
  1 21  1  0  0  0
 21 22  1  0  0  0
 22 23  1  0  0  0
 23 24  1  0  0  0
 24 25  1  0  0  0
 10 20  1  0  0  0
  7  8  1  0  0  0
 30 40  1  0  0  0
 27 28  1  0  0  0
M  END
> <minimizedAffinity>
-10.39300

$$$$
1H23_E12_A_1536


 40 43  0  0  0  0  0  0  0  0999 V2000
    3.4714   62.2655   69.6274 C   0  0  0  0  0  0  0  0  0  0  0  0
    2.0405   61.8570   69.8969 C   0  0  0  0  0  0  0  0  0  0  0  0
    1.2645   62.9985   70.5048 C   0  0  0  0  0  0  0  0  0  0  0  0
    0.3689   62.5308   71.6433 C   0  0  0  0  0  0  0  0  0  0  0  0
    0.1507   63.6523   72.6303 C   0  0  0  0  0  0  0  0  0  0  0  0
    0.4826   63.1996   74.0644 C   0  0  0  0  0  0  0  0  0  0  0  0
    1.8137   62.4429   73.9374 N   0  0  0  0  0  0  0  0  0  0  0  0
    2.5120   63.0045   74.4246 H   0  0  0  0  0  0  0  0  0  0  0  0
    3.6347   58.3333   71.3376 C   0  0  0  0  0  0  0  0  0  0  0  0
    2.4072   58.1821   71.9619 N   0  0  0  0  0  0  0  0  0  0  0  0
    4.0056   57.5356   70.4538 O   0  0  0  0  0  0  0  0  0  0  0  0
    2.5297   60.1190   73.3379 C   0  0  0  0  0  0  0  0  0  0  0  0
    3.8737   60.3748   72.7437 C   0  0  0  0  0  0  0  0  0  0  0  0
   -0.2728   59.7702   74.0523 C   0  0  0  0  0  0  0  0  0  0  0  0
    4.4171   59.5462   71.7882 C   0  0  0  0  0  0  0  0  0  0  0  0
    0.4894   58.5636   73.4745 C   0  0  0  0  0  0  0  0  0  0  0  0
    1.9687   61.0312   74.4498 C   0  0  0  0  0  0  0  0  0  0  0  0
    0.6248   60.5534   75.0641 C   0  0  0  0  0  0  0  0  0  0  0  0
    1.8555   58.9861   72.9194 C   0  0  0  0  0  0  0  0  0  0  0  0
    1.8701   57.4054   71.6834 H   0  0  0  0  0  0  0  0  0  0  0  0
    3.5846   63.6142   68.9482 C   0  0  0  0  0  0  0  0  0  0  0  0
    4.7701   64.4354   69.4270 C   0  0  0  0  0  0  0  0  0  0  0  0
    4.3208   65.8075   69.8981 C   0  0  0  0  0  0  0  0  0  0  0  0
    2.8636   66.1243   69.5740 C   0  0  0  0  0  0  0  0  0  0  0  0
    2.6363   67.5906   69.1597 C   0  0  0  0  0  0  0  0  0  0  0  0
    2.1992   67.7445   67.6983 C   0  0  0  0  0  0  0  0  0  0  0  0
    3.4444   67.8547   66.8974 N   0  0  0  0  0  0  0  0  0  0  0  0
    3.8240   68.7867   67.0640 H   0  0  0  0  0  0  0  0  0  0  0  0
    4.5100   63.6977   63.8580 C   0  0  0  0  0  0  0  0  0  0  0  0
    4.8976   64.9119   63.3012 N   0  0  0  0  0  0  0  0  0  0  0  0
    4.5728   66.1584   63.7497 C   0  0  0  0  0  0  0  0  0  0  0  0
    3.7891   66.2828   64.8965 C   0  0  0  0  0  0  0  0  0  0  0  0
    3.3415   65.0434   65.5799 C   0  0  0  0  0  0  0  0  0  0  0  0
    3.6737   63.8059   65.1170 C   0  0  0  0  0  0  0  0  0  0  0  0
    4.7765   62.6343   63.2820 O   0  0  0  0  0  0  0  0  0  0  0  0
    5.1100   67.3619   62.9463 C   0  0  0  0  0  0  0  0  0  0  0  0
    3.3784   67.6659   65.3944 C   0  0  0  0  0  0  0  0  0  0  0  0
    4.1434   68.8385   64.7452 C   0  0  0  0  0  0  0  0  0  0  0  0
    4.2826   68.6288   63.2331 C   0  0  0  0  0  0  0  0  0  0  0  0
    5.4663   64.8669   62.4988 H   0  0  0  0  0  0  0  0  0  0  0  0
  9 10  1  0  0  0
  9 11  2  0  0  0
  9 15  1  0  0  0
 10 19  1  0  0  0
 12 13  1  0  0  0
 12 17  1  0  0  0
 12 19  2  0  0  0
 13 15  2  0  0  0
 14 16  1  0  0  0
 14 18  1  0  0  0
  7  6  1  0  0  0
  7 17  1  0  0  0
  6  5  1  0  0  0
 16 19  1  0  0  0
 17 18  1  0  0  0
  5  4  1  0  0  0
 29 30  1  0  0  0
 29 34  1  0  0  0
 29 35  2  0  0  0
 30 31  1  0  0  0
 31 32  2  0  0  0
 31 36  1  0  0  0
 32 33  1  0  0  0
 32 37  1  0  0  0
 33 34  2  0  0  0
 36 39  1  0  0  0
 37 38  1  0  0  0
 37 27  1  0  0  0
 38 39  1  0  0  0
 27 26  1  0  0  0
 26 25  1  0  0  0
  4  3  1  0  0  0
  3  2  1  0  0  0
  2  1  1  0  0  0
  1 21  1  0  0  0
 21 22  1  0  0  0
 22 23  1  0  0  0
 23 24  1  0  0  0
 24 25  1  0  0  0
 10 20  1  0  0  0
  7  8  1  0  0  0
 30 40  1  0  0  0
 27 28  1  0  0  0
M  END
> <minimizedAffinity>
-10.24288

$$$$
1H23_E12_A_1536


 40 43  0  0  0  0  0  0  0  0999 V2000
    4.6646   62.4314   71.2025 C   0  0  0  0  0  0  0  0  0  0  0  0
    4.3303   63.2922   70.0049 C   0  0  0  0  0  0  0  0  0  0  0  0
    5.2054   64.5200   69.9685 C   0  0  0  0  0  0  0  0  0  0  0  0
    4.6734   65.5653   68.9982 C   0  0  0  0  0  0  0  0  0  0  0  0
    3.4887   66.2816   69.6006 C   0  0  0  0  0  0  0  0  0  0  0  0
    2.7904   67.1717   68.5556 C   0  0  0  0  0  0  0  0  0  0  0  0
    3.7759   67.2398   67.3788 N   0  0  0  0  0  0  0  0  0  0  0  0
    4.3954   66.4351   67.4748 H   0  0  0  0  0  0  0  0  0  0  0  0
    4.5169   63.5401   63.8113 C   0  0  0  0  0  0  0  0  0  0  0  0
    4.8682   64.8313   63.4525 N   0  0  0  0  0  0  0  0  0  0  0  0
    4.9322   62.5601   63.1615 O   0  0  0  0  0  0  0  0  0  0  0  0
    3.7539   65.9508   65.2316 C   0  0  0  0  0  0  0  0  0  0  0  0
    3.3023   64.6099   65.7039 C   0  0  0  0  0  0  0  0  0  0  0  0
    5.0864   68.4314   64.4853 C   0  0  0  0  0  0  0  0  0  0  0  0
    3.6564   63.4508   65.0513 C   0  0  0  0  0  0  0  0  0  0  0  0
    5.0141   67.2992   63.4443 C   0  0  0  0  0  0  0  0  0  0  0  0
    3.2944   67.2388   65.9478 C   0  0  0  0  0  0  0  0  0  0  0  0
    3.7316   68.5577   65.2541 C   0  0  0  0  0  0  0  0  0  0  0  0
    4.5182   65.9941   64.0796 C   0  0  0  0  0  0  0  0  0  0  0  0
    5.4357   64.9217   62.6531 H   0  0  0  0  0  0  0  0  0  0  0  0
    4.7915   60.9620   70.8591 C   0  0  0  0  0  0  0  0  0  0  0  0
    3.8759   60.5235   69.7283 C   0  0  0  0  0  0  0  0  0  0  0  0
    3.6080   59.0303   69.7995 C   0  0  0  0  0  0  0  0  0  0  0  0
    3.7399   58.4462   71.2031 C   0  0  0  0  0  0  0  0  0  0  0  0
    2.6603   57.3972   71.5307 C   0  0  0  0  0  0  0  0  0  0  0  0
    1.7332   57.8217   72.6755 C   0  0  0  0  0  0  0  0  0  0  0  0
    1.7126   59.3061   72.6702 N   0  0  0  0  0  0  0  0  0  0  0  0
    2.3562   59.6153   73.3986 H   0  0  0  0  0  0  0  0  0  0  0  0
    0.2637   64.2748   71.7393 C   0  0  0  0  0  0  0  0  0  0  0  0
   -0.2620   63.7497   72.9152 N   0  0  0  0  0  0  0  0  0  0  0  0
   -0.2349   62.4451   73.3123 C   0  0  0  0  0  0  0  0  0  0  0  0
    0.3932   61.5023   72.4991 C   0  0  0  0  0  0  0  0  0  0  0  0
    1.0069   61.9663   71.2297 C   0  0  0  0  0  0  0  0  0  0  0  0
    0.9691   63.2734   70.8473 C   0  0  0  0  0  0  0  0  0  0  0  0
    0.0666   65.4611   71.4435 O   0  0  0  0  0  0  0  0  0  0  0  0
   -0.9069   62.1012   74.6586 C   0  0  0  0  0  0  0  0  0  0  0  0
    0.4008   60.0302   72.9022 C   0  0  0  0  0  0  0  0  0  0  0  0
   -0.0280   59.7583   74.3595 C   0  0  0  0  0  0  0  0  0  0  0  0
   -1.2516   60.6021   74.7348 C   0  0  0  0  0  0  0  0  0  0  0  0
   -0.6996   64.3868   73.5250 H   0  0  0  0  0  0  0  0  0  0  0  0
  9 10  1  0  0  0
  9 11  2  0  0  0
  9 15  1  0  0  0
 10 19  1  0  0  0
 12 13  1  0  0  0
 12 17  1  0  0  0
 12 19  2  0  0  0
 13 15  2  0  0  0
 14 16  1  0  0  0
 14 18  1  0  0  0
  7  6  1  0  0  0
  7 17  1  0  0  0
  6  5  1  0  0  0
 16 19  1  0  0  0
 17 18  1  0  0  0
  5  4  1  0  0  0
 29 30  1  0  0  0
 29 34  1  0  0  0
 29 35  2  0  0  0
 30 31  1  0  0  0
 31 32  2  0  0  0
 31 36  1  0  0  0
 32 33  1  0  0  0
 32 37  1  0  0  0
 33 34  2  0  0  0
 36 39  1  0  0  0
 37 38  1  0  0  0
 37 27  1  0  0  0
 38 39  1  0  0  0
 27 26  1  0  0  0
 26 25  1  0  0  0
  4  3  1  0  0  0
  3  2  1  0  0  0
  2  1  1  0  0  0
  1 21  1  0  0  0
 21 22  1  0  0  0
 22 23  1  0  0  0
 23 24  1  0  0  0
 24 25  1  0  0  0
 10 20  1  0  0  0
  7  8  1  0  0  0
 30 40  1  0  0  0
 27 28  1  0  0  0
M  END
> <minimizedAffinity>
-10.19350

$$$$
1H23_E12_A_1536


 40 43  0  0  0  0  0  0  0  0999 V2000
    3.5406   62.9492   69.3794 C   0  0  0  0  0  0  0  0  0  0  0  0
    2.1237   62.7415   69.8656 C   0  0  0  0  0  0  0  0  0  0  0  0
    1.7749   63.7422   70.9386 C   0  0  0  0  0  0  0  0  0  0  0  0
    1.2254   63.0653   72.1863 C   0  0  0  0  0  0  0  0  0  0  0  0
   -0.1594   62.5257   71.9204 C   0  0  0  0  0  0  0  0  0  0  0  0
   -0.7811   61.9413   73.2025 C   0  0  0  0  0  0  0  0  0  0  0  0
   -0.6076   60.4211   73.0635 N   0  0  0  0  0  0  0  0  0  0  0  0
   -0.4247   60.2411   72.0763 H   0  0  0  0  0  0  0  0  0  0  0  0
    3.2931   57.5923   71.1279 C   0  0  0  0  0  0  0  0  0  0  0  0
    2.4939   56.9823   72.0811 N   0  0  0  0  0  0  0  0  0  0  0  0
    4.0422   56.9174   70.3941 O   0  0  0  0  0  0  0  0  0  0  0  0
    1.4087   58.9487   72.8658 C   0  0  0  0  0  0  0  0  0  0  0  0
    2.2303   59.7139   71.8838 C   0  0  0  0  0  0  0  0  0  0  0  0
   -0.4535   57.2983   74.3805 C   0  0  0  0  0  0  0  0  0  0  0  0
    3.1264   59.0928   71.0435 C   0  0  0  0  0  0  0  0  0  0  0  0
    0.8750   56.6687   73.9230 C   0  0  0  0  0  0  0  0  0  0  0  0
    0.4539   59.6760   73.8366 C   0  0  0  0  0  0  0  0  0  0  0  0
   -0.2226   58.7576   74.8904 C   0  0  0  0  0  0  0  0  0  0  0  0
    1.6075   57.5814   72.9314 C   0  0  0  0  0  0  0  0  0  0  0  0
    2.5738   56.0038   72.1544 H   0  0  0  0  0  0  0  0  0  0  0  0
    4.3951   63.7262   70.3588 C   0  0  0  0  0  0  0  0  0  0  0  0
    5.1193   64.9040   69.7283 C   0  0  0  0  0  0  0  0  0  0  0  0
    4.2840   65.5202   68.6197 C   0  0  0  0  0  0  0  0  0  0  0  0
    3.2380   66.5146   69.1155 C   0  0  0  0  0  0  0  0  0  0  0  0
    3.0769   67.7394   68.1951 C   0  0  0  0  0  0  0  0  0  0  0  0
    1.8347   67.6630   67.2998 C   0  0  0  0  0  0  0  0  0  0  0  0
    2.3108   67.2474   65.9564 N   0  0  0  0  0  0  0  0  0  0  0  0
    3.0572   66.5677   66.1023 H   0  0  0  0  0  0  0  0  0  0  0  0
    0.8486   68.6104   61.0925 C   0  0  0  0  0  0  0  0  0  0  0  0
    2.2246   68.6425   61.2926 N   0  0  0  0  0  0  0  0  0  0  0  0
    2.8804   68.5435   62.4845 C   0  0  0  0  0  0  0  0  0  0  0  0
    2.1395   68.3691   63.6529 C   0  0  0  0  0  0  0  0  0  0  0  0
    0.6607   68.2993   63.5438 C   0  0  0  0  0  0  0  0  0  0  0  0
    0.0217   68.4019   62.3450 C   0  0  0  0  0  0  0  0  0  0  0  0
    0.3767   68.8305   59.9689 O   0  0  0  0  0  0  0  0  0  0  0  0
    4.4214   68.6267   62.4534 C   0  0  0  0  0  0  0  0  0  0  0  0
    2.8481   68.2968   65.0028 C   0  0  0  0  0  0  0  0  0  0  0  0
    4.3775   68.1084   64.9192 C   0  0  0  0  0  0  0  0  0  0  0  0
    4.9801   69.0106   63.8362 C   0  0  0  0  0  0  0  0  0  0  0  0
    2.7841   68.7478   60.4895 H   0  0  0  0  0  0  0  0  0  0  0  0
  9 10  1  0  0  0
  9 11  2  0  0  0
  9 15  1  0  0  0
 10 19  1  0  0  0
 12 13  1  0  0  0
 12 17  1  0  0  0
 12 19  2  0  0  0
 13 15  2  0  0  0
 14 16  1  0  0  0
 14 18  1  0  0  0
  7  6  1  0  0  0
  7 17  1  0  0  0
  6  5  1  0  0  0
 16 19  1  0  0  0
 17 18  1  0  0  0
  5  4  1  0  0  0
 29 30  1  0  0  0
 29 34  1  0  0  0
 29 35  2  0  0  0
 30 31  1  0  0  0
 31 32  2  0  0  0
 31 36  1  0  0  0
 32 33  1  0  0  0
 32 37  1  0  0  0
 33 34  2  0  0  0
 36 39  1  0  0  0
 37 38  1  0  0  0
 37 27  1  0  0  0
 38 39  1  0  0  0
 27 26  1  0  0  0
 26 25  1  0  0  0
  4  3  1  0  0  0
  3  2  1  0  0  0
  2  1  1  0  0  0
  1 21  1  0  0  0
 21 22  1  0  0  0
 22 23  1  0  0  0
 23 24  1  0  0  0
 24 25  1  0  0  0
 10 20  1  0  0  0
  7  8  1  0  0  0
 30 40  1  0  0  0
 27 28  1  0  0  0
M  END
> <minimizedAffinity>
-10.10217

$$$$
1H23_E12_A_1536


 40 43  0  0  0  0  0  0  0  0999 V2000
    2.4956   62.5388   69.8174 C   0  0  0  0  0  0  0  0  0  0  0  0
    3.1446   63.8303   70.2623 C   0  0  0  0  0  0  0  0  0  0  0  0
    4.3582   64.1359   69.4206 C   0  0  0  0  0  0  0  0  0  0  0  0
    4.5432   65.6331   69.2174 C   0  0  0  0  0  0  0  0  0  0  0  0
    3.3540   66.3851   69.7651 C   0  0  0  0  0  0  0  0  0  0  0  0
    2.7226   67.2837   68.6854 C   0  0  0  0  0  0  0  0  0  0  0  0
    3.7052   67.2268   67.5056 N   0  0  0  0  0  0  0  0  0  0  0  0
    4.2401   66.3656   67.6174 H   0  0  0  0  0  0  0  0  0  0  0  0
    4.5210   63.6206   63.8596 C   0  0  0  0  0  0  0  0  0  0  0  0
    4.8421   64.9266   63.5274 N   0  0  0  0  0  0  0  0  0  0  0  0
    4.9569   62.6640   63.1886 O   0  0  0  0  0  0  0  0  0  0  0  0
    3.7071   65.9830   65.3318 C   0  0  0  0  0  0  0  0  0  0  0  0
    3.2871   64.6226   65.7767 C   0  0  0  0  0  0  0  0  0  0  0  0
    4.9813   68.5082   64.6352 C   0  0  0  0  0  0  0  0  0  0  0  0
    3.6657   63.4857   65.0992 C   0  0  0  0  0  0  0  0  0  0  0  0
    4.9321   67.3968   63.5707 C   0  0  0  0  0  0  0  0  0  0  0  0
    3.2203   67.2450   66.0758 C   0  0  0  0  0  0  0  0  0  0  0  0
    3.6258   68.5876   65.4092 C   0  0  0  0  0  0  0  0  0  0  0  0
    4.4675   66.0678   64.1794 C   0  0  0  0  0  0  0  0  0  0  0  0
    5.4055   65.0466   62.7290 H   0  0  0  0  0  0  0  0  0  0  0  0
    1.3005   62.1540   70.6641 C   0  0  0  0  0  0  0  0  0  0  0  0
    0.2383   63.2379   70.7400 C   0  0  0  0  0  0  0  0  0  0  0  0
   -0.0125   63.6475   72.1808 C   0  0  0  0  0  0  0  0  0  0  0  0
    0.4327   62.6069   73.2042 C   0  0  0  0  0  0  0  0  0  0  0  0
   -0.7420   61.8617   73.8662 C   0  0  0  0  0  0  0  0  0  0  0  0
   -0.5736   60.3379   73.8556 C   0  0  0  0  0  0  0  0  0  0  0  0
    0.6434   60.0448   74.6538 N   0  0  0  0  0  0  0  0  0  0  0  0
    1.1962   60.9017   74.6792 H   0  0  0  0  0  0  0  0  0  0  0  0
    4.7928   60.0541   71.4232 C   0  0  0  0  0  0  0  0  0  0  0  0
    4.0027   58.9145   71.3157 N   0  0  0  0  0  0  0  0  0  0  0  0
    2.9947   58.5360   72.1531 C   0  0  0  0  0  0  0  0  0  0  0  0
    2.6685   59.3545   73.2339 C   0  0  0  0  0  0  0  0  0  0  0  0
    3.4398   60.6085   73.4240 C   0  0  0  0  0  0  0  0  0  0  0  0
    4.4451   60.9705   72.5787 C   0  0  0  0  0  0  0  0  0  0  0  0
    5.7551   60.2197   70.6614 O   0  0  0  0  0  0  0  0  0  0  0  0
    2.2712   57.2100   71.8355 C   0  0  0  0  0  0  0  0  0  0  0  0
    1.5721   58.9322   74.2081 C   0  0  0  0  0  0  0  0  0  0  0  0
    0.6931   57.7608   73.7215 C   0  0  0  0  0  0  0  0  0  0  0  0
    1.5514   56.6632   73.0823 C   0  0  0  0  0  0  0  0  0  0  0  0
    4.1907   58.3183   70.5552 H   0  0  0  0  0  0  0  0  0  0  0  0
  9 10  1  0  0  0
  9 11  2  0  0  0
  9 15  1  0  0  0
 10 19  1  0  0  0
 12 13  1  0  0  0
 12 17  1  0  0  0
 12 19  2  0  0  0
 13 15  2  0  0  0
 14 16  1  0  0  0
 14 18  1  0  0  0
  7  6  1  0  0  0
  7 17  1  0  0  0
  6  5  1  0  0  0
 16 19  1  0  0  0
 17 18  1  0  0  0
  5  4  1  0  0  0
 29 30  1  0  0  0
 29 34  1  0  0  0
 29 35  2  0  0  0
 30 31  1  0  0  0
 31 32  2  0  0  0
 31 36  1  0  0  0
 32 33  1  0  0  0
 32 37  1  0  0  0
 33 34  2  0  0  0
 36 39  1  0  0  0
 37 38  1  0  0  0
 37 27  1  0  0  0
 38 39  1  0  0  0
 27 26  1  0  0  0
 26 25  1  0  0  0
  4  3  1  0  0  0
  3  2  1  0  0  0
  2  1  1  0  0  0
  1 21  1  0  0  0
 21 22  1  0  0  0
 22 23  1  0  0  0
 23 24  1  0  0  0
 24 25  1  0  0  0
 10 20  1  0  0  0
  7  8  1  0  0  0
 30 40  1  0  0  0
 27 28  1  0  0  0
M  END
> <minimizedAffinity>
-10.02597

$$$$
1H23_E12_A_1536


 40 43  0  0  0  0  0  0  0  0999 V2000
    3.0111   62.1244   69.8459 C   0  0  0  0  0  0  0  0  0  0  0  0
    3.8922   61.6800   70.9919 C   0  0  0  0  0  0  0  0  0  0  0  0
    4.6407   60.4208   70.6331 C   0  0  0  0  0  0  0  0  0  0  0  0
    3.7174   59.3609   70.0490 C   0  0  0  0  0  0  0  0  0  0  0  0
    3.5649   58.2113   71.0159 C   0  0  0  0  0  0  0  0  0  0  0  0
    3.9999   58.6209   72.4354 C   0  0  0  0  0  0  0  0  0  0  0  0
    3.0441   57.8643   73.3708 N   0  0  0  0  0  0  0  0  0  0  0  0
    2.9535   58.4339   74.2121 H   0  0  0  0  0  0  0  0  0  0  0  0
   -1.1852   60.8636   73.6550 C   0  0  0  0  0  0  0  0  0  0  0  0
   -1.2797   59.5984   74.2115 N   0  0  0  0  0  0  0  0  0  0  0  0
   -2.0157   61.7501   73.9368 O   0  0  0  0  0  0  0  0  0  0  0  0
    0.6837   58.6884   73.2231 C   0  0  0  0  0  0  0  0  0  0  0  0
    0.8794   60.0081   72.5562 C   0  0  0  0  0  0  0  0  0  0  0  0
    0.4477   56.3496   74.9437 C   0  0  0  0  0  0  0  0  0  0  0  0
    0.0105   61.0580   72.7502 C   0  0  0  0  0  0  0  0  0  0  0  0
   -0.7975   57.2305   74.7336 C   0  0  0  0  0  0  0  0  0  0  0  0
    1.6404   57.5097   72.9427 C   0  0  0  0  0  0  0  0  0  0  0  0
    1.2233   56.1656   73.5993 C   0  0  0  0  0  0  0  0  0  0  0  0
   -0.4351   58.5407   74.0230 C   0  0  0  0  0  0  0  0  0  0  0  0
   -2.0440   59.4432   74.8125 H   0  0  0  0  0  0  0  0  0  0  0  0
    3.5402   63.3512   69.1331 C   0  0  0  0  0  0  0  0  0  0  0  0
    4.5793   64.1164   69.9354 C   0  0  0  0  0  0  0  0  0  0  0  0
    4.3827   65.6146   69.7829 C   0  0  0  0  0  0  0  0  0  0  0  0
    2.9295   66.0272   69.5674 C   0  0  0  0  0  0  0  0  0  0  0  0
    2.7519   67.5418   69.3488 C   0  0  0  0  0  0  0  0  0  0  0  0
    2.3433   67.9015   67.9156 C   0  0  0  0  0  0  0  0  0  0  0  0
    3.5703   67.7857   67.0880 N   0  0  0  0  0  0  0  0  0  0  0  0
    4.1233   68.6261   67.2562 H   0  0  0  0  0  0  0  0  0  0  0  0
    4.4911   63.7059   63.9003 C   0  0  0  0  0  0  0  0  0  0  0  0
    4.8584   64.9331   63.3585 N   0  0  0  0  0  0  0  0  0  0  0  0
    4.5572   66.1684   63.8524 C   0  0  0  0  0  0  0  0  0  0  0  0
    3.8238   66.2649   65.0345 C   0  0  0  0  0  0  0  0  0  0  0  0
    3.4018   65.0094   65.7045 C   0  0  0  0  0  0  0  0  0  0  0  0
    3.7099   63.7835   65.1963 C   0  0  0  0  0  0  0  0  0  0  0  0
    4.7292   62.6570   63.2863 O   0  0  0  0  0  0  0  0  0  0  0  0
    5.0634   67.3909   63.0577 C   0  0  0  0  0  0  0  0  0  0  0  0
    3.4393   67.6357   65.5848 C   0  0  0  0  0  0  0  0  0  0  0  0
    4.1796   68.8229   64.9337 C   0  0  0  0  0  0  0  0  0  0  0  0
    4.2533   68.6518   63.4120 C   0  0  0  0  0  0  0  0  0  0  0  0
    5.3921   64.9075   62.5316 H   0  0  0  0  0  0  0  0  0  0  0  0
  9 10  1  0  0  0
  9 11  2  0  0  0
  9 15  1  0  0  0
 10 19  1  0  0  0
 12 13  1  0  0  0
 12 17  1  0  0  0
 12 19  2  0  0  0
 13 15  2  0  0  0
 14 16  1  0  0  0
 14 18  1  0  0  0
  7  6  1  0  0  0
  7 17  1  0  0  0
  6  5  1  0  0  0
 16 19  1  0  0  0
 17 18  1  0  0  0
  5  4  1  0  0  0
 29 30  1  0  0  0
 29 34  1  0  0  0
 29 35  2  0  0  0
 30 31  1  0  0  0
 31 32  2  0  0  0
 31 36  1  0  0  0
 32 33  1  0  0  0
 32 37  1  0  0  0
 33 34  2  0  0  0
 36 39  1  0  0  0
 37 38  1  0  0  0
 37 27  1  0  0  0
 38 39  1  0  0  0
 27 26  1  0  0  0
 26 25  1  0  0  0
  4  3  1  0  0  0
  3  2  1  0  0  0
  2  1  1  0  0  0
  1 21  1  0  0  0
 21 22  1  0  0  0
 22 23  1  0  0  0
 23 24  1  0  0  0
 24 25  1  0  0  0
 10 20  1  0  0  0
  7  8  1  0  0  0
 30 40  1  0  0  0
 27 28  1  0  0  0
M  END
> <minimizedAffinity>
-9.98544

$$$$
1H23_E12_A_1536


 40 43  0  0  0  0  0  0  0  0999 V2000
    0.7578   63.9895   70.8409 C   0  0  0  0  0  0  0  0  0  0  0  0
    1.3443   63.3640   72.0866 C   0  0  0  0  0  0  0  0  0  0  0  0
    0.4401   62.2794   72.6163 C   0  0  0  0  0  0  0  0  0  0  0  0
    1.2180   61.2178   73.3812 C   0  0  0  0  0  0  0  0  0  0  0  0
    2.6124   61.7105   73.6855 C   0  0  0  0  0  0  0  0  0  0  0  0
    3.6689   60.6652   73.2815 C   0  0  0  0  0  0  0  0  0  0  0  0
    4.7460   61.4665   72.5343 N   0  0  0  0  0  0  0  0  0  0  0  0
    5.6369   61.2270   72.9693 H   0  0  0  0  0  0  0  0  0  0  0  0
    3.8946   65.0508   68.8748 C   0  0  0  0  0  0  0  0  0  0  0  0
    3.2983   63.8145   68.6870 N   0  0  0  0  0  0  0  0  0  0  0  0
    3.5117   66.0497   68.2340 O   0  0  0  0  0  0  0  0  0  0  0  0
    4.5519   62.6253   70.3225 C   0  0  0  0  0  0  0  0  0  0  0  0
    5.2741   63.9006   70.5998 C   0  0  0  0  0  0  0  0  0  0  0  0
    2.7567   60.3508   70.0227 C   0  0  0  0  0  0  0  0  0  0  0  0
    4.9763   65.0664   69.9313 C   0  0  0  0  0  0  0  0  0  0  0  0
    2.7963   61.4032   68.8995 C   0  0  0  0  0  0  0  0  0  0  0  0
    4.9453   61.3190   71.0449 C   0  0  0  0  0  0  0  0  0  0  0  0
    4.1987   60.0520   70.5461 C   0  0  0  0  0  0  0  0  0  0  0  0
    3.5869   62.6445   69.3317 C   0  0  0  0  0  0  0  0  0  0  0  0
    2.5839   63.7741   68.0109 H   0  0  0  0  0  0  0  0  0  0  0  0
    0.2608   65.4022   71.0650 C   0  0  0  0  0  0  0  0  0  0  0  0
    0.4393   66.3056   69.8563 C   0  0  0  0  0  0  0  0  0  0  0  0
   -0.8582   66.4255   69.0761 C   0  0  0  0  0  0  0  0  0  0  0  0
   -0.7151   67.1707   67.7521 C   0  0  0  0  0  0  0  0  0  0  0  0
    0.7491   67.4611   67.3713 C   0  0  0  0  0  0  0  0  0  0  0  0
    0.9026   68.0421   65.9609 C   0  0  0  0  0  0  0  0  0  0  0  0
    2.3448   67.9456   65.6221 N   0  0  0  0  0  0  0  0  0  0  0  0
    2.7480   68.8707   65.7706 H   0  0  0  0  0  0  0  0  0  0  0  0
    4.6092   63.5263   63.8910 C   0  0  0  0  0  0  0  0  0  0  0  0
    5.0481   64.6729   63.2374 N   0  0  0  0  0  0  0  0  0  0  0  0
    4.5039   65.9209   63.3205 C   0  0  0  0  0  0  0  0  0  0  0  0
    3.4030   66.1259   64.1515 C   0  0  0  0  0  0  0  0  0  0  0  0
    2.8709   64.9675   64.9120 C   0  0  0  0  0  0  0  0  0  0  0  0
    3.4257   63.7270   64.8158 C   0  0  0  0  0  0  0  0  0  0  0  0
    5.1218   62.4283   63.6357 O   0  0  0  0  0  0  0  0  0  0  0  0
    5.1603   67.0365   62.4797 C   0  0  0  0  0  0  0  0  0  0  0  0
    2.7514   67.5039   64.2297 C   0  0  0  0  0  0  0  0  0  0  0  0
    3.5800   68.6457   63.6041 C   0  0  0  0  0  0  0  0  0  0  0  0
    4.1860   68.2098   62.2652 C   0  0  0  0  0  0  0  0  0  0  0  0
    5.8343   64.5733   62.6533 H   0  0  0  0  0  0  0  0  0  0  0  0
  9 10  1  0  0  0
  9 11  2  0  0  0
  9 15  1  0  0  0
 10 19  1  0  0  0
 12 13  1  0  0  0
 12 17  1  0  0  0
 12 19  2  0  0  0
 13 15  2  0  0  0
 14 16  1  0  0  0
 14 18  1  0  0  0
  7  6  1  0  0  0
  7 17  1  0  0  0
  6  5  1  0  0  0
 16 19  1  0  0  0
 17 18  1  0  0  0
  5  4  1  0  0  0
 29 30  1  0  0  0
 29 34  1  0  0  0
 29 35  2  0  0  0
 30 31  1  0  0  0
 31 32  2  0  0  0
 31 36  1  0  0  0
 32 33  1  0  0  0
 32 37  1  0  0  0
 33 34  2  0  0  0
 36 39  1  0  0  0
 37 38  1  0  0  0
 37 27  1  0  0  0
 38 39  1  0  0  0
 27 26  1  0  0  0
 26 25  1  0  0  0
  4  3  1  0  0  0
  3  2  1  0  0  0
  2  1  1  0  0  0
  1 21  1  0  0  0
 21 22  1  0  0  0
 22 23  1  0  0  0
 23 24  1  0  0  0
 24 25  1  0  0  0
 10 20  1  0  0  0
  7  8  1  0  0  0
 30 40  1  0  0  0
 27 28  1  0  0  0
M  END
> <minimizedAffinity>
-9.94671

$$$$
1H23_E12_A_1536


 40 43  0  0  0  0  0  0  0  0999 V2000
    2.6542   65.6744   69.2163 C   0  0  0  0  0  0  0  0  0  0  0  0
    4.0860   66.0712   69.4985 C   0  0  0  0  0  0  0  0  0  0  0  0
    5.0331   65.3454   68.5762 C   0  0  0  0  0  0  0  0  0  0  0  0
    4.9478   65.8708   67.1501 C   0  0  0  0  0  0  0  0  0  0  0  0
    4.0019   65.0206   66.3363 C   0  0  0  0  0  0  0  0  0  0  0  0
    3.4742   65.7950   65.1142 C   0  0  0  0  0  0  0  0  0  0  0  0
    2.9987   67.1419   65.6801 N   0  0  0  0  0  0  0  0  0  0  0  0
    3.4451   67.2453   66.5914 H   0  0  0  0  0  0  0  0  0  0  0  0
    1.0620   68.5301   61.0665 C   0  0  0  0  0  0  0  0  0  0  0  0
    2.4349   68.6308   61.2220 N   0  0  0  0  0  0  0  0  0  0  0  0
    0.5441   68.5408   59.9321 O   0  0  0  0  0  0  0  0  0  0  0  0
    2.4844   68.4250   63.5917 C   0  0  0  0  0  0  0  0  0  0  0  0
    0.9971   68.3207   63.5472 C   0  0  0  0  0  0  0  0  0  0  0  0
    5.3838   68.1609   63.4931 C   0  0  0  0  0  0  0  0  0  0  0  0
    0.2995   68.3611   62.3612 C   0  0  0  0  0  0  0  0  0  0  0  0
    4.6648   68.7777   62.2793 C   0  0  0  0  0  0  0  0  0  0  0  0
    3.2376   68.4355   64.9391 C   0  0  0  0  0  0  0  0  0  0  0  0
    4.7650   68.6925   64.8263 C   0  0  0  0  0  0  0  0  0  0  0  0
    3.1447   68.6043   62.3896 C   0  0  0  0  0  0  0  0  0  0  0  0
    2.9601   68.7335   60.3956 H   0  0  0  0  0  0  0  0  0  0  0  0
    1.6463   66.5209   69.9651 C   0  0  0  0  0  0  0  0  0  0  0  0
    0.4727   65.7242   70.5101 C   0  0  0  0  0  0  0  0  0  0  0  0
    0.8899   64.2994   70.8300 C   0  0  0  0  0  0  0  0  0  0  0  0
   -0.2435   63.2842   70.7147 C   0  0  0  0  0  0  0  0  0  0  0  0
   -0.2170   62.2128   71.8214 C   0  0  0  0  0  0  0  0  0  0  0  0
    0.8929   62.4389   72.8545 C   0  0  0  0  0  0  0  0  0  0  0  0
    1.3451   61.0922   73.2858 N   0  0  0  0  0  0  0  0  0  0  0  0
    2.2284   61.2189   73.7800 H   0  0  0  0  0  0  0  0  0  0  0  0
    1.5291   55.8504   73.6654 C   0  0  0  0  0  0  0  0  0  0  0  0
    2.4474   56.3786   72.7641 N   0  0  0  0  0  0  0  0  0  0  0  0
    2.4967   57.6618   72.3039 C   0  0  0  0  0  0  0  0  0  0  0  0
    1.5632   58.5857   72.7723 C   0  0  0  0  0  0  0  0  0  0  0  0
    0.5518   58.1259   73.7567 C   0  0  0  0  0  0  0  0  0  0  0  0
    0.5158   56.8397   74.2045 C   0  0  0  0  0  0  0  0  0  0  0  0
    1.5231   54.6364   73.9099 O   0  0  0  0  0  0  0  0  0  0  0  0
    3.6045   58.0062   71.2857 C   0  0  0  0  0  0  0  0  0  0  0  0
    1.5726   60.0167   72.2415 C   0  0  0  0  0  0  0  0  0  0  0  0
    2.8384   60.4016   71.4470 C   0  0  0  0  0  0  0  0  0  0  0  0
    3.2458   59.2752   70.4903 C   0  0  0  0  0  0  0  0  0  0  0  0
    3.1341   55.7614   72.4223 H   0  0  0  0  0  0  0  0  0  0  0  0
  9 10  1  0  0  0
  9 11  2  0  0  0
  9 15  1  0  0  0
 10 19  1  0  0  0
 12 13  1  0  0  0
 12 17  1  0  0  0
 12 19  2  0  0  0
 13 15  2  0  0  0
 14 16  1  0  0  0
 14 18  1  0  0  0
  7  6  1  0  0  0
  7 17  1  0  0  0
  6  5  1  0  0  0
 16 19  1  0  0  0
 17 18  1  0  0  0
  5  4  1  0  0  0
 29 30  1  0  0  0
 29 34  1  0  0  0
 29 35  2  0  0  0
 30 31  1  0  0  0
 31 32  2  0  0  0
 31 36  1  0  0  0
 32 33  1  0  0  0
 32 37  1  0  0  0
 33 34  2  0  0  0
 36 39  1  0  0  0
 37 38  1  0  0  0
 37 27  1  0  0  0
 38 39  1  0  0  0
 27 26  1  0  0  0
 26 25  1  0  0  0
  4  3  1  0  0  0
  3  2  1  0  0  0
  2  1  1  0  0  0
  1 21  1  0  0  0
 21 22  1  0  0  0
 22 23  1  0  0  0
 23 24  1  0  0  0
 24 25  1  0  0  0
 10 20  1  0  0  0
  7  8  1  0  0  0
 30 40  1  0  0  0
 27 28  1  0  0  0
M  END
> <minimizedAffinity>
-9.94136

$$$$
1H23_E12_A_1536


 40 43  0  0  0  0  0  0  0  0999 V2000
    3.4048   63.5286   70.5733 C   0  0  0  0  0  0  0  0  0  0  0  0
    3.4476   62.0949   71.0528 C   0  0  0  0  0  0  0  0  0  0  0  0
    3.0362   61.1506   69.9513 C   0  0  0  0  0  0  0  0  0  0  0  0
    4.0459   60.0273   69.7626 C   0  0  0  0  0  0  0  0  0  0  0  0
    3.4429   58.7077   70.1807 C   0  0  0  0  0  0  0  0  0  0  0  0
    3.5947   58.4858   71.6972 C   0  0  0  0  0  0  0  0  0  0  0  0
    2.3256   57.7243   72.1099 N   0  0  0  0  0  0  0  0  0  0  0  0
    2.5842   56.7388   72.1592 H   0  0  0  0  0  0  0  0  0  0  0  0
    0.6657   62.3707   73.7283 C   0  0  0  0  0  0  0  0  0  0  0  0
    1.4471   61.6451   74.6128 N   0  0  0  0  0  0  0  0  0  0  0  0
    0.4808   63.5930   73.8921 O   0  0  0  0  0  0  0  0  0  0  0  0
    1.3111   59.5536   73.4872 C   0  0  0  0  0  0  0  0  0  0  0  0
    0.4441   60.2282   72.4783 C   0  0  0  0  0  0  0  0  0  0  0  0
    3.3801   58.4920   75.2417 C   0  0  0  0  0  0  0  0  0  0  0  0
    0.1287   61.5652   72.5667 C   0  0  0  0  0  0  0  0  0  0  0  0
    2.6191   59.7534   75.6895 C   0  0  0  0  0  0  0  0  0  0  0  0
    1.6015   58.0401   73.3965 C   0  0  0  0  0  0  0  0  0  0  0  0
    2.4002   57.4601   74.5954 C   0  0  0  0  0  0  0  0  0  0  0  0
    1.7622   60.3169   74.5489 C   0  0  0  0  0  0  0  0  0  0  0  0
    1.8184   62.1443   75.3759 H   0  0  0  0  0  0  0  0  0  0  0  0
    4.7160   63.9925   69.9745 C   0  0  0  0  0  0  0  0  0  0  0  0
    4.5973   65.2860   69.1860 C   0  0  0  0  0  0  0  0  0  0  0  0
    3.6598   66.2576   69.8814 C   0  0  0  0  0  0  0  0  0  0  0  0
    2.4684   66.6830   69.0281 C   0  0  0  0  0  0  0  0  0  0  0  0
    2.3660   68.2088   68.8417 C   0  0  0  0  0  0  0  0  0  0  0  0
    2.2752   68.6330   67.3713 C   0  0  0  0  0  0  0  0  0  0  0  0
    3.4523   68.0381   66.6897 N   0  0  0  0  0  0  0  0  0  0  0  0
    4.2368   68.6716   66.8432 H   0  0  0  0  0  0  0  0  0  0  0  0
    4.4865   63.7106   63.8866 C   0  0  0  0  0  0  0  0  0  0  0  0
    4.8859   64.8888   63.2645 N   0  0  0  0  0  0  0  0  0  0  0  0
    4.5713   66.1609   63.6429 C   0  0  0  0  0  0  0  0  0  0  0  0
    3.7867   66.3552   64.7792 C   0  0  0  0  0  0  0  0  0  0  0  0
    3.3268   65.1594   65.5289 C   0  0  0  0  0  0  0  0  0  0  0  0
    3.6489   63.8954   65.1357 C   0  0  0  0  0  0  0  0  0  0  0  0
    4.7447   62.6147   63.3708 O   0  0  0  0  0  0  0  0  0  0  0  0
    5.1207   67.3135   62.7756 C   0  0  0  0  0  0  0  0  0  0  0  0
    3.3873   67.7672   65.1992 C   0  0  0  0  0  0  0  0  0  0  0  0
    4.1639   68.8955   64.4881 C   0  0  0  0  0  0  0  0  0  0  0  0
    4.3041   68.6015   62.9902 C   0  0  0  0  0  0  0  0  0  0  0  0
    5.4557   64.7946   62.4672 H   0  0  0  0  0  0  0  0  0  0  0  0
  9 10  1  0  0  0
  9 11  2  0  0  0
  9 15  1  0  0  0
 10 19  1  0  0  0
 12 13  1  0  0  0
 12 17  1  0  0  0
 12 19  2  0  0  0
 13 15  2  0  0  0
 14 16  1  0  0  0
 14 18  1  0  0  0
  7  6  1  0  0  0
  7 17  1  0  0  0
  6  5  1  0  0  0
 16 19  1  0  0  0
 17 18  1  0  0  0
  5  4  1  0  0  0
 29 30  1  0  0  0
 29 34  1  0  0  0
 29 35  2  0  0  0
 30 31  1  0  0  0
 31 32  2  0  0  0
 31 36  1  0  0  0
 32 33  1  0  0  0
 32 37  1  0  0  0
 33 34  2  0  0  0
 36 39  1  0  0  0
 37 38  1  0  0  0
 37 27  1  0  0  0
 38 39  1  0  0  0
 27 26  1  0  0  0
 26 25  1  0  0  0
  4  3  1  0  0  0
  3  2  1  0  0  0
  2  1  1  0  0  0
  1 21  1  0  0  0
 21 22  1  0  0  0
 22 23  1  0  0  0
 23 24  1  0  0  0
 24 25  1  0  0  0
 10 20  1  0  0  0
  7  8  1  0  0  0
 30 40  1  0  0  0
 27 28  1  0  0  0
M  END
> <minimizedAffinity>
-9.86574

$$$$
