6HLX_G9Z_A_604


 26 26  0  0  0  0  0  0  0  0999 V2000
   85.0842  -29.9332    0.4788 C   0  0  0  0  0  0  0  0  0  0  0  0
   84.0371  -28.9686    0.3770 O   0  0  0  0  0  0  0  0  0  0  0  0
   83.2044  -29.4169    0.1613 H   0  0  0  0  0  0  0  0  0  0  0  0
   84.7780  -30.9121    1.6165 C   0  0  0  0  0  0  0  0  0  0  0  0
   85.9017  -31.8148    1.7773 O   0  0  0  0  0  0  0  0  0  0  0  0
   86.6952  -31.3059    2.0061 H   0  0  0  0  0  0  0  0  0  0  0  0
   84.5829  -30.1695    2.9812 C   0  0  0  0  0  0  0  0  0  0  0  0
   83.3390  -29.4457    2.9603 O   0  0  0  0  0  0  0  0  0  0  0  0
   83.3802  -28.7514    2.2842 H   0  0  0  0  0  0  0  0  0  0  0  0
   85.7371  -29.2417    3.4319 C   0  0  0  0  0  0  0  0  0  0  0  0
   86.1653  -29.6165    4.7560 O   0  0  0  0  0  0  0  0  0  0  0  0
   85.4304  -29.5007    5.3784 H   0  0  0  0  0  0  0  0  0  0  0  0
   85.3673  -27.7527    3.3540 C   0  0  0  0  0  0  0  0  0  0  0  0
   84.8054  -27.3184    4.6119 O   0  0  0  0  0  0  0  0  0  0  0  0
   84.0065  -27.8338    4.8042 H   0  0  0  0  0  0  0  0  0  0  0  0
   85.1839  -30.6226   -0.8828 C   0  0  0  0  0  0  0  0  0  0  0  0
   87.0452  -32.5049   -2.0799 O   0  0  0  0  0  0  0  0  0  0  0  0
   87.2948  -31.2914   -2.1014 C   0  0  0  0  0  0  0  0  0  0  0  0
   88.4894  -30.7680   -2.6369 C   0  0  0  0  0  0  0  0  0  0  0  0
   88.3878  -29.2190   -2.4841 C   0  0  0  0  0  0  0  0  0  0  0  0
   87.1323  -28.9842   -1.6613 C   0  0  0  0  0  0  0  0  0  0  0  0
   86.5330  -30.3510   -1.5128 N   0  0  0  0  0  0  0  0  0  0  0  0
   86.2735  -28.0286   -2.2917 C   0  0  0  0  0  0  0  0  0  0  0  0
   85.2825  -28.4450   -2.9523 O   0  0  0  0  0  0  0  0  0  0  0  0
   86.5709  -26.8077   -2.1845 O   0  0  0  0  0  0  0  0  0  0  0  0
   87.3183  -26.5500   -1.6816 H   0  0  0  0  0  0  0  0  0  0  0  0
 24 23  2  0  0  0
 20 19  2  0  0  0
 20 21  1  0  0  0
 19 18  1  0  0  0
 23 25  1  0  0  0
 23 21  1  0  0  0
 21 22  1  0  0  0
 18 17  2  0  0  0
 18 22  1  0  0  0
 22 16  1  0  0  0
 16  1  1  0  0  0
  1  2  1  0  0  0
  1  4  1  0  0  0
  5  4  1  0  0  0
  4  7  1  0  0  0
  7 10  1  0  0  0
  7  8  1  0  0  0
 10 13  1  0  0  0
 10 11  1  0  0  0
 13 14  1  0  0  0
  2  3  1  0  0  0
  5  6  1  0  0  0
  8  9  1  0  0  0
 11 12  1  0  0  0
 14 15  1  0  0  0
 25 26  1  0  0  0
M  END
> <minimizedAffinity>
-9.21548

$$$$
6HLX_G9Z_A_604


 26 26  0  0  0  0  0  0  0  0999 V2000
   85.1372  -30.1149    0.4950 C   0  0  0  0  0  0  0  0  0  0  0  0
   85.8048  -28.8949    0.8162 O   0  0  0  0  0  0  0  0  0  0  0  0
   85.3017  -28.1470    0.4578 H   0  0  0  0  0  0  0  0  0  0  0  0
   83.7516  -30.1347    1.1476 C   0  0  0  0  0  0  0  0  0  0  0  0
   83.1594  -31.4449    0.9577 O   0  0  0  0  0  0  0  0  0  0  0  0
   83.7161  -32.1160    1.3827 H   0  0  0  0  0  0  0  0  0  0  0  0
   83.8360  -29.8851    2.6912 C   0  0  0  0  0  0  0  0  0  0  0  0
   83.9852  -28.4756    2.9421 O   0  0  0  0  0  0  0  0  0  0  0  0
   84.8305  -28.1700    2.5775 H   0  0  0  0  0  0  0  0  0  0  0  0
   84.9150  -30.6851    3.4605 C   0  0  0  0  0  0  0  0  0  0  0  0
   84.2796  -31.7014    4.2608 O   0  0  0  0  0  0  0  0  0  0  0  0
   83.6982  -31.2820    4.9141 H   0  0  0  0  0  0  0  0  0  0  0  0
   85.8314  -29.7866    4.3049 C   0  0  0  0  0  0  0  0  0  0  0  0
   86.6045  -28.9231    3.4427 O   0  0  0  0  0  0  0  0  0  0  0  0
   87.1494  -29.4630    2.8490 H   0  0  0  0  0  0  0  0  0  0  0  0
   85.0726  -30.1948   -1.0310 C   0  0  0  0  0  0  0  0  0  0  0  0
   86.7303  -32.2957   -2.1617 O   0  0  0  0  0  0  0  0  0  0  0  0
   87.1229  -31.1207   -2.1831 C   0  0  0  0  0  0  0  0  0  0  0  0
   88.3859  -30.7476   -2.6864 C   0  0  0  0  0  0  0  0  0  0  0  0
   88.4648  -29.1962   -2.5460 C   0  0  0  0  0  0  0  0  0  0  0  0
   87.2232  -28.8064   -1.7617 C   0  0  0  0  0  0  0  0  0  0  0  0
   86.4618  -30.0910   -1.6227 N   0  0  0  0  0  0  0  0  0  0  0  0
   86.5023  -27.7617   -2.4227 C   0  0  0  0  0  0  0  0  0  0  0  0
   85.5660  -28.0730   -3.2090 O   0  0  0  0  0  0  0  0  0  0  0  0
   86.8634  -26.5718   -2.2123 O   0  0  0  0  0  0  0  0  0  0  0  0
   87.5654  -26.3934   -1.6179 H   0  0  0  0  0  0  0  0  0  0  0  0
 24 23  2  0  0  0
 20 19  2  0  0  0
 20 21  1  0  0  0
 19 18  1  0  0  0
 23 25  1  0  0  0
 23 21  1  0  0  0
 21 22  1  0  0  0
 18 17  2  0  0  0
 18 22  1  0  0  0
 22 16  1  0  0  0
 16  1  1  0  0  0
  1  2  1  0  0  0
  1  4  1  0  0  0
  5  4  1  0  0  0
  4  7  1  0  0  0
  7 10  1  0  0  0
  7  8  1  0  0  0
 10 13  1  0  0  0
 10 11  1  0  0  0
 13 14  1  0  0  0
  2  3  1  0  0  0
  5  6  1  0  0  0
  8  9  1  0  0  0
 11 12  1  0  0  0
 14 15  1  0  0  0
 25 26  1  0  0  0
M  END
> <minimizedAffinity>
-8.87758

$$$$
6HLX_G9Z_A_604


 26 26  0  0  0  0  0  0  0  0999 V2000
   85.8712  -30.0103    0.8945 C   0  0  0  0  0  0  0  0  0  0  0  0
   85.6745  -28.7128    1.4557 O   0  0  0  0  0  0  0  0  0  0  0  0
   84.7417  -28.4612    1.3694 H   0  0  0  0  0  0  0  0  0  0  0  0
   85.0411  -31.0402    1.6669 C   0  0  0  0  0  0  0  0  0  0  0  0
   85.9070  -32.1260    2.0850 O   0  0  0  0  0  0  0  0  0  0  0  0
   86.6003  -31.7803    2.6686 H   0  0  0  0  0  0  0  0  0  0  0  0
   84.4150  -30.4233    2.9628 C   0  0  0  0  0  0  0  0  0  0  0  0
   84.7403  -31.2514    4.0942 O   0  0  0  0  0  0  0  0  0  0  0  0
   84.3254  -32.1218    3.9877 H   0  0  0  0  0  0  0  0  0  0  0  0
   82.8940  -30.1385    2.9249 C   0  0  0  0  0  0  0  0  0  0  0  0
   82.2387  -30.8893    3.9660 O   0  0  0  0  0  0  0  0  0  0  0  0
   82.3676  -31.8380    3.8104 H   0  0  0  0  0  0  0  0  0  0  0  0
   82.2721  -30.4140    1.5474 C   0  0  0  0  0  0  0  0  0  0  0  0
   81.5533  -31.6667    1.5735 O   0  0  0  0  0  0  0  0  0  0  0  0
   82.1653  -32.3861    1.7946 H   0  0  0  0  0  0  0  0  0  0  0  0
   85.4752  -29.9185   -0.5800 C   0  0  0  0  0  0  0  0  0  0  0  0
   86.8402  -32.1807   -1.7883 O   0  0  0  0  0  0  0  0  0  0  0  0
   87.2282  -31.0278   -2.0239 C   0  0  0  0  0  0  0  0  0  0  0  0
   88.3589  -30.7513   -2.8194 C   0  0  0  0  0  0  0  0  0  0  0  0
   88.4775  -29.1971   -2.8746 C   0  0  0  0  0  0  0  0  0  0  0  0
   87.4330  -28.6857   -1.8969 C   0  0  0  0  0  0  0  0  0  0  0  0
   86.7085  -29.9231   -1.4574 N   0  0  0  0  0  0  0  0  0  0  0  0
   86.5964  -27.6970   -2.5058 C   0  0  0  0  0  0  0  0  0  0  0  0
   85.6123  -28.0766   -3.1980 O   0  0  0  0  0  0  0  0  0  0  0  0
   86.9062  -26.4847   -2.3484 O   0  0  0  0  0  0  0  0  0  0  0  0
   87.6478  -26.2549   -1.8238 H   0  0  0  0  0  0  0  0  0  0  0  0
 24 23  2  0  0  0
 20 19  2  0  0  0
 20 21  1  0  0  0
 19 18  1  0  0  0
 23 25  1  0  0  0
 23 21  1  0  0  0
 21 22  1  0  0  0
 18 17  2  0  0  0
 18 22  1  0  0  0
 22 16  1  0  0  0
 16  1  1  0  0  0
  1  2  1  0  0  0
  1  4  1  0  0  0
  5  4  1  0  0  0
  4  7  1  0  0  0
  7 10  1  0  0  0
  7  8  1  0  0  0
 10 13  1  0  0  0
 10 11  1  0  0  0
 13 14  1  0  0  0
  2  3  1  0  0  0
  5  6  1  0  0  0
  8  9  1  0  0  0
 11 12  1  0  0  0
 14 15  1  0  0  0
 25 26  1  0  0  0
M  END
> <minimizedAffinity>
-8.71826

$$$$
6HLX_G9Z_A_604


 26 26  0  0  0  0  0  0  0  0999 V2000
   84.9989  -31.3408    0.1305 C   0  0  0  0  0  0  0  0  0  0  0  0
   83.9619  -32.0141   -0.5826 O   0  0  0  0  0  0  0  0  0  0  0  0
   83.5791  -31.4131   -1.2407 H   0  0  0  0  0  0  0  0  0  0  0  0
   86.1174  -30.9409   -0.8365 C   0  0  0  0  0  0  0  0  0  0  0  0
   86.0144  -31.7486   -2.0368 O   0  0  0  0  0  0  0  0  0  0  0  0
   85.1582  -31.5867   -2.4629 H   0  0  0  0  0  0  0  0  0  0  0  0
   85.9939  -29.4429   -1.2756 C   0  0  0  0  0  0  0  0  0  0  0  0
   85.2544  -29.3633   -2.5079 O   0  0  0  0  0  0  0  0  0  0  0  0
   85.7523  -29.8060   -3.2129 H   0  0  0  0  0  0  0  0  0  0  0  0
   87.3166  -28.6471   -1.3902 C   0  0  0  0  0  0  0  0  0  0  0  0
   87.1382  -27.3349   -0.8217 O   0  0  0  0  0  0  0  0  0  0  0  0
   86.4587  -26.8557   -1.3212 H   0  0  0  0  0  0  0  0  0  0  0  0
   87.8441  -28.5758   -2.8312 C   0  0  0  0  0  0  0  0  0  0  0  0
   88.0910  -29.9082   -3.3316 O   0  0  0  0  0  0  0  0  0  0  0  0
   88.7525  -30.3458   -2.7732 H   0  0  0  0  0  0  0  0  0  0  0  0
   84.3528  -30.1363    0.8169 C   0  0  0  0  0  0  0  0  0  0  0  0
   86.3568  -28.2912    1.8269 O   0  0  0  0  0  0  0  0  0  0  0  0
   85.7691  -29.0526    2.6081 C   0  0  0  0  0  0  0  0  0  0  0  0
   86.0693  -29.1135    3.9842 C   0  0  0  0  0  0  0  0  0  0  0  0
   85.0964  -30.1709    4.5912 C   0  0  0  0  0  0  0  0  0  0  0  0
   84.3916  -30.7916    3.3968 C   0  0  0  0  0  0  0  0  0  0  0  0
   84.8804  -29.9891    2.2279 N   0  0  0  0  0  0  0  0  0  0  0  0
   82.9712  -30.7762    3.5706 C   0  0  0  0  0  0  0  0  0  0  0  0
   82.4491  -31.5916    4.3795 O   0  0  0  0  0  0  0  0  0  0  0  0
   82.3010  -29.9651    2.8752 O   0  0  0  0  0  0  0  0  0  0  0  0
   82.7373  -29.3792    2.2884 H   0  0  0  0  0  0  0  0  0  0  0  0
 24 23  2  0  0  0
 20 19  2  0  0  0
 20 21  1  0  0  0
 19 18  1  0  0  0
 23 25  1  0  0  0
 23 21  1  0  0  0
 21 22  1  0  0  0
 18 17  2  0  0  0
 18 22  1  0  0  0
 22 16  1  0  0  0
 16  1  1  0  0  0
  1  2  1  0  0  0
  1  4  1  0  0  0
  5  4  1  0  0  0
  4  7  1  0  0  0
  7 10  1  0  0  0
  7  8  1  0  0  0
 10 13  1  0  0  0
 10 11  1  0  0  0
 13 14  1  0  0  0
  2  3  1  0  0  0
  5  6  1  0  0  0
  8  9  1  0  0  0
 11 12  1  0  0  0
 14 15  1  0  0  0
 25 26  1  0  0  0
M  END
> <minimizedAffinity>
-7.82442

$$$$
6HLX_G9Z_A_604


 26 26  0  0  0  0  0  0  0  0999 V2000
   85.3631  -30.4795    0.7572 C   0  0  0  0  0  0  0  0  0  0  0  0
   86.2371  -31.6026    0.6463 O   0  0  0  0  0  0  0  0  0  0  0  0
   87.0868  -31.3158    0.2768 H   0  0  0  0  0  0  0  0  0  0  0  0
   85.9623  -29.4500    1.7201 C   0  0  0  0  0  0  0  0  0  0  0  0
   86.4898  -28.3378    0.9531 O   0  0  0  0  0  0  0  0  0  0  0  0
   85.7710  -27.9196    0.4538 H   0  0  0  0  0  0  0  0  0  0  0  0
   84.8803  -28.8692    2.6918 C   0  0  0  0  0  0  0  0  0  0  0  0
   85.0696  -27.4488    2.8272 O   0  0  0  0  0  0  0  0  0  0  0  0
   85.9255  -27.2754    3.2494 H   0  0  0  0  0  0  0  0  0  0  0  0
   84.7791  -29.5332    4.0864 C   0  0  0  0  0  0  0  0  0  0  0  0
   86.1006  -29.6955    4.6380 O   0  0  0  0  0  0  0  0  0  0  0  0
   86.6198  -30.2823    4.0662 H   0  0  0  0  0  0  0  0  0  0  0  0
   84.0078  -30.8615    4.0574 C   0  0  0  0  0  0  0  0  0  0  0  0
   82.5954  -30.6071    3.8933 O   0  0  0  0  0  0  0  0  0  0  0  0
   82.2751  -30.0707    4.6353 H   0  0  0  0  0  0  0  0  0  0  0  0
   85.1733  -29.9262   -0.6560 C   0  0  0  0  0  0  0  0  0  0  0  0
   86.4115  -32.2589   -1.8666 O   0  0  0  0  0  0  0  0  0  0  0  0
   86.9253  -31.1410   -2.0136 C   0  0  0  0  0  0  0  0  0  0  0  0
   88.1385  -30.9441   -2.7043 C   0  0  0  0  0  0  0  0  0  0  0  0
   88.4083  -29.4082   -2.6724 C   0  0  0  0  0  0  0  0  0  0  0  0
   87.3406  -28.8380   -1.7541 C   0  0  0  0  0  0  0  0  0  0  0  0
   86.4683  -30.0153   -1.4344 N   0  0  0  0  0  0  0  0  0  0  0  0
   86.6544  -27.7467   -2.3758 C   0  0  0  0  0  0  0  0  0  0  0  0
   87.0259  -26.5690   -2.1173 O   0  0  0  0  0  0  0  0  0  0  0  0
   85.6811  -28.0160   -3.1312 O   0  0  0  0  0  0  0  0  0  0  0  0
   85.4452  -28.9086   -3.2913 H   0  0  0  0  0  0  0  0  0  0  0  0
 24 23  2  0  0  0
 20 19  2  0  0  0
 20 21  1  0  0  0
 19 18  1  0  0  0
 23 25  1  0  0  0
 23 21  1  0  0  0
 21 22  1  0  0  0
 18 17  2  0  0  0
 18 22  1  0  0  0
 22 16  1  0  0  0
 16  1  1  0  0  0
  1  2  1  0  0  0
  1  4  1  0  0  0
  5  4  1  0  0  0
  4  7  1  0  0  0
  7 10  1  0  0  0
  7  8  1  0  0  0
 10 13  1  0  0  0
 10 11  1  0  0  0
 13 14  1  0  0  0
  2  3  1  0  0  0
  5  6  1  0  0  0
  8  9  1  0  0  0
 11 12  1  0  0  0
 14 15  1  0  0  0
 25 26  1  0  0  0
M  END
> <minimizedAffinity>
-7.41602

$$$$
6HLX_G9Z_A_604


 26 26  0  0  0  0  0  0  0  0999 V2000
   86.8815  -28.5074    0.8676 C   0  0  0  0  0  0  0  0  0  0  0  0
   87.0413  -27.0942    0.7463 O   0  0  0  0  0  0  0  0  0  0  0  0
   86.1746  -26.6639    0.8136 H   0  0  0  0  0  0  0  0  0  0  0  0
   86.3022  -28.8470    2.2443 C   0  0  0  0  0  0  0  0  0  0  0  0
   86.6929  -27.8170    3.1876 O   0  0  0  0  0  0  0  0  0  0  0  0
   86.3363  -26.9623    2.8991 H   0  0  0  0  0  0  0  0  0  0  0  0
   84.7369  -28.8819    2.2202 C   0  0  0  0  0  0  0  0  0  0  0  0
   84.2204  -27.7754    2.9822 O   0  0  0  0  0  0  0  0  0  0  0  0
   84.4735  -27.8776    3.9129 H   0  0  0  0  0  0  0  0  0  0  0  0
   84.0701  -30.2036    2.6723 C   0  0  0  0  0  0  0  0  0  0  0  0
   82.6768  -29.9666    2.9543 O   0  0  0  0  0  0  0  0  0  0  0  0
   82.5979  -29.3298    3.6817 H   0  0  0  0  0  0  0  0  0  0  0  0
   84.7889  -30.8544    3.8639 C   0  0  0  0  0  0  0  0  0  0  0  0
   85.1969  -29.8391    4.8070 O   0  0  0  0  0  0  0  0  0  0  0  0
   85.8024  -29.2185    4.3721 H   0  0  0  0  0  0  0  0  0  0  0  0
   85.9732  -28.9495   -0.2809 C   0  0  0  0  0  0  0  0  0  0  0  0
   85.3149  -31.7286   -0.8131 O   0  0  0  0  0  0  0  0  0  0  0  0
   86.2670  -31.1963   -1.4007 C   0  0  0  0  0  0  0  0  0  0  0  0
   87.1033  -31.8999   -2.2913 C   0  0  0  0  0  0  0  0  0  0  0  0
   88.1440  -30.8631   -2.8156 C   0  0  0  0  0  0  0  0  0  0  0  0
   87.9031  -29.6095   -1.9916 C   0  0  0  0  0  0  0  0  0  0  0  0
   86.6931  -29.9407   -1.1696 N   0  0  0  0  0  0  0  0  0  0  0  0
   87.7493  -28.4613   -2.8319 C   0  0  0  0  0  0  0  0  0  0  0  0
   86.5978  -28.1691   -3.2568 O   0  0  0  0  0  0  0  0  0  0  0  0
   88.7861  -27.8117   -3.1379 O   0  0  0  0  0  0  0  0  0  0  0  0
   89.6190  -28.0700   -2.7951 H   0  0  0  0  0  0  0  0  0  0  0  0
 24 23  2  0  0  0
 20 19  2  0  0  0
 20 21  1  0  0  0
 19 18  1  0  0  0
 23 25  1  0  0  0
 23 21  1  0  0  0
 21 22  1  0  0  0
 18 17  2  0  0  0
 18 22  1  0  0  0
 22 16  1  0  0  0
 16  1  1  0  0  0
  1  2  1  0  0  0
  1  4  1  0  0  0
  5  4  1  0  0  0
  4  7  1  0  0  0
  7 10  1  0  0  0
  7  8  1  0  0  0
 10 13  1  0  0  0
 10 11  1  0  0  0
 13 14  1  0  0  0
  2  3  1  0  0  0
  5  6  1  0  0  0
  8  9  1  0  0  0
 11 12  1  0  0  0
 14 15  1  0  0  0
 25 26  1  0  0  0
M  END
> <minimizedAffinity>
-7.25356

$$$$
6HLX_G9Z_A_604


 26 26  0  0  0  0  0  0  0  0999 V2000
   85.8787  -29.9930    0.6963 C   0  0  0  0  0  0  0  0  0  0  0  0
   85.7144  -28.7039    1.2866 O   0  0  0  0  0  0  0  0  0  0  0  0
   84.7825  -28.4402    1.2330 H   0  0  0  0  0  0  0  0  0  0  0  0
   85.0599  -31.0274    1.4746 C   0  0  0  0  0  0  0  0  0  0  0  0
   85.9264  -32.1273    1.8529 O   0  0  0  0  0  0  0  0  0  0  0  0
   86.6380  -31.7968    2.4232 H   0  0  0  0  0  0  0  0  0  0  0  0
   84.4738  -30.4253    2.7959 C   0  0  0  0  0  0  0  0  0  0  0  0
   84.8461  -31.2580    3.9093 O   0  0  0  0  0  0  0  0  0  0  0  0
   84.4359  -32.1315    3.8113 H   0  0  0  0  0  0  0  0  0  0  0  0
   82.9498  -30.1547    2.8132 C   0  0  0  0  0  0  0  0  0  0  0  0
   82.3330  -30.9477    3.8464 O   0  0  0  0  0  0  0  0  0  0  0  0
   82.4657  -31.8892    3.6541 H   0  0  0  0  0  0  0  0  0  0  0  0
   82.2894  -30.3886    1.4461 C   0  0  0  0  0  0  0  0  0  0  0  0
   81.5133  -31.6066    1.4762 O   0  0  0  0  0  0  0  0  0  0  0  0
   82.0951  -32.3557    1.6795 H   0  0  0  0  0  0  0  0  0  0  0  0
   85.4401  -29.8696   -0.7637 C   0  0  0  0  0  0  0  0  0  0  0  0
   87.0774  -27.4711   -0.8466 O   0  0  0  0  0  0  0  0  0  0  0  0
   87.3662  -28.4407   -1.5619 C   0  0  0  0  0  0  0  0  0  0  0  0
   88.4378  -28.4205   -2.4778 C   0  0  0  0  0  0  0  0  0  0  0  0
   88.4609  -29.8299   -3.1455 C   0  0  0  0  0  0  0  0  0  0  0  0
   87.2069  -30.5258   -2.6438 C   0  0  0  0  0  0  0  0  0  0  0  0
   86.6308  -29.5647   -1.6469 N   0  0  0  0  0  0  0  0  0  0  0  0
   87.5125  -31.8178   -2.1093 C   0  0  0  0  0  0  0  0  0  0  0  0
   86.7320  -32.3226   -1.2562 O   0  0  0  0  0  0  0  0  0  0  0  0
   88.5743  -32.3789   -2.4943 O   0  0  0  0  0  0  0  0  0  0  0  0
   89.1204  -31.9615   -3.1312 H   0  0  0  0  0  0  0  0  0  0  0  0
 24 23  2  0  0  0
 20 19  2  0  0  0
 20 21  1  0  0  0
 19 18  1  0  0  0
 23 25  1  0  0  0
 23 21  1  0  0  0
 21 22  1  0  0  0
 18 17  2  0  0  0
 18 22  1  0  0  0
 22 16  1  0  0  0
 16  1  1  0  0  0
  1  2  1  0  0  0
  1  4  1  0  0  0
  5  4  1  0  0  0
  4  7  1  0  0  0
  7 10  1  0  0  0
  7  8  1  0  0  0
 10 13  1  0  0  0
 10 11  1  0  0  0
 13 14  1  0  0  0
  2  3  1  0  0  0
  5  6  1  0  0  0
  8  9  1  0  0  0
 11 12  1  0  0  0
 14 15  1  0  0  0
 25 26  1  0  0  0
M  END
> <minimizedAffinity>
-7.00934

$$$$
6HLX_G9Z_A_604


 26 26  0  0  0  0  0  0  0  0999 V2000
   84.9670  -30.0340    0.5691 C   0  0  0  0  0  0  0  0  0  0  0  0
   83.8257  -29.2060    0.3471 O   0  0  0  0  0  0  0  0  0  0  0  0
   83.0592  -29.7617    0.1361 H   0  0  0  0  0  0  0  0  0  0  0  0
   84.7161  -30.9511    1.7700 C   0  0  0  0  0  0  0  0  0  0  0  0
   85.8560  -31.8321    1.9370 O   0  0  0  0  0  0  0  0  0  0  0  0
   86.6513  -31.3033    2.1066 H   0  0  0  0  0  0  0  0  0  0  0  0
   84.5638  -30.1357    3.0981 C   0  0  0  0  0  0  0  0  0  0  0  0
   83.3254  -29.4027    3.0721 O   0  0  0  0  0  0  0  0  0  0  0  0
   83.3536  -28.7455    2.3593 H   0  0  0  0  0  0  0  0  0  0  0  0
   85.7369  -29.1959    3.4680 C   0  0  0  0  0  0  0  0  0  0  0  0
   86.2178  -29.5242    4.7863 O   0  0  0  0  0  0  0  0  0  0  0  0
   85.5089  -29.3837    5.4334 H   0  0  0  0  0  0  0  0  0  0  0  0
   85.3668  -27.7095    3.3513 C   0  0  0  0  0  0  0  0  0  0  0  0
   84.7561  -27.2563    4.5794 O   0  0  0  0  0  0  0  0  0  0  0  0
   83.9516  -27.7709    4.7495 H   0  0  0  0  0  0  0  0  0  0  0  0
   85.2084  -30.8102   -0.7266 C   0  0  0  0  0  0  0  0  0  0  0  0
   86.6722  -28.3609   -0.1797 O   0  0  0  0  0  0  0  0  0  0  0  0
   87.0163  -29.0886   -1.1217 C   0  0  0  0  0  0  0  0  0  0  0  0
   88.0686  -28.7545   -1.9985 C   0  0  0  0  0  0  0  0  0  0  0  0
   88.1793  -29.9372   -3.0094 C   0  0  0  0  0  0  0  0  0  0  0  0
   86.9855  -30.8277   -2.7086 C   0  0  0  0  0  0  0  0  0  0  0  0
   86.3601  -30.2020   -1.4976 N   0  0  0  0  0  0  0  0  0  0  0  0
   87.3896  -32.1886   -2.5274 C   0  0  0  0  0  0  0  0  0  0  0  0
   87.6722  -32.5889   -1.3648 O   0  0  0  0  0  0  0  0  0  0  0  0
   87.4780  -32.9187   -3.5520 O   0  0  0  0  0  0  0  0  0  0  0  0
   87.2559  -32.5730   -4.3941 H   0  0  0  0  0  0  0  0  0  0  0  0
 24 23  2  0  0  0
 20 19  2  0  0  0
 20 21  1  0  0  0
 19 18  1  0  0  0
 23 25  1  0  0  0
 23 21  1  0  0  0
 21 22  1  0  0  0
 18 17  2  0  0  0
 18 22  1  0  0  0
 22 16  1  0  0  0
 16  1  1  0  0  0
  1  2  1  0  0  0
  1  4  1  0  0  0
  5  4  1  0  0  0
  4  7  1  0  0  0
  7 10  1  0  0  0
  7  8  1  0  0  0
 10 13  1  0  0  0
 10 11  1  0  0  0
 13 14  1  0  0  0
  2  3  1  0  0  0
  5  6  1  0  0  0
  8  9  1  0  0  0
 11 12  1  0  0  0
 14 15  1  0  0  0
 25 26  1  0  0  0
M  END
> <minimizedAffinity>
-6.74678

$$$$
6HLX_G9Z_A_604


 26 26  0  0  0  0  0  0  0  0999 V2000
   85.0987  -30.2603   -0.3832 C   0  0  0  0  0  0  0  0  0  0  0  0
   84.4502  -31.4756   -0.7571 O   0  0  0  0  0  0  0  0  0  0  0  0
   83.7736  -31.2884   -1.4265 H   0  0  0  0  0  0  0  0  0  0  0  0
   85.8065  -29.6553   -1.5994 C   0  0  0  0  0  0  0  0  0  0  0  0
   85.0138  -28.5512   -2.1055 O   0  0  0  0  0  0  0  0  0  0  0  0
   84.9319  -27.8706   -1.4192 H   0  0  0  0  0  0  0  0  0  0  0  0
   87.2131  -29.0796   -1.2224 C   0  0  0  0  0  0  0  0  0  0  0  0
   87.0939  -27.6759   -0.9274 O   0  0  0  0  0  0  0  0  0  0  0  0
   86.8180  -27.1999   -1.7263 H   0  0  0  0  0  0  0  0  0  0  0  0
   88.3518  -29.3195   -2.2431 C   0  0  0  0  0  0  0  0  0  0  0  0
   88.5470  -28.1300   -3.0331 O   0  0  0  0  0  0  0  0  0  0  0  0
   87.7374  -27.9361   -3.5310 H   0  0  0  0  0  0  0  0  0  0  0  0
   88.1094  -30.5542   -3.1244 C   0  0  0  0  0  0  0  0  0  0  0  0
   88.5518  -31.7447   -2.4363 O   0  0  0  0  0  0  0  0  0  0  0  0
   89.4999  -31.6736   -2.2441 H   0  0  0  0  0  0  0  0  0  0  0  0
   84.0185  -29.3412    0.1894 C   0  0  0  0  0  0  0  0  0  0  0  0
   82.3125  -31.2555    1.5551 O   0  0  0  0  0  0  0  0  0  0  0  0
   83.0851  -30.5407    2.2089 C   0  0  0  0  0  0  0  0  0  0  0  0
   83.1400  -30.5663    3.6174 C   0  0  0  0  0  0  0  0  0  0  0  0
   84.2449  -29.5434    4.0244 C   0  0  0  0  0  0  0  0  0  0  0  0
   84.6343  -28.8465    2.7316 C   0  0  0  0  0  0  0  0  0  0  0  0
   83.8599  -29.5779    1.6759 N   0  0  0  0  0  0  0  0  0  0  0  0
   86.0528  -28.8652    2.5423 C   0  0  0  0  0  0  0  0  0  0  0  0
   86.7123  -29.8443    2.9876 O   0  0  0  0  0  0  0  0  0  0  0  0
   86.5836  -27.8774    1.9654 O   0  0  0  0  0  0  0  0  0  0  0  0
   86.0486  -27.1747    1.6523 H   0  0  0  0  0  0  0  0  0  0  0  0
 24 23  2  0  0  0
 20 19  2  0  0  0
 20 21  1  0  0  0
 19 18  1  0  0  0
 23 25  1  0  0  0
 23 21  1  0  0  0
 21 22  1  0  0  0
 18 17  2  0  0  0
 18 22  1  0  0  0
 22 16  1  0  0  0
 16  1  1  0  0  0
  1  2  1  0  0  0
  1  4  1  0  0  0
  5  4  1  0  0  0
  4  7  1  0  0  0
  7 10  1  0  0  0
  7  8  1  0  0  0
 10 13  1  0  0  0
 10 11  1  0  0  0
 13 14  1  0  0  0
  2  3  1  0  0  0
  5  6  1  0  0  0
  8  9  1  0  0  0
 11 12  1  0  0  0
 14 15  1  0  0  0
 25 26  1  0  0  0
M  END
> <minimizedAffinity>
-6.65420

$$$$
6HLX_G9Z_A_604


 26 26  0  0  0  0  0  0  0  0999 V2000
   85.3056  -31.0448    0.2068 C   0  0  0  0  0  0  0  0  0  0  0  0
   84.2924  -31.9179   -0.2917 O   0  0  0  0  0  0  0  0  0  0  0  0
   83.7588  -31.4498   -0.9528 H   0  0  0  0  0  0  0  0  0  0  0  0
   86.2407  -30.6318   -0.9339 C   0  0  0  0  0  0  0  0  0  0  0  0
   85.9988  -31.4913   -2.0769 O   0  0  0  0  0  0  0  0  0  0  0  0
   85.0802  -31.3874   -2.3708 H   0  0  0  0  0  0  0  0  0  0  0  0
   85.9724  -29.1603   -1.3973 C   0  0  0  0  0  0  0  0  0  0  0  0
   85.1014  -29.1691   -2.5431 O   0  0  0  0  0  0  0  0  0  0  0  0
   85.5488  -29.6036   -3.2860 H   0  0  0  0  0  0  0  0  0  0  0  0
   87.2199  -28.2877   -1.6772 C   0  0  0  0  0  0  0  0  0  0  0  0
   86.8036  -26.9983   -2.1681 O   0  0  0  0  0  0  0  0  0  0  0  0
   86.3251  -27.1098   -3.0045 H   0  0  0  0  0  0  0  0  0  0  0  0
   88.2166  -28.9646   -2.6303 C   0  0  0  0  0  0  0  0  0  0  0  0
   89.3964  -28.1434   -2.7730 O   0  0  0  0  0  0  0  0  0  0  0  0
   89.1470  -27.2795   -3.1366 H   0  0  0  0  0  0  0  0  0  0  0  0
   84.5882  -29.8534    0.8433 C   0  0  0  0  0  0  0  0  0  0  0  0
   85.1897  -32.0267    2.6750 O   0  0  0  0  0  0  0  0  0  0  0  0
   85.2210  -30.8548    3.0760 C   0  0  0  0  0  0  0  0  0  0  0  0
   85.4824  -30.5150    4.4191 C   0  0  0  0  0  0  0  0  0  0  0  0
   85.4491  -28.9570    4.4840 C   0  0  0  0  0  0  0  0  0  0  0  0
   84.9682  -28.5142    3.1124 C   0  0  0  0  0  0  0  0  0  0  0  0
   84.8892  -29.7883    2.3251 N   0  0  0  0  0  0  0  0  0  0  0  0
   85.8416  -27.5281    2.5529 C   0  0  0  0  0  0  0  0  0  0  0  0
   86.8319  -27.9102    1.8710 O   0  0  0  0  0  0  0  0  0  0  0  0
   85.5968  -26.3158    2.7996 O   0  0  0  0  0  0  0  0  0  0  0  0
   84.8471  -26.0840    3.3118 H   0  0  0  0  0  0  0  0  0  0  0  0
 24 23  2  0  0  0
 20 19  2  0  0  0
 20 21  1  0  0  0
 19 18  1  0  0  0
 23 25  1  0  0  0
 23 21  1  0  0  0
 21 22  1  0  0  0
 18 17  2  0  0  0
 18 22  1  0  0  0
 22 16  1  0  0  0
 16  1  1  0  0  0
  1  2  1  0  0  0
  1  4  1  0  0  0
  5  4  1  0  0  0
  4  7  1  0  0  0
  7 10  1  0  0  0
  7  8  1  0  0  0
 10 13  1  0  0  0
 10 11  1  0  0  0
 13 14  1  0  0  0
  2  3  1  0  0  0
  5  6  1  0  0  0
  8  9  1  0  0  0
 11 12  1  0  0  0
 14 15  1  0  0  0
 25 26  1  0  0  0
M  END
> <minimizedAffinity>
-6.52758

$$$$
