3RBU_G88_A_1800


 18 17  0  0  0  0  0  0  0  0999 V2000
  -34.0497   19.7299   38.0231 C   0  0  0  0  0  0  0  0  0  0  0  0
  -33.9804   20.8401   39.0261 C   0  0  0  0  0  0  0  0  0  0  0  0
  -34.9608   21.6361   39.1048 O   0  0  0  0  0  0  0  0  0  0  0  0
  -32.9461   20.9447   39.7489 O   0  0  0  0  0  0  0  0  0  0  0  0
  -35.7055   21.5186   38.5483 H   0  0  0  0  0  0  0  0  0  0  0  0
  -34.4974   18.4734   38.8021 C   0  0  0  0  0  0  0  0  0  0  0  0
  -35.9605   18.0942   38.4125 C   0  0  0  0  0  0  0  0  0  0  0  0
  -37.4281   17.9902   40.0564 O   0  0  0  0  0  0  0  0  0  0  0  0
  -36.9816   18.6432   39.0766 C   0  0  0  0  0  0  0  0  0  0  0  0
  -37.4729   19.7656   38.7313 O   0  0  0  0  0  0  0  0  0  0  0  0
  -37.1176   20.2266   37.9970 H   0  0  0  0  0  0  0  0  0  0  0  0
  -32.7361   19.6942   37.1251 C   0  0  0  0  0  0  0  0  0  0  0  0
  -32.9511   21.0213   35.7680 P   0  0  0  0  0  0  0  0  0  0  0  0
  -31.6790   21.8539   35.7646 O   0  0  0  0  0  0  0  0  0  0  0  0
  -32.8807   20.4968   34.3494 O   0  0  0  0  0  0  0  0  0  0  0  0
  -34.0261   22.0817   36.1459 O   0  0  0  0  0  0  0  0  0  0  0  0
  -33.6459   19.9260   34.1774 H   0  0  0  0  0  0  0  0  0  0  0  0
  -33.9380   22.3112   37.0842 H   0  0  0  0  0  0  0  0  0  0  0  0
  8  9  2  0  0  0
  9 10  1  0  0  0
  9  7  1  0  0  0
  7  6  1  0  0  0
  6  1  1  0  0  0
  1 12  1  0  0  0
  1  2  1  0  0  0
  2  3  1  0  0  0
  2  4  2  0  0  0
 12 13  1  0  0  0
 13 16  1  0  0  0
 13 14  2  0  0  0
 13 15  1  0  0  0
 10 11  1  0  0  0
  3  5  1  0  0  0
 15 17  1  0  0  0
 16 18  1  0  0  0
M  END
> <minimizedAffinity>
-7.52535

$$$$
3RBU_G88_A_1800


 18 17  0  0  0  0  0  0  0  0999 V2000
  -30.3270   20.8115   34.5331 C   0  0  0  0  0  0  0  0  0  0  0  0
  -30.3556   20.6934   33.0402 C   0  0  0  0  0  0  0  0  0  0  0  0
  -30.1978   21.7451   32.3547 O   0  0  0  0  0  0  0  0  0  0  0  0
  -30.5428   19.5531   32.5225 O   0  0  0  0  0  0  0  0  0  0  0  0
  -30.0621   22.5675   32.7829 H   0  0  0  0  0  0  0  0  0  0  0  0
  -28.8355   20.8411   34.9340 C   0  0  0  0  0  0  0  0  0  0  0  0
  -28.4137   19.4625   35.5321 C   0  0  0  0  0  0  0  0  0  0  0  0
  -27.8761   17.3473   35.2104 O   0  0  0  0  0  0  0  0  0  0  0  0
  -27.9598   18.5040   34.7197 C   0  0  0  0  0  0  0  0  0  0  0  0
  -27.6301   18.7536   33.5158 O   0  0  0  0  0  0  0  0  0  0  0  0
  -27.7043   19.6255   33.1808 H   0  0  0  0  0  0  0  0  0  0  0  0
  -31.3199   19.7638   35.2038 C   0  0  0  0  0  0  0  0  0  0  0  0
  -32.9123   20.7157   35.6587 P   0  0  0  0  0  0  0  0  0  0  0  0
  -32.4785   21.9472   36.4377 O   0  0  0  0  0  0  0  0  0  0  0  0
  -33.5907   21.4112   34.4975 O   0  0  0  0  0  0  0  0  0  0  0  0
  -33.7714   19.9575   36.7123 O   0  0  0  0  0  0  0  0  0  0  0  0
  -33.9378   20.7474   33.8812 H   0  0  0  0  0  0  0  0  0  0  0  0
  -33.1900   19.5705   37.3855 H   0  0  0  0  0  0  0  0  0  0  0  0
  8  9  2  0  0  0
  9 10  1  0  0  0
  9  7  1  0  0  0
  7  6  1  0  0  0
  6  1  1  0  0  0
  1 12  1  0  0  0
  1  2  1  0  0  0
  2  3  1  0  0  0
  2  4  2  0  0  0
 12 13  1  0  0  0
 13 16  1  0  0  0
 13 14  2  0  0  0
 13 15  1  0  0  0
 10 11  1  0  0  0
  3  5  1  0  0  0
 15 17  1  0  0  0
 16 18  1  0  0  0
M  END
> <minimizedAffinity>
-7.47594

$$$$
3RBU_G88_A_1800


 18 17  0  0  0  0  0  0  0  0999 V2000
  -30.7972   19.0707   34.8695 C   0  0  0  0  0  0  0  0  0  0  0  0
  -30.6835   17.5935   34.6498 C   0  0  0  0  0  0  0  0  0  0  0  0
  -31.5453   17.0309   33.9139 O   0  0  0  0  0  0  0  0  0  0  0  0
  -29.7387   16.9648   35.2116 O   0  0  0  0  0  0  0  0  0  0  0  0
  -32.2270   17.5382   33.5190 H   0  0  0  0  0  0  0  0  0  0  0  0
  -29.4534   19.6788   34.4104 C   0  0  0  0  0  0  0  0  0  0  0  0
  -29.5667   21.2336   34.3343 C   0  0  0  0  0  0  0  0  0  0  0  0
  -29.9316   21.6830   32.2055 O   0  0  0  0  0  0  0  0  0  0  0  0
  -30.3338   21.7922   33.3938 C   0  0  0  0  0  0  0  0  0  0  0  0
  -31.4113   22.4019   33.6900 O   0  0  0  0  0  0  0  0  0  0  0  0
  -31.6829   22.4656   34.5845 H   0  0  0  0  0  0  0  0  0  0  0  0
  -31.3689   19.3858   36.3210 C   0  0  0  0  0  0  0  0  0  0  0  0
  -32.9648   20.4083   36.0829 P   0  0  0  0  0  0  0  0  0  0  0  0
  -32.6538   21.8206   36.5520 O   0  0  0  0  0  0  0  0  0  0  0  0
  -33.3105   20.7206   34.6423 O   0  0  0  0  0  0  0  0  0  0  0  0
  -34.0896   19.9837   37.0714 O   0  0  0  0  0  0  0  0  0  0  0  0
  -33.5421   19.8998   34.1801 H   0  0  0  0  0  0  0  0  0  0  0  0
  -33.7058   19.8206   37.9472 H   0  0  0  0  0  0  0  0  0  0  0  0
  8  9  2  0  0  0
  9 10  1  0  0  0
  9  7  1  0  0  0
  7  6  1  0  0  0
  6  1  1  0  0  0
  1 12  1  0  0  0
  1  2  1  0  0  0
  2  3  1  0  0  0
  2  4  2  0  0  0
 12 13  1  0  0  0
 13 16  1  0  0  0
 13 14  2  0  0  0
 13 15  1  0  0  0
 10 11  1  0  0  0
  3  5  1  0  0  0
 15 17  1  0  0  0
 16 18  1  0  0  0
M  END
> <minimizedAffinity>
-7.45147

$$$$
3RBU_G88_A_1800


 18 17  0  0  0  0  0  0  0  0999 V2000
  -34.3599   20.4357   37.8218 C   0  0  0  0  0  0  0  0  0  0  0  0
  -33.9461   21.0410   39.1278 C   0  0  0  0  0  0  0  0  0  0  0  0
  -34.7486   21.8347   39.6994 O   0  0  0  0  0  0  0  0  0  0  0  0
  -32.8117   20.7432   39.6052 O   0  0  0  0  0  0  0  0  0  0  0  0
  -35.5782   22.0250   39.3074 H   0  0  0  0  0  0  0  0  0  0  0  0
  -35.6986   19.7122   38.0877 C   0  0  0  0  0  0  0  0  0  0  0  0
  -35.4500   18.4114   38.9137 C   0  0  0  0  0  0  0  0  0  0  0  0
  -37.0945   18.1010   40.3511 O   0  0  0  0  0  0  0  0  0  0  0  0
  -36.4924   17.6848   39.3265 C   0  0  0  0  0  0  0  0  0  0  0  0
  -36.8513   16.6286   38.7133 O   0  0  0  0  0  0  0  0  0  0  0  0
  -36.3819   16.3455   37.9534 H   0  0  0  0  0  0  0  0  0  0  0  0
  -33.1458   19.6591   37.1466 C   0  0  0  0  0  0  0  0  0  0  0  0
  -32.5078   20.7544   35.7175 P   0  0  0  0  0  0  0  0  0  0  0  0
  -32.3869   22.1662   36.2686 O   0  0  0  0  0  0  0  0  0  0  0  0
  -31.0569   20.5328   35.3458 O   0  0  0  0  0  0  0  0  0  0  0  0
  -33.5717   20.9390   34.5965 O   0  0  0  0  0  0  0  0  0  0  0  0
  -30.9524   19.6468   34.9650 H   0  0  0  0  0  0  0  0  0  0  0  0
  -34.4451   21.0695   34.9979 H   0  0  0  0  0  0  0  0  0  0  0  0
  8  9  2  0  0  0
  9 10  1  0  0  0
  9  7  1  0  0  0
  7  6  1  0  0  0
  6  1  1  0  0  0
  1 12  1  0  0  0
  1  2  1  0  0  0
  2  3  1  0  0  0
  2  4  2  0  0  0
 12 13  1  0  0  0
 13 16  1  0  0  0
 13 14  2  0  0  0
 13 15  1  0  0  0
 10 11  1  0  0  0
  3  5  1  0  0  0
 15 17  1  0  0  0
 16 18  1  0  0  0
M  END
> <minimizedAffinity>
-7.37494

$$$$
3RBU_G88_A_1800


 18 17  0  0  0  0  0  0  0  0999 V2000
  -30.6054   20.9534   34.2704 C   0  0  0  0  0  0  0  0  0  0  0  0
  -30.0736   21.8309   33.1793 C   0  0  0  0  0  0  0  0  0  0  0  0
  -30.2532   21.4687   31.9804 O   0  0  0  0  0  0  0  0  0  0  0  0
  -29.4609   22.8930   33.4956 O   0  0  0  0  0  0  0  0  0  0  0  0
  -30.7132   20.6736   31.7952 H   0  0  0  0  0  0  0  0  0  0  0  0
  -31.7111   21.7681   34.9775 C   0  0  0  0  0  0  0  0  0  0  0  0
  -32.9025   20.8353   35.3605 C   0  0  0  0  0  0  0  0  0  0  0  0
  -32.5911   20.1238   37.4253 O   0  0  0  0  0  0  0  0  0  0  0  0
  -33.3137   20.7808   36.6304 C   0  0  0  0  0  0  0  0  0  0  0  0
  -34.3804   21.3628   37.0096 O   0  0  0  0  0  0  0  0  0  0  0  0
  -34.8962   21.8441   36.3929 H   0  0  0  0  0  0  0  0  0  0  0  0
  -29.4168   20.3109   35.1115 C   0  0  0  0  0  0  0  0  0  0  0  0
  -28.9120   18.6973   34.2224 P   0  0  0  0  0  0  0  0  0  0  0  0
  -29.8861   18.5093   33.0703 O   0  0  0  0  0  0  0  0  0  0  0  0
  -27.6304   18.7873   33.4212 O   0  0  0  0  0  0  0  0  0  0  0  0
  -29.1935   17.4347   35.0880 O   0  0  0  0  0  0  0  0  0  0  0  0
  -26.8806   18.9127   34.0237 H   0  0  0  0  0  0  0  0  0  0  0  0
  -30.0488   17.5331   35.5348 H   0  0  0  0  0  0  0  0  0  0  0  0
  8  9  2  0  0  0
  9 10  1  0  0  0
  9  7  1  0  0  0
  7  6  1  0  0  0
  6  1  1  0  0  0
  1 12  1  0  0  0
  1  2  1  0  0  0
  2  3  1  0  0  0
  2  4  2  0  0  0
 12 13  1  0  0  0
 13 16  1  0  0  0
 13 14  2  0  0  0
 13 15  1  0  0  0
 10 11  1  0  0  0
  3  5  1  0  0  0
 15 17  1  0  0  0
 16 18  1  0  0  0
M  END
> <minimizedAffinity>
-7.27265

$$$$
3RBU_G88_A_1800


 18 17  0  0  0  0  0  0  0  0999 V2000
  -30.4270   19.3017   35.1277 C   0  0  0  0  0  0  0  0  0  0  0  0
  -31.6855   19.5808   35.8903 C   0  0  0  0  0  0  0  0  0  0  0  0
  -32.7382   19.8311   35.2346 O   0  0  0  0  0  0  0  0  0  0  0  0
  -31.6478   19.5633   37.1558 O   0  0  0  0  0  0  0  0  0  0  0  0
  -32.7175   19.8326   34.2978 H   0  0  0  0  0  0  0  0  0  0  0  0
  -29.8157   18.0301   35.7566 C   0  0  0  0  0  0  0  0  0  0  0  0
  -28.4137   17.7444   35.1329 C   0  0  0  0  0  0  0  0  0  0  0  0
  -28.9008   16.5683   33.3311 O   0  0  0  0  0  0  0  0  0  0  0  0
  -28.3044   17.5671   33.8132 C   0  0  0  0  0  0  0  0  0  0  0  0
  -27.6307   18.3676   33.0882 O   0  0  0  0  0  0  0  0  0  0  0  0
  -27.1984   19.1019   33.4780 H   0  0  0  0  0  0  0  0  0  0  0  0
  -29.5529   20.6228   34.9729 C   0  0  0  0  0  0  0  0  0  0  0  0
  -30.3391   21.6512   33.5682 P   0  0  0  0  0  0  0  0  0  0  0  0
  -29.4485   22.8665   33.3643 O   0  0  0  0  0  0  0  0  0  0  0  0
  -30.2107   21.0438   32.1873 O   0  0  0  0  0  0  0  0  0  0  0  0
  -31.6825   22.3085   33.9999 O   0  0  0  0  0  0  0  0  0  0  0  0
  -30.7367   20.2300   32.1418 H   0  0  0  0  0  0  0  0  0  0  0  0
  -31.6005   22.6471   34.9052 H   0  0  0  0  0  0  0  0  0  0  0  0
  8  9  2  0  0  0
  9 10  1  0  0  0
  9  7  1  0  0  0
  7  6  1  0  0  0
  6  1  1  0  0  0
  1 12  1  0  0  0
  1  2  1  0  0  0
  2  3  1  0  0  0
  2  4  2  0  0  0
 12 13  1  0  0  0
 13 16  1  0  0  0
 13 14  2  0  0  0
 13 15  1  0  0  0
 10 11  1  0  0  0
  3  5  1  0  0  0
 15 17  1  0  0  0
 16 18  1  0  0  0
M  END
> <minimizedAffinity>
-7.04387

$$$$
3RBU_G88_A_1800


 18 17  0  0  0  0  0  0  0  0999 V2000
  -30.4150   19.0434   34.7958 C   0  0  0  0  0  0  0  0  0  0  0  0
  -29.7438   19.3611   33.4951 C   0  0  0  0  0  0  0  0  0  0  0  0
  -28.4794   19.3398   33.4544 O   0  0  0  0  0  0  0  0  0  0  0  0
  -30.4625   19.6447   32.4919 O   0  0  0  0  0  0  0  0  0  0  0  0
  -27.9895   19.1239   34.2234 H   0  0  0  0  0  0  0  0  0  0  0  0
  -30.8832   20.3946   35.3798 C   0  0  0  0  0  0  0  0  0  0  0  0
  -32.4059   20.5989   35.1041 C   0  0  0  0  0  0  0  0  0  0  0  0
  -33.0153   21.6241   36.9600 O   0  0  0  0  0  0  0  0  0  0  0  0
  -33.0538   21.6030   35.7015 C   0  0  0  0  0  0  0  0  0  0  0  0
  -33.6761   22.4866   35.0289 O   0  0  0  0  0  0  0  0  0  0  0  0
  -33.6857   22.4423   34.0930 H   0  0  0  0  0  0  0  0  0  0  0  0
  -29.5222   18.0559   35.6682 C   0  0  0  0  0  0  0  0  0  0  0  0
  -29.7328   16.3088   34.9250 P   0  0  0  0  0  0  0  0  0  0  0  0
  -29.1550   16.3586   33.5195 O   0  0  0  0  0  0  0  0  0  0  0  0
  -28.8154   15.2551   35.5084 O   0  0  0  0  0  0  0  0  0  0  0  0
  -31.2245   15.9634   34.6450 O   0  0  0  0  0  0  0  0  0  0  0  0
  -29.0542   15.0955   36.4348 H   0  0  0  0  0  0  0  0  0  0  0  0
  -31.6723   16.7402   34.2750 H   0  0  0  0  0  0  0  0  0  0  0  0
  8  9  2  0  0  0
  9 10  1  0  0  0
  9  7  1  0  0  0
  7  6  1  0  0  0
  6  1  1  0  0  0
  1 12  1  0  0  0
  1  2  1  0  0  0
  2  3  1  0  0  0
  2  4  2  0  0  0
 12 13  1  0  0  0
 13 16  1  0  0  0
 13 14  2  0  0  0
 13 15  1  0  0  0
 10 11  1  0  0  0
  3  5  1  0  0  0
 15 17  1  0  0  0
 16 18  1  0  0  0
M  END
> <minimizedAffinity>
-6.93283

$$$$
3RBU_G88_A_1800


 18 17  0  0  0  0  0  0  0  0999 V2000
  -30.6838   19.3089   35.4857 C   0  0  0  0  0  0  0  0  0  0  0  0
  -30.5164   18.0266   34.7301 C   0  0  0  0  0  0  0  0  0  0  0  0
  -31.1043   16.9948   35.1667 O   0  0  0  0  0  0  0  0  0  0  0  0
  -29.7908   18.0211   33.6924 O   0  0  0  0  0  0  0  0  0  0  0  0
  -31.6313   17.0477   35.9396 H   0  0  0  0  0  0  0  0  0  0  0  0
  -32.1991   19.6093   35.4933 C   0  0  0  0  0  0  0  0  0  0  0  0
  -32.6481   20.0648   36.9171 C   0  0  0  0  0  0  0  0  0  0  0  0
  -34.2160   21.0347   38.1285 O   0  0  0  0  0  0  0  0  0  0  0  0
  -33.5821   21.0121   37.0408 C   0  0  0  0  0  0  0  0  0  0  0  0
  -33.8147   21.8429   36.1048 O   0  0  0  0  0  0  0  0  0  0  0  0
  -33.3251   21.7992   35.3071 H   0  0  0  0  0  0  0  0  0  0  0  0
  -29.6486   20.4059   34.9775 C   0  0  0  0  0  0  0  0  0  0  0  0
  -30.5030   21.3685   33.5660 P   0  0  0  0  0  0  0  0  0  0  0  0
  -29.5178   22.4289   33.1006 O   0  0  0  0  0  0  0  0  0  0  0  0
  -30.6402   20.6031   32.2669 O   0  0  0  0  0  0  0  0  0  0  0  0
  -31.6887   22.2370   34.0785 O   0  0  0  0  0  0  0  0  0  0  0  0
  -31.2563   19.8642   32.3905 H   0  0  0  0  0  0  0  0  0  0  0  0
  -31.4421   22.6586   34.9166 H   0  0  0  0  0  0  0  0  0  0  0  0
  8  9  2  0  0  0
  9 10  1  0  0  0
  9  7  1  0  0  0
  7  6  1  0  0  0
  6  1  1  0  0  0
  1 12  1  0  0  0
  1  2  1  0  0  0
  2  3  1  0  0  0
  2  4  2  0  0  0
 12 13  1  0  0  0
 13 16  1  0  0  0
 13 14  2  0  0  0
 13 15  1  0  0  0
 10 11  1  0  0  0
  3  5  1  0  0  0
 15 17  1  0  0  0
 16 18  1  0  0  0
M  END
> <minimizedAffinity>
-6.84713

$$$$
3RBU_G88_A_1800


 18 17  0  0  0  0  0  0  0  0999 V2000
  -31.0650   20.1529   35.7536 C   0  0  0  0  0  0  0  0  0  0  0  0
  -32.4129   19.8964   36.3542 C   0  0  0  0  0  0  0  0  0  0  0  0
  -33.4243   19.9473   35.5957 O   0  0  0  0  0  0  0  0  0  0  0  0
  -32.4905   19.6468   37.5931 O   0  0  0  0  0  0  0  0  0  0  0  0
  -33.3173   20.1357   34.6841 H   0  0  0  0  0  0  0  0  0  0  0  0
  -31.3241   20.7955   34.3730 C   0  0  0  0  0  0  0  0  0  0  0  0
  -30.5027   22.1152   34.2333 C   0  0  0  0  0  0  0  0  0  0  0  0
  -28.9903   23.2897   33.1378 O   0  0  0  0  0  0  0  0  0  0  0  0
  -29.8394   22.3606   33.0998 C   0  0  0  0  0  0  0  0  0  0  0  0
  -30.0599   21.6886   32.0414 O   0  0  0  0  0  0  0  0  0  0  0  0
  -30.6988   21.0032   32.0462 H   0  0  0  0  0  0  0  0  0  0  0  0
  -30.1336   18.8686   35.8813 C   0  0  0  0  0  0  0  0  0  0  0  0
  -30.2010   17.9607   34.2020 P   0  0  0  0  0  0  0  0  0  0  0  0
  -29.3729   16.6948   34.3554 O   0  0  0  0  0  0  0  0  0  0  0  0
  -31.5341   17.3199   33.8789 O   0  0  0  0  0  0  0  0  0  0  0  0
  -29.4204   18.7201   33.0898 O   0  0  0  0  0  0  0  0  0  0  0  0
  -32.2014   18.0112   33.7459 H   0  0  0  0  0  0  0  0  0  0  0  0
  -28.5928   19.0689   33.4563 H   0  0  0  0  0  0  0  0  0  0  0  0
  8  9  2  0  0  0
  9 10  1  0  0  0
  9  7  1  0  0  0
  7  6  1  0  0  0
  6  1  1  0  0  0
  1 12  1  0  0  0
  1  2  1  0  0  0
  2  3  1  0  0  0
  2  4  2  0  0  0
 12 13  1  0  0  0
 13 16  1  0  0  0
 13 14  2  0  0  0
 13 15  1  0  0  0
 10 11  1  0  0  0
  3  5  1  0  0  0
 15 17  1  0  0  0
 16 18  1  0  0  0
M  END
> <minimizedAffinity>
-6.73582

$$$$
3RBU_G88_A_1800


 18 17  0  0  0  0  0  0  0  0999 V2000
  -31.6959   20.0791   35.1722 C   0  0  0  0  0  0  0  0  0  0  0  0
  -31.0181   21.2113   34.4638 C   0  0  0  0  0  0  0  0  0  0  0  0
  -31.7209   22.2039   34.1149 O   0  0  0  0  0  0  0  0  0  0  0  0
  -29.7753   21.1304   34.2351 O   0  0  0  0  0  0  0  0  0  0  0  0
  -32.6380   22.2190   34.3061 H   0  0  0  0  0  0  0  0  0  0  0  0
  -32.7753   20.7194   36.0728 C   0  0  0  0  0  0  0  0  0  0  0  0
  -32.9752   19.8625   37.3620 C   0  0  0  0  0  0  0  0  0  0  0  0
  -34.8089   20.6268   38.3212 O   0  0  0  0  0  0  0  0  0  0  0  0
  -33.5739   20.4047   38.4262 C   0  0  0  0  0  0  0  0  0  0  0  0
  -32.9246   20.6809   39.4857 O   0  0  0  0  0  0  0  0  0  0  0  0
  -32.0058   20.5032   39.5318 H   0  0  0  0  0  0  0  0  0  0  0  0
  -30.6264   19.0742   35.7884 C   0  0  0  0  0  0  0  0  0  0  0  0
  -30.2985   17.7307   34.4707 P   0  0  0  0  0  0  0  0  0  0  0  0
  -29.5610   16.6010   35.1717 O   0  0  0  0  0  0  0  0  0  0  0  0
  -31.5248   16.9598   34.0301 O   0  0  0  0  0  0  0  0  0  0  0  0
  -29.2524   18.1865   33.4121 O   0  0  0  0  0  0  0  0  0  0  0  0
  -32.1239   17.5523   33.5497 H   0  0  0  0  0  0  0  0  0  0  0  0
  -28.5329   18.6645   33.8534 H   0  0  0  0  0  0  0  0  0  0  0  0
  8  9  2  0  0  0
  9 10  1  0  0  0
  9  7  1  0  0  0
  7  6  1  0  0  0
  6  1  1  0  0  0
  1 12  1  0  0  0
  1  2  1  0  0  0
  2  3  1  0  0  0
  2  4  2  0  0  0
 12 13  1  0  0  0
 13 16  1  0  0  0
 13 14  2  0  0  0
 13 15  1  0  0  0
 10 11  1  0  0  0
  3  5  1  0  0  0
 15 17  1  0  0  0
 16 18  1  0  0  0
M  END
> <minimizedAffinity>
-6.68741

$$$$
