5Y13_8K0_A_201


 24 25  0  0  0  0  0  0  0  0999 V2000
   -4.2632    9.7728  -18.1994 S   0  0  0  0  0  0  0  0  0  0  0  0
   -3.9812   10.7798  -19.3210 O   0  0  0  0  0  0  0  0  0  0  0  0
   -3.6338   10.1885  -16.9284 O   0  0  0  0  0  0  0  0  0  0  0  0
   -3.6282    8.1343  -18.6220 C   0  0  0  0  0  0  0  0  0  0  0  0
   -3.9152    7.4376  -19.8732 C   0  0  0  0  0  0  0  0  0  0  0  0
   -4.7141    8.0246  -20.8418 C   0  0  0  0  0  0  0  0  0  0  0  0
   -4.9766    7.3376  -22.0498 C   0  0  0  0  0  0  0  0  0  0  0  0
   -4.4311    6.0531  -22.2623 C   0  0  0  0  0  0  0  0  0  0  0  0
   -3.6523    5.4750  -21.3055 C   0  0  0  0  0  0  0  0  0  0  0  0
   -3.3669    6.1626  -20.0847 C   0  0  0  0  0  0  0  0  0  0  0  0
   -2.5611    5.5783  -19.0744 C   0  0  0  0  0  0  0  0  0  0  0  0
   -1.7100    3.7982  -19.1236 Br  0  0  0  0  0  0  0  0  0  0  0  0
   -2.3042    6.2816  -17.8692 C   0  0  0  0  0  0  0  0  0  0  0  0
   -2.8405    7.5485  -17.6653 C   0  0  0  0  0  0  0  0  0  0  0  0
   -5.8761    9.7610  -18.0146 N   0  0  0  0  0  0  0  0  0  0  0  0
   -6.3082    9.7402  -18.9383 H   0  0  0  0  0  0  0  0  0  0  0  0
   -6.3552    8.6234  -17.2566 C   0  0  0  0  0  0  0  0  0  0  0  0
   -7.1769    7.5968  -18.0040 C   0  0  0  0  0  0  0  0  0  0  0  0
   -8.3752    8.1697  -18.7700 C   0  0  0  0  0  0  0  0  0  0  0  0
   -8.2404    8.2390  -20.2205 C   0  0  0  0  0  0  0  0  0  0  0  0
   -7.2836   10.4253  -20.5159 O   0  0  0  0  0  0  0  0  0  0  0  0
   -8.2670    9.6199  -20.7867 C   0  0  0  0  0  0  0  0  0  0  0  0
   -9.2424    9.9877  -21.5482 O   0  0  0  0  0  0  0  0  0  0  0  0
   -9.9429    9.3932  -21.7323 H   0  0  0  0  0  0  0  0  0  0  0  0
  8  7  1  0  0  0
  8  9  2  0  0  0
  7  6  2  0  0  0
  9 10  1  0  0  0
  6  5  1  0  0  0
 10  5  1  0  0  0
 10 11  2  0  0  0
  5  4  2  0  0  0
  2  1  2  0  0  0
 11 12  1  0  0  0
 11 13  1  0  0  0
  4  1  1  0  0  0
  4 14  1  0  0  0
  1 15  1  0  0  0
  1  3  2  0  0  0
 15 17  1  0  0  0
 17 18  1  0  0  0
 13 14  2  0  0  0
 18 19  1  0  0  0
 19 20  1  0  0  0
 20 22  1  0  0  0
 22 21  2  0  0  0
 22 23  1  0  0  0
 23 24  1  0  0  0
 15 16  1  0  0  0
M  END
> <minimizedAffinity>
-7.65643

$$$$
5Y13_8K0_A_201


 24 25  0  0  0  0  0  0  0  0999 V2000
   -4.4722    6.2206  -16.0238 S   0  0  0  0  0  0  0  0  0  0  0  0
   -3.0710    6.0859  -15.4156 O   0  0  0  0  0  0  0  0  0  0  0  0
   -5.3155    5.0496  -15.7040 O   0  0  0  0  0  0  0  0  0  0  0  0
   -4.3886    6.3679  -17.8232 C   0  0  0  0  0  0  0  0  0  0  0  0
   -5.4788    6.8620  -18.6604 C   0  0  0  0  0  0  0  0  0  0  0  0
   -6.6771    7.2669  -18.0938 C   0  0  0  0  0  0  0  0  0  0  0  0
   -7.7197    7.7481  -18.9194 C   0  0  0  0  0  0  0  0  0  0  0  0
   -7.5399    7.8072  -20.3184 C   0  0  0  0  0  0  0  0  0  0  0  0
   -6.3637    7.4015  -20.8736 C   0  0  0  0  0  0  0  0  0  0  0  0
   -5.2955    6.9252  -20.0508 C   0  0  0  0  0  0  0  0  0  0  0  0
   -4.0643    6.4954  -20.6080 C   0  0  0  0  0  0  0  0  0  0  0  0
   -3.5816    6.4587  -22.5215 Br  0  0  0  0  0  0  0  0  0  0  0  0
   -3.0267    6.0182  -19.7661 C   0  0  0  0  0  0  0  0  0  0  0  0
   -3.2064    5.9651  -18.3880 C   0  0  0  0  0  0  0  0  0  0  0  0
   -5.1212    7.5443  -15.3438 N   0  0  0  0  0  0  0  0  0  0  0  0
   -5.4841    7.2917  -14.4246 H   0  0  0  0  0  0  0  0  0  0  0  0
   -4.1722    8.6266  -15.1827 C   0  0  0  0  0  0  0  0  0  0  0  0
   -4.3077    9.8046  -16.1217 C   0  0  0  0  0  0  0  0  0  0  0  0
   -3.3088    9.8147  -17.2850 C   0  0  0  0  0  0  0  0  0  0  0  0
   -3.8622   10.0779  -18.6084 C   0  0  0  0  0  0  0  0  0  0  0  0
   -5.2061   11.9595  -19.2689 O   0  0  0  0  0  0  0  0  0  0  0  0
   -4.0261   11.5234  -18.9425 C   0  0  0  0  0  0  0  0  0  0  0  0
   -3.0117   12.3198  -18.8825 O   0  0  0  0  0  0  0  0  0  0  0  0
   -2.1684   11.9873  -18.6453 H   0  0  0  0  0  0  0  0  0  0  0  0
  8  7  1  0  0  0
  8  9  2  0  0  0
  7  6  2  0  0  0
  9 10  1  0  0  0
  6  5  1  0  0  0
 10  5  1  0  0  0
 10 11  2  0  0  0
  5  4  2  0  0  0
  2  1  2  0  0  0
 11 12  1  0  0  0
 11 13  1  0  0  0
  4  1  1  0  0  0
  4 14  1  0  0  0
  1 15  1  0  0  0
  1  3  2  0  0  0
 15 17  1  0  0  0
 17 18  1  0  0  0
 13 14  2  0  0  0
 18 19  1  0  0  0
 19 20  1  0  0  0
 20 22  1  0  0  0
 22 21  2  0  0  0
 22 23  1  0  0  0
 23 24  1  0  0  0
 15 16  1  0  0  0
M  END
> <minimizedAffinity>
-7.52775

$$$$
5Y13_8K0_A_201


 24 25  0  0  0  0  0  0  0  0999 V2000
   -5.7992    8.6238  -21.3966 S   0  0  0  0  0  0  0  0  0  0  0  0
   -6.2461    8.1519  -22.7855 O   0  0  0  0  0  0  0  0  0  0  0  0
   -5.1076    9.9283  -21.4652 O   0  0  0  0  0  0  0  0  0  0  0  0
   -4.6669    7.4359  -20.6394 C   0  0  0  0  0  0  0  0  0  0  0  0
   -4.1294    7.5578  -19.2867 C   0  0  0  0  0  0  0  0  0  0  0  0
   -4.4811    8.6289  -18.4804 C   0  0  0  0  0  0  0  0  0  0  0  0
   -3.9555    8.7275  -17.1712 C   0  0  0  0  0  0  0  0  0  0  0  0
   -3.0681    7.7396  -16.6923 C   0  0  0  0  0  0  0  0  0  0  0  0
   -2.7180    6.6917  -17.4895 C   0  0  0  0  0  0  0  0  0  0  0  0
   -3.2517    6.5711  -18.8107 C   0  0  0  0  0  0  0  0  0  0  0  0
   -2.8985    5.4902  -19.6582 C   0  0  0  0  0  0  0  0  0  0  0  0
   -1.6681    4.0070  -19.2316 Br  0  0  0  0  0  0  0  0  0  0  0  0
   -3.4368    5.4035  -20.9681 C   0  0  0  0  0  0  0  0  0  0  0  0
   -4.3136    6.3769  -21.4347 C   0  0  0  0  0  0  0  0  0  0  0  0
   -7.1615    8.7898  -20.5293 N   0  0  0  0  0  0  0  0  0  0  0  0
   -7.8589    9.2585  -21.1075 H   0  0  0  0  0  0  0  0  0  0  0  0
   -7.7096    7.5264  -20.0803 C   0  0  0  0  0  0  0  0  0  0  0  0
   -8.1202    7.4332  -18.6276 C   0  0  0  0  0  0  0  0  0  0  0  0
   -7.2302    6.5286  -17.7671 C   0  0  0  0  0  0  0  0  0  0  0  0
   -7.3545    6.6867  -16.3226 C   0  0  0  0  0  0  0  0  0  0  0  0
   -6.1705    6.3118  -14.2634 O   0  0  0  0  0  0  0  0  0  0  0  0
   -6.2825    6.0212  -15.5252 C   0  0  0  0  0  0  0  0  0  0  0  0
   -5.5023    5.1579  -16.0844 O   0  0  0  0  0  0  0  0  0  0  0  0
   -5.5979    4.9611  -16.9955 H   0  0  0  0  0  0  0  0  0  0  0  0
  8  7  1  0  0  0
  8  9  2  0  0  0
  7  6  2  0  0  0
  9 10  1  0  0  0
  6  5  1  0  0  0
 10  5  1  0  0  0
 10 11  2  0  0  0
  5  4  2  0  0  0
  2  1  2  0  0  0
 11 12  1  0  0  0
 11 13  1  0  0  0
  4  1  1  0  0  0
  4 14  1  0  0  0
  1 15  1  0  0  0
  1  3  2  0  0  0
 15 17  1  0  0  0
 17 18  1  0  0  0
 13 14  2  0  0  0
 18 19  1  0  0  0
 19 20  1  0  0  0
 20 22  1  0  0  0
 22 21  2  0  0  0
 22 23  1  0  0  0
 23 24  1  0  0  0
 15 16  1  0  0  0
M  END
> <minimizedAffinity>
-7.46734

$$$$
5Y13_8K0_A_201


 24 25  0  0  0  0  0  0  0  0999 V2000
   -2.9724    6.1495  -17.4511 S   0  0  0  0  0  0  0  0  0  0  0  0
   -1.5926    5.6089  -17.8457 O   0  0  0  0  0  0  0  0  0  0  0  0
   -3.7046    5.1912  -16.5966 O   0  0  0  0  0  0  0  0  0  0  0  0
   -3.9853    6.4748  -18.9121 C   0  0  0  0  0  0  0  0  0  0  0  0
   -5.3530    6.9857  -18.8685 C   0  0  0  0  0  0  0  0  0  0  0  0
   -5.9644    7.2660  -17.6566 C   0  0  0  0  0  0  0  0  0  0  0  0
   -7.2873    7.7656  -17.6339 C   0  0  0  0  0  0  0  0  0  0  0  0
   -7.9839    7.9699  -18.8446 C   0  0  0  0  0  0  0  0  0  0  0  0
   -7.3834    7.6865  -20.0343 C   0  0  0  0  0  0  0  0  0  0  0  0
   -6.0417    7.1935  -20.0741 C   0  0  0  0  0  0  0  0  0  0  0  0
   -5.3986    6.8894  -21.3010 C   0  0  0  0  0  0  0  0  0  0  0  0
   -6.1639    7.0654  -23.1119 Br  0  0  0  0  0  0  0  0  0  0  0  0
   -4.0699    6.3919  -21.3075 C   0  0  0  0  0  0  0  0  0  0  0  0
   -3.3858    6.1956  -20.1127 C   0  0  0  0  0  0  0  0  0  0  0  0
   -2.6877    7.5057  -16.6052 N   0  0  0  0  0  0  0  0  0  0  0  0
   -1.8820    7.3472  -16.0001 H   0  0  0  0  0  0  0  0  0  0  0  0
   -2.4146    8.6545  -17.4441 C   0  0  0  0  0  0  0  0  0  0  0  0
   -3.2380    9.8985  -17.1945 C   0  0  0  0  0  0  0  0  0  0  0  0
   -3.3897   10.8208  -18.4100 C   0  0  0  0  0  0  0  0  0  0  0  0
   -4.2679   10.3472  -19.4737 C   0  0  0  0  0  0  0  0  0  0  0  0
   -5.9169   11.8772  -18.6237 O   0  0  0  0  0  0  0  0  0  0  0  0
   -5.5667   11.0745  -19.5839 C   0  0  0  0  0  0  0  0  0  0  0  0
   -6.3084   10.9182  -20.6290 O   0  0  0  0  0  0  0  0  0  0  0  0
   -6.0396   10.3351  -21.3114 H   0  0  0  0  0  0  0  0  0  0  0  0
  8  7  1  0  0  0
  8  9  2  0  0  0
  7  6  2  0  0  0
  9 10  1  0  0  0
  6  5  1  0  0  0
 10  5  1  0  0  0
 10 11  2  0  0  0
  5  4  2  0  0  0
  2  1  2  0  0  0
 11 12  1  0  0  0
 11 13  1  0  0  0
  4  1  1  0  0  0
  4 14  1  0  0  0
  1 15  1  0  0  0
  1  3  2  0  0  0
 15 17  1  0  0  0
 17 18  1  0  0  0
 13 14  2  0  0  0
 18 19  1  0  0  0
 19 20  1  0  0  0
 20 22  1  0  0  0
 22 21  2  0  0  0
 22 23  1  0  0  0
 23 24  1  0  0  0
 15 16  1  0  0  0
M  END
> <minimizedAffinity>
-7.46482

$$$$
5Y13_8K0_A_201


 24 25  0  0  0  0  0  0  0  0999 V2000
   -3.8231    5.7002  -17.1336 S   0  0  0  0  0  0  0  0  0  0  0  0
   -3.0144    4.6358  -17.8850 O   0  0  0  0  0  0  0  0  0  0  0  0
   -4.6240    5.1023  -16.0447 O   0  0  0  0  0  0  0  0  0  0  0  0
   -4.9572    6.5612  -18.2467 C   0  0  0  0  0  0  0  0  0  0  0  0
   -4.7761    6.6583  -19.6929 C   0  0  0  0  0  0  0  0  0  0  0  0
   -3.6864    6.0645  -20.3101 C   0  0  0  0  0  0  0  0  0  0  0  0
   -3.5303    6.1639  -21.7122 C   0  0  0  0  0  0  0  0  0  0  0  0
   -4.4800    6.8742  -22.4779 C   0  0  0  0  0  0  0  0  0  0  0  0
   -5.5463    7.4635  -21.8679 C   0  0  0  0  0  0  0  0  0  0  0  0
   -5.7249    7.3604  -20.4529 C   0  0  0  0  0  0  0  0  0  0  0  0
   -6.8258    7.9684  -19.7973 C   0  0  0  0  0  0  0  0  0  0  0  0
   -8.2640    9.0272  -20.6376 Br  0  0  0  0  0  0  0  0  0  0  0  0
   -6.9702    7.8569  -18.3903 C   0  0  0  0  0  0  0  0  0  0  0  0
   -6.0344    7.1530  -17.6400 C   0  0  0  0  0  0  0  0  0  0  0  0
   -2.7280    6.7132  -16.4929 N   0  0  0  0  0  0  0  0  0  0  0  0
   -2.0295    6.1621  -15.9941 H   0  0  0  0  0  0  0  0  0  0  0  0
   -2.0522    7.5243  -17.4846 C   0  0  0  0  0  0  0  0  0  0  0  0
   -2.0181    9.0172  -17.2437 C   0  0  0  0  0  0  0  0  0  0  0  0
   -3.3700    9.7228  -17.4029 C   0  0  0  0  0  0  0  0  0  0  0  0
   -3.7728   10.0454  -18.7669 C   0  0  0  0  0  0  0  0  0  0  0  0
   -5.3474   11.8158  -19.1778 O   0  0  0  0  0  0  0  0  0  0  0  0
   -4.1041   11.4822  -18.9989 C   0  0  0  0  0  0  0  0  0  0  0  0
   -3.1670   12.3702  -18.9967 O   0  0  0  0  0  0  0  0  0  0  0  0
   -2.2762   12.1109  -18.8661 H   0  0  0  0  0  0  0  0  0  0  0  0
  8  7  1  0  0  0
  8  9  2  0  0  0
  7  6  2  0  0  0
  9 10  1  0  0  0
  6  5  1  0  0  0
 10  5  1  0  0  0
 10 11  2  0  0  0
  5  4  2  0  0  0
  2  1  2  0  0  0
 11 12  1  0  0  0
 11 13  1  0  0  0
  4  1  1  0  0  0
  4 14  1  0  0  0
  1 15  1  0  0  0
  1  3  2  0  0  0
 15 17  1  0  0  0
 17 18  1  0  0  0
 13 14  2  0  0  0
 18 19  1  0  0  0
 19 20  1  0  0  0
 20 22  1  0  0  0
 22 21  2  0  0  0
 22 23  1  0  0  0
 23 24  1  0  0  0
 15 16  1  0  0  0
M  END
> <minimizedAffinity>
-7.42604

$$$$
5Y13_8K0_A_201


 24 25  0  0  0  0  0  0  0  0999 V2000
   -3.2088    8.4562  -16.8376 S   0  0  0  0  0  0  0  0  0  0  0  0
   -2.0368    9.4349  -16.9798 O   0  0  0  0  0  0  0  0  0  0  0  0
   -2.8757    7.3425  -15.9247 O   0  0  0  0  0  0  0  0  0  0  0  0
   -3.6599    7.7453  -18.4368 C   0  0  0  0  0  0  0  0  0  0  0  0
   -3.1049    6.5048  -18.9724 C   0  0  0  0  0  0  0  0  0  0  0  0
   -2.1735    5.7770  -18.2487 C   0  0  0  0  0  0  0  0  0  0  0  0
   -1.6513    4.5751  -18.7806 C   0  0  0  0  0  0  0  0  0  0  0  0
   -2.0738    4.1243  -20.0498 C   0  0  0  0  0  0  0  0  0  0  0  0
   -2.9839    4.8456  -20.7625 C   0  0  0  0  0  0  0  0  0  0  0  0
   -3.5310    6.0557  -20.2324 C   0  0  0  0  0  0  0  0  0  0  0  0
   -4.4771    6.8232  -20.9584 C   0  0  0  0  0  0  0  0  0  0  0  0
   -5.2019    6.4196  -22.7493 Br  0  0  0  0  0  0  0  0  0  0  0  0
   -4.9943    8.0252  -20.4099 C   0  0  0  0  0  0  0  0  0  0  0  0
   -4.5781    8.4638  -19.1574 C   0  0  0  0  0  0  0  0  0  0  0  0
   -4.4273    9.3192  -16.2003 N   0  0  0  0  0  0  0  0  0  0  0  0
   -5.3066    8.9672  -16.5789 H   0  0  0  0  0  0  0  0  0  0  0  0
   -4.4852    9.2433  -14.7549 C   0  0  0  0  0  0  0  0  0  0  0  0
   -3.7653   10.3251  -13.9808 C   0  0  0  0  0  0  0  0  0  0  0  0
   -4.1087   11.7564  -14.4099 C   0  0  0  0  0  0  0  0  0  0  0  0
   -3.0131   12.5450  -14.9619 C   0  0  0  0  0  0  0  0  0  0  0  0
   -2.2672   13.6052  -16.9873 O   0  0  0  0  0  0  0  0  0  0  0  0
   -3.0584   12.7299  -16.4424 C   0  0  0  0  0  0  0  0  0  0  0  0
   -3.8563   12.0116  -17.1594 O   0  0  0  0  0  0  0  0  0  0  0  0
   -4.4196   11.3854  -16.7489 H   0  0  0  0  0  0  0  0  0  0  0  0
  8  7  1  0  0  0
  8  9  2  0  0  0
  7  6  2  0  0  0
  9 10  1  0  0  0
  6  5  1  0  0  0
 10  5  1  0  0  0
 10 11  2  0  0  0
  5  4  2  0  0  0
  2  1  2  0  0  0
 11 12  1  0  0  0
 11 13  1  0  0  0
  4  1  1  0  0  0
  4 14  1  0  0  0
  1 15  1  0  0  0
  1  3  2  0  0  0
 15 17  1  0  0  0
 17 18  1  0  0  0
 13 14  2  0  0  0
 18 19  1  0  0  0
 19 20  1  0  0  0
 20 22  1  0  0  0
 22 21  2  0  0  0
 22 23  1  0  0  0
 23 24  1  0  0  0
 15 16  1  0  0  0
M  END
> <minimizedAffinity>
-7.31111

$$$$
5Y13_8K0_A_201


 24 25  0  0  0  0  0  0  0  0999 V2000
   -5.6752    9.6918  -20.6430 S   0  0  0  0  0  0  0  0  0  0  0  0
   -4.5012    9.5893  -21.6241 O   0  0  0  0  0  0  0  0  0  0  0  0
   -6.3861   10.9801  -20.7831 O   0  0  0  0  0  0  0  0  0  0  0  0
   -5.1071    9.5559  -18.9327 C   0  0  0  0  0  0  0  0  0  0  0  0
   -4.2843    8.4620  -18.4230 C   0  0  0  0  0  0  0  0  0  0  0  0
   -3.8743    7.4365  -19.2605 C   0  0  0  0  0  0  0  0  0  0  0  0
   -3.0729    6.3885  -18.7509 C   0  0  0  0  0  0  0  0  0  0  0  0
   -2.6997    6.3855  -17.3895 C   0  0  0  0  0  0  0  0  0  0  0  0
   -3.1103    7.3907  -16.5665 C   0  0  0  0  0  0  0  0  0  0  0  0
   -3.9096    8.4642  -17.0701 C   0  0  0  0  0  0  0  0  0  0  0  0
   -4.3502    9.5189  -16.2305 C   0  0  0  0  0  0  0  0  0  0  0  0
   -3.9839    9.7261  -14.3021 Br  0  0  0  0  0  0  0  0  0  0  0  0
   -5.1509   10.5649  -16.7575 C   0  0  0  0  0  0  0  0  0  0  0  0
   -5.5133   10.5661  -18.1001 C   0  0  0  0  0  0  0  0  0  0  0  0
   -6.6844    8.4827  -21.0372 N   0  0  0  0  0  0  0  0  0  0  0  0
   -6.3940    7.6422  -20.5376 H   0  0  0  0  0  0  0  0  0  0  0  0
   -8.0663    8.7616  -20.7046 C   0  0  0  0  0  0  0  0  0  0  0  0
   -8.6258    8.0871  -19.4718 C   0  0  0  0  0  0  0  0  0  0  0  0
   -7.6924    7.0562  -18.8262 C   0  0  0  0  0  0  0  0  0  0  0  0
   -7.5109    7.1646  -17.3832 C   0  0  0  0  0  0  0  0  0  0  0  0
   -6.0235    5.2773  -17.2902 O   0  0  0  0  0  0  0  0  0  0  0  0
   -6.9935    5.9301  -16.7226 C   0  0  0  0  0  0  0  0  0  0  0  0
   -7.4928    5.5413  -15.5974 O   0  0  0  0  0  0  0  0  0  0  0  0
   -8.1919    6.0247  -15.2030 H   0  0  0  0  0  0  0  0  0  0  0  0
  8  7  1  0  0  0
  8  9  2  0  0  0
  7  6  2  0  0  0
  9 10  1  0  0  0
  6  5  1  0  0  0
 10  5  1  0  0  0
 10 11  2  0  0  0
  5  4  2  0  0  0
  2  1  2  0  0  0
 11 12  1  0  0  0
 11 13  1  0  0  0
  4  1  1  0  0  0
  4 14  1  0  0  0
  1 15  1  0  0  0
  1  3  2  0  0  0
 15 17  1  0  0  0
 17 18  1  0  0  0
 13 14  2  0  0  0
 18 19  1  0  0  0
 19 20  1  0  0  0
 20 22  1  0  0  0
 22 21  2  0  0  0
 22 23  1  0  0  0
 23 24  1  0  0  0
 15 16  1  0  0  0
M  END
> <minimizedAffinity>
-7.23371

$$$$
5Y13_8K0_A_201


 24 25  0  0  0  0  0  0  0  0999 V2000
   -6.9694    9.2937  -20.8456 S   0  0  0  0  0  0  0  0  0  0  0  0
   -6.7253   10.8032  -20.7300 O   0  0  0  0  0  0  0  0  0  0  0  0
   -8.3428    9.0017  -21.3074 O   0  0  0  0  0  0  0  0  0  0  0  0
   -6.7347    8.4732  -19.2525 C   0  0  0  0  0  0  0  0  0  0  0  0
   -5.5324    8.5966  -18.4321 C   0  0  0  0  0  0  0  0  0  0  0  0
   -4.4722    9.3873  -18.8466 C   0  0  0  0  0  0  0  0  0  0  0  0
   -3.3184    9.4996  -18.0365 C   0  0  0  0  0  0  0  0  0  0  0  0
   -3.2464    8.8001  -16.8124 C   0  0  0  0  0  0  0  0  0  0  0  0
   -4.2869    8.0175  -16.4108 C   0  0  0  0  0  0  0  0  0  0  0  0
   -5.4656    7.9045  -17.2126 C   0  0  0  0  0  0  0  0  0  0  0  0
   -6.5589    7.0934  -16.8149 C   0  0  0  0  0  0  0  0  0  0  0  0
   -6.6886    6.0068  -15.1723 Br  0  0  0  0  0  0  0  0  0  0  0  0
   -7.7109    6.9936  -17.6371 C   0  0  0  0  0  0  0  0  0  0  0  0
   -7.7794    7.6873  -18.8405 C   0  0  0  0  0  0  0  0  0  0  0  0
   -5.9113    8.7610  -21.9557 N   0  0  0  0  0  0  0  0  0  0  0  0
   -4.9697    9.0071  -21.6504 H   0  0  0  0  0  0  0  0  0  0  0  0
   -5.9698    7.3280  -22.1583 C   0  0  0  0  0  0  0  0  0  0  0  0
   -4.6559    6.5786  -22.1489 C   0  0  0  0  0  0  0  0  0  0  0  0
   -4.0531    6.3599  -20.7561 C   0  0  0  0  0  0  0  0  0  0  0  0
   -3.0201    5.3356  -20.6538 C   0  0  0  0  0  0  0  0  0  0  0  0
   -3.6648    4.8799  -18.3824 O   0  0  0  0  0  0  0  0  0  0  0  0
   -3.1646    4.4147  -19.4880 C   0  0  0  0  0  0  0  0  0  0  0  0
   -2.8169    3.1760  -19.5956 O   0  0  0  0  0  0  0  0  0  0  0  0
   -2.4580    2.8584  -20.4007 H   0  0  0  0  0  0  0  0  0  0  0  0
  8  7  1  0  0  0
  8  9  2  0  0  0
  7  6  2  0  0  0
  9 10  1  0  0  0
  6  5  1  0  0  0
 10  5  1  0  0  0
 10 11  2  0  0  0
  5  4  2  0  0  0
  2  1  2  0  0  0
 11 12  1  0  0  0
 11 13  1  0  0  0
  4  1  1  0  0  0
  4 14  1  0  0  0
  1 15  1  0  0  0
  1  3  2  0  0  0
 15 17  1  0  0  0
 17 18  1  0  0  0
 13 14  2  0  0  0
 18 19  1  0  0  0
 19 20  1  0  0  0
 20 22  1  0  0  0
 22 21  2  0  0  0
 22 23  1  0  0  0
 23 24  1  0  0  0
 15 16  1  0  0  0
M  END
> <minimizedAffinity>
-7.21989

$$$$
5Y13_8K0_A_201


 24 25  0  0  0  0  0  0  0  0999 V2000
   -3.4869    6.5601  -16.2162 S   0  0  0  0  0  0  0  0  0  0  0  0
   -2.0548    6.4589  -16.7552 O   0  0  0  0  0  0  0  0  0  0  0  0
   -4.0605    5.2241  -15.9505 O   0  0  0  0  0  0  0  0  0  0  0  0
   -4.5674    7.4022  -17.3951 C   0  0  0  0  0  0  0  0  0  0  0  0
   -4.2996    8.7226  -17.9595 C   0  0  0  0  0  0  0  0  0  0  0  0
   -3.1537    9.4205  -17.6121 C   0  0  0  0  0  0  0  0  0  0  0  0
   -2.9080   10.6953  -18.1730 C   0  0  0  0  0  0  0  0  0  0  0  0
   -3.8341   11.2567  -19.0786 C   0  0  0  0  0  0  0  0  0  0  0  0
   -4.9635   10.5718  -19.4128 C   0  0  0  0  0  0  0  0  0  0  0  0
   -5.2192    9.2762  -18.8643 C   0  0  0  0  0  0  0  0  0  0  0  0
   -6.3897    8.5474  -19.1963 C   0  0  0  0  0  0  0  0  0  0  0  0
   -7.8359    9.1228  -20.4100 Br  0  0  0  0  0  0  0  0  0  0  0  0
   -6.6203    7.2681  -18.6276 C   0  0  0  0  0  0  0  0  0  0  0  0
   -5.7037    6.7170  -17.7388 C   0  0  0  0  0  0  0  0  0  0  0  0
   -3.3735    7.3772  -14.8179 N   0  0  0  0  0  0  0  0  0  0  0  0
   -2.5913    8.0283  -14.8854 H   0  0  0  0  0  0  0  0  0  0  0  0
   -4.5704    8.1271  -14.4965 C   0  0  0  0  0  0  0  0  0  0  0  0
   -4.4008    9.3506  -13.6237 C   0  0  0  0  0  0  0  0  0  0  0  0
   -3.4149   10.3924  -14.1655 C   0  0  0  0  0  0  0  0  0  0  0  0
   -3.9758   11.6940  -14.5094 C   0  0  0  0  0  0  0  0  0  0  0  0
   -3.3137   13.3804  -16.0906 O   0  0  0  0  0  0  0  0  0  0  0  0
   -2.9904   12.6787  -15.0455 C   0  0  0  0  0  0  0  0  0  0  0  0
   -1.8510   12.8374  -14.4597 O   0  0  0  0  0  0  0  0  0  0  0  0
   -1.6353   12.3224  -13.7072 H   0  0  0  0  0  0  0  0  0  0  0  0
  8  7  1  0  0  0
  8  9  2  0  0  0
  7  6  2  0  0  0
  9 10  1  0  0  0
  6  5  1  0  0  0
 10  5  1  0  0  0
 10 11  2  0  0  0
  5  4  2  0  0  0
  2  1  2  0  0  0
 11 12  1  0  0  0
 11 13  1  0  0  0
  4  1  1  0  0  0
  4 14  1  0  0  0
  1 15  1  0  0  0
  1  3  2  0  0  0
 15 17  1  0  0  0
 17 18  1  0  0  0
 13 14  2  0  0  0
 18 19  1  0  0  0
 19 20  1  0  0  0
 20 22  1  0  0  0
 22 21  2  0  0  0
 22 23  1  0  0  0
 23 24  1  0  0  0
 15 16  1  0  0  0
M  END
> <minimizedAffinity>
-7.12801

$$$$
5Y13_8K0_A_201


 24 25  0  0  0  0  0  0  0  0999 V2000
   -2.9840    8.4767  -16.8836 S   0  0  0  0  0  0  0  0  0  0  0  0
   -3.8062    9.7286  -16.5543 O   0  0  0  0  0  0  0  0  0  0  0  0
   -1.5427    8.7877  -16.9861 O   0  0  0  0  0  0  0  0  0  0  0  0
   -3.5068    7.7500  -18.4537 C   0  0  0  0  0  0  0  0  0  0  0  0
   -2.9913    6.4937  -18.9915 C   0  0  0  0  0  0  0  0  0  0  0  0
   -2.0436    5.7620  -18.2933 C   0  0  0  0  0  0  0  0  0  0  0  0
   -1.5600    4.5448  -18.8267 C   0  0  0  0  0  0  0  0  0  0  0  0
   -2.0377    4.0825  -20.0720 C   0  0  0  0  0  0  0  0  0  0  0  0
   -2.9638    4.8073  -20.7601 C   0  0  0  0  0  0  0  0  0  0  0  0
   -3.4721    6.0332  -20.2275 C   0  0  0  0  0  0  0  0  0  0  0  0
   -4.4340    6.8046  -20.9281 C   0  0  0  0  0  0  0  0  0  0  0  0
   -5.2330    6.3866  -22.6838 Br  0  0  0  0  0  0  0  0  0  0  0  0
   -4.9118    8.0222  -20.3782 C   0  0  0  0  0  0  0  0  0  0  0  0
   -4.4414    8.4722  -19.1492 C   0  0  0  0  0  0  0  0  0  0  0  0
   -3.2204    7.4566  -15.6430 N   0  0  0  0  0  0  0  0  0  0  0  0
   -3.2472    7.9979  -14.7788 H   0  0  0  0  0  0  0  0  0  0  0  0
   -4.4518    6.7017  -15.7517 C   0  0  0  0  0  0  0  0  0  0  0  0
   -5.6042    7.1369  -14.8740 C   0  0  0  0  0  0  0  0  0  0  0  0
   -6.9946    6.8462  -15.4514 C   0  0  0  0  0  0  0  0  0  0  0  0
   -7.8304    8.0067  -15.7365 C   0  0  0  0  0  0  0  0  0  0  0  0
   -7.8330    8.3000  -18.1233 O   0  0  0  0  0  0  0  0  0  0  0  0
   -7.4551    8.7613  -16.9685 C   0  0  0  0  0  0  0  0  0  0  0  0
   -6.7873    9.8621  -16.8741 O   0  0  0  0  0  0  0  0  0  0  0  0
   -6.5233   10.1793  -16.0329 H   0  0  0  0  0  0  0  0  0  0  0  0
  8  7  1  0  0  0
  8  9  2  0  0  0
  7  6  2  0  0  0
  9 10  1  0  0  0
  6  5  1  0  0  0
 10  5  1  0  0  0
 10 11  2  0  0  0
  5  4  2  0  0  0
  2  1  2  0  0  0
 11 12  1  0  0  0
 11 13  1  0  0  0
  4  1  1  0  0  0
  4 14  1  0  0  0
  1 15  1  0  0  0
  1  3  2  0  0  0
 15 17  1  0  0  0
 17 18  1  0  0  0
 13 14  2  0  0  0
 18 19  1  0  0  0
 19 20  1  0  0  0
 20 22  1  0  0  0
 22 21  2  0  0  0
 22 23  1  0  0  0
 23 24  1  0  0  0
 15 16  1  0  0  0
M  END
> <minimizedAffinity>
-7.10756

$$$$
