3AO2_AVX_A_1


 19 21  0  0  0  0  0  0  0  0999 V2000
    7.6168  -23.1987   -7.2081 C   0  0  0  0  0  0  0  0  0  0  0  0
    8.8911  -22.6599   -6.8713 C   0  0  0  0  0  0  0  0  0  0  0  0
   10.0714  -23.0398   -7.5102 C   0  0  0  0  0  0  0  0  0  0  0  0
   10.0775  -23.9858   -8.4994 C   0  0  0  0  0  0  0  0  0  0  0  0
    8.8096  -24.5928   -8.8911 C   0  0  0  0  0  0  0  0  0  0  0  0
    7.5957  -24.1715   -8.2258 C   0  0  0  0  0  0  0  0  0  0  0  0
    6.6147  -24.9115   -8.8161 O   0  0  0  0  0  0  0  0  0  0  0  0
    7.1207  -25.6791   -9.9281 C   0  0  0  0  0  0  0  0  0  0  0  0
    8.5461  -25.5351   -9.8459 O   0  0  0  0  0  0  0  0  0  0  0  0
   11.6113  -24.5330   -9.3862 Br  0  0  0  0  0  0  0  0  0  0  0  0
    9.1264  -21.5796   -5.8727 C   0  0  0  0  0  0  0  0  0  0  0  0
   10.2695  -20.8145   -5.9792 N   0  0  0  0  0  0  0  0  0  0  0  0
   10.2263  -19.8815   -4.9412 N   0  0  0  0  0  0  0  0  0  0  0  0
    9.0965  -20.1012   -4.2710 C   0  0  0  0  0  0  0  0  0  0  0  0
    8.3385  -21.1477   -4.7931 C   0  0  0  0  0  0  0  0  0  0  0  0
   11.3735  -18.9279   -4.8389 C   0  0  0  0  0  0  0  0  0  0  0  0
    8.7405  -19.3586   -3.1857 N   0  0  0  0  0  0  0  0  0  0  0  0
    9.3269  -18.6327   -2.8721 H   0  0  0  0  0  0  0  0  0  0  0  0
    7.8968  -19.5480   -2.7150 H   0  0  0  0  0  0  0  0  0  0  0  0
  1  2  2  0  0  0
  1  6  1  0  0  0
  2  3  1  0  0  0
  2 11  1  0  0  0
  3  4  2  0  0  0
  4  5  1  0  0  0
  4 10  1  0  0  0
  5  6  2  0  0  0
  5  9  1  0  0  0
  6  7  1  0  0  0
  7  8  1  0  0  0
  8  9  1  0  0  0
 11 12  2  0  0  0
 11 15  1  0  0  0
 12 13  1  0  0  0
 13 14  1  0  0  0
 13 16  1  0  0  0
 14 15  2  0  0  0
 14 17  1  0  0  0
 17 18  1  0  0  0
 17 19  1  0  0  0
M  END
> <minimizedAffinity>
-7.64092

$$$$
3AO2_AVX_A_1


 19 21  0  0  0  0  0  0  0  0999 V2000
    8.3571  -22.4483   -6.0281 C   0  0  0  0  0  0  0  0  0  0  0  0
    9.5076  -22.4342   -6.8669 C   0  0  0  0  0  0  0  0  0  0  0  0
   10.5396  -21.5061   -6.7281 C   0  0  0  0  0  0  0  0  0  0  0  0
   10.4956  -20.5234   -5.7764 C   0  0  0  0  0  0  0  0  0  0  0  0
    9.3405  -20.4664   -4.8864 C   0  0  0  0  0  0  0  0  0  0  0  0
    8.2896  -21.4494   -5.0382 C   0  0  0  0  0  0  0  0  0  0  0  0
    7.3836  -21.1245   -4.0727 O   0  0  0  0  0  0  0  0  0  0  0  0
    7.8718  -20.0725   -3.2146 C   0  0  0  0  0  0  0  0  0  0  0  0
    9.0656  -19.6063   -3.8599 O   0  0  0  0  0  0  0  0  0  0  0  0
   11.8342  -19.2619   -5.5415 Br  0  0  0  0  0  0  0  0  0  0  0  0
    9.8043  -23.4357   -7.9292 C   0  0  0  0  0  0  0  0  0  0  0  0
   11.0978  -23.8956   -8.0655 N   0  0  0  0  0  0  0  0  0  0  0  0
   11.0863  -24.8232   -9.1092 N   0  0  0  0  0  0  0  0  0  0  0  0
    9.8309  -24.8954   -9.5481 C   0  0  0  0  0  0  0  0  0  0  0  0
    8.9547  -24.0605   -8.8570 C   0  0  0  0  0  0  0  0  0  0  0  0
   12.3899  -25.4674   -9.4577 C   0  0  0  0  0  0  0  0  0  0  0  0
    9.4665  -25.7156  -10.5731 N   0  0  0  0  0  0  0  0  0  0  0  0
   10.1412  -26.2792  -11.0162 H   0  0  0  0  0  0  0  0  0  0  0  0
    8.5285  -25.7446  -10.8707 H   0  0  0  0  0  0  0  0  0  0  0  0
  1  2  2  0  0  0
  1  6  1  0  0  0
  2  3  1  0  0  0
  2 11  1  0  0  0
  3  4  2  0  0  0
  4  5  1  0  0  0
  4 10  1  0  0  0
  5  6  2  0  0  0
  5  9  1  0  0  0
  6  7  1  0  0  0
  7  8  1  0  0  0
  8  9  1  0  0  0
 11 12  2  0  0  0
 11 15  1  0  0  0
 12 13  1  0  0  0
 13 14  1  0  0  0
 13 16  1  0  0  0
 14 15  2  0  0  0
 14 17  1  0  0  0
 17 18  1  0  0  0
 17 19  1  0  0  0
M  END
> <minimizedAffinity>
-7.63384

$$$$
3AO2_AVX_A_1


 19 21  0  0  0  0  0  0  0  0999 V2000
   10.5763  -21.7797   -7.2004 C   0  0  0  0  0  0  0  0  0  0  0  0
    9.3184  -22.4185   -7.0077 C   0  0  0  0  0  0  0  0  0  0  0  0
    8.4313  -22.0621   -5.9919 C   0  0  0  0  0  0  0  0  0  0  0  0
    8.7328  -21.0766   -5.0912 C   0  0  0  0  0  0  0  0  0  0  0  0
   10.0111  -20.3842   -5.2176 C   0  0  0  0  0  0  0  0  0  0  0  0
   10.9086  -20.7595   -6.2888 C   0  0  0  0  0  0  0  0  0  0  0  0
   11.9843  -19.9373   -6.1295 O   0  0  0  0  0  0  0  0  0  0  0  0
   11.7567  -18.9536   -5.0989 C   0  0  0  0  0  0  0  0  0  0  0  0
   10.5371  -19.3694   -4.4675 O   0  0  0  0  0  0  0  0  0  0  0  0
    7.5972  -20.5571   -3.7204 Br  0  0  0  0  0  0  0  0  0  0  0  0
    8.7497  -23.4729   -7.8932 C   0  0  0  0  0  0  0  0  0  0  0  0
    9.5663  -24.0566   -8.8396 N   0  0  0  0  0  0  0  0  0  0  0  0
    8.7916  -25.0079   -9.5066 N   0  0  0  0  0  0  0  0  0  0  0  0
    7.5792  -24.9735   -8.9564 C   0  0  0  0  0  0  0  0  0  0  0  0
    7.4653  -24.0405   -7.9273 C   0  0  0  0  0  0  0  0  0  0  0  0
    9.4598  -25.7819  -10.5977 C   0  0  0  0  0  0  0  0  0  0  0  0
    6.5682  -25.7840   -9.3770 N   0  0  0  0  0  0  0  0  0  0  0  0
    6.7213  -26.4211  -10.1118 H   0  0  0  0  0  0  0  0  0  0  0  0
    5.6845  -25.7327   -8.9461 H   0  0  0  0  0  0  0  0  0  0  0  0
  1  2  2  0  0  0
  1  6  1  0  0  0
  2  3  1  0  0  0
  2 11  1  0  0  0
  3  4  2  0  0  0
  4  5  1  0  0  0
  4 10  1  0  0  0
  5  6  2  0  0  0
  5  9  1  0  0  0
  6  7  1  0  0  0
  7  8  1  0  0  0
  8  9  1  0  0  0
 11 12  2  0  0  0
 11 15  1  0  0  0
 12 13  1  0  0  0
 13 14  1  0  0  0
 13 16  1  0  0  0
 14 15  2  0  0  0
 14 17  1  0  0  0
 17 18  1  0  0  0
 17 19  1  0  0  0
M  END
> <minimizedAffinity>
-7.40060

$$$$
3AO2_AVX_A_1


 19 21  0  0  0  0  0  0  0  0999 V2000
   11.2248  -22.9294   -8.1396 C   0  0  0  0  0  0  0  0  0  0  0  0
   10.1327  -22.3436   -7.4384 C   0  0  0  0  0  0  0  0  0  0  0  0
    8.8131  -22.7686   -7.5927 C   0  0  0  0  0  0  0  0  0  0  0  0
    8.4817  -23.7752   -8.4591 C   0  0  0  0  0  0  0  0  0  0  0  0
    9.5471  -24.4162   -9.2229 C   0  0  0  0  0  0  0  0  0  0  0  0
   10.9107  -23.9699   -9.0346 C   0  0  0  0  0  0  0  0  0  0  0  0
   11.6411  -24.7584   -9.8732 O   0  0  0  0  0  0  0  0  0  0  0  0
   10.8313  -25.7868  -10.4799 C   0  0  0  0  0  0  0  0  0  0  0  0
    9.4843  -25.4384  -10.1285 O   0  0  0  0  0  0  0  0  0  0  0  0
    6.7484  -24.3849   -8.7085 Br  0  0  0  0  0  0  0  0  0  0  0  0
   10.2528  -21.2784   -6.4039 C   0  0  0  0  0  0  0  0  0  0  0  0
    9.2333  -21.1254   -5.4871 N   0  0  0  0  0  0  0  0  0  0  0  0
    9.6100  -20.0827   -4.6380 N   0  0  0  0  0  0  0  0  0  0  0  0
   10.8039  -19.6607   -5.0506 C   0  0  0  0  0  0  0  0  0  0  0  0
   11.2879  -20.3626   -6.1531 C   0  0  0  0  0  0  0  0  0  0  0  0
    8.6539  -19.7174   -3.5479 C   0  0  0  0  0  0  0  0  0  0  0  0
   11.4658  -18.6414   -4.4350 N   0  0  0  0  0  0  0  0  0  0  0  0
   11.0619  -18.1899   -3.6590 H   0  0  0  0  0  0  0  0  0  0  0  0
   12.3480  -18.3563   -4.7662 H   0  0  0  0  0  0  0  0  0  0  0  0
  1  2  2  0  0  0
  1  6  1  0  0  0
  2  3  1  0  0  0
  2 11  1  0  0  0
  3  4  2  0  0  0
  4  5  1  0  0  0
  4 10  1  0  0  0
  5  6  2  0  0  0
  5  9  1  0  0  0
  6  7  1  0  0  0
  7  8  1  0  0  0
  8  9  1  0  0  0
 11 12  2  0  0  0
 11 15  1  0  0  0
 12 13  1  0  0  0
 13 14  1  0  0  0
 13 16  1  0  0  0
 14 15  2  0  0  0
 14 17  1  0  0  0
 17 18  1  0  0  0
 17 19  1  0  0  0
M  END
> <minimizedAffinity>
-7.32268

$$$$
3AO2_AVX_A_1


 19 21  0  0  0  0  0  0  0  0999 V2000
    8.4126  -22.5988   -6.1559 C   0  0  0  0  0  0  0  0  0  0  0  0
    9.5888  -22.5759   -6.9581 C   0  0  0  0  0  0  0  0  0  0  0  0
   10.6064  -21.6367   -6.7906 C   0  0  0  0  0  0  0  0  0  0  0  0
   10.5224  -20.6509   -5.8447 C   0  0  0  0  0  0  0  0  0  0  0  0
    9.3393  -20.6025   -4.9919 C   0  0  0  0  0  0  0  0  0  0  0  0
    8.3037  -21.5968   -5.1726 C   0  0  0  0  0  0  0  0  0  0  0  0
    7.3645  -21.2777   -4.2375 O   0  0  0  0  0  0  0  0  0  0  0  0
    7.8146  -20.2174   -3.3687 C   0  0  0  0  0  0  0  0  0  0  0  0
    9.0234  -19.7414   -3.9780 O   0  0  0  0  0  0  0  0  0  0  0  0
   11.8400  -19.3748   -5.5730 Br  0  0  0  0  0  0  0  0  0  0  0  0
    9.9290  -23.5783   -8.0064 C   0  0  0  0  0  0  0  0  0  0  0  0
    8.9035  -24.2326   -8.6571 N   0  0  0  0  0  0  0  0  0  0  0  0
    9.4989  -25.0887   -9.5858 N   0  0  0  0  0  0  0  0  0  0  0  0
   10.8158  -24.9240   -9.4743 C   0  0  0  0  0  0  0  0  0  0  0  0
   11.1759  -23.9860   -8.5084 C   0  0  0  0  0  0  0  0  0  0  0  0
    8.5829  -25.9230  -10.4230 C   0  0  0  0  0  0  0  0  0  0  0  0
   11.7015  -25.6167  -10.2436 N   0  0  0  0  0  0  0  0  0  0  0  0
   11.3743  -26.2655  -10.9078 H   0  0  0  0  0  0  0  0  0  0  0  0
   12.6687  -25.4685  -10.1352 H   0  0  0  0  0  0  0  0  0  0  0  0
  1  2  2  0  0  0
  1  6  1  0  0  0
  2  3  1  0  0  0
  2 11  1  0  0  0
  3  4  2  0  0  0
  4  5  1  0  0  0
  4 10  1  0  0  0
  5  6  2  0  0  0
  5  9  1  0  0  0
  6  7  1  0  0  0
  7  8  1  0  0  0
  8  9  1  0  0  0
 11 12  2  0  0  0
 11 15  1  0  0  0
 12 13  1  0  0  0
 13 14  1  0  0  0
 13 16  1  0  0  0
 14 15  2  0  0  0
 14 17  1  0  0  0
 17 18  1  0  0  0
 17 19  1  0  0  0
M  END
> <minimizedAffinity>
-7.30844

$$$$
3AO2_AVX_A_1


 19 21  0  0  0  0  0  0  0  0999 V2000
    8.3751  -23.2056   -7.2408 C   0  0  0  0  0  0  0  0  0  0  0  0
    9.3986  -22.2260   -7.3830 C   0  0  0  0  0  0  0  0  0  0  0  0
   10.1482  -22.0721   -8.5493 C   0  0  0  0  0  0  0  0  0  0  0  0
    9.9567  -22.8824   -9.6357 C   0  0  0  0  0  0  0  0  0  0  0  0
    8.9324  -23.9189   -9.5601 C   0  0  0  0  0  0  0  0  0  0  0  0
    8.1558  -24.0497   -8.3461 C   0  0  0  0  0  0  0  0  0  0  0  0
    7.3049  -25.0837   -8.6013 O   0  0  0  0  0  0  0  0  0  0  0  0
    7.3974  -25.5258   -9.9715 C   0  0  0  0  0  0  0  0  0  0  0  0
    8.5399  -24.8344  -10.4965 O   0  0  0  0  0  0  0  0  0  0  0  0
   10.9194  -22.7282  -11.2130 Br  0  0  0  0  0  0  0  0  0  0  0  0
    9.7465  -21.1977   -6.3628 C   0  0  0  0  0  0  0  0  0  0  0  0
    8.9337  -21.0580   -5.2569 N   0  0  0  0  0  0  0  0  0  0  0  0
    9.4956  -20.0504   -4.4703 N   0  0  0  0  0  0  0  0  0  0  0  0
   10.5928  -19.6348   -5.1005 C   0  0  0  0  0  0  0  0  0  0  0  0
   10.8314  -20.3080   -6.2973 C   0  0  0  0  0  0  0  0  0  0  0  0
    8.7843  -19.7054   -3.2010 C   0  0  0  0  0  0  0  0  0  0  0  0
   11.3871  -18.6475   -4.6002 N   0  0  0  0  0  0  0  0  0  0  0  0
   11.1562  -18.2152   -3.7464 H   0  0  0  0  0  0  0  0  0  0  0  0
   12.1921  -18.3664   -5.0925 H   0  0  0  0  0  0  0  0  0  0  0  0
  1  2  2  0  0  0
  1  6  1  0  0  0
  2  3  1  0  0  0
  2 11  1  0  0  0
  3  4  2  0  0  0
  4  5  1  0  0  0
  4 10  1  0  0  0
  5  6  2  0  0  0
  5  9  1  0  0  0
  6  7  1  0  0  0
  7  8  1  0  0  0
  8  9  1  0  0  0
 11 12  2  0  0  0
 11 15  1  0  0  0
 12 13  1  0  0  0
 13 14  1  0  0  0
 13 16  1  0  0  0
 14 15  2  0  0  0
 14 17  1  0  0  0
 17 18  1  0  0  0
 17 19  1  0  0  0
M  END
> <minimizedAffinity>
-7.19667

$$$$
3AO2_AVX_A_1


 19 21  0  0  0  0  0  0  0  0999 V2000
   11.4457  -23.0218   -8.4592 C   0  0  0  0  0  0  0  0  0  0  0  0
   10.2465  -22.6729   -7.7754 C   0  0  0  0  0  0  0  0  0  0  0  0
    9.0417  -23.3522   -7.9563 C   0  0  0  0  0  0  0  0  0  0  0  0
    8.9337  -24.3970   -8.8339 C   0  0  0  0  0  0  0  0  0  0  0  0
   10.1189  -24.8049   -9.5811 C   0  0  0  0  0  0  0  0  0  0  0  0
   11.3618  -24.0962   -9.3653 C   0  0  0  0  0  0  0  0  0  0  0  0
   12.2497  -24.7150  -10.1943 O   0  0  0  0  0  0  0  0  0  0  0  0
   11.6730  -25.8793  -10.8213 C   0  0  0  0  0  0  0  0  0  0  0  0
   10.2777  -25.8110  -10.4931 O   0  0  0  0  0  0  0  0  0  0  0  0
    7.3623  -25.3394   -9.1185 Br  0  0  0  0  0  0  0  0  0  0  0  0
   10.1329  -21.6143   -6.7333 C   0  0  0  0  0  0  0  0  0  0  0  0
   11.0438  -20.5782   -6.7371 N   0  0  0  0  0  0  0  0  0  0  0  0
   10.6973  -19.7349   -5.6795 N   0  0  0  0  0  0  0  0  0  0  0  0
    9.6236  -20.2663   -5.0975 C   0  0  0  0  0  0  0  0  0  0  0  0
    9.1954  -21.4475   -5.7007 C   0  0  0  0  0  0  0  0  0  0  0  0
   11.5507  -18.5251   -5.4698 C   0  0  0  0  0  0  0  0  0  0  0  0
    9.0219  -19.6892   -4.0201 N   0  0  0  0  0  0  0  0  0  0  0  0
    9.3804  -18.8522   -3.6458 H   0  0  0  0  0  0  0  0  0  0  0  0
    8.2285  -20.1091   -3.6159 H   0  0  0  0  0  0  0  0  0  0  0  0
  1  2  2  0  0  0
  1  6  1  0  0  0
  2  3  1  0  0  0
  2 11  1  0  0  0
  3  4  2  0  0  0
  4  5  1  0  0  0
  4 10  1  0  0  0
  5  6  2  0  0  0
  5  9  1  0  0  0
  6  7  1  0  0  0
  7  8  1  0  0  0
  8  9  1  0  0  0
 11 12  2  0  0  0
 11 15  1  0  0  0
 12 13  1  0  0  0
 13 14  1  0  0  0
 13 16  1  0  0  0
 14 15  2  0  0  0
 14 17  1  0  0  0
 17 18  1  0  0  0
 17 19  1  0  0  0
M  END
> <minimizedAffinity>
-7.11934

$$$$
3AO2_AVX_A_1


 19 21  0  0  0  0  0  0  0  0999 V2000
   11.4768  -21.7867   -7.1941 C   0  0  0  0  0  0  0  0  0  0  0  0
   10.3864  -22.6810   -7.3903 C   0  0  0  0  0  0  0  0  0  0  0  0
    9.2044  -22.6139   -6.6526 C   0  0  0  0  0  0  0  0  0  0  0  0
    9.0293  -21.6835   -5.6641 C   0  0  0  0  0  0  0  0  0  0  0  0
   10.1093  -20.7395   -5.3963 C   0  0  0  0  0  0  0  0  0  0  0  0
   11.3200  -20.8173   -6.1850 C   0  0  0  0  0  0  0  0  0  0  0  0
   12.1049  -19.8161   -5.6954 O   0  0  0  0  0  0  0  0  0  0  0  0
   11.3993  -19.0068   -4.7318 C   0  0  0  0  0  0  0  0  0  0  0  0
   10.1784  -19.7203   -4.4877 O   0  0  0  0  0  0  0  0  0  0  0  0
    7.4835  -21.5431   -4.6496 Br  0  0  0  0  0  0  0  0  0  0  0  0
   10.3220  -23.7338   -8.4425 C   0  0  0  0  0  0  0  0  0  0  0  0
    9.1022  -24.3098   -8.7317 N   0  0  0  0  0  0  0  0  0  0  0  0
    9.3274  -25.2367   -9.7514 N   0  0  0  0  0  0  0  0  0  0  0  0
   10.6270  -25.1867  -10.0388 C   0  0  0  0  0  0  0  0  0  0  0  0
   11.3286  -24.2620   -9.2674 C   0  0  0  0  0  0  0  0  0  0  0  0
    8.1427  -26.0059  -10.2419 C   0  0  0  0  0  0  0  0  0  0  0  0
   11.1885  -25.9730  -10.9993 N   0  0  0  0  0  0  0  0  0  0  0  0
   10.6299  -26.6056  -11.5062 H   0  0  0  0  0  0  0  0  0  0  0  0
   12.1529  -25.9085  -11.1864 H   0  0  0  0  0  0  0  0  0  0  0  0
  1  2  2  0  0  0
  1  6  1  0  0  0
  2  3  1  0  0  0
  2 11  1  0  0  0
  3  4  2  0  0  0
  4  5  1  0  0  0
  4 10  1  0  0  0
  5  6  2  0  0  0
  5  9  1  0  0  0
  6  7  1  0  0  0
  7  8  1  0  0  0
  8  9  1  0  0  0
 11 12  2  0  0  0
 11 15  1  0  0  0
 12 13  1  0  0  0
 13 14  1  0  0  0
 13 16  1  0  0  0
 14 15  2  0  0  0
 14 17  1  0  0  0
 17 18  1  0  0  0
 17 19  1  0  0  0
M  END
> <minimizedAffinity>
-6.94238

$$$$
3AO2_AVX_A_1


 19 21  0  0  0  0  0  0  0  0999 V2000
   10.6286  -22.0594   -7.8543 C   0  0  0  0  0  0  0  0  0  0  0  0
    9.5766  -23.0188   -7.8413 C   0  0  0  0  0  0  0  0  0  0  0  0
    8.5607  -23.0217   -6.8853 C   0  0  0  0  0  0  0  0  0  0  0  0
    8.5277  -22.1013   -5.8728 C   0  0  0  0  0  0  0  0  0  0  0  0
    9.5807  -21.0928   -5.8132 C   0  0  0  0  0  0  0  0  0  0  0  0
   10.6153  -21.0990   -6.8248 C   0  0  0  0  0  0  0  0  0  0  0  0
   11.4197  -20.0508   -6.4892 O   0  0  0  0  0  0  0  0  0  0  0  0
   10.8698  -19.2835   -5.3982 C   0  0  0  0  0  0  0  0  0  0  0  0
    9.7657  -20.0691   -4.9261 O   0  0  0  0  0  0  0  0  0  0  0  0
    7.2058  -22.0525   -4.5734 Br  0  0  0  0  0  0  0  0  0  0  0  0
    9.3700  -24.0760   -8.8703 C   0  0  0  0  0  0  0  0  0  0  0  0
   10.3968  -24.3588   -9.7472 N   0  0  0  0  0  0  0  0  0  0  0  0
    9.9439  -25.3853  -10.5785 N   0  0  0  0  0  0  0  0  0  0  0  0
    8.7063  -25.6825  -10.1860 C   0  0  0  0  0  0  0  0  0  0  0  0
    8.2670  -24.9117   -9.1111 C   0  0  0  0  0  0  0  0  0  0  0  0
   10.8876  -25.8707  -11.6318 C   0  0  0  0  0  0  0  0  0  0  0  0
    7.9657  -26.6517  -10.7928 N   0  0  0  0  0  0  0  0  0  0  0  0
    8.3418  -27.1577  -11.5489 H   0  0  0  0  0  0  0  0  0  0  0  0
    7.0543  -26.8460  -10.4752 H   0  0  0  0  0  0  0  0  0  0  0  0
  1  2  2  0  0  0
  1  6  1  0  0  0
  2  3  1  0  0  0
  2 11  1  0  0  0
  3  4  2  0  0  0
  4  5  1  0  0  0
  4 10  1  0  0  0
  5  6  2  0  0  0
  5  9  1  0  0  0
  6  7  1  0  0  0
  7  8  1  0  0  0
  8  9  1  0  0  0
 11 12  2  0  0  0
 11 15  1  0  0  0
 12 13  1  0  0  0
 13 14  1  0  0  0
 13 16  1  0  0  0
 14 15  2  0  0  0
 14 17  1  0  0  0
 17 18  1  0  0  0
 17 19  1  0  0  0
M  END
> <minimizedAffinity>
-6.76287

$$$$
3AO2_AVX_A_1


 19 21  0  0  0  0  0  0  0  0999 V2000
   10.0175  -22.3844   -8.1097 C   0  0  0  0  0  0  0  0  0  0  0  0
    8.8986  -23.2408   -7.9046 C   0  0  0  0  0  0  0  0  0  0  0  0
    8.0428  -23.1261   -6.8090 C   0  0  0  0  0  0  0  0  0  0  0  0
    8.2452  -22.1828   -5.8381 C   0  0  0  0  0  0  0  0  0  0  0  0
    9.3804  -21.2759   -5.9734 C   0  0  0  0  0  0  0  0  0  0  0  0
   10.2453  -21.4027   -7.1265 C   0  0  0  0  0  0  0  0  0  0  0  0
   11.1811  -20.4265   -6.9536 O   0  0  0  0  0  0  0  0  0  0  0  0
   10.8729  -19.5855   -5.8226 C   0  0  0  0  0  0  0  0  0  0  0  0
    9.7876  -20.2532   -5.1627 O   0  0  0  0  0  0  0  0  0  0  0  0
    7.1447  -21.9799   -4.3596 Br  0  0  0  0  0  0  0  0  0  0  0  0
    8.4457  -24.2983   -8.8512 C   0  0  0  0  0  0  0  0  0  0  0  0
    7.1288  -24.7075   -8.8090 N   0  0  0  0  0  0  0  0  0  0  0  0
    6.9784  -25.6795   -9.8001 N   0  0  0  0  0  0  0  0  0  0  0  0
    8.1641  -25.8152  -10.3913 C   0  0  0  0  0  0  0  0  0  0  0  0
    9.1449  -24.9785   -9.8618 C   0  0  0  0  0  0  0  0  0  0  0  0
    5.6215  -26.2895   -9.9508 C   0  0  0  0  0  0  0  0  0  0  0  0
    8.3694  -26.6928  -11.4129 N   0  0  0  0  0  0  0  0  0  0  0  0
    7.6279  -27.2539  -11.7363 H   0  0  0  0  0  0  0  0  0  0  0  0
    9.2592  -26.7658  -11.8278 H   0  0  0  0  0  0  0  0  0  0  0  0
  1  2  2  0  0  0
  1  6  1  0  0  0
  2  3  1  0  0  0
  2 11  1  0  0  0
  3  4  2  0  0  0
  4  5  1  0  0  0
  4 10  1  0  0  0
  5  6  2  0  0  0
  5  9  1  0  0  0
  6  7  1  0  0  0
  7  8  1  0  0  0
  8  9  1  0  0  0
 11 12  2  0  0  0
 11 15  1  0  0  0
 12 13  1  0  0  0
 13 14  1  0  0  0
 13 16  1  0  0  0
 14 15  2  0  0  0
 14 17  1  0  0  0
 17 18  1  0  0  0
 17 19  1  0  0  0
M  END
> <minimizedAffinity>
-6.48456

$$$$
