1NC3_FMC_A_233


 25 27  0  0  0  0  0  0  0  0999 V2000
   52.3962   40.8719   19.8268 N   0  0  0  0  0  0  0  0  0  0  0  0
   53.1291   40.9163   20.9689 C   0  0  0  0  0  0  0  0  0  0  0  0
   54.4171   40.5046   21.0853 N   0  0  0  0  0  0  0  0  0  0  0  0
   54.9887   39.9959   19.8599 C   0  0  0  0  0  0  0  0  0  0  0  0
   54.2776   39.9300   18.6448 C   0  0  0  0  0  0  0  0  0  0  0  0
   52.8988   40.3970   18.6400 C   0  0  0  0  0  0  0  0  0  0  0  0
   52.1314   40.3738   17.5471 N   0  0  0  0  0  0  0  0  0  0  0  0
   55.1121   39.4015   17.6979 N   0  0  0  0  0  0  0  0  0  0  0  0
   56.3558   39.1153   18.2720 N   0  0  0  0  0  0  0  0  0  0  0  0
   56.3047   39.4612   19.5779 C   0  0  0  0  0  0  0  0  0  0  0  0
   51.2036   40.7001   17.5900 H   0  0  0  0  0  0  0  0  0  0  0  0
   52.4937   40.0305   16.6985 H   0  0  0  0  0  0  0  0  0  0  0  0
   54.8736   39.2461   16.7555 H   0  0  0  0  0  0  0  0  0  0  0  0
   57.5040   39.2782   20.5786 C   0  0  0  0  0  0  0  0  0  0  0  0
   57.4499   39.7690   22.0565 C   0  0  0  0  0  0  0  0  0  0  0  0
   58.3159   40.7993   22.4211 O   0  0  0  0  0  0  0  0  0  0  0  0
   57.6886   38.5373   22.9094 C   0  0  0  0  0  0  0  0  0  0  0  0
   59.0567   38.6648   23.3810 O   0  0  0  0  0  0  0  0  0  0  0  0
   57.4484   37.2718   22.0298 C   0  0  0  0  0  0  0  0  0  0  0  0
   57.7644   37.8464   20.6864 O   0  0  0  0  0  0  0  0  0  0  0  0
   59.2335   40.4988   22.3276 H   0  0  0  0  0  0  0  0  0  0  0  0
   59.6540   38.7484   22.6214 H   0  0  0  0  0  0  0  0  0  0  0  0
   55.9741   36.7051   22.0210 C   0  0  0  0  0  0  0  0  0  0  0  0
   55.5203   36.0804   23.2193 O   0  0  0  0  0  0  0  0  0  0  0  0
   56.0539   35.2894   23.3937 H   0  0  0  0  0  0  0  0  0  0  0  0
  1  2  2  0  0  0
  1  6  1  0  0  0
  2  3  1  0  0  0
  3  4  2  0  0  0
  4  5  1  0  0  0
  4 10  1  0  0  0
  5  6  2  0  0  0
  5  8  1  0  0  0
  6  7  1  0  0  0
  8  9  1  0  0  0
  9 10  2  0  0  0
 10 14  1  0  0  0
 14 15  1  0  0  0
 14 20  1  0  0  0
 15 16  1  0  0  0
 15 17  1  0  0  0
 17 18  1  0  0  0
 17 19  1  0  0  0
 19 20  1  0  0  0
 19 23  1  0  0  0
 23 24  1  0  0  0
  7 11  1  0  0  0
  7 12  1  0  0  0
  8 13  1  0  0  0
 16 21  1  0  0  0
 18 22  1  0  0  0
 24 25  1  0  0  0
M  END
> <minimizedAffinity>
-10.57312

$$$$
1NC3_FMC_A_233


 25 27  0  0  0  0  0  0  0  0999 V2000
   52.6211   41.1992   19.6666 N   0  0  0  0  0  0  0  0  0  0  0  0
   52.8956   41.2196   20.9962 C   0  0  0  0  0  0  0  0  0  0  0  0
   53.9619   40.6175   21.5814 N   0  0  0  0  0  0  0  0  0  0  0  0
   54.8302   39.9240   20.6582 C   0  0  0  0  0  0  0  0  0  0  0  0
   54.5976   39.8729   19.2691 C   0  0  0  0  0  0  0  0  0  0  0  0
   53.4183   40.5533   18.7536 C   0  0  0  0  0  0  0  0  0  0  0  0
   53.0985   40.5633   17.4569 N   0  0  0  0  0  0  0  0  0  0  0  0
   55.6045   39.1408   18.7012 N   0  0  0  0  0  0  0  0  0  0  0  0
   56.4902   38.7071   19.6942 N   0  0  0  0  0  0  0  0  0  0  0  0
   56.0414   39.1634   20.8850 C   0  0  0  0  0  0  0  0  0  0  0  0
   52.2906   41.0368   17.1528 H   0  0  0  0  0  0  0  0  0  0  0  0
   53.6705   40.0973   16.8051 H   0  0  0  0  0  0  0  0  0  0  0  0
   55.6926   38.9483   17.7398 H   0  0  0  0  0  0  0  0  0  0  0  0
   56.7533   38.8736   22.2570 C   0  0  0  0  0  0  0  0  0  0  0  0
   57.3681   37.4860   22.6101 C   0  0  0  0  0  0  0  0  0  0  0  0
   56.7774   36.7701   23.6509 O   0  0  0  0  0  0  0  0  0  0  0  0
   58.8345   37.7457   22.8991 C   0  0  0  0  0  0  0  0  0  0  0  0
   58.9526   37.6718   24.3450 O   0  0  0  0  0  0  0  0  0  0  0  0
   59.2151   39.1403   22.3135 C   0  0  0  0  0  0  0  0  0  0  0  0
   57.8749   39.8005   22.3681 O   0  0  0  0  0  0  0  0  0  0  0  0
   56.8738   37.2653   24.4794 H   0  0  0  0  0  0  0  0  0  0  0  0
   58.3447   38.3088   24.7520 H   0  0  0  0  0  0  0  0  0  0  0  0
   59.7387   39.1455   20.8233 C   0  0  0  0  0  0  0  0  0  0  0  0
   60.7860   38.2310   20.5087 O   0  0  0  0  0  0  0  0  0  0  0  0
   61.5797   38.4612   21.0165 H   0  0  0  0  0  0  0  0  0  0  0  0
  1  2  2  0  0  0
  1  6  1  0  0  0
  2  3  1  0  0  0
  3  4  2  0  0  0
  4  5  1  0  0  0
  4 10  1  0  0  0
  5  6  2  0  0  0
  5  8  1  0  0  0
  6  7  1  0  0  0
  8  9  1  0  0  0
  9 10  2  0  0  0
 10 14  1  0  0  0
 14 15  1  0  0  0
 14 20  1  0  0  0
 15 16  1  0  0  0
 15 17  1  0  0  0
 17 18  1  0  0  0
 17 19  1  0  0  0
 19 20  1  0  0  0
 19 23  1  0  0  0
 23 24  1  0  0  0
  7 11  1  0  0  0
  7 12  1  0  0  0
  8 13  1  0  0  0
 16 21  1  0  0  0
 18 22  1  0  0  0
 24 25  1  0  0  0
M  END
> <minimizedAffinity>
-7.69857

$$$$
