5MWY_YNU_A_1101


 30 35  0  0  0  0  0  0  0  0999 V2000
    8.2550   17.5074   16.8279 C   0  0  0  0  0  0  0  0  0  0  0  0
    8.7215   18.9125   17.1859 C   0  0  0  0  0  0  0  0  0  0  0  0
    7.5659   15.8079   15.1038 C   0  0  0  0  0  0  0  0  0  0  0  0
    8.7233   16.9061   19.2539 C   0  0  0  0  0  0  0  0  0  0  0  0
    8.4897   15.0340   17.3614 C   0  0  0  0  0  0  0  0  0  0  0  0
    9.1312   18.4495   21.0707 C   0  0  0  0  0  0  0  0  0  0  0  0
    9.1240   19.3105   18.6184 C   0  0  0  0  0  0  0  0  0  0  0  0
    7.6111   14.6565   16.1242 C   0  0  0  0  0  0  0  0  0  0  0  0
    7.8333   15.5356   13.8153 C   0  0  0  0  0  0  0  0  0  0  0  0
    9.0642   20.4619   22.2268 C   0  0  0  0  0  0  0  0  0  0  0  0
    9.1247   17.0200   21.6199 C   0  0  0  0  0  0  0  0  0  0  0  0
    7.8362   16.5946   12.7772 C   0  0  0  0  0  0  0  0  0  0  0  0
   10.5827   18.9733   21.1342 C   0  0  0  0  0  0  0  0  0  0  0  0
    6.9706   18.7866   19.7584 C   0  0  0  0  0  0  0  0  0  0  0  0
    9.6130   17.9581   16.5979 O   0  0  0  0  0  0  0  0  0  0  0  0
    8.0983   16.4327   17.9252 C   0  0  0  0  0  0  0  0  0  0  0  0
    7.4104   17.2512   15.5559 C   0  0  0  0  0  0  0  0  0  0  0  0
    8.4726   18.4190   19.6659 C   0  0  0  0  0  0  0  0  0  0  0  0
    8.4311   19.3012   21.9942 O   0  0  0  0  0  0  0  0  0  0  0  0
    8.4776   16.1241   20.5532 C   0  0  0  0  0  0  0  0  0  0  0  0
    7.9283   18.2603   14.5140 C   0  0  0  0  0  0  0  0  0  0  0  0
    8.5875   21.4260   22.7524 O   0  0  0  0  0  0  0  0  0  0  0  0
    8.1478   16.4196   11.6289 O   0  0  0  0  0  0  0  0  0  0  0  0
   10.4773   20.3866   21.7599 C   0  0  0  0  0  0  0  0  0  0  0  0
    7.4068   17.9684   13.1300 C   0  0  0  0  0  0  0  0  0  0  0  0
    5.9154   17.4978   15.8398 C   0  0  0  0  0  0  0  0  0  0  0  0
    9.9795   14.8994   17.0421 C   0  0  0  0  0  0  0  0  0  0  0  0
   10.3507   14.9374   15.9050 O   0  0  0  0  0  0  0  0  0  0  0  0
   10.9260   14.7340   17.9876 O   0  0  0  0  0  0  0  0  0  0  0  0
   12.1449   13.9878   17.6572 C   0  0  0  0  0  0  0  0  0  0  0  0
 23 12  2  0  0  0
 12 25  1  0  0  0
 12  9  1  0  0  0
 25 21  1  0  0  0
  9  3  2  0  0  0
 21 17  1  0  0  0
  3 17  1  0  0  0
  3  8  1  0  0  0
 17 26  1  0  0  0
 17  1  1  0  0  0
 28 27  2  0  0  0
  8  5  1  0  0  0
 15  1  1  0  0  0
 15  2  1  0  0  0
  1  2  1  0  0  0
  1 16  1  0  0  0
 27  5  1  0  0  0
 27 29  1  0  0  0
  5 16  1  0  0  0
  2  7  1  0  0  0
 30 29  1  0  0  0
 16  4  1  0  0  0
  7 18  1  0  0  0
  4 18  1  0  0  0
  4 20  1  0  0  0
 18 14  1  0  0  0
 18  6  1  0  0  0
 20 11  1  0  0  0
  6 13  1  0  0  0
  6 11  1  0  0  0
  6 19  1  0  0  0
 13 24  1  0  0  0
 24 10  1  0  0  0
 19 10  1  0  0  0
 10 22  2  0  0  0
M  END
> <minimizedAffinity>
-12.98538

$$$$
