2FZG_EOB_A_611


 28 28  0  0  0  0  0  0  0  0999 V2000
   39.4490   30.4984   20.7595 C   0  0  0  0  0  0  0  0  0  0  0  0
   40.2784   29.4361   20.4157 C   0  0  0  0  0  0  0  0  0  0  0  0
   39.9516   31.5018   21.5923 C   0  0  0  0  0  0  0  0  0  0  0  0
   41.2579   31.4420   22.0567 C   0  0  0  0  0  0  0  0  0  0  0  0
   42.0812   30.3812   21.6956 C   0  0  0  0  0  0  0  0  0  0  0  0
   41.5905   29.3678   20.8706 C   0  0  0  0  0  0  0  0  0  0  0  0
   37.1110   29.9553   20.6496 C   0  0  0  0  0  0  0  0  0  0  0  0
   36.0104   30.1784   20.1396 O   0  0  0  0  0  0  0  0  0  0  0  0
   38.2017   30.6398   20.3072 N   0  0  0  0  0  0  0  0  0  0  0  0
   38.0698   31.3430   19.6309 H   0  0  0  0  0  0  0  0  0  0  0  0
   37.2372   28.8590   21.7156 C   0  0  0  0  0  0  0  0  0  0  0  0
   35.9353   27.4236   19.7911 O   0  0  0  0  0  0  0  0  0  0  0  0
   36.9540   27.2103   21.0219 P   0  0  0  0  0  0  0  0  0  0  0  0
   36.1398   26.3705   22.1304 O   0  0  0  0  0  0  0  0  0  0  0  0
   38.2193   26.5368   20.6227 O   0  0  0  0  0  0  0  0  0  0  0  0
   35.7450   26.5674   19.3767 H   0  0  0  0  0  0  0  0  0  0  0  0
   35.9669   25.4765   21.7963 H   0  0  0  0  0  0  0  0  0  0  0  0
   42.3236   28.3098   20.5226 N   0  0  0  0  0  0  0  0  0  0  0  0
   42.8700   28.0555   19.3351 C   0  0  0  0  0  0  0  0  0  0  0  0
   43.5502   27.0543   19.1078 O   0  0  0  0  0  0  0  0  0  0  0  0
   42.4791   27.6383   21.2256 H   0  0  0  0  0  0  0  0  0  0  0  0
   42.6272   29.0739   18.2166 C   0  0  0  0  0  0  0  0  0  0  0  0
   42.6307   28.2766   16.5955 P   0  0  0  0  0  0  0  0  0  0  0  0
   41.7024   29.2041   15.6649 O   0  0  0  0  0  0  0  0  0  0  0  0
   41.8474   26.8849   16.7980 O   0  0  0  0  0  0  0  0  0  0  0  0
   43.9959   28.1157   16.0345 O   0  0  0  0  0  0  0  0  0  0  0  0
   40.8221   29.2845   16.0642 H   0  0  0  0  0  0  0  0  0  0  0  0
   40.9669   27.0599   17.1656 H   0  0  0  0  0  0  0  0  0  0  0  0
 12 13  1  0  0  0
 13 14  1  0  0  0
 13 15  2  0  0  0
 13 11  1  0  0  0
 11  7  1  0  0  0
  7  8  2  0  0  0
  7  9  1  0  0  0
  9  1  1  0  0  0
  1  2  1  0  0  0
  1  3  2  0  0  0
  2  6  2  0  0  0
  3  4  1  0  0  0
  4  5  2  0  0  0
  5  6  1  0  0  0
  6 18  1  0  0  0
 18 19  1  0  0  0
 19 20  2  0  0  0
 19 22  1  0  0  0
 22 23  1  0  0  0
 23 24  1  0  0  0
 23 25  1  0  0  0
 23 26  2  0  0  0
 12 16  1  0  0  0
 14 17  1  0  0  0
  9 10  1  0  0  0
 18 21  1  0  0  0
 24 27  1  0  0  0
 25 28  1  0  0  0
M  END
> <minimizedAffinity>
-8.49690

$$$$
2FZG_EOB_A_611


 28 28  0  0  0  0  0  0  0  0999 V2000
   41.4446   29.3498   20.7567 C   0  0  0  0  0  0  0  0  0  0  0  0
   40.1365   29.5043   20.3099 C   0  0  0  0  0  0  0  0  0  0  0  0
   41.9701   30.2972   21.6394 C   0  0  0  0  0  0  0  0  0  0  0  0
   41.1948   31.3651   22.0689 C   0  0  0  0  0  0  0  0  0  0  0  0
   39.8842   31.5015   21.6248 C   0  0  0  0  0  0  0  0  0  0  0  0
   39.3483   30.5671   20.7371 C   0  0  0  0  0  0  0  0  0  0  0  0
   42.8368   28.0857   19.2611 C   0  0  0  0  0  0  0  0  0  0  0  0
   43.5238   27.0784   19.0750 O   0  0  0  0  0  0  0  0  0  0  0  0
   42.2245   28.3206   20.4209 N   0  0  0  0  0  0  0  0  0  0  0  0
   42.3662   27.6453   21.1231 H   0  0  0  0  0  0  0  0  0  0  0  0
   42.6794   29.1082   18.1279 C   0  0  0  0  0  0  0  0  0  0  0  0
   41.6020   29.3321   15.6282 O   0  0  0  0  0  0  0  0  0  0  0  0
   42.4638   28.3027   16.5202 P   0  0  0  0  0  0  0  0  0  0  0  0
   41.5140   27.0235   16.7623 O   0  0  0  0  0  0  0  0  0  0  0  0
   43.7605   27.9303   15.8929 O   0  0  0  0  0  0  0  0  0  0  0  0
   41.4536   28.9517   14.7483 H   0  0  0  0  0  0  0  0  0  0  0  0
   41.3729   26.5617   15.9210 H   0  0  0  0  0  0  0  0  0  0  0  0
   38.1108   30.6688   20.2512 N   0  0  0  0  0  0  0  0  0  0  0  0
   37.0400   29.9587   20.6013 C   0  0  0  0  0  0  0  0  0  0  0  0
   35.9254   30.1338   20.1075 O   0  0  0  0  0  0  0  0  0  0  0  0
   37.9725   31.3480   19.5521 H   0  0  0  0  0  0  0  0  0  0  0  0
   37.2306   28.8806   21.6730 C   0  0  0  0  0  0  0  0  0  0  0  0
   36.9511   27.2295   20.9953 P   0  0  0  0  0  0  0  0  0  0  0  0
   35.9001   27.4362   19.7950 O   0  0  0  0  0  0  0  0  0  0  0  0
   36.1849   26.4129   22.1520 O   0  0  0  0  0  0  0  0  0  0  0  0
   38.2016   26.5760   20.5331 O   0  0  0  0  0  0  0  0  0  0  0  0
   35.0995   27.8644   20.1363 H   0  0  0  0  0  0  0  0  0  0  0  0
   35.3808   26.8916   22.4072 H   0  0  0  0  0  0  0  0  0  0  0  0
 12 13  1  0  0  0
 13 14  1  0  0  0
 13 15  2  0  0  0
 13 11  1  0  0  0
 11  7  1  0  0  0
  7  8  2  0  0  0
  7  9  1  0  0  0
  9  1  1  0  0  0
  1  2  1  0  0  0
  1  3  2  0  0  0
  2  6  2  0  0  0
  3  4  1  0  0  0
  4  5  2  0  0  0
  5  6  1  0  0  0
  6 18  1  0  0  0
 18 19  1  0  0  0
 19 20  2  0  0  0
 19 22  1  0  0  0
 22 23  1  0  0  0
 23 24  1  0  0  0
 23 25  1  0  0  0
 23 26  2  0  0  0
 12 16  1  0  0  0
 14 17  1  0  0  0
  9 10  1  0  0  0
 18 21  1  0  0  0
 24 27  1  0  0  0
 25 28  1  0  0  0
M  END
> <minimizedAffinity>
-8.49157

$$$$
2FZG_EOB_A_611


 28 28  0  0  0  0  0  0  0  0999 V2000
   40.8903   29.2584   20.5294 C   0  0  0  0  0  0  0  0  0  0  0  0
   39.9019   28.3559   20.9077 C   0  0  0  0  0  0  0  0  0  0  0  0
   40.5449   30.3217   19.6909 C   0  0  0  0  0  0  0  0  0  0  0  0
   39.2367   30.4775   19.2547 C   0  0  0  0  0  0  0  0  0  0  0  0
   38.2550   29.5757   19.6502 C   0  0  0  0  0  0  0  0  0  0  0  0
   38.5869   28.5044   20.4813 C   0  0  0  0  0  0  0  0  0  0  0  0
   43.2119   28.6709   20.3343 C   0  0  0  0  0  0  0  0  0  0  0  0
   44.3330   28.6614   20.8483 O   0  0  0  0  0  0  0  0  0  0  0  0
   42.1537   29.1928   20.9534 N   0  0  0  0  0  0  0  0  0  0  0  0
   42.3270   29.5815   21.8411 H   0  0  0  0  0  0  0  0  0  0  0  0
   43.0207   28.0678   18.9364 C   0  0  0  0  0  0  0  0  0  0  0  0
   45.0142   29.8650   18.4310 O   0  0  0  0  0  0  0  0  0  0  0  0
   43.8600   29.0435   17.6623 P   0  0  0  0  0  0  0  0  0  0  0  0
   42.8026   30.1440   17.1446 O   0  0  0  0  0  0  0  0  0  0  0  0
   44.3830   28.2002   16.5536 O   0  0  0  0  0  0  0  0  0  0  0  0
   45.5017   30.4105   17.7940 H   0  0  0  0  0  0  0  0  0  0  0  0
   43.2151   30.6905   16.4574 H   0  0  0  0  0  0  0  0  0  0  0  0
   37.6942   27.5900   20.8617 N   0  0  0  0  0  0  0  0  0  0  0  0
   36.8099   27.6816   21.8531 C   0  0  0  0  0  0  0  0  0  0  0  0
   36.0072   26.7875   22.1238 O   0  0  0  0  0  0  0  0  0  0  0  0
   37.6881   26.7490   20.3499 H   0  0  0  0  0  0  0  0  0  0  0  0
   36.8107   28.9717   22.6793 C   0  0  0  0  0  0  0  0  0  0  0  0
   36.4572   28.6336   24.4184 P   0  0  0  0  0  0  0  0  0  0  0  0
   37.4715   27.4569   24.8362 O   0  0  0  0  0  0  0  0  0  0  0  0
   34.9757   28.0043   24.4427 O   0  0  0  0  0  0  0  0  0  0  0  0
   36.6097   29.8318   25.2819 O   0  0  0  0  0  0  0  0  0  0  0  0
   37.3412   26.6946   24.2507 H   0  0  0  0  0  0  0  0  0  0  0  0
   34.9443   27.2287   23.8608 H   0  0  0  0  0  0  0  0  0  0  0  0
 12 13  1  0  0  0
 13 14  1  0  0  0
 13 15  2  0  0  0
 13 11  1  0  0  0
 11  7  1  0  0  0
  7  8  2  0  0  0
  7  9  1  0  0  0
  9  1  1  0  0  0
  1  2  1  0  0  0
  1  3  2  0  0  0
  2  6  2  0  0  0
  3  4  1  0  0  0
  4  5  2  0  0  0
  5  6  1  0  0  0
  6 18  1  0  0  0
 18 19  1  0  0  0
 19 20  2  0  0  0
 19 22  1  0  0  0
 22 23  1  0  0  0
 23 24  1  0  0  0
 23 25  1  0  0  0
 23 26  2  0  0  0
 12 16  1  0  0  0
 14 17  1  0  0  0
  9 10  1  0  0  0
 18 21  1  0  0  0
 24 27  1  0  0  0
 25 28  1  0  0  0
M  END
> <minimizedAffinity>
-8.30162

$$$$
2FZG_EOB_A_611


 28 28  0  0  0  0  0  0  0  0999 V2000
   36.8798   27.6713   22.6300 C   0  0  0  0  0  0  0  0  0  0  0  0
   38.1900   27.4851   22.2019 C   0  0  0  0  0  0  0  0  0  0  0  0
   35.8472   27.5854   21.6922 C   0  0  0  0  0  0  0  0  0  0  0  0
   36.1266   27.3081   20.3615 C   0  0  0  0  0  0  0  0  0  0  0  0
   37.4396   27.1114   19.9483 C   0  0  0  0  0  0  0  0  0  0  0  0
   38.4819   27.2017   20.8723 C   0  0  0  0  0  0  0  0  0  0  0  0
   36.4529   29.0526   24.5491 C   0  0  0  0  0  0  0  0  0  0  0  0
   36.1402   29.1165   25.7404 O   0  0  0  0  0  0  0  0  0  0  0  0
   36.5410   27.8914   23.9016 N   0  0  0  0  0  0  0  0  0  0  0  0
   36.3280   27.0896   24.4317 H   0  0  0  0  0  0  0  0  0  0  0  0
   36.7485   30.3465   23.7790 C   0  0  0  0  0  0  0  0  0  0  0  0
   38.8638   30.6608   25.4779 O   0  0  0  0  0  0  0  0  0  0  0  0
   37.6952   31.5230   24.7787 P   0  0  0  0  0  0  0  0  0  0  0  0
   36.7268   32.0068   25.9726 O   0  0  0  0  0  0  0  0  0  0  0  0
   38.2119   32.6640   23.9757 O   0  0  0  0  0  0  0  0  0  0  0  0
   39.4083   31.2427   26.0309 H   0  0  0  0  0  0  0  0  0  0  0  0
   37.1984   32.6415   26.5344 H   0  0  0  0  0  0  0  0  0  0  0  0
   39.7612   27.0582   20.5250 N   0  0  0  0  0  0  0  0  0  0  0  0
   40.6431   28.0197   20.2583 C   0  0  0  0  0  0  0  0  0  0  0  0
   41.8163   27.7930   19.9600 O   0  0  0  0  0  0  0  0  0  0  0  0
   40.0925   26.1335   20.4579 H   0  0  0  0  0  0  0  0  0  0  0  0
   40.1495   29.4680   20.3355 C   0  0  0  0  0  0  0  0  0  0  0  0
   39.6933   30.0903   18.7020 P   0  0  0  0  0  0  0  0  0  0  0  0
   39.6892   28.7991   17.7423 O   0  0  0  0  0  0  0  0  0  0  0  0
   40.9243   31.0163   18.2344 O   0  0  0  0  0  0  0  0  0  0  0  0
   38.3846   30.7915   18.6963 O   0  0  0  0  0  0  0  0  0  0  0  0
   40.5587   28.3703   17.7736 H   0  0  0  0  0  0  0  0  0  0  0  0
   41.7453   30.5004   18.2607 H   0  0  0  0  0  0  0  0  0  0  0  0
 12 13  1  0  0  0
 13 14  1  0  0  0
 13 15  2  0  0  0
 13 11  1  0  0  0
 11  7  1  0  0  0
  7  8  2  0  0  0
  7  9  1  0  0  0
  9  1  1  0  0  0
  1  2  1  0  0  0
  1  3  2  0  0  0
  2  6  2  0  0  0
  3  4  1  0  0  0
  4  5  2  0  0  0
  5  6  1  0  0  0
  6 18  1  0  0  0
 18 19  1  0  0  0
 19 20  2  0  0  0
 19 22  1  0  0  0
 22 23  1  0  0  0
 23 24  1  0  0  0
 23 25  1  0  0  0
 23 26  2  0  0  0
 12 16  1  0  0  0
 14 17  1  0  0  0
  9 10  1  0  0  0
 18 21  1  0  0  0
 24 27  1  0  0  0
 25 28  1  0  0  0
M  END
> <minimizedAffinity>
-8.15226

$$$$
2FZG_EOB_A_611


 28 28  0  0  0  0  0  0  0  0999 V2000
   38.4981   29.4585   20.9074 C   0  0  0  0  0  0  0  0  0  0  0  0
   39.8780   29.6268   20.9516 C   0  0  0  0  0  0  0  0  0  0  0  0
   37.9841   28.2091   20.5500 C   0  0  0  0  0  0  0  0  0  0  0  0
   38.8375   27.1550   20.2562 C   0  0  0  0  0  0  0  0  0  0  0  0
   40.2154   27.3325   20.3162 C   0  0  0  0  0  0  0  0  0  0  0  0
   40.7432   28.5770   20.6643 C   0  0  0  0  0  0  0  0  0  0  0  0
   37.1765   30.7640   22.4313 C   0  0  0  0  0  0  0  0  0  0  0  0
   36.3508   31.6667   22.5877 O   0  0  0  0  0  0  0  0  0  0  0  0
   37.6253   30.4161   21.2259 N   0  0  0  0  0  0  0  0  0  0  0  0
   37.2652   30.9343   20.4702 H   0  0  0  0  0  0  0  0  0  0  0  0
   37.7123   30.0144   23.6583 C   0  0  0  0  0  0  0  0  0  0  0  0
   37.4406   27.6042   24.9139 O   0  0  0  0  0  0  0  0  0  0  0  0
   36.5418   28.7642   24.2469 P   0  0  0  0  0  0  0  0  0  0  0  0
   35.8661   28.1052   22.9407 O   0  0  0  0  0  0  0  0  0  0  0  0
   35.5298   29.3283   25.1804 O   0  0  0  0  0  0  0  0  0  0  0  0
   36.8633   26.9009   25.2499 H   0  0  0  0  0  0  0  0  0  0  0  0
   35.2290   27.4266   23.2137 H   0  0  0  0  0  0  0  0  0  0  0  0
   42.0549   28.8132   20.7022 N   0  0  0  0  0  0  0  0  0  0  0  0
   42.9298   28.6991   19.7048 C   0  0  0  0  0  0  0  0  0  0  0  0
   44.1280   28.9563   19.8278 O   0  0  0  0  0  0  0  0  0  0  0  0
   42.4191   29.1061   21.5687 H   0  0  0  0  0  0  0  0  0  0  0  0
   42.3940   28.2255   18.3499 C   0  0  0  0  0  0  0  0  0  0  0  0
   42.4516   29.5522   17.1250 P   0  0  0  0  0  0  0  0  0  0  0  0
   43.9627   30.1026   17.1670 O   0  0  0  0  0  0  0  0  0  0  0  0
   41.5120   30.7207   17.7108 O   0  0  0  0  0  0  0  0  0  0  0  0
   42.0622   29.0998   15.7656 O   0  0  0  0  0  0  0  0  0  0  0  0
   44.1782   30.3873   18.0689 H   0  0  0  0  0  0  0  0  0  0  0  0
   41.8190   30.9688   18.5969 H   0  0  0  0  0  0  0  0  0  0  0  0
 12 13  1  0  0  0
 13 14  1  0  0  0
 13 15  2  0  0  0
 13 11  1  0  0  0
 11  7  1  0  0  0
  7  8  2  0  0  0
  7  9  1  0  0  0
  9  1  1  0  0  0
  1  2  1  0  0  0
  1  3  2  0  0  0
  2  6  2  0  0  0
  3  4  1  0  0  0
  4  5  2  0  0  0
  5  6  1  0  0  0
  6 18  1  0  0  0
 18 19  1  0  0  0
 19 20  2  0  0  0
 19 22  1  0  0  0
 22 23  1  0  0  0
 23 24  1  0  0  0
 23 25  1  0  0  0
 23 26  2  0  0  0
 12 16  1  0  0  0
 14 17  1  0  0  0
  9 10  1  0  0  0
 18 21  1  0  0  0
 24 27  1  0  0  0
 25 28  1  0  0  0
M  END
> <minimizedAffinity>
-8.01815

$$$$
2FZG_EOB_A_611


 28 28  0  0  0  0  0  0  0  0999 V2000
   38.4745   27.2629   21.0391 C   0  0  0  0  0  0  0  0  0  0  0  0
   38.0483   27.5325   22.3353 C   0  0  0  0  0  0  0  0  0  0  0  0
   37.5150   27.0891   20.0381 C   0  0  0  0  0  0  0  0  0  0  0  0
   36.1631   27.1953   20.3332 C   0  0  0  0  0  0  0  0  0  0  0  0
   35.7501   27.4778   21.6306 C   0  0  0  0  0  0  0  0  0  0  0  0
   36.6970   27.6463   22.6422 C   0  0  0  0  0  0  0  0  0  0  0  0
   40.5151   28.1424   20.1249 C   0  0  0  0  0  0  0  0  0  0  0  0
   41.6955   27.9453   19.8265 O   0  0  0  0  0  0  0  0  0  0  0  0
   39.7581   27.1973   20.6809 N   0  0  0  0  0  0  0  0  0  0  0  0
   40.2051   26.3365   20.8497 H   0  0  0  0  0  0  0  0  0  0  0  0
   39.8908   29.5177   19.8542 C   0  0  0  0  0  0  0  0  0  0  0  0
   38.9168   31.6840   21.2024 O   0  0  0  0  0  0  0  0  0  0  0  0
   40.1639   30.6631   21.2301 P   0  0  0  0  0  0  0  0  0  0  0  0
   41.4631   31.5405   20.8567 O   0  0  0  0  0  0  0  0  0  0  0  0
   40.3146   29.9604   22.5329 O   0  0  0  0  0  0  0  0  0  0  0  0
   39.0090   32.3267   21.9231 H   0  0  0  0  0  0  0  0  0  0  0  0
   41.6445   32.1701   21.5719 H   0  0  0  0  0  0  0  0  0  0  0  0
   36.3565   27.8825   23.9096 N   0  0  0  0  0  0  0  0  0  0  0  0
   36.2856   29.0611   24.5252 C   0  0  0  0  0  0  0  0  0  0  0  0
   35.9433   29.1864   25.7017 O   0  0  0  0  0  0  0  0  0  0  0  0
   36.1312   27.0935   24.4536 H   0  0  0  0  0  0  0  0  0  0  0  0
   36.6503   30.3046   23.7081 C   0  0  0  0  0  0  0  0  0  0  0  0
   37.6734   31.4411   24.6700 P   0  0  0  0  0  0  0  0  0  0  0  0
   38.8720   30.5413   25.2545 O   0  0  0  0  0  0  0  0  0  0  0  0
   36.7655   31.8822   25.9240 O   0  0  0  0  0  0  0  0  0  0  0  0
   38.1768   32.5845   23.8676 O   0  0  0  0  0  0  0  0  0  0  0  0
   38.5033   29.8076   25.7708 H   0  0  0  0  0  0  0  0  0  0  0  0
   36.4705   31.0922   26.4034 H   0  0  0  0  0  0  0  0  0  0  0  0
 12 13  1  0  0  0
 13 14  1  0  0  0
 13 15  2  0  0  0
 13 11  1  0  0  0
 11  7  1  0  0  0
  7  8  2  0  0  0
  7  9  1  0  0  0
  9  1  1  0  0  0
  1  2  1  0  0  0
  1  3  2  0  0  0
  2  6  2  0  0  0
  3  4  1  0  0  0
  4  5  2  0  0  0
  5  6  1  0  0  0
  6 18  1  0  0  0
 18 19  1  0  0  0
 19 20  2  0  0  0
 19 22  1  0  0  0
 22 23  1  0  0  0
 23 24  1  0  0  0
 23 25  1  0  0  0
 23 26  2  0  0  0
 12 16  1  0  0  0
 14 17  1  0  0  0
  9 10  1  0  0  0
 18 21  1  0  0  0
 24 27  1  0  0  0
 25 28  1  0  0  0
M  END
> <minimizedAffinity>
-7.98931

$$$$
2FZG_EOB_A_611


 28 28  0  0  0  0  0  0  0  0999 V2000
   40.5633   28.3557   20.6107 C   0  0  0  0  0  0  0  0  0  0  0  0
   40.1376   29.6735   20.7399 C   0  0  0  0  0  0  0  0  0  0  0  0
   39.6180   27.3310   20.7069 C   0  0  0  0  0  0  0  0  0  0  0  0
   38.2784   27.6269   20.9163 C   0  0  0  0  0  0  0  0  0  0  0  0
   37.8634   28.9491   21.0312 C   0  0  0  0  0  0  0  0  0  0  0  0
   38.7975   29.9827   20.9448 C   0  0  0  0  0  0  0  0  0  0  0  0
   42.4319   27.8697   19.1805 C   0  0  0  0  0  0  0  0  0  0  0  0
   43.6122   27.5246   19.0862 O   0  0  0  0  0  0  0  0  0  0  0  0
   41.8266   28.0076   20.3595 N   0  0  0  0  0  0  0  0  0  0  0  0
   42.3856   27.8288   21.1500 H   0  0  0  0  0  0  0  0  0  0  0  0
   41.6279   28.1548   17.9051 C   0  0  0  0  0  0  0  0  0  0  0  0
   41.7125   29.6235   15.6039 O   0  0  0  0  0  0  0  0  0  0  0  0
   42.0761   29.7478   17.1693 P   0  0  0  0  0  0  0  0  0  0  0  0
   43.6819   29.8614   17.2436 O   0  0  0  0  0  0  0  0  0  0  0  0
   41.3993   30.8924   17.8369 O   0  0  0  0  0  0  0  0  0  0  0  0
   41.9328   30.4540   15.1539 H   0  0  0  0  0  0  0  0  0  0  0  0
   43.9645   30.7052   16.8575 H   0  0  0  0  0  0  0  0  0  0  0  0
   38.4611   31.2654   21.0838 N   0  0  0  0  0  0  0  0  0  0  0  0
   38.5358   32.0098   22.1855 C   0  0  0  0  0  0  0  0  0  0  0  0
   38.2166   33.1989   22.2172 O   0  0  0  0  0  0  0  0  0  0  0  0
   38.1173   31.7146   20.2781 H   0  0  0  0  0  0  0  0  0  0  0  0
   39.0484   31.3309   23.4596 C   0  0  0  0  0  0  0  0  0  0  0  0
   37.6814   30.8481   24.5375 P   0  0  0  0  0  0  0  0  0  0  0  0
   36.3554   31.4024   23.8147 O   0  0  0  0  0  0  0  0  0  0  0  0
   37.8721   31.7062   25.8861 O   0  0  0  0  0  0  0  0  0  0  0  0
   37.6178   29.3827   24.7679 O   0  0  0  0  0  0  0  0  0  0  0  0
   36.4355   32.3599   23.6824 H   0  0  0  0  0  0  0  0  0  0  0  0
   37.9057   32.6505   25.6665 H   0  0  0  0  0  0  0  0  0  0  0  0
 12 13  1  0  0  0
 13 14  1  0  0  0
 13 15  2  0  0  0
 13 11  1  0  0  0
 11  7  1  0  0  0
  7  8  2  0  0  0
  7  9  1  0  0  0
  9  1  1  0  0  0
  1  2  1  0  0  0
  1  3  2  0  0  0
  2  6  2  0  0  0
  3  4  1  0  0  0
  4  5  2  0  0  0
  5  6  1  0  0  0
  6 18  1  0  0  0
 18 19  1  0  0  0
 19 20  2  0  0  0
 19 22  1  0  0  0
 22 23  1  0  0  0
 23 24  1  0  0  0
 23 25  1  0  0  0
 23 26  2  0  0  0
 12 16  1  0  0  0
 14 17  1  0  0  0
  9 10  1  0  0  0
 18 21  1  0  0  0
 24 27  1  0  0  0
 25 28  1  0  0  0
M  END
> <minimizedAffinity>
-7.90358

$$$$
2FZG_EOB_A_611


 28 28  0  0  0  0  0  0  0  0999 V2000
   40.4225   28.5327   20.2837 C   0  0  0  0  0  0  0  0  0  0  0  0
   39.5303   29.5228   20.6814 C   0  0  0  0  0  0  0  0  0  0  0  0
   39.9236   27.2677   19.9616 C   0  0  0  0  0  0  0  0  0  0  0  0
   38.5614   27.0108   20.0278 C   0  0  0  0  0  0  0  0  0  0  0  0
   37.6783   28.0127   20.4146 C   0  0  0  0  0  0  0  0  0  0  0  0
   38.1629   29.2789   20.7465 C   0  0  0  0  0  0  0  0  0  0  0  0
   42.4000   29.2384   19.1154 C   0  0  0  0  0  0  0  0  0  0  0  0
   43.6280   29.3533   19.1166 O   0  0  0  0  0  0  0  0  0  0  0  0
   41.7357   28.7294   20.1523 N   0  0  0  0  0  0  0  0  0  0  0  0
   42.2866   28.4633   20.9235 H   0  0  0  0  0  0  0  0  0  0  0  0
   41.6033   29.6965   17.8867 C   0  0  0  0  0  0  0  0  0  0  0  0
   39.9786   28.1050   16.3745 O   0  0  0  0  0  0  0  0  0  0  0  0
   41.5430   28.4154   16.6081 P   0  0  0  0  0  0  0  0  0  0  0  0
   42.1680   27.0788   17.2561 O   0  0  0  0  0  0  0  0  0  0  0  0
   42.2501   28.8213   15.3635 O   0  0  0  0  0  0  0  0  0  0  0  0
   39.8830   27.4202   15.6941 H   0  0  0  0  0  0  0  0  0  0  0  0
   42.1541   26.3644   16.6001 H   0  0  0  0  0  0  0  0  0  0  0  0
   37.3660   30.2654   21.1585 N   0  0  0  0  0  0  0  0  0  0  0  0
   37.0838   30.6110   22.4131 C   0  0  0  0  0  0  0  0  0  0  0  0
   36.3449   31.5532   22.7017 O   0  0  0  0  0  0  0  0  0  0  0  0
   36.9361   30.8005   20.4528 H   0  0  0  0  0  0  0  0  0  0  0  0
   37.7232   29.7824   23.5318 C   0  0  0  0  0  0  0  0  0  0  0  0
   36.5235   28.6566   24.2780 P   0  0  0  0  0  0  0  0  0  0  0  0
   37.4014   27.5637   25.0672 O   0  0  0  0  0  0  0  0  0  0  0  0
   35.8245   27.8929   23.0452 O   0  0  0  0  0  0  0  0  0  0  0  0
   35.5616   29.3484   25.1727 O   0  0  0  0  0  0  0  0  0  0  0  0
   38.0153   27.1354   24.4503 H   0  0  0  0  0  0  0  0  0  0  0  0
   36.5049   27.4643   22.5027 H   0  0  0  0  0  0  0  0  0  0  0  0
 12 13  1  0  0  0
 13 14  1  0  0  0
 13 15  2  0  0  0
 13 11  1  0  0  0
 11  7  1  0  0  0
  7  8  2  0  0  0
  7  9  1  0  0  0
  9  1  1  0  0  0
  1  2  1  0  0  0
  1  3  2  0  0  0
  2  6  2  0  0  0
  3  4  1  0  0  0
  4  5  2  0  0  0
  5  6  1  0  0  0
  6 18  1  0  0  0
 18 19  1  0  0  0
 19 20  2  0  0  0
 19 22  1  0  0  0
 22 23  1  0  0  0
 23 24  1  0  0  0
 23 25  1  0  0  0
 23 26  2  0  0  0
 12 16  1  0  0  0
 14 17  1  0  0  0
  9 10  1  0  0  0
 18 21  1  0  0  0
 24 27  1  0  0  0
 25 28  1  0  0  0
M  END
> <minimizedAffinity>
-7.85239

$$$$
2FZG_EOB_A_611


 28 28  0  0  0  0  0  0  0  0999 V2000
   39.3844   29.5921   18.6113 C   0  0  0  0  0  0  0  0  0  0  0  0
   40.7223   29.9724   18.6086 C   0  0  0  0  0  0  0  0  0  0  0  0
   38.9899   28.5147   17.8134 C   0  0  0  0  0  0  0  0  0  0  0  0
   39.9203   27.8321   17.0426 C   0  0  0  0  0  0  0  0  0  0  0  0
   41.2573   28.2140   17.0583 C   0  0  0  0  0  0  0  0  0  0  0  0
   41.6646   29.2931   17.8445 C   0  0  0  0  0  0  0  0  0  0  0  0
   38.1982   29.9933   20.6619 C   0  0  0  0  0  0  0  0  0  0  0  0
   37.2873   30.5898   21.2413 O   0  0  0  0  0  0  0  0  0  0  0  0
   38.4511   30.1745   19.3663 N   0  0  0  0  0  0  0  0  0  0  0  0
   37.8729   30.8242   18.9050 H   0  0  0  0  0  0  0  0  0  0  0  0
   39.0752   29.0120   21.4506 C   0  0  0  0  0  0  0  0  0  0  0  0
   36.9770   27.4485   20.6681 O   0  0  0  0  0  0  0  0  0  0  0  0
   38.3182   27.3704   21.5587 P   0  0  0  0  0  0  0  0  0  0  0  0
   37.8281   27.1814   23.0822 O   0  0  0  0  0  0  0  0  0  0  0  0
   39.2438   26.2884   21.1268 O   0  0  0  0  0  0  0  0  0  0  0  0
   36.5250   26.5905   20.6884 H   0  0  0  0  0  0  0  0  0  0  0  0
   37.4145   26.3097   23.1831 H   0  0  0  0  0  0  0  0  0  0  0  0
   42.9259   29.7248   17.8697 N   0  0  0  0  0  0  0  0  0  0  0  0
   43.9390   29.2317   18.5794 C   0  0  0  0  0  0  0  0  0  0  0  0
   45.0821   29.6872   18.5269 O   0  0  0  0  0  0  0  0  0  0  0  0
   43.1322   30.4985   17.2968 H   0  0  0  0  0  0  0  0  0  0  0  0
   43.6419   28.0400   19.4952 C   0  0  0  0  0  0  0  0  0  0  0  0
   43.9825   28.4432   21.2229 P   0  0  0  0  0  0  0  0  0  0  0  0
   45.3729   29.2523   21.2033 O   0  0  0  0  0  0  0  0  0  0  0  0
   44.2718   27.0340   21.9454 O   0  0  0  0  0  0  0  0  0  0  0  0
   42.8927   29.2260   21.8586 O   0  0  0  0  0  0  0  0  0  0  0  0
   46.0571   28.7092   20.7816 H   0  0  0  0  0  0  0  0  0  0  0  0
   44.9908   26.5753   21.4833 H   0  0  0  0  0  0  0  0  0  0  0  0
 12 13  1  0  0  0
 13 14  1  0  0  0
 13 15  2  0  0  0
 13 11  1  0  0  0
 11  7  1  0  0  0
  7  8  2  0  0  0
  7  9  1  0  0  0
  9  1  1  0  0  0
  1  2  1  0  0  0
  1  3  2  0  0  0
  2  6  2  0  0  0
  3  4  1  0  0  0
  4  5  2  0  0  0
  5  6  1  0  0  0
  6 18  1  0  0  0
 18 19  1  0  0  0
 19 20  2  0  0  0
 19 22  1  0  0  0
 22 23  1  0  0  0
 23 24  1  0  0  0
 23 25  1  0  0  0
 23 26  2  0  0  0
 12 16  1  0  0  0
 14 17  1  0  0  0
  9 10  1  0  0  0
 18 21  1  0  0  0
 24 27  1  0  0  0
 25 28  1  0  0  0
M  END
> <minimizedAffinity>
-7.83502

$$$$
2FZG_EOB_A_611


 28 28  0  0  0  0  0  0  0  0999 V2000
   39.8592   27.7889   20.5312 C   0  0  0  0  0  0  0  0  0  0  0  0
   39.1386   28.9340   20.8540 C   0  0  0  0  0  0  0  0  0  0  0  0
   39.1640   26.5970   20.3100 C   0  0  0  0  0  0  0  0  0  0  0  0
   37.7796   26.5626   20.4006 C   0  0  0  0  0  0  0  0  0  0  0  0
   37.0698   27.7171   20.7117 C   0  0  0  0  0  0  0  0  0  0  0  0
   37.7512   28.9132   20.9427 C   0  0  0  0  0  0  0  0  0  0  0  0
   41.8999   27.9993   19.2804 C   0  0  0  0  0  0  0  0  0  0  0  0
   43.1313   27.9311   19.2729 O   0  0  0  0  0  0  0  0  0  0  0  0
   41.1847   27.7668   20.3803 N   0  0  0  0  0  0  0  0  0  0  0  0
   41.7030   27.5499   21.1888 H   0  0  0  0  0  0  0  0  0  0  0  0
   41.1594   28.3662   17.9876 C   0  0  0  0  0  0  0  0  0  0  0  0
   43.2482   29.9547   17.2306 O   0  0  0  0  0  0  0  0  0  0  0  0
   42.3071   28.7820   16.6498 P   0  0  0  0  0  0  0  0  0  0  0  0
   41.4322   29.4564   15.4764 O   0  0  0  0  0  0  0  0  0  0  0  0
   43.0744   27.6004   16.1716 O   0  0  0  0  0  0  0  0  0  0  0  0
   43.8888   30.2208   16.5526 H   0  0  0  0  0  0  0  0  0  0  0  0
   42.0126   29.6953   14.7368 H   0  0  0  0  0  0  0  0  0  0  0  0
   37.1245   30.0408   21.2797 N   0  0  0  0  0  0  0  0  0  0  0  0
   37.0400   30.5928   22.4885 C   0  0  0  0  0  0  0  0  0  0  0  0
   36.4503   31.6522   22.7049 O   0  0  0  0  0  0  0  0  0  0  0  0
   36.6713   30.5213   20.5496 H   0  0  0  0  0  0  0  0  0  0  0  0
   37.7190   29.8558   23.6473 C   0  0  0  0  0  0  0  0  0  0  0  0
   36.5555   28.7694   24.5015 P   0  0  0  0  0  0  0  0  0  0  0  0
   36.1074   29.5789   25.8175 O   0  0  0  0  0  0  0  0  0  0  0  0
   37.4274   27.5115   25.0006 O   0  0  0  0  0  0  0  0  0  0  0  0
   35.3932   28.3916   23.6584 O   0  0  0  0  0  0  0  0  0  0  0  0
   36.8924   29.8067   26.3399 H   0  0  0  0  0  0  0  0  0  0  0  0
   38.1671   27.8259   25.5436 H   0  0  0  0  0  0  0  0  0  0  0  0
 12 13  1  0  0  0
 13 14  1  0  0  0
 13 15  2  0  0  0
 13 11  1  0  0  0
 11  7  1  0  0  0
  7  8  2  0  0  0
  7  9  1  0  0  0
  9  1  1  0  0  0
  1  2  1  0  0  0
  1  3  2  0  0  0
  2  6  2  0  0  0
  3  4  1  0  0  0
  4  5  2  0  0  0
  5  6  1  0  0  0
  6 18  1  0  0  0
 18 19  1  0  0  0
 19 20  2  0  0  0
 19 22  1  0  0  0
 22 23  1  0  0  0
 23 24  1  0  0  0
 23 25  1  0  0  0
 23 26  2  0  0  0
 12 16  1  0  0  0
 14 17  1  0  0  0
  9 10  1  0  0  0
 18 21  1  0  0  0
 24 27  1  0  0  0
 25 28  1  0  0  0
M  END
> <minimizedAffinity>
-7.78032

$$$$
