1RMZ_NGH_A_269


 23 23  0  0  0  0  0  0  0  0999 V2000
    7.2875   26.4228    3.5033 N   0  0  0  0  0  0  0  0  0  0  0  0
    7.6333   24.9148    3.7556 S   0  0  0  0  0  0  0  0  0  0  0  0
    7.4879   24.3387    2.3453 O   0  0  0  0  0  0  0  0  0  0  0  0
    8.9991   24.6373    4.4364 O   0  0  0  0  0  0  0  0  0  0  0  0
    6.5642   23.1434    5.5157 C   0  0  0  0  0  0  0  0  0  0  0  0
    5.3717   22.5711    6.2326 C   0  0  0  0  0  0  0  0  0  0  0  0
    4.0496   23.2878    6.0491 C   0  0  0  0  0  0  0  0  0  0  0  0
    3.8362   24.3325    5.0116 C   0  0  0  0  0  0  0  0  0  0  0  0
    5.0045   24.8568    4.3023 C   0  0  0  0  0  0  0  0  0  0  0  0
    6.3773   24.4001    4.7208 C   0  0  0  0  0  0  0  0  0  0  0  0
    2.8341   22.6507    6.3638 O   0  0  0  0  0  0  0  0  0  0  0  0
    2.8397   21.7212    7.4436 C   0  0  0  0  0  0  0  0  0  0  0  0
    6.6421   26.8630    2.2516 C   0  0  0  0  0  0  0  0  0  0  0  0
    7.4534   27.9100    1.4580 C   0  0  0  0  0  0  0  0  0  0  0  0
    6.5737   29.0645    1.0209 C   0  0  0  0  0  0  0  0  0  0  0  0
    8.1677   27.2973    0.2492 C   0  0  0  0  0  0  0  0  0  0  0  0
    7.7845   27.4463    4.4474 C   0  0  0  0  0  0  0  0  0  0  0  0
    6.5026   28.0918    4.9958 C   0  0  0  0  0  0  0  0  0  0  0  0
    6.3972   29.5110    4.9709 N   0  0  0  0  0  0  0  0  0  0  0  0
    5.3118   30.0438    5.3596 O   0  0  0  0  0  0  0  0  0  0  0  0
    6.0680   27.7176    6.2525 O   0  0  0  0  0  0  0  0  0  0  0  0
    7.1480   30.0666    4.6596 H   0  0  0  0  0  0  0  0  0  0  0  0
    4.6893   29.3501    5.6284 H   0  0  0  0  0  0  0  0  0  0  0  0
  5  6  2  0  0  0
  5 10  1  0  0  0
  6  7  1  0  0  0
  7  8  2  0  0  0
  7 11  1  0  0  0
  8  9  1  0  0  0
  9 10  2  0  0  0
 10  2  1  0  0  0
 11 12  1  0  0  0
  2  3  2  0  0  0
  2  4  2  0  0  0
  2  1  1  0  0  0
  1 13  1  0  0  0
  1 17  1  0  0  0
 13 14  1  0  0  0
 17 18  1  0  0  0
 18 19  1  0  0  0
 18 21  2  0  0  0
 19 20  1  0  0  0
 14 15  1  0  0  0
 14 16  1  0  0  0
 19 22  1  0  0  0
 20 23  1  0  0  0
M  END
> <minimizedAffinity>
-7.35693

$$$$
1RMZ_NGH_A_269


 23 23  0  0  0  0  0  0  0  0999 V2000
    7.6901   27.2930    2.7374 N   0  0  0  0  0  0  0  0  0  0  0  0
    7.4997   27.2040    4.2907 S   0  0  0  0  0  0  0  0  0  0  0  0
    8.9534   27.1240    4.7622 O   0  0  0  0  0  0  0  0  0  0  0  0
    6.6652   28.3402    4.9376 O   0  0  0  0  0  0  0  0  0  0  0  0
    5.2818   25.7225    4.8055 C   0  0  0  0  0  0  0  0  0  0  0  0
    4.6425   24.4126    5.1783 C   0  0  0  0  0  0  0  0  0  0  0  0
    5.5503   23.2025    5.2596 C   0  0  0  0  0  0  0  0  0  0  0  0
    7.0345   23.3064    5.2535 C   0  0  0  0  0  0  0  0  0  0  0  0
    7.6397   24.5964    4.9180 C   0  0  0  0  0  0  0  0  0  0  0  0
    6.7471   25.7317    4.4908 C   0  0  0  0  0  0  0  0  0  0  0  0
    5.1410   22.0379    5.9366 O   0  0  0  0  0  0  0  0  0  0  0  0
    3.8938   22.0815    6.6240 C   0  0  0  0  0  0  0  0  0  0  0  0
    6.6238   27.8171    1.8624 C   0  0  0  0  0  0  0  0  0  0  0  0
    6.9679   29.1612    1.1846 C   0  0  0  0  0  0  0  0  0  0  0  0
    6.4301   30.3297    1.9866 C   0  0  0  0  0  0  0  0  0  0  0  0
    6.4630   29.2294   -0.2602 C   0  0  0  0  0  0  0  0  0  0  0  0
    8.8783   26.6686    2.1175 C   0  0  0  0  0  0  0  0  0  0  0  0
    8.2846   25.6696    1.1125 C   0  0  0  0  0  0  0  0  0  0  0  0
    8.4544   24.2787    1.3625 N   0  0  0  0  0  0  0  0  0  0  0  0
    7.9061   23.4506    0.5709 O   0  0  0  0  0  0  0  0  0  0  0  0
    8.5790   25.8362   -0.2268 O   0  0  0  0  0  0  0  0  0  0  0  0
    8.9843   23.9659    2.1310 H   0  0  0  0  0  0  0  0  0  0  0  0
    7.4287   23.9332   -0.1221 H   0  0  0  0  0  0  0  0  0  0  0  0
  5  6  2  0  0  0
  5 10  1  0  0  0
  6  7  1  0  0  0
  7  8  2  0  0  0
  7 11  1  0  0  0
  8  9  1  0  0  0
  9 10  2  0  0  0
 10  2  1  0  0  0
 11 12  1  0  0  0
  2  3  2  0  0  0
  2  4  2  0  0  0
  2  1  1  0  0  0
  1 13  1  0  0  0
  1 17  1  0  0  0
 13 14  1  0  0  0
 17 18  1  0  0  0
 18 19  1  0  0  0
 18 21  2  0  0  0
 19 20  1  0  0  0
 14 15  1  0  0  0
 14 16  1  0  0  0
 19 22  1  0  0  0
 20 23  1  0  0  0
M  END
> <minimizedAffinity>
-7.07864

$$$$
1RMZ_NGH_A_269


 23 23  0  0  0  0  0  0  0  0999 V2000
    6.9450   26.0029    4.8667 N   0  0  0  0  0  0  0  0  0  0  0  0
    6.2674   24.8507    4.0479 S   0  0  0  0  0  0  0  0  0  0  0  0
    5.4141   25.6517    3.0618 O   0  0  0  0  0  0  0  0  0  0  0  0
    7.2311   23.8259    3.3946 O   0  0  0  0  0  0  0  0  0  0  0  0
    5.8736   22.9776    5.9754 C   0  0  0  0  0  0  0  0  0  0  0  0
    4.9481   22.1814    6.8546 C   0  0  0  0  0  0  0  0  0  0  0  0
    3.4803   22.5556    6.8256 C   0  0  0  0  0  0  0  0  0  0  0  0
    2.8997   23.4618    5.7984 C   0  0  0  0  0  0  0  0  0  0  0  0
    3.8143   24.2062    4.9311 C   0  0  0  0  0  0  0  0  0  0  0  0
    5.2966   24.1092    5.1800 C   0  0  0  0  0  0  0  0  0  0  0  0
    2.5002   21.6689    7.3106 O   0  0  0  0  0  0  0  0  0  0  0  0
    1.1445   21.9330    6.9610 C   0  0  0  0  0  0  0  0  0  0  0  0
    6.1500   26.9121    5.7142 C   0  0  0  0  0  0  0  0  0  0  0  0
    6.9013   28.1904    6.1456 C   0  0  0  0  0  0  0  0  0  0  0  0
    6.7313   28.4479    7.6297 C   0  0  0  0  0  0  0  0  0  0  0  0
    6.4688   29.4188    5.3389 C   0  0  0  0  0  0  0  0  0  0  0  0
    8.3746   26.3056    4.6417 C   0  0  0  0  0  0  0  0  0  0  0  0
    8.4527   26.6067    3.1371 C   0  0  0  0  0  0  0  0  0  0  0  0
    9.5005   26.0082    2.3822 N   0  0  0  0  0  0  0  0  0  0  0  0
    9.5272   26.1999    1.1270 O   0  0  0  0  0  0  0  0  0  0  0  0
    8.4218   27.9269    2.7318 O   0  0  0  0  0  0  0  0  0  0  0  0
   10.1883   25.4586    2.8227 H   0  0  0  0  0  0  0  0  0  0  0  0
    8.7788   26.7607    0.8695 H   0  0  0  0  0  0  0  0  0  0  0  0
  5  6  2  0  0  0
  5 10  1  0  0  0
  6  7  1  0  0  0
  7  8  2  0  0  0
  7 11  1  0  0  0
  8  9  1  0  0  0
  9 10  2  0  0  0
 10  2  1  0  0  0
 11 12  1  0  0  0
  2  3  2  0  0  0
  2  4  2  0  0  0
  2  1  1  0  0  0
  1 13  1  0  0  0
  1 17  1  0  0  0
 13 14  1  0  0  0
 17 18  1  0  0  0
 18 19  1  0  0  0
 18 21  2  0  0  0
 19 20  1  0  0  0
 14 15  1  0  0  0
 14 16  1  0  0  0
 19 22  1  0  0  0
 20 23  1  0  0  0
M  END
> <minimizedAffinity>
-7.00545

$$$$
1RMZ_NGH_A_269


 23 23  0  0  0  0  0  0  0  0999 V2000
    7.4883   26.2543    3.3072 N   0  0  0  0  0  0  0  0  0  0  0  0
    7.7593   24.7540    3.6713 S   0  0  0  0  0  0  0  0  0  0  0  0
    7.5838   24.0828    2.3073 O   0  0  0  0  0  0  0  0  0  0  0  0
    9.1105   24.4605    4.3742 O   0  0  0  0  0  0  0  0  0  0  0  0
    6.6125   23.1826    5.5673 C   0  0  0  0  0  0  0  0  0  0  0  0
    5.3954   22.7228    6.3226 C   0  0  0  0  0  0  0  0  0  0  0  0
    4.1051   23.4762    6.0722 C   0  0  0  0  0  0  0  0  0  0  0  0
    3.9382   24.4382    4.9496 C   0  0  0  0  0  0  0  0  0  0  0  0
    5.1292   24.8519    4.2057 C   0  0  0  0  0  0  0  0  0  0  0  0
    6.4806   24.3750    4.6689 C   0  0  0  0  0  0  0  0  0  0  0  0
    2.8631   22.9191    6.4320 O   0  0  0  0  0  0  0  0  0  0  0  0
    2.8744   21.8144    7.3317 C   0  0  0  0  0  0  0  0  0  0  0  0
    7.9331   27.3504    4.1891 C   0  0  0  0  0  0  0  0  0  0  0  0
    6.7795   28.1350    4.8510 C   0  0  0  0  0  0  0  0  0  0  0  0
    6.9609   29.6288    4.6683 C   0  0  0  0  0  0  0  0  0  0  0  0
    6.6229   27.7952    6.3366 C   0  0  0  0  0  0  0  0  0  0  0  0
    6.6095   26.5730    2.1616 C   0  0  0  0  0  0  0  0  0  0  0  0
    7.5757   27.1219    1.1006 C   0  0  0  0  0  0  0  0  0  0  0  0
    8.8215   26.4592    0.9145 N   0  0  0  0  0  0  0  0  0  0  0  0
    9.5924   26.8685   -0.0082 O   0  0  0  0  0  0  0  0  0  0  0  0
    7.8816   28.4686    1.1289 O   0  0  0  0  0  0  0  0  0  0  0  0
    9.0796   25.7014    1.4875 H   0  0  0  0  0  0  0  0  0  0  0  0
    9.1789   27.6165   -0.4669 H   0  0  0  0  0  0  0  0  0  0  0  0
  5  6  2  0  0  0
  5 10  1  0  0  0
  6  7  1  0  0  0
  7  8  2  0  0  0
  7 11  1  0  0  0
  8  9  1  0  0  0
  9 10  2  0  0  0
 10  2  1  0  0  0
 11 12  1  0  0  0
  2  3  2  0  0  0
  2  4  2  0  0  0
  2  1  1  0  0  0
  1 13  1  0  0  0
  1 17  1  0  0  0
 13 14  1  0  0  0
 17 18  1  0  0  0
 18 19  1  0  0  0
 18 21  2  0  0  0
 19 20  1  0  0  0
 14 15  1  0  0  0
 14 16  1  0  0  0
 19 22  1  0  0  0
 20 23  1  0  0  0
M  END
> <minimizedAffinity>
-6.74084

$$$$
1RMZ_NGH_A_269


 23 23  0  0  0  0  0  0  0  0999 V2000
    7.0115   25.9678    4.1395 N   0  0  0  0  0  0  0  0  0  0  0  0
    8.2314   25.1942    3.5308 S   0  0  0  0  0  0  0  0  0  0  0  0
    9.4029   25.9198    4.1962 O   0  0  0  0  0  0  0  0  0  0  0  0
    8.2225   23.6551    3.7234 O   0  0  0  0  0  0  0  0  0  0  0  0
    8.3970   24.5021    0.9092 C   0  0  0  0  0  0  0  0  0  0  0  0
    8.5209   24.8888   -0.5394 C   0  0  0  0  0  0  0  0  0  0  0  0
    8.4427   26.3661   -0.8661 C   0  0  0  0  0  0  0  0  0  0  0  0
    8.5197   27.4269    0.1742 C   0  0  0  0  0  0  0  0  0  0  0  0
    8.4277   27.0298    1.5802 C   0  0  0  0  0  0  0  0  0  0  0  0
    8.1535   25.5870    1.9141 C   0  0  0  0  0  0  0  0  0  0  0  0
    8.9005   26.8563   -2.1040 O   0  0  0  0  0  0  0  0  0  0  0  0
    8.7358   26.0179   -3.2442 C   0  0  0  0  0  0  0  0  0  0  0  0
    7.1610   26.8151    5.3382 C   0  0  0  0  0  0  0  0  0  0  0  0
    6.7289   28.2830    5.1309 C   0  0  0  0  0  0  0  0  0  0  0  0
    7.8726   29.1165    4.5879 C   0  0  0  0  0  0  0  0  0  0  0  0
    6.1734   28.9117    6.4127 C   0  0  0  0  0  0  0  0  0  0  0  0
    5.6530   25.6977    3.6223 C   0  0  0  0  0  0  0  0  0  0  0  0
    5.0036   24.8477    4.7253 C   0  0  0  0  0  0  0  0  0  0  0  0
    5.4845   23.5236    4.9285 N   0  0  0  0  0  0  0  0  0  0  0  0
    4.9971   22.8432    5.8838 O   0  0  0  0  0  0  0  0  0  0  0  0
    3.6265   24.7405    4.7429 O   0  0  0  0  0  0  0  0  0  0  0  0
    6.1785   23.1441    4.3424 H   0  0  0  0  0  0  0  0  0  0  0  0
    4.3316   23.3722    6.3509 H   0  0  0  0  0  0  0  0  0  0  0  0
  5  6  2  0  0  0
  5 10  1  0  0  0
  6  7  1  0  0  0
  7  8  2  0  0  0
  7 11  1  0  0  0
  8  9  1  0  0  0
  9 10  2  0  0  0
 10  2  1  0  0  0
 11 12  1  0  0  0
  2  3  2  0  0  0
  2  4  2  0  0  0
  2  1  1  0  0  0
  1 13  1  0  0  0
  1 17  1  0  0  0
 13 14  1  0  0  0
 17 18  1  0  0  0
 18 19  1  0  0  0
 18 21  2  0  0  0
 19 20  1  0  0  0
 14 15  1  0  0  0
 14 16  1  0  0  0
 19 22  1  0  0  0
 20 23  1  0  0  0
M  END
> <minimizedAffinity>
-6.29616

$$$$
1RMZ_NGH_A_269


 23 23  0  0  0  0  0  0  0  0999 V2000
    7.8987   26.5574    2.8215 N   0  0  0  0  0  0  0  0  0  0  0  0
    8.0879   26.0067    4.2769 S   0  0  0  0  0  0  0  0  0  0  0  0
    9.3485   25.1555    4.1089 O   0  0  0  0  0  0  0  0  0  0  0  0
    8.1654   27.0732    5.4005 O   0  0  0  0  0  0  0  0  0  0  0  0
    5.3969   25.6560    4.3963 C   0  0  0  0  0  0  0  0  0  0  0  0
    4.2030   24.8215    4.7728 C   0  0  0  0  0  0  0  0  0  0  0  0
    4.4747   23.4149    5.2658 C   0  0  0  0  0  0  0  0  0  0  0  0
    5.8347   22.9397    5.6373 C   0  0  0  0  0  0  0  0  0  0  0  0
    6.9831   23.7784    5.2903 C   0  0  0  0  0  0  0  0  0  0  0  0
    6.7553   25.0289    4.4823 C   0  0  0  0  0  0  0  0  0  0  0  0
    3.4917   22.6957    5.9720 O   0  0  0  0  0  0  0  0  0  0  0  0
    3.9178   21.9309    7.0961 C   0  0  0  0  0  0  0  0  0  0  0  0
    7.5111   25.6687    1.7092 C   0  0  0  0  0  0  0  0  0  0  0  0
    8.5831   25.5351    0.6059 C   0  0  0  0  0  0  0  0  0  0  0  0
    8.3364   26.5236   -0.5165 C   0  0  0  0  0  0  0  0  0  0  0  0
    8.6711   24.1100    0.0507 C   0  0  0  0  0  0  0  0  0  0  0  0
    8.2973   27.9483    2.5172 C   0  0  0  0  0  0  0  0  0  0  0  0
    6.9779   28.7320    2.5924 C   0  0  0  0  0  0  0  0  0  0  0  0
    6.6003   29.5274    1.4740 N   0  0  0  0  0  0  0  0  0  0  0  0
    5.4782   30.1214    1.5057 O   0  0  0  0  0  0  0  0  0  0  0  0
    6.7532   29.5297    3.6975 O   0  0  0  0  0  0  0  0  0  0  0  0
    7.1950   29.6150    0.6943 H   0  0  0  0  0  0  0  0  0  0  0  0
    5.0308   29.9230    2.3432 H   0  0  0  0  0  0  0  0  0  0  0  0
  5  6  2  0  0  0
  5 10  1  0  0  0
  6  7  1  0  0  0
  7  8  2  0  0  0
  7 11  1  0  0  0
  8  9  1  0  0  0
  9 10  2  0  0  0
 10  2  1  0  0  0
 11 12  1  0  0  0
  2  3  2  0  0  0
  2  4  2  0  0  0
  2  1  1  0  0  0
  1 13  1  0  0  0
  1 17  1  0  0  0
 13 14  1  0  0  0
 17 18  1  0  0  0
 18 19  1  0  0  0
 18 21  2  0  0  0
 19 20  1  0  0  0
 14 15  1  0  0  0
 14 16  1  0  0  0
 19 22  1  0  0  0
 20 23  1  0  0  0
M  END
> <minimizedAffinity>
-6.19480

$$$$
1RMZ_NGH_A_269


 23 23  0  0  0  0  0  0  0  0999 V2000
    7.0163   25.9925    4.5810 N   0  0  0  0  0  0  0  0  0  0  0  0
    7.8931   25.3594    3.4463 S   0  0  0  0  0  0  0  0  0  0  0  0
    9.2544   25.2711    4.1396 O   0  0  0  0  0  0  0  0  0  0  0  0
    7.3740   24.0229    2.8544 O   0  0  0  0  0  0  0  0  0  0  0  0
    6.6600   27.3360    2.0492 C   0  0  0  0  0  0  0  0  0  0  0  0
    6.6156   28.2736    0.8735 C   0  0  0  0  0  0  0  0  0  0  0  0
    7.8366   28.3113   -0.0228 C   0  0  0  0  0  0  0  0  0  0  0  0
    8.9241   27.2989    0.0536 C   0  0  0  0  0  0  0  0  0  0  0  0
    8.9349   26.3745    1.1886 C   0  0  0  0  0  0  0  0  0  0  0  0
    7.9151   26.5510    2.2828 C   0  0  0  0  0  0  0  0  0  0  0  0
    7.7642   28.8596   -1.3175 O   0  0  0  0  0  0  0  0  0  0  0  0
    8.1954   28.0425   -2.4021 C   0  0  0  0  0  0  0  0  0  0  0  0
    5.5811   25.6749    4.7091 C   0  0  0  0  0  0  0  0  0  0  0  0
    5.2906   24.2006    5.0646 C   0  0  0  0  0  0  0  0  0  0  0  0
    3.8133   23.9836    5.3258 C   0  0  0  0  0  0  0  0  0  0  0  0
    6.1193   23.7167    6.2588 C   0  0  0  0  0  0  0  0  0  0  0  0
    7.5860   27.0684    5.4199 C   0  0  0  0  0  0  0  0  0  0  0  0
    6.3795   27.9669    5.7322 C   0  0  0  0  0  0  0  0  0  0  0  0
    6.3233   29.2554    5.1302 N   0  0  0  0  0  0  0  0  0  0  0  0
    5.2947   29.9727    5.3317 O   0  0  0  0  0  0  0  0  0  0  0  0
    6.0403   28.1696    7.0559 O   0  0  0  0  0  0  0  0  0  0  0  0
    7.0642   29.5829    4.5708 H   0  0  0  0  0  0  0  0  0  0  0  0
    4.6729   29.4936    5.9014 H   0  0  0  0  0  0  0  0  0  0  0  0
  5  6  2  0  0  0
  5 10  1  0  0  0
  6  7  1  0  0  0
  7  8  2  0  0  0
  7 11  1  0  0  0
  8  9  1  0  0  0
  9 10  2  0  0  0
 10  2  1  0  0  0
 11 12  1  0  0  0
  2  3  2  0  0  0
  2  4  2  0  0  0
  2  1  1  0  0  0
  1 13  1  0  0  0
  1 17  1  0  0  0
 13 14  1  0  0  0
 17 18  1  0  0  0
 18 19  1  0  0  0
 18 21  2  0  0  0
 19 20  1  0  0  0
 14 15  1  0  0  0
 14 16  1  0  0  0
 19 22  1  0  0  0
 20 23  1  0  0  0
M  END
> <minimizedAffinity>
-6.19242

$$$$
1RMZ_NGH_A_269


 23 23  0  0  0  0  0  0  0  0999 V2000
    7.1857   25.4010    3.4665 N   0  0  0  0  0  0  0  0  0  0  0  0
    8.5551   25.9291    4.0170 S   0  0  0  0  0  0  0  0  0  0  0  0
    8.9479   24.7960    4.9676 O   0  0  0  0  0  0  0  0  0  0  0  0
    9.6228   26.2852    2.9497 O   0  0  0  0  0  0  0  0  0  0  0  0
    6.9461   27.1731    5.8176 C   0  0  0  0  0  0  0  0  0  0  0  0
    6.4232   28.4334    6.4514 C   0  0  0  0  0  0  0  0  0  0  0  0
    7.0899   29.7332    6.0498 C   0  0  0  0  0  0  0  0  0  0  0  0
    8.0210   29.8380    4.8942 C   0  0  0  0  0  0  0  0  0  0  0  0
    8.4964   28.6021    4.2701 C   0  0  0  0  0  0  0  0  0  0  0  0
    8.1130   27.2811    4.8834 C   0  0  0  0  0  0  0  0  0  0  0  0
    6.4619   30.9702    6.2899 O   0  0  0  0  0  0  0  0  0  0  0  0
    5.0479   30.9663    6.4649 C   0  0  0  0  0  0  0  0  0  0  0  0
    6.5647   24.1748    4.0029 C   0  0  0  0  0  0  0  0  0  0  0  0
    5.6596   24.4117    5.2314 C   0  0  0  0  0  0  0  0  0  0  0  0
    5.8368   23.3118    6.2593 C   0  0  0  0  0  0  0  0  0  0  0  0
    4.1829   24.5490    4.8474 C   0  0  0  0  0  0  0  0  0  0  0  0
    6.5986   26.0305    2.2644 C   0  0  0  0  0  0  0  0  0  0  0  0
    7.2576   25.2779    1.0982 C   0  0  0  0  0  0  0  0  0  0  0  0
    8.0738   24.1509    1.3972 N   0  0  0  0  0  0  0  0  0  0  0  0
    8.5638   23.4860    0.4323 O   0  0  0  0  0  0  0  0  0  0  0  0
    7.9733   26.0083    0.1697 O   0  0  0  0  0  0  0  0  0  0  0  0
    8.2544   23.8928    2.3299 H   0  0  0  0  0  0  0  0  0  0  0  0
    8.2831   23.8809   -0.4080 H   0  0  0  0  0  0  0  0  0  0  0  0
  5  6  2  0  0  0
  5 10  1  0  0  0
  6  7  1  0  0  0
  7  8  2  0  0  0
  7 11  1  0  0  0
  8  9  1  0  0  0
  9 10  2  0  0  0
 10  2  1  0  0  0
 11 12  1  0  0  0
  2  3  2  0  0  0
  2  4  2  0  0  0
  2  1  1  0  0  0
  1 13  1  0  0  0
  1 17  1  0  0  0
 13 14  1  0  0  0
 17 18  1  0  0  0
 18 19  1  0  0  0
 18 21  2  0  0  0
 19 20  1  0  0  0
 14 15  1  0  0  0
 14 16  1  0  0  0
 19 22  1  0  0  0
 20 23  1  0  0  0
M  END
> <minimizedAffinity>
-5.97659

$$$$
1RMZ_NGH_A_269


 23 23  0  0  0  0  0  0  0  0999 V2000
    6.4602   26.5001    3.8871 N   0  0  0  0  0  0  0  0  0  0  0  0
    7.5510   27.5663    4.2482 S   0  0  0  0  0  0  0  0  0  0  0  0
    8.6247   26.6847    4.8898 O   0  0  0  0  0  0  0  0  0  0  0  0
    8.0483   28.4514    3.0754 O   0  0  0  0  0  0  0  0  0  0  0  0
    6.2465   29.8266    5.0022 C   0  0  0  0  0  0  0  0  0  0  0  0
    5.7422   30.7467    6.0804 C   0  0  0  0  0  0  0  0  0  0  0  0
    5.8815   30.2705    7.5118 C   0  0  0  0  0  0  0  0  0  0  0  0
    6.7125   29.0969    7.8936 C   0  0  0  0  0  0  0  0  0  0  0  0
    7.2203   28.2290    6.8297 C   0  0  0  0  0  0  0  0  0  0  0  0
    6.7973   28.4934    5.4086 C   0  0  0  0  0  0  0  0  0  0  0  0
    5.7850   31.1757    8.5858 O   0  0  0  0  0  0  0  0  0  0  0  0
    6.8813   31.2374    9.4937 C   0  0  0  0  0  0  0  0  0  0  0  0
    5.7315   25.7622    4.9366 C   0  0  0  0  0  0  0  0  0  0  0  0
    5.6944   24.2334    4.7226 C   0  0  0  0  0  0  0  0  0  0  0  0
    4.4854   23.6174    5.3984 C   0  0  0  0  0  0  0  0  0  0  0  0
    6.9785   23.5484    5.2010 C   0  0  0  0  0  0  0  0  0  0  0  0
    6.2905   26.0882    2.4773 C   0  0  0  0  0  0  0  0  0  0  0  0
    7.6581   25.4974    2.1013 C   0  0  0  0  0  0  0  0  0  0  0  0
    8.4393   26.1731    1.1220 N   0  0  0  0  0  0  0  0  0  0  0  0
    9.5987   25.7259    0.8593 O   0  0  0  0  0  0  0  0  0  0  0  0
    7.7210   24.1611    1.7571 O   0  0  0  0  0  0  0  0  0  0  0  0
    8.0893   26.9683    0.6591 H   0  0  0  0  0  0  0  0  0  0  0  0
    9.7750   24.9439    1.4056 H   0  0  0  0  0  0  0  0  0  0  0  0
  5  6  2  0  0  0
  5 10  1  0  0  0
  6  7  1  0  0  0
  7  8  2  0  0  0
  7 11  1  0  0  0
  8  9  1  0  0  0
  9 10  2  0  0  0
 10  2  1  0  0  0
 11 12  1  0  0  0
  2  3  2  0  0  0
  2  4  2  0  0  0
  2  1  1  0  0  0
  1 13  1  0  0  0
  1 17  1  0  0  0
 13 14  1  0  0  0
 17 18  1  0  0  0
 18 19  1  0  0  0
 18 21  2  0  0  0
 19 20  1  0  0  0
 14 15  1  0  0  0
 14 16  1  0  0  0
 19 22  1  0  0  0
 20 23  1  0  0  0
M  END
> <minimizedAffinity>
-5.84695

$$$$
1RMZ_NGH_A_269


 23 23  0  0  0  0  0  0  0  0999 V2000
    8.1300   25.6504    3.3663 N   0  0  0  0  0  0  0  0  0  0  0  0
    7.3741   25.5137    2.0000 S   0  0  0  0  0  0  0  0  0  0  0  0
    7.6697   24.0551    1.6436 O   0  0  0  0  0  0  0  0  0  0  0  0
    5.8692   25.8893    2.0173 O   0  0  0  0  0  0  0  0  0  0  0  0
    7.5416   27.7732    0.5015 C   0  0  0  0  0  0  0  0  0  0  0  0
    8.2330   28.5940   -0.5529 C   0  0  0  0  0  0  0  0  0  0  0  0
    9.5559   28.0711   -1.0742 C   0  0  0  0  0  0  0  0  0  0  0  0
   10.0449   26.6941   -0.7943 C   0  0  0  0  0  0  0  0  0  0  0  0
    9.3419   25.8980    0.2132 C   0  0  0  0  0  0  0  0  0  0  0  0
    8.2259   26.5358    0.9981 C   0  0  0  0  0  0  0  0  0  0  0  0
   10.0933   28.5478   -2.2850 O   0  0  0  0  0  0  0  0  0  0  0  0
   11.4963   28.4003   -2.4844 C   0  0  0  0  0  0  0  0  0  0  0  0
    7.9858   24.6358    4.4279 C   0  0  0  0  0  0  0  0  0  0  0  0
    6.5345   24.1572    4.6498 C   0  0  0  0  0  0  0  0  0  0  0  0
    5.8477   24.9785    5.7229 C   0  0  0  0  0  0  0  0  0  0  0  0
    6.4605   22.6657    4.9917 C   0  0  0  0  0  0  0  0  0  0  0  0
    8.8482   26.9059    3.6730 C   0  0  0  0  0  0  0  0  0  0  0  0
    7.9113   27.6347    4.6486 C   0  0  0  0  0  0  0  0  0  0  0  0
    6.6616   28.1077    4.1585 N   0  0  0  0  0  0  0  0  0  0  0  0
    5.8564   28.6492    4.9780 O   0  0  0  0  0  0  0  0  0  0  0  0
    8.4265   28.6767    5.3948 O   0  0  0  0  0  0  0  0  0  0  0  0
    6.4268   28.0174    3.2066 H   0  0  0  0  0  0  0  0  0  0  0  0
    6.2506   28.6525    5.8642 H   0  0  0  0  0  0  0  0  0  0  0  0
  5  6  2  0  0  0
  5 10  1  0  0  0
  6  7  1  0  0  0
  7  8  2  0  0  0
  7 11  1  0  0  0
  8  9  1  0  0  0
  9 10  2  0  0  0
 10  2  1  0  0  0
 11 12  1  0  0  0
  2  3  2  0  0  0
  2  4  2  0  0  0
  2  1  1  0  0  0
  1 13  1  0  0  0
  1 17  1  0  0  0
 13 14  1  0  0  0
 17 18  1  0  0  0
 18 19  1  0  0  0
 18 21  2  0  0  0
 19 20  1  0  0  0
 14 15  1  0  0  0
 14 16  1  0  0  0
 19 22  1  0  0  0
 20 23  1  0  0  0
M  END
> <minimizedAffinity>
-5.75562

$$$$
