3K99_PFT_A_901


 21 23  0  0  0  0  0  0  0  0999 V2000
   47.3481   72.2048   63.9491 N   0  0  0  0  0  0  0  0  0  0  0  0
   46.8489   72.1683   65.2984 C   0  0  0  0  0  0  0  0  0  0  0  0
   48.0642   73.4334   63.3848 C   0  0  0  0  0  0  0  0  0  0  0  0
   47.2900   71.0895   62.8657 C   0  0  0  0  0  0  0  0  0  0  0  0
   47.0608   73.1768   65.9197 O   0  0  0  0  0  0  0  0  0  0  0  0
   48.4343   72.9844   61.9222 C   0  0  0  0  0  0  0  0  0  0  0  0
   47.9631   71.6237   61.6772 C   0  0  0  0  0  0  0  0  0  0  0  0
   49.1192   73.6089   60.8247 C   0  0  0  0  0  0  0  0  0  0  0  0
   48.1203   70.8705   60.4560 C   0  0  0  0  0  0  0  0  0  0  0  0
   49.3032   72.8666   59.5570 C   0  0  0  0  0  0  0  0  0  0  0  0
   48.7917   71.4958   59.4025 C   0  0  0  0  0  0  0  0  0  0  0  0
   46.1736   70.8540   65.6924 C   0  0  0  0  0  0  0  0  0  0  0  0
   47.0770   70.0089   66.4641 C   0  0  0  0  0  0  0  0  0  0  0  0
   44.8372   70.4909   65.3531 C   0  0  0  0  0  0  0  0  0  0  0  0
   46.7734   68.7275   66.9831 C   0  0  0  0  0  0  0  0  0  0  0  0
   48.3732   70.3623   66.7883 O   0  0  0  0  0  0  0  0  0  0  0  0
   44.4520   69.2278   65.8286 C   0  0  0  0  0  0  0  0  0  0  0  0
   45.4112   68.4171   66.6038 C   0  0  0  0  0  0  0  0  0  0  0  0
   44.9754   67.2418   67.0087 O   0  0  0  0  0  0  0  0  0  0  0  0
   48.7169   71.1886   66.5106 H   0  0  0  0  0  0  0  0  0  0  0  0
   45.5369   66.6796   67.5054 H   0  0  0  0  0  0  0  0  0  0  0  0
  1  2  1  0  0  0
  1  3  1  0  0  0
  1  4  1  0  0  0
  2 12  1  0  0  0
  2  5  2  0  0  0
  3  6  1  0  0  0
  4  7  1  0  0  0
 12 13  2  0  0  0
 12 14  1  0  0  0
  6  7  2  0  0  0
  6  8  1  0  0  0
  7  9  1  0  0  0
 13 15  1  0  0  0
 13 16  1  0  0  0
 14 17  2  0  0  0
  8 10  2  0  0  0
  9 11  2  0  0  0
 15 18  2  0  0  0
 17 18  1  0  0  0
 10 11  1  0  0  0
 18 19  1  0  0  0
 16 20  1  0  0  0
 19 21  1  0  0  0
M  END
> <minimizedAffinity>
-9.62526

$$$$
3K99_PFT_A_901


 21 23  0  0  0  0  0  0  0  0999 V2000
   47.3165   71.9952   63.9990 N   0  0  0  0  0  0  0  0  0  0  0  0
   47.0027   72.0009   65.4036 C   0  0  0  0  0  0  0  0  0  0  0  0
   47.6399   73.2822   63.2376 C   0  0  0  0  0  0  0  0  0  0  0  0
   47.4061   70.7790   63.0328 C   0  0  0  0  0  0  0  0  0  0  0  0
   47.0331   73.0961   65.9014 O   0  0  0  0  0  0  0  0  0  0  0  0
   47.9348   72.7645   61.7805 C   0  0  0  0  0  0  0  0  0  0  0  0
   47.7847   71.3128   61.7204 C   0  0  0  0  0  0  0  0  0  0  0  0
   48.3134   73.3989   60.5486 C   0  0  0  0  0  0  0  0  0  0  0  0
   47.9771   70.4801   60.5573 C   0  0  0  0  0  0  0  0  0  0  0  0
   48.5234   72.5775   59.3348 C   0  0  0  0  0  0  0  0  0  0  0  0
   48.3476   71.1172   59.3704 C   0  0  0  0  0  0  0  0  0  0  0  0
   46.7195   70.6209   65.9986 C   0  0  0  0  0  0  0  0  0  0  0  0
   45.3503   70.2008   65.7250 C   0  0  0  0  0  0  0  0  0  0  0  0
   47.6622   69.8395   66.7290 C   0  0  0  0  0  0  0  0  0  0  0  0
   44.7599   68.9808   66.1330 C   0  0  0  0  0  0  0  0  0  0  0  0
   44.4378   70.9623   65.0196 O   0  0  0  0  0  0  0  0  0  0  0  0
   47.1572   68.6084   67.1757 C   0  0  0  0  0  0  0  0  0  0  0  0
   45.7618   68.2383   66.8685 C   0  0  0  0  0  0  0  0  0  0  0  0
   45.3622   67.0702   67.3279 O   0  0  0  0  0  0  0  0  0  0  0  0
   44.6873   71.8009   64.6842 H   0  0  0  0  0  0  0  0  0  0  0  0
   44.4868   66.7778   67.1663 H   0  0  0  0  0  0  0  0  0  0  0  0
  1  2  1  0  0  0
  1  3  1  0  0  0
  1  4  1  0  0  0
  2 12  1  0  0  0
  2  5  2  0  0  0
  3  6  1  0  0  0
  4  7  1  0  0  0
 12 13  2  0  0  0
 12 14  1  0  0  0
  6  7  2  0  0  0
  6  8  1  0  0  0
  7  9  1  0  0  0
 13 15  1  0  0  0
 13 16  1  0  0  0
 14 17  2  0  0  0
  8 10  2  0  0  0
  9 11  2  0  0  0
 15 18  2  0  0  0
 17 18  1  0  0  0
 10 11  1  0  0  0
 18 19  1  0  0  0
 16 20  1  0  0  0
 19 21  1  0  0  0
M  END
> <minimizedAffinity>
-8.62847

$$$$
3K99_PFT_A_901


 21 23  0  0  0  0  0  0  0  0999 V2000
   47.0370   71.3510   62.3558 N   0  0  0  0  0  0  0  0  0  0  0  0
   46.7615   70.0358   62.8711 C   0  0  0  0  0  0  0  0  0  0  0  0
   47.6643   71.5641   60.9766 C   0  0  0  0  0  0  0  0  0  0  0  0
   46.7630   72.7289   63.0245 C   0  0  0  0  0  0  0  0  0  0  0  0
   47.0596   69.1482   62.1152 O   0  0  0  0  0  0  0  0  0  0  0  0
   47.7363   73.1323   60.8611 C   0  0  0  0  0  0  0  0  0  0  0  0
   47.2031   73.7528   62.0713 C   0  0  0  0  0  0  0  0  0  0  0  0
   48.1929   74.0431   59.8485 C   0  0  0  0  0  0  0  0  0  0  0  0
   47.0997   75.1685   62.3326 C   0  0  0  0  0  0  0  0  0  0  0  0
   48.0997   75.5027   60.0786 C   0  0  0  0  0  0  0  0  0  0  0  0
   47.5471   76.0364   61.3334 C   0  0  0  0  0  0  0  0  0  0  0  0
   46.1214   70.0170   64.2598 C   0  0  0  0  0  0  0  0  0  0  0  0
   44.7650   69.4849   64.2068 C   0  0  0  0  0  0  0  0  0  0  0  0
   46.7573   70.4612   65.4561 C   0  0  0  0  0  0  0  0  0  0  0  0
   43.8908   69.3311   65.3093 C   0  0  0  0  0  0  0  0  0  0  0  0
   44.1502   69.0584   63.0448 O   0  0  0  0  0  0  0  0  0  0  0  0
   45.9569   70.3458   66.6033 C   0  0  0  0  0  0  0  0  0  0  0  0
   44.5904   69.8003   66.4868 C   0  0  0  0  0  0  0  0  0  0  0  0
   43.9017   69.7302   67.6075 O   0  0  0  0  0  0  0  0  0  0  0  0
   44.6095   69.1003   62.2292 H   0  0  0  0  0  0  0  0  0  0  0  0
   43.0276   69.3929   67.5999 H   0  0  0  0  0  0  0  0  0  0  0  0
  1  2  1  0  0  0
  1  3  1  0  0  0
  1  4  1  0  0  0
  2 12  1  0  0  0
  2  5  2  0  0  0
  3  6  1  0  0  0
  4  7  1  0  0  0
 12 13  2  0  0  0
 12 14  1  0  0  0
  6  7  2  0  0  0
  6  8  1  0  0  0
  7  9  1  0  0  0
 13 15  1  0  0  0
 13 16  1  0  0  0
 14 17  2  0  0  0
  8 10  2  0  0  0
  9 11  2  0  0  0
 15 18  2  0  0  0
 17 18  1  0  0  0
 10 11  1  0  0  0
 18 19  1  0  0  0
 16 20  1  0  0  0
 19 21  1  0  0  0
M  END
> <minimizedAffinity>
-8.07265

$$$$
3K99_PFT_A_901


 21 23  0  0  0  0  0  0  0  0999 V2000
   47.7599   73.3394   61.1541 N   0  0  0  0  0  0  0  0  0  0  0  0
   46.9950   73.5598   62.3531 C   0  0  0  0  0  0  0  0  0  0  0  0
   47.9056   74.4174   60.0783 C   0  0  0  0  0  0  0  0  0  0  0  0
   48.5548   72.0697   60.7335 C   0  0  0  0  0  0  0  0  0  0  0  0
   46.5063   74.6574   62.4199 O   0  0  0  0  0  0  0  0  0  0  0  0
   48.8325   73.7260   59.0103 C   0  0  0  0  0  0  0  0  0  0  0  0
   49.1759   72.3729   59.4401 C   0  0  0  0  0  0  0  0  0  0  0  0
   49.3942   74.1373   57.7538 C   0  0  0  0  0  0  0  0  0  0  0  0
   50.0094   71.4344   58.7274 C   0  0  0  0  0  0  0  0  0  0  0  0
   50.2573   73.2037   56.9953 C   0  0  0  0  0  0  0  0  0  0  0  0
   50.5475   71.8559   57.5090 C   0  0  0  0  0  0  0  0  0  0  0  0
   46.9717   72.3756   63.3205 C   0  0  0  0  0  0  0  0  0  0  0  0
   47.4848   72.7566   64.6310 C   0  0  0  0  0  0  0  0  0  0  0  0
   46.5129   71.0657   62.9940 C   0  0  0  0  0  0  0  0  0  0  0  0
   47.6037   71.9043   65.7548 C   0  0  0  0  0  0  0  0  0  0  0  0
   47.9321   74.0264   64.9432 O   0  0  0  0  0  0  0  0  0  0  0  0
   46.5979   70.1513   64.0554 C   0  0  0  0  0  0  0  0  0  0  0  0
   47.1272   70.5956   65.3596 C   0  0  0  0  0  0  0  0  0  0  0  0
   47.1804   69.6767   66.3019 O   0  0  0  0  0  0  0  0  0  0  0  0
   47.9140   74.7022   64.2944 H   0  0  0  0  0  0  0  0  0  0  0  0
   47.5069   69.8960   67.1523 H   0  0  0  0  0  0  0  0  0  0  0  0
  1  2  1  0  0  0
  1  3  1  0  0  0
  1  4  1  0  0  0
  2 12  1  0  0  0
  2  5  2  0  0  0
  3  6  1  0  0  0
  4  7  1  0  0  0
 12 13  2  0  0  0
 12 14  1  0  0  0
  6  7  2  0  0  0
  6  8  1  0  0  0
  7  9  1  0  0  0
 13 15  1  0  0  0
 13 16  1  0  0  0
 14 17  2  0  0  0
  8 10  2  0  0  0
  9 11  2  0  0  0
 15 18  2  0  0  0
 17 18  1  0  0  0
 10 11  1  0  0  0
 18 19  1  0  0  0
 16 20  1  0  0  0
 19 21  1  0  0  0
M  END
> <minimizedAffinity>
-7.21781

$$$$
3K99_PFT_A_901


 21 23  0  0  0  0  0  0  0  0999 V2000
   47.0988   72.3520   64.3353 N   0  0  0  0  0  0  0  0  0  0  0  0
   47.9747   73.3912   63.8616 C   0  0  0  0  0  0  0  0  0  0  0  0
   46.9165   72.0660   65.8272 C   0  0  0  0  0  0  0  0  0  0  0  0
   46.2065   71.3855   63.5044 C   0  0  0  0  0  0  0  0  0  0  0  0
   48.5231   74.0002   64.7426 O   0  0  0  0  0  0  0  0  0  0  0  0
   45.8667   70.8931   65.8352 C   0  0  0  0  0  0  0  0  0  0  0  0
   45.4925   70.5411   64.4677 C   0  0  0  0  0  0  0  0  0  0  0  0
   45.2206   70.1329   66.8685 C   0  0  0  0  0  0  0  0  0  0  0  0
   44.5535   69.5181   64.0740 C   0  0  0  0  0  0  0  0  0  0  0  0
   44.2484   69.0774   66.5039 C   0  0  0  0  0  0  0  0  0  0  0  0
   43.9347   68.7926   65.0950 C   0  0  0  0  0  0  0  0  0  0  0  0
   48.0204   73.5412   62.3404 C   0  0  0  0  0  0  0  0  0  0  0  0
   47.4326   74.8071   61.9186 C   0  0  0  0  0  0  0  0  0  0  0  0
   48.5622   72.5754   61.4423 C   0  0  0  0  0  0  0  0  0  0  0  0
   47.3120   75.2615   60.5835 C   0  0  0  0  0  0  0  0  0  0  0  0
   46.9050   75.7396   62.7915 O   0  0  0  0  0  0  0  0  0  0  0  0
   48.4814   72.9457   60.0909 C   0  0  0  0  0  0  0  0  0  0  0  0
   47.8743   74.2403   59.7250 C   0  0  0  0  0  0  0  0  0  0  0  0
   47.8306   74.5113   58.4366 O   0  0  0  0  0  0  0  0  0  0  0  0
   46.9143   75.5757   63.7140 H   0  0  0  0  0  0  0  0  0  0  0  0
   47.4571   75.3177   58.1399 H   0  0  0  0  0  0  0  0  0  0  0  0
  1  2  1  0  0  0
  1  3  1  0  0  0
  1  4  1  0  0  0
  2 12  1  0  0  0
  2  5  2  0  0  0
  3  6  1  0  0  0
  4  7  1  0  0  0
 12 13  2  0  0  0
 12 14  1  0  0  0
  6  7  2  0  0  0
  6  8  1  0  0  0
  7  9  1  0  0  0
 13 15  1  0  0  0
 13 16  1  0  0  0
 14 17  2  0  0  0
  8 10  2  0  0  0
  9 11  2  0  0  0
 15 18  2  0  0  0
 17 18  1  0  0  0
 10 11  1  0  0  0
 18 19  1  0  0  0
 16 20  1  0  0  0
 19 21  1  0  0  0
M  END
> <minimizedAffinity>
-7.17333

$$$$
3K99_PFT_A_901


 21 23  0  0  0  0  0  0  0  0999 V2000
   48.2508   73.3541   61.5064 N   0  0  0  0  0  0  0  0  0  0  0  0
   48.7682   74.1732   60.4421 C   0  0  0  0  0  0  0  0  0  0  0  0
   47.8622   73.9429   62.8640 C   0  0  0  0  0  0  0  0  0  0  0  0
   47.9789   71.8221   61.5033 C   0  0  0  0  0  0  0  0  0  0  0  0
   48.8484   75.3400   60.7253 O   0  0  0  0  0  0  0  0  0  0  0  0
   47.3386   72.6870   63.6556 C   0  0  0  0  0  0  0  0  0  0  0  0
   47.4293   71.4909   62.8220 C   0  0  0  0  0  0  0  0  0  0  0  0
   46.8042   72.4836   64.9733 C   0  0  0  0  0  0  0  0  0  0  0  0
   47.0396   70.1534   63.1994 C   0  0  0  0  0  0  0  0  0  0  0  0
   46.3900   71.1264   65.3956 C   0  0  0  0  0  0  0  0  0  0  0  0
   46.5200   69.9786   64.4844 C   0  0  0  0  0  0  0  0  0  0  0  0
   49.0894   73.4150   59.1535 C   0  0  0  0  0  0  0  0  0  0  0  0
   48.1326   73.7366   58.1013 C   0  0  0  0  0  0  0  0  0  0  0  0
   50.1777   72.5082   58.9913 C   0  0  0  0  0  0  0  0  0  0  0  0
   48.1366   73.2103   56.7874 C   0  0  0  0  0  0  0  0  0  0  0  0
   47.0766   74.6134   58.2629 O   0  0  0  0  0  0  0  0  0  0  0  0
   50.2560   71.9353   57.7124 C   0  0  0  0  0  0  0  0  0  0  0  0
   49.2574   72.2991   56.6883 C   0  0  0  0  0  0  0  0  0  0  0  0
   49.3961   71.7139   55.5163 O   0  0  0  0  0  0  0  0  0  0  0  0
   46.9452   75.0421   59.0856 H   0  0  0  0  0  0  0  0  0  0  0  0
   48.7937   71.9031   54.8240 H   0  0  0  0  0  0  0  0  0  0  0  0
  1  2  1  0  0  0
  1  3  1  0  0  0
  1  4  1  0  0  0
  2 12  1  0  0  0
  2  5  2  0  0  0
  3  6  1  0  0  0
  4  7  1  0  0  0
 12 13  2  0  0  0
 12 14  1  0  0  0
  6  7  2  0  0  0
  6  8  1  0  0  0
  7  9  1  0  0  0
 13 15  1  0  0  0
 13 16  1  0  0  0
 14 17  2  0  0  0
  8 10  2  0  0  0
  9 11  2  0  0  0
 15 18  2  0  0  0
 17 18  1  0  0  0
 10 11  1  0  0  0
 18 19  1  0  0  0
 16 20  1  0  0  0
 19 21  1  0  0  0
M  END
> <minimizedAffinity>
-6.81321

$$$$
3K99_PFT_A_901


 21 23  0  0  0  0  0  0  0  0999 V2000
   48.1444   72.4745   61.0679 N   0  0  0  0  0  0  0  0  0  0  0  0
   48.5826   72.8779   59.7578 C   0  0  0  0  0  0  0  0  0  0  0  0
   48.0651   73.4621   62.2338 C   0  0  0  0  0  0  0  0  0  0  0  0
   47.6769   71.0679   61.5410 C   0  0  0  0  0  0  0  0  0  0  0  0
   48.8607   74.0460   59.6794 O   0  0  0  0  0  0  0  0  0  0  0  0
   47.5186   72.5727   63.4120 C   0  0  0  0  0  0  0  0  0  0  0  0
   47.3131   71.2005   62.9555 C   0  0  0  0  0  0  0  0  0  0  0  0
   47.1863   72.8237   64.7868 C   0  0  0  0  0  0  0  0  0  0  0  0
   46.8187   70.1001   63.7480 C   0  0  0  0  0  0  0  0  0  0  0  0
   46.6727   71.7208   65.6305 C   0  0  0  0  0  0  0  0  0  0  0  0
   46.4991   70.3669   65.0816 C   0  0  0  0  0  0  0  0  0  0  0  0
   48.5850   71.7598   58.7146 C   0  0  0  0  0  0  0  0  0  0  0  0
   49.9412   71.4513   58.2770 C   0  0  0  0  0  0  0  0  0  0  0  0
   47.4199   71.0998   58.2249 C   0  0  0  0  0  0  0  0  0  0  0  0
   50.3015   70.4719   57.3207 C   0  0  0  0  0  0  0  0  0  0  0  0
   51.0683   72.0954   58.7511 O   0  0  0  0  0  0  0  0  0  0  0  0
   47.6864   70.1101   57.2660 C   0  0  0  0  0  0  0  0  0  0  0  0
   49.0807   69.8433   56.8620 C   0  0  0  0  0  0  0  0  0  0  0  0
   49.2464   68.9042   55.9532 O   0  0  0  0  0  0  0  0  0  0  0  0
   50.9856   72.7726   59.3934 H   0  0  0  0  0  0  0  0  0  0  0  0
   50.1079   68.6879   55.6548 H   0  0  0  0  0  0  0  0  0  0  0  0
  1  2  1  0  0  0
  1  3  1  0  0  0
  1  4  1  0  0  0
  2 12  1  0  0  0
  2  5  2  0  0  0
  3  6  1  0  0  0
  4  7  1  0  0  0
 12 13  2  0  0  0
 12 14  1  0  0  0
  6  7  2  0  0  0
  6  8  1  0  0  0
  7  9  1  0  0  0
 13 15  1  0  0  0
 13 16  1  0  0  0
 14 17  2  0  0  0
  8 10  2  0  0  0
  9 11  2  0  0  0
 15 18  2  0  0  0
 17 18  1  0  0  0
 10 11  1  0  0  0
 18 19  1  0  0  0
 16 20  1  0  0  0
 19 21  1  0  0  0
M  END
> <minimizedAffinity>
-6.74619

$$$$
3K99_PFT_A_901


 21 23  0  0  0  0  0  0  0  0999 V2000
   47.8376   71.0417   59.8028 N   0  0  0  0  0  0  0  0  0  0  0  0
   48.2524   71.6668   61.0309 C   0  0  0  0  0  0  0  0  0  0  0  0
   47.8845   69.5244   59.6117 C   0  0  0  0  0  0  0  0  0  0  0  0
   47.2799   71.7142   58.5153 C   0  0  0  0  0  0  0  0  0  0  0  0
   48.6187   70.8868   61.8708 O   0  0  0  0  0  0  0  0  0  0  0  0
   47.3179   69.3352   58.1553 C   0  0  0  0  0  0  0  0  0  0  0  0
   46.9859   70.6319   57.5704 C   0  0  0  0  0  0  0  0  0  0  0  0
   47.0630   68.1957   57.3189 C   0  0  0  0  0  0  0  0  0  0  0  0
   46.4387   70.8621   56.2547 C   0  0  0  0  0  0  0  0  0  0  0  0
   46.4986   68.3915   55.9642 C   0  0  0  0  0  0  0  0  0  0  0  0
   46.1961   69.7398   55.4590 C   0  0  0  0  0  0  0  0  0  0  0  0
   48.1236   73.1906   61.0452 C   0  0  0  0  0  0  0  0  0  0  0  0
   47.0141   73.6170   61.8895 C   0  0  0  0  0  0  0  0  0  0  0  0
   48.9703   74.0866   60.3288 C   0  0  0  0  0  0  0  0  0  0  0  0
   46.6158   74.9551   62.1225 C   0  0  0  0  0  0  0  0  0  0  0  0
   46.1930   72.7457   62.5799 O   0  0  0  0  0  0  0  0  0  0  0  0
   48.6434   75.4405   60.5020 C   0  0  0  0  0  0  0  0  0  0  0  0
   47.5078   75.8110   61.3689 C   0  0  0  0  0  0  0  0  0  0  0  0
   47.2619   77.1008   61.4746 O   0  0  0  0  0  0  0  0  0  0  0  0
   46.3362   71.8215   62.5217 H   0  0  0  0  0  0  0  0  0  0  0  0
   46.5539   77.4004   62.0104 H   0  0  0  0  0  0  0  0  0  0  0  0
  1  2  1  0  0  0
  1  3  1  0  0  0
  1  4  1  0  0  0
  2 12  1  0  0  0
  2  5  2  0  0  0
  3  6  1  0  0  0
  4  7  1  0  0  0
 12 13  2  0  0  0
 12 14  1  0  0  0
  6  7  2  0  0  0
  6  8  1  0  0  0
  7  9  1  0  0  0
 13 15  1  0  0  0
 13 16  1  0  0  0
 14 17  2  0  0  0
  8 10  2  0  0  0
  9 11  2  0  0  0
 15 18  2  0  0  0
 17 18  1  0  0  0
 10 11  1  0  0  0
 18 19  1  0  0  0
 16 20  1  0  0  0
 19 21  1  0  0  0
M  END
> <minimizedAffinity>
-6.66188

$$$$
