4H81_WJ2_A_404


 13 13  0  0  0  0  0  0  0  0999 V2000
   -7.9755  -32.2067   15.9674 C   0  0  0  0  0  0  0  0  0  0  0  0
   -8.6919  -32.0845   17.2779 C   0  0  0  0  0  0  0  0  0  0  0  0
   -9.9960  -31.6181   17.3270 C   0  0  0  0  0  0  0  0  0  0  0  0
  -10.6736  -31.5076   18.5336 C   0  0  0  0  0  0  0  0  0  0  0  0
  -10.0415  -31.8802   19.7074 C   0  0  0  0  0  0  0  0  0  0  0  0
   -8.7361  -32.3472   19.6600 C   0  0  0  0  0  0  0  0  0  0  0  0
   -8.0603  -32.4553   18.4504 C   0  0  0  0  0  0  0  0  0  0  0  0
   -8.2425  -29.7583   14.9554 Cl  0  0  0  0  0  0  0  0  0  0  0  0
   -8.5639  -31.4488   14.8156 C   0  0  0  0  0  0  0  0  0  0  0  0
   -8.0178  -31.9020   13.5050 C   0  0  0  0  0  0  0  0  0  0  0  0
   -8.5572  -31.5009   12.4423 O   0  0  0  0  0  0  0  0  0  0  0  0
   -7.0170  -32.6832   13.4842 O   0  0  0  0  0  0  0  0  0  0  0  0
   -9.2950  -30.9246   12.4800 H   0  0  0  0  0  0  0  0  0  0  0  0
 12 10  2  0  0  0
 10 11  1  0  0  0
 10  9  1  0  0  0
  9  8  1  0  0  0
  9  1  1  0  0  0
  1  2  1  0  0  0
  2  7  2  0  0  0
  2  3  1  0  0  0
  7  6  1  0  0  0
  3  4  2  0  0  0
  6  5  2  0  0  0
  4  5  1  0  0  0
 11 13  1  0  0  0
M  END
> <minimizedAffinity>
-7.32235

$$$$
4H81_WJ2_A_404


 13 13  0  0  0  0  0  0  0  0999 V2000
   -9.6869  -31.6757   16.3093 C   0  0  0  0  0  0  0  0  0  0  0  0
   -9.6255  -32.0591   17.7566 C   0  0  0  0  0  0  0  0  0  0  0  0
  -10.4138  -31.4078   18.6919 C   0  0  0  0  0  0  0  0  0  0  0  0
  -10.3722  -31.7586   20.0345 C   0  0  0  0  0  0  0  0  0  0  0  0
   -9.5384  -32.7840   20.4460 C   0  0  0  0  0  0  0  0  0  0  0  0
   -8.7486  -33.4370   19.5110 C   0  0  0  0  0  0  0  0  0  0  0  0
   -8.7917  -33.0823   18.1679 C   0  0  0  0  0  0  0  0  0  0  0  0
   -7.7221  -33.0380   15.1373 Cl  0  0  0  0  0  0  0  0  0  0  0  0
   -8.3715  -31.5097   15.6097 C   0  0  0  0  0  0  0  0  0  0  0  0
   -8.4880  -30.6732   14.3817 C   0  0  0  0  0  0  0  0  0  0  0  0
   -8.7142  -31.2304   13.2774 O   0  0  0  0  0  0  0  0  0  0  0  0
   -8.3588  -29.4133   14.4721 O   0  0  0  0  0  0  0  0  0  0  0  0
   -8.8062  -32.1618   13.2327 H   0  0  0  0  0  0  0  0  0  0  0  0
 12 10  2  0  0  0
 10 11  1  0  0  0
 10  9  1  0  0  0
  9  8  1  0  0  0
  9  1  1  0  0  0
  1  2  1  0  0  0
  2  7  2  0  0  0
  2  3  1  0  0  0
  7  6  1  0  0  0
  3  4  2  0  0  0
  6  5  2  0  0  0
  4  5  1  0  0  0
 11 13  1  0  0  0
M  END
> <minimizedAffinity>
-7.14488

$$$$
4H81_WJ2_A_404


 13 13  0  0  0  0  0  0  0  0999 V2000
   -9.6873  -31.6644   16.3298 C   0  0  0  0  0  0  0  0  0  0  0  0
   -9.6241  -32.0633   17.7729 C   0  0  0  0  0  0  0  0  0  0  0  0
   -8.7712  -33.0737   18.1877 C   0  0  0  0  0  0  0  0  0  0  0  0
   -8.6973  -33.4474   19.5226 C   0  0  0  0  0  0  0  0  0  0  0  0
   -9.4795  -32.7929   20.4585 C   0  0  0  0  0  0  0  0  0  0  0  0
  -10.3338  -31.7812   20.0449 C   0  0  0  0  0  0  0  0  0  0  0  0
  -10.4062  -31.4105   18.7074 C   0  0  0  0  0  0  0  0  0  0  0  0
   -7.7350  -33.0408   15.1533 Cl  0  0  0  0  0  0  0  0  0  0  0  0
   -8.3731  -31.5077   15.6258 C   0  0  0  0  0  0  0  0  0  0  0  0
   -8.4882  -30.6720   14.3971 C   0  0  0  0  0  0  0  0  0  0  0  0
   -8.6875  -31.2321   13.2890 O   0  0  0  0  0  0  0  0  0  0  0  0
   -8.3850  -29.4099   14.4906 O   0  0  0  0  0  0  0  0  0  0  0  0
   -8.7607  -32.1651   13.2421 H   0  0  0  0  0  0  0  0  0  0  0  0
 12 10  2  0  0  0
 10 11  1  0  0  0
 10  9  1  0  0  0
  9  8  1  0  0  0
  9  1  1  0  0  0
  1  2  1  0  0  0
  2  7  2  0  0  0
  2  3  1  0  0  0
  7  6  1  0  0  0
  3  4  2  0  0  0
  6  5  2  0  0  0
  4  5  1  0  0  0
 11 13  1  0  0  0
M  END
> <minimizedAffinity>
-7.13594

$$$$
4H81_WJ2_A_404


 13 13  0  0  0  0  0  0  0  0999 V2000
   -9.9298  -32.4701   17.5136 C   0  0  0  0  0  0  0  0  0  0  0  0
   -9.2215  -32.0156   16.2737 C   0  0  0  0  0  0  0  0  0  0  0  0
   -9.4428  -30.7473   15.7609 C   0  0  0  0  0  0  0  0  0  0  0  0
   -8.7871  -30.3112   14.6175 C   0  0  0  0  0  0  0  0  0  0  0  0
   -7.8880  -31.1518   13.9843 C   0  0  0  0  0  0  0  0  0  0  0  0
   -7.6654  -32.4217   14.4963 C   0  0  0  0  0  0  0  0  0  0  0  0
   -8.3245  -32.8555   15.6404 C   0  0  0  0  0  0  0  0  0  0  0  0
  -10.2446  -30.7777   19.5450 Cl  0  0  0  0  0  0  0  0  0  0  0  0
   -9.3249  -32.0449   18.8177 C   0  0  0  0  0  0  0  0  0  0  0  0
   -9.2529  -33.1657   19.7974 C   0  0  0  0  0  0  0  0  0  0  0  0
   -8.6256  -34.2115   19.4903 O   0  0  0  0  0  0  0  0  0  0  0  0
   -9.8240  -33.0447   20.9250 O   0  0  0  0  0  0  0  0  0  0  0  0
   -8.2112  -34.2803   18.6528 H   0  0  0  0  0  0  0  0  0  0  0  0
 12 10  2  0  0  0
 10 11  1  0  0  0
 10  9  1  0  0  0
  9  8  1  0  0  0
  9  1  1  0  0  0
  1  2  1  0  0  0
  2  7  2  0  0  0
  2  3  1  0  0  0
  7  6  1  0  0  0
  3  4  2  0  0  0
  6  5  2  0  0  0
  4  5  1  0  0  0
 11 13  1  0  0  0
M  END
> <minimizedAffinity>
-6.60854

$$$$
4H81_WJ2_A_404


 13 13  0  0  0  0  0  0  0  0999 V2000
   -9.2373  -33.2300   17.2871 C   0  0  0  0  0  0  0  0  0  0  0  0
   -8.8293  -32.3414   16.1515 C   0  0  0  0  0  0  0  0  0  0  0  0
   -7.9594  -32.8005   15.1752 C   0  0  0  0  0  0  0  0  0  0  0  0
   -7.5798  -31.9902   14.1138 C   0  0  0  0  0  0  0  0  0  0  0  0
   -8.0869  -30.7056   14.0211 C   0  0  0  0  0  0  0  0  0  0  0  0
   -8.9579  -30.2445   14.9974 C   0  0  0  0  0  0  0  0  0  0  0  0
   -9.3347  -31.0580   16.0594 C   0  0  0  0  0  0  0  0  0  0  0  0
   -7.0197  -32.1554   18.2957 Cl  0  0  0  0  0  0  0  0  0  0  0  0
   -8.4426  -33.0992   18.5514 C   0  0  0  0  0  0  0  0  0  0  0  0
   -9.2222  -32.4482   19.6421 C   0  0  0  0  0  0  0  0  0  0  0  0
   -9.6178  -33.1420   20.6135 O   0  0  0  0  0  0  0  0  0  0  0  0
   -9.4717  -31.2052   19.5727 O   0  0  0  0  0  0  0  0  0  0  0  0
   -9.4229  -34.0579   20.6453 H   0  0  0  0  0  0  0  0  0  0  0  0
 12 10  2  0  0  0
 10 11  1  0  0  0
 10  9  1  0  0  0
  9  8  1  0  0  0
  9  1  1  0  0  0
  1  2  1  0  0  0
  2  7  2  0  0  0
  2  3  1  0  0  0
  7  6  1  0  0  0
  3  4  2  0  0  0
  6  5  2  0  0  0
  4  5  1  0  0  0
 11 13  1  0  0  0
M  END
> <minimizedAffinity>
-6.13302

$$$$
4H81_WJ2_A_404


 13 13  0  0  0  0  0  0  0  0999 V2000
  -10.3585  -32.4812   16.3476 C   0  0  0  0  0  0  0  0  0  0  0  0
  -10.0604  -32.3923   17.8135 C   0  0  0  0  0  0  0  0  0  0  0  0
  -10.6316  -31.3961   18.5893 C   0  0  0  0  0  0  0  0  0  0  0  0
  -10.3700  -31.3074   19.9498 C   0  0  0  0  0  0  0  0  0  0  0  0
   -9.5339  -32.2359   20.5455 C   0  0  0  0  0  0  0  0  0  0  0  0
   -8.9614  -33.2338   19.7704 C   0  0  0  0  0  0  0  0  0  0  0  0
   -9.2244  -33.3188   18.4084 C   0  0  0  0  0  0  0  0  0  0  0  0
   -9.1503  -30.2411   15.5650 Cl  0  0  0  0  0  0  0  0  0  0  0  0
   -9.3031  -31.9549   15.4221 C   0  0  0  0  0  0  0  0  0  0  0  0
   -7.9643  -32.5488   15.6983 C   0  0  0  0  0  0  0  0  0  0  0  0
   -7.0466  -31.8149   16.1460 O   0  0  0  0  0  0  0  0  0  0  0  0
   -7.7743  -33.7849   15.4788 O   0  0  0  0  0  0  0  0  0  0  0  0
   -7.2079  -30.9050   16.3010 H   0  0  0  0  0  0  0  0  0  0  0  0
 12 10  2  0  0  0
 10 11  1  0  0  0
 10  9  1  0  0  0
  9  8  1  0  0  0
  9  1  1  0  0  0
  1  2  1  0  0  0
  2  7  2  0  0  0
  2  3  1  0  0  0
  7  6  1  0  0  0
  3  4  2  0  0  0
  6  5  2  0  0  0
  4  5  1  0  0  0
 11 13  1  0  0  0
M  END
> <minimizedAffinity>
-6.07806

$$$$
4H81_WJ2_A_404


 13 13  0  0  0  0  0  0  0  0999 V2000
   -7.9917  -31.7932   17.2323 C   0  0  0  0  0  0  0  0  0  0  0  0
   -8.7503  -32.0686   18.4950 C   0  0  0  0  0  0  0  0  0  0  0  0
   -8.5408  -33.2428   19.2006 C   0  0  0  0  0  0  0  0  0  0  0  0
   -9.2312  -33.5066   20.3758 C   0  0  0  0  0  0  0  0  0  0  0  0
  -10.1360  -32.5769   20.8587 C   0  0  0  0  0  0  0  0  0  0  0  0
  -10.3468  -31.4011   20.1535 C   0  0  0  0  0  0  0  0  0  0  0  0
   -9.6549  -31.1408   18.9766 C   0  0  0  0  0  0  0  0  0  0  0  0
   -7.9072  -31.8743   14.5722 Cl  0  0  0  0  0  0  0  0  0  0  0  0
   -8.8144  -31.5455   16.0039 C   0  0  0  0  0  0  0  0  0  0  0  0
  -10.0380  -32.3954   15.9643 C   0  0  0  0  0  0  0  0  0  0  0  0
   -9.9201  -33.6460   16.0238 O   0  0  0  0  0  0  0  0  0  0  0  0
  -11.1774  -31.8426   15.8732 O   0  0  0  0  0  0  0  0  0  0  0  0
   -9.0698  -34.0338   16.0908 H   0  0  0  0  0  0  0  0  0  0  0  0
 12 10  2  0  0  0
 10 11  1  0  0  0
 10  9  1  0  0  0
  9  8  1  0  0  0
  9  1  1  0  0  0
  1  2  1  0  0  0
  2  7  2  0  0  0
  2  3  1  0  0  0
  7  6  1  0  0  0
  3  4  2  0  0  0
  6  5  2  0  0  0
  4  5  1  0  0  0
 11 13  1  0  0  0
M  END
> <minimizedAffinity>
-5.97999

$$$$
4H81_WJ2_A_404


 13 13  0  0  0  0  0  0  0  0999 V2000
   -9.3660  -31.1361   17.8032 C   0  0  0  0  0  0  0  0  0  0  0  0
   -8.8619  -31.2786   16.3992 C   0  0  0  0  0  0  0  0  0  0  0  0
   -8.3191  -32.4771   15.9638 C   0  0  0  0  0  0  0  0  0  0  0  0
   -7.8558  -32.6246   14.6635 C   0  0  0  0  0  0  0  0  0  0  0  0
   -7.9473  -31.5613   13.7821 C   0  0  0  0  0  0  0  0  0  0  0  0
   -8.4904  -30.3609   14.2163 C   0  0  0  0  0  0  0  0  0  0  0  0
   -8.9520  -30.2162   15.5192 C   0  0  0  0  0  0  0  0  0  0  0  0
   -7.8426  -32.9444   19.0277 Cl  0  0  0  0  0  0  0  0  0  0  0  0
   -9.4265  -32.3931   18.6179 C   0  0  0  0  0  0  0  0  0  0  0  0
  -10.1786  -32.2039   19.8907 C   0  0  0  0  0  0  0  0  0  0  0  0
  -10.0212  -33.0292   20.8263 O   0  0  0  0  0  0  0  0  0  0  0  0
  -10.9630  -31.2125   20.0088 O   0  0  0  0  0  0  0  0  0  0  0  0
   -9.4373  -33.7540   20.7184 H   0  0  0  0  0  0  0  0  0  0  0  0
 12 10  2  0  0  0
 10 11  1  0  0  0
 10  9  1  0  0  0
  9  8  1  0  0  0
  9  1  1  0  0  0
  1  2  1  0  0  0
  2  7  2  0  0  0
  2  3  1  0  0  0
  7  6  1  0  0  0
  3  4  2  0  0  0
  6  5  2  0  0  0
  4  5  1  0  0  0
 11 13  1  0  0  0
M  END
> <minimizedAffinity>
-4.94626

$$$$
4H81_WJ2_A_404


 13 13  0  0  0  0  0  0  0  0999 V2000
   -7.7255  -32.2329   16.2567 C   0  0  0  0  0  0  0  0  0  0  0  0
   -9.0707  -32.0313   16.8855 C   0  0  0  0  0  0  0  0  0  0  0  0
   -9.1984  -31.3029   18.0575 C   0  0  0  0  0  0  0  0  0  0  0  0
  -10.4396  -31.1020   18.6459 C   0  0  0  0  0  0  0  0  0  0  0  0
  -11.5714  -31.6277   18.0470 C   0  0  0  0  0  0  0  0  0  0  0  0
  -11.4454  -32.3571   16.8738 C   0  0  0  0  0  0  0  0  0  0  0  0
  -10.2010  -32.5573   16.2881 C   0  0  0  0  0  0  0  0  0  0  0  0
   -7.3754  -32.6370   13.6482 Cl  0  0  0  0  0  0  0  0  0  0  0  0
   -7.4848  -31.5200   14.9601 C   0  0  0  0  0  0  0  0  0  0  0  0
   -8.5735  -30.5547   14.6373 C   0  0  0  0  0  0  0  0  0  0  0  0
   -9.4753  -30.8928   13.8287 O   0  0  0  0  0  0  0  0  0  0  0  0
   -8.5727  -29.4093   15.1852 O   0  0  0  0  0  0  0  0  0  0  0  0
   -9.4572  -31.7431   13.4354 H   0  0  0  0  0  0  0  0  0  0  0  0
 12 10  2  0  0  0
 10 11  1  0  0  0
 10  9  1  0  0  0
  9  8  1  0  0  0
  9  1  1  0  0  0
  1  2  1  0  0  0
  2  7  2  0  0  0
  2  3  1  0  0  0
  7  6  1  0  0  0
  3  4  2  0  0  0
  6  5  2  0  0  0
  4  5  1  0  0  0
 11 13  1  0  0  0
M  END
> <minimizedAffinity>
-4.76565

$$$$
