2VK2_GZL_A_1298


 17 17  0  0  0  0  0  0  0  0999 V2000
   33.1087   27.3707   12.9451 C   0  0  0  0  0  0  0  0  0  0  0  0
   33.1550   28.8569   13.1718 C   0  0  0  0  0  0  0  0  0  0  0  0
   33.3436   29.4887   12.0213 C   0  0  0  0  0  0  0  0  0  0  0  0
   33.5385   27.2376   11.5835 O   0  0  0  0  0  0  0  0  0  0  0  0
   32.9403   29.4155   14.3579 O   0  0  0  0  0  0  0  0  0  0  0  0
   33.5731   28.5096   10.9267 C   0  0  0  0  0  0  0  0  0  0  0  0
   33.3726   30.8021   11.7885 O   0  0  0  0  0  0  0  0  0  0  0  0
   32.5538   28.5753    9.9349 O   0  0  0  0  0  0  0  0  0  0  0  0
   32.0482   29.1899   14.6648 H   0  0  0  0  0  0  0  0  0  0  0  0
   33.8113   30.9705   10.9400 H   0  0  0  0  0  0  0  0  0  0  0  0
   31.6911   28.4105   10.3464 H   0  0  0  0  0  0  0  0  0  0  0  0
   33.8782   26.4106   13.8330 C   0  0  0  0  0  0  0  0  0  0  0  0
   33.8132   25.1126   13.5158 O   0  0  0  0  0  0  0  0  0  0  0  0
   32.9291   24.7726   13.7247 H   0  0  0  0  0  0  0  0  0  0  0  0
   34.5342   26.7810   14.9506 C   0  0  0  0  0  0  0  0  0  0  0  0
   34.2836   26.2049   16.1301 O   0  0  0  0  0  0  0  0  0  0  0  0
   33.3849   26.4315   16.4162 H   0  0  0  0  0  0  0  0  0  0  0  0
 15 12  1  0  0  0
 15 16  1  0  0  0
 12  1  1  0  0  0
 12 13  1  0  0  0
  1  2  1  0  0  0
  1  4  1  0  0  0
  2  3  1  0  0  0
  2  5  1  0  0  0
  3  6  1  0  0  0
  3  7  1  0  0  0
  4  6  1  0  0  0
  6  8  1  0  0  0
 16 17  1  0  0  0
 13 14  1  0  0  0
  5  9  1  0  0  0
  7 10  1  0  0  0
  8 11  1  0  0  0
M  END
> <minimizedAffinity>
-8.08816

$$$$
2VK2_GZL_A_1298


 17 17  0  0  0  0  0  0  0  0999 V2000
   34.0312   28.0772   13.2561 C   0  0  0  0  0  0  0  0  0  0  0  0
   33.8835   28.5011   11.8205 C   0  0  0  0  0  0  0  0  0  0  0  0
   32.8099   29.2663   11.6785 C   0  0  0  0  0  0  0  0  0  0  0  0
   32.7887   28.4864   13.8437 O   0  0  0  0  0  0  0  0  0  0  0  0
   34.7757   28.2036   10.8823 O   0  0  0  0  0  0  0  0  0  0  0  0
   32.0529   29.3354   12.9559 C   0  0  0  0  0  0  0  0  0  0  0  0
   32.3753   29.8952   10.5849 O   0  0  0  0  0  0  0  0  0  0  0  0
   32.0068   30.6609   13.4734 O   0  0  0  0  0  0  0  0  0  0  0  0
   35.6349   28.5857   11.1204 H   0  0  0  0  0  0  0  0  0  0  0  0
   31.4396   30.1257   10.6949 H   0  0  0  0  0  0  0  0  0  0  0  0
   32.9103   30.9863   13.6099 H   0  0  0  0  0  0  0  0  0  0  0  0
   34.3378   26.6386   13.6288 C   0  0  0  0  0  0  0  0  0  0  0  0
   34.0250   25.7023   12.7261 O   0  0  0  0  0  0  0  0  0  0  0  0
   33.0610   25.6030   12.6840 H   0  0  0  0  0  0  0  0  0  0  0  0
   34.8146   26.2583   14.8307 C   0  0  0  0  0  0  0  0  0  0  0  0
   34.0724   26.3541   15.9379 O   0  0  0  0  0  0  0  0  0  0  0  0
   33.9150   27.2893   16.1417 H   0  0  0  0  0  0  0  0  0  0  0  0
 15 12  1  0  0  0
 15 16  1  0  0  0
 12  1  1  0  0  0
 12 13  1  0  0  0
  1  2  1  0  0  0
  1  4  1  0  0  0
  2  3  1  0  0  0
  2  5  1  0  0  0
  3  6  1  0  0  0
  3  7  1  0  0  0
  4  6  1  0  0  0
  6  8  1  0  0  0
 16 17  1  0  0  0
 13 14  1  0  0  0
  5  9  1  0  0  0
  7 10  1  0  0  0
  8 11  1  0  0  0
M  END
> <minimizedAffinity>
-7.30388

$$$$
2VK2_GZL_A_1298


 17 17  0  0  0  0  0  0  0  0999 V2000
   33.6878   27.8834   12.1229 C   0  0  0  0  0  0  0  0  0  0  0  0
   33.9463   28.2238   13.5650 C   0  0  0  0  0  0  0  0  0  0  0  0
   33.7184   27.1662   14.3317 C   0  0  0  0  0  0  0  0  0  0  0  0
   33.0559   26.5985   12.2019 O   0  0  0  0  0  0  0  0  0  0  0  0
   34.4222   29.4005   13.9571 O   0  0  0  0  0  0  0  0  0  0  0  0
   33.1637   26.0508   13.5206 C   0  0  0  0  0  0  0  0  0  0  0  0
   33.8981   27.0385   15.6476 O   0  0  0  0  0  0  0  0  0  0  0  0
   34.0299   24.9210   13.5112 O   0  0  0  0  0  0  0  0  0  0  0  0
   35.2918   29.5482   13.5536 H   0  0  0  0  0  0  0  0  0  0  0  0
   33.3840   26.2827   15.9723 H   0  0  0  0  0  0  0  0  0  0  0  0
   34.8966   25.1809   13.1617 H   0  0  0  0  0  0  0  0  0  0  0  0
   32.8866   28.8062   11.2234 C   0  0  0  0  0  0  0  0  0  0  0  0
   32.5783   28.3435   10.0067 O   0  0  0  0  0  0  0  0  0  0  0  0
   33.3776   28.3199    9.4576 H   0  0  0  0  0  0  0  0  0  0  0  0
   32.5557   30.0718   11.5477 C   0  0  0  0  0  0  0  0  0  0  0  0
   33.4651   31.0510   11.5539 O   0  0  0  0  0  0  0  0  0  0  0  0
   34.1080   30.8907   12.2623 H   0  0  0  0  0  0  0  0  0  0  0  0
 15 12  1  0  0  0
 15 16  1  0  0  0
 12  1  1  0  0  0
 12 13  1  0  0  0
  1  2  1  0  0  0
  1  4  1  0  0  0
  2  3  1  0  0  0
  2  5  1  0  0  0
  3  6  1  0  0  0
  3  7  1  0  0  0
  4  6  1  0  0  0
  6  8  1  0  0  0
 16 17  1  0  0  0
 13 14  1  0  0  0
  5  9  1  0  0  0
  7 10  1  0  0  0
  8 11  1  0  0  0
M  END
> <minimizedAffinity>
-6.98434

$$$$
2VK2_GZL_A_1298


 17 17  0  0  0  0  0  0  0  0999 V2000
   34.3372   27.6647   13.7496 C   0  0  0  0  0  0  0  0  0  0  0  0
   33.7814   27.2203   12.4245 C   0  0  0  0  0  0  0  0  0  0  0  0
   33.2460   28.2512   11.7850 C   0  0  0  0  0  0  0  0  0  0  0  0
   33.8320   29.0004   13.8808 O   0  0  0  0  0  0  0  0  0  0  0  0
   33.9132   25.9816   11.9628 O   0  0  0  0  0  0  0  0  0  0  0  0
   33.2635   29.4602   12.6495 C   0  0  0  0  0  0  0  0  0  0  0  0
   32.7162   28.2867   10.5610 O   0  0  0  0  0  0  0  0  0  0  0  0
   34.0688   30.4957   12.0961 O   0  0  0  0  0  0  0  0  0  0  0  0
   34.8552   25.7695   11.8704 H   0  0  0  0  0  0  0  0  0  0  0  0
   32.1522   29.0713   10.4754 H   0  0  0  0  0  0  0  0  0  0  0  0
   34.9736   30.1695   11.9705 H   0  0  0  0  0  0  0  0  0  0  0  0
   34.0754   26.8790   15.0210 C   0  0  0  0  0  0  0  0  0  0  0  0
   32.7953   26.6536   15.3375 O   0  0  0  0  0  0  0  0  0  0  0  0
   32.3845   27.4815   15.6321 H   0  0  0  0  0  0  0  0  0  0  0  0
   35.0416   26.4844   15.8738 C   0  0  0  0  0  0  0  0  0  0  0  0
   34.7540   25.8045   16.9878 O   0  0  0  0  0  0  0  0  0  0  0  0
   34.2580   26.3748   17.5957 H   0  0  0  0  0  0  0  0  0  0  0  0
 15 12  1  0  0  0
 15 16  1  0  0  0
 12  1  1  0  0  0
 12 13  1  0  0  0
  1  2  1  0  0  0
  1  4  1  0  0  0
  2  3  1  0  0  0
  2  5  1  0  0  0
  3  6  1  0  0  0
  3  7  1  0  0  0
  4  6  1  0  0  0
  6  8  1  0  0  0
 16 17  1  0  0  0
 13 14  1  0  0  0
  5  9  1  0  0  0
  7 10  1  0  0  0
  8 11  1  0  0  0
M  END
> <minimizedAffinity>
-6.34815

$$$$
2VK2_GZL_A_1298


 17 17  0  0  0  0  0  0  0  0999 V2000
   33.3757   28.5141   13.2265 C   0  0  0  0  0  0  0  0  0  0  0  0
   33.1036   27.0823   12.8547 C   0  0  0  0  0  0  0  0  0  0  0  0
   33.8141   26.2681   13.6232 C   0  0  0  0  0  0  0  0  0  0  0  0
   34.4969   28.4104   14.1146 O   0  0  0  0  0  0  0  0  0  0  0  0
   32.2036   26.7293   11.9435 O   0  0  0  0  0  0  0  0  0  0  0  0
   34.7284   27.0498   14.4964 C   0  0  0  0  0  0  0  0  0  0  0  0
   33.8023   24.9343   13.6563 O   0  0  0  0  0  0  0  0  0  0  0  0
   34.4251   26.8710   15.8759 O   0  0  0  0  0  0  0  0  0  0  0  0
   31.3265   27.0389   12.2186 H   0  0  0  0  0  0  0  0  0  0  0  0
   34.6107   24.6144   14.0865 H   0  0  0  0  0  0  0  0  0  0  0  0
   33.5070   27.1361   16.0421 H   0  0  0  0  0  0  0  0  0  0  0  0
   33.6416   29.5694   12.1690 C   0  0  0  0  0  0  0  0  0  0  0  0
   32.7818   30.5923   12.1088 O   0  0  0  0  0  0  0  0  0  0  0  0
   31.9364   30.2833   11.7470 H   0  0  0  0  0  0  0  0  0  0  0  0
   34.6248   29.4834   11.2511 C   0  0  0  0  0  0  0  0  0  0  0  0
   34.5335   28.6549   10.2065 O   0  0  0  0  0  0  0  0  0  0  0  0
   34.5559   27.7369   10.5190 H   0  0  0  0  0  0  0  0  0  0  0  0
 15 12  1  0  0  0
 15 16  1  0  0  0
 12  1  1  0  0  0
 12 13  1  0  0  0
  1  2  1  0  0  0
  1  4  1  0  0  0
  2  3  1  0  0  0
  2  5  1  0  0  0
  3  6  1  0  0  0
  3  7  1  0  0  0
  4  6  1  0  0  0
  6  8  1  0  0  0
 16 17  1  0  0  0
 13 14  1  0  0  0
  5  9  1  0  0  0
  7 10  1  0  0  0
  8 11  1  0  0  0
M  END
> <minimizedAffinity>
-6.20714

$$$$
2VK2_GZL_A_1298


 17 17  0  0  0  0  0  0  0  0999 V2000
   33.0878   28.1084   12.5997 C   0  0  0  0  0  0  0  0  0  0  0  0
   33.7860   26.8563   13.0548 C   0  0  0  0  0  0  0  0  0  0  0  0
   34.4978   27.1016   14.1463 C   0  0  0  0  0  0  0  0  0  0  0  0
   33.6865   29.1266   13.4129 O   0  0  0  0  0  0  0  0  0  0  0  0
   33.6114   25.6765   12.4697 O   0  0  0  0  0  0  0  0  0  0  0  0
   34.4648   28.5522   14.4688 C   0  0  0  0  0  0  0  0  0  0  0  0
   35.1990   26.2456   14.8919 O   0  0  0  0  0  0  0  0  0  0  0  0
   33.8434   28.8017   15.7252 O   0  0  0  0  0  0  0  0  0  0  0  0
   32.6773   25.4218   12.5279 H   0  0  0  0  0  0  0  0  0  0  0  0
   35.8374   26.7359   15.4331 H   0  0  0  0  0  0  0  0  0  0  0  0
   32.9404   28.4474   15.7153 H   0  0  0  0  0  0  0  0  0  0  0  0
   33.0928   28.5321   11.1426 C   0  0  0  0  0  0  0  0  0  0  0  0
   33.6352   27.6773   10.2682 O   0  0  0  0  0  0  0  0  0  0  0  0
   34.5983   27.6646   10.3834 H   0  0  0  0  0  0  0  0  0  0  0  0
   32.6701   29.7357   10.7078 C   0  0  0  0  0  0  0  0  0  0  0  0
   33.0087   30.8640   11.3391 O   0  0  0  0  0  0  0  0  0  0  0  0
   32.5943   30.8807   12.2159 H   0  0  0  0  0  0  0  0  0  0  0  0
 15 12  1  0  0  0
 15 16  1  0  0  0
 12  1  1  0  0  0
 12 13  1  0  0  0
  1  2  1  0  0  0
  1  4  1  0  0  0
  2  3  1  0  0  0
  2  5  1  0  0  0
  3  6  1  0  0  0
  3  7  1  0  0  0
  4  6  1  0  0  0
  6  8  1  0  0  0
 16 17  1  0  0  0
 13 14  1  0  0  0
  5  9  1  0  0  0
  7 10  1  0  0  0
  8 11  1  0  0  0
M  END
> <minimizedAffinity>
-5.68074

$$$$
2VK2_GZL_A_1298


 17 17  0  0  0  0  0  0  0  0999 V2000
   34.0454   28.1393   12.5773 C   0  0  0  0  0  0  0  0  0  0  0  0
   33.4082   28.3786   13.9186 C   0  0  0  0  0  0  0  0  0  0  0  0
   33.5900   27.3263   14.7047 C   0  0  0  0  0  0  0  0  0  0  0  0
   34.3837   26.7465   12.6236 O   0  0  0  0  0  0  0  0  0  0  0  0
   32.8366   29.5301   14.2536 O   0  0  0  0  0  0  0  0  0  0  0  0
   34.2454   26.2259   13.9504 C   0  0  0  0  0  0  0  0  0  0  0  0
   33.2416   27.1732   15.9835 O   0  0  0  0  0  0  0  0  0  0  0  0
   35.5252   25.9056   14.4855 O   0  0  0  0  0  0  0  0  0  0  0  0
   33.4940   30.2420   14.2102 H   0  0  0  0  0  0  0  0  0  0  0  0
   33.2298   26.2288   16.2046 H   0  0  0  0  0  0  0  0  0  0  0  0
   36.0889   26.6949   14.4699 H   0  0  0  0  0  0  0  0  0  0  0  0
   33.3148   28.4578   11.2861 C   0  0  0  0  0  0  0  0  0  0  0  0
   33.2010   27.4646   10.3973 O   0  0  0  0  0  0  0  0  0  0  0  0
   34.0662   27.2899    9.9950 H   0  0  0  0  0  0  0  0  0  0  0  0
   32.8649   29.6856   10.9596 C   0  0  0  0  0  0  0  0  0  0  0  0
   33.1489   30.7549   11.7091 O   0  0  0  0  0  0  0  0  0  0  0  0
   32.7104   30.6718   12.5704 H   0  0  0  0  0  0  0  0  0  0  0  0
 15 12  1  0  0  0
 15 16  1  0  0  0
 12  1  1  0  0  0
 12 13  1  0  0  0
  1  2  1  0  0  0
  1  4  1  0  0  0
  2  3  1  0  0  0
  2  5  1  0  0  0
  3  6  1  0  0  0
  3  7  1  0  0  0
  4  6  1  0  0  0
  6  8  1  0  0  0
 16 17  1  0  0  0
 13 14  1  0  0  0
  5  9  1  0  0  0
  7 10  1  0  0  0
  8 11  1  0  0  0
M  END
> <minimizedAffinity>
-5.65603

$$$$
