1AX0_A2G_A_401


 20 20  0  0  0  0  0  0  0  0999 V2000
   17.1206   -2.6225   36.5500 O   0  0  0  0  0  0  0  0  0  0  0  0
   17.0785   -1.2026   36.7196 C   0  0  0  0  0  0  0  0  0  0  0  0
   16.6165   -0.9356   37.9962 O   0  0  0  0  0  0  0  0  0  0  0  0
   16.1442   -0.5600   35.6857 C   0  0  0  0  0  0  0  0  0  0  0  0
   14.7568   -1.2075   35.7270 C   0  0  0  0  0  0  0  0  0  0  0  0
   13.9567   -0.7009   34.6628 O   0  0  0  0  0  0  0  0  0  0  0  0
   14.8905   -2.7216   35.5983 C   0  0  0  0  0  0  0  0  0  0  0  0
   15.4287   -3.0469   34.3253 O   0  0  0  0  0  0  0  0  0  0  0  0
   15.8209   -3.2315   36.6907 C   0  0  0  0  0  0  0  0  0  0  0  0
   15.7293   -1.3125   38.1044 H   0  0  0  0  0  0  0  0  0  0  0  0
   14.3779   -0.9093   33.8142 H   0  0  0  0  0  0  0  0  0  0  0  0
   16.3015   -2.6349   34.2283 H   0  0  0  0  0  0  0  0  0  0  0  0
   16.0174    0.8558   35.9702 N   0  0  0  0  0  0  0  0  0  0  0  0
   16.0239    1.7436   34.9815 C   0  0  0  0  0  0  0  0  0  0  0  0
   16.1354    1.4295   33.7970 O   0  0  0  0  0  0  0  0  0  0  0  0
   15.8866    3.2079   35.3707 C   0  0  0  0  0  0  0  0  0  0  0  0
   15.9258    1.1614   36.9016 H   0  0  0  0  0  0  0  0  0  0  0  0
   16.0213   -4.7332   36.6354 C   0  0  0  0  0  0  0  0  0  0  0  0
   17.0674   -5.0701   35.7373 O   0  0  0  0  0  0  0  0  0  0  0  0
   16.8409   -4.7606   34.8464 H   0  0  0  0  0  0  0  0  0  0  0  0
  1  9  1  0  0  0
  2  1  1  0  0  0
  2  4  1  0  0  0
  3  2  1  0  0  0
  4  5  1  0  0  0
 13  4  1  0  0  0
  5  7  1  0  0  0
  5  6  1  0  0  0
  7  8  1  0  0  0
  9  7  1  0  0  0
  9 18  1  0  0  0
 18 19  1  0  0  0
 14 13  1  0  0  0
 15 14  2  0  0  0
 16 14  1  0  0  0
  3 10  1  0  0  0
 13 17  1  0  0  0
  6 11  1  0  0  0
  8 12  1  0  0  0
 19 20  1  0  0  0
M  END
> <minimizedAffinity>
-6.55129

$$$$
1AX0_A2G_A_401


 20 20  0  0  0  0  0  0  0  0999 V2000
   15.9277    0.9035   36.9113 O   0  0  0  0  0  0  0  0  0  0  0  0
   16.1481   -0.4367   37.3605 C   0  0  0  0  0  0  0  0  0  0  0  0
   17.5089   -0.6123   37.5381 O   0  0  0  0  0  0  0  0  0  0  0  0
   15.6256   -1.4471   36.3306 C   0  0  0  0  0  0  0  0  0  0  0  0
   16.2239   -1.1753   34.9471 C   0  0  0  0  0  0  0  0  0  0  0  0
   15.6127   -2.0263   33.9820 O   0  0  0  0  0  0  0  0  0  0  0  0
   15.9989    0.2846   34.5660 C   0  0  0  0  0  0  0  0  0  0  0  0
   14.6072    0.5359   34.4389 O   0  0  0  0  0  0  0  0  0  0  0  0
   16.5807    1.1763   35.6546 C   0  0  0  0  0  0  0  0  0  0  0  0
   17.9670   -0.4613   36.6966 H   0  0  0  0  0  0  0  0  0  0  0  0
   14.6591   -1.8511   33.9541 H   0  0  0  0  0  0  0  0  0  0  0  0
   14.1666    0.3494   35.2827 H   0  0  0  0  0  0  0  0  0  0  0  0
   15.9856   -2.7873   36.7498 N   0  0  0  0  0  0  0  0  0  0  0  0
   15.1864   -3.8139   36.4796 C   0  0  0  0  0  0  0  0  0  0  0  0
   14.1212   -3.6954   35.8748 O   0  0  0  0  0  0  0  0  0  0  0  0
   15.6416   -5.1847   36.9573 C   0  0  0  0  0  0  0  0  0  0  0  0
   16.8273   -2.9378   37.2377 H   0  0  0  0  0  0  0  0  0  0  0  0
   16.3946    2.6525   35.3641 C   0  0  0  0  0  0  0  0  0  0  0  0
   15.2420    3.1552   36.0222 O   0  0  0  0  0  0  0  0  0  0  0  0
   14.4567    2.6817   35.7058 H   0  0  0  0  0  0  0  0  0  0  0  0
  1  9  1  0  0  0
  2  1  1  0  0  0
  2  4  1  0  0  0
  3  2  1  0  0  0
  4  5  1  0  0  0
 13  4  1  0  0  0
  5  7  1  0  0  0
  5  6  1  0  0  0
  7  8  1  0  0  0
  9  7  1  0  0  0
  9 18  1  0  0  0
 18 19  1  0  0  0
 14 13  1  0  0  0
 15 14  2  0  0  0
 16 14  1  0  0  0
  3 10  1  0  0  0
 13 17  1  0  0  0
  6 11  1  0  0  0
  8 12  1  0  0  0
 19 20  1  0  0  0
M  END
> <minimizedAffinity>
-5.60974

$$$$
1AX0_A2G_A_401


 20 20  0  0  0  0  0  0  0  0999 V2000
   16.0564   -0.0815   34.1939 O   0  0  0  0  0  0  0  0  0  0  0  0
   15.4636   -1.2993   34.6542 C   0  0  0  0  0  0  0  0  0  0  0  0
   14.1361   -1.0461   34.9508 O   0  0  0  0  0  0  0  0  0  0  0  0
   16.1850   -1.8146   35.9067 C   0  0  0  0  0  0  0  0  0  0  0  0
   16.2410   -0.7319   36.9886 C   0  0  0  0  0  0  0  0  0  0  0  0
   17.0420   -1.1801   38.0780 O   0  0  0  0  0  0  0  0  0  0  0  0
   16.8300    0.5490   36.4059 C   0  0  0  0  0  0  0  0  0  0  0  0
   18.1772    0.3222   36.0190 O   0  0  0  0  0  0  0  0  0  0  0  0
   16.0126    0.9614   35.1891 C   0  0  0  0  0  0  0  0  0  0  0  0
   14.0829   -0.3660   35.6404 H   0  0  0  0  0  0  0  0  0  0  0  0
   17.9420   -1.3609   37.7646 H   0  0  0  0  0  0  0  0  0  0  0  0
   18.2080   -0.3815   35.3522 H   0  0  0  0  0  0  0  0  0  0  0  0
   15.4781   -2.9692   36.4251 N   0  0  0  0  0  0  0  0  0  0  0  0
   16.0396   -4.1730   36.3901 C   0  0  0  0  0  0  0  0  0  0  0  0
   17.1618   -4.3780   35.9286 O   0  0  0  0  0  0  0  0  0  0  0  0
   15.2265   -5.3282   36.9547 C   0  0  0  0  0  0  0  0  0  0  0  0
   14.5765   -2.8608   36.8054 H   0  0  0  0  0  0  0  0  0  0  0  0
   16.5329    2.2266   34.5355 C   0  0  0  0  0  0  0  0  0  0  0  0
   17.5427    1.9251   33.5849 O   0  0  0  0  0  0  0  0  0  0  0  0
   18.2844    1.4855   34.0294 H   0  0  0  0  0  0  0  0  0  0  0  0
  1  9  1  0  0  0
  2  1  1  0  0  0
  2  4  1  0  0  0
  3  2  1  0  0  0
  4  5  1  0  0  0
 13  4  1  0  0  0
  5  7  1  0  0  0
  5  6  1  0  0  0
  7  8  1  0  0  0
  9  7  1  0  0  0
  9 18  1  0  0  0
 18 19  1  0  0  0
 14 13  1  0  0  0
 15 14  2  0  0  0
 16 14  1  0  0  0
  3 10  1  0  0  0
 13 17  1  0  0  0
  6 11  1  0  0  0
  8 12  1  0  0  0
 19 20  1  0  0  0
M  END
> <minimizedAffinity>
-5.38757

$$$$
1AX0_A2G_A_401


 20 20  0  0  0  0  0  0  0  0999 V2000
   14.8117   -3.1124   36.0938 O   0  0  0  0  0  0  0  0  0  0  0  0
   15.0235   -2.0794   35.1271 C   0  0  0  0  0  0  0  0  0  0  0  0
   15.4326   -2.6730   33.9462 O   0  0  0  0  0  0  0  0  0  0  0  0
   16.0966   -1.0950   35.6109 C   0  0  0  0  0  0  0  0  0  0  0  0
   17.3846   -1.8333   35.9873 C   0  0  0  0  0  0  0  0  0  0  0  0
   18.3095   -0.9213   36.5722 O   0  0  0  0  0  0  0  0  0  0  0  0
   17.0676   -2.9528   36.9738 C   0  0  0  0  0  0  0  0  0  0  0  0
   16.5753   -2.3973   38.1843 O   0  0  0  0  0  0  0  0  0  0  0  0
   16.0115   -3.8654   36.3651 C   0  0  0  0  0  0  0  0  0  0  0  0
   16.2557   -3.1629   34.0988 H   0  0  0  0  0  0  0  0  0  0  0  0
   17.9207   -0.5355   37.3727 H   0  0  0  0  0  0  0  0  0  0  0  0
   15.7702   -1.8878   38.0024 H   0  0  0  0  0  0  0  0  0  0  0  0
   16.3842   -0.1440   34.5553 N   0  0  0  0  0  0  0  0  0  0  0  0
   16.0733    1.1394   34.7034 C   0  0  0  0  0  0  0  0  0  0  0  0
   15.5368    1.5885   35.7156 O   0  0  0  0  0  0  0  0  0  0  0  0
   16.4100    2.0670   33.5455 C   0  0  0  0  0  0  0  0  0  0  0  0
   16.8126   -0.4508   33.7237 H   0  0  0  0  0  0  0  0  0  0  0  0
   15.6252   -5.0082   37.2834 C   0  0  0  0  0  0  0  0  0  0  0  0
   16.5493   -5.1302   38.3537 O   0  0  0  0  0  0  0  0  0  0  0  0
   17.4336   -5.3112   37.9983 H   0  0  0  0  0  0  0  0  0  0  0  0
  1  9  1  0  0  0
  2  1  1  0  0  0
  2  4  1  0  0  0
  3  2  1  0  0  0
  4  5  1  0  0  0
 13  4  1  0  0  0
  5  7  1  0  0  0
  5  6  1  0  0  0
  7  8  1  0  0  0
  9  7  1  0  0  0
  9 18  1  0  0  0
 18 19  1  0  0  0
 14 13  1  0  0  0
 15 14  2  0  0  0
 16 14  1  0  0  0
  3 10  1  0  0  0
 13 17  1  0  0  0
  6 11  1  0  0  0
  8 12  1  0  0  0
 19 20  1  0  0  0
M  END
> <minimizedAffinity>
-5.32988

$$$$
1AX0_A2G_A_401


 20 20  0  0  0  0  0  0  0  0999 V2000
   17.3916   -1.0941   37.5295 O   0  0  0  0  0  0  0  0  0  0  0  0
   16.7310   -0.0168   36.8592 C   0  0  0  0  0  0  0  0  0  0  0  0
   15.7499    0.4763   37.7010 O   0  0  0  0  0  0  0  0  0  0  0  0
   16.0943   -0.5013   35.5497 C   0  0  0  0  0  0  0  0  0  0  0  0
   15.1758   -1.7010   35.8006 C   0  0  0  0  0  0  0  0  0  0  0  0
   14.7165   -2.2245   34.5579 O   0  0  0  0  0  0  0  0  0  0  0  0
   15.9344   -2.7794   36.5677 C   0  0  0  0  0  0  0  0  0  0  0  0
   17.0009   -3.2721   35.7700 O   0  0  0  0  0  0  0  0  0  0  0  0
   16.4930   -2.1759   37.8493 C   0  0  0  0  0  0  0  0  0  0  0  0
   15.1165   -0.2288   37.9072 H   0  0  0  0  0  0  0  0  0  0  0  0
   15.4761   -2.5130   34.0281 H   0  0  0  0  0  0  0  0  0  0  0  0
   17.6040   -2.5445   35.5515 H   0  0  0  0  0  0  0  0  0  0  0  0
   15.3204    0.5769   34.9664 N   0  0  0  0  0  0  0  0  0  0  0  0
   15.8535    1.3591   34.0338 C   0  0  0  0  0  0  0  0  0  0  0  0
   17.0039    1.2224   33.6191 O   0  0  0  0  0  0  0  0  0  0  0  0
   14.9706    2.4660   33.4772 C   0  0  0  0  0  0  0  0  0  0  0  0
   14.3943    0.7304   35.2629 H   0  0  0  0  0  0  0  0  0  0  0  0
   17.2743   -3.1777   38.6765 C   0  0  0  0  0  0  0  0  0  0  0  0
   16.7547   -4.4874   38.5061 O   0  0  0  0  0  0  0  0  0  0  0  0
   15.8296   -4.5086   38.7970 H   0  0  0  0  0  0  0  0  0  0  0  0
  1  9  1  0  0  0
  2  1  1  0  0  0
  2  4  1  0  0  0
  3  2  1  0  0  0
  4  5  1  0  0  0
 13  4  1  0  0  0
  5  7  1  0  0  0
  5  6  1  0  0  0
  7  8  1  0  0  0
  9  7  1  0  0  0
  9 18  1  0  0  0
 18 19  1  0  0  0
 14 13  1  0  0  0
 15 14  2  0  0  0
 16 14  1  0  0  0
  3 10  1  0  0  0
 13 17  1  0  0  0
  6 11  1  0  0  0
  8 12  1  0  0  0
 19 20  1  0  0  0
M  END
> <minimizedAffinity>
-5.25822

$$$$
1AX0_A2G_A_401


 20 20  0  0  0  0  0  0  0  0999 V2000
   14.7958    1.0256   34.3575 O   0  0  0  0  0  0  0  0  0  0  0  0
   15.2736    2.3570   34.1441 C   0  0  0  0  0  0  0  0  0  0  0  0
   16.1925    2.3236   33.1104 O   0  0  0  0  0  0  0  0  0  0  0  0
   15.9410    2.9040   35.4130 C   0  0  0  0  0  0  0  0  0  0  0  0
   17.0320    1.9509   35.9100 C   0  0  0  0  0  0  0  0  0  0  0  0
   17.5315    2.4027   37.1652 O   0  0  0  0  0  0  0  0  0  0  0  0
   16.4600    0.5444   36.0568 C   0  0  0  0  0  0  0  0  0  0  0  0
   15.4577    0.5390   37.0625 O   0  0  0  0  0  0  0  0  0  0  0  0
   15.8515    0.1158   34.7283 C   0  0  0  0  0  0  0  0  0  0  0  0
   16.9278    1.7381   33.3502 H   0  0  0  0  0  0  0  0  0  0  0  0
   16.8094    2.4219   37.8126 H   0  0  0  0  0  0  0  0  0  0  0  0
   14.7487    1.1533   36.8157 H   0  0  0  0  0  0  0  0  0  0  0  0
   16.5329    4.1954   35.1237 N   0  0  0  0  0  0  0  0  0  0  0  0
   16.5128    5.1633   36.0338 C   0  0  0  0  0  0  0  0  0  0  0  0
   16.0051    5.0291   37.1466 O   0  0  0  0  0  0  0  0  0  0  0  0
   17.1560    6.4862   35.6455 C   0  0  0  0  0  0  0  0  0  0  0  0
   16.9522    4.3561   34.2475 H   0  0  0  0  0  0  0  0  0  0  0  0
   15.2474   -1.2737   34.7819 C   0  0  0  0  0  0  0  0  0  0  0  0
   13.9399   -1.2347   35.3325 O   0  0  0  0  0  0  0  0  0  0  0  0
   13.9800   -0.8855   36.2366 H   0  0  0  0  0  0  0  0  0  0  0  0
  1  9  1  0  0  0
  2  1  1  0  0  0
  2  4  1  0  0  0
  3  2  1  0  0  0
  4  5  1  0  0  0
 13  4  1  0  0  0
  5  7  1  0  0  0
  5  6  1  0  0  0
  7  8  1  0  0  0
  9  7  1  0  0  0
  9 18  1  0  0  0
 18 19  1  0  0  0
 14 13  1  0  0  0
 15 14  2  0  0  0
 16 14  1  0  0  0
  3 10  1  0  0  0
 13 17  1  0  0  0
  6 11  1  0  0  0
  8 12  1  0  0  0
 19 20  1  0  0  0
M  END
> <minimizedAffinity>
-5.14552

$$$$
1AX0_A2G_A_401


 20 20  0  0  0  0  0  0  0  0999 V2000
   17.6517    2.0184   35.4407 O   0  0  0  0  0  0  0  0  0  0  0  0
   17.7917    0.6749   35.9116 C   0  0  0  0  0  0  0  0  0  0  0  0
   18.6556    0.0087   35.0607 O   0  0  0  0  0  0  0  0  0  0  0  0
   16.4327   -0.0376   35.9317 C   0  0  0  0  0  0  0  0  0  0  0  0
   15.7519    0.0470   34.5623 C   0  0  0  0  0  0  0  0  0  0  0  0
   14.4339   -0.4872   34.6456 O   0  0  0  0  0  0  0  0  0  0  0  0
   15.6929    1.5010   34.1049 C   0  0  0  0  0  0  0  0  0  0  0  0
   14.8703    2.2470   34.9898 O   0  0  0  0  0  0  0  0  0  0  0  0
   17.1016    2.0793   34.1089 C   0  0  0  0  0  0  0  0  0  0  0  0
   18.2910    0.0125   34.1619 H   0  0  0  0  0  0  0  0  0  0  0  0
   13.9176    0.0247   35.2877 H   0  0  0  0  0  0  0  0  0  0  0  0
   15.2376    2.2038   35.8865 H   0  0  0  0  0  0  0  0  0  0  0  0
   16.6280   -1.4309   36.2809 N   0  0  0  0  0  0  0  0  0  0  0  0
   16.6710   -1.8052   37.5551 C   0  0  0  0  0  0  0  0  0  0  0  0
   16.5519   -1.0161   38.4918 O   0  0  0  0  0  0  0  0  0  0  0  0
   16.8803   -3.2867   37.8305 C   0  0  0  0  0  0  0  0  0  0  0  0
   16.7295   -2.1040   35.5696 H   0  0  0  0  0  0  0  0  0  0  0  0
   17.1400    3.5312   33.6742 C   0  0  0  0  0  0  0  0  0  0  0  0
   16.5626    4.3696   34.6632 O   0  0  0  0  0  0  0  0  0  0  0  0
   15.6360    4.1176   34.7999 H   0  0  0  0  0  0  0  0  0  0  0  0
  1  9  1  0  0  0
  2  1  1  0  0  0
  2  4  1  0  0  0
  3  2  1  0  0  0
  4  5  1  0  0  0
 13  4  1  0  0  0
  5  7  1  0  0  0
  5  6  1  0  0  0
  7  8  1  0  0  0
  9  7  1  0  0  0
  9 18  1  0  0  0
 18 19  1  0  0  0
 14 13  1  0  0  0
 15 14  2  0  0  0
 16 14  1  0  0  0
  3 10  1  0  0  0
 13 17  1  0  0  0
  6 11  1  0  0  0
  8 12  1  0  0  0
 19 20  1  0  0  0
M  END
> <minimizedAffinity>
-4.57924

$$$$
1AX0_A2G_A_401


 20 20  0  0  0  0  0  0  0  0999 V2000
   16.8379   -0.0653   34.0114 O   0  0  0  0  0  0  0  0  0  0  0  0
   17.9141    0.7650   33.5655 C   0  0  0  0  0  0  0  0  0  0  0  0
   18.9274    0.6969   34.5052 O   0  0  0  0  0  0  0  0  0  0  0  0
   17.4492    2.2190   33.4095 C   0  0  0  0  0  0  0  0  0  0  0  0
   16.7998    2.7259   34.7006 C   0  0  0  0  0  0  0  0  0  0  0  0
   16.2442    4.0198   34.4849 O   0  0  0  0  0  0  0  0  0  0  0  0
   15.7047    1.7594   35.1407 C   0  0  0  0  0  0  0  0  0  0  0  0
   14.6676    1.7393   34.1711 O   0  0  0  0  0  0  0  0  0  0  0  0
   16.3007    0.3649   35.2788 C   0  0  0  0  0  0  0  0  0  0  0  0
   18.5958    1.0094   35.3615 H   0  0  0  0  0  0  0  0  0  0  0  0
   15.5694    3.9701   33.7898 H   0  0  0  0  0  0  0  0  0  0  0  0
   15.0286    1.4533   33.3174 H   0  0  0  0  0  0  0  0  0  0  0  0
   18.5902    3.0546   33.0907 N   0  0  0  0  0  0  0  0  0  0  0  0
   18.8274    3.4183   31.8349 C   0  0  0  0  0  0  0  0  0  0  0  0
   18.1151    3.0784   30.8908 O   0  0  0  0  0  0  0  0  0  0  0  0
   20.0467    4.2947   31.5910 C   0  0  0  0  0  0  0  0  0  0  0  0
   19.1930    3.3543   33.8091 H   0  0  0  0  0  0  0  0  0  0  0  0
   15.2781   -0.6694   35.7064 C   0  0  0  0  0  0  0  0  0  0  0  0
   14.3235   -0.8900   34.6795 O   0  0  0  0  0  0  0  0  0  0  0  0
   13.8565   -0.0614   34.4888 H   0  0  0  0  0  0  0  0  0  0  0  0
  1  9  1  0  0  0
  2  1  1  0  0  0
  2  4  1  0  0  0
  3  2  1  0  0  0
  4  5  1  0  0  0
 13  4  1  0  0  0
  5  7  1  0  0  0
  5  6  1  0  0  0
  7  8  1  0  0  0
  9  7  1  0  0  0
  9 18  1  0  0  0
 18 19  1  0  0  0
 14 13  1  0  0  0
 15 14  2  0  0  0
 16 14  1  0  0  0
  3 10  1  0  0  0
 13 17  1  0  0  0
  6 11  1  0  0  0
  8 12  1  0  0  0
 19 20  1  0  0  0
M  END
> <minimizedAffinity>
-4.52417

$$$$
1AX0_A2G_A_401


 20 20  0  0  0  0  0  0  0  0999 V2000
   16.7865    1.8695   33.8081 O   0  0  0  0  0  0  0  0  0  0  0  0
   15.9902    0.8729   34.4553 C   0  0  0  0  0  0  0  0  0  0  0  0
   15.3760    1.4567   35.5490 O   0  0  0  0  0  0  0  0  0  0  0  0
   16.8617   -0.3027   34.9171 C   0  0  0  0  0  0  0  0  0  0  0  0
   18.0248    0.1878   35.7845 C   0  0  0  0  0  0  0  0  0  0  0  0
   18.9004   -0.8975   36.0751 O   0  0  0  0  0  0  0  0  0  0  0  0
   18.7878    1.2860   35.0504 C   0  0  0  0  0  0  0  0  0  0  0  0
   19.3823    0.7517   33.8768 O   0  0  0  0  0  0  0  0  0  0  0  0
   17.8163    2.3952   34.6702 C   0  0  0  0  0  0  0  0  0  0  0  0
   16.0519    1.7931   36.1580 H   0  0  0  0  0  0  0  0  0  0  0  0
   19.2538   -1.2585   35.2470 H   0  0  0  0  0  0  0  0  0  0  0  0
   18.6907    0.3948   33.2978 H   0  0  0  0  0  0  0  0  0  0  0  0
   16.0510   -1.2262   35.6861 N   0  0  0  0  0  0  0  0  0  0  0  0
   15.5368   -2.3086   35.1119 C   0  0  0  0  0  0  0  0  0  0  0  0
   15.7104   -2.5870   33.9259 O   0  0  0  0  0  0  0  0  0  0  0  0
   14.6981   -3.2223   35.9929 C   0  0  0  0  0  0  0  0  0  0  0  0
   15.8803   -1.0504   36.6397 H   0  0  0  0  0  0  0  0  0  0  0  0
   18.4877    3.5318   33.9247 C   0  0  0  0  0  0  0  0  0  0  0  0
   17.5836    4.6071   33.7233 O   0  0  0  0  0  0  0  0  0  0  0  0
   16.8295    4.3010   33.1956 H   0  0  0  0  0  0  0  0  0  0  0  0
  1  9  1  0  0  0
  2  1  1  0  0  0
  2  4  1  0  0  0
  3  2  1  0  0  0
  4  5  1  0  0  0
 13  4  1  0  0  0
  5  7  1  0  0  0
  5  6  1  0  0  0
  7  8  1  0  0  0
  9  7  1  0  0  0
  9 18  1  0  0  0
 18 19  1  0  0  0
 14 13  1  0  0  0
 15 14  2  0  0  0
 16 14  1  0  0  0
  3 10  1  0  0  0
 13 17  1  0  0  0
  6 11  1  0  0  0
  8 12  1  0  0  0
 19 20  1  0  0  0
M  END
> <minimizedAffinity>
-4.38904

$$$$
1AX0_A2G_A_401


 20 20  0  0  0  0  0  0  0  0999 V2000
   16.0408    1.2392   35.9815 O   0  0  0  0  0  0  0  0  0  0  0  0
   16.7382    0.4891   36.9801 C   0  0  0  0  0  0  0  0  0  0  0  0
   18.0849    0.4985   36.6627 O   0  0  0  0  0  0  0  0  0  0  0  0
   16.2275   -0.9572   37.0280 C   0  0  0  0  0  0  0  0  0  0  0  0
   16.2919   -1.6049   35.6415 C   0  0  0  0  0  0  0  0  0  0  0  0
   15.6762   -2.8888   35.6804 O   0  0  0  0  0  0  0  0  0  0  0  0
   15.5781   -0.7192   34.6252 C   0  0  0  0  0  0  0  0  0  0  0  0
   14.1977   -0.6389   34.9480 O   0  0  0  0  0  0  0  0  0  0  0  0
   16.1926    0.6736   34.6635 C   0  0  0  0  0  0  0  0  0  0  0  0
   18.2142    0.0957   35.7898 H   0  0  0  0  0  0  0  0  0  0  0  0
   14.7470   -2.7941   35.9423 H   0  0  0  0  0  0  0  0  0  0  0  0
   14.0947   -0.2617   35.8358 H   0  0  0  0  0  0  0  0  0  0  0  0
   17.0440   -1.7227   37.9493 N   0  0  0  0  0  0  0  0  0  0  0  0
   17.0137   -1.4609   39.2517 C   0  0  0  0  0  0  0  0  0  0  0  0
   16.3120   -0.5778   39.7436 O   0  0  0  0  0  0  0  0  0  0  0  0
   17.9029   -2.3124   40.1455 C   0  0  0  0  0  0  0  0  0  0  0  0
   17.6245   -2.4409   37.6080 H   0  0  0  0  0  0  0  0  0  0  0  0
   15.5368    1.6301   33.6871 C   0  0  0  0  0  0  0  0  0  0  0  0
   14.2794    2.0690   34.1778 O   0  0  0  0  0  0  0  0  0  0  0  0
   13.6934    1.3049   34.2948 H   0  0  0  0  0  0  0  0  0  0  0  0
  1  9  1  0  0  0
  2  1  1  0  0  0
  2  4  1  0  0  0
  3  2  1  0  0  0
  4  5  1  0  0  0
 13  4  1  0  0  0
  5  7  1  0  0  0
  5  6  1  0  0  0
  7  8  1  0  0  0
  9  7  1  0  0  0
  9 18  1  0  0  0
 18 19  1  0  0  0
 14 13  1  0  0  0
 15 14  2  0  0  0
 16 14  1  0  0  0
  3 10  1  0  0  0
 13 17  1  0  0  0
  6 11  1  0  0  0
  8 12  1  0  0  0
 19 20  1  0  0  0
M  END
> <minimizedAffinity>
-4.35670

$$$$
