2OXY_K17_A_1001


 14 15  0  0  0  0  0  0  0  0999 V2000
   -9.9568    5.2860    8.3372 Br  0  0  0  0  0  0  0  0  0  0  0  0
  -10.7955    5.6664    6.7000 C   0  0  0  0  0  0  0  0  0  0  0  0
  -11.0504    4.5943    5.8398 C   0  0  0  0  0  0  0  0  0  0  0  0
  -10.5802    2.8435    6.4458 Br  0  0  0  0  0  0  0  0  0  0  0  0
  -11.1045    6.9716    6.3584 C   0  0  0  0  0  0  0  0  0  0  0  0
  -10.9457    8.1556    7.0433 N   0  0  0  0  0  0  0  0  0  0  0  0
  -11.4471    9.0884    6.2152 C   0  0  0  0  0  0  0  0  0  0  0  0
  -11.8881    8.5176    5.0562 N   0  0  0  0  0  0  0  0  0  0  0  0
  -11.6864    7.1965    5.1127 C   0  0  0  0  0  0  0  0  0  0  0  0
  -11.9549    6.1265    4.2143 C   0  0  0  0  0  0  0  0  0  0  0  0
  -12.7408    6.4265    2.4912 Br  0  0  0  0  0  0  0  0  0  0  0  0
  -11.6342    4.8180    4.5852 C   0  0  0  0  0  0  0  0  0  0  0  0
  -11.9301    3.3350    3.4092 Br  0  0  0  0  0  0  0  0  0  0  0  0
  -10.5539    8.2887    7.9366 H   0  0  0  0  0  0  0  0  0  0  0  0
  1  2  1  0  0  0
  2  3  2  0  0  0
  2  5  1  0  0  0
  3 12  1  0  0  0
  3  4  1  0  0  0
  5  9  2  0  0  0
  5  6  1  0  0  0
  6  7  1  0  0  0
  7  8  2  0  0  0
  8  9  1  0  0  0
  9 10  1  0  0  0
 10 11  1  0  0  0
 10 12  2  0  0  0
 12 13  1  0  0  0
  6 14  1  0  0  0
M  END
> <minimizedAffinity>
-6.77615

$$$$
2OXY_K17_A_1001


 14 15  0  0  0  0  0  0  0  0999 V2000
  -12.0304    8.1387    4.7795 Br  0  0  0  0  0  0  0  0  0  0  0  0
  -11.5270    6.3737    5.1793 C   0  0  0  0  0  0  0  0  0  0  0  0
  -11.7819    5.3945    4.2146 C   0  0  0  0  0  0  0  0  0  0  0  0
  -12.5553    5.9622    2.5615 Br  0  0  0  0  0  0  0  0  0  0  0  0
  -10.9634    6.0672    6.4058 C   0  0  0  0  0  0  0  0  0  0  0  0
  -10.6294    6.8614    7.4799 N   0  0  0  0  0  0  0  0  0  0  0  0
  -10.1012    6.0070    8.3734 C   0  0  0  0  0  0  0  0  0  0  0  0
  -10.1159    4.7312    7.8879 N   0  0  0  0  0  0  0  0  0  0  0  0
  -10.6504    4.7340    6.6617 C   0  0  0  0  0  0  0  0  0  0  0  0
  -10.9009    3.7147    5.7013 C   0  0  0  0  0  0  0  0  0  0  0  0
  -10.4888    1.8747    6.0493 Br  0  0  0  0  0  0  0  0  0  0  0  0
  -11.4695    4.0521    4.4703 C   0  0  0  0  0  0  0  0  0  0  0  0
  -11.8718    2.7260    3.1476 Br  0  0  0  0  0  0  0  0  0  0  0  0
  -10.7499    7.8341    7.5725 H   0  0  0  0  0  0  0  0  0  0  0  0
  1  2  1  0  0  0
  2  3  2  0  0  0
  2  5  1  0  0  0
  3 12  1  0  0  0
  3  4  1  0  0  0
  5  9  2  0  0  0
  5  6  1  0  0  0
  6  7  1  0  0  0
  7  8  2  0  0  0
  8  9  1  0  0  0
  9 10  1  0  0  0
 10 11  1  0  0  0
 10 12  2  0  0  0
 12 13  1  0  0  0
  6 14  1  0  0  0
M  END
> <minimizedAffinity>
-6.75819

$$$$
2OXY_K17_A_1001


 14 15  0  0  0  0  0  0  0  0999 V2000
  -10.5975    2.1018    6.1038 Br  0  0  0  0  0  0  0  0  0  0  0  0
  -11.0027    3.9011    5.7479 C   0  0  0  0  0  0  0  0  0  0  0  0
  -11.5550    4.2047    4.5000 C   0  0  0  0  0  0  0  0  0  0  0  0
  -11.9030    2.7502    3.3097 Br  0  0  0  0  0  0  0  0  0  0  0  0
  -10.7193    4.8808    6.6836 C   0  0  0  0  0  0  0  0  0  0  0  0
  -10.1878    4.8045    7.9515 N   0  0  0  0  0  0  0  0  0  0  0  0
  -10.1671    6.0784    8.3805 C   0  0  0  0  0  0  0  0  0  0  0  0
  -10.6508    6.9188    7.4197 N   0  0  0  0  0  0  0  0  0  0  0  0
  -11.0024    6.2025    6.3462 C   0  0  0  0  0  0  0  0  0  0  0  0
  -11.5614    6.5432    5.0829 C   0  0  0  0  0  0  0  0  0  0  0  0
  -11.9401    8.3603    4.6021 Br  0  0  0  0  0  0  0  0  0  0  0  0
  -11.8392    5.5339    4.1573 C   0  0  0  0  0  0  0  0  0  0  0  0
  -12.5533    5.9244    2.4231 Br  0  0  0  0  0  0  0  0  0  0  0  0
   -9.8904    3.9997    8.4343 H   0  0  0  0  0  0  0  0  0  0  0  0
  1  2  1  0  0  0
  2  3  2  0  0  0
  2  5  1  0  0  0
  3 12  1  0  0  0
  3  4  1  0  0  0
  5  9  2  0  0  0
  5  6  1  0  0  0
  6  7  1  0  0  0
  7  8  2  0  0  0
  8  9  1  0  0  0
  9 10  1  0  0  0
 10 11  1  0  0  0
 10 12  2  0  0  0
 12 13  1  0  0  0
  6 14  1  0  0  0
M  END
> <minimizedAffinity>
-6.70009

$$$$
2OXY_K17_A_1001


 14 15  0  0  0  0  0  0  0  0999 V2000
  -10.2271    1.5236    6.1702 Br  0  0  0  0  0  0  0  0  0  0  0  0
  -10.8788    2.8363    4.9954 C   0  0  0  0  0  0  0  0  0  0  0  0
  -11.0275    4.1338    5.4941 C   0  0  0  0  0  0  0  0  0  0  0  0
  -10.4897    4.4538    7.3001 Br  0  0  0  0  0  0  0  0  0  0  0  0
  -11.2322    2.5027    3.6994 C   0  0  0  0  0  0  0  0  0  0  0  0
  -11.1669    1.3098    3.0147 N   0  0  0  0  0  0  0  0  0  0  0  0
  -11.6304    1.6050    1.7877 C   0  0  0  0  0  0  0  0  0  0  0  0
  -11.9842    2.9211    1.7096 N   0  0  0  0  0  0  0  0  0  0  0  0
  -11.7501    3.5096    2.8877 C   0  0  0  0  0  0  0  0  0  0  0  0
  -11.9163    4.8387    3.3677 C   0  0  0  0  0  0  0  0  0  0  0  0
  -12.6428    6.2283    2.2644 Br  0  0  0  0  0  0  0  0  0  0  0  0
  -11.5499    5.1484    4.6801 C   0  0  0  0  0  0  0  0  0  0  0  0
  -11.7846    6.9062    5.4046 Br  0  0  0  0  0  0  0  0  0  0  0  0
  -10.8523    0.4385    3.3480 H   0  0  0  0  0  0  0  0  0  0  0  0
  1  2  1  0  0  0
  2  3  2  0  0  0
  2  5  1  0  0  0
  3 12  1  0  0  0
  3  4  1  0  0  0
  5  9  2  0  0  0
  5  6  1  0  0  0
  6  7  1  0  0  0
  7  8  2  0  0  0
  8  9  1  0  0  0
  9 10  1  0  0  0
 10 11  1  0  0  0
 10 12  2  0  0  0
 12 13  1  0  0  0
  6 14  1  0  0  0
M  END
> <minimizedAffinity>
-6.63108

$$$$
2OXY_K17_A_1001


 14 15  0  0  0  0  0  0  0  0999 V2000
  -12.5275    6.2554    2.3784 Br  0  0  0  0  0  0  0  0  0  0  0  0
  -11.9030    4.7842    3.3652 C   0  0  0  0  0  0  0  0  0  0  0  0
  -11.5589    5.0019    4.7026 C   0  0  0  0  0  0  0  0  0  0  0  0
  -11.8220    6.7586    5.4084 Br  0  0  0  0  0  0  0  0  0  0  0  0
  -11.7569    3.5473    2.7613 C   0  0  0  0  0  0  0  0  0  0  0  0
  -12.0322    3.1189    1.4820 N   0  0  0  0  0  0  0  0  0  0  0  0
  -11.7042    1.8152    1.4903 C   0  0  0  0  0  0  0  0  0  0  0  0
  -11.2308    1.4447    2.7159 N   0  0  0  0  0  0  0  0  0  0  0  0
  -11.2485    2.5041    3.5322 C   0  0  0  0  0  0  0  0  0  0  0  0
  -10.8863    2.6956    4.8947 C   0  0  0  0  0  0  0  0  0  0  0  0
  -10.1709    1.2710    5.9602 Br  0  0  0  0  0  0  0  0  0  0  0  0
  -11.0455    3.9545    5.4800 C   0  0  0  0  0  0  0  0  0  0  0  0
  -10.5402    4.2935    7.2964 Br  0  0  0  0  0  0  0  0  0  0  0  0
  -12.3884    3.6474    0.7316 H   0  0  0  0  0  0  0  0  0  0  0  0
  1  2  1  0  0  0
  2  3  2  0  0  0
  2  5  1  0  0  0
  3 12  1  0  0  0
  3  4  1  0  0  0
  5  9  2  0  0  0
  5  6  1  0  0  0
  6  7  1  0  0  0
  7  8  2  0  0  0
  8  9  1  0  0  0
  9 10  1  0  0  0
 10 11  1  0  0  0
 10 12  2  0  0  0
 12 13  1  0  0  0
  6 14  1  0  0  0
M  END
> <minimizedAffinity>
-6.59531

$$$$
2OXY_K17_A_1001


 14 15  0  0  0  0  0  0  0  0999 V2000
  -11.3645    7.0618    6.0847 Br  0  0  0  0  0  0  0  0  0  0  0  0
  -11.4233    5.4409    5.1373 C   0  0  0  0  0  0  0  0  0  0  0  0
  -10.9779    4.2908    5.7955 C   0  0  0  0  0  0  0  0  0  0  0  0
  -10.4176    4.4738    7.6137 Br  0  0  0  0  0  0  0  0  0  0  0  0
  -11.8562    5.4137    3.8228 C   0  0  0  0  0  0  0  0  0  0  0  0
  -12.3311    6.4090    2.9983 N   0  0  0  0  0  0  0  0  0  0  0  0
  -12.6117    5.7789    1.8443 C   0  0  0  0  0  0  0  0  0  0  0  0
  -12.3132    4.4500    1.9355 N   0  0  0  0  0  0  0  0  0  0  0  0
  -11.8370    4.1896    3.1579 C   0  0  0  0  0  0  0  0  0  0  0  0
  -11.3862    3.0026    3.8000 C   0  0  0  0  0  0  0  0  0  0  0  0
  -11.3406    1.3158    2.8894 Br  0  0  0  0  0  0  0  0  0  0  0  0
  -10.9559    3.0582    5.1283 C   0  0  0  0  0  0  0  0  0  0  0  0
  -10.2979    1.5079    6.0411 Br  0  0  0  0  0  0  0  0  0  0  0  0
  -12.4402    7.3650    3.2065 H   0  0  0  0  0  0  0  0  0  0  0  0
  1  2  1  0  0  0
  2  3  2  0  0  0
  2  5  1  0  0  0
  3 12  1  0  0  0
  3  4  1  0  0  0
  5  9  2  0  0  0
  5  6  1  0  0  0
  6  7  1  0  0  0
  7  8  2  0  0  0
  8  9  1  0  0  0
  9 10  1  0  0  0
 10 11  1  0  0  0
 10 12  2  0  0  0
 12 13  1  0  0  0
  6 14  1  0  0  0
M  END
> <minimizedAffinity>
-6.59523

$$$$
2OXY_K17_A_1001


 14 15  0  0  0  0  0  0  0  0999 V2000
  -11.2189    1.1691    3.2484 Br  0  0  0  0  0  0  0  0  0  0  0  0
  -11.2506    2.9075    3.9593 C   0  0  0  0  0  0  0  0  0  0  0  0
  -10.8384    3.0714    5.2850 C   0  0  0  0  0  0  0  0  0  0  0  0
  -10.2218    1.5209    6.2173 Br  0  0  0  0  0  0  0  0  0  0  0  0
  -11.7076    3.9678    3.1958 C   0  0  0  0  0  0  0  0  0  0  0  0
  -12.1505    4.0297    1.8935 N   0  0  0  0  0  0  0  0  0  0  0  0
  -12.4416    5.3283    1.7028 C   0  0  0  0  0  0  0  0  0  0  0  0
  -12.2055    6.0473    2.8390 N   0  0  0  0  0  0  0  0  0  0  0  0
  -11.7485    5.2267    3.7912 C   0  0  0  0  0  0  0  0  0  0  0  0
  -11.3388    5.4244    5.1393 C   0  0  0  0  0  0  0  0  0  0  0  0
  -11.4060    7.1496    5.9734 Br  0  0  0  0  0  0  0  0  0  0  0  0
  -10.8802    4.3367    5.8870 C   0  0  0  0  0  0  0  0  0  0  0  0
  -10.3521    4.5229    7.7190 Br  0  0  0  0  0  0  0  0  0  0  0  0
  -12.2348    3.2908    1.2484 H   0  0  0  0  0  0  0  0  0  0  0  0
  1  2  1  0  0  0
  2  3  2  0  0  0
  2  5  1  0  0  0
  3 12  1  0  0  0
  3  4  1  0  0  0
  5  9  2  0  0  0
  5  6  1  0  0  0
  6  7  1  0  0  0
  7  8  2  0  0  0
  8  9  1  0  0  0
  9 10  1  0  0  0
 10 11  1  0  0  0
 10 12  2  0  0  0
 12 13  1  0  0  0
  6 14  1  0  0  0
M  END
> <minimizedAffinity>
-6.58453

$$$$
2OXY_K17_A_1001


 14 15  0  0  0  0  0  0  0  0999 V2000
  -10.6740    2.9508    6.9262 Br  0  0  0  0  0  0  0  0  0  0  0  0
  -11.2322    3.6566    5.2774 C   0  0  0  0  0  0  0  0  0  0  0  0
  -11.3454    2.7722    4.2006 C   0  0  0  0  0  0  0  0  0  0  0  0
  -10.9852    0.9246    4.5325 Br  0  0  0  0  0  0  0  0  0  0  0  0
  -11.4778    5.0121    5.1432 C   0  0  0  0  0  0  0  0  0  0  0  0
  -11.4304    6.0422    6.0558 N   0  0  0  0  0  0  0  0  0  0  0  0
  -11.7871    7.1289    5.3492 C   0  0  0  0  0  0  0  0  0  0  0  0
  -12.0337    6.7985    4.0479 N   0  0  0  0  0  0  0  0  0  0  0  0
  -11.8472    5.4840    3.8855 C   0  0  0  0  0  0  0  0  0  0  0  0
  -11.9676    4.6090    2.7700 C   0  0  0  0  0  0  0  0  0  0  0  0
  -12.4599    5.2501    1.0313 Br  0  0  0  0  0  0  0  0  0  0  0  0
  -11.7153    3.2445    2.9337 C   0  0  0  0  0  0  0  0  0  0  0  0
  -11.8182    2.0166    1.4670 Br  0  0  0  0  0  0  0  0  0  0  0  0
  -11.1899    5.9939    7.0092 H   0  0  0  0  0  0  0  0  0  0  0  0
  1  2  1  0  0  0
  2  3  2  0  0  0
  2  5  1  0  0  0
  3 12  1  0  0  0
  3  4  1  0  0  0
  5  9  2  0  0  0
  5  6  1  0  0  0
  6  7  1  0  0  0
  7  8  2  0  0  0
  8  9  1  0  0  0
  9 10  1  0  0  0
 10 11  1  0  0  0
 10 12  2  0  0  0
 12 13  1  0  0  0
  6 14  1  0  0  0
M  END
> <minimizedAffinity>
-6.57466

$$$$
2OXY_K17_A_1001


 14 15  0  0  0  0  0  0  0  0999 V2000
  -12.4839    5.4162    1.8500 Br  0  0  0  0  0  0  0  0  0  0  0  0
  -11.8498    5.2239    3.6076 C   0  0  0  0  0  0  0  0  0  0  0  0
  -11.5052    3.9377    4.0334 C   0  0  0  0  0  0  0  0  0  0  0  0
  -11.6513    2.5171    2.7629 Br  0  0  0  0  0  0  0  0  0  0  0  0
  -11.7729    6.3210    4.4480 C   0  0  0  0  0  0  0  0  0  0  0  0
  -12.0542    7.6524    4.2378 N   0  0  0  0  0  0  0  0  0  0  0  0
  -11.7706    8.2416    5.4124 C   0  0  0  0  0  0  0  0  0  0  0  0
  -11.3437    7.3193    6.3239 N   0  0  0  0  0  0  0  0  0  0  0  0
  -11.3358    6.1094    5.7539 C   0  0  0  0  0  0  0  0  0  0  0  0
  -10.9813    4.8117    6.2173 C   0  0  0  0  0  0  0  0  0  0  0  0
  -10.3938    4.5067    8.0169 Br  0  0  0  0  0  0  0  0  0  0  0  0
  -11.0669    3.7217    5.3472 C   0  0  0  0  0  0  0  0  0  0  0  0
  -10.6449    1.9417    5.9157 Br  0  0  0  0  0  0  0  0  0  0  0  0
  -12.3874    8.0766    3.4142 H   0  0  0  0  0  0  0  0  0  0  0  0
  1  2  1  0  0  0
  2  3  2  0  0  0
  2  5  1  0  0  0
  3 12  1  0  0  0
  3  4  1  0  0  0
  5  9  2  0  0  0
  5  6  1  0  0  0
  6  7  1  0  0  0
  7  8  2  0  0  0
  8  9  1  0  0  0
  9 10  1  0  0  0
 10 11  1  0  0  0
 10 12  2  0  0  0
 12 13  1  0  0  0
  6 14  1  0  0  0
M  END
> <minimizedAffinity>
-6.52182

$$$$
2OXY_K17_A_1001


 14 15  0  0  0  0  0  0  0  0999 V2000
  -11.8186    2.5782    2.0324 Br  0  0  0  0  0  0  0  0  0  0  0  0
  -11.4575    3.3108    3.7239 C   0  0  0  0  0  0  0  0  0  0  0  0
  -11.7271    4.6697    3.9108 C   0  0  0  0  0  0  0  0  0  0  0  0
  -12.4979    5.6276    2.4472 Br  0  0  0  0  0  0  0  0  0  0  0  0
  -10.9061    2.5273    4.7229 C   0  0  0  0  0  0  0  0  0  0  0  0
  -10.5690    1.1926    4.7536 N   0  0  0  0  0  0  0  0  0  0  0  0
  -10.0961    0.9977    5.9969 C   0  0  0  0  0  0  0  0  0  0  0  0
  -10.1218    2.1612    6.7105 N   0  0  0  0  0  0  0  0  0  0  0  0
  -10.6202    3.1365    5.9427 C   0  0  0  0  0  0  0  0  0  0  0  0
  -10.8803    4.5180    6.1620 C   0  0  0  0  0  0  0  0  0  0  0  0
  -10.4759    5.3701    7.8314 Br  0  0  0  0  0  0  0  0  0  0  0  0
  -11.4388    5.2856    5.1366 C   0  0  0  0  0  0  0  0  0  0  0  0
  -11.7769    7.1592    5.3487 Br  0  0  0  0  0  0  0  0  0  0  0  0
  -10.6549    0.5311    4.0295 H   0  0  0  0  0  0  0  0  0  0  0  0
  1  2  1  0  0  0
  2  3  2  0  0  0
  2  5  1  0  0  0
  3 12  1  0  0  0
  3  4  1  0  0  0
  5  9  2  0  0  0
  5  6  1  0  0  0
  6  7  1  0  0  0
  7  8  2  0  0  0
  8  9  1  0  0  0
  9 10  1  0  0  0
 10 11  1  0  0  0
 10 12  2  0  0  0
 12 13  1  0  0  0
  6 14  1  0  0  0
M  END
> <minimizedAffinity>
-6.44013

$$$$
