2B4L_BET_A_273


  9  8  0  0  0  0  0  0  0  0999 V2000
   10.1254   10.0783   17.8338 C   0  0  0  0  0  0  0  0  0  0  0  0
   10.1580   10.7831   16.5339 N   0  0  0  0  0  0  0  0  0  0  0  0
   11.4925   10.6838   15.8853 C   0  0  0  0  0  0  0  0  0  0  0  0
    9.0852   10.2707   15.6528 C   0  0  0  0  0  0  0  0  0  0  0  0
    9.9164   12.2193   16.8208 C   0  0  0  0  0  0  0  0  0  0  0  0
   10.7192    8.6931   17.8696 C   0  0  0  0  0  0  0  0  0  0  0  0
   10.8565    8.1181   16.7698 O   0  0  0  0  0  0  0  0  0  0  0  0
   11.0714    8.1664   18.9489 O   0  0  0  0  0  0  0  0  0  0  0  0
   10.9531    8.6277   19.7559 H   0  0  0  0  0  0  0  0  0  0  0  0
  2  1  1  0  0  0
  2  3  1  0  0  0
  2  4  1  0  0  0
  2  5  1  0  0  0
  1  6  1  0  0  0
  6  7  2  0  0  0
  6  8  1  0  0  0
  8  9  1  0  0  0
M  CHG 1   2   1
M  END
> <minimizedAffinity>
-5.19973

$$$$
2B4L_BET_A_273


  9  8  0  0  0  0  0  0  0  0999 V2000
   10.0541   10.0755   17.8453 C   0  0  0  0  0  0  0  0  0  0  0  0
   10.1888   10.8469   16.5906 N   0  0  0  0  0  0  0  0  0  0  0  0
    9.9361   12.2967   16.8041 C   0  0  0  0  0  0  0  0  0  0  0  0
   11.5202   10.6092   15.9902 C   0  0  0  0  0  0  0  0  0  0  0  0
    9.1366   10.3502   15.6690 C   0  0  0  0  0  0  0  0  0  0  0  0
   10.6803    8.7044   17.8693 C   0  0  0  0  0  0  0  0  0  0  0  0
   10.7593    8.1098   16.7743 O   0  0  0  0  0  0  0  0  0  0  0  0
   11.1134    8.2080   18.9335 O   0  0  0  0  0  0  0  0  0  0  0  0
   11.0369    8.6833   19.7373 H   0  0  0  0  0  0  0  0  0  0  0  0
  2  1  1  0  0  0
  2  3  1  0  0  0
  2  4  1  0  0  0
  2  5  1  0  0  0
  1  6  1  0  0  0
  6  7  2  0  0  0
  6  8  1  0  0  0
  8  9  1  0  0  0
M  CHG 1   2   1
M  END
> <minimizedAffinity>
-5.02746

$$$$
2B4L_BET_A_273


  9  8  0  0  0  0  0  0  0  0999 V2000
   10.9061   11.1117   16.2397 C   0  0  0  0  0  0  0  0  0  0  0  0
   10.3960    9.7753   15.8639 N   0  0  0  0  0  0  0  0  0  0  0  0
   10.7687    8.7406   16.8647 C   0  0  0  0  0  0  0  0  0  0  0  0
    8.9316    9.8314   15.6585 C   0  0  0  0  0  0  0  0  0  0  0  0
   11.0592    9.4088   14.5875 C   0  0  0  0  0  0  0  0  0  0  0  0
    9.9672   12.0041   17.0109 C   0  0  0  0  0  0  0  0  0  0  0  0
    9.5760   11.5765   18.1168 O   0  0  0  0  0  0  0  0  0  0  0  0
    9.6222   13.1216   16.5652 O   0  0  0  0  0  0  0  0  0  0  0  0
    9.9356   13.4102   15.7307 H   0  0  0  0  0  0  0  0  0  0  0  0
  2  1  1  0  0  0
  2  3  1  0  0  0
  2  4  1  0  0  0
  2  5  1  0  0  0
  1  6  1  0  0  0
  6  7  2  0  0  0
  6  8  1  0  0  0
  8  9  1  0  0  0
M  CHG 1   2   1
M  END
> <minimizedAffinity>
-4.89879

$$$$
2B4L_BET_A_273


  9  8  0  0  0  0  0  0  0  0999 V2000
    8.9609   10.5847   15.7144 C   0  0  0  0  0  0  0  0  0  0  0  0
   10.0401   10.8594   16.6877 N   0  0  0  0  0  0  0  0  0  0  0  0
    9.7633   10.2369   18.0095 C   0  0  0  0  0  0  0  0  0  0  0  0
   11.3414   10.4168   16.1394 C   0  0  0  0  0  0  0  0  0  0  0  0
   10.0660   12.3293   16.8928 C   0  0  0  0  0  0  0  0  0  0  0  0
    8.9243    9.2024   15.1141 C   0  0  0  0  0  0  0  0  0  0  0  0
    9.7052    8.9879   14.1637 O   0  0  0  0  0  0  0  0  0  0  0  0
    8.1622    8.3189   15.5669 O   0  0  0  0  0  0  0  0  0  0  0  0
    7.5891    8.5158   16.2815 H   0  0  0  0  0  0  0  0  0  0  0  0
  2  1  1  0  0  0
  2  3  1  0  0  0
  2  4  1  0  0  0
  2  5  1  0  0  0
  1  6  1  0  0  0
  6  7  2  0  0  0
  6  8  1  0  0  0
  8  9  1  0  0  0
M  CHG 1   2   1
M  END
> <minimizedAffinity>
-4.70669

$$$$
2B4L_BET_A_273


  9  8  0  0  0  0  0  0  0  0999 V2000
   10.9509   11.1281   16.2598 C   0  0  0  0  0  0  0  0  0  0  0  0
   10.4653    9.7872   15.8680 N   0  0  0  0  0  0  0  0  0  0  0  0
   10.9640    9.3902   14.5244 C   0  0  0  0  0  0  0  0  0  0  0  0
   10.8336    8.7933   16.9006 C   0  0  0  0  0  0  0  0  0  0  0  0
    8.9866    9.8785   15.7767 C   0  0  0  0  0  0  0  0  0  0  0  0
    9.9837   12.0072   17.0110 C   0  0  0  0  0  0  0  0  0  0  0  0
    9.5711   11.5715   18.1059 O   0  0  0  0  0  0  0  0  0  0  0  0
    9.6369   13.1222   16.5605 O   0  0  0  0  0  0  0  0  0  0  0  0
    9.9668   13.4171   15.7346 H   0  0  0  0  0  0  0  0  0  0  0  0
  2  1  1  0  0  0
  2  3  1  0  0  0
  2  4  1  0  0  0
  2  5  1  0  0  0
  1  6  1  0  0  0
  6  7  2  0  0  0
  6  8  1  0  0  0
  8  9  1  0  0  0
M  CHG 1   2   1
M  END
> <minimizedAffinity>
-4.69482

$$$$
2B4L_BET_A_273


  9  8  0  0  0  0  0  0  0  0999 V2000
    8.9719   10.5451   15.7624 C   0  0  0  0  0  0  0  0  0  0  0  0
   10.0541   10.9515   16.6849 N   0  0  0  0  0  0  0  0  0  0  0  0
   11.3801   10.4508   16.2351 C   0  0  0  0  0  0  0  0  0  0  0  0
   10.0547   12.4222   16.8485 C   0  0  0  0  0  0  0  0  0  0  0  0
    9.7643   10.3102   17.9919 C   0  0  0  0  0  0  0  0  0  0  0  0
    9.1525    9.2343   15.0402 C   0  0  0  0  0  0  0  0  0  0  0  0
    8.4180    8.2926   15.4047 O   0  0  0  0  0  0  0  0  0  0  0  0
    9.9831    9.1146   14.1117 O   0  0  0  0  0  0  0  0  0  0  0  0
   10.5180    9.8433   13.8648 H   0  0  0  0  0  0  0  0  0  0  0  0
  2  1  1  0  0  0
  2  3  1  0  0  0
  2  4  1  0  0  0
  2  5  1  0  0  0
  1  6  1  0  0  0
  6  7  2  0  0  0
  6  8  1  0  0  0
  8  9  1  0  0  0
M  CHG 1   2   1
M  END
> <minimizedAffinity>
-4.63873

$$$$
2B4L_BET_A_273


  9  8  0  0  0  0  0  0  0  0999 V2000
    8.9504   10.1902   15.9608 C   0  0  0  0  0  0  0  0  0  0  0  0
   10.1493   10.1120   16.8233 N   0  0  0  0  0  0  0  0  0  0  0  0
    9.8477   10.5064   18.2250 C   0  0  0  0  0  0  0  0  0  0  0  0
   10.7357    8.7551   16.7538 C   0  0  0  0  0  0  0  0  0  0  0  0
   11.1232   11.0977   16.2910 C   0  0  0  0  0  0  0  0  0  0  0  0
    8.6996    9.0232   15.0400 C   0  0  0  0  0  0  0  0  0  0  0  0
    7.8621    8.1810   15.4250 O   0  0  0  0  0  0  0  0  0  0  0  0
    9.2903    8.9258   13.9410 O   0  0  0  0  0  0  0  0  0  0  0  0
    9.9132    9.5772   13.6846 H   0  0  0  0  0  0  0  0  0  0  0  0
  2  1  1  0  0  0
  2  3  1  0  0  0
  2  4  1  0  0  0
  2  5  1  0  0  0
  1  6  1  0  0  0
  6  7  2  0  0  0
  6  8  1  0  0  0
  8  9  1  0  0  0
M  CHG 1   2   1
M  END
> <minimizedAffinity>
-4.48390

$$$$
2B4L_BET_A_273


  9  8  0  0  0  0  0  0  0  0999 V2000
   10.0134    8.3622   16.5356 C   0  0  0  0  0  0  0  0  0  0  0  0
    9.4937    9.4038   15.6232 N   0  0  0  0  0  0  0  0  0  0  0  0
    8.2518    8.9640   14.9335 C   0  0  0  0  0  0  0  0  0  0  0  0
    9.2864   10.6682   16.3635 C   0  0  0  0  0  0  0  0  0  0  0  0
   10.5265    9.6088   14.5769 C   0  0  0  0  0  0  0  0  0  0  0  0
   11.1394    8.7647   17.4536 C   0  0  0  0  0  0  0  0  0  0  0  0
   11.0852    8.3315   18.6234 O   0  0  0  0  0  0  0  0  0  0  0  0
   12.0839    9.4782   17.0470 O   0  0  0  0  0  0  0  0  0  0  0  0
   12.0914    9.7856   16.1619 H   0  0  0  0  0  0  0  0  0  0  0  0
  2  1  1  0  0  0
  2  3  1  0  0  0
  2  4  1  0  0  0
  2  5  1  0  0  0
  1  6  1  0  0  0
  6  7  2  0  0  0
  6  8  1  0  0  0
  8  9  1  0  0  0
M  CHG 1   2   1
M  END
> <minimizedAffinity>
-3.39220

$$$$
2B4L_BET_A_273


  9  8  0  0  0  0  0  0  0  0999 V2000
   11.0685    9.6664   16.9461 C   0  0  0  0  0  0  0  0  0  0  0  0
    9.7283   10.1753   17.3097 N   0  0  0  0  0  0  0  0  0  0  0  0
    8.6670    9.6101   16.4348 C   0  0  0  0  0  0  0  0  0  0  0  0
    9.4553    9.9071   18.7392 C   0  0  0  0  0  0  0  0  0  0  0  0
    9.7512   11.6414   17.0789 C   0  0  0  0  0  0  0  0  0  0  0  0
   11.6283   10.1160   15.6205 C   0  0  0  0  0  0  0  0  0  0  0  0
   12.4059   11.0926   15.6476 O   0  0  0  0  0  0  0  0  0  0  0  0
   11.3382    9.5205   14.5587 O   0  0  0  0  0  0  0  0  0  0  0  0
   10.7507    8.7909   14.5762 H   0  0  0  0  0  0  0  0  0  0  0  0
  2  1  1  0  0  0
  2  3  1  0  0  0
  2  4  1  0  0  0
  2  5  1  0  0  0
  1  6  1  0  0  0
  6  7  2  0  0  0
  6  8  1  0  0  0
  8  9  1  0  0  0
M  CHG 1   2   1
M  END
> <minimizedAffinity>
-3.22558

$$$$
2B4L_BET_A_273


  9  8  0  0  0  0  0  0  0  0999 V2000
   11.5034    9.8733   17.0809 C   0  0  0  0  0  0  0  0  0  0  0  0
   10.2980    9.2329   17.6504 N   0  0  0  0  0  0  0  0  0  0  0  0
    9.5433   10.1626   18.5321 C   0  0  0  0  0  0  0  0  0  0  0  0
    9.4457    8.7009   16.5639 C   0  0  0  0  0  0  0  0  0  0  0  0
   10.7713    8.1113   18.4997 C   0  0  0  0  0  0  0  0  0  0  0  0
   11.3254   10.6233   15.7853 C   0  0  0  0  0  0  0  0  0  0  0  0
   11.0656   11.8410   15.8788 O   0  0  0  0  0  0  0  0  0  0  0  0
   11.4548   10.0492   14.6808 O   0  0  0  0  0  0  0  0  0  0  0  0
   11.6500    9.1333   14.6489 H   0  0  0  0  0  0  0  0  0  0  0  0
  2  1  1  0  0  0
  2  3  1  0  0  0
  2  4  1  0  0  0
  2  5  1  0  0  0
  1  6  1  0  0  0
  6  7  2  0  0  0
  6  8  1  0  0  0
  8  9  1  0  0  0
M  CHG 1   2   1
M  END
> <minimizedAffinity>
-2.33376

$$$$
