2W9H_TOP_A_1160


 25 26  0  0  0  0  0  0  0  0999 V2000
   10.0127   -4.0579   15.4095 C   0  0  0  0  0  0  0  0  0  0  0  0
    7.6146   -4.6050   14.7590 C   0  0  0  0  0  0  0  0  0  0  0  0
    6.4532   -4.2656   14.2275 N   0  0  0  0  0  0  0  0  0  0  0  0
    6.3062   -3.1119   13.6288 C   0  0  0  0  0  0  0  0  0  0  0  0
    5.1462   -2.8302   13.0682 N   0  0  0  0  0  0  0  0  0  0  0  0
    7.2917   -2.2505   13.6007 N   0  0  0  0  0  0  0  0  0  0  0  0
    8.4383   -2.4589   14.1625 C   0  0  0  0  0  0  0  0  0  0  0  0
    9.4074   -1.5626   14.1603 N   0  0  0  0  0  0  0  0  0  0  0  0
    8.6570   -3.7527   14.7941 C   0  0  0  0  0  0  0  0  0  0  0  0
    4.4134   -3.4871   13.0965 H   0  0  0  0  0  0  0  0  0  0  0  0
    5.0130   -1.9631   12.6215 H   0  0  0  0  0  0  0  0  0  0  0  0
    9.2661   -0.6860   13.7350 H   0  0  0  0  0  0  0  0  0  0  0  0
   10.2714   -1.7707   14.5839 H   0  0  0  0  0  0  0  0  0  0  0  0
   10.1811   -4.0103   16.9228 C   0  0  0  0  0  0  0  0  0  0  0  0
   10.3473   -2.7964   17.5707 C   0  0  0  0  0  0  0  0  0  0  0  0
   10.5157   -2.7449   18.9846 C   0  0  0  0  0  0  0  0  0  0  0  0
   10.4570   -3.8843   19.6442 C   0  0  0  0  0  0  0  0  0  0  0  0
   10.2895   -5.0684   19.0308 C   0  0  0  0  0  0  0  0  0  0  0  0
   10.1594   -5.1468   17.6390 C   0  0  0  0  0  0  0  0  0  0  0  0
   10.6866   -1.5833   19.6589 O   0  0  0  0  0  0  0  0  0  0  0  0
   11.8131   -0.8426   19.5991 C   0  0  0  0  0  0  0  0  0  0  0  0
   10.5446   -3.9472   20.9948 O   0  0  0  0  0  0  0  0  0  0  0  0
   11.8351   -3.9792   21.6025 C   0  0  0  0  0  0  0  0  0  0  0  0
   10.2633   -6.1666   19.7415 O   0  0  0  0  0  0  0  0  0  0  0  0
    9.9167   -7.4065   19.2665 C   0  0  0  0  0  0  0  0  0  0  0  0
  2  3  2  0  0  0
  2  9  1  0  0  0
  3  4  1  0  0  0
  4  5  1  0  0  0
  4  6  2  0  0  0
  6  7  1  0  0  0
  7  8  1  0  0  0
  7  9  2  0  0  0
  9  1  1  0  0  0
  1 14  1  0  0  0
 14 15  2  0  0  0
 14 19  1  0  0  0
 15 16  1  0  0  0
 16 20  1  0  0  0
 16 17  2  0  0  0
 20 21  1  0  0  0
 17 22  1  0  0  0
 17 18  1  0  0  0
 22 23  1  0  0  0
 18 24  1  0  0  0
 18 19  2  0  0  0
 24 25  1  0  0  0
  5 10  1  0  0  0
  5 11  1  0  0  0
  8 12  1  0  0  0
  8 13  1  0  0  0
M  END
> <minimizedAffinity>
-7.92708

$$$$
2W9H_TOP_A_1160


 25 26  0  0  0  0  0  0  0  0999 V2000
    9.9236   -4.3433   15.4200 C   0  0  0  0  0  0  0  0  0  0  0  0
    7.4934   -4.7207   14.7679 C   0  0  0  0  0  0  0  0  0  0  0  0
    6.3586   -4.3001   14.2371 N   0  0  0  0  0  0  0  0  0  0  0  0
    6.2924   -3.1378   13.6409 C   0  0  0  0  0  0  0  0  0  0  0  0
    5.1549   -2.7748   13.0809 N   0  0  0  0  0  0  0  0  0  0  0  0
    7.3354   -2.3469   13.6149 N   0  0  0  0  0  0  0  0  0  0  0  0
    8.4646   -2.6359   14.1764 C   0  0  0  0  0  0  0  0  0  0  0  0
    9.4936   -1.8091   14.1763 N   0  0  0  0  0  0  0  0  0  0  0  0
    8.5925   -3.9431   14.8051 C   0  0  0  0  0  0  0  0  0  0  0  0
    4.3781   -3.3791   13.1076 H   0  0  0  0  0  0  0  0  0  0  0  0
    5.0825   -1.8995   12.6360 H   0  0  0  0  0  0  0  0  0  0  0  0
    9.4138   -0.9239   13.7530 H   0  0  0  0  0  0  0  0  0  0  0  0
   10.3410   -2.0778   14.5995 H   0  0  0  0  0  0  0  0  0  0  0  0
   10.1280   -4.2138   16.9240 C   0  0  0  0  0  0  0  0  0  0  0  0
   10.1309   -5.3416   17.7296 C   0  0  0  0  0  0  0  0  0  0  0  0
   10.3111   -5.2272   19.1384 C   0  0  0  0  0  0  0  0  0  0  0  0
   10.5218   -4.0215   19.6269 C   0  0  0  0  0  0  0  0  0  0  0  0
   10.5286   -2.9195   18.8577 C   0  0  0  0  0  0  0  0  0  0  0  0
   10.3164   -3.0036   17.4763 C   0  0  0  0  0  0  0  0  0  0  0  0
   10.3157   -6.2999   19.9646 O   0  0  0  0  0  0  0  0  0  0  0  0
    9.6048   -7.4238   19.7349 C   0  0  0  0  0  0  0  0  0  0  0  0
   10.7644   -3.8027   20.9419 O   0  0  0  0  0  0  0  0  0  0  0  0
   12.0807   -4.0210   21.4470 C   0  0  0  0  0  0  0  0  0  0  0  0
   10.7204   -1.7481   19.4081 O   0  0  0  0  0  0  0  0  0  0  0  0
   11.1687   -0.6303   18.7502 C   0  0  0  0  0  0  0  0  0  0  0  0
  2  3  2  0  0  0
  2  9  1  0  0  0
  3  4  1  0  0  0
  4  5  1  0  0  0
  4  6  2  0  0  0
  6  7  1  0  0  0
  7  8  1  0  0  0
  7  9  2  0  0  0
  9  1  1  0  0  0
  1 14  1  0  0  0
 14 15  2  0  0  0
 14 19  1  0  0  0
 15 16  1  0  0  0
 16 20  1  0  0  0
 16 17  2  0  0  0
 20 21  1  0  0  0
 17 22  1  0  0  0
 17 18  1  0  0  0
 22 23  1  0  0  0
 18 24  1  0  0  0
 18 19  2  0  0  0
 24 25  1  0  0  0
  5 10  1  0  0  0
  5 11  1  0  0  0
  8 12  1  0  0  0
  8 13  1  0  0  0
M  END
> <minimizedAffinity>
-7.92573

$$$$
2W9H_TOP_A_1160


 25 26  0  0  0  0  0  0  0  0999 V2000
   10.3889   -1.1265   17.1031 C   0  0  0  0  0  0  0  0  0  0  0  0
    9.4658   -2.8443   15.4691 C   0  0  0  0  0  0  0  0  0  0  0  0
    8.4634   -3.5485   14.9733 N   0  0  0  0  0  0  0  0  0  0  0  0
    7.2364   -3.3331   15.3720 C   0  0  0  0  0  0  0  0  0  0  0  0
    6.2580   -4.0224   14.8181 N   0  0  0  0  0  0  0  0  0  0  0  0
    6.9907   -2.4574   16.3138 N   0  0  0  0  0  0  0  0  0  0  0  0
    7.9130   -1.7784   16.9156 C   0  0  0  0  0  0  0  0  0  0  0  0
    7.6516   -0.9294   17.8919 N   0  0  0  0  0  0  0  0  0  0  0  0
    9.2860   -1.9533   16.4630 C   0  0  0  0  0  0  0  0  0  0  0  0
    6.4567   -4.6778   14.1109 H   0  0  0  0  0  0  0  0  0  0  0  0
    5.3290   -3.8815   15.1118 H   0  0  0  0  0  0  0  0  0  0  0  0
    6.7256   -0.8064   18.2026 H   0  0  0  0  0  0  0  0  0  0  0  0
    8.3828   -0.4191   18.3094 H   0  0  0  0  0  0  0  0  0  0  0  0
   10.9749   -1.5590   18.4411 C   0  0  0  0  0  0  0  0  0  0  0  0
   11.5134   -0.6193   19.3059 C   0  0  0  0  0  0  0  0  0  0  0  0
   12.0727   -1.0178   20.5544 C   0  0  0  0  0  0  0  0  0  0  0  0
   12.0100   -2.2966   20.8664 C   0  0  0  0  0  0  0  0  0  0  0  0
   11.4848   -3.2185   20.0414 C   0  0  0  0  0  0  0  0  0  0  0  0
   10.9635   -2.8554   18.7938 C   0  0  0  0  0  0  0  0  0  0  0  0
   12.6142   -0.1363   21.4278 O   0  0  0  0  0  0  0  0  0  0  0  0
   13.9363    0.1235   21.5052 C   0  0  0  0  0  0  0  0  0  0  0  0
   12.4562   -2.7779   22.0519 O   0  0  0  0  0  0  0  0  0  0  0  0
   11.6529   -2.5971   23.2170 C   0  0  0  0  0  0  0  0  0  0  0  0
   11.4738   -4.4765   20.4010 O   0  0  0  0  0  0  0  0  0  0  0  0
   10.3453   -5.2351   20.5859 C   0  0  0  0  0  0  0  0  0  0  0  0
  2  3  2  0  0  0
  2  9  1  0  0  0
  3  4  1  0  0  0
  4  5  1  0  0  0
  4  6  2  0  0  0
  6  7  1  0  0  0
  7  8  1  0  0  0
  7  9  2  0  0  0
  9  1  1  0  0  0
  1 14  1  0  0  0
 14 15  2  0  0  0
 14 19  1  0  0  0
 15 16  1  0  0  0
 16 20  1  0  0  0
 16 17  2  0  0  0
 20 21  1  0  0  0
 17 22  1  0  0  0
 17 18  1  0  0  0
 22 23  1  0  0  0
 18 24  1  0  0  0
 18 19  2  0  0  0
 24 25  1  0  0  0
  5 10  1  0  0  0
  5 11  1  0  0  0
  8 12  1  0  0  0
  8 13  1  0  0  0
M  END
> <minimizedAffinity>
-7.71724

$$$$
2W9H_TOP_A_1160


 25 26  0  0  0  0  0  0  0  0999 V2000
    9.7437   -3.6873   16.0358 C   0  0  0  0  0  0  0  0  0  0  0  0
    7.3490   -4.2184   15.3603 C   0  0  0  0  0  0  0  0  0  0  0  0
    6.2659   -3.9702   14.6449 N   0  0  0  0  0  0  0  0  0  0  0  0
    6.2784   -3.0515   13.7139 C   0  0  0  0  0  0  0  0  0  0  0  0
    5.1925   -2.8672   12.9885 N   0  0  0  0  0  0  0  0  0  0  0  0
    7.3477   -2.3218   13.5185 N   0  0  0  0  0  0  0  0  0  0  0  0
    8.4277   -2.4353   14.2217 C   0  0  0  0  0  0  0  0  0  0  0  0
    9.4826   -1.6632   14.0387 N   0  0  0  0  0  0  0  0  0  0  0  0
    8.4696   -3.4822   15.2329 C   0  0  0  0  0  0  0  0  0  0  0  0
    4.3952   -3.4229   13.1457 H   0  0  0  0  0  0  0  0  0  0  0  0
    5.1792   -2.1738   12.2897 H   0  0  0  0  0  0  0  0  0  0  0  0
    9.4608   -0.9535   13.3567 H   0  0  0  0  0  0  0  0  0  0  0  0
   10.2912   -1.7970   14.5842 H   0  0  0  0  0  0  0  0  0  0  0  0
    9.8386   -4.8511   17.0142 C   0  0  0  0  0  0  0  0  0  0  0  0
    9.5864   -6.1457   16.5884 C   0  0  0  0  0  0  0  0  0  0  0  0
    9.6631   -7.2380   17.5002 C   0  0  0  0  0  0  0  0  0  0  0  0
   10.0284   -6.9703   18.7378 C   0  0  0  0  0  0  0  0  0  0  0  0
   10.2828   -5.7212   19.1637 C   0  0  0  0  0  0  0  0  0  0  0  0
   10.1774   -4.6283   18.2950 C   0  0  0  0  0  0  0  0  0  0  0  0
    9.4199   -8.5176   17.1306 O   0  0  0  0  0  0  0  0  0  0  0  0
    8.1834   -9.0083   16.9033 C   0  0  0  0  0  0  0  0  0  0  0  0
   10.1916   -7.9377   19.6724 O   0  0  0  0  0  0  0  0  0  0  0  0
    9.0698   -8.3333   20.4601 C   0  0  0  0  0  0  0  0  0  0  0  0
   10.6187   -5.5198   20.4121 O   0  0  0  0  0  0  0  0  0  0  0  0
   10.5200   -4.3210   21.0728 C   0  0  0  0  0  0  0  0  0  0  0  0
  2  3  2  0  0  0
  2  9  1  0  0  0
  3  4  1  0  0  0
  4  5  1  0  0  0
  4  6  2  0  0  0
  6  7  1  0  0  0
  7  8  1  0  0  0
  7  9  2  0  0  0
  9  1  1  0  0  0
  1 14  1  0  0  0
 14 15  2  0  0  0
 14 19  1  0  0  0
 15 16  1  0  0  0
 16 20  1  0  0  0
 16 17  2  0  0  0
 20 21  1  0  0  0
 17 22  1  0  0  0
 17 18  1  0  0  0
 22 23  1  0  0  0
 18 24  1  0  0  0
 18 19  2  0  0  0
 24 25  1  0  0  0
  5 10  1  0  0  0
  5 11  1  0  0  0
  8 12  1  0  0  0
  8 13  1  0  0  0
M  END
> <minimizedAffinity>
-7.60468

$$$$
2W9H_TOP_A_1160


 25 26  0  0  0  0  0  0  0  0999 V2000
    9.8858   -3.6722   15.8242 C   0  0  0  0  0  0  0  0  0  0  0  0
    7.5075   -4.3032   15.1773 C   0  0  0  0  0  0  0  0  0  0  0  0
    6.3850   -4.0671   14.5209 N   0  0  0  0  0  0  0  0  0  0  0  0
    6.3036   -3.0711   13.6769 C   0  0  0  0  0  0  0  0  0  0  0  0
    5.1822   -2.8977   13.0049 N   0  0  0  0  0  0  0  0  0  0  0  0
    7.3154   -2.2559   13.5156 N   0  0  0  0  0  0  0  0  0  0  0  0
    8.4256   -2.3573   14.1721 C   0  0  0  0  0  0  0  0  0  0  0  0
    9.4206   -1.5021   14.0274 N   0  0  0  0  0  0  0  0  0  0  0  0
    8.5725   -3.4841   15.0827 C   0  0  0  0  0  0  0  0  0  0  0  0
    4.4290   -3.5180   13.1357 H   0  0  0  0  0  0  0  0  0  0  0  0
    5.0982   -2.1478   12.3725 H   0  0  0  0  0  0  0  0  0  0  0  0
    9.3278   -0.7382   13.4134 H   0  0  0  0  0  0  0  0  0  0  0  0
   10.2556   -1.6283   14.5334 H   0  0  0  0  0  0  0  0  0  0  0  0
   10.0214   -4.7964   16.8431 C   0  0  0  0  0  0  0  0  0  0  0  0
   10.4425   -4.5230   18.1350 C   0  0  0  0  0  0  0  0  0  0  0  0
   10.5816   -5.5708   19.0905 C   0  0  0  0  0  0  0  0  0  0  0  0
   10.2484   -6.7875   18.7091 C   0  0  0  0  0  0  0  0  0  0  0  0
    9.8320   -7.0670   17.4622 C   0  0  0  0  0  0  0  0  0  0  0  0
    9.7235   -6.0596   16.4960 C   0  0  0  0  0  0  0  0  0  0  0  0
   10.9946   -5.3518   20.3612 O   0  0  0  0  0  0  0  0  0  0  0  0
   10.4769   -4.3963   21.1616 C   0  0  0  0  0  0  0  0  0  0  0  0
   10.2845   -7.8483   19.5513 O   0  0  0  0  0  0  0  0  0  0  0  0
    9.1355   -8.1389   20.3457 C   0  0  0  0  0  0  0  0  0  0  0  0
    9.5384   -8.3007   17.1400 O   0  0  0  0  0  0  0  0  0  0  0  0
    8.4222   -8.6906   16.4434 C   0  0  0  0  0  0  0  0  0  0  0  0
  2  3  2  0  0  0
  2  9  1  0  0  0
  3  4  1  0  0  0
  4  5  1  0  0  0
  4  6  2  0  0  0
  6  7  1  0  0  0
  7  8  1  0  0  0
  7  9  2  0  0  0
  9  1  1  0  0  0
  1 14  1  0  0  0
 14 15  2  0  0  0
 14 19  1  0  0  0
 15 16  1  0  0  0
 16 20  1  0  0  0
 16 17  2  0  0  0
 20 21  1  0  0  0
 17 22  1  0  0  0
 17 18  1  0  0  0
 22 23  1  0  0  0
 18 24  1  0  0  0
 18 19  2  0  0  0
 24 25  1  0  0  0
  5 10  1  0  0  0
  5 11  1  0  0  0
  8 12  1  0  0  0
  8 13  1  0  0  0
M  END
> <minimizedAffinity>
-7.59914

$$$$
2W9H_TOP_A_1160


 25 26  0  0  0  0  0  0  0  0999 V2000
   10.4113   -1.1561   17.3679 C   0  0  0  0  0  0  0  0  0  0  0  0
    7.9449   -1.6233   16.9536 C   0  0  0  0  0  0  0  0  0  0  0  0
    6.9790   -2.2795   16.3348 N   0  0  0  0  0  0  0  0  0  0  0  0
    7.2571   -3.2764   15.5350 C   0  0  0  0  0  0  0  0  0  0  0  0
    6.2633   -3.9375   14.9742 N   0  0  0  0  0  0  0  0  0  0  0  0
    8.5016   -3.5997   15.2884 N   0  0  0  0  0  0  0  0  0  0  0  0
    9.5153   -2.9658   15.7826 C   0  0  0  0  0  0  0  0  0  0  0  0
   10.7640   -3.2790   15.4910 N   0  0  0  0  0  0  0  0  0  0  0  0
    9.2453   -1.8830   16.7181 C   0  0  0  0  0  0  0  0  0  0  0  0
    5.3320   -3.6841   15.1682 H   0  0  0  0  0  0  0  0  0  0  0  0
    6.4527   -4.6846   14.3615 H   0  0  0  0  0  0  0  0  0  0  0  0
   10.9534   -4.0100   14.8593 H   0  0  0  0  0  0  0  0  0  0  0  0
   11.5059   -2.7817   15.9051 H   0  0  0  0  0  0  0  0  0  0  0  0
   10.8939   -1.5876   18.7468 C   0  0  0  0  0  0  0  0  0  0  0  0
   10.5657   -2.8393   19.2432 C   0  0  0  0  0  0  0  0  0  0  0  0
   11.0048   -3.2457   20.5364 C   0  0  0  0  0  0  0  0  0  0  0  0
   11.7683   -2.4079   21.2086 C   0  0  0  0  0  0  0  0  0  0  0  0
   12.1007   -1.1938   20.7377 C   0  0  0  0  0  0  0  0  0  0  0  0
   11.6498   -0.7584   19.4858 C   0  0  0  0  0  0  0  0  0  0  0  0
   10.7040   -4.4558   21.0641 O   0  0  0  0  0  0  0  0  0  0  0  0
   10.3198   -5.5187   20.3265 C   0  0  0  0  0  0  0  0  0  0  0  0
   12.2909   -2.7140   22.4207 O   0  0  0  0  0  0  0  0  0  0  0  0
   11.5235   -2.4422   23.5923 C   0  0  0  0  0  0  0  0  0  0  0  0
   12.8435   -0.3994   21.4651 O   0  0  0  0  0  0  0  0  0  0  0  0
   14.2045   -0.2664   21.3505 C   0  0  0  0  0  0  0  0  0  0  0  0
  2  3  2  0  0  0
  2  9  1  0  0  0
  3  4  1  0  0  0
  4  5  1  0  0  0
  4  6  2  0  0  0
  6  7  1  0  0  0
  7  8  1  0  0  0
  7  9  2  0  0  0
  9  1  1  0  0  0
  1 14  1  0  0  0
 14 15  2  0  0  0
 14 19  1  0  0  0
 15 16  1  0  0  0
 16 20  1  0  0  0
 16 17  2  0  0  0
 20 21  1  0  0  0
 17 22  1  0  0  0
 17 18  1  0  0  0
 22 23  1  0  0  0
 18 24  1  0  0  0
 18 19  2  0  0  0
 24 25  1  0  0  0
  5 10  1  0  0  0
  5 11  1  0  0  0
  8 12  1  0  0  0
  8 13  1  0  0  0
M  END
> <minimizedAffinity>
-7.51214

$$$$
2W9H_TOP_A_1160


 25 26  0  0  0  0  0  0  0  0999 V2000
   10.6897   -5.4367   17.5197 C   0  0  0  0  0  0  0  0  0  0  0  0
   11.7688   -3.6605   18.9873 C   0  0  0  0  0  0  0  0  0  0  0  0
   12.0380   -3.1473   20.1750 N   0  0  0  0  0  0  0  0  0  0  0  0
   11.7038   -3.7844   21.2674 C   0  0  0  0  0  0  0  0  0  0  0  0
   12.0333   -3.2630   22.4331 N   0  0  0  0  0  0  0  0  0  0  0  0
   11.0425   -4.9123   21.1997 N   0  0  0  0  0  0  0  0  0  0  0  0
   10.6636   -5.4521   20.0867 C   0  0  0  0  0  0  0  0  0  0  0  0
    9.9614   -6.5688   20.0380 N   0  0  0  0  0  0  0  0  0  0  0  0
   11.0622   -4.7987   18.8479 C   0  0  0  0  0  0  0  0  0  0  0  0
   12.5306   -2.4142   22.4698 H   0  0  0  0  0  0  0  0  0  0  0  0
   11.7818   -3.7227   23.2667 H   0  0  0  0  0  0  0  0  0  0  0  0
    9.6887   -7.0156   20.8718 H   0  0  0  0  0  0  0  0  0  0  0  0
    9.7105   -6.9549   19.1678 H   0  0  0  0  0  0  0  0  0  0  0  0
    9.5007   -4.8998   16.7331 C   0  0  0  0  0  0  0  0  0  0  0  0
    9.0270   -3.6187   16.9682 C   0  0  0  0  0  0  0  0  0  0  0  0
    7.9089   -3.1135   16.2437 C   0  0  0  0  0  0  0  0  0  0  0  0
    7.3847   -3.8912   15.3178 C   0  0  0  0  0  0  0  0  0  0  0  0
    7.8374   -5.1329   15.0737 C   0  0  0  0  0  0  0  0  0  0  0  0
    8.9107   -5.6641   15.7989 C   0  0  0  0  0  0  0  0  0  0  0  0
    7.4087   -1.8713   16.4435 O   0  0  0  0  0  0  0  0  0  0  0  0
    8.0474   -0.9119   17.1456 C   0  0  0  0  0  0  0  0  0  0  0  0
    6.3583   -3.4911   14.5289 O   0  0  0  0  0  0  0  0  0  0  0  0
    6.6483   -2.7854   13.3233 C   0  0  0  0  0  0  0  0  0  0  0  0
    7.2576   -5.8635   14.1560 O   0  0  0  0  0  0  0  0  0  0  0  0
    7.8340   -6.9324   13.5170 C   0  0  0  0  0  0  0  0  0  0  0  0
  2  3  2  0  0  0
  2  9  1  0  0  0
  3  4  1  0  0  0
  4  5  1  0  0  0
  4  6  2  0  0  0
  6  7  1  0  0  0
  7  8  1  0  0  0
  7  9  2  0  0  0
  9  1  1  0  0  0
  1 14  1  0  0  0
 14 15  2  0  0  0
 14 19  1  0  0  0
 15 16  1  0  0  0
 16 20  1  0  0  0
 16 17  2  0  0  0
 20 21  1  0  0  0
 17 22  1  0  0  0
 17 18  1  0  0  0
 22 23  1  0  0  0
 18 24  1  0  0  0
 18 19  2  0  0  0
 24 25  1  0  0  0
  5 10  1  0  0  0
  5 11  1  0  0  0
  8 12  1  0  0  0
  8 13  1  0  0  0
M  END
> <minimizedAffinity>
-7.15365

$$$$
2W9H_TOP_A_1160


 25 26  0  0  0  0  0  0  0  0999 V2000
   10.6562   -5.0827   19.4866 C   0  0  0  0  0  0  0  0  0  0  0  0
   12.8836   -4.0406   20.1395 C   0  0  0  0  0  0  0  0  0  0  0  0
   13.6078   -3.2395   20.9012 N   0  0  0  0  0  0  0  0  0  0  0  0
   13.0754   -2.6440   21.9370 C   0  0  0  0  0  0  0  0  0  0  0  0
   13.8427   -1.8910   22.7008 N   0  0  0  0  0  0  0  0  0  0  0  0
   11.8005   -2.7855   22.1988 N   0  0  0  0  0  0  0  0  0  0  0  0
   10.9942   -3.4830   21.4658 C   0  0  0  0  0  0  0  0  0  0  0  0
    9.7029   -3.5816   21.7208 N   0  0  0  0  0  0  0  0  0  0  0  0
   11.5607   -4.2026   20.3336 C   0  0  0  0  0  0  0  0  0  0  0  0
   14.8000   -1.7931   22.4927 H   0  0  0  0  0  0  0  0  0  0  0  0
   13.4583   -1.4267   23.4792 H   0  0  0  0  0  0  0  0  0  0  0  0
    9.3136   -3.0977   22.4847 H   0  0  0  0  0  0  0  0  0  0  0  0
    9.1290   -4.1391   21.1471 H   0  0  0  0  0  0  0  0  0  0  0  0
   10.1206   -4.5574   18.1608 C   0  0  0  0  0  0  0  0  0  0  0  0
   10.0381   -3.1931   17.9305 C   0  0  0  0  0  0  0  0  0  0  0  0
    9.5285   -2.6944   16.6969 C   0  0  0  0  0  0  0  0  0  0  0  0
    9.1908   -3.5776   15.7789 C   0  0  0  0  0  0  0  0  0  0  0  0
    9.2717   -4.9033   15.9849 C   0  0  0  0  0  0  0  0  0  0  0  0
    9.7340   -5.4163   17.2028 C   0  0  0  0  0  0  0  0  0  0  0  0
    9.4244   -1.3711   16.4301 O   0  0  0  0  0  0  0  0  0  0  0  0
    8.5744   -0.5432   17.0731 C   0  0  0  0  0  0  0  0  0  0  0  0
    8.7512   -3.2156   14.5494 O   0  0  0  0  0  0  0  0  0  0  0  0
    7.3676   -2.9170   14.3708 C   0  0  0  0  0  0  0  0  0  0  0  0
    8.8984   -5.7282   15.0404 O   0  0  0  0  0  0  0  0  0  0  0  0
    8.4999   -7.0264   15.2379 C   0  0  0  0  0  0  0  0  0  0  0  0
  2  3  2  0  0  0
  2  9  1  0  0  0
  3  4  1  0  0  0
  4  5  1  0  0  0
  4  6  2  0  0  0
  6  7  1  0  0  0
  7  8  1  0  0  0
  7  9  2  0  0  0
  9  1  1  0  0  0
  1 14  1  0  0  0
 14 15  2  0  0  0
 14 19  1  0  0  0
 15 16  1  0  0  0
 16 20  1  0  0  0
 16 17  2  0  0  0
 20 21  1  0  0  0
 17 22  1  0  0  0
 17 18  1  0  0  0
 22 23  1  0  0  0
 18 24  1  0  0  0
 18 19  2  0  0  0
 24 25  1  0  0  0
  5 10  1  0  0  0
  5 11  1  0  0  0
  8 12  1  0  0  0
  8 13  1  0  0  0
M  END
> <minimizedAffinity>
-7.13964

$$$$
2W9H_TOP_A_1160


 25 26  0  0  0  0  0  0  0  0999 V2000
   10.7732   -4.8017   17.9773 C   0  0  0  0  0  0  0  0  0  0  0  0
   11.4585   -2.9088   19.5331 C   0  0  0  0  0  0  0  0  0  0  0  0
   11.5855   -2.3938   20.7436 N   0  0  0  0  0  0  0  0  0  0  0  0
   11.3297   -3.1147   21.8046 C   0  0  0  0  0  0  0  0  0  0  0  0
   11.5153   -2.5801   22.9959 N   0  0  0  0  0  0  0  0  0  0  0  0
   10.8850   -4.3398   21.6809 N   0  0  0  0  0  0  0  0  0  0  0  0
   10.6521   -4.9029   20.5396 C   0  0  0  0  0  0  0  0  0  0  0  0
   10.1645   -6.1250   20.4333 N   0  0  0  0  0  0  0  0  0  0  0  0
   10.9739   -4.1499   19.3355 C   0  0  0  0  0  0  0  0  0  0  0  0
   11.8503   -1.6577   23.0747 H   0  0  0  0  0  0  0  0  0  0  0  0
   11.3189   -3.1035   23.8063 H   0  0  0  0  0  0  0  0  0  0  0  0
    9.9449   -6.6395   21.2434 H   0  0  0  0  0  0  0  0  0  0  0  0
   10.0205   -6.5218   19.5440 H   0  0  0  0  0  0  0  0  0  0  0  0
    9.6459   -4.3232   17.0712 C   0  0  0  0  0  0  0  0  0  0  0  0
    8.9701   -5.2218   16.2608 C   0  0  0  0  0  0  0  0  0  0  0  0
    7.9217   -4.7798   15.4030 C   0  0  0  0  0  0  0  0  0  0  0  0
    7.5953   -3.5039   15.4520 C   0  0  0  0  0  0  0  0  0  0  0  0
    8.2367   -2.6220   16.2377 C   0  0  0  0  0  0  0  0  0  0  0  0
    9.2945   -3.0265   17.0609 C   0  0  0  0  0  0  0  0  0  0  0  0
    7.2381   -5.6200   14.5907 O   0  0  0  0  0  0  0  0  0  0  0  0
    7.8230   -6.5844   13.8495 C   0  0  0  0  0  0  0  0  0  0  0  0
    6.5757   -2.9864   14.7251 O   0  0  0  0  0  0  0  0  0  0  0  0
    6.7728   -2.7458   13.3326 C   0  0  0  0  0  0  0  0  0  0  0  0
    7.8790   -1.3635   16.2228 O   0  0  0  0  0  0  0  0  0  0  0  0
    8.4905   -0.3604   16.9320 C   0  0  0  0  0  0  0  0  0  0  0  0
  2  3  2  0  0  0
  2  9  1  0  0  0
  3  4  1  0  0  0
  4  5  1  0  0  0
  4  6  2  0  0  0
  6  7  1  0  0  0
  7  8  1  0  0  0
  7  9  2  0  0  0
  9  1  1  0  0  0
  1 14  1  0  0  0
 14 15  2  0  0  0
 14 19  1  0  0  0
 15 16  1  0  0  0
 16 20  1  0  0  0
 16 17  2  0  0  0
 20 21  1  0  0  0
 17 22  1  0  0  0
 17 18  1  0  0  0
 22 23  1  0  0  0
 18 24  1  0  0  0
 18 19  2  0  0  0
 24 25  1  0  0  0
  5 10  1  0  0  0
  5 11  1  0  0  0
  8 12  1  0  0  0
  8 13  1  0  0  0
M  END
> <minimizedAffinity>
-7.13920

$$$$
2W9H_TOP_A_1160


 25 26  0  0  0  0  0  0  0  0999 V2000
    9.8026   -0.8823   16.5970 C   0  0  0  0  0  0  0  0  0  0  0  0
    9.0139   -2.0523   14.4798 C   0  0  0  0  0  0  0  0  0  0  0  0
    8.1021   -2.7259   13.8007 N   0  0  0  0  0  0  0  0  0  0  0  0
    6.9129   -2.9318   14.3050 C   0  0  0  0  0  0  0  0  0  0  0  0
    6.0148   -3.5659   13.5766 N   0  0  0  0  0  0  0  0  0  0  0  0
    6.6284   -2.5254   15.5166 N   0  0  0  0  0  0  0  0  0  0  0  0
    7.4792   -1.9296   16.2880 C   0  0  0  0  0  0  0  0  0  0  0  0
    7.1884   -1.5632   17.5223 N   0  0  0  0  0  0  0  0  0  0  0  0
    8.7973   -1.6369   15.7426 C   0  0  0  0  0  0  0  0  0  0  0  0
    6.2418   -3.8662   12.6669 H   0  0  0  0  0  0  0  0  0  0  0  0
    5.1174   -3.7391   13.9425 H   0  0  0  0  0  0  0  0  0  0  0  0
    6.2991   -1.7581   17.8971 H   0  0  0  0  0  0  0  0  0  0  0  0
    7.8608   -1.0950   18.0681 H   0  0  0  0  0  0  0  0  0  0  0  0
   10.5740   -1.6219   17.6827 C   0  0  0  0  0  0  0  0  0  0  0  0
   10.4350   -2.9930   17.8295 C   0  0  0  0  0  0  0  0  0  0  0  0
   11.1453   -3.6899   18.8494 C   0  0  0  0  0  0  0  0  0  0  0  0
   11.9670   -2.9882   19.6037 C   0  0  0  0  0  0  0  0  0  0  0  0
   12.1176   -1.6595   19.4689 C   0  0  0  0  0  0  0  0  0  0  0  0
   11.4019   -0.9480   18.4985 C   0  0  0  0  0  0  0  0  0  0  0  0
   11.0364   -5.0268   19.0334 O   0  0  0  0  0  0  0  0  0  0  0  0
   11.4879   -5.9425   18.1507 C   0  0  0  0  0  0  0  0  0  0  0  0
   12.7364   -3.5565   20.5634 O   0  0  0  0  0  0  0  0  0  0  0  0
   12.1925   -3.7319   21.8707 C   0  0  0  0  0  0  0  0  0  0  0  0
   12.9328   -1.0172   20.2657 O   0  0  0  0  0  0  0  0  0  0  0  0
   12.5848    0.0447   21.0623 C   0  0  0  0  0  0  0  0  0  0  0  0
  2  3  2  0  0  0
  2  9  1  0  0  0
  3  4  1  0  0  0
  4  5  1  0  0  0
  4  6  2  0  0  0
  6  7  1  0  0  0
  7  8  1  0  0  0
  7  9  2  0  0  0
  9  1  1  0  0  0
  1 14  1  0  0  0
 14 15  2  0  0  0
 14 19  1  0  0  0
 15 16  1  0  0  0
 16 20  1  0  0  0
 16 17  2  0  0  0
 20 21  1  0  0  0
 17 22  1  0  0  0
 17 18  1  0  0  0
 22 23  1  0  0  0
 18 24  1  0  0  0
 18 19  2  0  0  0
 24 25  1  0  0  0
  5 10  1  0  0  0
  5 11  1  0  0  0
  8 12  1  0  0  0
  8 13  1  0  0  0
M  END
> <minimizedAffinity>
-7.09751

$$$$
