4R59_3J3_A_302


 31 32  0  0  0  0  0  0  0  0999 V2000
   -0.2995    5.6966   82.0650 S   0  0  0  0  0  0  0  0  0  0  0  0
   -0.9628    6.1075   80.8260 O   0  0  0  0  0  0  0  0  0  0  0  0
    0.1855    6.8437   82.7440 O   0  0  0  0  0  0  0  0  0  0  0  0
    1.8900    4.8381   83.3608 O   0  0  0  0  0  0  0  0  0  0  0  0
    2.1476    4.6357   81.9444 C   0  0  0  0  0  0  0  0  0  0  0  0
    3.4268    5.0259   81.4223 C   0  0  0  0  0  0  0  0  0  0  0  0
    4.3854    4.0004   81.7082 O   0  0  0  0  0  0  0  0  0  0  0  0
    3.5773    5.3334   79.9726 C   0  0  0  0  0  0  0  0  0  0  0  0
    4.5062    4.5713   79.2801 O   0  0  0  0  0  0  0  0  0  0  0  0
    2.3296    5.7762   79.1793 C   0  0  0  0  0  0  0  0  0  0  0  0
    1.0315    5.7693   79.9146 O   0  0  0  0  0  0  0  0  0  0  0  0
    0.9935    5.0330   81.1409 C   0  0  0  0  0  0  0  0  0  0  0  0
    2.6683    4.5680   83.8728 H   0  0  0  0  0  0  0  0  0  0  0  0
    4.1588    3.1985   81.2117 H   0  0  0  0  0  0  0  0  0  0  0  0
    4.1578    3.6752   79.1514 H   0  0  0  0  0  0  0  0  0  0  0  0
    2.0827    5.3241   77.8907 C   0  0  0  0  0  0  0  0  0  0  0  0
    0.9279    4.5919   78.2360 O   0  0  0  0  0  0  0  0  0  0  0  0
    1.1419    3.9664   78.9459 H   0  0  0  0  0  0  0  0  0  0  0  0
   -1.2528    4.9402   82.8468 N   0  0  0  0  0  0  0  0  0  0  0  0
   -2.0162    5.5237   83.8898 C   0  0  0  0  0  0  0  0  0  0  0  0
   -2.0118    4.9064   85.2873 C   0  0  0  0  0  0  0  0  0  0  0  0
   -1.0340    3.5451   82.9773 C   0  0  0  0  0  0  0  0  0  0  0  0
   -1.0068    2.9221   84.3491 C   0  0  0  0  0  0  0  0  0  0  0  0
   -1.1528    3.8363   85.4305 C   0  0  0  0  0  0  0  0  0  0  0  0
   -1.0865    3.0421   86.7005 O   0  0  0  0  0  0  0  0  0  0  0  0
   -1.9034    2.2757   87.5858 S   0  0  0  0  0  0  0  0  0  0  0  0
   -2.0216    2.8072   88.7045 O   0  0  0  0  0  0  0  0  0  0  0  0
   -3.1613    2.0750   87.0579 O   0  0  0  0  0  0  0  0  0  0  0  0
   -1.2703    0.9537   87.6986 N   0  0  0  0  0  0  0  0  0  0  0  0
   -1.1839    0.5379   86.7712 H   0  0  0  0  0  0  0  0  0  0  0  0
   -1.8437    0.3514   88.2892 H   0  0  0  0  0  0  0  0  0  0  0  0
  7  6  1  0  0  0
  9  8  1  0  0  0
  8  6  1  0  0  0
  8 10  1  0  0  0
  6  5  1  0  0  0
 10 16  1  0  0  0
 10 11  1  0  0  0
  5  4  1  0  0  0
  5 12  1  0  0  0
 16 17  1  0  0  0
 11 12  1  0  0  0
 12  1  1  0  0  0
 22 19  1  0  0  0
 22 23  1  0  0  0
 19  1  1  0  0  0
 19 20  1  0  0  0
  1  3  2  0  0  0
  1  2  2  0  0  0
 20 21  1  0  0  0
 23 24  1  0  0  0
 21 24  1  0  0  0
 24 25  1  0  0  0
 29 26  1  0  0  0
 25 26  1  0  0  0
 28 26  2  0  0  0
 26 27  2  0  0  0
  4 13  1  0  0  0
  7 14  1  0  0  0
  9 15  1  0  0  0
 17 18  1  0  0  0
 29 30  1  0  0  0
 29 31  1  0  0  0
M  END
> <minimizedAffinity>
-8.26733

$$$$
4R59_3J3_A_302


 31 32  0  0  0  0  0  0  0  0999 V2000
   -0.1716    7.1998   82.6871 S   0  0  0  0  0  0  0  0  0  0  0  0
   -0.8873    8.4703   82.5551 O   0  0  0  0  0  0  0  0  0  0  0  0
    1.2190    7.4513   82.8088 O   0  0  0  0  0  0  0  0  0  0  0  0
    0.8122    4.9348   81.6325 O   0  0  0  0  0  0  0  0  0  0  0  0
    0.1060    5.6131   80.5579 C   0  0  0  0  0  0  0  0  0  0  0  0
    0.7405    5.6971   79.2727 C   0  0  0  0  0  0  0  0  0  0  0  0
    0.5509    4.4621   78.5718 O   0  0  0  0  0  0  0  0  0  0  0  0
    0.3510    6.7726   78.3185 C   0  0  0  0  0  0  0  0  0  0  0  0
   -0.1203    6.3522   77.0839 O   0  0  0  0  0  0  0  0  0  0  0  0
   -0.2706    8.0683   78.8817 C   0  0  0  0  0  0  0  0  0  0  0  0
   -0.5252    8.1050   80.3512 O   0  0  0  0  0  0  0  0  0  0  0  0
   -0.5112    6.8485   81.0356 C   0  0  0  0  0  0  0  0  0  0  0  0
    1.2126    4.1195   81.2922 H   0  0  0  0  0  0  0  0  0  0  0  0
   -0.3904    4.3478   78.3670 H   0  0  0  0  0  0  0  0  0  0  0  0
   -1.0134    5.9876   77.1858 H   0  0  0  0  0  0  0  0  0  0  0  0
   -1.3357    8.7012   78.2567 C   0  0  0  0  0  0  0  0  0  0  0  0
   -2.2184    7.6083   78.3805 O   0  0  0  0  0  0  0  0  0  0  0  0
   -1.8135    6.8194   77.9873 H   0  0  0  0  0  0  0  0  0  0  0  0
   -0.7197    6.5003   83.8284 N   0  0  0  0  0  0  0  0  0  0  0  0
    0.0890    6.0319   84.8951 C   0  0  0  0  0  0  0  0  0  0  0  0
    0.0223    4.5685   85.3288 C   0  0  0  0  0  0  0  0  0  0  0  0
   -1.9304    5.7861   83.6405 C   0  0  0  0  0  0  0  0  0  0  0  0
   -2.0086    4.3364   84.0445 C   0  0  0  0  0  0  0  0  0  0  0  0
   -0.7960    3.7825   84.5440 C   0  0  0  0  0  0  0  0  0  0  0  0
   -1.0635    2.3449   84.8754 O   0  0  0  0  0  0  0  0  0  0  0  0
   -0.5398    1.2546   85.6340 S   0  0  0  0  0  0  0  0  0  0  0  0
   -0.2716    0.2675   84.9259 O   0  0  0  0  0  0  0  0  0  0  0  0
    0.5957    1.6245   86.3232 O   0  0  0  0  0  0  0  0  0  0  0  0
   -1.5593    0.9170   86.6380 N   0  0  0  0  0  0  0  0  0  0  0  0
   -1.7629    1.7396   87.2057 H   0  0  0  0  0  0  0  0  0  0  0  0
   -1.2118    0.1681   87.2369 H   0  0  0  0  0  0  0  0  0  0  0  0
  7  6  1  0  0  0
  9  8  1  0  0  0
  8  6  1  0  0  0
  8 10  1  0  0  0
  6  5  1  0  0  0
 10 16  1  0  0  0
 10 11  1  0  0  0
  5  4  1  0  0  0
  5 12  1  0  0  0
 16 17  1  0  0  0
 11 12  1  0  0  0
 12  1  1  0  0  0
 22 19  1  0  0  0
 22 23  1  0  0  0
 19  1  1  0  0  0
 19 20  1  0  0  0
  1  3  2  0  0  0
  1  2  2  0  0  0
 20 21  1  0  0  0
 23 24  1  0  0  0
 21 24  1  0  0  0
 24 25  1  0  0  0
 29 26  1  0  0  0
 25 26  1  0  0  0
 28 26  2  0  0  0
 26 27  2  0  0  0
  4 13  1  0  0  0
  7 14  1  0  0  0
  9 15  1  0  0  0
 17 18  1  0  0  0
 29 30  1  0  0  0
 29 31  1  0  0  0
M  END
> <minimizedAffinity>
-8.23783

$$$$
4R59_3J3_A_302


 31 32  0  0  0  0  0  0  0  0999 V2000
   -1.0885    5.1052   84.0520 S   0  0  0  0  0  0  0  0  0  0  0  0
   -1.7402    6.0023   85.0083 O   0  0  0  0  0  0  0  0  0  0  0  0
   -2.0585    4.5795   83.1607 O   0  0  0  0  0  0  0  0  0  0  0  0
    0.1142    2.7815   83.4486 O   0  0  0  0  0  0  0  0  0  0  0  0
   -0.2143    2.7165   84.8633 C   0  0  0  0  0  0  0  0  0  0  0  0
   -0.8037    1.5096   85.3708 C   0  0  0  0  0  0  0  0  0  0  0  0
    0.2274    0.5420   85.6008 O   0  0  0  0  0  0  0  0  0  0  0  0
   -1.6166    1.5451   86.6186 C   0  0  0  0  0  0  0  0  0  0  0  0
   -1.1824    0.7305   87.6535 O   0  0  0  0  0  0  0  0  0  0  0  0
   -2.2783    2.8775   87.0298 C   0  0  0  0  0  0  0  0  0  0  0  0
   -1.9692    4.0674   86.1847 O   0  0  0  0  0  0  0  0  0  0  0  0
   -0.8401    3.9582   85.3126 C   0  0  0  0  0  0  0  0  0  0  0  0
    0.5274    1.9479   83.1740 H   0  0  0  0  0  0  0  0  0  0  0  0
    0.8032    0.8476   86.3191 H   0  0  0  0  0  0  0  0  0  0  0  0
   -0.3828    1.1103   88.0502 H   0  0  0  0  0  0  0  0  0  0  0  0
   -2.3132    3.3006   88.3510 C   0  0  0  0  0  0  0  0  0  0  0  0
   -2.7205    4.6164   88.0484 O   0  0  0  0  0  0  0  0  0  0  0  0
   -2.0961    5.0117   87.4201 H   0  0  0  0  0  0  0  0  0  0  0  0
   -0.0518    5.8556   83.3779 N   0  0  0  0  0  0  0  0  0  0  0  0
    0.0504    5.9129   81.9646 C   0  0  0  0  0  0  0  0  0  0  0  0
    1.3622    5.5499   81.2707 C   0  0  0  0  0  0  0  0  0  0  0  0
    1.1679    6.0586   84.0723 C   0  0  0  0  0  0  0  0  0  0  0  0
    2.4703    5.6881   83.4110 C   0  0  0  0  0  0  0  0  0  0  0  0
    2.3461    5.0936   82.1235 C   0  0  0  0  0  0  0  0  0  0  0  0
    3.7304    4.7842   81.6376 O   0  0  0  0  0  0  0  0  0  0  0  0
    4.7194    5.2361   80.7124 S   0  0  0  0  0  0  0  0  0  0  0  0
    4.7607    6.4767   80.6280 O   0  0  0  0  0  0  0  0  0  0  0  0
    5.9729    4.7755   81.0555 O   0  0  0  0  0  0  0  0  0  0  0  0
    4.3824    4.6342   79.4141 N   0  0  0  0  0  0  0  0  0  0  0  0
    4.3542    3.6189   79.5072 H   0  0  0  0  0  0  0  0  0  0  0  0
    5.0890    4.8931   78.7256 H   0  0  0  0  0  0  0  0  0  0  0  0
  7  6  1  0  0  0
  9  8  1  0  0  0
  8  6  1  0  0  0
  8 10  1  0  0  0
  6  5  1  0  0  0
 10 16  1  0  0  0
 10 11  1  0  0  0
  5  4  1  0  0  0
  5 12  1  0  0  0
 16 17  1  0  0  0
 11 12  1  0  0  0
 12  1  1  0  0  0
 22 19  1  0  0  0
 22 23  1  0  0  0
 19  1  1  0  0  0
 19 20  1  0  0  0
  1  3  2  0  0  0
  1  2  2  0  0  0
 20 21  1  0  0  0
 23 24  1  0  0  0
 21 24  1  0  0  0
 24 25  1  0  0  0
 29 26  1  0  0  0
 25 26  1  0  0  0
 28 26  2  0  0  0
 26 27  2  0  0  0
  4 13  1  0  0  0
  7 14  1  0  0  0
  9 15  1  0  0  0
 17 18  1  0  0  0
 29 30  1  0  0  0
 29 31  1  0  0  0
M  END
> <minimizedAffinity>
-7.84826

$$$$
4R59_3J3_A_302


 31 32  0  0  0  0  0  0  0  0999 V2000
   -0.9108    6.1342   82.3597 S   0  0  0  0  0  0  0  0  0  0  0  0
   -0.8621    4.7837   81.7959 O   0  0  0  0  0  0  0  0  0  0  0  0
   -2.1595    6.7310   82.0493 O   0  0  0  0  0  0  0  0  0  0  0  0
   -0.1843    8.7191   82.3391 O   0  0  0  0  0  0  0  0  0  0  0  0
    0.5298    8.0851   81.2430 C   0  0  0  0  0  0  0  0  0  0  0  0
    0.5660    8.7570   79.9747 C   0  0  0  0  0  0  0  0  0  0  0  0
    1.5805    9.7680   80.0057 O   0  0  0  0  0  0  0  0  0  0  0  0
    0.8018    7.9794   78.7262 C   0  0  0  0  0  0  0  0  0  0  0  0
    1.9013    8.3572   77.9702 O   0  0  0  0  0  0  0  0  0  0  0  0
    0.4495    6.4768   78.7158 C   0  0  0  0  0  0  0  0  0  0  0  0
   -0.0170    5.8896   80.0055 O   0  0  0  0  0  0  0  0  0  0  0  0
    0.2391    6.6541   81.1875 C   0  0  0  0  0  0  0  0  0  0  0  0
    0.0239    9.6664   82.3557 H   0  0  0  0  0  0  0  0  0  0  0  0
    2.4522    9.3491   80.0795 H   0  0  0  0  0  0  0  0  0  0  0  0
    2.7139    8.0704   78.4156 H   0  0  0  0  0  0  0  0  0  0  0  0
    1.2644    5.5379   78.0993 C   0  0  0  0  0  0  0  0  0  0  0  0
    0.5590    4.4202   78.5914 O   0  0  0  0  0  0  0  0  0  0  0  0
    0.5082    4.4702   79.5587 H   0  0  0  0  0  0  0  0  0  0  0  0
   -0.6754    6.0276   83.7829 N   0  0  0  0  0  0  0  0  0  0  0  0
    0.4832    5.4102   84.3192 C   0  0  0  0  0  0  0  0  0  0  0  0
    0.3534    4.2897   85.3496 C   0  0  0  0  0  0  0  0  0  0  0  0
   -1.8085    6.0108   84.6356 C   0  0  0  0  0  0  0  0  0  0  0  0
   -1.9629    4.9023   85.6447 C   0  0  0  0  0  0  0  0  0  0  0  0
   -0.9465    3.9063   85.6079 C   0  0  0  0  0  0  0  0  0  0  0  0
   -1.2753    2.8917   86.6617 O   0  0  0  0  0  0  0  0  0  0  0  0
   -1.5511    1.5009   86.8296 S   0  0  0  0  0  0  0  0  0  0  0  0
   -1.2042    1.0785   87.9473 O   0  0  0  0  0  0  0  0  0  0  0  0
   -2.8919    1.2320   86.6533 O   0  0  0  0  0  0  0  0  0  0  0  0
   -0.8291    0.7999   85.7580 N   0  0  0  0  0  0  0  0  0  0  0  0
   -1.1290    1.1619   84.8527 H   0  0  0  0  0  0  0  0  0  0  0  0
   -1.0310   -0.1986   85.8087 H   0  0  0  0  0  0  0  0  0  0  0  0
  7  6  1  0  0  0
  9  8  1  0  0  0
  8  6  1  0  0  0
  8 10  1  0  0  0
  6  5  1  0  0  0
 10 16  1  0  0  0
 10 11  1  0  0  0
  5  4  1  0  0  0
  5 12  1  0  0  0
 16 17  1  0  0  0
 11 12  1  0  0  0
 12  1  1  0  0  0
 22 19  1  0  0  0
 22 23  1  0  0  0
 19  1  1  0  0  0
 19 20  1  0  0  0
  1  3  2  0  0  0
  1  2  2  0  0  0
 20 21  1  0  0  0
 23 24  1  0  0  0
 21 24  1  0  0  0
 24 25  1  0  0  0
 29 26  1  0  0  0
 25 26  1  0  0  0
 28 26  2  0  0  0
 26 27  2  0  0  0
  4 13  1  0  0  0
  7 14  1  0  0  0
  9 15  1  0  0  0
 17 18  1  0  0  0
 29 30  1  0  0  0
 29 31  1  0  0  0
M  END
> <minimizedAffinity>
-7.72604

$$$$
4R59_3J3_A_302


 31 32  0  0  0  0  0  0  0  0999 V2000
    0.7818    5.9543   82.2039 S   0  0  0  0  0  0  0  0  0  0  0  0
   -0.1660    6.8535   82.8650 O   0  0  0  0  0  0  0  0  0  0  0  0
    2.0299    6.6112   82.0535 O   0  0  0  0  0  0  0  0  0  0  0  0
    1.8114    4.8841   79.9667 O   0  0  0  0  0  0  0  0  0  0  0  0
    0.5754    5.5412   79.5743 C   0  0  0  0  0  0  0  0  0  0  0  0
    0.5818    6.3522   78.3895 C   0  0  0  0  0  0  0  0  0  0  0  0
    0.4577    5.5072   77.2393 O   0  0  0  0  0  0  0  0  0  0  0  0
   -0.4340    7.4281   78.2177 C   0  0  0  0  0  0  0  0  0  0  0  0
   -1.2385    7.3341   77.0920 O   0  0  0  0  0  0  0  0  0  0  0  0
   -1.0907    8.0301   79.4781 C   0  0  0  0  0  0  0  0  0  0  0  0
   -0.7221    7.4124   80.7850 O   0  0  0  0  0  0  0  0  0  0  0  0
   -0.0964    6.1267   80.7324 C   0  0  0  0  0  0  0  0  0  0  0  0
    2.2385    4.5041   79.1831 H   0  0  0  0  0  0  0  0  0  0  0  0
   -0.4175    5.0889   77.2382 H   0  0  0  0  0  0  0  0  0  0  0  0
   -1.8798    6.6163   77.2119 H   0  0  0  0  0  0  0  0  0  0  0  0
   -2.4443    8.3322   79.5252 C   0  0  0  0  0  0  0  0  0  0  0  0
   -2.8685    6.9886   79.5850 O   0  0  0  0  0  0  0  0  0  0  0  0
   -2.4981    6.4989   78.8341 H   0  0  0  0  0  0  0  0  0  0  0  0
    0.8721    4.7474   82.9961 N   0  0  0  0  0  0  0  0  0  0  0  0
    0.3066    3.5166   82.5762 C   0  0  0  0  0  0  0  0  0  0  0  0
   -0.6526    2.7565   83.4907 C   0  0  0  0  0  0  0  0  0  0  0  0
    1.0066    4.8931   84.4003 C   0  0  0  0  0  0  0  0  0  0  0  0
    0.0571    4.1664   85.3173 C   0  0  0  0  0  0  0  0  0  0  0  0
   -0.9607    3.4173   84.6620 C   0  0  0  0  0  0  0  0  0  0  0  0
   -1.8065    2.7843   85.7261 O   0  0  0  0  0  0  0  0  0  0  0  0
   -1.7397    1.8411   86.7958 S   0  0  0  0  0  0  0  0  0  0  0  0
   -1.2791    2.3370   87.8397 O   0  0  0  0  0  0  0  0  0  0  0  0
   -2.9814    1.3085   87.0712 O   0  0  0  0  0  0  0  0  0  0  0  0
   -0.8941    0.7347   86.3244 N   0  0  0  0  0  0  0  0  0  0  0  0
   -1.2903    0.3444   85.4694 H   0  0  0  0  0  0  0  0  0  0  0  0
   -0.8515    0.0102   87.0411 H   0  0  0  0  0  0  0  0  0  0  0  0
  7  6  1  0  0  0
  9  8  1  0  0  0
  8  6  1  0  0  0
  8 10  1  0  0  0
  6  5  1  0  0  0
 10 16  1  0  0  0
 10 11  1  0  0  0
  5  4  1  0  0  0
  5 12  1  0  0  0
 16 17  1  0  0  0
 11 12  1  0  0  0
 12  1  1  0  0  0
 22 19  1  0  0  0
 22 23  1  0  0  0
 19  1  1  0  0  0
 19 20  1  0  0  0
  1  3  2  0  0  0
  1  2  2  0  0  0
 20 21  1  0  0  0
 23 24  1  0  0  0
 21 24  1  0  0  0
 24 25  1  0  0  0
 29 26  1  0  0  0
 25 26  1  0  0  0
 28 26  2  0  0  0
 26 27  2  0  0  0
  4 13  1  0  0  0
  7 14  1  0  0  0
  9 15  1  0  0  0
 17 18  1  0  0  0
 29 30  1  0  0  0
 29 31  1  0  0  0
M  END
> <minimizedAffinity>
-7.67042

$$$$
4R59_3J3_A_302


 31 32  0  0  0  0  0  0  0  0999 V2000
   -1.7876    7.4028   83.2425 S   0  0  0  0  0  0  0  0  0  0  0  0
   -2.4812    6.5241   82.2987 O   0  0  0  0  0  0  0  0  0  0  0  0
   -2.7317    8.2419   83.8880 O   0  0  0  0  0  0  0  0  0  0  0  0
   -0.2669    9.5522   83.7693 O   0  0  0  0  0  0  0  0  0  0  0  0
   -0.3362    9.4454   82.3211 C   0  0  0  0  0  0  0  0  0  0  0  0
   -0.5826   10.6385   81.5613 C   0  0  0  0  0  0  0  0  0  0  0  0
    0.6430   11.3657   81.4149 O   0  0  0  0  0  0  0  0  0  0  0  0
   -1.1675   10.5437   80.1946 C   0  0  0  0  0  0  0  0  0  0  0  0
   -0.4149   11.0957   79.1688 O   0  0  0  0  0  0  0  0  0  0  0  0
   -2.0016    9.2961   79.8344 C   0  0  0  0  0  0  0  0  0  0  0  0
   -2.0787    8.2215   80.8664 O   0  0  0  0  0  0  0  0  0  0  0  0
   -1.1114    8.2736   81.9194 C   0  0  0  0  0  0  0  0  0  0  0  0
    0.2514   10.3356   84.0113 H   0  0  0  0  0  0  0  0  0  0  0  0
    1.2583   10.8551   80.8657 H   0  0  0  0  0  0  0  0  0  0  0  0
    0.3485   10.5261   78.9852 H   0  0  0  0  0  0  0  0  0  0  0  0
   -1.8993    8.6795   78.5954 C   0  0  0  0  0  0  0  0  0  0  0  0
   -2.2860    7.4051   79.0595 O   0  0  0  0  0  0  0  0  0  0  0  0
   -1.7089    7.1390   79.7923 H   0  0  0  0  0  0  0  0  0  0  0  0
   -1.0526    6.5668   84.1662 N   0  0  0  0  0  0  0  0  0  0  0  0
    0.0345    5.7529   83.7573 C   0  0  0  0  0  0  0  0  0  0  0  0
    0.0450    4.2600   84.0814 C   0  0  0  0  0  0  0  0  0  0  0  0
   -1.7331    6.1139   85.3250 C   0  0  0  0  0  0  0  0  0  0  0  0
   -1.7498    4.6426   85.6499 C   0  0  0  0  0  0  0  0  0  0  0  0
   -1.1038    3.8062   84.6960 C   0  0  0  0  0  0  0  0  0  0  0  0
   -1.2352    2.3926   85.1781 O   0  0  0  0  0  0  0  0  0  0  0  0
   -0.4802    1.3389   85.7765 S   0  0  0  0  0  0  0  0  0  0  0  0
   -0.1531    0.4625   84.9563 O   0  0  0  0  0  0  0  0  0  0  0  0
    0.6596    1.8225   86.3832 O   0  0  0  0  0  0  0  0  0  0  0  0
   -1.3237    0.7726   86.8391 N   0  0  0  0  0  0  0  0  0  0  0  0
   -1.5791    1.5076   87.4985 H   0  0  0  0  0  0  0  0  0  0  0  0
   -0.8085    0.0408   87.3285 H   0  0  0  0  0  0  0  0  0  0  0  0
  7  6  1  0  0  0
  9  8  1  0  0  0
  8  6  1  0  0  0
  8 10  1  0  0  0
  6  5  1  0  0  0
 10 16  1  0  0  0
 10 11  1  0  0  0
  5  4  1  0  0  0
  5 12  1  0  0  0
 16 17  1  0  0  0
 11 12  1  0  0  0
 12  1  1  0  0  0
 22 19  1  0  0  0
 22 23  1  0  0  0
 19  1  1  0  0  0
 19 20  1  0  0  0
  1  3  2  0  0  0
  1  2  2  0  0  0
 20 21  1  0  0  0
 23 24  1  0  0  0
 21 24  1  0  0  0
 24 25  1  0  0  0
 29 26  1  0  0  0
 25 26  1  0  0  0
 28 26  2  0  0  0
 26 27  2  0  0  0
  4 13  1  0  0  0
  7 14  1  0  0  0
  9 15  1  0  0  0
 17 18  1  0  0  0
 29 30  1  0  0  0
 29 31  1  0  0  0
M  END
> <minimizedAffinity>
-7.65460

$$$$
4R59_3J3_A_302


 31 32  0  0  0  0  0  0  0  0999 V2000
   -1.3154    5.3472   84.3340 S   0  0  0  0  0  0  0  0  0  0  0  0
   -2.0461    6.1688   85.3009 O   0  0  0  0  0  0  0  0  0  0  0  0
   -2.2148    4.8643   83.3492 O   0  0  0  0  0  0  0  0  0  0  0  0
    0.3842    3.3276   83.8415 O   0  0  0  0  0  0  0  0  0  0  0  0
   -0.2066    3.0568   85.1419 C   0  0  0  0  0  0  0  0  0  0  0  0
   -0.6585    1.7227   85.4201 C   0  0  0  0  0  0  0  0  0  0  0  0
    0.4622    0.9148   85.7991 O   0  0  0  0  0  0  0  0  0  0  0  0
   -1.6999    1.4905   86.4596 C   0  0  0  0  0  0  0  0  0  0  0  0
   -1.3443    0.6488   87.5028 O   0  0  0  0  0  0  0  0  0  0  0  0
   -2.6608    2.6459   86.8116 C   0  0  0  0  0  0  0  0  0  0  0  0
   -2.4073    3.9550   86.1424 O   0  0  0  0  0  0  0  0  0  0  0  0
   -1.1243    4.1249   85.5322 C   0  0  0  0  0  0  0  0  0  0  0  0
    0.9882    2.6066   83.6043 H   0  0  0  0  0  0  0  0  0  0  0  0
    0.8157    1.2292   86.6460 H   0  0  0  0  0  0  0  0  0  0  0  0
   -0.7237    1.1071   88.0908 H   0  0  0  0  0  0  0  0  0  0  0  0
   -3.0384    2.9114   88.1203 C   0  0  0  0  0  0  0  0  0  0  0  0
   -1.7221    3.0876   88.5950 O   0  0  0  0  0  0  0  0  0  0  0  0
   -1.1942    2.3019   88.3834 H   0  0  0  0  0  0  0  0  0  0  0  0
   -0.2537    6.1576   83.7786 N   0  0  0  0  0  0  0  0  0  0  0  0
    0.5684    6.9897   84.5804 C   0  0  0  0  0  0  0  0  0  0  0  0
    0.7265    8.4717   84.2447 C   0  0  0  0  0  0  0  0  0  0  0  0
   -0.3816    6.5700   82.4278 C   0  0  0  0  0  0  0  0  0  0  0  0
   -0.2481    8.0303   82.0807 C   0  0  0  0  0  0  0  0  0  0  0  0
   -0.0547    8.8997   83.1912 C   0  0  0  0  0  0  0  0  0  0  0  0
    0.0401   10.2968   82.6551 O   0  0  0  0  0  0  0  0  0  0  0  0
    0.7756   11.5100   82.8152 S   0  0  0  0  0  0  0  0  0  0  0  0
    2.0057   11.3313   82.7625 O   0  0  0  0  0  0  0  0  0  0  0  0
    0.4234   12.4383   81.8584 O   0  0  0  0  0  0  0  0  0  0  0  0
    0.3829   12.0673   84.1177 N   0  0  0  0  0  0  0  0  0  0  0  0
   -0.6275   12.2050   84.1379 H   0  0  0  0  0  0  0  0  0  0  0  0
    0.8510   12.9623   84.2596 H   0  0  0  0  0  0  0  0  0  0  0  0
  7  6  1  0  0  0
  9  8  1  0  0  0
  8  6  1  0  0  0
  8 10  1  0  0  0
  6  5  1  0  0  0
 10 16  1  0  0  0
 10 11  1  0  0  0
  5  4  1  0  0  0
  5 12  1  0  0  0
 16 17  1  0  0  0
 11 12  1  0  0  0
 12  1  1  0  0  0
 22 19  1  0  0  0
 22 23  1  0  0  0
 19  1  1  0  0  0
 19 20  1  0  0  0
  1  3  2  0  0  0
  1  2  2  0  0  0
 20 21  1  0  0  0
 23 24  1  0  0  0
 21 24  1  0  0  0
 24 25  1  0  0  0
 29 26  1  0  0  0
 25 26  1  0  0  0
 28 26  2  0  0  0
 26 27  2  0  0  0
  4 13  1  0  0  0
  7 14  1  0  0  0
  9 15  1  0  0  0
 17 18  1  0  0  0
 29 30  1  0  0  0
 29 31  1  0  0  0
M  END
> <minimizedAffinity>
-7.53534

$$$$
4R59_3J3_A_302


 31 32  0  0  0  0  0  0  0  0999 V2000
   -0.7988    7.6737   83.4907 S   0  0  0  0  0  0  0  0  0  0  0  0
   -2.1463    7.4199   82.9770 O   0  0  0  0  0  0  0  0  0  0  0  0
   -0.7074    9.0183   83.9330 O   0  0  0  0  0  0  0  0  0  0  0  0
   -1.5062    9.5937   81.7519 O   0  0  0  0  0  0  0  0  0  0  0  0
   -0.6635    8.6657   81.0156 C   0  0  0  0  0  0  0  0  0  0  0  0
   -1.0845    8.2560   79.7055 C   0  0  0  0  0  0  0  0  0  0  0  0
   -0.7339    9.2723   78.7586 O   0  0  0  0  0  0  0  0  0  0  0  0
   -0.5896    6.9739   79.1310 C   0  0  0  0  0  0  0  0  0  0  0  0
    0.0920    7.0671   77.9269 O   0  0  0  0  0  0  0  0  0  0  0  0
   -0.1205    5.8654   80.0972 C   0  0  0  0  0  0  0  0  0  0  0  0
   -0.1088    6.2045   81.5500 O   0  0  0  0  0  0  0  0  0  0  0  0
   -0.1824    7.5938   81.8845 C   0  0  0  0  0  0  0  0  0  0  0  0
   -1.8129   10.2948   81.1557 H   0  0  0  0  0  0  0  0  0  0  0  0
    0.2319    9.3326   78.6916 H   0  0  0  0  0  0  0  0  0  0  0  0
    0.9709    7.4474   78.0814 H   0  0  0  0  0  0  0  0  0  0  0  0
    1.0052    5.0964   79.8382 C   0  0  0  0  0  0  0  0  0  0  0  0
    0.3974    4.3252   78.8259 O   0  0  0  0  0  0  0  0  0  0  0  0
   -0.4108    3.9158   79.1726 H   0  0  0  0  0  0  0  0  0  0  0  0
   -0.5392    6.7155   84.5427 N   0  0  0  0  0  0  0  0  0  0  0  0
    0.6636    5.9674   84.6116 C   0  0  0  0  0  0  0  0  0  0  0  0
    0.6196    4.4437   84.7130 C   0  0  0  0  0  0  0  0  0  0  0  0
   -1.6579    6.1036   85.1633 C   0  0  0  0  0  0  0  0  0  0  0  0
   -1.7276    4.6012   85.2548 C   0  0  0  0  0  0  0  0  0  0  0  0
   -0.6494    3.9078   84.6357 C   0  0  0  0  0  0  0  0  0  0  0  0
   -0.8986    2.4403   84.8153 O   0  0  0  0  0  0  0  0  0  0  0  0
   -0.4884    1.3232   85.6043 S   0  0  0  0  0  0  0  0  0  0  0  0
   -0.2636    0.3114   84.9161 O   0  0  0  0  0  0  0  0  0  0  0  0
    0.6411    1.6172   86.3384 O   0  0  0  0  0  0  0  0  0  0  0  0
   -1.5712    1.0719   86.5664 N   0  0  0  0  0  0  0  0  0  0  0  0
   -1.7377    1.9134   87.1183 H   0  0  0  0  0  0  0  0  0  0  0  0
   -1.3049    0.3063   87.1856 H   0  0  0  0  0  0  0  0  0  0  0  0
  7  6  1  0  0  0
  9  8  1  0  0  0
  8  6  1  0  0  0
  8 10  1  0  0  0
  6  5  1  0  0  0
 10 16  1  0  0  0
 10 11  1  0  0  0
  5  4  1  0  0  0
  5 12  1  0  0  0
 16 17  1  0  0  0
 11 12  1  0  0  0
 12  1  1  0  0  0
 22 19  1  0  0  0
 22 23  1  0  0  0
 19  1  1  0  0  0
 19 20  1  0  0  0
  1  3  2  0  0  0
  1  2  2  0  0  0
 20 21  1  0  0  0
 23 24  1  0  0  0
 21 24  1  0  0  0
 24 25  1  0  0  0
 29 26  1  0  0  0
 25 26  1  0  0  0
 28 26  2  0  0  0
 26 27  2  0  0  0
  4 13  1  0  0  0
  7 14  1  0  0  0
  9 15  1  0  0  0
 17 18  1  0  0  0
 29 30  1  0  0  0
 29 31  1  0  0  0
M  END
> <minimizedAffinity>
-7.35282

$$$$
4R59_3J3_A_302


 31 32  0  0  0  0  0  0  0  0999 V2000
    0.2132    4.8396   81.6296 S   0  0  0  0  0  0  0  0  0  0  0  0
    1.5324    4.2046   81.6474 O   0  0  0  0  0  0  0  0  0  0  0  0
   -0.7225    3.9678   81.0161 O   0  0  0  0  0  0  0  0  0  0  0  0
   -1.5547    6.5307   80.5228 O   0  0  0  0  0  0  0  0  0  0  0  0
   -0.2789    6.7925   79.8768 C   0  0  0  0  0  0  0  0  0  0  0  0
   -0.2562    6.9397   78.4488 C   0  0  0  0  0  0  0  0  0  0  0  0
   -0.6641    8.2693   78.1054 O   0  0  0  0  0  0  0  0  0  0  0  0
    1.0039    6.6910   77.6943 C   0  0  0  0  0  0  0  0  0  0  0  0
    1.4790    7.7489   76.9338 O   0  0  0  0  0  0  0  0  0  0  0  0
    2.0700    5.7688   78.3229 C   0  0  0  0  0  0  0  0  0  0  0  0
    1.7931    5.2672   79.7004 O   0  0  0  0  0  0  0  0  0  0  0  0
    0.7744    5.9494   80.4381 C   0  0  0  0  0  0  0  0  0  0  0  0
   -2.2368    7.1007   80.1345 H   0  0  0  0  0  0  0  0  0  0  0  0
   -0.0011    8.9028   78.4219 H   0  0  0  0  0  0  0  0  0  0  0  0
    1.8512    8.4266   77.5196 H   0  0  0  0  0  0  0  0  0  0  0  0
    3.4250    6.0587   78.2479 C   0  0  0  0  0  0  0  0  0  0  0  0
    3.8389    4.8870   78.9148 O   0  0  0  0  0  0  0  0  0  0  0  0
    3.3933    4.8298   79.7745 H   0  0  0  0  0  0  0  0  0  0  0  0
   -0.1360    5.1713   82.9936 N   0  0  0  0  0  0  0  0  0  0  0  0
    0.8072    5.1334   84.0520 C   0  0  0  0  0  0  0  0  0  0  0  0
    0.5174    4.3239   85.3149 C   0  0  0  0  0  0  0  0  0  0  0  0
   -1.4844    4.9821   83.3900 C   0  0  0  0  0  0  0  0  0  0  0  0
   -1.7900    4.1701   84.6220 C   0  0  0  0  0  0  0  0  0  0  0  0
   -0.6558    3.5996   85.2659 C   0  0  0  0  0  0  0  0  0  0  0  0
   -1.1547    2.8248   86.4487 O   0  0  0  0  0  0  0  0  0  0  0  0
   -1.6316    1.5312   86.8195 S   0  0  0  0  0  0  0  0  0  0  0  0
   -1.2408    0.6396   86.0447 O   0  0  0  0  0  0  0  0  0  0  0  0
   -1.2427    1.2032   88.1011 O   0  0  0  0  0  0  0  0  0  0  0  0
   -3.0994    1.6133   86.8252 N   0  0  0  0  0  0  0  0  0  0  0  0
   -3.3963    2.3492   87.4660 H   0  0  0  0  0  0  0  0  0  0  0  0
   -3.4887    0.7207   87.1287 H   0  0  0  0  0  0  0  0  0  0  0  0
  7  6  1  0  0  0
  9  8  1  0  0  0
  8  6  1  0  0  0
  8 10  1  0  0  0
  6  5  1  0  0  0
 10 16  1  0  0  0
 10 11  1  0  0  0
  5  4  1  0  0  0
  5 12  1  0  0  0
 16 17  1  0  0  0
 11 12  1  0  0  0
 12  1  1  0  0  0
 22 19  1  0  0  0
 22 23  1  0  0  0
 19  1  1  0  0  0
 19 20  1  0  0  0
  1  3  2  0  0  0
  1  2  2  0  0  0
 20 21  1  0  0  0
 23 24  1  0  0  0
 21 24  1  0  0  0
 24 25  1  0  0  0
 29 26  1  0  0  0
 25 26  1  0  0  0
 28 26  2  0  0  0
 26 27  2  0  0  0
  4 13  1  0  0  0
  7 14  1  0  0  0
  9 15  1  0  0  0
 17 18  1  0  0  0
 29 30  1  0  0  0
 29 31  1  0  0  0
M  END
> <minimizedAffinity>
-7.21587

$$$$
4R59_3J3_A_302


 31 32  0  0  0  0  0  0  0  0999 V2000
   -0.2170    5.4058   81.8754 S   0  0  0  0  0  0  0  0  0  0  0  0
    0.2615    4.4759   80.8506 O   0  0  0  0  0  0  0  0  0  0  0  0
   -0.7631    6.5566   81.2513 O   0  0  0  0  0  0  0  0  0  0  0  0
    0.2680    7.5408   83.4300 O   0  0  0  0  0  0  0  0  0  0  0  0
    1.5632    6.9570   83.1216 C   0  0  0  0  0  0  0  0  0  0  0  0
    2.6309    7.8350   82.7337 C   0  0  0  0  0  0  0  0  0  0  0  0
    3.2113    8.4182   83.9065 O   0  0  0  0  0  0  0  0  0  0  0  0
    3.7711    7.3117   81.9304 C   0  0  0  0  0  0  0  0  0  0  0  0
    5.0306    7.4549   82.4927 O   0  0  0  0  0  0  0  0  0  0  0  0
    3.5478    6.0521   81.0668 C   0  0  0  0  0  0  0  0  0  0  0  0
    2.2153    5.3907   81.1794 O   0  0  0  0  0  0  0  0  0  0  0  0
    1.4137    5.7524   82.3080 C   0  0  0  0  0  0  0  0  0  0  0  0
    0.3925    8.3373   83.9695 H   0  0  0  0  0  0  0  0  0  0  0  0
    3.6476    7.7272   84.4291 H   0  0  0  0  0  0  0  0  0  0  0  0
    5.1321    6.8248   83.2232 H   0  0  0  0  0  0  0  0  0  0  0  0
    4.5045    5.0516   80.9702 C   0  0  0  0  0  0  0  0  0  0  0  0
    4.1000    4.6172   79.6909 O   0  0  0  0  0  0  0  0  0  0  0  0
    3.1555    4.3969   79.7079 H   0  0  0  0  0  0  0  0  0  0  0  0
   -1.1766    4.7019   82.6976 N   0  0  0  0  0  0  0  0  0  0  0  0
   -1.9981    5.3636   83.6455 C   0  0  0  0  0  0  0  0  0  0  0  0
   -2.0296    4.8952   85.0993 C   0  0  0  0  0  0  0  0  0  0  0  0
   -0.9201    3.3363   82.9817 C   0  0  0  0  0  0  0  0  0  0  0  0
   -0.9277    2.8604   84.4114 C   0  0  0  0  0  0  0  0  0  0  0  0
   -1.1443    3.8763   85.3848 C   0  0  0  0  0  0  0  0  0  0  0  0
   -1.1036    3.2209   86.7328 O   0  0  0  0  0  0  0  0  0  0  0  0
   -1.8755    2.3849   87.5951 S   0  0  0  0  0  0  0  0  0  0  0  0
   -1.9864    2.8565   88.7411 O   0  0  0  0  0  0  0  0  0  0  0  0
   -3.1374    2.1681   87.0835 O   0  0  0  0  0  0  0  0  0  0  0  0
   -1.1972    1.0811   87.6292 N   0  0  0  0  0  0  0  0  0  0  0  0
   -1.1177    0.7144   86.6807 H   0  0  0  0  0  0  0  0  0  0  0  0
   -1.7376    0.4315   88.2006 H   0  0  0  0  0  0  0  0  0  0  0  0
  7  6  1  0  0  0
  9  8  1  0  0  0
  8  6  1  0  0  0
  8 10  1  0  0  0
  6  5  1  0  0  0
 10 16  1  0  0  0
 10 11  1  0  0  0
  5  4  1  0  0  0
  5 12  1  0  0  0
 16 17  1  0  0  0
 11 12  1  0  0  0
 12  1  1  0  0  0
 22 19  1  0  0  0
 22 23  1  0  0  0
 19  1  1  0  0  0
 19 20  1  0  0  0
  1  3  2  0  0  0
  1  2  2  0  0  0
 20 21  1  0  0  0
 23 24  1  0  0  0
 21 24  1  0  0  0
 24 25  1  0  0  0
 29 26  1  0  0  0
 25 26  1  0  0  0
 28 26  2  0  0  0
 26 27  2  0  0  0
  4 13  1  0  0  0
  7 14  1  0  0  0
  9 15  1  0  0  0
 17 18  1  0  0  0
 29 30  1  0  0  0
 29 31  1  0  0  0
M  END
> <minimizedAffinity>
-7.07002

$$$$
