4YHO_4CC_H_301


 40 43  0  0  0  0  0  0  0  0999 V2000
    4.3951  -20.8168   11.7727 N   0  0  0  0  0  0  0  0  0  0  0  0
    3.4247  -22.9487   12.7520 C   0  0  0  0  0  0  0  0  0  0  0  0
    0.9724  -21.6596   12.2110 C   0  0  0  0  0  0  0  0  0  0  0  0
    3.7296  -19.6805   11.2697 C   0  0  0  0  0  0  0  0  0  0  0  0
    5.8336  -21.0897   11.8718 C   0  0  0  0  0  0  0  0  0  0  0  0
    1.0000  -22.9318   12.7881 C   0  0  0  0  0  0  0  0  0  0  0  0
    3.3869  -21.6823   12.1809 C   0  0  0  0  0  0  0  0  0  0  0  0
    2.1854  -21.0318   11.9081 C   0  0  0  0  0  0  0  0  0  0  0  0
    2.4204  -19.7791   11.3371 N   0  0  0  0  0  0  0  0  0  0  0  0
    2.2191  -23.5598   13.0478 C   0  0  0  0  0  0  0  0  0  0  0  0
   -0.2587  -23.6625   13.1314 C   0  0  0  0  0  0  0  0  0  0  0  0
   -1.0533  -23.2242   14.1551 N   0  0  0  0  0  0  0  0  0  0  0  0
   -0.5602  -24.6399   12.4676 O   0  0  0  0  0  0  0  0  0  0  0  0
   -0.6541  -22.3624   15.2000 C   0  0  0  0  0  0  0  0  0  0  0  0
    0.1574  -22.8477   16.2395 C   0  0  0  0  0  0  0  0  0  0  0  0
    0.5225  -21.9580   17.2377 C   0  0  0  0  0  0  0  0  0  0  0  0
   -1.0828  -21.0936   15.1351 N   0  0  0  0  0  0  0  0  0  0  0  0
   -0.7052  -20.2637   16.1241 C   0  0  0  0  0  0  0  0  0  0  0  0
    0.0906  -20.6484   17.1879 C   0  0  0  0  0  0  0  0  0  0  0  0
   -2.4346  -23.7295   14.2507 C   0  0  0  0  0  0  0  0  0  0  0  0
   -3.3318  -23.1270   13.1808 C   0  0  0  0  0  0  0  0  0  0  0  0
   -4.3199  -22.1027   13.7075 C   0  0  0  0  0  0  0  0  0  0  0  0
   -5.3590  -21.8907   13.0385 O   0  0  0  0  0  0  0  0  0  0  0  0
   -4.0386  -21.5189   14.7799 O   0  0  0  0  0  0  0  0  0  0  0  0
   -3.2436  -21.7249   15.2309 H   0  0  0  0  0  0  0  0  0  0  0  0
    4.4364  -18.4438   10.7021 C   0  0  0  0  0  0  0  0  0  0  0  0
    3.4692  -17.5814   10.0429 N   0  0  0  0  0  0  0  0  0  0  0  0
    2.6535  -17.3254   10.5311 H   0  0  0  0  0  0  0  0  0  0  0  0
    4.8462  -17.3477    8.0889 C   0  0  0  0  0  0  0  0  0  0  0  0
    2.8249  -15.9329    6.8253 C   0  0  0  0  0  0  0  0  0  0  0  0
    3.6505  -17.1071    8.7574 C   0  0  0  0  0  0  0  0  0  0  0  0
    2.6300  -16.4195    8.1054 C   0  0  0  0  0  0  0  0  0  0  0  0
    5.0385  -16.8536    6.8118 C   0  0  0  0  0  0  0  0  0  0  0  0
    4.0168  -16.1773    6.1510 C   0  0  0  0  0  0  0  0  0  0  0  0
    4.2158  -15.6751    4.7770 C   0  0  0  0  0  0  0  0  0  0  0  0
    4.3977  -14.3916    4.5723 N   0  0  0  0  0  0  0  0  0  0  0  0
    4.2063  -16.5119    3.7686 N   0  0  0  0  0  0  0  0  0  0  0  0
    4.5307  -14.0530    3.6575 H   0  0  0  0  0  0  0  0  0  0  0  0
    4.4012  -13.7673    5.3336 H   0  0  0  0  0  0  0  0  0  0  0  0
    4.0694  -17.4737    3.9282 H   0  0  0  0  0  0  0  0  0  0  0  0
 23 22  2  0  0  0
 24 22  1  0  0  0
 22 21  1  0  0  0
 21 20  1  0  0  0
 20 12  1  0  0  0
 15 16  2  0  0  0
 15 14  1  0  0  0
 16 19  1  0  0  0
 13 11  2  0  0  0
 12 14  1  0  0  0
 12 11  1  0  0  0
 14 17  2  0  0  0
 11  6  1  0  0  0
 19 18  2  0  0  0
 17 18  1  0  0  0
  3  6  2  0  0  0
  3  8  1  0  0  0
  6 10  1  0  0  0
  8  9  1  0  0  0
  8  7  2  0  0  0
 10  2  2  0  0  0
  9  4  2  0  0  0
 29 33  2  0  0  0
 29 31  1  0  0  0
 33 34  1  0  0  0
  7  2  1  0  0  0
  7  1  1  0  0  0
 27 31  1  0  0  0
 27 26  1  0  0  0
 31 32  2  0  0  0
  4  1  1  0  0  0
  4 26  1  0  0  0
 37 35  2  0  0  0
 34 35  1  0  0  0
 34 30  2  0  0  0
 35 36  1  0  0  0
  1  5  1  0  0  0
 32 30  1  0  0  0
 27 28  1  0  0  0
 24 25  1  0  0  0
 36 38  1  0  0  0
 36 39  1  0  0  0
 37 40  1  0  0  0
M  END
> <minimizedAffinity>
-10.44123

$$$$
4YHO_4CC_H_301


 40 43  0  0  0  0  0  0  0  0999 V2000
    1.9115  -18.2474   11.1020 N   0  0  0  0  0  0  0  0  0  0  0  0
   -0.3364  -19.3631   11.4869 C   0  0  0  0  0  0  0  0  0  0  0  0
    1.2763  -21.6039   12.0756 C   0  0  0  0  0  0  0  0  0  0  0  0
    3.2086  -18.7870   11.2173 C   0  0  0  0  0  0  0  0  0  0  0  0
    1.4934  -16.8911   10.7287 C   0  0  0  0  0  0  0  0  0  0  0  0
   -0.1170  -21.6886   12.1389 C   0  0  0  0  0  0  0  0  0  0  0  0
    1.0501  -19.2897   11.4240 C   0  0  0  0  0  0  0  0  0  0  0  0
    1.8605  -20.3861   11.7107 C   0  0  0  0  0  0  0  0  0  0  0  0
    3.2097  -20.0518   11.5762 N   0  0  0  0  0  0  0  0  0  0  0  0
   -0.9031  -20.5725   11.8483 C   0  0  0  0  0  0  0  0  0  0  0  0
   -0.8066  -22.9570   12.5279 C   0  0  0  0  0  0  0  0  0  0  0  0
   -1.1980  -23.1602   13.8229 N   0  0  0  0  0  0  0  0  0  0  0  0
   -1.0220  -23.7880   11.6619 O   0  0  0  0  0  0  0  0  0  0  0  0
   -0.7036  -22.4727   14.9529 C   0  0  0  0  0  0  0  0  0  0  0  0
    0.3561  -23.0169   15.6981 C   0  0  0  0  0  0  0  0  0  0  0  0
    0.8044  -22.2987   16.7956 C   0  0  0  0  0  0  0  0  0  0  0  0
   -1.2897  -21.3052   15.2552 N   0  0  0  0  0  0  0  0  0  0  0  0
   -0.8237  -20.6409   16.3280 C   0  0  0  0  0  0  0  0  0  0  0  0
    0.2134  -21.0954   17.1222 C   0  0  0  0  0  0  0  0  0  0  0  0
   -2.1679  -24.2312   14.1138 C   0  0  0  0  0  0  0  0  0  0  0  0
   -3.5349  -23.6721   14.4763 C   0  0  0  0  0  0  0  0  0  0  0  0
   -4.0591  -22.6377   13.4975 C   0  0  0  0  0  0  0  0  0  0  0  0
   -4.3837  -23.0257   12.3503 O   0  0  0  0  0  0  0  0  0  0  0  0
   -4.1316  -21.4493   13.8883 O   0  0  0  0  0  0  0  0  0  0  0  0
   -3.8723  -21.2263   14.7606 H   0  0  0  0  0  0  0  0  0  0  0  0
    4.4993  -18.0027   10.9527 C   0  0  0  0  0  0  0  0  0  0  0  0
    5.1077  -18.4568    9.7129 N   0  0  0  0  0  0  0  0  0  0  0  0
    5.6757  -19.2607    9.7312 H   0  0  0  0  0  0  0  0  0  0  0  0
    5.7325  -18.1022    7.4210 C   0  0  0  0  0  0  0  0  0  0  0  0
    3.7241  -16.2096    7.1592 C   0  0  0  0  0  0  0  0  0  0  0  0
    4.9196  -17.8037    8.5094 C   0  0  0  0  0  0  0  0  0  0  0  0
    3.8954  -16.8718    8.3615 C   0  0  0  0  0  0  0  0  0  0  0  0
    5.5614  -17.4328    6.2232 C   0  0  0  0  0  0  0  0  0  0  0  0
    4.5307  -16.5102    6.0665 C   0  0  0  0  0  0  0  0  0  0  0  0
    4.3334  -15.8175    4.7777 C   0  0  0  0  0  0  0  0  0  0  0  0
    4.3535  -14.5060    4.7331 N   0  0  0  0  0  0  0  0  0  0  0  0
    4.1358  -16.5145    3.6858 N   0  0  0  0  0  0  0  0  0  0  0  0
    4.2223  -14.0405    3.8756 H   0  0  0  0  0  0  0  0  0  0  0  0
    4.4998  -13.9876    5.5572 H   0  0  0  0  0  0  0  0  0  0  0  0
    4.1217  -17.4981    3.7254 H   0  0  0  0  0  0  0  0  0  0  0  0
 23 22  2  0  0  0
 24 22  1  0  0  0
 22 21  1  0  0  0
 21 20  1  0  0  0
 20 12  1  0  0  0
 15 16  2  0  0  0
 15 14  1  0  0  0
 16 19  1  0  0  0
 13 11  2  0  0  0
 12 14  1  0  0  0
 12 11  1  0  0  0
 14 17  2  0  0  0
 11  6  1  0  0  0
 19 18  2  0  0  0
 17 18  1  0  0  0
  3  6  2  0  0  0
  3  8  1  0  0  0
  6 10  1  0  0  0
  8  9  1  0  0  0
  8  7  2  0  0  0
 10  2  2  0  0  0
  9  4  2  0  0  0
 29 33  2  0  0  0
 29 31  1  0  0  0
 33 34  1  0  0  0
  7  2  1  0  0  0
  7  1  1  0  0  0
 27 31  1  0  0  0
 27 26  1  0  0  0
 31 32  2  0  0  0
  4  1  1  0  0  0
  4 26  1  0  0  0
 37 35  2  0  0  0
 34 35  1  0  0  0
 34 30  2  0  0  0
 35 36  1  0  0  0
  1  5  1  0  0  0
 32 30  1  0  0  0
 27 28  1  0  0  0
 24 25  1  0  0  0
 36 38  1  0  0  0
 36 39  1  0  0  0
 37 40  1  0  0  0
M  END
> <minimizedAffinity>
-9.46453

$$$$
4YHO_4CC_H_301


 40 43  0  0  0  0  0  0  0  0999 V2000
    1.8638  -19.5932   11.4211 N   0  0  0  0  0  0  0  0  0  0  0  0
    0.9912  -21.7473   12.4431 C   0  0  0  0  0  0  0  0  0  0  0  0
   -1.2249  -20.1241   13.0932 C   0  0  0  0  0  0  0  0  0  0  0  0
    1.2608  -18.3201   11.3690 C   0  0  0  0  0  0  0  0  0  0  0  0
    3.1630  -20.0338   10.8999 C   0  0  0  0  0  0  0  0  0  0  0  0
   -1.1968  -21.4741   13.4526 C   0  0  0  0  0  0  0  0  0  0  0  0
    0.9551  -20.4029   12.0925 C   0  0  0  0  0  0  0  0  0  0  0  0
   -0.1303  -19.5878   12.4063 C   0  0  0  0  0  0  0  0  0  0  0  0
    0.0793  -18.2865   11.9446 N   0  0  0  0  0  0  0  0  0  0  0  0
   -0.0964  -22.2668   13.1226 C   0  0  0  0  0  0  0  0  0  0  0  0
   -2.3349  -22.1131   14.1821 C   0  0  0  0  0  0  0  0  0  0  0  0
   -3.3201  -22.7624   13.4898 N   0  0  0  0  0  0  0  0  0  0  0  0
   -2.3488  -22.0529   15.3999 O   0  0  0  0  0  0  0  0  0  0  0  0
   -3.6124  -22.5974   12.1182 C   0  0  0  0  0  0  0  0  0  0  0  0
   -3.2719  -23.6061   11.2011 C   0  0  0  0  0  0  0  0  0  0  0  0
   -3.5848  -23.3937    9.8676 C   0  0  0  0  0  0  0  0  0  0  0  0
   -4.2184  -21.4556   11.7618 N   0  0  0  0  0  0  0  0  0  0  0  0
   -4.5042  -21.2903   10.4578 C   0  0  0  0  0  0  0  0  0  0  0  0
   -4.2083  -22.2247    9.4820 C   0  0  0  0  0  0  0  0  0  0  0  0
   -4.2236  -23.6698   14.2198 C   0  0  0  0  0  0  0  0  0  0  0  0
   -5.6854  -23.3471   13.9522 C   0  0  0  0  0  0  0  0  0  0  0  0
   -6.1720  -22.0779   14.6269 C   0  0  0  0  0  0  0  0  0  0  0  0
   -6.5281  -22.1500   15.8270 O   0  0  0  0  0  0  0  0  0  0  0  0
   -6.1983  -21.0277   13.9440 O   0  0  0  0  0  0  0  0  0  0  0  0
   -5.9174  -21.0430   13.0502 H   0  0  0  0  0  0  0  0  0  0  0  0
    1.8979  -17.0863   10.7187 C   0  0  0  0  0  0  0  0  0  0  0  0
    3.1000  -17.4731    9.9984 N   0  0  0  0  0  0  0  0  0  0  0  0
    3.7401  -18.0790   10.4370 H   0  0  0  0  0  0  0  0  0  0  0  0
    4.6124  -17.2983    8.1408 C   0  0  0  0  0  0  0  0  0  0  0  0
    2.7130  -15.8636    6.7204 C   0  0  0  0  0  0  0  0  0  0  0  0
    3.3791  -17.0231    8.7217 C   0  0  0  0  0  0  0  0  0  0  0  0
    2.4205  -16.3257    7.9910 C   0  0  0  0  0  0  0  0  0  0  0  0
    4.9024  -16.8286    6.8730 C   0  0  0  0  0  0  0  0  0  0  0  0
    3.9429  -16.1425    6.1335 C   0  0  0  0  0  0  0  0  0  0  0  0
    4.2462  -15.6665    4.7693 C   0  0  0  0  0  0  0  0  0  0  0  0
    4.5395  -14.4028    4.5703 N   0  0  0  0  0  0  0  0  0  0  0  0
    4.2179  -16.5062    3.7637 N   0  0  0  0  0  0  0  0  0  0  0  0
    4.7423  -14.0816    3.6620 H   0  0  0  0  0  0  0  0  0  0  0  0
    4.5567  -13.7760    5.3293 H   0  0  0  0  0  0  0  0  0  0  0  0
    3.9972  -17.4530    3.9191 H   0  0  0  0  0  0  0  0  0  0  0  0
 23 22  2  0  0  0
 24 22  1  0  0  0
 22 21  1  0  0  0
 21 20  1  0  0  0
 20 12  1  0  0  0
 15 16  2  0  0  0
 15 14  1  0  0  0
 16 19  1  0  0  0
 13 11  2  0  0  0
 12 14  1  0  0  0
 12 11  1  0  0  0
 14 17  2  0  0  0
 11  6  1  0  0  0
 19 18  2  0  0  0
 17 18  1  0  0  0
  3  6  2  0  0  0
  3  8  1  0  0  0
  6 10  1  0  0  0
  8  9  1  0  0  0
  8  7  2  0  0  0
 10  2  2  0  0  0
  9  4  2  0  0  0
 29 33  2  0  0  0
 29 31  1  0  0  0
 33 34  1  0  0  0
  7  2  1  0  0  0
  7  1  1  0  0  0
 27 31  1  0  0  0
 27 26  1  0  0  0
 31 32  2  0  0  0
  4  1  1  0  0  0
  4 26  1  0  0  0
 37 35  2  0  0  0
 34 35  1  0  0  0
 34 30  2  0  0  0
 35 36  1  0  0  0
  1  5  1  0  0  0
 32 30  1  0  0  0
 27 28  1  0  0  0
 24 25  1  0  0  0
 36 38  1  0  0  0
 36 39  1  0  0  0
 37 40  1  0  0  0
M  END
> <minimizedAffinity>
-9.05696

$$$$
4YHO_4CC_H_301


 40 43  0  0  0  0  0  0  0  0999 V2000
    1.9781  -19.5898   11.3659 N   0  0  0  0  0  0  0  0  0  0  0  0
    1.3173  -21.8007   12.4246 C   0  0  0  0  0  0  0  0  0  0  0  0
   -0.9967  -20.3557   13.1496 C   0  0  0  0  0  0  0  0  0  0  0  0
    1.2739  -18.3691   11.3321 C   0  0  0  0  0  0  0  0  0  0  0  0
    3.2889  -19.9284   10.7996 C   0  0  0  0  0  0  0  0  0  0  0  0
   -0.8481  -21.6971   13.5114 C   0  0  0  0  0  0  0  0  0  0  0  0
    1.1615  -20.4655   12.0719 C   0  0  0  0  0  0  0  0  0  0  0  0
    0.0263  -19.7377   12.4223 C   0  0  0  0  0  0  0  0  0  0  0  0
    0.1147  -18.4265   11.9497 N   0  0  0  0  0  0  0  0  0  0  0  0
    0.2996  -22.4014   13.1442 C   0  0  0  0  0  0  0  0  0  0  0  0
   -1.9049  -22.4207   14.2831 C   0  0  0  0  0  0  0  0  0  0  0  0
   -2.8697  -23.1357   13.6279 N   0  0  0  0  0  0  0  0  0  0  0  0
   -1.8707  -22.3682   15.5009 O   0  0  0  0  0  0  0  0  0  0  0  0
   -3.2318  -22.9847   12.2714 C   0  0  0  0  0  0  0  0  0  0  0  0
   -2.6697  -23.8261   11.2965 C   0  0  0  0  0  0  0  0  0  0  0  0
   -3.0629  -23.6366    9.9809 C   0  0  0  0  0  0  0  0  0  0  0  0
   -4.1194  -22.0211   11.9857 N   0  0  0  0  0  0  0  0  0  0  0  0
   -4.4735  -21.8715   10.6966 C   0  0  0  0  0  0  0  0  0  0  0  0
   -3.9750  -22.6498    9.6677 C   0  0  0  0  0  0  0  0  0  0  0  0
   -3.6733  -24.1100   14.3879 C   0  0  0  0  0  0  0  0  0  0  0  0
   -3.0635  -25.5025   14.3428 C   0  0  0  0  0  0  0  0  0  0  0  0
   -2.1462  -25.8138   15.5109 C   0  0  0  0  0  0  0  0  0  0  0  0
   -0.9131  -25.8693   15.2910 O   0  0  0  0  0  0  0  0  0  0  0  0
   -2.6735  -26.0062   16.6312 O   0  0  0  0  0  0  0  0  0  0  0  0
   -3.6039  -25.9497   16.7270 H   0  0  0  0  0  0  0  0  0  0  0  0
    1.7868  -17.0921   10.6559 C   0  0  0  0  0  0  0  0  0  0  0  0
    3.0721  -17.3487   10.0266 N   0  0  0  0  0  0  0  0  0  0  0  0
    3.7628  -17.8276   10.5393 H   0  0  0  0  0  0  0  0  0  0  0  0
    2.4040  -16.2732    7.9856 C   0  0  0  0  0  0  0  0  0  0  0  0
    4.8989  -16.7849    6.8912 C   0  0  0  0  0  0  0  0  0  0  0  0
    3.3618  -16.9465    8.7364 C   0  0  0  0  0  0  0  0  0  0  0  0
    4.6218  -17.1751    8.1890 C   0  0  0  0  0  0  0  0  0  0  0  0
    2.6837  -15.8910    6.6864 C   0  0  0  0  0  0  0  0  0  0  0  0
    3.9458  -16.1055    6.1395 C   0  0  0  0  0  0  0  0  0  0  0  0
    4.2500  -15.6712    4.7616 C   0  0  0  0  0  0  0  0  0  0  0  0
    4.5957  -14.4261    4.5322 N   0  0  0  0  0  0  0  0  0  0  0  0
    4.1701  -16.5292    3.7743 N   0  0  0  0  0  0  0  0  0  0  0  0
    4.7992  -14.1328    3.6147 H   0  0  0  0  0  0  0  0  0  0  0  0
    4.6514  -13.7853    5.2776 H   0  0  0  0  0  0  0  0  0  0  0  0
    3.9103  -17.4619    3.9525 H   0  0  0  0  0  0  0  0  0  0  0  0
 23 22  2  0  0  0
 24 22  1  0  0  0
 22 21  1  0  0  0
 21 20  1  0  0  0
 20 12  1  0  0  0
 15 16  2  0  0  0
 15 14  1  0  0  0
 16 19  1  0  0  0
 13 11  2  0  0  0
 12 14  1  0  0  0
 12 11  1  0  0  0
 14 17  2  0  0  0
 11  6  1  0  0  0
 19 18  2  0  0  0
 17 18  1  0  0  0
  3  6  2  0  0  0
  3  8  1  0  0  0
  6 10  1  0  0  0
  8  9  1  0  0  0
  8  7  2  0  0  0
 10  2  2  0  0  0
  9  4  2  0  0  0
 29 33  2  0  0  0
 29 31  1  0  0  0
 33 34  1  0  0  0
  7  2  1  0  0  0
  7  1  1  0  0  0
 27 31  1  0  0  0
 27 26  1  0  0  0
 31 32  2  0  0  0
  4  1  1  0  0  0
  4 26  1  0  0  0
 37 35  2  0  0  0
 34 35  1  0  0  0
 34 30  2  0  0  0
 35 36  1  0  0  0
  1  5  1  0  0  0
 32 30  1  0  0  0
 27 28  1  0  0  0
 24 25  1  0  0  0
 36 38  1  0  0  0
 36 39  1  0  0  0
 37 40  1  0  0  0
M  END
> <minimizedAffinity>
-8.77607

$$$$
4YHO_4CC_H_301


 40 43  0  0  0  0  0  0  0  0999 V2000
    1.1232  -18.7528   11.2499 N   0  0  0  0  0  0  0  0  0  0  0  0
   -1.0791  -19.7423   12.0351 C   0  0  0  0  0  0  0  0  0  0  0  0
    0.4610  -22.0990   12.2409 C   0  0  0  0  0  0  0  0  0  0  0  0
    2.3787  -19.3752   11.0969 C   0  0  0  0  0  0  0  0  0  0  0  0
    0.7341  -17.3600   11.0004 C   0  0  0  0  0  0  0  0  0  0  0  0
   -0.8966  -22.1003   12.5714 C   0  0  0  0  0  0  0  0  0  0  0  0
    0.2711  -19.7518   11.7060 C   0  0  0  0  0  0  0  0  0  0  0  0
    1.0453  -20.9063   11.8011 C   0  0  0  0  0  0  0  0  0  0  0  0
    2.3631  -20.6505   11.4158 N   0  0  0  0  0  0  0  0  0  0  0  0
   -1.6465  -20.9276   12.4682 C   0  0  0  0  0  0  0  0  0  0  0  0
   -1.5830  -23.3380   13.0539 C   0  0  0  0  0  0  0  0  0  0  0  0
   -1.7257  -23.5695   14.3946 N   0  0  0  0  0  0  0  0  0  0  0  0
   -2.0214  -24.1175   12.2249 O   0  0  0  0  0  0  0  0  0  0  0  0
   -0.9725  -22.9616   15.4227 C   0  0  0  0  0  0  0  0  0  0  0  0
   -1.0900  -21.5811   15.6573 C   0  0  0  0  0  0  0  0  0  0  0  0
   -0.3305  -21.0369   16.6811 C   0  0  0  0  0  0  0  0  0  0  0  0
   -0.1684  -23.7616   16.1377 N   0  0  0  0  0  0  0  0  0  0  0  0
    0.5509  -23.1925   17.1218 C   0  0  0  0  0  0  0  0  0  0  0  0
    0.5029  -21.8445   17.4275 C   0  0  0  0  0  0  0  0  0  0  0  0
   -2.6917  -24.5888   14.8422 C   0  0  0  0  0  0  0  0  0  0  0  0
   -4.1226  -24.0780   14.7771 C   0  0  0  0  0  0  0  0  0  0  0  0
   -5.0714  -24.7728   15.7362 C   0  0  0  0  0  0  0  0  0  0  0  0
   -4.6122  -25.1672   16.8343 O   0  0  0  0  0  0  0  0  0  0  0  0
   -6.2617  -24.9211   15.3739 O   0  0  0  0  0  0  0  0  0  0  0  0
   -6.5402  -24.6019   14.5382 H   0  0  0  0  0  0  0  0  0  0  0  0
    3.6446  -18.6620   10.6071 C   0  0  0  0  0  0  0  0  0  0  0  0
    3.3035  -17.3423   10.1015 N   0  0  0  0  0  0  0  0  0  0  0  0
    2.8809  -16.6962   10.7125 H   0  0  0  0  0  0  0  0  0  0  0  0
    2.5924  -16.2388    8.0903 C   0  0  0  0  0  0  0  0  0  0  0  0
    4.9995  -16.8845    6.8767 C   0  0  0  0  0  0  0  0  0  0  0  0
    3.5496  -16.9595    8.7965 C   0  0  0  0  0  0  0  0  0  0  0  0
    4.7671  -17.2558    8.1887 C   0  0  0  0  0  0  0  0  0  0  0  0
    2.8269  -15.8756    6.7768 C   0  0  0  0  0  0  0  0  0  0  0  0
    4.0473  -16.1578    6.1693 C   0  0  0  0  0  0  0  0  0  0  0  0
    4.3051  -15.7442    4.7757 C   0  0  0  0  0  0  0  0  0  0  0  0
    4.3729  -16.6506    3.8289 N   0  0  0  0  0  0  0  0  0  0  0  0
    4.4683  -14.4755    4.4911 N   0  0  0  0  0  0  0  0  0  0  0  0
    4.5446  -16.3786    2.8985 H   0  0  0  0  0  0  0  0  0  0  0  0
    4.2520  -17.6025    4.0492 H   0  0  0  0  0  0  0  0  0  0  0  0
    4.4164  -13.8001    5.2055 H   0  0  0  0  0  0  0  0  0  0  0  0
 23 22  2  0  0  0
 24 22  1  0  0  0
 22 21  1  0  0  0
 21 20  1  0  0  0
 20 12  1  0  0  0
 15 16  2  0  0  0
 15 14  1  0  0  0
 16 19  1  0  0  0
 13 11  2  0  0  0
 12 14  1  0  0  0
 12 11  1  0  0  0
 14 17  2  0  0  0
 11  6  1  0  0  0
 19 18  2  0  0  0
 17 18  1  0  0  0
  3  6  2  0  0  0
  3  8  1  0  0  0
  6 10  1  0  0  0
  8  9  1  0  0  0
  8  7  2  0  0  0
 10  2  2  0  0  0
  9  4  2  0  0  0
 29 33  2  0  0  0
 29 31  1  0  0  0
 33 34  1  0  0  0
  7  2  1  0  0  0
  7  1  1  0  0  0
 27 31  1  0  0  0
 27 26  1  0  0  0
 31 32  2  0  0  0
  4  1  1  0  0  0
  4 26  1  0  0  0
 37 35  2  0  0  0
 34 35  1  0  0  0
 34 30  2  0  0  0
 35 36  1  0  0  0
  1  5  1  0  0  0
 32 30  1  0  0  0
 27 28  1  0  0  0
 24 25  1  0  0  0
 36 38  1  0  0  0
 36 39  1  0  0  0
 37 40  1  0  0  0
M  END
> <minimizedAffinity>
-8.68024

$$$$
4YHO_4CC_H_301


 40 43  0  0  0  0  0  0  0  0999 V2000
    2.1014  -18.4626   11.0729 N   0  0  0  0  0  0  0  0  0  0  0  0
   -0.1097  -19.6445   11.4726 C   0  0  0  0  0  0  0  0  0  0  0  0
    1.5745  -21.8071   12.1474 C   0  0  0  0  0  0  0  0  0  0  0  0
    3.4155  -18.9520   11.2173 C   0  0  0  0  0  0  0  0  0  0  0  0
    1.6399  -17.1345   10.6527 C   0  0  0  0  0  0  0  0  0  0  0  0
    0.1845  -21.9390   12.2006 C   0  0  0  0  0  0  0  0  0  0  0  0
    1.2739  -19.5240   11.4202 C   0  0  0  0  0  0  0  0  0  0  0  0
    2.1193  -20.5815   11.7491 C   0  0  0  0  0  0  0  0  0  0  0  0
    3.4573  -20.2040   11.6164 N   0  0  0  0  0  0  0  0  0  0  0  0
   -0.6373  -20.8612   11.8673 C   0  0  0  0  0  0  0  0  0  0  0  0
   -0.4642  -23.2181   12.6236 C   0  0  0  0  0  0  0  0  0  0  0  0
   -0.9153  -23.3716   13.9059 N   0  0  0  0  0  0  0  0  0  0  0  0
   -0.5922  -24.1039   11.7954 O   0  0  0  0  0  0  0  0  0  0  0  0
   -0.5166  -22.6008   15.0198 C   0  0  0  0  0  0  0  0  0  0  0  0
   -1.2277  -21.4376   15.3600 C   0  0  0  0  0  0  0  0  0  0  0  0
   -0.7953  -20.7208   16.4648 C   0  0  0  0  0  0  0  0  0  0  0  0
    0.5465  -23.0391   15.7095 N   0  0  0  0  0  0  0  0  0  0  0  0
    0.9323  -22.3136   16.7746 C   0  0  0  0  0  0  0  0  0  0  0  0
    0.2970  -21.1563   17.1867 C   0  0  0  0  0  0  0  0  0  0  0  0
   -1.8475  -24.4732   14.2056 C   0  0  0  0  0  0  0  0  0  0  0  0
   -1.1116  -25.7691   14.5086 C   0  0  0  0  0  0  0  0  0  0  0  0
   -1.1058  -26.1478   15.9781 C   0  0  0  0  0  0  0  0  0  0  0  0
   -2.0981  -26.7675   16.4291 O   0  0  0  0  0  0  0  0  0  0  0  0
   -0.1112  -25.8128   16.6626 O   0  0  0  0  0  0  0  0  0  0  0  0
    0.5985  -25.3500   16.2625 H   0  0  0  0  0  0  0  0  0  0  0  0
    4.6805  -18.1312   10.9396 C   0  0  0  0  0  0  0  0  0  0  0  0
    5.2819  -18.5594    9.6872 N   0  0  0  0  0  0  0  0  0  0  0  0
    5.8662  -19.3517    9.6894 H   0  0  0  0  0  0  0  0  0  0  0  0
    5.8068  -18.2338    7.3662 C   0  0  0  0  0  0  0  0  0  0  0  0
    3.8814  -16.2464    7.2024 C   0  0  0  0  0  0  0  0  0  0  0  0
    5.0651  -17.8971    8.4935 C   0  0  0  0  0  0  0  0  0  0  0  0
    4.0809  -16.9168    8.3957 C   0  0  0  0  0  0  0  0  0  0  0  0
    5.6081  -17.5562    6.1773 C   0  0  0  0  0  0  0  0  0  0  0  0
    4.6165  -16.5849    6.0710 C   0  0  0  0  0  0  0  0  0  0  0  0
    4.3881  -15.8826    4.7925 C   0  0  0  0  0  0  0  0  0  0  0  0
    4.2724  -16.5724    3.6819 N   0  0  0  0  0  0  0  0  0  0  0  0
    4.3056  -14.5750    4.7718 N   0  0  0  0  0  0  0  0  0  0  0  0
    4.1201  -16.1077    2.8275 H   0  0  0  0  0  0  0  0  0  0  0  0
    4.3380  -17.5545    3.7033 H   0  0  0  0  0  0  0  0  0  0  0  0
    4.3931  -14.0629    5.6081 H   0  0  0  0  0  0  0  0  0  0  0  0
 23 22  2  0  0  0
 24 22  1  0  0  0
 22 21  1  0  0  0
 21 20  1  0  0  0
 20 12  1  0  0  0
 15 16  2  0  0  0
 15 14  1  0  0  0
 16 19  1  0  0  0
 13 11  2  0  0  0
 12 14  1  0  0  0
 12 11  1  0  0  0
 14 17  2  0  0  0
 11  6  1  0  0  0
 19 18  2  0  0  0
 17 18  1  0  0  0
  3  6  2  0  0  0
  3  8  1  0  0  0
  6 10  1  0  0  0
  8  9  1  0  0  0
  8  7  2  0  0  0
 10  2  2  0  0  0
  9  4  2  0  0  0
 29 33  2  0  0  0
 29 31  1  0  0  0
 33 34  1  0  0  0
  7  2  1  0  0  0
  7  1  1  0  0  0
 27 31  1  0  0  0
 27 26  1  0  0  0
 31 32  2  0  0  0
  4  1  1  0  0  0
  4 26  1  0  0  0
 37 35  2  0  0  0
 34 35  1  0  0  0
 34 30  2  0  0  0
 35 36  1  0  0  0
  1  5  1  0  0  0
 32 30  1  0  0  0
 27 28  1  0  0  0
 24 25  1  0  0  0
 36 38  1  0  0  0
 36 39  1  0  0  0
 37 40  1  0  0  0
M  END
> <minimizedAffinity>
-8.62639

$$$$
4YHO_4CC_H_301


 40 43  0  0  0  0  0  0  0  0999 V2000
    4.8153  -22.6072   12.4954 N   0  0  0  0  0  0  0  0  0  0  0  0
    3.1908  -24.3263   13.4182 C   0  0  0  0  0  0  0  0  0  0  0  0
    1.2696  -22.4247   12.6050 C   0  0  0  0  0  0  0  0  0  0  0  0
    4.5513  -21.3555   11.9033 C   0  0  0  0  0  0  0  0  0  0  0  0
    6.1004  -23.2705   12.7449 C   0  0  0  0  0  0  0  0  0  0  0  0
    0.8795  -23.6225   13.2095 C   0  0  0  0  0  0  0  0  0  0  0  0
    3.5690  -23.1308   12.8187 C   0  0  0  0  0  0  0  0  0  0  0  0
    2.6338  -22.1814   12.4122 C   0  0  0  0  0  0  0  0  0  0  0  0
    3.2682  -21.0763   11.8406 N   0  0  0  0  0  0  0  0  0  0  0  0
    1.8391  -24.5560   13.6043 C   0  0  0  0  0  0  0  0  0  0  0  0
   -0.5613  -23.9493   13.4401 C   0  0  0  0  0  0  0  0  0  0  0  0
   -1.3073  -23.2022   14.3100 N   0  0  0  0  0  0  0  0  0  0  0  0
   -1.0495  -24.8811   12.8234 O   0  0  0  0  0  0  0  0  0  0  0  0
   -0.7982  -22.3635   15.3256 C   0  0  0  0  0  0  0  0  0  0  0  0
   -0.9693  -20.9715   15.2384 C   0  0  0  0  0  0  0  0  0  0  0  0
   -0.4528  -20.1958   16.2645 C   0  0  0  0  0  0  0  0  0  0  0  0
   -0.1658  -22.9628   16.3448 N   0  0  0  0  0  0  0  0  0  0  0  0
    0.3199  -22.1727   17.3191 C   0  0  0  0  0  0  0  0  0  0  0  0
    0.2014  -20.7947   17.3214 C   0  0  0  0  0  0  0  0  0  0  0  0
   -2.7766  -23.3092   14.2614 C   0  0  0  0  0  0  0  0  0  0  0  0
   -3.3903  -22.2514   13.3574 C   0  0  0  0  0  0  0  0  0  0  0  0
   -3.6020  -22.7086   11.9260 C   0  0  0  0  0  0  0  0  0  0  0  0
   -3.6857  -21.8305   11.0350 O   0  0  0  0  0  0  0  0  0  0  0  0
   -3.6894  -23.9406   11.7143 O   0  0  0  0  0  0  0  0  0  0  0  0
   -3.6178  -24.5446   12.4270 H   0  0  0  0  0  0  0  0  0  0  0  0
    5.6308  -20.3990   11.3829 C   0  0  0  0  0  0  0  0  0  0  0  0
    5.1674  -19.0252   11.4917 N   0  0  0  0  0  0  0  0  0  0  0  0
    5.2879  -18.5516   12.3463 H   0  0  0  0  0  0  0  0  0  0  0  0
    3.2309  -17.9744   10.5356 C   0  0  0  0  0  0  0  0  0  0  0  0
    4.6758  -17.3792    8.2460 C   0  0  0  0  0  0  0  0  0  0  0  0
    4.5644  -18.3585   10.4419 C   0  0  0  0  0  0  0  0  0  0  0  0
    5.2907  -18.0313    9.2996 C   0  0  0  0  0  0  0  0  0  0  0  0
    2.6191  -17.3285    9.4770 C   0  0  0  0  0  0  0  0  0  0  0  0
    3.3443  -16.9875    8.3386 C   0  0  0  0  0  0  0  0  0  0  0  0
    2.6950  -16.2732    7.2215 C   0  0  0  0  0  0  0  0  0  0  0  0
    1.3958  -16.0878    7.2340 N   0  0  0  0  0  0  0  0  0  0  0  0
    3.4177  -15.8308    6.2219 N   0  0  0  0  0  0  0  0  0  0  0  0
    0.9593  -15.6119    6.4909 H   0  0  0  0  0  0  0  0  0  0  0  0
    0.8577  -16.4247    7.9865 H   0  0  0  0  0  0  0  0  0  0  0  0
    4.3919  -15.9728    6.2180 H   0  0  0  0  0  0  0  0  0  0  0  0
 23 22  2  0  0  0
 24 22  1  0  0  0
 22 21  1  0  0  0
 21 20  1  0  0  0
 20 12  1  0  0  0
 15 16  2  0  0  0
 15 14  1  0  0  0
 16 19  1  0  0  0
 13 11  2  0  0  0
 12 14  1  0  0  0
 12 11  1  0  0  0
 14 17  2  0  0  0
 11  6  1  0  0  0
 19 18  2  0  0  0
 17 18  1  0  0  0
  3  6  2  0  0  0
  3  8  1  0  0  0
  6 10  1  0  0  0
  8  9  1  0  0  0
  8  7  2  0  0  0
 10  2  2  0  0  0
  9  4  2  0  0  0
 29 33  2  0  0  0
 29 31  1  0  0  0
 33 34  1  0  0  0
  7  2  1  0  0  0
  7  1  1  0  0  0
 27 31  1  0  0  0
 27 26  1  0  0  0
 31 32  2  0  0  0
  4  1  1  0  0  0
  4 26  1  0  0  0
 37 35  2  0  0  0
 34 35  1  0  0  0
 34 30  2  0  0  0
 35 36  1  0  0  0
  1  5  1  0  0  0
 32 30  1  0  0  0
 27 28  1  0  0  0
 24 25  1  0  0  0
 36 38  1  0  0  0
 36 39  1  0  0  0
 37 40  1  0  0  0
M  END
> <minimizedAffinity>
-7.92343

$$$$
4YHO_4CC_H_301


 40 43  0  0  0  0  0  0  0  0999 V2000
   -1.3453  -24.6021   11.5467 N   0  0  0  0  0  0  0  0  0  0  0  0
   -1.3042  -26.4839    9.8429 C   0  0  0  0  0  0  0  0  0  0  0  0
   -1.2935  -24.3418    8.0045 C   0  0  0  0  0  0  0  0  0  0  0  0
   -1.3526  -23.2079   11.3386 C   0  0  0  0  0  0  0  0  0  0  0  0
   -1.3585  -25.3594   12.8037 C   0  0  0  0  0  0  0  0  0  0  0  0
   -1.2786  -25.6664    7.5599 C   0  0  0  0  0  0  0  0  0  0  0  0
   -1.3217  -25.1632   10.2752 C   0  0  0  0  0  0  0  0  0  0  0  0
   -1.3175  -24.0945    9.3813 C   0  0  0  0  0  0  0  0  0  0  0  0
   -1.3366  -22.8775   10.0663 N   0  0  0  0  0  0  0  0  0  0  0  0
   -1.2811  -26.7167    8.4792 C   0  0  0  0  0  0  0  0  0  0  0  0
   -1.2465  -26.0021    6.1032 C   0  0  0  0  0  0  0  0  0  0  0  0
   -2.3304  -25.7398    5.3109 N   0  0  0  0  0  0  0  0  0  0  0  0
   -0.2300  -26.4959    5.6451 O   0  0  0  0  0  0  0  0  0  0  0  0
   -3.6505  -25.5218    5.7624 C   0  0  0  0  0  0  0  0  0  0  0  0
   -4.4539  -26.6121    6.1370 C   0  0  0  0  0  0  0  0  0  0  0  0
   -5.7403  -26.3407    6.5760 C   0  0  0  0  0  0  0  0  0  0  0  0
   -4.0708  -24.2494    5.8116 N   0  0  0  0  0  0  0  0  0  0  0  0
   -5.3258  -24.0309    6.2436 C   0  0  0  0  0  0  0  0  0  0  0  0
   -6.1904  -25.0377    6.6331 C   0  0  0  0  0  0  0  0  0  0  0  0
   -2.1605  -25.7469    3.8468 C   0  0  0  0  0  0  0  0  0  0  0  0
   -1.4860  -24.4774    3.3503 C   0  0  0  0  0  0  0  0  0  0  0  0
   -0.2525  -24.7240    2.5015 C   0  0  0  0  0  0  0  0  0  0  0  0
   -0.1157  -24.0488    1.4539 O   0  0  0  0  0  0  0  0  0  0  0  0
    0.5588  -25.5958    2.8913 O   0  0  0  0  0  0  0  0  0  0  0  0
    0.3961  -26.0654    3.6857 H   0  0  0  0  0  0  0  0  0  0  0  0
   -1.3807  -22.1650   12.4623 C   0  0  0  0  0  0  0  0  0  0  0  0
   -0.0595  -21.5811   12.6271 N   0  0  0  0  0  0  0  0  0  0  0  0
    0.6177  -22.0797   13.1390 H   0  0  0  0  0  0  0  0  0  0  0  0
   -0.6486  -19.3202   12.0705 C   0  0  0  0  0  0  0  0  0  0  0  0
    1.8980  -18.8982   11.0600 C   0  0  0  0  0  0  0  0  0  0  0  0
    0.2826  -20.3531   12.0931 C   0  0  0  0  0  0  0  0  0  0  0  0
    1.5681  -20.1244   11.6087 C   0  0  0  0  0  0  0  0  0  0  0  0
   -0.3159  -18.0983   11.5150 C   0  0  0  0  0  0  0  0  0  0  0  0
    0.9716  -17.8607   11.0417 C   0  0  0  0  0  0  0  0  0  0  0  0
    1.3316  -16.5460   10.4745 C   0  0  0  0  0  0  0  0  0  0  0  0
    2.0262  -16.4842    9.3626 N   0  0  0  0  0  0  0  0  0  0  0  0
    0.9595  -15.4478   11.0850 N   0  0  0  0  0  0  0  0  0  0  0  0
    2.2682  -15.6093    8.9814 H   0  0  0  0  0  0  0  0  0  0  0  0
    2.3052  -17.3126    8.9098 H   0  0  0  0  0  0  0  0  0  0  0  0
    0.4386  -15.5004   11.9188 H   0  0  0  0  0  0  0  0  0  0  0  0
 23 22  2  0  0  0
 24 22  1  0  0  0
 22 21  1  0  0  0
 21 20  1  0  0  0
 20 12  1  0  0  0
 15 16  2  0  0  0
 15 14  1  0  0  0
 16 19  1  0  0  0
 13 11  2  0  0  0
 12 14  1  0  0  0
 12 11  1  0  0  0
 14 17  2  0  0  0
 11  6  1  0  0  0
 19 18  2  0  0  0
 17 18  1  0  0  0
  3  6  2  0  0  0
  3  8  1  0  0  0
  6 10  1  0  0  0
  8  9  1  0  0  0
  8  7  2  0  0  0
 10  2  2  0  0  0
  9  4  2  0  0  0
 29 33  2  0  0  0
 29 31  1  0  0  0
 33 34  1  0  0  0
  7  2  1  0  0  0
  7  1  1  0  0  0
 27 31  1  0  0  0
 27 26  1  0  0  0
 31 32  2  0  0  0
  4  1  1  0  0  0
  4 26  1  0  0  0
 37 35  2  0  0  0
 34 35  1  0  0  0
 34 30  2  0  0  0
 35 36  1  0  0  0
  1  5  1  0  0  0
 32 30  1  0  0  0
 27 28  1  0  0  0
 24 25  1  0  0  0
 36 38  1  0  0  0
 36 39  1  0  0  0
 37 40  1  0  0  0
M  END
> <minimizedAffinity>
-7.72285

$$$$
4YHO_4CC_H_301


 40 43  0  0  0  0  0  0  0  0999 V2000
   -2.6127  -24.1774   11.8455 N   0  0  0  0  0  0  0  0  0  0  0  0
   -3.1767  -25.9430   10.1104 C   0  0  0  0  0  0  0  0  0  0  0  0
   -1.3603  -24.4653    8.5339 C   0  0  0  0  0  0  0  0  0  0  0  0
   -1.7371  -23.0769   11.7489 C   0  0  0  0  0  0  0  0  0  0  0  0
   -3.4436  -24.6143   12.9734 C   0  0  0  0  0  0  0  0  0  0  0  0
   -1.9939  -25.6002    8.0213 C   0  0  0  0  0  0  0  0  0  0  0  0
   -2.5437  -24.8112   10.6103 C   0  0  0  0  0  0  0  0  0  0  0  0
   -1.6453  -24.0702    9.8455 C   0  0  0  0  0  0  0  0  0  0  0  0
   -1.1501  -22.9878   10.5759 N   0  0  0  0  0  0  0  0  0  0  0  0
   -2.8878  -26.3240    8.8120 C   0  0  0  0  0  0  0  0  0  0  0  0
   -1.7308  -26.0818    6.6303 C   0  0  0  0  0  0  0  0  0  0  0  0
   -2.3285  -25.4685    5.5635 N   0  0  0  0  0  0  0  0  0  0  0  0
   -0.9629  -27.0165    6.4768 O   0  0  0  0  0  0  0  0  0  0  0  0
   -3.4774  -24.6493    5.6186 C   0  0  0  0  0  0  0  0  0  0  0  0
   -4.7564  -25.2306    5.5936 C   0  0  0  0  0  0  0  0  0  0  0  0
   -5.8494  -24.3803    5.6536 C   0  0  0  0  0  0  0  0  0  0  0  0
   -3.2740  -23.3263    5.6972 N   0  0  0  0  0  0  0  0  0  0  0  0
   -4.3621  -22.5375    5.7536 C   0  0  0  0  0  0  0  0  0  0  0  0
   -5.6597  -23.0160    5.7346 C   0  0  0  0  0  0  0  0  0  0  0  0
   -1.7985  -25.7169    4.2108 C   0  0  0  0  0  0  0  0  0  0  0  0
   -1.0413  -24.5134    3.6711 C   0  0  0  0  0  0  0  0  0  0  0  0
    0.0958  -24.0481    4.5618 C   0  0  0  0  0  0  0  0  0  0  0  0
    1.1343  -24.7495    4.6035 O   0  0  0  0  0  0  0  0  0  0  0  0
   -0.0692  -22.9907    5.2134 O   0  0  0  0  0  0  0  0  0  0  0  0
   -0.8717  -22.5132    5.1363 H   0  0  0  0  0  0  0  0  0  0  0  0
   -1.4822  -22.0716   12.8782 C   0  0  0  0  0  0  0  0  0  0  0  0
   -0.1020  -21.6172   12.8326 N   0  0  0  0  0  0  0  0  0  0  0  0
    0.5973  -22.1874   13.2265 H   0  0  0  0  0  0  0  0  0  0  0  0
   -0.6280  -19.3509   12.2360 C   0  0  0  0  0  0  0  0  0  0  0  0
    1.8999  -19.0452   11.1403 C   0  0  0  0  0  0  0  0  0  0  0  0
    0.2666  -20.4156   12.2575 C   0  0  0  0  0  0  0  0  0  0  0  0
    1.5440  -20.2450   11.7296 C   0  0  0  0  0  0  0  0  0  0  0  0
   -0.2697  -18.1557   11.6399 C   0  0  0  0  0  0  0  0  0  0  0  0
    1.0103  -17.9760   11.1229 C   0  0  0  0  0  0  0  0  0  0  0  0
    1.3988  -16.6892   10.5120 C   0  0  0  0  0  0  0  0  0  0  0  0
    2.1848  -16.6779    9.4611 N   0  0  0  0  0  0  0  0  0  0  0  0
    0.9603  -15.5652   11.0234 N   0  0  0  0  0  0  0  0  0  0  0  0
    2.4461  -15.8219    9.0509 H   0  0  0  0  0  0  0  0  0  0  0  0
    2.5132  -17.5255    9.0828 H   0  0  0  0  0  0  0  0  0  0  0  0
    0.3709  -15.5800   11.8119 H   0  0  0  0  0  0  0  0  0  0  0  0
 23 22  2  0  0  0
 24 22  1  0  0  0
 22 21  1  0  0  0
 21 20  1  0  0  0
 20 12  1  0  0  0
 15 16  2  0  0  0
 15 14  1  0  0  0
 16 19  1  0  0  0
 13 11  2  0  0  0
 12 14  1  0  0  0
 12 11  1  0  0  0
 14 17  2  0  0  0
 11  6  1  0  0  0
 19 18  2  0  0  0
 17 18  1  0  0  0
  3  6  2  0  0  0
  3  8  1  0  0  0
  6 10  1  0  0  0
  8  9  1  0  0  0
  8  7  2  0  0  0
 10  2  2  0  0  0
  9  4  2  0  0  0
 29 33  2  0  0  0
 29 31  1  0  0  0
 33 34  1  0  0  0
  7  2  1  0  0  0
  7  1  1  0  0  0
 27 31  1  0  0  0
 27 26  1  0  0  0
 31 32  2  0  0  0
  4  1  1  0  0  0
  4 26  1  0  0  0
 37 35  2  0  0  0
 34 35  1  0  0  0
 34 30  2  0  0  0
 35 36  1  0  0  0
  1  5  1  0  0  0
 32 30  1  0  0  0
 27 28  1  0  0  0
 24 25  1  0  0  0
 36 38  1  0  0  0
 36 39  1  0  0  0
 37 40  1  0  0  0
M  END
> <minimizedAffinity>
-7.70875

$$$$
4YHO_4CC_H_301


 40 43  0  0  0  0  0  0  0  0999 V2000
   -0.4159  -24.5397   11.8580 N   0  0  0  0  0  0  0  0  0  0  0  0
   -1.5267  -26.0881   10.1804 C   0  0  0  0  0  0  0  0  0  0  0  0
   -2.7013  -23.6857    9.2763 C   0  0  0  0  0  0  0  0  0  0  0  0
   -0.5416  -23.1435   12.0053 C   0  0  0  0  0  0  0  0  0  0  0  0
    0.3912  -25.4919   12.6299 C   0  0  0  0  0  0  0  0  0  0  0  0
   -2.9979  -24.9037    8.6593 C   0  0  0  0  0  0  0  0  0  0  0  0
   -1.2402  -24.8721   10.7894 C   0  0  0  0  0  0  0  0  0  0  0  0
   -1.8117  -23.6776   10.3562 C   0  0  0  0  0  0  0  0  0  0  0  0
   -1.3617  -22.6055   11.1299 N   0  0  0  0  0  0  0  0  0  0  0  0
   -2.4082  -26.0843    9.1139 C   0  0  0  0  0  0  0  0  0  0  0  0
   -3.9349  -24.9838    7.4967 C   0  0  0  0  0  0  0  0  0  0  0  0
   -3.4506  -25.1840    6.2331 N   0  0  0  0  0  0  0  0  0  0  0  0
   -5.1314  -24.8831    7.7094 O   0  0  0  0  0  0  0  0  0  0  0  0
   -2.1220  -24.9572    5.8119 C   0  0  0  0  0  0  0  0  0  0  0  0
   -1.5946  -23.6548    5.8219 C   0  0  0  0  0  0  0  0  0  0  0  0
   -0.2841  -23.4897    5.4016 C   0  0  0  0  0  0  0  0  0  0  0  0
   -1.4204  -26.0301    5.4188 N   0  0  0  0  0  0  0  0  0  0  0  0
   -0.1525  -25.8251    5.0189 C   0  0  0  0  0  0  0  0  0  0  0  0
    0.4534  -24.5820    4.9933 C   0  0  0  0  0  0  0  0  0  0  0  0
   -4.3826  -25.6058    5.1720 C   0  0  0  0  0  0  0  0  0  0  0  0
   -4.5443  -24.5353    4.1039 C   0  0  0  0  0  0  0  0  0  0  0  0
   -5.2626  -23.2874    4.5831 C   0  0  0  0  0  0  0  0  0  0  0  0
   -4.7414  -22.1756    4.3295 O   0  0  0  0  0  0  0  0  0  0  0  0
   -6.3350  -23.4377    5.2136 O   0  0  0  0  0  0  0  0  0  0  0  0
   -6.6702  -24.2987    5.3693 H   0  0  0  0  0  0  0  0  0  0  0  0
    0.1879  -22.3161   13.0703 C   0  0  0  0  0  0  0  0  0  0  0  0
    1.3783  -21.7108   12.4956 N   0  0  0  0  0  0  0  0  0  0  0  0
    2.2133  -22.2321   12.4790 H   0  0  0  0  0  0  0  0  0  0  0  0
    0.2823  -19.6013   12.1528 C   0  0  0  0  0  0  0  0  0  0  0  0
    2.4897  -18.6735   10.7562 C   0  0  0  0  0  0  0  0  0  0  0  0
    1.3831  -20.4318   11.9716 C   0  0  0  0  0  0  0  0  0  0  0  0
    2.4988  -19.9484   11.2927 C   0  0  0  0  0  0  0  0  0  0  0  0
    0.2755  -18.3299   11.6090 C   0  0  0  0  0  0  0  0  0  0  0  0
    1.3933  -17.8376   10.9411 C   0  0  0  0  0  0  0  0  0  0  0  0
    1.3933  -16.4696   10.3858 C   0  0  0  0  0  0  0  0  0  0  0  0
    1.8588  -16.2571    9.1772 N   0  0  0  0  0  0  0  0  0  0  0  0
    0.9322  -15.4742   11.1026 N   0  0  0  0  0  0  0  0  0  0  0  0
    1.8604  -15.3463    8.8034 H   0  0  0  0  0  0  0  0  0  0  0  0
    2.2063  -17.0084    8.6443 H   0  0  0  0  0  0  0  0  0  0  0  0
    0.5843  -15.6398   12.0085 H   0  0  0  0  0  0  0  0  0  0  0  0
 23 22  2  0  0  0
 24 22  1  0  0  0
 22 21  1  0  0  0
 21 20  1  0  0  0
 20 12  1  0  0  0
 15 16  2  0  0  0
 15 14  1  0  0  0
 16 19  1  0  0  0
 13 11  2  0  0  0
 12 14  1  0  0  0
 12 11  1  0  0  0
 14 17  2  0  0  0
 11  6  1  0  0  0
 19 18  2  0  0  0
 17 18  1  0  0  0
  3  6  2  0  0  0
  3  8  1  0  0  0
  6 10  1  0  0  0
  8  9  1  0  0  0
  8  7  2  0  0  0
 10  2  2  0  0  0
  9  4  2  0  0  0
 29 33  2  0  0  0
 29 31  1  0  0  0
 33 34  1  0  0  0
  7  2  1  0  0  0
  7  1  1  0  0  0
 27 31  1  0  0  0
 27 26  1  0  0  0
 31 32  2  0  0  0
  4  1  1  0  0  0
  4 26  1  0  0  0
 37 35  2  0  0  0
 34 35  1  0  0  0
 34 30  2  0  0  0
 35 36  1  0  0  0
  1  5  1  0  0  0
 32 30  1  0  0  0
 27 28  1  0  0  0
 24 25  1  0  0  0
 36 38  1  0  0  0
 36 39  1  0  0  0
 37 40  1  0  0  0
M  END
> <minimizedAffinity>
-7.70523

$$$$
