6HRQ_GM5_A_504


 25 27  0  0  0  0  0  0  0  0999 V2000
   44.0804   36.9119   87.7133 C   0  0  0  0  0  0  0  0  0  0  0  0
   44.2677   38.1285   89.4822 N   0  0  0  0  0  0  0  0  0  0  0  0
   42.9684   38.1331   89.1411 N   0  0  0  0  0  0  0  0  0  0  0  0
   42.8511   37.3898   88.0649 N   0  0  0  0  0  0  0  0  0  0  0  0
   44.9867   37.3862   88.6228 C   0  0  0  0  0  0  0  0  0  0  0  0
   44.6334   34.3597   84.3488 C   0  0  0  0  0  0  0  0  0  0  0  0
   45.5617   34.3408   85.3869 C   0  0  0  0  0  0  0  0  0  0  0  0
   45.3867   35.1955   86.4740 C   0  0  0  0  0  0  0  0  0  0  0  0
   44.2807   36.0413   86.5393 C   0  0  0  0  0  0  0  0  0  0  0  0
   43.3574   36.0384   85.4959 C   0  0  0  0  0  0  0  0  0  0  0  0
   43.5374   35.2043   84.4065 C   0  0  0  0  0  0  0  0  0  0  0  0
   46.6882   33.3515   85.3721 C   0  0  0  0  0  0  0  0  0  0  0  0
   46.3425   32.0728   85.5100 N   0  0  0  0  0  0  0  0  0  0  0  0
   47.3143   31.0776   85.6203 O   0  0  0  0  0  0  0  0  0  0  0  0
   47.8590   33.7189   85.2738 O   0  0  0  0  0  0  0  0  0  0  0  0
   45.3896   31.8267   85.5344 H   0  0  0  0  0  0  0  0  0  0  0  0
   48.1958   31.4804   85.5787 H   0  0  0  0  0  0  0  0  0  0  0  0
   44.7709   38.8484   90.6338 C   0  0  0  0  0  0  0  0  0  0  0  0
   43.4686   39.7671   91.4885 S   0  0  0  0  0  0  0  0  0  0  0  0
   43.8810   41.5794   93.5072 C   0  0  0  0  0  0  0  0  0  0  0  0
   44.6692   42.2969   94.3896 C   0  0  0  0  0  0  0  0  0  0  0  0
   46.0406   42.1558   94.3711 C   0  0  0  0  0  0  0  0  0  0  0  0
   45.8523   40.5787   92.5747 C   0  0  0  0  0  0  0  0  0  0  0  0
   44.4710   40.7131   92.5963 C   0  0  0  0  0  0  0  0  0  0  0  0
   46.6298   41.2995   93.4645 C   0  0  0  0  0  0  0  0  0  0  0  0
 11  6  2  0  0  0
 11 10  1  0  0  0
  6  7  1  0  0  0
 10  9  2  0  0  0
 13 14  1  0  0  0
 13 12  1  0  0  0
  7 12  1  0  0  0
  7  8  2  0  0  0
 12 15  2  0  0  0
  9  8  1  0  0  0
  9  1  1  0  0  0
  1  4  1  0  0  0
  1  5  2  0  0  0
  4  3  2  0  0  0
  5  2  1  0  0  0
  3  2  1  0  0  0
  2 18  1  0  0  0
 18 19  1  0  0  0
 19 24  1  0  0  0
 20 24  2  0  0  0
 20 21  1  0  0  0
 24 23  1  0  0  0
 21 22  2  0  0  0
 23 25  2  0  0  0
 22 25  1  0  0  0
 13 16  1  0  0  0
 14 17  1  0  0  0
M  END
> <minimizedAffinity>
-7.81541

$$$$
6HRQ_GM5_A_504


 25 27  0  0  0  0  0  0  0  0999 V2000
   41.4000   35.9680   86.9475 C   0  0  0  0  0  0  0  0  0  0  0  0
   40.3342   36.6909   88.6753 N   0  0  0  0  0  0  0  0  0  0  0  0
   39.8054   35.4964   88.3621 N   0  0  0  0  0  0  0  0  0  0  0  0
   40.4554   35.0523   87.3110 N   0  0  0  0  0  0  0  0  0  0  0  0
   41.3209   37.0171   87.8230 C   0  0  0  0  0  0  0  0  0  0  0  0
   43.9664   35.3186   83.6111 C   0  0  0  0  0  0  0  0  0  0  0  0
   44.2912   34.7651   84.8471 C   0  0  0  0  0  0  0  0  0  0  0  0
   43.4588   35.0012   85.9400 C   0  0  0  0  0  0  0  0  0  0  0  0
   42.2976   35.7586   85.7956 C   0  0  0  0  0  0  0  0  0  0  0  0
   41.9842   36.2953   84.5487 C   0  0  0  0  0  0  0  0  0  0  0  0
   42.8177   36.0782   83.4655 C   0  0  0  0  0  0  0  0  0  0  0  0
   45.4769   33.8568   84.9776 C   0  0  0  0  0  0  0  0  0  0  0  0
   46.6680   34.4523   84.9936 N   0  0  0  0  0  0  0  0  0  0  0  0
   47.8431   33.7001   85.0009 O   0  0  0  0  0  0  0  0  0  0  0  0
   45.3418   32.6344   85.0294 O   0  0  0  0  0  0  0  0  0  0  0  0
   46.7200   35.4354   85.0004 H   0  0  0  0  0  0  0  0  0  0  0  0
   47.6225   32.7555   84.9927 H   0  0  0  0  0  0  0  0  0  0  0  0
   39.8619   37.4799   89.7943 C   0  0  0  0  0  0  0  0  0  0  0  0
   40.5646   39.1462   89.8010 S   0  0  0  0  0  0  0  0  0  0  0  0
   43.2965   39.1857   90.0552 C   0  0  0  0  0  0  0  0  0  0  0  0
   44.4853   38.9408   90.7197 C   0  0  0  0  0  0  0  0  0  0  0  0
   44.4794   38.3213   91.9515 C   0  0  0  0  0  0  0  0  0  0  0  0
   42.0875   38.1756   91.8648 C   0  0  0  0  0  0  0  0  0  0  0  0
   42.0901   38.8059   90.6282 C   0  0  0  0  0  0  0  0  0  0  0  0
   43.2829   37.9388   92.5211 C   0  0  0  0  0  0  0  0  0  0  0  0
 11  6  2  0  0  0
 11 10  1  0  0  0
  6  7  1  0  0  0
 10  9  2  0  0  0
 13 14  1  0  0  0
 13 12  1  0  0  0
  7 12  1  0  0  0
  7  8  2  0  0  0
 12 15  2  0  0  0
  9  8  1  0  0  0
  9  1  1  0  0  0
  1  4  1  0  0  0
  1  5  2  0  0  0
  4  3  2  0  0  0
  5  2  1  0  0  0
  3  2  1  0  0  0
  2 18  1  0  0  0
 18 19  1  0  0  0
 19 24  1  0  0  0
 20 24  2  0  0  0
 20 21  1  0  0  0
 24 23  1  0  0  0
 21 22  2  0  0  0
 23 25  2  0  0  0
 22 25  1  0  0  0
 13 16  1  0  0  0
 14 17  1  0  0  0
M  END
> <minimizedAffinity>
-7.80737

$$$$
6HRQ_GM5_A_504


 25 27  0  0  0  0  0  0  0  0999 V2000
   44.0523   36.8404   87.6356 C   0  0  0  0  0  0  0  0  0  0  0  0
   43.2561   38.1259   89.1709 N   0  0  0  0  0  0  0  0  0  0  0  0
   44.5706   37.9948   89.4146 N   0  0  0  0  0  0  0  0  0  0  0  0
   45.0588   37.2141   88.4784 N   0  0  0  0  0  0  0  0  0  0  0  0
   42.8980   37.4259   88.0809 C   0  0  0  0  0  0  0  0  0  0  0  0
   44.6925   34.2531   84.3136 C   0  0  0  0  0  0  0  0  0  0  0  0
   45.6012   34.2557   85.3689 C   0  0  0  0  0  0  0  0  0  0  0  0
   45.3978   35.1218   86.4419 C   0  0  0  0  0  0  0  0  0  0  0  0
   44.2827   35.9576   86.4763 C   0  0  0  0  0  0  0  0  0  0  0  0
   43.3793   35.9331   85.4159 C   0  0  0  0  0  0  0  0  0  0  0  0
   43.5876   35.0877   84.3404 C   0  0  0  0  0  0  0  0  0  0  0  0
   46.7371   33.2773   85.3873 C   0  0  0  0  0  0  0  0  0  0  0  0
   47.8891   33.7125   84.8804 N   0  0  0  0  0  0  0  0  0  0  0  0
   48.9807   32.8537   84.7460 O   0  0  0  0  0  0  0  0  0  0  0  0
   46.5871   32.1331   85.8158 O   0  0  0  0  0  0  0  0  0  0  0  0
   47.9717   34.6517   84.5969 H   0  0  0  0  0  0  0  0  0  0  0  0
   48.7391   31.9711   85.0677 H   0  0  0  0  0  0  0  0  0  0  0  0
   42.3874   38.9277   90.0077 C   0  0  0  0  0  0  0  0  0  0  0  0
   42.4090   38.3860   91.7329 S   0  0  0  0  0  0  0  0  0  0  0  0
   44.6918   39.7932   92.3145 C   0  0  0  0  0  0  0  0  0  0  0  0
   45.3888   40.8633   92.8472 C   0  0  0  0  0  0  0  0  0  0  0  0
   44.7181   41.8737   93.5031 C   0  0  0  0  0  0  0  0  0  0  0  0
   42.6384   40.7475   93.1081 C   0  0  0  0  0  0  0  0  0  0  0  0
   43.3103   39.7328   92.4405 C   0  0  0  0  0  0  0  0  0  0  0  0
   43.3464   41.8142   93.6339 C   0  0  0  0  0  0  0  0  0  0  0  0
 11  6  2  0  0  0
 11 10  1  0  0  0
  6  7  1  0  0  0
 10  9  2  0  0  0
 13 14  1  0  0  0
 13 12  1  0  0  0
  7 12  1  0  0  0
  7  8  2  0  0  0
 12 15  2  0  0  0
  9  8  1  0  0  0
  9  1  1  0  0  0
  1  4  1  0  0  0
  1  5  2  0  0  0
  4  3  2  0  0  0
  5  2  1  0  0  0
  3  2  1  0  0  0
  2 18  1  0  0  0
 18 19  1  0  0  0
 19 24  1  0  0  0
 20 24  2  0  0  0
 20 21  1  0  0  0
 24 23  1  0  0  0
 21 22  2  0  0  0
 23 25  2  0  0  0
 22 25  1  0  0  0
 13 16  1  0  0  0
 14 17  1  0  0  0
M  END
> <minimizedAffinity>
-7.59762

$$$$
6HRQ_GM5_A_504


 25 27  0  0  0  0  0  0  0  0999 V2000
   43.3703   36.8521   87.4872 C   0  0  0  0  0  0  0  0  0  0  0  0
   42.1771   37.9306   88.9214 N   0  0  0  0  0  0  0  0  0  0  0  0
   43.4635   38.1534   89.2377 N   0  0  0  0  0  0  0  0  0  0  0  0
   44.1929   37.4995   88.3631 N   0  0  0  0  0  0  0  0  0  0  0  0
   42.0790   37.1297   87.8465 C   0  0  0  0  0  0  0  0  0  0  0  0
   44.8432   34.4279   84.3102 C   0  0  0  0  0  0  0  0  0  0  0  0
   45.4515   34.3666   85.5615 C   0  0  0  0  0  0  0  0  0  0  0  0
   44.9790   35.1800   86.5901 C   0  0  0  0  0  0  0  0  0  0  0  0
   43.8911   36.0261   86.3813 C   0  0  0  0  0  0  0  0  0  0  0  0
   43.2892   36.0657   85.1254 C   0  0  0  0  0  0  0  0  0  0  0  0
   43.7671   35.2730   84.0967 C   0  0  0  0  0  0  0  0  0  0  0  0
   46.5463   33.3752   85.8192 C   0  0  0  0  0  0  0  0  0  0  0  0
   47.2302   32.9716   84.7501 N   0  0  0  0  0  0  0  0  0  0  0  0
   48.1967   31.9707   84.8559 O   0  0  0  0  0  0  0  0  0  0  0  0
   46.7630   32.9435   86.9515 O   0  0  0  0  0  0  0  0  0  0  0  0
   47.0517   33.3844   83.8744 H   0  0  0  0  0  0  0  0  0  0  0  0
   48.2516   31.6702   85.7766 H   0  0  0  0  0  0  0  0  0  0  0  0
   41.0815   38.5028   89.6764 C   0  0  0  0  0  0  0  0  0  0  0  0
   39.4693   38.0070   89.0243 S   0  0  0  0  0  0  0  0  0  0  0  0
   38.4659   35.6156   89.9209 C   0  0  0  0  0  0  0  0  0  0  0  0
   38.1287   34.7006   90.9026 C   0  0  0  0  0  0  0  0  0  0  0  0
   38.3254   35.0030   92.2333 C   0  0  0  0  0  0  0  0  0  0  0  0
   39.1938   37.1508   91.6149 C   0  0  0  0  0  0  0  0  0  0  0  0
   39.0040   36.8459   90.2743 C   0  0  0  0  0  0  0  0  0  0  0  0
   38.8555   36.2261   92.5876 C   0  0  0  0  0  0  0  0  0  0  0  0
 11  6  2  0  0  0
 11 10  1  0  0  0
  6  7  1  0  0  0
 10  9  2  0  0  0
 13 14  1  0  0  0
 13 12  1  0  0  0
  7 12  1  0  0  0
  7  8  2  0  0  0
 12 15  2  0  0  0
  9  8  1  0  0  0
  9  1  1  0  0  0
  1  4  1  0  0  0
  1  5  2  0  0  0
  4  3  2  0  0  0
  5  2  1  0  0  0
  3  2  1  0  0  0
  2 18  1  0  0  0
 18 19  1  0  0  0
 19 24  1  0  0  0
 20 24  2  0  0  0
 20 21  1  0  0  0
 24 23  1  0  0  0
 21 22  2  0  0  0
 23 25  2  0  0  0
 22 25  1  0  0  0
 13 16  1  0  0  0
 14 17  1  0  0  0
M  END
> <minimizedAffinity>
-7.52092

$$$$
6HRQ_GM5_A_504


 25 27  0  0  0  0  0  0  0  0999 V2000
   44.0585   37.7121   88.3132 C   0  0  0  0  0  0  0  0  0  0  0  0
   44.0560   39.3035   89.7663 N   0  0  0  0  0  0  0  0  0  0  0  0
   45.2632   38.7177   89.8310 N   0  0  0  0  0  0  0  0  0  0  0  0
   45.2683   37.7492   88.9442 N   0  0  0  0  0  0  0  0  0  0  0  0
   43.2832   38.7089   88.8412 C   0  0  0  0  0  0  0  0  0  0  0  0
   43.1562   34.8352   85.3051 C   0  0  0  0  0  0  0  0  0  0  0  0
   44.4332   34.8736   85.8596 C   0  0  0  0  0  0  0  0  0  0  0  0
   44.7281   35.8330   86.8268 C   0  0  0  0  0  0  0  0  0  0  0  0
   43.7502   36.7278   87.2585 C   0  0  0  0  0  0  0  0  0  0  0  0
   42.4756   36.6668   86.6993 C   0  0  0  0  0  0  0  0  0  0  0  0
   42.1843   35.7275   85.7257 C   0  0  0  0  0  0  0  0  0  0  0  0
   45.4508   33.8401   85.4799 C   0  0  0  0  0  0  0  0  0  0  0  0
   46.3220   33.5039   86.4295 N   0  0  0  0  0  0  0  0  0  0  0  0
   47.3785   32.6349   86.1549 O   0  0  0  0  0  0  0  0  0  0  0  0
   45.4873   33.3674   84.3439 O   0  0  0  0  0  0  0  0  0  0  0  0
   46.2193   33.8731   87.3363 H   0  0  0  0  0  0  0  0  0  0  0  0
   47.3398   32.3626   85.2247 H   0  0  0  0  0  0  0  0  0  0  0  0
   43.6903   40.4237   90.6083 C   0  0  0  0  0  0  0  0  0  0  0  0
   43.8710   40.0448   92.3672 S   0  0  0  0  0  0  0  0  0  0  0  0
   41.9155   38.1218   92.2790 C   0  0  0  0  0  0  0  0  0  0  0  0
   40.6568   37.6175   92.5549 C   0  0  0  0  0  0  0  0  0  0  0  0
   39.7336   38.3834   93.2347 C   0  0  0  0  0  0  0  0  0  0  0  0
   41.3194   40.1774   93.3634 C   0  0  0  0  0  0  0  0  0  0  0  0
   42.2532   39.4057   92.6860 C   0  0  0  0  0  0  0  0  0  0  0  0
   40.0647   39.6607   93.6363 C   0  0  0  0  0  0  0  0  0  0  0  0
 11  6  2  0  0  0
 11 10  1  0  0  0
  6  7  1  0  0  0
 10  9  2  0  0  0
 13 14  1  0  0  0
 13 12  1  0  0  0
  7 12  1  0  0  0
  7  8  2  0  0  0
 12 15  2  0  0  0
  9  8  1  0  0  0
  9  1  1  0  0  0
  1  4  1  0  0  0
  1  5  2  0  0  0
  4  3  2  0  0  0
  5  2  1  0  0  0
  3  2  1  0  0  0
  2 18  1  0  0  0
 18 19  1  0  0  0
 19 24  1  0  0  0
 20 24  2  0  0  0
 20 21  1  0  0  0
 24 23  1  0  0  0
 21 22  2  0  0  0
 23 25  2  0  0  0
 22 25  1  0  0  0
 13 16  1  0  0  0
 14 17  1  0  0  0
M  END
> <minimizedAffinity>
-7.28678

$$$$
6HRQ_GM5_A_504


 25 27  0  0  0  0  0  0  0  0999 V2000
   43.9694   37.1526   87.9669 C   0  0  0  0  0  0  0  0  0  0  0  0
   44.2983   38.2797   89.7739 N   0  0  0  0  0  0  0  0  0  0  0  0
   42.9916   38.3850   89.4806 N   0  0  0  0  0  0  0  0  0  0  0  0
   42.7880   37.6964   88.3811 N   0  0  0  0  0  0  0  0  0  0  0  0
   44.9359   37.5274   88.8607 C   0  0  0  0  0  0  0  0  0  0  0  0
   44.2968   34.7821   84.4436 C   0  0  0  0  0  0  0  0  0  0  0  0
   43.4057   35.8520   84.4728 C   0  0  0  0  0  0  0  0  0  0  0  0
   43.2870   36.6091   85.6372 C   0  0  0  0  0  0  0  0  0  0  0  0
   44.0705   36.3200   86.7532 C   0  0  0  0  0  0  0  0  0  0  0  0
   44.9638   35.2522   86.7011 C   0  0  0  0  0  0  0  0  0  0  0  0
   45.0714   34.4870   85.5531 C   0  0  0  0  0  0  0  0  0  0  0  0
   42.6470   36.2344   83.2376 C   0  0  0  0  0  0  0  0  0  0  0  0
   41.3815   36.6056   83.4226 N   0  0  0  0  0  0  0  0  0  0  0  0
   40.5499   36.8768   82.3355 O   0  0  0  0  0  0  0  0  0  0  0  0
   43.1666   36.1691   82.1235 O   0  0  0  0  0  0  0  0  0  0  0  0
   41.0283   36.6896   84.3378 H   0  0  0  0  0  0  0  0  0  0  0  0
   41.0440   36.7489   81.5106 H   0  0  0  0  0  0  0  0  0  0  0  0
   44.8875   38.9161   90.9339 C   0  0  0  0  0  0  0  0  0  0  0  0
   44.2365   40.5814   91.2048 S   0  0  0  0  0  0  0  0  0  0  0  0
   45.0130   41.6569   93.6068 C   0  0  0  0  0  0  0  0  0  0  0  0
   45.9501   42.0853   94.5304 C   0  0  0  0  0  0  0  0  0  0  0  0
   47.2958   42.0227   94.2368 C   0  0  0  0  0  0  0  0  0  0  0  0
   46.7812   41.1078   92.0810 C   0  0  0  0  0  0  0  0  0  0  0  0
   45.4263   41.1624   92.3769 C   0  0  0  0  0  0  0  0  0  0  0  0
   47.7092   41.5363   93.0142 C   0  0  0  0  0  0  0  0  0  0  0  0
 11  6  2  0  0  0
 11 10  1  0  0  0
  6  7  1  0  0  0
 10  9  2  0  0  0
 13 14  1  0  0  0
 13 12  1  0  0  0
  7 12  1  0  0  0
  7  8  2  0  0  0
 12 15  2  0  0  0
  9  8  1  0  0  0
  9  1  1  0  0  0
  1  4  1  0  0  0
  1  5  2  0  0  0
  4  3  2  0  0  0
  5  2  1  0  0  0
  3  2  1  0  0  0
  2 18  1  0  0  0
 18 19  1  0  0  0
 19 24  1  0  0  0
 20 24  2  0  0  0
 20 21  1  0  0  0
 24 23  1  0  0  0
 21 22  2  0  0  0
 23 25  2  0  0  0
 22 25  1  0  0  0
 13 16  1  0  0  0
 14 17  1  0  0  0
M  END
> <minimizedAffinity>
-6.87761

$$$$
6HRQ_GM5_A_504


 25 27  0  0  0  0  0  0  0  0999 V2000
   41.8343   36.8332   86.8633 C   0  0  0  0  0  0  0  0  0  0  0  0
   40.5303   37.1270   88.5536 N   0  0  0  0  0  0  0  0  0  0  0  0
   41.0349   38.3308   88.2361 N   0  0  0  0  0  0  0  0  0  0  0  0
   41.8278   38.1549   87.2042 N   0  0  0  0  0  0  0  0  0  0  0  0
   41.0022   36.1763   87.7290 C   0  0  0  0  0  0  0  0  0  0  0  0
   44.1170   35.2898   83.6157 C   0  0  0  0  0  0  0  0  0  0  0  0
   44.5246   35.0394   84.9237 C   0  0  0  0  0  0  0  0  0  0  0  0
   43.7857   35.5673   85.9812 C   0  0  0  0  0  0  0  0  0  0  0  0
   42.6343   36.3142   85.7376 C   0  0  0  0  0  0  0  0  0  0  0  0
   42.2368   36.5451   84.4224 C   0  0  0  0  0  0  0  0  0  0  0  0
   42.9780   36.0380   83.3696 C   0  0  0  0  0  0  0  0  0  0  0  0
   45.6958   34.1418   85.1890 C   0  0  0  0  0  0  0  0  0  0  0  0
   45.4477   32.8339   85.1524 N   0  0  0  0  0  0  0  0  0  0  0  0
   46.4360   31.9091   85.4913 O   0  0  0  0  0  0  0  0  0  0  0  0
   46.8051   34.6027   85.4582 O   0  0  0  0  0  0  0  0  0  0  0  0
   44.5558   32.5156   84.8829 H   0  0  0  0  0  0  0  0  0  0  0  0
   47.2498   32.3790   85.7315 H   0  0  0  0  0  0  0  0  0  0  0  0
   39.6049   36.9379   89.6515 C   0  0  0  0  0  0  0  0  0  0  0  0
   37.9795   37.6515   89.3065 S   0  0  0  0  0  0  0  0  0  0  0  0
   37.4337   35.3311   87.9472 C   0  0  0  0  0  0  0  0  0  0  0  0
   37.0775   34.6041   86.8250 C   0  0  0  0  0  0  0  0  0  0  0  0
   36.8431   35.2439   85.6264 C   0  0  0  0  0  0  0  0  0  0  0  0
   37.3291   37.3527   86.6592 C   0  0  0  0  0  0  0  0  0  0  0  0
   37.5580   36.7119   87.8689 C   0  0  0  0  0  0  0  0  0  0  0  0
   36.9703   36.6149   85.5445 C   0  0  0  0  0  0  0  0  0  0  0  0
 11  6  2  0  0  0
 11 10  1  0  0  0
  6  7  1  0  0  0
 10  9  2  0  0  0
 13 14  1  0  0  0
 13 12  1  0  0  0
  7 12  1  0  0  0
  7  8  2  0  0  0
 12 15  2  0  0  0
  9  8  1  0  0  0
  9  1  1  0  0  0
  1  4  1  0  0  0
  1  5  2  0  0  0
  4  3  2  0  0  0
  5  2  1  0  0  0
  3  2  1  0  0  0
  2 18  1  0  0  0
 18 19  1  0  0  0
 19 24  1  0  0  0
 20 24  2  0  0  0
 20 21  1  0  0  0
 24 23  1  0  0  0
 21 22  2  0  0  0
 23 25  2  0  0  0
 22 25  1  0  0  0
 13 16  1  0  0  0
 14 17  1  0  0  0
M  END
> <minimizedAffinity>
-6.69236

$$$$
6HRQ_GM5_A_504


 25 27  0  0  0  0  0  0  0  0999 V2000
   42.5139   38.6978   88.1558 C   0  0  0  0  0  0  0  0  0  0  0  0
   41.5512   38.5193   86.2361 N   0  0  0  0  0  0  0  0  0  0  0  0
   42.5729   39.3778   86.0820 N   0  0  0  0  0  0  0  0  0  0  0  0
   43.1631   39.4860   87.2501 N   0  0  0  0  0  0  0  0  0  0  0  0
   41.4815   38.0791   87.5041 C   0  0  0  0  0  0  0  0  0  0  0  0
   43.7280   38.3744   92.2253 C   0  0  0  0  0  0  0  0  0  0  0  0
   42.3986   38.6603   91.9244 C   0  0  0  0  0  0  0  0  0  0  0  0
   42.0133   38.7877   90.5909 C   0  0  0  0  0  0  0  0  0  0  0  0
   42.9391   38.6033   89.5653 C   0  0  0  0  0  0  0  0  0  0  0  0
   44.2623   38.3076   89.8861 C   0  0  0  0  0  0  0  0  0  0  0  0
   44.6524   38.1983   91.2093 C   0  0  0  0  0  0  0  0  0  0  0  0
   41.3796   38.7454   93.0209 C   0  0  0  0  0  0  0  0  0  0  0  0
   40.4762   37.7674   93.0539 N   0  0  0  0  0  0  0  0  0  0  0  0
   39.4172   37.8030   93.9618 O   0  0  0  0  0  0  0  0  0  0  0  0
   41.3710   39.6881   93.8125 O   0  0  0  0  0  0  0  0  0  0  0  0
   40.5565   37.0101   92.4300 H   0  0  0  0  0  0  0  0  0  0  0  0
   39.4802   38.6070   94.5007 H   0  0  0  0  0  0  0  0  0  0  0  0
   40.6721   38.1545   85.1444 C   0  0  0  0  0  0  0  0  0  0  0  0
   40.3435   36.3769   85.0959 S   0  0  0  0  0  0  0  0  0  0  0  0
   42.6975   36.2722   83.6897 C   0  0  0  0  0  0  0  0  0  0  0  0
   43.9902   35.8332   83.4636 C   0  0  0  0  0  0  0  0  0  0  0  0
   44.5760   34.9235   84.3182 C   0  0  0  0  0  0  0  0  0  0  0  0
   42.5728   34.8735   85.6352 C   0  0  0  0  0  0  0  0  0  0  0  0
   41.9835   35.7951   84.7809 C   0  0  0  0  0  0  0  0  0  0  0  0
   43.8675   34.4444   85.4002 C   0  0  0  0  0  0  0  0  0  0  0  0
 11  6  2  0  0  0
 11 10  1  0  0  0
  6  7  1  0  0  0
 10  9  2  0  0  0
 13 14  1  0  0  0
 13 12  1  0  0  0
  7 12  1  0  0  0
  7  8  2  0  0  0
 12 15  2  0  0  0
  9  8  1  0  0  0
  9  1  1  0  0  0
  1  4  1  0  0  0
  1  5  2  0  0  0
  4  3  2  0  0  0
  5  2  1  0  0  0
  3  2  1  0  0  0
  2 18  1  0  0  0
 18 19  1  0  0  0
 19 24  1  0  0  0
 20 24  2  0  0  0
 20 21  1  0  0  0
 24 23  1  0  0  0
 21 22  2  0  0  0
 23 25  2  0  0  0
 22 25  1  0  0  0
 13 16  1  0  0  0
 14 17  1  0  0  0
M  END
> <minimizedAffinity>
-6.66492

$$$$
6HRQ_GM5_A_504


 25 27  0  0  0  0  0  0  0  0999 V2000
   38.5815   35.3660   88.6064 C   0  0  0  0  0  0  0  0  0  0  0  0
   39.5446   35.6280   86.6966 N   0  0  0  0  0  0  0  0  0  0  0  0
   38.3152   35.1458   86.4508 N   0  0  0  0  0  0  0  0  0  0  0  0
   37.7249   34.9880   87.6132 N   0  0  0  0  0  0  0  0  0  0  0  0
   39.7468   35.7759   88.0171 C   0  0  0  0  0  0  0  0  0  0  0  0
   37.4740   35.2269   92.7166 C   0  0  0  0  0  0  0  0  0  0  0  0
   38.4716   36.1058   92.3021 C   0  0  0  0  0  0  0  0  0  0  0  0
   38.8450   36.1293   90.9594 C   0  0  0  0  0  0  0  0  0  0  0  0
   38.2097   35.3043   90.0327 C   0  0  0  0  0  0  0  0  0  0  0  0
   37.2068   34.4392   90.4649 C   0  0  0  0  0  0  0  0  0  0  0  0
   36.8458   34.4001   91.8003 C   0  0  0  0  0  0  0  0  0  0  0  0
   39.0750   37.0735   93.2754 C   0  0  0  0  0  0  0  0  0  0  0  0
   38.4223   37.2256   94.4263 N   0  0  0  0  0  0  0  0  0  0  0  0
   38.8314   38.1791   95.3593 O   0  0  0  0  0  0  0  0  0  0  0  0
   40.0928   37.7076   92.9972 O   0  0  0  0  0  0  0  0  0  0  0  0
   37.6417   36.6584   94.6211 H   0  0  0  0  0  0  0  0  0  0  0  0
   39.6079   38.6512   95.0200 H   0  0  0  0  0  0  0  0  0  0  0  0
   40.4867   35.9289   85.6384 C   0  0  0  0  0  0  0  0  0  0  0  0
   41.7716   37.0829   86.1745 S   0  0  0  0  0  0  0  0  0  0  0  0
   43.4741   35.6327   84.5843 C   0  0  0  0  0  0  0  0  0  0  0  0
   44.6048   34.8714   84.3468 C   0  0  0  0  0  0  0  0  0  0  0  0
   45.4609   34.5552   85.3804 C   0  0  0  0  0  0  0  0  0  0  0  0
   44.0557   35.7546   86.9089 C   0  0  0  0  0  0  0  0  0  0  0  0
   43.1963   36.0809   85.8689 C   0  0  0  0  0  0  0  0  0  0  0  0
   45.1852   34.9951   86.6582 C   0  0  0  0  0  0  0  0  0  0  0  0
 11  6  2  0  0  0
 11 10  1  0  0  0
  6  7  1  0  0  0
 10  9  2  0  0  0
 13 14  1  0  0  0
 13 12  1  0  0  0
  7 12  1  0  0  0
  7  8  2  0  0  0
 12 15  2  0  0  0
  9  8  1  0  0  0
  9  1  1  0  0  0
  1  4  1  0  0  0
  1  5  2  0  0  0
  4  3  2  0  0  0
  5  2  1  0  0  0
  3  2  1  0  0  0
  2 18  1  0  0  0
 18 19  1  0  0  0
 19 24  1  0  0  0
 20 24  2  0  0  0
 20 21  1  0  0  0
 24 23  1  0  0  0
 21 22  2  0  0  0
 23 25  2  0  0  0
 22 25  1  0  0  0
 13 16  1  0  0  0
 14 17  1  0  0  0
M  END
> <minimizedAffinity>
-6.56828

$$$$
6HRQ_GM5_A_504


 25 27  0  0  0  0  0  0  0  0999 V2000
   42.7160   37.3247   87.4368 C   0  0  0  0  0  0  0  0  0  0  0  0
   42.4360   38.1347   89.4141 N   0  0  0  0  0  0  0  0  0  0  0  0
   41.2277   38.1107   88.8274 N   0  0  0  0  0  0  0  0  0  0  0  0
   41.3952   37.6146   87.6231 N   0  0  0  0  0  0  0  0  0  0  0  0
   43.3811   37.6585   88.5856 C   0  0  0  0  0  0  0  0  0  0  0  0
   44.1524   35.6326   83.8018 C   0  0  0  0  0  0  0  0  0  0  0  0
   44.6251   35.1499   85.0196 C   0  0  0  0  0  0  0  0  0  0  0  0
   44.1681   35.7242   86.2046 C   0  0  0  0  0  0  0  0  0  0  0  0
   43.2263   36.7515   86.1769 C   0  0  0  0  0  0  0  0  0  0  0  0
   42.7575   37.2137   84.9491 C   0  0  0  0  0  0  0  0  0  0  0  0
   43.2225   36.6584   83.7700 C   0  0  0  0  0  0  0  0  0  0  0  0
   45.5498   33.9703   85.0545 C   0  0  0  0  0  0  0  0  0  0  0  0
   46.8483   34.2505   85.1497 N   0  0  0  0  0  0  0  0  0  0  0  0
   47.8052   33.2373   85.0802 O   0  0  0  0  0  0  0  0  0  0  0  0
   45.1209   32.8200   84.9635 O   0  0  0  0  0  0  0  0  0  0  0  0
   47.1366   35.1840   85.2706 H   0  0  0  0  0  0  0  0  0  0  0  0
   47.3627   32.3824   84.9609 H   0  0  0  0  0  0  0  0  0  0  0  0
   42.6346   38.6221   90.7634 C   0  0  0  0  0  0  0  0  0  0  0  0
   41.5692   40.0327   91.1446 S   0  0  0  0  0  0  0  0  0  0  0  0
   38.8942   39.4691   91.3826 C   0  0  0  0  0  0  0  0  0  0  0  0
   37.8132   38.7685   91.8878 C   0  0  0  0  0  0  0  0  0  0  0  0
   38.0049   37.7665   92.8152 C   0  0  0  0  0  0  0  0  0  0  0  0
   40.3692   38.1612   92.7502 C   0  0  0  0  0  0  0  0  0  0  0  0
   40.1796   39.1651   91.8107 C   0  0  0  0  0  0  0  0  0  0  0  0
   39.2802   37.4653   93.2458 C   0  0  0  0  0  0  0  0  0  0  0  0
 11  6  2  0  0  0
 11 10  1  0  0  0
  6  7  1  0  0  0
 10  9  2  0  0  0
 13 14  1  0  0  0
 13 12  1  0  0  0
  7 12  1  0  0  0
  7  8  2  0  0  0
 12 15  2  0  0  0
  9  8  1  0  0  0
  9  1  1  0  0  0
  1  4  1  0  0  0
  1  5  2  0  0  0
  4  3  2  0  0  0
  5  2  1  0  0  0
  3  2  1  0  0  0
  2 18  1  0  0  0
 18 19  1  0  0  0
 19 24  1  0  0  0
 20 24  2  0  0  0
 20 21  1  0  0  0
 24 23  1  0  0  0
 21 22  2  0  0  0
 23 25  2  0  0  0
 22 25  1  0  0  0
 13 16  1  0  0  0
 14 17  1  0  0  0
M  END
> <minimizedAffinity>
-6.55439

$$$$
