2ZKJ_ADP_A_501


 34 36  0  0  0  0  0  0  0  0999 V2000
  -17.0779    5.2452   27.9252 C   0  0  0  0  0  0  0  0  0  0  0  0
  -15.8889    5.7991   27.3384 O   0  0  0  0  0  0  0  0  0  0  0  0
  -17.9056    6.4701   28.3508 C   0  0  0  0  0  0  0  0  0  0  0  0
  -18.8533    6.1161   29.4058 O   0  0  0  0  0  0  0  0  0  0  0  0
  -16.7939    7.4297   28.8086 C   0  0  0  0  0  0  0  0  0  0  0  0
  -16.4618    7.0234   30.1270 O   0  0  0  0  0  0  0  0  0  0  0  0
  -15.5537    7.0478   27.9781 C   0  0  0  0  0  0  0  0  0  0  0  0
  -18.3749    5.7182   30.1499 H   0  0  0  0  0  0  0  0  0  0  0  0
  -16.2186    6.0844   30.1243 H   0  0  0  0  0  0  0  0  0  0  0  0
  -15.4290    8.0200   26.9055 N   0  0  0  0  0  0  0  0  0  0  0  0
  -15.9071    7.8379   25.6545 C   0  0  0  0  0  0  0  0  0  0  0  0
  -15.6084    8.9108   24.9302 N   0  0  0  0  0  0  0  0  0  0  0  0
  -15.0026    9.7994   25.7504 C   0  0  0  0  0  0  0  0  0  0  0  0
  -14.4642   11.1342   25.6101 C   0  0  0  0  0  0  0  0  0  0  0  0
  -14.5569   11.8025   24.3990 N   0  0  0  0  0  0  0  0  0  0  0  0
  -13.8851   11.6822   26.6957 N   0  0  0  0  0  0  0  0  0  0  0  0
  -13.8091   11.0784   27.8822 C   0  0  0  0  0  0  0  0  0  0  0  0
  -14.2680    9.8568   28.0984 N   0  0  0  0  0  0  0  0  0  0  0  0
  -14.8713    9.1996   27.0537 C   0  0  0  0  0  0  0  0  0  0  0  0
  -14.9880   11.3671   23.6283 H   0  0  0  0  0  0  0  0  0  0  0  0
  -14.1917   12.7123   24.3096 H   0  0  0  0  0  0  0  0  0  0  0  0
  -17.8234    4.2944   26.9595 C   0  0  0  0  0  0  0  0  0  0  0  0
  -18.1343    4.9200   25.7069 O   0  0  0  0  0  0  0  0  0  0  0  0
  -19.2022    4.1876   24.8211 P   0  0  0  0  0  0  0  0  0  0  0  0
  -19.3830    5.1763   23.7458 O   0  0  0  0  0  0  0  0  0  0  0  0
  -18.6213    2.7685   24.5972 O   0  0  0  0  0  0  0  0  0  0  0  0
  -19.2337    2.2509   24.0514 H   0  0  0  0  0  0  0  0  0  0  0  0
  -20.4708    4.0073   25.8388 O   0  0  0  0  0  0  0  0  0  0  0  0
  -21.3706    5.2386   26.4956 P   0  0  0  0  0  0  0  0  0  0  0  0
  -22.8126    4.9772   26.1100 O   0  0  0  0  0  0  0  0  0  0  0  0
  -20.7621    6.5333   25.9053 O   0  0  0  0  0  0  0  0  0  0  0  0
  -21.1282    5.2303   27.9173 O   0  0  0  0  0  0  0  0  0  0  0  0
  -21.2431    7.3024   26.2488 H   0  0  0  0  0  0  0  0  0  0  0  0
  -21.6398    5.9398   28.3366 H   0  0  0  0  0  0  0  0  0  0  0  0
 29 30  2  0  0  0
 29 31  1  0  0  0
 29 32  1  0  0  0
 29 28  1  0  0  0
 24 25  2  0  0  0
 24 26  1  0  0  0
 24 28  1  0  0  0
 24 23  1  0  0  0
 23 22  1  0  0  0
 22  1  1  0  0  0
  1  2  1  0  0  0
  1  3  1  0  0  0
  2  7  1  0  0  0
  3  4  1  0  0  0
  3  5  1  0  0  0
  5  6  1  0  0  0
  5  7  1  0  0  0
  7 10  1  0  0  0
 10 11  1  0  0  0
 10 19  1  0  0  0
 11 12  2  0  0  0
 12 13  1  0  0  0
 13 14  1  0  0  0
 13 19  2  0  0  0
 14 15  1  0  0  0
 14 16  2  0  0  0
 16 17  1  0  0  0
 17 18  2  0  0  0
 18 19  1  0  0  0
 31 33  1  0  0  0
 32 34  1  0  0  0
 26 27  1  0  0  0
  4  8  1  0  0  0
  6  9  1  0  0  0
 15 20  1  0  0  0
 15 21  1  0  0  0
M  END
> <minimizedAffinity>
-10.36820

$$$$
2ZKJ_ADP_A_501


 34 36  0  0  0  0  0  0  0  0999 V2000
  -18.3056    6.5330   27.6229 C   0  0  0  0  0  0  0  0  0  0  0  0
  -18.3420    7.9330   27.9449 O   0  0  0  0  0  0  0  0  0  0  0  0
  -16.8079    6.1836   27.5869 C   0  0  0  0  0  0  0  0  0  0  0  0
  -16.5722    4.9882   26.7793 O   0  0  0  0  0  0  0  0  0  0  0  0
  -16.2217    7.4701   26.9806 C   0  0  0  0  0  0  0  0  0  0  0  0
  -16.4234    7.3555   25.5808 O   0  0  0  0  0  0  0  0  0  0  0  0
  -17.1821    8.5982   27.4037 C   0  0  0  0  0  0  0  0  0  0  0  0
  -16.9412    5.1196   25.8919 H   0  0  0  0  0  0  0  0  0  0  0  0
  -17.3652    7.2085   25.4007 H   0  0  0  0  0  0  0  0  0  0  0  0
  -16.5706    9.2974   28.5211 N   0  0  0  0  0  0  0  0  0  0  0  0
  -17.0080    9.2203   29.7976 C   0  0  0  0  0  0  0  0  0  0  0  0
  -16.2338    9.9905   30.5542 N   0  0  0  0  0  0  0  0  0  0  0  0
  -15.2632   10.4966   29.7598 C   0  0  0  0  0  0  0  0  0  0  0  0
  -14.1196   11.3613   29.9491 C   0  0  0  0  0  0  0  0  0  0  0  0
  -13.7999   11.8320   31.2134 N   0  0  0  0  0  0  0  0  0  0  0  0
  -13.3959   11.6738   28.8571 N   0  0  0  0  0  0  0  0  0  0  0  0
  -13.6585   11.2115   27.6341 C   0  0  0  0  0  0  0  0  0  0  0  0
  -14.6866   10.4228   27.3686 N   0  0  0  0  0  0  0  0  0  0  0  0
  -15.4989   10.0482   28.4111 C   0  0  0  0  0  0  0  0  0  0  0  0
  -14.3544   11.5805   31.9870 H   0  0  0  0  0  0  0  0  0  0  0  0
  -13.0183   12.4177   31.3375 H   0  0  0  0  0  0  0  0  0  0  0  0
  -19.1211    5.6778   28.6209 C   0  0  0  0  0  0  0  0  0  0  0  0
  -20.5286    5.7106   28.3472 O   0  0  0  0  0  0  0  0  0  0  0  0
  -20.9527    5.3202   26.8880 P   0  0  0  0  0  0  0  0  0  0  0  0
  -22.2616    4.6983   27.1460 O   0  0  0  0  0  0  0  0  0  0  0  0
  -20.7637    6.6179   26.0627 O   0  0  0  0  0  0  0  0  0  0  0  0
  -21.0091    6.4523   25.1390 H   0  0  0  0  0  0  0  0  0  0  0  0
  -19.7642    4.2998   26.4146 O   0  0  0  0  0  0  0  0  0  0  0  0
  -19.1898    4.1312   24.8658 P   0  0  0  0  0  0  0  0  0  0  0  0
  -20.3733    3.7427   24.0027 O   0  0  0  0  0  0  0  0  0  0  0  0
  -18.0784    3.0593   24.9692 O   0  0  0  0  0  0  0  0  0  0  0  0
  -18.5784    5.3852   24.5005 O   0  0  0  0  0  0  0  0  0  0  0  0
  -17.6931    2.9073   24.0921 H   0  0  0  0  0  0  0  0  0  0  0  0
  -18.2298    5.3241   23.5974 H   0  0  0  0  0  0  0  0  0  0  0  0
 29 30  2  0  0  0
 29 31  1  0  0  0
 29 32  1  0  0  0
 29 28  1  0  0  0
 24 25  2  0  0  0
 24 26  1  0  0  0
 24 28  1  0  0  0
 24 23  1  0  0  0
 23 22  1  0  0  0
 22  1  1  0  0  0
  1  2  1  0  0  0
  1  3  1  0  0  0
  2  7  1  0  0  0
  3  4  1  0  0  0
  3  5  1  0  0  0
  5  6  1  0  0  0
  5  7  1  0  0  0
  7 10  1  0  0  0
 10 11  1  0  0  0
 10 19  1  0  0  0
 11 12  2  0  0  0
 12 13  1  0  0  0
 13 14  1  0  0  0
 13 19  2  0  0  0
 14 15  1  0  0  0
 14 16  2  0  0  0
 16 17  1  0  0  0
 17 18  2  0  0  0
 18 19  1  0  0  0
 31 33  1  0  0  0
 32 34  1  0  0  0
 26 27  1  0  0  0
  4  8  1  0  0  0
  6  9  1  0  0  0
 15 20  1  0  0  0
 15 21  1  0  0  0
M  END
> <minimizedAffinity>
-9.93852

$$$$
2ZKJ_ADP_A_501


 34 36  0  0  0  0  0  0  0  0999 V2000
  -16.3704    6.7973   27.2919 C   0  0  0  0  0  0  0  0  0  0  0  0
  -15.2835    7.3330   26.5194 O   0  0  0  0  0  0  0  0  0  0  0  0
  -16.8461    7.9759   28.1587 C   0  0  0  0  0  0  0  0  0  0  0  0
  -17.5541    7.4968   29.3443 O   0  0  0  0  0  0  0  0  0  0  0  0
  -15.5085    8.6689   28.4699 C   0  0  0  0  0  0  0  0  0  0  0  0
  -14.9397    7.9316   29.5405 O   0  0  0  0  0  0  0  0  0  0  0  0
  -14.5930    8.3516   27.2720 C   0  0  0  0  0  0  0  0  0  0  0  0
  -16.9843    6.8846   29.8357 H   0  0  0  0  0  0  0  0  0  0  0  0
  -14.8696    6.9976   29.2885 H   0  0  0  0  0  0  0  0  0  0  0  0
  -14.5686    9.5260   26.4167 N   0  0  0  0  0  0  0  0  0  0  0  0
  -14.3037   10.7781   26.8513 C   0  0  0  0  0  0  0  0  0  0  0  0
  -14.3784   11.6070   25.8157 N   0  0  0  0  0  0  0  0  0  0  0  0
  -14.6211   10.8606   24.7142 C   0  0  0  0  0  0  0  0  0  0  0  0
  -14.7869   11.1262   23.3024 C   0  0  0  0  0  0  0  0  0  0  0  0
  -14.6534   12.4163   22.8126 N   0  0  0  0  0  0  0  0  0  0  0  0
  -15.0670   10.0762   22.5067 N   0  0  0  0  0  0  0  0  0  0  0  0
  -15.1697    8.8200   22.9422 C   0  0  0  0  0  0  0  0  0  0  0  0
  -15.0404    8.4875   24.2159 N   0  0  0  0  0  0  0  0  0  0  0  0
  -14.7623    9.4850   25.1185 C   0  0  0  0  0  0  0  0  0  0  0  0
  -14.4481   13.1574   23.4273 H   0  0  0  0  0  0  0  0  0  0  0  0
  -14.7640   12.5913   21.8501 H   0  0  0  0  0  0  0  0  0  0  0  0
  -17.4808    6.1892   26.4034 C   0  0  0  0  0  0  0  0  0  0  0  0
  -18.7193    6.9048   26.5087 O   0  0  0  0  0  0  0  0  0  0  0  0
  -19.9860    6.0385   26.8355 P   0  0  0  0  0  0  0  0  0  0  0  0
  -19.8744    5.9412   28.2999 O   0  0  0  0  0  0  0  0  0  0  0  0
  -21.1510    6.7543   26.1064 O   0  0  0  0  0  0  0  0  0  0  0  0
  -21.9769    6.2707   26.2642 H   0  0  0  0  0  0  0  0  0  0  0  0
  -19.7129    4.6522   26.0102 O   0  0  0  0  0  0  0  0  0  0  0  0
  -20.1296    4.3661   24.4286 P   0  0  0  0  0  0  0  0  0  0  0  0
  -21.6402    4.2507   24.3907 O   0  0  0  0  0  0  0  0  0  0  0  0
  -19.3671    3.0754   24.0444 O   0  0  0  0  0  0  0  0  0  0  0  0
  -19.6005    5.4559   23.6460 O   0  0  0  0  0  0  0  0  0  0  0  0
  -19.5648    2.8451   23.1232 H   0  0  0  0  0  0  0  0  0  0  0  0
  -19.8255    5.3223   22.7120 H   0  0  0  0  0  0  0  0  0  0  0  0
 29 30  2  0  0  0
 29 31  1  0  0  0
 29 32  1  0  0  0
 29 28  1  0  0  0
 24 25  2  0  0  0
 24 26  1  0  0  0
 24 28  1  0  0  0
 24 23  1  0  0  0
 23 22  1  0  0  0
 22  1  1  0  0  0
  1  2  1  0  0  0
  1  3  1  0  0  0
  2  7  1  0  0  0
  3  4  1  0  0  0
  3  5  1  0  0  0
  5  6  1  0  0  0
  5  7  1  0  0  0
  7 10  1  0  0  0
 10 11  1  0  0  0
 10 19  1  0  0  0
 11 12  2  0  0  0
 12 13  1  0  0  0
 13 14  1  0  0  0
 13 19  2  0  0  0
 14 15  1  0  0  0
 14 16  2  0  0  0
 16 17  1  0  0  0
 17 18  2  0  0  0
 18 19  1  0  0  0
 31 33  1  0  0  0
 32 34  1  0  0  0
 26 27  1  0  0  0
  4  8  1  0  0  0
  6  9  1  0  0  0
 15 20  1  0  0  0
 15 21  1  0  0  0
M  END
> <minimizedAffinity>
-9.91143

$$$$
2ZKJ_ADP_A_501


 34 36  0  0  0  0  0  0  0  0999 V2000
  -18.1625    5.0898   27.1864 C   0  0  0  0  0  0  0  0  0  0  0  0
  -16.8358    5.4889   26.8050 O   0  0  0  0  0  0  0  0  0  0  0  0
  -18.6818    6.2512   28.0514 C   0  0  0  0  0  0  0  0  0  0  0  0
  -19.7566    5.8018   28.9342 O   0  0  0  0  0  0  0  0  0  0  0  0
  -17.3975    6.6609   28.7926 C   0  0  0  0  0  0  0  0  0  0  0  0
  -17.2675    5.7391   29.8635 O   0  0  0  0  0  0  0  0  0  0  0  0
  -16.2407    6.2940   27.8435 C   0  0  0  0  0  0  0  0  0  0  0  0
  -19.4448    5.0549   29.4690 H   0  0  0  0  0  0  0  0  0  0  0  0
  -17.2690    4.8345   29.5135 H   0  0  0  0  0  0  0  0  0  0  0  0
  -15.8036    7.5175   27.1929 N   0  0  0  0  0  0  0  0  0  0  0  0
  -15.9160    7.7561   25.8673 C   0  0  0  0  0  0  0  0  0  0  0  0
  -15.4075    8.9566   25.6118 N   0  0  0  0  0  0  0  0  0  0  0  0
  -15.0395    9.5021   26.7934 C   0  0  0  0  0  0  0  0  0  0  0  0
  -14.4594   10.7578   27.2154 C   0  0  0  0  0  0  0  0  0  0  0  0
  -14.1978   11.7546   26.2880 N   0  0  0  0  0  0  0  0  0  0  0  0
  -14.1973   10.9051   28.5283 N   0  0  0  0  0  0  0  0  0  0  0  0
  -14.4670    9.9786   29.4486 C   0  0  0  0  0  0  0  0  0  0  0  0
  -14.9898    8.8004   29.1516 N   0  0  0  0  0  0  0  0  0  0  0  0
  -15.2886    8.5399   27.8363 C   0  0  0  0  0  0  0  0  0  0  0  0
  -14.4039   11.6080   25.3365 H   0  0  0  0  0  0  0  0  0  0  0  0
  -13.8059   12.6089   26.5809 H   0  0  0  0  0  0  0  0  0  0  0  0
  -19.0569    4.7748   25.9644 C   0  0  0  0  0  0  0  0  0  0  0  0
  -20.3082    4.1829   26.3400 O   0  0  0  0  0  0  0  0  0  0  0  0
  -21.5791    5.0806   26.1390 P   0  0  0  0  0  0  0  0  0  0  0  0
  -22.3987    4.6455   27.2816 O   0  0  0  0  0  0  0  0  0  0  0  0
  -21.0238    6.5180   25.9755 O   0  0  0  0  0  0  0  0  0  0  0  0
  -21.7599    7.1362   25.8456 H   0  0  0  0  0  0  0  0  0  0  0  0
  -22.1244    4.6302   24.6634 O   0  0  0  0  0  0  0  0  0  0  0  0
  -23.6755    4.8210   24.1022 P   0  0  0  0  0  0  0  0  0  0  0  0
  -24.0404    3.5362   23.3865 O   0  0  0  0  0  0  0  0  0  0  0  0
  -23.6194    6.0770   23.1999 O   0  0  0  0  0  0  0  0  0  0  0  0
  -24.5064    5.1185   25.2429 O   0  0  0  0  0  0  0  0  0  0  0  0
  -24.5003    6.2512   22.8331 H   0  0  0  0  0  0  0  0  0  0  0  0
  -25.4242    5.2370   24.9523 H   0  0  0  0  0  0  0  0  0  0  0  0
 29 30  2  0  0  0
 29 31  1  0  0  0
 29 32  1  0  0  0
 29 28  1  0  0  0
 24 25  2  0  0  0
 24 26  1  0  0  0
 24 28  1  0  0  0
 24 23  1  0  0  0
 23 22  1  0  0  0
 22  1  1  0  0  0
  1  2  1  0  0  0
  1  3  1  0  0  0
  2  7  1  0  0  0
  3  4  1  0  0  0
  3  5  1  0  0  0
  5  6  1  0  0  0
  5  7  1  0  0  0
  7 10  1  0  0  0
 10 11  1  0  0  0
 10 19  1  0  0  0
 11 12  2  0  0  0
 12 13  1  0  0  0
 13 14  1  0  0  0
 13 19  2  0  0  0
 14 15  1  0  0  0
 14 16  2  0  0  0
 16 17  1  0  0  0
 17 18  2  0  0  0
 18 19  1  0  0  0
 31 33  1  0  0  0
 32 34  1  0  0  0
 26 27  1  0  0  0
  4  8  1  0  0  0
  6  9  1  0  0  0
 15 20  1  0  0  0
 15 21  1  0  0  0
M  END
> <minimizedAffinity>
-9.64840

$$$$
2ZKJ_ADP_A_501


 34 36  0  0  0  0  0  0  0  0999 V2000
  -18.9261    6.1959   27.3636 C   0  0  0  0  0  0  0  0  0  0  0  0
  -18.0418    6.7549   26.3784 O   0  0  0  0  0  0  0  0  0  0  0  0
  -18.3436    6.6559   28.7111 C   0  0  0  0  0  0  0  0  0  0  0  0
  -18.7767    5.7736   29.7930 O   0  0  0  0  0  0  0  0  0  0  0  0
  -16.8353    6.5863   28.4169 C   0  0  0  0  0  0  0  0  0  0  0  0
  -16.4813    5.2211   28.5729 O   0  0  0  0  0  0  0  0  0  0  0  0
  -16.7002    6.8349   26.9024 C   0  0  0  0  0  0  0  0  0  0  0  0
  -18.5351    4.8586   29.5804 H   0  0  0  0  0  0  0  0  0  0  0  0
  -17.0380    4.6748   27.9962 H   0  0  0  0  0  0  0  0  0  0  0  0
  -16.2871    8.2161   26.7208 N   0  0  0  0  0  0  0  0  0  0  0  0
  -16.3419    9.1597   27.6868 C   0  0  0  0  0  0  0  0  0  0  0  0
  -15.9045   10.3068   27.1791 N   0  0  0  0  0  0  0  0  0  0  0  0
  -15.5069   10.0640   25.9093 C   0  0  0  0  0  0  0  0  0  0  0  0
  -14.9271   10.8472   24.8407 C   0  0  0  0  0  0  0  0  0  0  0  0
  -14.6158   12.1832   25.0418 N   0  0  0  0  0  0  0  0  0  0  0  0
  -14.7068   10.2222   23.6683 N   0  0  0  0  0  0  0  0  0  0  0  0
  -14.9652    8.9316   23.4539 C   0  0  0  0  0  0  0  0  0  0  0  0
  -15.5014    8.1434   24.3708 N   0  0  0  0  0  0  0  0  0  0  0  0
  -15.7766    8.6821   25.6042 C   0  0  0  0  0  0  0  0  0  0  0  0
  -14.7924   12.6039   25.9142 H   0  0  0  0  0  0  0  0  0  0  0  0
  -14.2182   12.7111   24.3121 H   0  0  0  0  0  0  0  0  0  0  0  0
  -20.3970    6.6204   27.1431 C   0  0  0  0  0  0  0  0  0  0  0  0
  -20.8974    6.2154   25.8615 O   0  0  0  0  0  0  0  0  0  0  0  0
  -21.5521    4.7910   25.7999 P   0  0  0  0  0  0  0  0  0  0  0  0
  -22.2960    4.7821   27.0700 O   0  0  0  0  0  0  0  0  0  0  0  0
  -22.2270    4.7280   24.4064 O   0  0  0  0  0  0  0  0  0  0  0  0
  -22.6578    3.8661   24.2945 H   0  0  0  0  0  0  0  0  0  0  0  0
  -20.2601    3.7893   25.7283 O   0  0  0  0  0  0  0  0  0  0  0  0
  -19.0846    3.8042   24.5557 P   0  0  0  0  0  0  0  0  0  0  0  0
  -19.3667    2.6286   23.6419 O   0  0  0  0  0  0  0  0  0  0  0  0
  -17.7485    3.7208   25.3321 O   0  0  0  0  0  0  0  0  0  0  0  0
  -19.1512    5.0888   23.9035 O   0  0  0  0  0  0  0  0  0  0  0  0
  -17.0090    3.7249   24.7044 H   0  0  0  0  0  0  0  0  0  0  0  0
  -18.4756    5.1342   23.2090 H   0  0  0  0  0  0  0  0  0  0  0  0
 29 30  2  0  0  0
 29 31  1  0  0  0
 29 32  1  0  0  0
 29 28  1  0  0  0
 24 25  2  0  0  0
 24 26  1  0  0  0
 24 28  1  0  0  0
 24 23  1  0  0  0
 23 22  1  0  0  0
 22  1  1  0  0  0
  1  2  1  0  0  0
  1  3  1  0  0  0
  2  7  1  0  0  0
  3  4  1  0  0  0
  3  5  1  0  0  0
  5  6  1  0  0  0
  5  7  1  0  0  0
  7 10  1  0  0  0
 10 11  1  0  0  0
 10 19  1  0  0  0
 11 12  2  0  0  0
 12 13  1  0  0  0
 13 14  1  0  0  0
 13 19  2  0  0  0
 14 15  1  0  0  0
 14 16  2  0  0  0
 16 17  1  0  0  0
 17 18  2  0  0  0
 18 19  1  0  0  0
 31 33  1  0  0  0
 32 34  1  0  0  0
 26 27  1  0  0  0
  4  8  1  0  0  0
  6  9  1  0  0  0
 15 20  1  0  0  0
 15 21  1  0  0  0
M  END
> <minimizedAffinity>
-9.64174

$$$$
2ZKJ_ADP_A_501


 34 36  0  0  0  0  0  0  0  0999 V2000
  -16.5616    6.8170   27.1110 C   0  0  0  0  0  0  0  0  0  0  0  0
  -15.2875    7.4537   26.9208 O   0  0  0  0  0  0  0  0  0  0  0  0
  -17.5428    7.9782   27.3460 C   0  0  0  0  0  0  0  0  0  0  0  0
  -18.7301    7.5184   28.0639 O   0  0  0  0  0  0  0  0  0  0  0  0
  -16.6622    8.9462   28.1546 C   0  0  0  0  0  0  0  0  0  0  0  0
  -16.6965    8.4650   29.4890 O   0  0  0  0  0  0  0  0  0  0  0  0
  -15.2179    8.6683   27.6959 C   0  0  0  0  0  0  0  0  0  0  0  0
  -18.4617    7.0897   28.8916 H   0  0  0  0  0  0  0  0  0  0  0  0
  -16.4108    7.5382   29.5059 H   0  0  0  0  0  0  0  0  0  0  0  0
  -14.8476    9.7146   26.7580 N   0  0  0  0  0  0  0  0  0  0  0  0
  -14.3695   10.9259   27.1196 C   0  0  0  0  0  0  0  0  0  0  0  0
  -14.1498   11.6366   26.0189 N   0  0  0  0  0  0  0  0  0  0  0  0
  -14.4243   10.8414   24.9599 C   0  0  0  0  0  0  0  0  0  0  0  0
  -14.3726   10.9821   23.5215 C   0  0  0  0  0  0  0  0  0  0  0  0
  -13.9119   12.1579   22.9495 N   0  0  0  0  0  0  0  0  0  0  0  0
  -14.7823    9.9318   22.7846 N   0  0  0  0  0  0  0  0  0  0  0  0
  -15.1998    8.7769   23.3042 C   0  0  0  0  0  0  0  0  0  0  0  0
  -15.2861    8.5636   24.6068 N   0  0  0  0  0  0  0  0  0  0  0  0
  -14.9014    9.5747   25.4534 C   0  0  0  0  0  0  0  0  0  0  0  0
  -13.6212   12.9034   23.5231 H   0  0  0  0  0  0  0  0  0  0  0  0
  -13.8756   12.2475   21.9698 H   0  0  0  0  0  0  0  0  0  0  0  0
  -16.9478    5.9058   25.9223 C   0  0  0  0  0  0  0  0  0  0  0  0
  -18.3381    6.0064   25.5846 O   0  0  0  0  0  0  0  0  0  0  0  0
  -19.0075    4.6968   25.0383 P   0  0  0  0  0  0  0  0  0  0  0  0
  -19.5537    5.1865   23.7622 O   0  0  0  0  0  0  0  0  0  0  0  0
  -17.9018    3.6163   25.1436 O   0  0  0  0  0  0  0  0  0  0  0  0
  -18.2459    2.7690   24.8200 H   0  0  0  0  0  0  0  0  0  0  0  0
  -20.1124    4.3344   26.1896 O   0  0  0  0  0  0  0  0  0  0  0  0
  -21.1892    5.3992   26.8706 P   0  0  0  0  0  0  0  0  0  0  0  0
  -22.5529    4.7417   26.8032 O   0  0  0  0  0  0  0  0  0  0  0  0
  -21.0478    6.6948   26.0362 O   0  0  0  0  0  0  0  0  0  0  0  0
  -20.7293    5.6699   28.2105 O   0  0  0  0  0  0  0  0  0  0  0  0
  -21.6540    7.3691   26.3807 H   0  0  0  0  0  0  0  0  0  0  0  0
  -21.3367    6.2913   28.6415 H   0  0  0  0  0  0  0  0  0  0  0  0
 29 30  2  0  0  0
 29 31  1  0  0  0
 29 32  1  0  0  0
 29 28  1  0  0  0
 24 25  2  0  0  0
 24 26  1  0  0  0
 24 28  1  0  0  0
 24 23  1  0  0  0
 23 22  1  0  0  0
 22  1  1  0  0  0
  1  2  1  0  0  0
  1  3  1  0  0  0
  2  7  1  0  0  0
  3  4  1  0  0  0
  3  5  1  0  0  0
  5  6  1  0  0  0
  5  7  1  0  0  0
  7 10  1  0  0  0
 10 11  1  0  0  0
 10 19  1  0  0  0
 11 12  2  0  0  0
 12 13  1  0  0  0
 13 14  1  0  0  0
 13 19  2  0  0  0
 14 15  1  0  0  0
 14 16  2  0  0  0
 16 17  1  0  0  0
 17 18  2  0  0  0
 18 19  1  0  0  0
 31 33  1  0  0  0
 32 34  1  0  0  0
 26 27  1  0  0  0
  4  8  1  0  0  0
  6  9  1  0  0  0
 15 20  1  0  0  0
 15 21  1  0  0  0
M  END
> <minimizedAffinity>
-9.47766

$$$$
2ZKJ_ADP_A_501


 34 36  0  0  0  0  0  0  0  0999 V2000
  -16.5163    6.2933   27.2243 C   0  0  0  0  0  0  0  0  0  0  0  0
  -16.0101    7.5757   27.6296 O   0  0  0  0  0  0  0  0  0  0  0  0
  -17.5033    5.8984   28.3363 C   0  0  0  0  0  0  0  0  0  0  0  0
  -17.6970    4.4500   28.3692 O   0  0  0  0  0  0  0  0  0  0  0  0
  -16.7866    6.4592   29.5765 C   0  0  0  0  0  0  0  0  0  0  0  0
  -15.8039    5.4933   29.9154 O   0  0  0  0  0  0  0  0  0  0  0  0
  -15.9672    7.6612   29.0689 C   0  0  0  0  0  0  0  0  0  0  0  0
  -16.8375    4.0110   28.4666 H   0  0  0  0  0  0  0  0  0  0  0  0
  -15.2322    5.3310   29.1488 H   0  0  0  0  0  0  0  0  0  0  0  0
  -16.6997    8.8675   29.4148 N   0  0  0  0  0  0  0  0  0  0  0  0
  -17.4356    9.5878   28.5395 C   0  0  0  0  0  0  0  0  0  0  0  0
  -17.9538   10.6284   29.1826 N   0  0  0  0  0  0  0  0  0  0  0  0
  -17.5988   10.5203   30.4833 C   0  0  0  0  0  0  0  0  0  0  0  0
  -17.8437   11.2825   31.6877 C   0  0  0  0  0  0  0  0  0  0  0  0
  -18.6565   12.4051   31.6523 N   0  0  0  0  0  0  0  0  0  0  0  0
  -17.2569   10.8504   32.8203 N   0  0  0  0  0  0  0  0  0  0  0  0
  -16.4967    9.7572   32.8932 C   0  0  0  0  0  0  0  0  0  0  0  0
  -16.2146    9.0058   31.8419 N   0  0  0  0  0  0  0  0  0  0  0  0
  -16.7552    9.3618   30.6302 C   0  0  0  0  0  0  0  0  0  0  0  0
  -19.0674   12.6888   30.8038 H   0  0  0  0  0  0  0  0  0  0  0  0
  -18.8227   12.9186   32.4756 H   0  0  0  0  0  0  0  0  0  0  0  0
  -17.1491    6.3291   25.8134 C   0  0  0  0  0  0  0  0  0  0  0  0
  -18.5454    6.0021   25.8312 O   0  0  0  0  0  0  0  0  0  0  0  0
  -18.9590    4.7174   25.0311 P   0  0  0  0  0  0  0  0  0  0  0  0
  -18.9932    5.2538   23.6608 O   0  0  0  0  0  0  0  0  0  0  0  0
  -17.9678    3.6238   25.5030 O   0  0  0  0  0  0  0  0  0  0  0  0
  -18.1639    2.7908   25.0462 H   0  0  0  0  0  0  0  0  0  0  0  0
  -20.4114    4.3277   25.6761 O   0  0  0  0  0  0  0  0  0  0  0  0
  -21.3167    5.2905   26.6813 P   0  0  0  0  0  0  0  0  0  0  0  0
  -22.6942    4.6639   26.7597 O   0  0  0  0  0  0  0  0  0  0  0  0
  -21.2746    6.6939   26.0305 O   0  0  0  0  0  0  0  0  0  0  0  0
  -20.6241    5.3552   27.9448 O   0  0  0  0  0  0  0  0  0  0  0  0
  -21.7882    7.3158   26.5694 H   0  0  0  0  0  0  0  0  0  0  0  0
  -21.1260    5.9120   28.5604 H   0  0  0  0  0  0  0  0  0  0  0  0
 29 30  2  0  0  0
 29 31  1  0  0  0
 29 32  1  0  0  0
 29 28  1  0  0  0
 24 25  2  0  0  0
 24 26  1  0  0  0
 24 28  1  0  0  0
 24 23  1  0  0  0
 23 22  1  0  0  0
 22  1  1  0  0  0
  1  2  1  0  0  0
  1  3  1  0  0  0
  2  7  1  0  0  0
  3  4  1  0  0  0
  3  5  1  0  0  0
  5  6  1  0  0  0
  5  7  1  0  0  0
  7 10  1  0  0  0
 10 11  1  0  0  0
 10 19  1  0  0  0
 11 12  2  0  0  0
 12 13  1  0  0  0
 13 14  1  0  0  0
 13 19  2  0  0  0
 14 15  1  0  0  0
 14 16  2  0  0  0
 16 17  1  0  0  0
 17 18  2  0  0  0
 18 19  1  0  0  0
 31 33  1  0  0  0
 32 34  1  0  0  0
 26 27  1  0  0  0
  4  8  1  0  0  0
  6  9  1  0  0  0
 15 20  1  0  0  0
 15 21  1  0  0  0
M  END
> <minimizedAffinity>
-9.43881

$$$$
2ZKJ_ADP_A_501


 34 36  0  0  0  0  0  0  0  0999 V2000
  -17.4249    7.2008   26.5871 C   0  0  0  0  0  0  0  0  0  0  0  0
  -17.6500    7.3917   27.9934 O   0  0  0  0  0  0  0  0  0  0  0  0
  -16.0435    7.8266   26.3284 C   0  0  0  0  0  0  0  0  0  0  0  0
  -15.8944    8.1938   24.9215 O   0  0  0  0  0  0  0  0  0  0  0  0
  -16.0838    9.0304   27.2853 C   0  0  0  0  0  0  0  0  0  0  0  0
  -16.8192   10.0332   26.6020 O   0  0  0  0  0  0  0  0  0  0  0  0
  -17.0139    8.6076   28.4384 C   0  0  0  0  0  0  0  0  0  0  0  0
  -16.6201    8.7831   24.6625 H   0  0  0  0  0  0  0  0  0  0  0  0
  -17.6867    9.6813   26.3478 H   0  0  0  0  0  0  0  0  0  0  0  0
  -16.1738    8.2257   29.5608 N   0  0  0  0  0  0  0  0  0  0  0  0
  -15.8209    6.9531   29.8483 C   0  0  0  0  0  0  0  0  0  0  0  0
  -15.0658    6.9632   30.9414 N   0  0  0  0  0  0  0  0  0  0  0  0
  -14.8861    8.2550   31.2995 C   0  0  0  0  0  0  0  0  0  0  0  0
  -14.1699    8.9461   32.3487 C   0  0  0  0  0  0  0  0  0  0  0  0
  -13.4073    8.2341   33.2617 N   0  0  0  0  0  0  0  0  0  0  0  0
  -14.2776   10.2881   32.3875 N   0  0  0  0  0  0  0  0  0  0  0  0
  -14.9764   11.0035   31.5054 C   0  0  0  0  0  0  0  0  0  0  0  0
  -15.6666   10.4547   30.5196 N   0  0  0  0  0  0  0  0  0  0  0  0
  -15.6344    9.0872   30.3923 C   0  0  0  0  0  0  0  0  0  0  0  0
  -13.3541    7.2530   33.1996 H   0  0  0  0  0  0  0  0  0  0  0  0
  -12.9189    8.7096   33.9721 H   0  0  0  0  0  0  0  0  0  0  0  0
  -17.5232    5.7142   26.1715 C   0  0  0  0  0  0  0  0  0  0  0  0
  -18.2653    5.5331   24.9577 O   0  0  0  0  0  0  0  0  0  0  0  0
  -19.2347    4.3000   24.9242 P   0  0  0  0  0  0  0  0  0  0  0  0
  -20.1386    4.6983   23.8329 O   0  0  0  0  0  0  0  0  0  0  0  0
  -18.2997    3.0659   24.8606 O   0  0  0  0  0  0  0  0  0  0  0  0
  -18.8337    2.2565   24.8371 H   0  0  0  0  0  0  0  0  0  0  0  0
  -19.8905    4.3002   26.4234 O   0  0  0  0  0  0  0  0  0  0  0  0
  -20.9978    5.3961   26.9981 P   0  0  0  0  0  0  0  0  0  0  0  0
  -22.3256    4.6704   27.0807 O   0  0  0  0  0  0  0  0  0  0  0  0
  -20.9568    6.5682   25.9885 O   0  0  0  0  0  0  0  0  0  0  0  0
  -20.5048    5.8725   28.2669 O   0  0  0  0  0  0  0  0  0  0  0  0
  -21.5856    7.2538   26.2633 H   0  0  0  0  0  0  0  0  0  0  0  0
  -21.1289    6.5178   28.6346 H   0  0  0  0  0  0  0  0  0  0  0  0
 29 30  2  0  0  0
 29 31  1  0  0  0
 29 32  1  0  0  0
 29 28  1  0  0  0
 24 25  2  0  0  0
 24 26  1  0  0  0
 24 28  1  0  0  0
 24 23  1  0  0  0
 23 22  1  0  0  0
 22  1  1  0  0  0
  1  2  1  0  0  0
  1  3  1  0  0  0
  2  7  1  0  0  0
  3  4  1  0  0  0
  3  5  1  0  0  0
  5  6  1  0  0  0
  5  7  1  0  0  0
  7 10  1  0  0  0
 10 11  1  0  0  0
 10 19  1  0  0  0
 11 12  2  0  0  0
 12 13  1  0  0  0
 13 14  1  0  0  0
 13 19  2  0  0  0
 14 15  1  0  0  0
 14 16  2  0  0  0
 16 17  1  0  0  0
 17 18  2  0  0  0
 18 19  1  0  0  0
 31 33  1  0  0  0
 32 34  1  0  0  0
 26 27  1  0  0  0
  4  8  1  0  0  0
  6  9  1  0  0  0
 15 20  1  0  0  0
 15 21  1  0  0  0
M  END
> <minimizedAffinity>
-9.27881

$$$$
2ZKJ_ADP_A_501


 34 36  0  0  0  0  0  0  0  0999 V2000
  -15.0323    8.2562   28.0211 C   0  0  0  0  0  0  0  0  0  0  0  0
  -15.6292    6.9491   28.0165 O   0  0  0  0  0  0  0  0  0  0  0  0
  -15.9631    9.1093   27.1423 C   0  0  0  0  0  0  0  0  0  0  0  0
  -15.2556   10.2738   26.6133 O   0  0  0  0  0  0  0  0  0  0  0  0
  -16.3696    8.0864   26.0677 C   0  0  0  0  0  0  0  0  0  0  0  0
  -15.2935    8.0602   25.1431 O   0  0  0  0  0  0  0  0  0  0  0  0
  -16.2982    6.7122   26.7606 C   0  0  0  0  0  0  0  0  0  0  0  0
  -14.4637    9.9814   26.1354 H   0  0  0  0  0  0  0  0  0  0  0  0
  -14.4690    7.8576   25.6123 H   0  0  0  0  0  0  0  0  0  0  0  0
  -17.6558    6.3240   27.1035 N   0  0  0  0  0  0  0  0  0  0  0  0
  -18.2205    6.5222   28.3153 C   0  0  0  0  0  0  0  0  0  0  0  0
  -19.4570    6.0373   28.2870 N   0  0  0  0  0  0  0  0  0  0  0  0
  -19.6926    5.5972   27.0300 C   0  0  0  0  0  0  0  0  0  0  0  0
  -20.8121    4.9978   26.3381 C   0  0  0  0  0  0  0  0  0  0  0  0
  -22.0169    4.8012   26.9952 N   0  0  0  0  0  0  0  0  0  0  0  0
  -20.6269    4.6530   25.0494 N   0  0  0  0  0  0  0  0  0  0  0  0
  -19.4916    4.8584   24.3807 C   0  0  0  0  0  0  0  0  0  0  0  0
  -18.4166    5.3931   24.9357 N   0  0  0  0  0  0  0  0  0  0  0  0
  -18.4921    5.7741   26.2534 C   0  0  0  0  0  0  0  0  0  0  0  0
  -22.1123    5.0670   27.9384 H   0  0  0  0  0  0  0  0  0  0  0  0
  -22.7771    4.3958   26.5188 H   0  0  0  0  0  0  0  0  0  0  0  0
  -14.8437    8.8124   29.4520 C   0  0  0  0  0  0  0  0  0  0  0  0
  -15.0894   10.2234   29.5276 O   0  0  0  0  0  0  0  0  0  0  0  0
  -14.8145   10.8936   30.9193 P   0  0  0  0  0  0  0  0  0  0  0  0
  -14.5744    9.7016   31.7488 O   0  0  0  0  0  0  0  0  0  0  0  0
  -13.7404   11.9727   30.6312 O   0  0  0  0  0  0  0  0  0  0  0  0
  -13.5171   12.4346   31.4545 H   0  0  0  0  0  0  0  0  0  0  0  0
  -16.2042   11.7016   31.2253 O   0  0  0  0  0  0  0  0  0  0  0  0
  -17.7311   11.0495   31.2021 P   0  0  0  0  0  0  0  0  0  0  0  0
  -18.6605   12.0974   31.7805 O   0  0  0  0  0  0  0  0  0  0  0  0
  -17.6193    9.7477   32.0313 O   0  0  0  0  0  0  0  0  0  0  0  0
  -18.0202   10.6932   29.8348 O   0  0  0  0  0  0  0  0  0  0  0  0
  -18.4836    9.3083   32.0614 H   0  0  0  0  0  0  0  0  0  0  0  0
  -18.9085   10.3072   29.7821 H   0  0  0  0  0  0  0  0  0  0  0  0
 29 30  2  0  0  0
 29 31  1  0  0  0
 29 32  1  0  0  0
 29 28  1  0  0  0
 24 25  2  0  0  0
 24 26  1  0  0  0
 24 28  1  0  0  0
 24 23  1  0  0  0
 23 22  1  0  0  0
 22  1  1  0  0  0
  1  2  1  0  0  0
  1  3  1  0  0  0
  2  7  1  0  0  0
  3  4  1  0  0  0
  3  5  1  0  0  0
  5  6  1  0  0  0
  5  7  1  0  0  0
  7 10  1  0  0  0
 10 11  1  0  0  0
 10 19  1  0  0  0
 11 12  2  0  0  0
 12 13  1  0  0  0
 13 14  1  0  0  0
 13 19  2  0  0  0
 14 15  1  0  0  0
 14 16  2  0  0  0
 16 17  1  0  0  0
 17 18  2  0  0  0
 18 19  1  0  0  0
 31 33  1  0  0  0
 32 34  1  0  0  0
 26 27  1  0  0  0
  4  8  1  0  0  0
  6  9  1  0  0  0
 15 20  1  0  0  0
 15 21  1  0  0  0
M  END
> <minimizedAffinity>
-9.26122

$$$$
2ZKJ_ADP_A_501


 34 36  0  0  0  0  0  0  0  0999 V2000
  -17.6427    5.8260   27.3403 C   0  0  0  0  0  0  0  0  0  0  0  0
  -16.2996    6.3313   27.4146 O   0  0  0  0  0  0  0  0  0  0  0  0
  -18.3339    6.3791   28.5985 C   0  0  0  0  0  0  0  0  0  0  0  0
  -19.4926    5.5630   28.9564 O   0  0  0  0  0  0  0  0  0  0  0  0
  -17.1844    6.3094   29.6183 C   0  0  0  0  0  0  0  0  0  0  0  0
  -17.1513    4.9616   30.0608 O   0  0  0  0  0  0  0  0  0  0  0  0
  -15.8927    6.4616   28.7924 C   0  0  0  0  0  0  0  0  0  0  0  0
  -19.2167    4.6392   29.0636 H   0  0  0  0  0  0  0  0  0  0  0  0
  -17.0581    4.3724   29.2959 H   0  0  0  0  0  0  0  0  0  0  0  0
  -15.4370    7.8333   28.9415 N   0  0  0  0  0  0  0  0  0  0  0  0
  -15.3154    8.7096   27.9198 C   0  0  0  0  0  0  0  0  0  0  0  0
  -14.8625    9.8605   28.4050 N   0  0  0  0  0  0  0  0  0  0  0  0
  -14.7676    9.7265   29.7476 C   0  0  0  0  0  0  0  0  0  0  0  0
  -14.3768   10.5820   30.8461 C   0  0  0  0  0  0  0  0  0  0  0  0
  -14.0230   11.9022   30.6133 N   0  0  0  0  0  0  0  0  0  0  0  0
  -14.3794   10.0411   32.0795 N   0  0  0  0  0  0  0  0  0  0  0  0
  -14.7451    8.7853   32.3396 C   0  0  0  0  0  0  0  0  0  0  0  0
  -15.1095    7.9322   31.3967 N   0  0  0  0  0  0  0  0  0  0  0  0
  -15.1336    8.3777   30.0974 C   0  0  0  0  0  0  0  0  0  0  0  0
  -14.0339   12.2604   29.6964 H   0  0  0  0  0  0  0  0  0  0  0  0
  -13.7610   12.4814   31.3650 H   0  0  0  0  0  0  0  0  0  0  0  0
  -18.3468    6.2171   26.0198 C   0  0  0  0  0  0  0  0  0  0  0  0
  -18.2173    5.2066   25.0103 O   0  0  0  0  0  0  0  0  0  0  0  0
  -19.1870    3.9800   25.1396 P   0  0  0  0  0  0  0  0  0  0  0  0
  -19.7282    3.9201   23.7721 O   0  0  0  0  0  0  0  0  0  0  0  0
  -18.3232    2.8605   25.7736 O   0  0  0  0  0  0  0  0  0  0  0  0
  -18.8612    2.0612   25.8855 H   0  0  0  0  0  0  0  0  0  0  0  0
  -20.2396    4.4570   26.2981 O   0  0  0  0  0  0  0  0  0  0  0  0
  -21.7634    5.0620   26.0352 P   0  0  0  0  0  0  0  0  0  0  0  0
  -22.6353    4.5508   27.1643 O   0  0  0  0  0  0  0  0  0  0  0  0
  -22.1549    4.5532   24.6271 O   0  0  0  0  0  0  0  0  0  0  0  0
  -21.6470    6.4986   25.9825 O   0  0  0  0  0  0  0  0  0  0  0  0
  -23.0436    4.8714   24.4039 H   0  0  0  0  0  0  0  0  0  0  0  0
  -22.5219    6.8885   25.8295 H   0  0  0  0  0  0  0  0  0  0  0  0
 29 30  2  0  0  0
 29 31  1  0  0  0
 29 32  1  0  0  0
 29 28  1  0  0  0
 24 25  2  0  0  0
 24 26  1  0  0  0
 24 28  1  0  0  0
 24 23  1  0  0  0
 23 22  1  0  0  0
 22  1  1  0  0  0
  1  2  1  0  0  0
  1  3  1  0  0  0
  2  7  1  0  0  0
  3  4  1  0  0  0
  3  5  1  0  0  0
  5  6  1  0  0  0
  5  7  1  0  0  0
  7 10  1  0  0  0
 10 11  1  0  0  0
 10 19  1  0  0  0
 11 12  2  0  0  0
 12 13  1  0  0  0
 13 14  1  0  0  0
 13 19  2  0  0  0
 14 15  1  0  0  0
 14 16  2  0  0  0
 16 17  1  0  0  0
 17 18  2  0  0  0
 18 19  1  0  0  0
 31 33  1  0  0  0
 32 34  1  0  0  0
 26 27  1  0  0  0
  4  8  1  0  0  0
  6  9  1  0  0  0
 15 20  1  0  0  0
 15 21  1  0  0  0
M  END
> <minimizedAffinity>
-9.05288

$$$$
