3AID_ARQ_A_401


 40 42  0  0  0  0  0  0  0  0999 V2000
    5.0012    0.0222   14.3464 C   0  0  0  0  0  0  0  0  0  0  0  0
    4.6518    0.5817   15.6213 O   0  0  0  0  0  0  0  0  0  0  0  0
    3.6905    0.5353   15.7423 H   0  0  0  0  0  0  0  0  0  0  0  0
    4.3830    0.8033   13.1495 C   0  0  0  0  0  0  0  0  0  0  0  0
    6.1517    0.7552   11.3708 C   0  0  0  0  0  0  0  0  0  0  0  0
    5.9994   -0.3713   11.0185 O   0  0  0  0  0  0  0  0  0  0  0  0
    5.4078    1.3864   12.2808 N   0  0  0  0  0  0  0  0  0  0  0  0
    5.5655    2.3532   12.3795 H   0  0  0  0  0  0  0  0  0  0  0  0
    7.1287    1.5336   10.9143 O   0  0  0  0  0  0  0  0  0  0  0  0
    7.0640    2.1416    9.6240 C   0  0  0  0  0  0  0  0  0  0  0  0
    5.5886    2.2951    9.1348 C   0  0  0  0  0  0  0  0  0  0  0  0
    7.5835    3.5767    9.8069 C   0  0  0  0  0  0  0  0  0  0  0  0
    7.9878    1.3754    8.6534 C   0  0  0  0  0  0  0  0  0  0  0  0
    3.4071   -0.0556   12.3223 C   0  0  0  0  0  0  0  0  0  0  0  0
    2.0319    0.5405   12.2329 C   0  0  0  0  0  0  0  0  0  0  0  0
    0.9326   -0.1191   12.8272 C   0  0  0  0  0  0  0  0  0  0  0  0
   -0.3412    0.4849   12.7714 C   0  0  0  0  0  0  0  0  0  0  0  0
   -0.4903    1.7356   12.1232 C   0  0  0  0  0  0  0  0  0  0  0  0
    1.8806    1.7892   11.5826 C   0  0  0  0  0  0  0  0  0  0  0  0
    0.6100    2.4007   11.5287 C   0  0  0  0  0  0  0  0  0  0  0  0
    4.5630   -1.4622   14.2686 C   0  0  0  0  0  0  0  0  0  0  0  0
    5.6376   -2.4934   14.1576 N   0  0  0  0  0  0  0  0  0  0  0  0
    5.5476   -3.2649   12.8972 C   0  0  0  0  0  0  0  0  0  0  0  0
    5.3940   -3.4173   15.2404 N   0  0  0  0  0  0  0  0  0  0  0  0
    5.3166   -3.0787   16.5431 C   0  0  0  0  0  0  0  0  0  0  0  0
    5.5082   -1.9279   16.9468 O   0  0  0  0  0  0  0  0  0  0  0  0
    5.2754   -4.3670   15.0097 H   0  0  0  0  0  0  0  0  0  0  0  0
    5.0052   -4.1919   17.4655 C   0  0  0  0  0  0  0  0  0  0  0  0
    3.6801   -4.2845   17.9735 C   0  0  0  0  0  0  0  0  0  0  0  0
    3.3225   -5.2740   18.9034 C   0  0  0  0  0  0  0  0  0  0  0  0
    4.3272   -6.1559   19.3300 C   0  0  0  0  0  0  0  0  0  0  0  0
    5.9786   -5.1512   17.8478 C   0  0  0  0  0  0  0  0  0  0  0  0
    5.6372   -6.1407   18.7917 C   0  0  0  0  0  0  0  0  0  0  0  0
    6.9166   -1.7122   14.1926 C   0  0  0  0  0  0  0  0  0  0  0  0
    8.1924   -2.4618   14.5405 C   0  0  0  0  0  0  0  0  0  0  0  0
    8.7466   -3.3735   13.6176 C   0  0  0  0  0  0  0  0  0  0  0  0
    9.9868   -4.0106   13.8794 C   0  0  0  0  0  0  0  0  0  0  0  0
   10.6826   -3.7037   15.0721 C   0  0  0  0  0  0  0  0  0  0  0  0
    8.8220   -2.2688   15.7846 C   0  0  0  0  0  0  0  0  0  0  0  0
   10.0714   -2.8917   16.0529 C   0  0  0  0  0  0  0  0  0  0  0  0
 10 11  1  0  0  0
 10 12  1  0  0  0
 10 13  1  0  0  0
 10  9  1  0  0  0
  9  5  1  0  0  0
  5  6  2  0  0  0
  5  7  1  0  0  0
  7  4  1  0  0  0
  4 14  1  0  0  0
  4  1  1  0  0  0
 14 15  1  0  0  0
 15 16  2  0  0  0
 15 19  1  0  0  0
 16 17  1  0  0  0
 17 18  2  0  0  0
 18 20  1  0  0  0
 19 20  2  0  0  0
  1  2  1  0  0  0
  1 21  1  0  0  0
 21 22  1  0  0  0
 22 23  1  0  0  0
 22 34  1  0  0  0
 22 24  1  0  0  0
 34 35  1  0  0  0
 35 36  2  0  0  0
 35 39  1  0  0  0
 36 37  1  0  0  0
 37 38  2  0  0  0
 38 40  1  0  0  0
 39 40  2  0  0  0
 24 25  1  0  0  0
 25 26  2  0  0  0
 25 28  1  0  0  0
 28 29  2  0  0  0
 28 32  1  0  0  0
 29 30  1  0  0  0
 30 31  2  0  0  0
 31 33  1  0  0  0
 32 33  2  0  0  0
  7  8  1  0  0  0
  2  3  1  0  0  0
 24 27  1  0  0  0
M  CHG 1  22   1
M  END
> <minimizedAffinity>
-9.06270

$$$$
3AID_ARQ_A_401


 40 42  0  0  0  0  0  0  0  0999 V2000
    4.4349   -1.1718   12.1619 C   0  0  0  0  0  0  0  0  0  0  0  0
    5.3907   -1.9400   11.4158 O   0  0  0  0  0  0  0  0  0  0  0  0
    6.1573   -1.3847   11.2040 H   0  0  0  0  0  0  0  0  0  0  0  0
    3.8742    0.0421   11.3638 C   0  0  0  0  0  0  0  0  0  0  0  0
    5.1157    1.9607   10.3286 C   0  0  0  0  0  0  0  0  0  0  0  0
    4.6111    2.8389   10.9535 O   0  0  0  0  0  0  0  0  0  0  0  0
    4.8900    0.6580   10.5073 N   0  0  0  0  0  0  0  0  0  0  0  0
    5.4720    0.0413   10.0071 H   0  0  0  0  0  0  0  0  0  0  0  0
    5.9627    2.1761    9.3261 O   0  0  0  0  0  0  0  0  0  0  0  0
    7.3634    2.3424    9.5486 C   0  0  0  0  0  0  0  0  0  0  0  0
    7.7794    1.8609   10.9751 C   0  0  0  0  0  0  0  0  0  0  0  0
    8.0628    1.3809    8.5744 C   0  0  0  0  0  0  0  0  0  0  0  0
    7.7621    3.7965    9.2181 C   0  0  0  0  0  0  0  0  0  0  0  0
    2.6253   -0.3188   10.5365 C   0  0  0  0  0  0  0  0  0  0  0  0
    1.4282    0.5172   10.8863 C   0  0  0  0  0  0  0  0  0  0  0  0
    0.6774    0.2301   12.0485 C   0  0  0  0  0  0  0  0  0  0  0  0
   -0.4142    1.0595   12.3817 C   0  0  0  0  0  0  0  0  0  0  0  0
   -0.7328    2.1589   11.5470 C   0  0  0  0  0  0  0  0  0  0  0  0
    1.1065    1.6147   10.0514 C   0  0  0  0  0  0  0  0  0  0  0  0
    0.0193    2.4510   10.3829 C   0  0  0  0  0  0  0  0  0  0  0  0
    5.0619   -0.6669   13.4860 C   0  0  0  0  0  0  0  0  0  0  0  0
    5.1060   -1.6196   14.6354 N   0  0  0  0  0  0  0  0  0  0  0  0
    5.5010   -0.9572   15.8990 C   0  0  0  0  0  0  0  0  0  0  0  0
    6.1463   -2.5659   14.3076 N   0  0  0  0  0  0  0  0  0  0  0  0
    7.4332   -2.2466   14.0632 C   0  0  0  0  0  0  0  0  0  0  0  0
    7.8395   -1.0812   14.0403 O   0  0  0  0  0  0  0  0  0  0  0  0
    5.8968   -3.5170   14.2589 H   0  0  0  0  0  0  0  0  0  0  0  0
    8.3279   -3.3947   13.8013 C   0  0  0  0  0  0  0  0  0  0  0  0
    7.7664   -4.5505   13.1917 C   0  0  0  0  0  0  0  0  0  0  0  0
    8.5350   -5.7044   12.9692 C   0  0  0  0  0  0  0  0  0  0  0  0
    9.8733   -5.6829   13.3906 C   0  0  0  0  0  0  0  0  0  0  0  0
    9.7064   -3.3703   14.1372 C   0  0  0  0  0  0  0  0  0  0  0  0
   10.4858   -4.5268   13.9330 C   0  0  0  0  0  0  0  0  0  0  0  0
    3.7062   -2.1447   14.7454 C   0  0  0  0  0  0  0  0  0  0  0  0
    3.4895   -3.4133   15.5542 C   0  0  0  0  0  0  0  0  0  0  0  0
    3.2164   -3.3287   16.9357 C   0  0  0  0  0  0  0  0  0  0  0  0
    2.9150   -4.4916   17.6903 C   0  0  0  0  0  0  0  0  0  0  0  0
    2.8652   -5.7452   17.0369 C   0  0  0  0  0  0  0  0  0  0  0  0
    3.5745   -4.6782   14.9425 C   0  0  0  0  0  0  0  0  0  0  0  0
    3.2619   -5.8492   15.6854 C   0  0  0  0  0  0  0  0  0  0  0  0
 10 11  1  0  0  0
 10 12  1  0  0  0
 10 13  1  0  0  0
 10  9  1  0  0  0
  9  5  1  0  0  0
  5  6  2  0  0  0
  5  7  1  0  0  0
  7  4  1  0  0  0
  4 14  1  0  0  0
  4  1  1  0  0  0
 14 15  1  0  0  0
 15 16  2  0  0  0
 15 19  1  0  0  0
 16 17  1  0  0  0
 17 18  2  0  0  0
 18 20  1  0  0  0
 19 20  2  0  0  0
  1  2  1  0  0  0
  1 21  1  0  0  0
 21 22  1  0  0  0
 22 23  1  0  0  0
 22 34  1  0  0  0
 22 24  1  0  0  0
 34 35  1  0  0  0
 35 36  2  0  0  0
 35 39  1  0  0  0
 36 37  1  0  0  0
 37 38  2  0  0  0
 38 40  1  0  0  0
 39 40  2  0  0  0
 24 25  1  0  0  0
 25 26  2  0  0  0
 25 28  1  0  0  0
 28 29  2  0  0  0
 28 32  1  0  0  0
 29 30  1  0  0  0
 30 31  2  0  0  0
 31 33  1  0  0  0
 32 33  2  0  0  0
  7  8  1  0  0  0
  2  3  1  0  0  0
 24 27  1  0  0  0
M  CHG 1  22   1
M  END
> <minimizedAffinity>
-9.03978

$$$$
3AID_ARQ_A_401


 40 42  0  0  0  0  0  0  0  0999 V2000
    5.2154   -1.5514   16.3119 C   0  0  0  0  0  0  0  0  0  0  0  0
    5.5622   -0.5981   17.3275 O   0  0  0  0  0  0  0  0  0  0  0  0
    6.4465   -0.7994   17.6715 H   0  0  0  0  0  0  0  0  0  0  0  0
    5.1418   -3.0115   16.8480 C   0  0  0  0  0  0  0  0  0  0  0  0
    7.1446   -4.5198   16.9381 C   0  0  0  0  0  0  0  0  0  0  0  0
    6.9102   -5.1620   15.9640 O   0  0  0  0  0  0  0  0  0  0  0  0
    6.4306   -3.4768   17.3651 N   0  0  0  0  0  0  0  0  0  0  0  0
    6.8133   -2.9618   18.1118 H   0  0  0  0  0  0  0  0  0  0  0  0
    8.1533   -4.7905   17.7616 O   0  0  0  0  0  0  0  0  0  0  0  0
    9.4801   -5.0044   17.2793 C   0  0  0  0  0  0  0  0  0  0  0  0
    9.9819   -3.7974   16.4242 C   0  0  0  0  0  0  0  0  0  0  0  0
   10.3832   -5.0254   18.5230 C   0  0  0  0  0  0  0  0  0  0  0  0
    9.5481   -6.3714   16.5658 C   0  0  0  0  0  0  0  0  0  0  0  0
    4.0413   -3.1977   17.9104 C   0  0  0  0  0  0  0  0  0  0  0  0
    3.6121   -4.6281   18.0659 C   0  0  0  0  0  0  0  0  0  0  0  0
    3.2922   -5.4008   16.9269 C   0  0  0  0  0  0  0  0  0  0  0  0
    2.9382   -6.7561   17.0952 C   0  0  0  0  0  0  0  0  0  0  0  0
    2.9114   -7.3114   18.3981 C   0  0  0  0  0  0  0  0  0  0  0  0
    3.5818   -5.1840   19.3679 C   0  0  0  0  0  0  0  0  0  0  0  0
    3.2340   -6.5404   19.5417 C   0  0  0  0  0  0  0  0  0  0  0  0
    6.2287   -1.4875   15.1412 C   0  0  0  0  0  0  0  0  0  0  0  0
    5.8047   -2.0630   13.8300 N   0  0  0  0  0  0  0  0  0  0  0  0
    4.4600   -2.6788   13.8955 C   0  0  0  0  0  0  0  0  0  0  0  0
    6.7456   -3.1236   13.5559 N   0  0  0  0  0  0  0  0  0  0  0  0
    6.7172   -3.9208   12.4691 C   0  0  0  0  0  0  0  0  0  0  0  0
    5.8288   -3.8540   11.6146 O   0  0  0  0  0  0  0  0  0  0  0  0
    7.4627   -3.2761   14.2130 H   0  0  0  0  0  0  0  0  0  0  0  0
    7.8192   -4.9031   12.3799 C   0  0  0  0  0  0  0  0  0  0  0  0
    7.7300   -5.9148   11.3843 C   0  0  0  0  0  0  0  0  0  0  0  0
    8.7031   -6.9215   11.2777 C   0  0  0  0  0  0  0  0  0  0  0  0
    9.7568   -6.9051   12.2044 C   0  0  0  0  0  0  0  0  0  0  0  0
    8.9415   -4.8603   13.2472 C   0  0  0  0  0  0  0  0  0  0  0  0
    9.9180   -5.8730   13.1609 C   0  0  0  0  0  0  0  0  0  0  0  0
    5.7903   -0.8946   12.8909 C   0  0  0  0  0  0  0  0  0  0  0  0
    4.4412   -0.4165   12.3793 C   0  0  0  0  0  0  0  0  0  0  0  0
    4.0514   -0.6989   11.0533 C   0  0  0  0  0  0  0  0  0  0  0  0
    2.7592   -0.3483   10.5844 C   0  0  0  0  0  0  0  0  0  0  0  0
    1.8469    0.2698   11.4712 C   0  0  0  0  0  0  0  0  0  0  0  0
    3.5785    0.3221   13.2110 C   0  0  0  0  0  0  0  0  0  0  0  0
    2.2766    0.6676   12.7564 C   0  0  0  0  0  0  0  0  0  0  0  0
 10 11  1  0  0  0
 10 12  1  0  0  0
 10 13  1  0  0  0
 10  9  1  0  0  0
  9  5  1  0  0  0
  5  6  2  0  0  0
  5  7  1  0  0  0
  7  4  1  0  0  0
  4 14  1  0  0  0
  4  1  1  0  0  0
 14 15  1  0  0  0
 15 16  2  0  0  0
 15 19  1  0  0  0
 16 17  1  0  0  0
 17 18  2  0  0  0
 18 20  1  0  0  0
 19 20  2  0  0  0
  1  2  1  0  0  0
  1 21  1  0  0  0
 21 22  1  0  0  0
 22 23  1  0  0  0
 22 34  1  0  0  0
 22 24  1  0  0  0
 34 35  1  0  0  0
 35 36  2  0  0  0
 35 39  1  0  0  0
 36 37  1  0  0  0
 37 38  2  0  0  0
 38 40  1  0  0  0
 39 40  2  0  0  0
 24 25  1  0  0  0
 25 26  2  0  0  0
 25 28  1  0  0  0
 28 29  2  0  0  0
 28 32  1  0  0  0
 29 30  1  0  0  0
 30 31  2  0  0  0
 31 33  1  0  0  0
 32 33  2  0  0  0
  7  8  1  0  0  0
  2  3  1  0  0  0
 24 27  1  0  0  0
M  CHG 1  22   1
M  END
> <minimizedAffinity>
-8.99792

$$$$
3AID_ARQ_A_401


 40 42  0  0  0  0  0  0  0  0999 V2000
    4.5971   -2.2611   15.5188 C   0  0  0  0  0  0  0  0  0  0  0  0
    3.3808   -1.5390   15.2747 O   0  0  0  0  0  0  0  0  0  0  0  0
    3.0527   -1.7492   14.3864 H   0  0  0  0  0  0  0  0  0  0  0  0
    5.7426   -1.8719   14.5384 C   0  0  0  0  0  0  0  0  0  0  0  0
    5.4067   -1.0552   12.1902 C   0  0  0  0  0  0  0  0  0  0  0  0
    5.7648   -2.0377   11.6220 O   0  0  0  0  0  0  0  0  0  0  0  0
    5.2962   -0.9259   13.5134 N   0  0  0  0  0  0  0  0  0  0  0  0
    4.8661   -0.1017   13.8374 H   0  0  0  0  0  0  0  0  0  0  0  0
    5.0971    0.0755   11.5620 O   0  0  0  0  0  0  0  0  0  0  0  0
    6.0788    1.0753   11.2875 C   0  0  0  0  0  0  0  0  0  0  0  0
    7.3468    0.8961   12.1817 C   0  0  0  0  0  0  0  0  0  0  0  0
    6.5552    0.8158    9.8492 C   0  0  0  0  0  0  0  0  0  0  0  0
    5.4226    2.4698   11.3728 C   0  0  0  0  0  0  0  0  0  0  0  0
    6.9849   -1.3236   15.2667 C   0  0  0  0  0  0  0  0  0  0  0  0
    8.2164   -2.1489   15.0284 C   0  0  0  0  0  0  0  0  0  0  0  0
    9.2517   -2.1725   15.9899 C   0  0  0  0  0  0  0  0  0  0  0  0
   10.3772   -2.9931   15.7653 C   0  0  0  0  0  0  0  0  0  0  0  0
   10.4448   -3.7734   14.5849 C   0  0  0  0  0  0  0  0  0  0  0  0
    8.2871   -2.9271   13.8475 C   0  0  0  0  0  0  0  0  0  0  0  0
    9.4077   -3.7540   13.6205 C   0  0  0  0  0  0  0  0  0  0  0  0
    4.3467   -3.7879   15.4316 C   0  0  0  0  0  0  0  0  0  0  0  0
    4.2214   -4.5406   16.7155 N   0  0  0  0  0  0  0  0  0  0  0  0
    3.6819   -3.7006   17.8086 C   0  0  0  0  0  0  0  0  0  0  0  0
    5.5714   -4.8996   17.0812 N   0  0  0  0  0  0  0  0  0  0  0  0
    6.5235   -5.3085   16.2186 C   0  0  0  0  0  0  0  0  0  0  0  0
    6.3079   -5.4726   15.0142 O   0  0  0  0  0  0  0  0  0  0  0  0
    5.8152   -4.8415   18.0333 H   0  0  0  0  0  0  0  0  0  0  0  0
    7.8486   -5.5696   16.8210 C   0  0  0  0  0  0  0  0  0  0  0  0
    8.7256   -6.4587   16.1405 C   0  0  0  0  0  0  0  0  0  0  0  0
    9.9741   -6.8075   16.6801 C   0  0  0  0  0  0  0  0  0  0  0  0
   10.3161   -6.2630   17.9274 C   0  0  0  0  0  0  0  0  0  0  0  0
    8.2576   -4.9655   18.0382 C   0  0  0  0  0  0  0  0  0  0  0  0
    9.5018   -5.3182   18.5985 C   0  0  0  0  0  0  0  0  0  0  0  0
    3.2703   -5.6577   16.4077 C   0  0  0  0  0  0  0  0  0  0  0  0
    3.4240   -6.9516   17.1905 C   0  0  0  0  0  0  0  0  0  0  0  0
    2.7518   -7.1140   18.4201 C   0  0  0  0  0  0  0  0  0  0  0  0
    2.8021   -8.3472   19.1196 C   0  0  0  0  0  0  0  0  0  0  0  0
    3.5171   -9.4309   18.5581 C   0  0  0  0  0  0  0  0  0  0  0  0
    4.2455   -7.9886   16.7095 C   0  0  0  0  0  0  0  0  0  0  0  0
    4.2935   -9.2330   17.3951 C   0  0  0  0  0  0  0  0  0  0  0  0
 10 11  1  0  0  0
 10 12  1  0  0  0
 10 13  1  0  0  0
 10  9  1  0  0  0
  9  5  1  0  0  0
  5  6  2  0  0  0
  5  7  1  0  0  0
  7  4  1  0  0  0
  4 14  1  0  0  0
  4  1  1  0  0  0
 14 15  1  0  0  0
 15 16  2  0  0  0
 15 19  1  0  0  0
 16 17  1  0  0  0
 17 18  2  0  0  0
 18 20  1  0  0  0
 19 20  2  0  0  0
  1  2  1  0  0  0
  1 21  1  0  0  0
 21 22  1  0  0  0
 22 23  1  0  0  0
 22 34  1  0  0  0
 22 24  1  0  0  0
 34 35  1  0  0  0
 35 36  2  0  0  0
 35 39  1  0  0  0
 36 37  1  0  0  0
 37 38  2  0  0  0
 38 40  1  0  0  0
 39 40  2  0  0  0
 24 25  1  0  0  0
 25 26  2  0  0  0
 25 28  1  0  0  0
 28 29  2  0  0  0
 28 32  1  0  0  0
 29 30  1  0  0  0
 30 31  2  0  0  0
 31 33  1  0  0  0
 32 33  2  0  0  0
  7  8  1  0  0  0
  2  3  1  0  0  0
 24 27  1  0  0  0
M  CHG 1  22   1
M  END
> <minimizedAffinity>
-8.97972

$$$$
3AID_ARQ_A_401


 40 42  0  0  0  0  0  0  0  0999 V2000
    5.4362   -2.3599   16.5257 C   0  0  0  0  0  0  0  0  0  0  0  0
    4.7966   -1.1446   16.9434 O   0  0  0  0  0  0  0  0  0  0  0  0
    4.1787   -0.8515   16.2555 H   0  0  0  0  0  0  0  0  0  0  0  0
    6.2881   -2.1858   15.2339 C   0  0  0  0  0  0  0  0  0  0  0  0
    5.2413   -1.4826   13.0650 C   0  0  0  0  0  0  0  0  0  0  0  0
    5.1347   -2.5626   12.5766 O   0  0  0  0  0  0  0  0  0  0  0  0
    5.6860   -1.2337   14.2980 N   0  0  0  0  0  0  0  0  0  0  0  0
    5.5995   -0.3055   14.6144 H   0  0  0  0  0  0  0  0  0  0  0  0
    4.9554   -0.3589   12.4134 O   0  0  0  0  0  0  0  0  0  0  0  0
    3.6132    0.1079   12.2741 C   0  0  0  0  0  0  0  0  0  0  0  0
    2.7211   -0.3420   13.4747 C   0  0  0  0  0  0  0  0  0  0  0  0
    3.6867    1.6401   12.3735 C   0  0  0  0  0  0  0  0  0  0  0  0
    3.0753   -0.2965   10.8851 C   0  0  0  0  0  0  0  0  0  0  0  0
    7.7464   -1.7894   15.5349 C   0  0  0  0  0  0  0  0  0  0  0  0
    8.7434   -2.7894   15.0248 C   0  0  0  0  0  0  0  0  0  0  0  0
    8.4139   -3.6281   13.9364 C   0  0  0  0  0  0  0  0  0  0  0  0
    9.3845   -4.5261   13.4444 C   0  0  0  0  0  0  0  0  0  0  0  0
   10.6645   -4.5672   14.0499 C   0  0  0  0  0  0  0  0  0  0  0  0
   10.0223   -2.8341   15.6310 C   0  0  0  0  0  0  0  0  0  0  0  0
   10.9989   -3.7262   15.1394 C   0  0  0  0  0  0  0  0  0  0  0  0
    4.3839   -3.4743   16.2973 C   0  0  0  0  0  0  0  0  0  0  0  0
    4.3146   -4.5743   17.3051 N   0  0  0  0  0  0  0  0  0  0  0  0
    3.7742   -4.1129   18.6039 C   0  0  0  0  0  0  0  0  0  0  0  0
    5.6842   -4.9723   17.5312 N   0  0  0  0  0  0  0  0  0  0  0  0
    6.5152   -5.4553   16.5858 C   0  0  0  0  0  0  0  0  0  0  0  0
    6.1563   -5.6609   15.4227 O   0  0  0  0  0  0  0  0  0  0  0  0
    6.0382   -4.8841   18.4456 H   0  0  0  0  0  0  0  0  0  0  0  0
    7.8909   -5.7446   17.0451 C   0  0  0  0  0  0  0  0  0  0  0  0
    8.3941   -5.0018   18.1486 C   0  0  0  0  0  0  0  0  0  0  0  0
    9.7118   -5.1723   18.6029 C   0  0  0  0  0  0  0  0  0  0  0  0
   10.5217   -6.0879   17.9136 C   0  0  0  0  0  0  0  0  0  0  0  0
    8.7044   -6.7268   16.4227 C   0  0  0  0  0  0  0  0  0  0  0  0
   10.0336   -6.8977   16.8590 C   0  0  0  0  0  0  0  0  0  0  0  0
    3.3938   -5.5882   16.6957 C   0  0  0  0  0  0  0  0  0  0  0  0
    3.3372   -6.9656   17.3360 C   0  0  0  0  0  0  0  0  0  0  0  0
    4.0465   -8.0396   16.7585 C   0  0  0  0  0  0  0  0  0  0  0  0
    4.0875   -9.3086   17.3913 C   0  0  0  0  0  0  0  0  0  0  0  0
    3.4267   -9.4845   18.6295 C   0  0  0  0  0  0  0  0  0  0  0  0
    2.5692   -7.1879   18.4946 C   0  0  0  0  0  0  0  0  0  0  0  0
    2.6128   -8.4515   19.1444 C   0  0  0  0  0  0  0  0  0  0  0  0
 10 11  1  0  0  0
 10 12  1  0  0  0
 10 13  1  0  0  0
 10  9  1  0  0  0
  9  5  1  0  0  0
  5  6  2  0  0  0
  5  7  1  0  0  0
  7  4  1  0  0  0
  4 14  1  0  0  0
  4  1  1  0  0  0
 14 15  1  0  0  0
 15 16  2  0  0  0
 15 19  1  0  0  0
 16 17  1  0  0  0
 17 18  2  0  0  0
 18 20  1  0  0  0
 19 20  2  0  0  0
  1  2  1  0  0  0
  1 21  1  0  0  0
 21 22  1  0  0  0
 22 23  1  0  0  0
 22 34  1  0  0  0
 22 24  1  0  0  0
 34 35  1  0  0  0
 35 36  2  0  0  0
 35 39  1  0  0  0
 36 37  1  0  0  0
 37 38  2  0  0  0
 38 40  1  0  0  0
 39 40  2  0  0  0
 24 25  1  0  0  0
 25 26  2  0  0  0
 25 28  1  0  0  0
 28 29  2  0  0  0
 28 32  1  0  0  0
 29 30  1  0  0  0
 30 31  2  0  0  0
 31 33  1  0  0  0
 32 33  2  0  0  0
  7  8  1  0  0  0
  2  3  1  0  0  0
 24 27  1  0  0  0
M  CHG 1  22   1
M  END
> <minimizedAffinity>
-8.91345

$$$$
3AID_ARQ_A_401


 40 42  0  0  0  0  0  0  0  0999 V2000
    6.9613   -0.9362   14.1218 C   0  0  0  0  0  0  0  0  0  0  0  0
    7.9618   -0.2182   13.3842 O   0  0  0  0  0  0  0  0  0  0  0  0
    8.2839   -0.7702   12.6545 H   0  0  0  0  0  0  0  0  0  0  0  0
    7.5081   -2.2368   14.7807 C   0  0  0  0  0  0  0  0  0  0  0  0
    7.7436   -4.4828   13.6880 C   0  0  0  0  0  0  0  0  0  0  0  0
    6.9051   -5.0558   14.3084 O   0  0  0  0  0  0  0  0  0  0  0  0
    8.0266   -3.1831   13.7905 N   0  0  0  0  0  0  0  0  0  0  0  0
    8.6547   -2.8190   13.1255 H   0  0  0  0  0  0  0  0  0  0  0  0
    8.5460   -5.0897   12.8180 O   0  0  0  0  0  0  0  0  0  0  0  0
    9.7031   -5.8117   13.2406 C   0  0  0  0  0  0  0  0  0  0  0  0
   10.8822   -4.8505   13.5950 C   0  0  0  0  0  0  0  0  0  0  0  0
    9.3178   -6.4888   14.5657 C   0  0  0  0  0  0  0  0  0  0  0  0
   10.0439   -6.8880   12.1880 C   0  0  0  0  0  0  0  0  0  0  0  0
    8.5734   -1.9528   15.8572 C   0  0  0  0  0  0  0  0  0  0  0  0
    8.9667   -3.1781   16.6309 C   0  0  0  0  0  0  0  0  0  0  0  0
   10.3260   -3.5524   16.7241 C   0  0  0  0  0  0  0  0  0  0  0  0
   10.6751   -4.6802   17.4967 C   0  0  0  0  0  0  0  0  0  0  0  0
    9.6588   -5.4104   18.1605 C   0  0  0  0  0  0  0  0  0  0  0  0
    7.9516   -3.9109   17.2925 C   0  0  0  0  0  0  0  0  0  0  0  0
    8.2956   -5.0363   18.0712 C   0  0  0  0  0  0  0  0  0  0  0  0
    5.7644   -1.2925   13.2044 C   0  0  0  0  0  0  0  0  0  0  0  0
    4.4098   -0.8249   13.6252 N   0  0  0  0  0  0  0  0  0  0  0  0
    4.4533    0.4982   14.2880 C   0  0  0  0  0  0  0  0  0  0  0  0
    3.9650   -1.7808   14.6119 N   0  0  0  0  0  0  0  0  0  0  0  0
    3.9990   -3.1201   14.4614 C   0  0  0  0  0  0  0  0  0  0  0  0
    4.3695   -3.6659   13.4179 O   0  0  0  0  0  0  0  0  0  0  0  0
    3.6098   -1.4274   15.4594 H   0  0  0  0  0  0  0  0  0  0  0  0
    3.5386   -3.8971   15.6324 C   0  0  0  0  0  0  0  0  0  0  0  0
    3.4473   -3.2255   16.8827 C   0  0  0  0  0  0  0  0  0  0  0  0
    3.0805   -3.9089   18.0532 C   0  0  0  0  0  0  0  0  0  0  0  0
    2.8279   -5.2853   17.9479 C   0  0  0  0  0  0  0  0  0  0  0  0
    3.1924   -5.2702   15.5395 C   0  0  0  0  0  0  0  0  0  0  0  0
    2.8369   -5.9718   16.7091 C   0  0  0  0  0  0  0  0  0  0  0  0
    3.6272   -0.7360   12.3497 C   0  0  0  0  0  0  0  0  0  0  0  0
    2.3421    0.0757   12.3650 C   0  0  0  0  0  0  0  0  0  0  0  0
    2.2922    1.3264   11.7142 C   0  0  0  0  0  0  0  0  0  0  0  0
    1.0783    2.0559   11.6320 C   0  0  0  0  0  0  0  0  0  0  0  0
   -0.0982    1.5041   12.1907 C   0  0  0  0  0  0  0  0  0  0  0  0
    1.2005   -0.3996   13.0375 C   0  0  0  0  0  0  0  0  0  0  0  0
   -0.0246    0.3164   12.9513 C   0  0  0  0  0  0  0  0  0  0  0  0
 10 11  1  0  0  0
 10 12  1  0  0  0
 10 13  1  0  0  0
 10  9  1  0  0  0
  9  5  1  0  0  0
  5  6  2  0  0  0
  5  7  1  0  0  0
  7  4  1  0  0  0
  4 14  1  0  0  0
  4  1  1  0  0  0
 14 15  1  0  0  0
 15 16  2  0  0  0
 15 19  1  0  0  0
 16 17  1  0  0  0
 17 18  2  0  0  0
 18 20  1  0  0  0
 19 20  2  0  0  0
  1  2  1  0  0  0
  1 21  1  0  0  0
 21 22  1  0  0  0
 22 23  1  0  0  0
 22 34  1  0  0  0
 22 24  1  0  0  0
 34 35  1  0  0  0
 35 36  2  0  0  0
 35 39  1  0  0  0
 36 37  1  0  0  0
 37 38  2  0  0  0
 38 40  1  0  0  0
 39 40  2  0  0  0
 24 25  1  0  0  0
 25 26  2  0  0  0
 25 28  1  0  0  0
 28 29  2  0  0  0
 28 32  1  0  0  0
 29 30  1  0  0  0
 30 31  2  0  0  0
 31 33  1  0  0  0
 32 33  2  0  0  0
  7  8  1  0  0  0
  2  3  1  0  0  0
 24 27  1  0  0  0
M  CHG 1  22   1
M  END
> <minimizedAffinity>
-8.85674

$$$$
3AID_ARQ_A_401


 40 42  0  0  0  0  0  0  0  0999 V2000
    6.6799   -0.5566   14.0816 C   0  0  0  0  0  0  0  0  0  0  0  0
    7.4383    0.5685   13.6131 O   0  0  0  0  0  0  0  0  0  0  0  0
    7.8521    0.3484   12.7638 H   0  0  0  0  0  0  0  0  0  0  0  0
    7.5590   -1.8137   14.3491 C   0  0  0  0  0  0  0  0  0  0  0  0
    7.9559   -2.7768   16.6314 C   0  0  0  0  0  0  0  0  0  0  0  0
    9.0643   -2.3733   16.7893 O   0  0  0  0  0  0  0  0  0  0  0  0
    7.1771   -2.5037   15.5831 N   0  0  0  0  0  0  0  0  0  0  0  0
    6.2402   -2.7992   15.6463 H   0  0  0  0  0  0  0  0  0  0  0  0
    7.3532   -3.5987   17.4859 O   0  0  0  0  0  0  0  0  0  0  0  0
    7.5363   -5.0135   17.4233 C   0  0  0  0  0  0  0  0  0  0  0  0
    9.0391   -5.3899   17.2248 C   0  0  0  0  0  0  0  0  0  0  0  0
    7.1629   -5.5495   18.8148 C   0  0  0  0  0  0  0  0  0  0  0  0
    6.5794   -5.6042   16.3661 C   0  0  0  0  0  0  0  0  0  0  0  0
    7.5598   -2.7991   13.1644 C   0  0  0  0  0  0  0  0  0  0  0  0
    8.5570   -3.9099   13.3260 C   0  0  0  0  0  0  0  0  0  0  0  0
    8.1868   -5.2431   13.0390 C   0  0  0  0  0  0  0  0  0  0  0  0
    9.1551   -6.2630   13.1521 C   0  0  0  0  0  0  0  0  0  0  0  0
   10.4734   -5.9296   13.5493 C   0  0  0  0  0  0  0  0  0  0  0  0
    9.8744   -3.5789   13.7259 C   0  0  0  0  0  0  0  0  0  0  0  0
   10.8484   -4.5940   13.8353 C   0  0  0  0  0  0  0  0  0  0  0  0
    5.5661   -0.9186   13.0668 C   0  0  0  0  0  0  0  0  0  0  0  0
    4.1589   -0.5847   13.4392 N   0  0  0  0  0  0  0  0  0  0  0  0
    4.0435    0.7582   14.0514 C   0  0  0  0  0  0  0  0  0  0  0  0
    3.7930   -1.5470   14.4518 N   0  0  0  0  0  0  0  0  0  0  0  0
    3.9638   -2.8804   14.3491 C   0  0  0  0  0  0  0  0  0  0  0  0
    4.4072   -3.4207   13.3316 O   0  0  0  0  0  0  0  0  0  0  0  0
    3.3878   -1.2031   15.2806 H   0  0  0  0  0  0  0  0  0  0  0  0
    3.5609   -3.6602   15.5394 C   0  0  0  0  0  0  0  0  0  0  0  0
    3.8834   -3.1336   16.8205 C   0  0  0  0  0  0  0  0  0  0  0  0
    3.5924   -3.8443   17.9961 C   0  0  0  0  0  0  0  0  0  0  0  0
    2.9905   -5.1046   17.8593 C   0  0  0  0  0  0  0  0  0  0  0  0
    2.8733   -4.8972   15.4351 C   0  0  0  0  0  0  0  0  0  0  0  0
    2.5884   -5.6280   16.6061 C   0  0  0  0  0  0  0  0  0  0  0  0
    3.4048   -0.6264   12.1442 C   0  0  0  0  0  0  0  0  0  0  0  0
    2.0871    0.1276   12.0699 C   0  0  0  0  0  0  0  0  0  0  0  0
    0.9887   -0.2975   12.8465 C   0  0  0  0  0  0  0  0  0  0  0  0
   -0.2189    0.4467   12.8676 C   0  0  0  0  0  0  0  0  0  0  0  0
   -0.3064    1.6425   12.1170 C   0  0  0  0  0  0  0  0  0  0  0  0
    1.9433    1.2402   11.2197 C   0  0  0  0  0  0  0  0  0  0  0  0
    0.7426    2.0010   11.2420 C   0  0  0  0  0  0  0  0  0  0  0  0
 10 11  1  0  0  0
 10 12  1  0  0  0
 10 13  1  0  0  0
 10  9  1  0  0  0
  9  5  1  0  0  0
  5  6  2  0  0  0
  5  7  1  0  0  0
  7  4  1  0  0  0
  4 14  1  0  0  0
  4  1  1  0  0  0
 14 15  1  0  0  0
 15 16  2  0  0  0
 15 19  1  0  0  0
 16 17  1  0  0  0
 17 18  2  0  0  0
 18 20  1  0  0  0
 19 20  2  0  0  0
  1  2  1  0  0  0
  1 21  1  0  0  0
 21 22  1  0  0  0
 22 23  1  0  0  0
 22 34  1  0  0  0
 22 24  1  0  0  0
 34 35  1  0  0  0
 35 36  2  0  0  0
 35 39  1  0  0  0
 36 37  1  0  0  0
 37 38  2  0  0  0
 38 40  1  0  0  0
 39 40  2  0  0  0
 24 25  1  0  0  0
 25 26  2  0  0  0
 25 28  1  0  0  0
 28 29  2  0  0  0
 28 32  1  0  0  0
 29 30  1  0  0  0
 30 31  2  0  0  0
 31 33  1  0  0  0
 32 33  2  0  0  0
  7  8  1  0  0  0
  2  3  1  0  0  0
 24 27  1  0  0  0
M  CHG 1  22   1
M  END
> <minimizedAffinity>
-8.85043

$$$$
3AID_ARQ_A_401


 40 42  0  0  0  0  0  0  0  0999 V2000
    6.1298   -2.6683   12.8909 C   0  0  0  0  0  0  0  0  0  0  0  0
    5.5327   -3.6532   12.0342 O   0  0  0  0  0  0  0  0  0  0  0  0
    4.8385   -4.1258   12.5196 H   0  0  0  0  0  0  0  0  0  0  0  0
    6.8281   -3.2889   14.1367 C   0  0  0  0  0  0  0  0  0  0  0  0
    5.5737   -3.9259   16.2140 C   0  0  0  0  0  0  0  0  0  0  0  0
    5.8608   -2.9793   16.8757 O   0  0  0  0  0  0  0  0  0  0  0  0
    5.9113   -4.1049   14.9357 N   0  0  0  0  0  0  0  0  0  0  0  0
    5.4974   -4.8721   14.4780 H   0  0  0  0  0  0  0  0  0  0  0  0
    4.8925   -4.9648   16.6888 O   0  0  0  0  0  0  0  0  0  0  0  0
    3.4648   -4.9820   16.7070 C   0  0  0  0  0  0  0  0  0  0  0  0
    2.8716   -4.9583   15.2623 C   0  0  0  0  0  0  0  0  0  0  0  0
    3.0663   -6.3481   17.2882 C   0  0  0  0  0  0  0  0  0  0  0  0
    2.9540   -3.8562   17.6313 C   0  0  0  0  0  0  0  0  0  0  0  0
    8.0840   -4.1021   13.7681 C   0  0  0  0  0  0  0  0  0  0  0  0
    9.0612   -4.2183   14.9021 C   0  0  0  0  0  0  0  0  0  0  0  0
    9.7550   -3.0760   15.3608 C   0  0  0  0  0  0  0  0  0  0  0  0
   10.6319   -3.2014   16.4589 C   0  0  0  0  0  0  0  0  0  0  0  0
   10.7971   -4.4657   17.0763 C   0  0  0  0  0  0  0  0  0  0  0  0
    9.2300   -5.4820   15.5183 C   0  0  0  0  0  0  0  0  0  0  0  0
   10.1013   -5.6122   16.6206 C   0  0  0  0  0  0  0  0  0  0  0  0
    5.0667   -1.6426   13.3591 C   0  0  0  0  0  0  0  0  0  0  0  0
    5.4182   -0.1941   13.2661 N   0  0  0  0  0  0  0  0  0  0  0  0
    5.8630    0.3604   14.5647 C   0  0  0  0  0  0  0  0  0  0  0  0
    4.1878    0.4760   12.9162 N   0  0  0  0  0  0  0  0  0  0  0  0
    3.3719    0.1163   11.9049 C   0  0  0  0  0  0  0  0  0  0  0  0
    3.6364   -0.8070   11.1294 O   0  0  0  0  0  0  0  0  0  0  0  0
    3.9245    1.2550   13.4576 H   0  0  0  0  0  0  0  0  0  0  0  0
    2.1392    0.9227   11.7733 C   0  0  0  0  0  0  0  0  0  0  0  0
    2.2550    2.2315   11.2289 C   0  0  0  0  0  0  0  0  0  0  0  0
    1.1423    3.0823   11.1312 C   0  0  0  0  0  0  0  0  0  0  0  0
   -0.0856    2.6011   11.6110 C   0  0  0  0  0  0  0  0  0  0  0  0
    0.8686    0.4306   12.1696 C   0  0  0  0  0  0  0  0  0  0  0  0
   -0.2541    1.2792   12.0908 C   0  0  0  0  0  0  0  0  0  0  0  0
    6.5392   -0.1399   12.2723 C   0  0  0  0  0  0  0  0  0  0  0  0
    6.7209    1.1460   11.4824 C   0  0  0  0  0  0  0  0  0  0  0  0
    7.2814    2.2809   12.1052 C   0  0  0  0  0  0  0  0  0  0  0  0
    7.5502    3.4598   11.3632 C   0  0  0  0  0  0  0  0  0  0  0  0
    7.2727    3.4812    9.9764 C   0  0  0  0  0  0  0  0  0  0  0  0
    6.3201    1.2239   10.1353 C   0  0  0  0  0  0  0  0  0  0  0  0
    6.5959    2.3953    9.3785 C   0  0  0  0  0  0  0  0  0  0  0  0
 10 11  1  0  0  0
 10 12  1  0  0  0
 10 13  1  0  0  0
 10  9  1  0  0  0
  9  5  1  0  0  0
  5  6  2  0  0  0
  5  7  1  0  0  0
  7  4  1  0  0  0
  4 14  1  0  0  0
  4  1  1  0  0  0
 14 15  1  0  0  0
 15 16  2  0  0  0
 15 19  1  0  0  0
 16 17  1  0  0  0
 17 18  2  0  0  0
 18 20  1  0  0  0
 19 20  2  0  0  0
  1  2  1  0  0  0
  1 21  1  0  0  0
 21 22  1  0  0  0
 22 23  1  0  0  0
 22 34  1  0  0  0
 22 24  1  0  0  0
 34 35  1  0  0  0
 35 36  2  0  0  0
 35 39  1  0  0  0
 36 37  1  0  0  0
 37 38  2  0  0  0
 38 40  1  0  0  0
 39 40  2  0  0  0
 24 25  1  0  0  0
 25 26  2  0  0  0
 25 28  1  0  0  0
 28 29  2  0  0  0
 28 32  1  0  0  0
 29 30  1  0  0  0
 30 31  2  0  0  0
 31 33  1  0  0  0
 32 33  2  0  0  0
  7  8  1  0  0  0
  2  3  1  0  0  0
 24 27  1  0  0  0
M  CHG 1  22   1
M  END
> <minimizedAffinity>
-8.66338

$$$$
3AID_ARQ_A_401


 40 42  0  0  0  0  0  0  0  0999 V2000
    5.9850   -2.1020   12.6113 C   0  0  0  0  0  0  0  0  0  0  0  0
    5.5587   -2.7603   11.4091 O   0  0  0  0  0  0  0  0  0  0  0  0
    4.7160   -3.2130   11.5698 H   0  0  0  0  0  0  0  0  0  0  0  0
    6.2496   -3.0906   13.7850 C   0  0  0  0  0  0  0  0  0  0  0  0
    5.1301   -3.4062   16.0079 C   0  0  0  0  0  0  0  0  0  0  0  0
    6.1084   -3.4072   16.6855 O   0  0  0  0  0  0  0  0  0  0  0  0
    5.1036   -3.1932   14.6911 N   0  0  0  0  0  0  0  0  0  0  0  0
    4.2135   -3.0937   14.2825 H   0  0  0  0  0  0  0  0  0  0  0  0
    3.9147   -3.6577   16.4859 O   0  0  0  0  0  0  0  0  0  0  0  0
    3.5099   -4.9770   16.8523 C   0  0  0  0  0  0  0  0  0  0  0  0
    3.3678   -5.1250   18.4007 C   0  0  0  0  0  0  0  0  0  0  0  0
    2.0883   -5.1527   16.2946 C   0  0  0  0  0  0  0  0  0  0  0  0
    4.4565   -6.0018   16.1917 C   0  0  0  0  0  0  0  0  0  0  0  0
    6.6718   -4.4899   13.2970 C   0  0  0  0  0  0  0  0  0  0  0  0
    8.1472   -4.7361   13.4271 C   0  0  0  0  0  0  0  0  0  0  0  0
    8.7118   -5.9368   12.9410 C   0  0  0  0  0  0  0  0  0  0  0  0
   10.1073   -6.1240   13.0313 C   0  0  0  0  0  0  0  0  0  0  0  0
   10.9098   -5.1074   13.6051 C   0  0  0  0  0  0  0  0  0  0  0  0
    8.9505   -3.7223   14.0033 C   0  0  0  0  0  0  0  0  0  0  0  0
   10.3474   -3.9017   14.0910 C   0  0  0  0  0  0  0  0  0  0  0  0
    4.9352   -1.0519   13.0547 C   0  0  0  0  0  0  0  0  0  0  0  0
    5.4216    0.3305   13.3426 N   0  0  0  0  0  0  0  0  0  0  0  0
    5.4777    0.6151   14.7943 C   0  0  0  0  0  0  0  0  0  0  0  0
    4.4284    1.2112   12.7743 N   0  0  0  0  0  0  0  0  0  0  0  0
    3.6199    0.9005   11.7410 C   0  0  0  0  0  0  0  0  0  0  0  0
    3.6946   -0.1712   11.1331 O   0  0  0  0  0  0  0  0  0  0  0  0
    4.3344    2.1070   13.1716 H   0  0  0  0  0  0  0  0  0  0  0  0
    2.6439    1.9474   11.3685 C   0  0  0  0  0  0  0  0  0  0  0  0
    1.2836    1.7491   11.7330 C   0  0  0  0  0  0  0  0  0  0  0  0
    0.2871    2.6652   11.3596 C   0  0  0  0  0  0  0  0  0  0  0  0
    0.6798    3.7739   10.5943 C   0  0  0  0  0  0  0  0  0  0  0  0
    3.0256    3.1220   10.6698 C   0  0  0  0  0  0  0  0  0  0  0  0
    2.0336    4.0425   10.2759 C   0  0  0  0  0  0  0  0  0  0  0  0
    6.8003    0.3763   12.7556 C   0  0  0  0  0  0  0  0  0  0  0  0
    7.0863    1.4391   11.7072 C   0  0  0  0  0  0  0  0  0  0  0  0
    6.9488    1.1309   10.3374 C   0  0  0  0  0  0  0  0  0  0  0  0
    7.1154    2.1320    9.3461 C   0  0  0  0  0  0  0  0  0  0  0  0
    7.3985    3.4591    9.7456 C   0  0  0  0  0  0  0  0  0  0  0  0
    7.5043    2.7284   12.0872 C   0  0  0  0  0  0  0  0  0  0  0  0
    7.6619    3.7429   11.1038 C   0  0  0  0  0  0  0  0  0  0  0  0
 10 11  1  0  0  0
 10 12  1  0  0  0
 10 13  1  0  0  0
 10  9  1  0  0  0
  9  5  1  0  0  0
  5  6  2  0  0  0
  5  7  1  0  0  0
  7  4  1  0  0  0
  4 14  1  0  0  0
  4  1  1  0  0  0
 14 15  1  0  0  0
 15 16  2  0  0  0
 15 19  1  0  0  0
 16 17  1  0  0  0
 17 18  2  0  0  0
 18 20  1  0  0  0
 19 20  2  0  0  0
  1  2  1  0  0  0
  1 21  1  0  0  0
 21 22  1  0  0  0
 22 23  1  0  0  0
 22 34  1  0  0  0
 22 24  1  0  0  0
 34 35  1  0  0  0
 35 36  2  0  0  0
 35 39  1  0  0  0
 36 37  1  0  0  0
 37 38  2  0  0  0
 38 40  1  0  0  0
 39 40  2  0  0  0
 24 25  1  0  0  0
 25 26  2  0  0  0
 25 28  1  0  0  0
 28 29  2  0  0  0
 28 32  1  0  0  0
 29 30  1  0  0  0
 30 31  2  0  0  0
 31 33  1  0  0  0
 32 33  2  0  0  0
  7  8  1  0  0  0
  2  3  1  0  0  0
 24 27  1  0  0  0
M  CHG 1  22   1
M  END
> <minimizedAffinity>
-8.56294

$$$$
3AID_ARQ_A_401


 40 42  0  0  0  0  0  0  0  0999 V2000
    5.7770   -2.0056   16.4474 C   0  0  0  0  0  0  0  0  0  0  0  0
    5.4953   -0.8293   17.2204 O   0  0  0  0  0  0  0  0  0  0  0  0
    6.3186   -0.3413   17.3783 H   0  0  0  0  0  0  0  0  0  0  0  0
    6.7281   -2.9994   17.1770 C   0  0  0  0  0  0  0  0  0  0  0  0
    5.5929   -5.1891   16.7182 C   0  0  0  0  0  0  0  0  0  0  0  0
    5.7890   -5.2329   15.5452 O   0  0  0  0  0  0  0  0  0  0  0  0
    6.0514   -4.2457   17.5426 N   0  0  0  0  0  0  0  0  0  0  0  0
    5.9201   -4.4053   18.5051 H   0  0  0  0  0  0  0  0  0  0  0  0
    4.8445   -6.0793   17.3635 O   0  0  0  0  0  0  0  0  0  0  0  0
    3.4616   -5.8449   17.6311 C   0  0  0  0  0  0  0  0  0  0  0  0
    2.6993   -5.3804   16.3494 C   0  0  0  0  0  0  0  0  0  0  0  0
    2.8623   -7.2150   17.9869 C   0  0  0  0  0  0  0  0  0  0  0  0
    3.3311   -4.8924   18.8387 C   0  0  0  0  0  0  0  0  0  0  0  0
    8.0035   -3.3018   16.3669 C   0  0  0  0  0  0  0  0  0  0  0  0
    8.9373   -4.2426   17.0722 C   0  0  0  0  0  0  0  0  0  0  0  0
    8.4884   -4.9837   18.1884 C   0  0  0  0  0  0  0  0  0  0  0  0
    9.3699   -5.8969   18.8046 C   0  0  0  0  0  0  0  0  0  0  0  0
   10.6817   -6.0509   18.2924 C   0  0  0  0  0  0  0  0  0  0  0  0
   10.2499   -4.3954   16.5635 C   0  0  0  0  0  0  0  0  0  0  0  0
   11.1340   -5.3114   17.1722 C   0  0  0  0  0  0  0  0  0  0  0  0
    6.3938   -1.6190   15.0794 C   0  0  0  0  0  0  0  0  0  0  0  0
    5.7957   -2.2314   13.8556 N   0  0  0  0  0  0  0  0  0  0  0  0
    4.4381   -2.7677   14.1021 C   0  0  0  0  0  0  0  0  0  0  0  0
    6.6454   -3.3543   13.5358 N   0  0  0  0  0  0  0  0  0  0  0  0
    6.6199   -4.0370   12.3735 C   0  0  0  0  0  0  0  0  0  0  0  0
    5.8087   -3.7958   11.4747 O   0  0  0  0  0  0  0  0  0  0  0  0
    7.2928   -3.6435   14.2187 H   0  0  0  0  0  0  0  0  0  0  0  0
    7.6233   -5.1170   12.2556 C   0  0  0  0  0  0  0  0  0  0  0  0
    8.5741   -5.2594   13.3036 C   0  0  0  0  0  0  0  0  0  0  0  0
    9.5976   -6.2183   13.2350 C   0  0  0  0  0  0  0  0  0  0  0  0
    9.6610   -7.0174   12.0832 C   0  0  0  0  0  0  0  0  0  0  0  0
    7.6587   -5.9973   11.1431 C   0  0  0  0  0  0  0  0  0  0  0  0
    8.6895   -6.9545   11.0545 C   0  0  0  0  0  0  0  0  0  0  0  0
    5.7334   -1.1095   12.8631 C   0  0  0  0  0  0  0  0  0  0  0  0
    4.3592   -0.6149   12.4421 C   0  0  0  0  0  0  0  0  0  0  0  0
    3.9662   -0.6961   11.0897 C   0  0  0  0  0  0  0  0  0  0  0  0
    2.6547   -0.3315   10.6899 C   0  0  0  0  0  0  0  0  0  0  0  0
    1.7275    0.0943   11.6695 C   0  0  0  0  0  0  0  0  0  0  0  0
    3.4756   -0.0591   13.3866 C   0  0  0  0  0  0  0  0  0  0  0  0
    2.1549    0.2976   13.0001 C   0  0  0  0  0  0  0  0  0  0  0  0
 10 11  1  0  0  0
 10 12  1  0  0  0
 10 13  1  0  0  0
 10  9  1  0  0  0
  9  5  1  0  0  0
  5  6  2  0  0  0
  5  7  1  0  0  0
  7  4  1  0  0  0
  4 14  1  0  0  0
  4  1  1  0  0  0
 14 15  1  0  0  0
 15 16  2  0  0  0
 15 19  1  0  0  0
 16 17  1  0  0  0
 17 18  2  0  0  0
 18 20  1  0  0  0
 19 20  2  0  0  0
  1  2  1  0  0  0
  1 21  1  0  0  0
 21 22  1  0  0  0
 22 23  1  0  0  0
 22 34  1  0  0  0
 22 24  1  0  0  0
 34 35  1  0  0  0
 35 36  2  0  0  0
 35 39  1  0  0  0
 36 37  1  0  0  0
 37 38  2  0  0  0
 38 40  1  0  0  0
 39 40  2  0  0  0
 24 25  1  0  0  0
 25 26  2  0  0  0
 25 28  1  0  0  0
 28 29  2  0  0  0
 28 32  1  0  0  0
 29 30  1  0  0  0
 30 31  2  0  0  0
 31 33  1  0  0  0
 32 33  2  0  0  0
  7  8  1  0  0  0
  2  3  1  0  0  0
 24 27  1  0  0  0
M  CHG 1  22   1
M  END
> <minimizedAffinity>
-8.54356

$$$$
