4FL1_ANP_A_701


 40 42  0  0  0  0  0  0  0  0999 V2000
    2.2121    2.4344   12.8992 C   0  0  0  0  0  0  0  0  0  0  0  0
    1.8731    1.0693   12.5603 O   0  0  0  0  0  0  0  0  0  0  0  0
    1.1354    2.8674   13.9179 C   0  0  0  0  0  0  0  0  0  0  0  0
    0.9951    4.2876   13.9608 O   0  0  0  0  0  0  0  0  0  0  0  0
   -0.1237    2.1675   13.3518 C   0  0  0  0  0  0  0  0  0  0  0  0
   -0.6664    2.9248   12.2565 O   0  0  0  0  0  0  0  0  0  0  0  0
    0.4703    0.8205   12.8417 C   0  0  0  0  0  0  0  0  0  0  0  0
    0.7934    4.6196   13.0720 H   0  0  0  0  0  0  0  0  0  0  0  0
    0.0192    3.0560   11.5830 H   0  0  0  0  0  0  0  0  0  0  0  0
    0.2808   -0.2735   13.8149 N   0  0  0  0  0  0  0  0  0  0  0  0
    1.2466   -1.0070   14.4543 C   0  0  0  0  0  0  0  0  0  0  0  0
    0.6993   -1.8699   15.2814 N   0  0  0  0  0  0  0  0  0  0  0  0
   -0.6536   -1.7129   15.2572 C   0  0  0  0  0  0  0  0  0  0  0  0
   -1.7613   -2.2938   15.9293 C   0  0  0  0  0  0  0  0  0  0  0  0
   -1.6293   -3.2853   16.8905 N   0  0  0  0  0  0  0  0  0  0  0  0
   -2.9904   -1.8468   15.6377 N   0  0  0  0  0  0  0  0  0  0  0  0
   -3.1798   -0.8684   14.7739 C   0  0  0  0  0  0  0  0  0  0  0  0
   -2.1948   -0.3079   14.1146 N   0  0  0  0  0  0  0  0  0  0  0  0
   -0.9238   -0.6805   14.3324 C   0  0  0  0  0  0  0  0  0  0  0  0
   -0.7369   -3.6303   17.1224 H   0  0  0  0  0  0  0  0  0  0  0  0
   -2.4280   -3.6439   17.3407 H   0  0  0  0  0  0  0  0  0  0  0  0
    3.6289    2.4897   13.4779 C   0  0  0  0  0  0  0  0  0  0  0  0
    4.4572    3.3734   12.7057 O   0  0  0  0  0  0  0  0  0  0  0  0
    4.5427    4.9461   13.0319 P   0  0  0  0  0  0  0  0  0  0  0  0
    6.0057    5.4072   13.2651 O   0  0  0  0  0  0  0  0  0  0  0  0
    3.7096    5.2558   14.3036 O   0  0  0  0  0  0  0  0  0  0  0  0
    3.7609    6.2042   14.5007 H   0  0  0  0  0  0  0  0  0  0  0  0
    3.8881    5.7150   11.7733 O   0  0  0  0  0  0  0  0  0  0  0  0
    2.4579    6.4257   11.5425 P   0  0  0  0  0  0  0  0  0  0  0  0
    2.6283    7.4562   10.3989 O   0  0  0  0  0  0  0  0  0  0  0  0
    2.0729    7.1734   12.8449 O   0  0  0  0  0  0  0  0  0  0  0  0
    1.2141    7.6083   12.7262 H   0  0  0  0  0  0  0  0  0  0  0  0
    1.3117    5.2581   11.1097 N   0  0  0  0  0  0  0  0  0  0  0  0
    1.3253    4.5351   11.8291 H   0  0  0  0  0  0  0  0  0  0  0  0
    1.5067    4.4886    9.6129 P   0  0  0  0  0  0  0  0  0  0  0  0
    0.6586    3.1767    9.5001 O   0  0  0  0  0  0  0  0  0  0  0  0
    1.1114    5.4674    8.4474 O   0  0  0  0  0  0  0  0  0  0  0  0
    3.0106    4.0691    9.4414 O   0  0  0  0  0  0  0  0  0  0  0  0
    1.2262    5.0184    7.5953 H   0  0  0  0  0  0  0  0  0  0  0  0
    3.1276    3.6279    8.5856 H   0  0  0  0  0  0  0  0  0  0  0  0
 35 36  2  0  0  0
 35 37  1  0  0  0
 35 38  1  0  0  0
 35 33  1  0  0  0
 29 30  2  0  0  0
 29 31  1  0  0  0
 29 33  1  0  0  0
 29 28  1  0  0  0
 24 25  2  0  0  0
 24 26  1  0  0  0
 24 28  1  0  0  0
 24 23  1  0  0  0
 23 22  1  0  0  0
 22  1  1  0  0  0
  1  2  1  0  0  0
  1  3  1  0  0  0
  2  7  1  0  0  0
  3  4  1  0  0  0
  3  5  1  0  0  0
  5  6  1  0  0  0
  5  7  1  0  0  0
  7 10  1  0  0  0
 10 11  1  0  0  0
 10 19  1  0  0  0
 11 12  2  0  0  0
 12 13  1  0  0  0
 13 14  1  0  0  0
 13 19  2  0  0  0
 14 15  1  0  0  0
 14 16  2  0  0  0
 16 17  1  0  0  0
 17 18  2  0  0  0
 18 19  1  0  0  0
 37 39  1  0  0  0
 38 40  1  0  0  0
 31 32  1  0  0  0
 33 34  1  0  0  0
 26 27  1  0  0  0
  4  8  1  0  0  0
  6  9  1  0  0  0
 15 20  1  0  0  0
 15 21  1  0  0  0
M  END
> <minimizedAffinity>
-7.79928

$$$$
4FL1_ANP_A_701


 40 42  0  0  0  0  0  0  0  0999 V2000
    1.8860    5.4992   10.8123 C   0  0  0  0  0  0  0  0  0  0  0  0
    1.4735    4.1141   10.8827 O   0  0  0  0  0  0  0  0  0  0  0  0
    2.2057    5.8906   12.2715 C   0  0  0  0  0  0  0  0  0  0  0  0
    2.1192    7.3023   12.4666 O   0  0  0  0  0  0  0  0  0  0  0  0
    1.1084    5.1202   13.0447 C   0  0  0  0  0  0  0  0  0  0  0  0
   -0.1383    5.8342   12.9870 O   0  0  0  0  0  0  0  0  0  0  0  0
    1.0181    3.7983   12.2250 C   0  0  0  0  0  0  0  0  0  0  0  0
    1.2384    7.6117   12.2035 H   0  0  0  0  0  0  0  0  0  0  0  0
   -0.3785    5.9910   12.0603 H   0  0  0  0  0  0  0  0  0  0  0  0
    1.8028    2.7092   12.8398 N   0  0  0  0  0  0  0  0  0  0  0  0
    3.1340    2.4307   12.6669 C   0  0  0  0  0  0  0  0  0  0  0  0
    3.4917    1.4065   13.4093 N   0  0  0  0  0  0  0  0  0  0  0  0
    2.4201    0.9909   14.1404 C   0  0  0  0  0  0  0  0  0  0  0  0
    2.1784   -0.0057   15.1225 C   0  0  0  0  0  0  0  0  0  0  0  0
    3.1616   -0.8684   15.5843 N   0  0  0  0  0  0  0  0  0  0  0  0
    0.9480   -0.1020   15.6442 N   0  0  0  0  0  0  0  0  0  0  0  0
   -0.0169    0.7237   15.2884 C   0  0  0  0  0  0  0  0  0  0  0  0
    0.1476    1.6509   14.3760 N   0  0  0  0  0  0  0  0  0  0  0  0
    1.3419    1.8332   13.7910 C   0  0  0  0  0  0  0  0  0  0  0  0
    4.0735   -0.8174   15.2167 H   0  0  0  0  0  0  0  0  0  0  0  0
    2.9475   -1.5316   16.2797 H   0  0  0  0  0  0  0  0  0  0  0  0
    3.0978    5.6341    9.8856 C   0  0  0  0  0  0  0  0  0  0  0  0
    3.6641    6.9506    9.9810 O   0  0  0  0  0  0  0  0  0  0  0  0
    3.0838    8.1806    9.1221 P   0  0  0  0  0  0  0  0  0  0  0  0
    1.8579    8.8363    9.8108 O   0  0  0  0  0  0  0  0  0  0  0  0
    2.6604    7.6753    7.7176 O   0  0  0  0  0  0  0  0  0  0  0  0
    2.3104    8.4168    7.1993 H   0  0  0  0  0  0  0  0  0  0  0  0
    4.2902    9.2398    8.9591 O   0  0  0  0  0  0  0  0  0  0  0  0
    5.7472    9.1486    8.2716 P   0  0  0  0  0  0  0  0  0  0  0  0
    5.7092    7.9842    7.2509 O   0  0  0  0  0  0  0  0  0  0  0  0
    6.7841    8.8202    9.3763 O   0  0  0  0  0  0  0  0  0  0  0  0
    7.6685    8.7610    8.9823 H   0  0  0  0  0  0  0  0  0  0  0  0
    6.0899   10.6057    7.4819 N   0  0  0  0  0  0  0  0  0  0  0  0
    5.2873   10.8308    6.8941 H   0  0  0  0  0  0  0  0  0  0  0  0
    7.4691   10.6566    6.4992 P   0  0  0  0  0  0  0  0  0  0  0  0
    7.8091   12.1087    6.0207 O   0  0  0  0  0  0  0  0  0  0  0  0
    8.7028   10.0587    7.2693 O   0  0  0  0  0  0  0  0  0  0  0  0
    7.2112    9.8045    5.2052 O   0  0  0  0  0  0  0  0  0  0  0  0
    9.4869   10.0921    6.6992 H   0  0  0  0  0  0  0  0  0  0  0  0
    7.9983    9.8304    4.6389 H   0  0  0  0  0  0  0  0  0  0  0  0
 35 36  2  0  0  0
 35 37  1  0  0  0
 35 38  1  0  0  0
 35 33  1  0  0  0
 29 30  2  0  0  0
 29 31  1  0  0  0
 29 33  1  0  0  0
 29 28  1  0  0  0
 24 25  2  0  0  0
 24 26  1  0  0  0
 24 28  1  0  0  0
 24 23  1  0  0  0
 23 22  1  0  0  0
 22  1  1  0  0  0
  1  2  1  0  0  0
  1  3  1  0  0  0
  2  7  1  0  0  0
  3  4  1  0  0  0
  3  5  1  0  0  0
  5  6  1  0  0  0
  5  7  1  0  0  0
  7 10  1  0  0  0
 10 11  1  0  0  0
 10 19  1  0  0  0
 11 12  2  0  0  0
 12 13  1  0  0  0
 13 14  1  0  0  0
 13 19  2  0  0  0
 14 15  1  0  0  0
 14 16  2  0  0  0
 16 17  1  0  0  0
 17 18  2  0  0  0
 18 19  1  0  0  0
 37 39  1  0  0  0
 38 40  1  0  0  0
 31 32  1  0  0  0
 33 34  1  0  0  0
 26 27  1  0  0  0
  4  8  1  0  0  0
  6  9  1  0  0  0
 15 20  1  0  0  0
 15 21  1  0  0  0
M  END
> <minimizedAffinity>
-7.65010

$$$$
4FL1_ANP_A_701


 40 42  0  0  0  0  0  0  0  0999 V2000
    0.1828    1.3796   11.8724 C   0  0  0  0  0  0  0  0  0  0  0  0
    0.8245    0.1229   12.1923 O   0  0  0  0  0  0  0  0  0  0  0  0
   -0.2863    1.9408   13.2323 C   0  0  0  0  0  0  0  0  0  0  0  0
   -1.3594    2.8692   13.0743 O   0  0  0  0  0  0  0  0  0  0  0  0
   -0.7266    0.6496   13.9633 C   0  0  0  0  0  0  0  0  0  0  0  0
   -2.0371    0.2503   13.5264 O   0  0  0  0  0  0  0  0  0  0  0  0
    0.3456   -0.3686   13.4721 C   0  0  0  0  0  0  0  0  0  0  0  0
   -2.0889    2.4422   12.5985 H   0  0  0  0  0  0  0  0  0  0  0  0
   -2.0395    0.1493   12.5617 H   0  0  0  0  0  0  0  0  0  0  0  0
    1.4385   -0.5388   14.4501 N   0  0  0  0  0  0  0  0  0  0  0  0
    1.4804   -1.3887   15.5250 C   0  0  0  0  0  0  0  0  0  0  0  0
    2.6349   -1.2912   16.1461 N   0  0  0  0  0  0  0  0  0  0  0  0
    3.4247   -0.4030   15.4806 C   0  0  0  0  0  0  0  0  0  0  0  0
    4.7490    0.0900   15.6197 C   0  0  0  0  0  0  0  0  0  0  0  0
    5.6094   -0.3235   16.6261 N   0  0  0  0  0  0  0  0  0  0  0  0
    5.1960    0.9794   14.7228 N   0  0  0  0  0  0  0  0  0  0  0  0
    4.4472    1.3718   13.7106 C   0  0  0  0  0  0  0  0  0  0  0  0
    3.2135    0.9604   13.5436 N   0  0  0  0  0  0  0  0  0  0  0  0
    2.6683    0.0678   14.3849 C   0  0  0  0  0  0  0  0  0  0  0  0
    5.3045   -0.9762   17.2971 H   0  0  0  0  0  0  0  0  0  0  0  0
    6.5250    0.0358   16.6694 H   0  0  0  0  0  0  0  0  0  0  0  0
    1.1761    2.3044   11.1627 C   0  0  0  0  0  0  0  0  0  0  0  0
    0.4943    3.1637   10.2355 O   0  0  0  0  0  0  0  0  0  0  0  0
    0.8573    4.7258   10.1127 P   0  0  0  0  0  0  0  0  0  0  0  0
   -0.2059    5.6202   10.8033 O   0  0  0  0  0  0  0  0  0  0  0  0
    0.9478    5.1187    8.6145 O   0  0  0  0  0  0  0  0  0  0  0  0
    1.1667    6.0607    8.5399 H   0  0  0  0  0  0  0  0  0  0  0  0
    2.3065    4.9183   10.7960 O   0  0  0  0  0  0  0  0  0  0  0  0
    2.9925    6.1434   11.5911 P   0  0  0  0  0  0  0  0  0  0  0  0
    3.2990    7.2562   10.5583 O   0  0  0  0  0  0  0  0  0  0  0  0
    4.3248    5.6386   12.2021 O   0  0  0  0  0  0  0  0  0  0  0  0
    4.7536    6.3621   12.6854 H   0  0  0  0  0  0  0  0  0  0  0  0
    1.9232    6.7197   12.7695 N   0  0  0  0  0  0  0  0  0  0  0  0
    2.3548    7.5374   13.2002 H   0  0  0  0  0  0  0  0  0  0  0  0
    1.4889    5.6587   14.0169 P   0  0  0  0  0  0  0  0  0  0  0  0
    2.2034    4.2701   13.8967 O   0  0  0  0  0  0  0  0  0  0  0  0
    1.8258    6.2999   15.4126 O   0  0  0  0  0  0  0  0  0  0  0  0
   -0.0549    5.3791   13.9412 O   0  0  0  0  0  0  0  0  0  0  0  0
    1.5739    5.6857   16.1198 H   0  0  0  0  0  0  0  0  0  0  0  0
   -0.3088    4.7718   14.6536 H   0  0  0  0  0  0  0  0  0  0  0  0
 35 36  2  0  0  0
 35 37  1  0  0  0
 35 38  1  0  0  0
 35 33  1  0  0  0
 29 30  2  0  0  0
 29 31  1  0  0  0
 29 33  1  0  0  0
 29 28  1  0  0  0
 24 25  2  0  0  0
 24 26  1  0  0  0
 24 28  1  0  0  0
 24 23  1  0  0  0
 23 22  1  0  0  0
 22  1  1  0  0  0
  1  2  1  0  0  0
  1  3  1  0  0  0
  2  7  1  0  0  0
  3  4  1  0  0  0
  3  5  1  0  0  0
  5  6  1  0  0  0
  5  7  1  0  0  0
  7 10  1  0  0  0
 10 11  1  0  0  0
 10 19  1  0  0  0
 11 12  2  0  0  0
 12 13  1  0  0  0
 13 14  1  0  0  0
 13 19  2  0  0  0
 14 15  1  0  0  0
 14 16  2  0  0  0
 16 17  1  0  0  0
 17 18  2  0  0  0
 18 19  1  0  0  0
 37 39  1  0  0  0
 38 40  1  0  0  0
 31 32  1  0  0  0
 33 34  1  0  0  0
 26 27  1  0  0  0
  4  8  1  0  0  0
  6  9  1  0  0  0
 15 20  1  0  0  0
 15 21  1  0  0  0
M  END
> <minimizedAffinity>
-7.63776

$$$$
4FL1_ANP_A_701


 40 42  0  0  0  0  0  0  0  0999 V2000
    1.2924    5.2395   11.3008 C   0  0  0  0  0  0  0  0  0  0  0  0
    0.5225    4.0446   11.5711 O   0  0  0  0  0  0  0  0  0  0  0  0
    1.8415    5.6750   12.6768 C   0  0  0  0  0  0  0  0  0  0  0  0
    2.1659    7.0652   12.6957 O   0  0  0  0  0  0  0  0  0  0  0  0
    0.6510    5.3348   13.6055 C   0  0  0  0  0  0  0  0  0  0  0  0
   -0.3505    6.3640   13.5315 O   0  0  0  0  0  0  0  0  0  0  0  0
    0.1241    4.0147   12.9672 C   0  0  0  0  0  0  0  0  0  0  0  0
    1.3840    7.5831   12.4480 H   0  0  0  0  0  0  0  0  0  0  0  0
   -0.6230    6.4842   12.6083 H   0  0  0  0  0  0  0  0  0  0  0  0
    0.6318    2.8183   13.6679 N   0  0  0  0  0  0  0  0  0  0  0  0
   -0.0627    1.9647   14.4855 C   0  0  0  0  0  0  0  0  0  0  0  0
    0.7131    0.9869   14.8979 N   0  0  0  0  0  0  0  0  0  0  0  0
    1.9448    1.1277   14.3335 C   0  0  0  0  0  0  0  0  0  0  0  0
    3.1647    0.4012   14.3493 C   0  0  0  0  0  0  0  0  0  0  0  0
    3.3352   -0.7775   15.0604 N   0  0  0  0  0  0  0  0  0  0  0  0
    4.1923    0.8641   13.6246 N   0  0  0  0  0  0  0  0  0  0  0  0
    4.0781    1.9488   12.8832 C   0  0  0  0  0  0  0  0  0  0  0  0
    2.9807    2.6653   12.8441 N   0  0  0  0  0  0  0  0  0  0  0  0
    1.8913    2.2894   13.5323 C   0  0  0  0  0  0  0  0  0  0  0  0
    2.5952   -1.1381   15.6004 H   0  0  0  0  0  0  0  0  0  0  0  0
    4.1963   -1.2535   15.0252 H   0  0  0  0  0  0  0  0  0  0  0  0
    2.4030    4.9254   10.2942 C   0  0  0  0  0  0  0  0  0  0  0  0
    3.4131    5.9462   10.3198 O   0  0  0  0  0  0  0  0  0  0  0  0
    3.3464    7.2209    9.3412 P   0  0  0  0  0  0  0  0  0  0  0  0
    2.5868    8.4072    9.9916 O   0  0  0  0  0  0  0  0  0  0  0  0
    2.6265    6.8245    8.0252 O   0  0  0  0  0  0  0  0  0  0  0  0
    2.5860    7.5929    7.4347 H   0  0  0  0  0  0  0  0  0  0  0  0
    4.8719    7.6258    9.0055 O   0  0  0  0  0  0  0  0  0  0  0  0
    5.5340    8.5870    7.8913 P   0  0  0  0  0  0  0  0  0  0  0  0
    5.6903    9.9931    8.5218 O   0  0  0  0  0  0  0  0  0  0  0  0
    4.5599    8.6767    6.6886 O   0  0  0  0  0  0  0  0  0  0  0  0
    4.9406    9.2515    6.0063 H   0  0  0  0  0  0  0  0  0  0  0  0
    7.0481    7.9753    7.4471 N   0  0  0  0  0  0  0  0  0  0  0  0
    7.6277    7.9550    8.2862 H   0  0  0  0  0  0  0  0  0  0  0  0
    7.9109    8.8143    6.2546 P   0  0  0  0  0  0  0  0  0  0  0  0
    7.9308    8.0546    4.8850 O   0  0  0  0  0  0  0  0  0  0  0  0
    7.2936   10.2457    6.0483 O   0  0  0  0  0  0  0  0  0  0  0  0
    9.4070    8.9625    6.7094 O   0  0  0  0  0  0  0  0  0  0  0  0
    7.7937   10.7180    5.3644 H   0  0  0  0  0  0  0  0  0  0  0  0
    9.9055    9.4424    6.0297 H   0  0  0  0  0  0  0  0  0  0  0  0
 35 36  2  0  0  0
 35 37  1  0  0  0
 35 38  1  0  0  0
 35 33  1  0  0  0
 29 30  2  0  0  0
 29 31  1  0  0  0
 29 33  1  0  0  0
 29 28  1  0  0  0
 24 25  2  0  0  0
 24 26  1  0  0  0
 24 28  1  0  0  0
 24 23  1  0  0  0
 23 22  1  0  0  0
 22  1  1  0  0  0
  1  2  1  0  0  0
  1  3  1  0  0  0
  2  7  1  0  0  0
  3  4  1  0  0  0
  3  5  1  0  0  0
  5  6  1  0  0  0
  5  7  1  0  0  0
  7 10  1  0  0  0
 10 11  1  0  0  0
 10 19  1  0  0  0
 11 12  2  0  0  0
 12 13  1  0  0  0
 13 14  1  0  0  0
 13 19  2  0  0  0
 14 15  1  0  0  0
 14 16  2  0  0  0
 16 17  1  0  0  0
 17 18  2  0  0  0
 18 19  1  0  0  0
 37 39  1  0  0  0
 38 40  1  0  0  0
 31 32  1  0  0  0
 33 34  1  0  0  0
 26 27  1  0  0  0
  4  8  1  0  0  0
  6  9  1  0  0  0
 15 20  1  0  0  0
 15 21  1  0  0  0
M  END
> <minimizedAffinity>
-7.49119

$$$$
4FL1_ANP_A_701


 40 42  0  0  0  0  0  0  0  0999 V2000
    0.3305    2.9560   11.1492 C   0  0  0  0  0  0  0  0  0  0  0  0
    1.2589    1.8475   11.0963 O   0  0  0  0  0  0  0  0  0  0  0  0
   -0.0358    3.0934   12.6430 C   0  0  0  0  0  0  0  0  0  0  0  0
   -1.2892    3.7547   12.8169 O   0  0  0  0  0  0  0  0  0  0  0  0
   -0.0849    1.6111   13.0859 C   0  0  0  0  0  0  0  0  0  0  0  0
   -1.3346    1.0149   12.6981 O   0  0  0  0  0  0  0  0  0  0  0  0
    1.0890    1.0003   12.2635 C   0  0  0  0  0  0  0  0  0  0  0  0
   -1.9773    3.2772   12.3275 H   0  0  0  0  0  0  0  0  0  0  0  0
   -1.4603    1.1205   11.7421 H   0  0  0  0  0  0  0  0  0  0  0  0
    2.3272    0.8916   13.0603 N   0  0  0  0  0  0  0  0  0  0  0  0
    3.4807    1.6202   12.9256 C   0  0  0  0  0  0  0  0  0  0  0  0
    4.3571    1.2709   13.8410 N   0  0  0  0  0  0  0  0  0  0  0  0
    3.8029    0.3254   14.6500 C   0  0  0  0  0  0  0  0  0  0  0  0
    4.2084   -0.3970   15.8032 C   0  0  0  0  0  0  0  0  0  0  0  0
    5.4469   -0.2299   16.4051 N   0  0  0  0  0  0  0  0  0  0  0  0
    3.3449   -1.2641   16.3491 N   0  0  0  0  0  0  0  0  0  0  0  0
    2.1321   -1.4289   15.8579 C   0  0  0  0  0  0  0  0  0  0  0  0
    1.7122   -0.7995   14.7871 N   0  0  0  0  0  0  0  0  0  0  0  0
    2.4978    0.0925   14.1635 C   0  0  0  0  0  0  0  0  0  0  0  0
    6.0987    0.4013   16.0231 H   0  0  0  0  0  0  0  0  0  0  0  0
    5.6741   -0.7426   17.2143 H   0  0  0  0  0  0  0  0  0  0  0  0
    0.9932    4.2163   10.5853 C   0  0  0  0  0  0  0  0  0  0  0  0
    0.9970    5.2675   11.5641 O   0  0  0  0  0  0  0  0  0  0  0  0
    2.3645    5.9646   12.0449 P   0  0  0  0  0  0  0  0  0  0  0  0
    3.1243    5.0909   13.0776 O   0  0  0  0  0  0  0  0  0  0  0  0
    2.0445    7.3395   12.6888 O   0  0  0  0  0  0  0  0  0  0  0  0
    2.8689    7.7603   12.9789 H   0  0  0  0  0  0  0  0  0  0  0  0
    3.2546    6.1983   10.7194 O   0  0  0  0  0  0  0  0  0  0  0  0
    3.1503    7.2456    9.4962 P   0  0  0  0  0  0  0  0  0  0  0  0
    2.3455    8.4701    9.9981 O   0  0  0  0  0  0  0  0  0  0  0  0
    2.3705    6.5656    8.3417 O   0  0  0  0  0  0  0  0  0  0  0  0
    2.2969    7.1805    7.5951 H   0  0  0  0  0  0  0  0  0  0  0  0
    4.7053    7.7217    9.0278 N   0  0  0  0  0  0  0  0  0  0  0  0
    5.2737    7.7827    9.8726 H   0  0  0  0  0  0  0  0  0  0  0  0
    4.8573    9.1954    8.2061 P   0  0  0  0  0  0  0  0  0  0  0  0
    6.2291    9.3263    7.4617 O   0  0  0  0  0  0  0  0  0  0  0  0
    3.6845    9.3600    7.1716 O   0  0  0  0  0  0  0  0  0  0  0  0
    4.7936   10.3727    9.2439 O   0  0  0  0  0  0  0  0  0  0  0  0
    3.7799   10.2058    6.7065 H   0  0  0  0  0  0  0  0  0  0  0  0
    4.8802   11.2192    8.7782 H   0  0  0  0  0  0  0  0  0  0  0  0
 35 36  2  0  0  0
 35 37  1  0  0  0
 35 38  1  0  0  0
 35 33  1  0  0  0
 29 30  2  0  0  0
 29 31  1  0  0  0
 29 33  1  0  0  0
 29 28  1  0  0  0
 24 25  2  0  0  0
 24 26  1  0  0  0
 24 28  1  0  0  0
 24 23  1  0  0  0
 23 22  1  0  0  0
 22  1  1  0  0  0
  1  2  1  0  0  0
  1  3  1  0  0  0
  2  7  1  0  0  0
  3  4  1  0  0  0
  3  5  1  0  0  0
  5  6  1  0  0  0
  5  7  1  0  0  0
  7 10  1  0  0  0
 10 11  1  0  0  0
 10 19  1  0  0  0
 11 12  2  0  0  0
 12 13  1  0  0  0
 13 14  1  0  0  0
 13 19  2  0  0  0
 14 15  1  0  0  0
 14 16  2  0  0  0
 16 17  1  0  0  0
 17 18  2  0  0  0
 18 19  1  0  0  0
 37 39  1  0  0  0
 38 40  1  0  0  0
 31 32  1  0  0  0
 33 34  1  0  0  0
 26 27  1  0  0  0
  4  8  1  0  0  0
  6  9  1  0  0  0
 15 20  1  0  0  0
 15 21  1  0  0  0
M  END
> <minimizedAffinity>
-7.42252

$$$$
4FL1_ANP_A_701


 40 42  0  0  0  0  0  0  0  0999 V2000
    1.8891    4.5331   11.2777 C   0  0  0  0  0  0  0  0  0  0  0  0
    2.3848    3.1773   11.1790 O   0  0  0  0  0  0  0  0  0  0  0  0
    1.4104    4.6730   12.7391 C   0  0  0  0  0  0  0  0  0  0  0  0
    0.4450    5.7158   12.8770 O   0  0  0  0  0  0  0  0  0  0  0  0
    0.8067    3.2722   13.0012 C   0  0  0  0  0  0  0  0  0  0  0  0
   -0.5134    3.1837   12.4380 O   0  0  0  0  0  0  0  0  0  0  0  0
    1.7950    2.3550   12.2205 C   0  0  0  0  0  0  0  0  0  0  0  0
   -0.2986    5.5494   12.2768 H   0  0  0  0  0  0  0  0  0  0  0  0
   -0.4771    3.4010   11.4934 H   0  0  0  0  0  0  0  0  0  0  0  0
    2.8146    1.7575   13.1056 N   0  0  0  0  0  0  0  0  0  0  0  0
    4.1186    2.1476   13.2696 C   0  0  0  0  0  0  0  0  0  0  0  0
    4.7134    1.4021   14.1744 N   0  0  0  0  0  0  0  0  0  0  0  0
    3.8132    0.5139   14.6808 C   0  0  0  0  0  0  0  0  0  0  0  0
    3.8259   -0.4964   15.6784 C   0  0  0  0  0  0  0  0  0  0  0  0
    4.9472   -0.7976   16.4375 N   0  0  0  0  0  0  0  0  0  0  0  0
    2.6947   -1.1751   15.9134 N   0  0  0  0  0  0  0  0  0  0  0  0
    1.5798   -0.8999   15.2650 C   0  0  0  0  0  0  0  0  0  0  0  0
    1.5164    0.0114   14.3244 N   0  0  0  0  0  0  0  0  0  0  0  0
    2.5926    0.7499   14.0111 C   0  0  0  0  0  0  0  0  0  0  0  0
    5.7903   -0.3129   16.2839 H   0  0  0  0  0  0  0  0  0  0  0  0
    4.9000   -1.4960   17.1297 H   0  0  0  0  0  0  0  0  0  0  0  0
    3.0046    5.5212   10.9244 C   0  0  0  0  0  0  0  0  0  0  0  0
    3.0245    5.7783    9.5114 O   0  0  0  0  0  0  0  0  0  0  0  0
    3.1511    7.2725    8.9296 P   0  0  0  0  0  0  0  0  0  0  0  0
    2.5775    8.3247    9.9150 O   0  0  0  0  0  0  0  0  0  0  0  0
    2.3814    7.3705    7.5861 O   0  0  0  0  0  0  0  0  0  0  0  0
    2.4574    8.2714    7.2348 H   0  0  0  0  0  0  0  0  0  0  0  0
    4.7205    7.5307    8.6574 O   0  0  0  0  0  0  0  0  0  0  0  0
    5.5173    8.6100    7.7608 P   0  0  0  0  0  0  0  0  0  0  0  0
    5.5848    9.9292    8.5696 O   0  0  0  0  0  0  0  0  0  0  0  0
    4.7067    8.8532    6.4619 O   0  0  0  0  0  0  0  0  0  0  0  0
    5.1702    9.5008    5.9080 H   0  0  0  0  0  0  0  0  0  0  0  0
    7.0787    8.0383    7.4458 N   0  0  0  0  0  0  0  0  0  0  0  0
    7.6015    8.0793    8.3207 H   0  0  0  0  0  0  0  0  0  0  0  0
    7.9881    8.8545    6.2724 P   0  0  0  0  0  0  0  0  0  0  0  0
    8.0044    8.1026    4.8986 O   0  0  0  0  0  0  0  0  0  0  0  0
    7.4227   10.3072    6.0655 O   0  0  0  0  0  0  0  0  0  0  0  0
    9.4809    8.9496    6.7517 O   0  0  0  0  0  0  0  0  0  0  0  0
    7.9492   10.7663    5.3925 H   0  0  0  0  0  0  0  0  0  0  0  0
   10.0061    9.4164    6.0830 H   0  0  0  0  0  0  0  0  0  0  0  0
 35 36  2  0  0  0
 35 37  1  0  0  0
 35 38  1  0  0  0
 35 33  1  0  0  0
 29 30  2  0  0  0
 29 31  1  0  0  0
 29 33  1  0  0  0
 29 28  1  0  0  0
 24 25  2  0  0  0
 24 26  1  0  0  0
 24 28  1  0  0  0
 24 23  1  0  0  0
 23 22  1  0  0  0
 22  1  1  0  0  0
  1  2  1  0  0  0
  1  3  1  0  0  0
  2  7  1  0  0  0
  3  4  1  0  0  0
  3  5  1  0  0  0
  5  6  1  0  0  0
  5  7  1  0  0  0
  7 10  1  0  0  0
 10 11  1  0  0  0
 10 19  1  0  0  0
 11 12  2  0  0  0
 12 13  1  0  0  0
 13 14  1  0  0  0
 13 19  2  0  0  0
 14 15  1  0  0  0
 14 16  2  0  0  0
 16 17  1  0  0  0
 17 18  2  0  0  0
 18 19  1  0  0  0
 37 39  1  0  0  0
 38 40  1  0  0  0
 31 32  1  0  0  0
 33 34  1  0  0  0
 26 27  1  0  0  0
  4  8  1  0  0  0
  6  9  1  0  0  0
 15 20  1  0  0  0
 15 21  1  0  0  0
M  END
> <minimizedAffinity>
-7.04332

$$$$
4FL1_ANP_A_701


 40 42  0  0  0  0  0  0  0  0999 V2000
   -0.2260    2.8545   10.7459 C   0  0  0  0  0  0  0  0  0  0  0  0
    0.5861    1.6576   10.7829 O   0  0  0  0  0  0  0  0  0  0  0  0
   -0.5836    3.1348   12.2217 C   0  0  0  0  0  0  0  0  0  0  0  0
   -1.7647    3.9292   12.3332 O   0  0  0  0  0  0  0  0  0  0  0  0
   -0.7840    1.7006   12.7681 C   0  0  0  0  0  0  0  0  0  0  0  0
   -2.0856    1.2064   12.4086 O   0  0  0  0  0  0  0  0  0  0  0  0
    0.3262    0.9177   12.0052 C   0  0  0  0  0  0  0  0  0  0  0  0
   -2.4951    3.4892   11.8708 H   0  0  0  0  0  0  0  0  0  0  0  0
   -2.1955    1.2551   11.4461 H   0  0  0  0  0  0  0  0  0  0  0  0
    1.5434    0.7428   12.8224 N   0  0  0  0  0  0  0  0  0  0  0  0
    2.7288    1.4241   12.7219 C   0  0  0  0  0  0  0  0  0  0  0  0
    3.5722    1.0223   13.6468 N   0  0  0  0  0  0  0  0  0  0  0  0
    2.9634    0.0874   14.4284 C   0  0  0  0  0  0  0  0  0  0  0  0
    3.3160   -0.6712   15.5757 C   0  0  0  0  0  0  0  0  0  0  0  0
    4.5489   -0.5672   16.2030 N   0  0  0  0  0  0  0  0  0  0  0  0
    2.4066   -1.5101   16.0900 N   0  0  0  0  0  0  0  0  0  0  0  0
    1.1975   -1.6149   15.5739 C   0  0  0  0  0  0  0  0  0  0  0  0
    0.8250   -0.9500   14.5070 N   0  0  0  0  0  0  0  0  0  0  0  0
    1.6591   -0.0815   13.9140 C   0  0  0  0  0  0  0  0  0  0  0  0
    5.2338    0.0422   15.8444 H   0  0  0  0  0  0  0  0  0  0  0  0
    4.7388   -1.1029   17.0069 H   0  0  0  0  0  0  0  0  0  0  0  0
    0.5631    3.9982   10.1020 C   0  0  0  0  0  0  0  0  0  0  0  0
    1.2221    4.7866   11.1056 O   0  0  0  0  0  0  0  0  0  0  0  0
    2.6669    5.4437   10.8451 P   0  0  0  0  0  0  0  0  0  0  0  0
    2.6575    6.9744   11.0978 O   0  0  0  0  0  0  0  0  0  0  0  0
    3.0975    5.1794    9.3782 O   0  0  0  0  0  0  0  0  0  0  0  0
    3.9688    5.5754    9.2206 H   0  0  0  0  0  0  0  0  0  0  0  0
    3.6983    4.7002   11.8388 O   0  0  0  0  0  0  0  0  0  0  0  0
    4.3089    5.0894   13.2808 P   0  0  0  0  0  0  0  0  0  0  0  0
    5.7222    5.6777   13.0455 O   0  0  0  0  0  0  0  0  0  0  0  0
    4.4336    3.7919   14.1200 O   0  0  0  0  0  0  0  0  0  0  0  0
    4.7997    4.0052   14.9926 H   0  0  0  0  0  0  0  0  0  0  0  0
    3.3139    6.2404   14.0220 N   0  0  0  0  0  0  0  0  0  0  0  0
    3.8069    6.5856   14.8455 H   0  0  0  0  0  0  0  0  0  0  0  0
    1.7764    5.7369   14.5247 P   0  0  0  0  0  0  0  0  0  0  0  0
    1.5533    4.2004   14.3187 O   0  0  0  0  0  0  0  0  0  0  0  0
    1.5591    6.0973   16.0398 O   0  0  0  0  0  0  0  0  0  0  0  0
    0.6869    6.4699   13.6627 O   0  0  0  0  0  0  0  0  0  0  0  0
    0.6769    5.8054   16.3183 H   0  0  0  0  0  0  0  0  0  0  0  0
   -0.1957    6.1849   13.9467 H   0  0  0  0  0  0  0  0  0  0  0  0
 35 36  2  0  0  0
 35 37  1  0  0  0
 35 38  1  0  0  0
 35 33  1  0  0  0
 29 30  2  0  0  0
 29 31  1  0  0  0
 29 33  1  0  0  0
 29 28  1  0  0  0
 24 25  2  0  0  0
 24 26  1  0  0  0
 24 28  1  0  0  0
 24 23  1  0  0  0
 23 22  1  0  0  0
 22  1  1  0  0  0
  1  2  1  0  0  0
  1  3  1  0  0  0
  2  7  1  0  0  0
  3  4  1  0  0  0
  3  5  1  0  0  0
  5  6  1  0  0  0
  5  7  1  0  0  0
  7 10  1  0  0  0
 10 11  1  0  0  0
 10 19  1  0  0  0
 11 12  2  0  0  0
 12 13  1  0  0  0
 13 14  1  0  0  0
 13 19  2  0  0  0
 14 15  1  0  0  0
 14 16  2  0  0  0
 16 17  1  0  0  0
 17 18  2  0  0  0
 18 19  1  0  0  0
 37 39  1  0  0  0
 38 40  1  0  0  0
 31 32  1  0  0  0
 33 34  1  0  0  0
 26 27  1  0  0  0
  4  8  1  0  0  0
  6  9  1  0  0  0
 15 20  1  0  0  0
 15 21  1  0  0  0
M  END
> <minimizedAffinity>
-7.02848

$$$$
4FL1_ANP_A_701


 40 42  0  0  0  0  0  0  0  0999 V2000
   -0.4047    1.6307   11.6057 C   0  0  0  0  0  0  0  0  0  0  0  0
    0.7886    0.8252   11.4623 O   0  0  0  0  0  0  0  0  0  0  0  0
   -0.5523    1.8503   13.1271 C   0  0  0  0  0  0  0  0  0  0  0  0
   -1.9006    2.1553   13.4844 O   0  0  0  0  0  0  0  0  0  0  0  0
   -0.0905    0.4814   13.6824 C   0  0  0  0  0  0  0  0  0  0  0  0
   -1.1537   -0.4818   13.5846 O   0  0  0  0  0  0  0  0  0  0  0  0
    1.0647    0.1199   12.7014 C   0  0  0  0  0  0  0  0  0  0  0  0
   -2.4859    1.4478   13.1719 H   0  0  0  0  0  0  0  0  0  0  0  0
   -1.4556   -0.5378   12.6645 H   0  0  0  0  0  0  0  0  0  0  0  0
    2.3902    0.4606   13.2552 N   0  0  0  0  0  0  0  0  0  0  0  0
    3.2498    1.4426   12.8356 C   0  0  0  0  0  0  0  0  0  0  0  0
    4.3211    1.4748   13.5968 N   0  0  0  0  0  0  0  0  0  0  0  0
    4.1951    0.5427   14.5822 C   0  0  0  0  0  0  0  0  0  0  0  0
    4.9655    0.1284   15.7006 C   0  0  0  0  0  0  0  0  0  0  0  0
    6.1817    0.7039   16.0378 N   0  0  0  0  0  0  0  0  0  0  0  0
    4.4837   -0.8492   16.4802 N   0  0  0  0  0  0  0  0  0  0  0  0
    3.3084   -1.3998   16.2461 C   0  0  0  0  0  0  0  0  0  0  0  0
    2.5639   -1.0659   15.2197 N   0  0  0  0  0  0  0  0  0  0  0  0
    2.9529   -0.0966   14.3767 C   0  0  0  0  0  0  0  0  0  0  0  0
    6.5568    1.4240   15.4810 H   0  0  0  0  0  0  0  0  0  0  0  0
    6.6698    0.3924   16.8341 H   0  0  0  0  0  0  0  0  0  0  0  0
   -0.2422    2.9426   10.8326 C   0  0  0  0  0  0  0  0  0  0  0  0
   -1.4652    3.6956   10.8503 O   0  0  0  0  0  0  0  0  0  0  0  0
   -1.5471    5.1517   11.5286 P   0  0  0  0  0  0  0  0  0  0  0  0
   -2.3295    5.1199   12.8681 O   0  0  0  0  0  0  0  0  0  0  0  0
   -2.2531    6.1347   10.5577 O   0  0  0  0  0  0  0  0  0  0  0  0
   -2.3028    7.0130   10.9664 H   0  0  0  0  0  0  0  0  0  0  0  0
   -0.0265    5.6402   11.7590 O   0  0  0  0  0  0  0  0  0  0  0  0
    0.7898    6.1114   13.0686 P   0  0  0  0  0  0  0  0  0  0  0  0
    1.1235    4.8426   13.8918 O   0  0  0  0  0  0  0  0  0  0  0  0
   -0.1321    7.0322   13.9086 O   0  0  0  0  0  0  0  0  0  0  0  0
    0.3414    7.3268   14.7022 H   0  0  0  0  0  0  0  0  0  0  0  0
    2.2153    6.8905   12.5941 N   0  0  0  0  0  0  0  0  0  0  0  0
    1.9541    7.6478   11.9627 H   0  0  0  0  0  0  0  0  0  0  0  0
    3.3916    5.9578   11.8088 P   0  0  0  0  0  0  0  0  0  0  0  0
    2.7996    4.6470   11.1887 O   0  0  0  0  0  0  0  0  0  0  0  0
    4.0845    6.8032   10.6783 O   0  0  0  0  0  0  0  0  0  0  0  0
    4.4771    5.5121   12.8528 O   0  0  0  0  0  0  0  0  0  0  0  0
    4.7557    6.2613   10.2347 H   0  0  0  0  0  0  0  0  0  0  0  0
    5.1533    4.9775   12.4080 H   0  0  0  0  0  0  0  0  0  0  0  0
 35 36  2  0  0  0
 35 37  1  0  0  0
 35 38  1  0  0  0
 35 33  1  0  0  0
 29 30  2  0  0  0
 29 31  1  0  0  0
 29 33  1  0  0  0
 29 28  1  0  0  0
 24 25  2  0  0  0
 24 26  1  0  0  0
 24 28  1  0  0  0
 24 23  1  0  0  0
 23 22  1  0  0  0
 22  1  1  0  0  0
  1  2  1  0  0  0
  1  3  1  0  0  0
  2  7  1  0  0  0
  3  4  1  0  0  0
  3  5  1  0  0  0
  5  6  1  0  0  0
  5  7  1  0  0  0
  7 10  1  0  0  0
 10 11  1  0  0  0
 10 19  1  0  0  0
 11 12  2  0  0  0
 12 13  1  0  0  0
 13 14  1  0  0  0
 13 19  2  0  0  0
 14 15  1  0  0  0
 14 16  2  0  0  0
 16 17  1  0  0  0
 17 18  2  0  0  0
 18 19  1  0  0  0
 37 39  1  0  0  0
 38 40  1  0  0  0
 31 32  1  0  0  0
 33 34  1  0  0  0
 26 27  1  0  0  0
  4  8  1  0  0  0
  6  9  1  0  0  0
 15 20  1  0  0  0
 15 21  1  0  0  0
M  END
> <minimizedAffinity>
-6.93511

$$$$
4FL1_ANP_A_701


 40 42  0  0  0  0  0  0  0  0999 V2000
    0.0405    1.5029   11.8346 C   0  0  0  0  0  0  0  0  0  0  0  0
    0.6618    0.2327   12.1413 O   0  0  0  0  0  0  0  0  0  0  0  0
   -0.3964    2.0694   13.2030 C   0  0  0  0  0  0  0  0  0  0  0  0
   -1.4531    3.0194   13.0640 O   0  0  0  0  0  0  0  0  0  0  0  0
   -0.8511    0.7851   13.9374 C   0  0  0  0  0  0  0  0  0  0  0  0
   -2.1758    0.4132   13.5197 O   0  0  0  0  0  0  0  0  0  0  0  0
    0.1929   -0.2529   13.4271 C   0  0  0  0  0  0  0  0  0  0  0  0
   -2.1982    2.6084   12.5984 H   0  0  0  0  0  0  0  0  0  0  0  0
   -2.1951    0.3151   12.5549 H   0  0  0  0  0  0  0  0  0  0  0  0
    1.2971   -0.4476   14.3877 N   0  0  0  0  0  0  0  0  0  0  0  0
    1.3390   -1.3022   15.4588 C   0  0  0  0  0  0  0  0  0  0  0  0
    2.5044   -1.2291   16.0626 N   0  0  0  0  0  0  0  0  0  0  0  0
    3.3009   -0.3537   15.3882 C   0  0  0  0  0  0  0  0  0  0  0  0
    4.6364    0.1133   15.5088 C   0  0  0  0  0  0  0  0  0  0  0  0
    5.5040   -0.3204   16.5005 N   0  0  0  0  0  0  0  0  0  0  0  0
    5.0868    0.9974   14.6082 N   0  0  0  0  0  0  0  0  0  0  0  0
    4.3303    1.4078   13.6089 C   0  0  0  0  0  0  0  0  0  0  0  0
    3.0865    1.0207   13.4594 N   0  0  0  0  0  0  0  0  0  0  0  0
    2.5372    0.1356   14.3058 C   0  0  0  0  0  0  0  0  0  0  0  0
    5.1968   -0.9696   17.1738 H   0  0  0  0  0  0  0  0  0  0  0  0
    6.4268    0.0211   16.5310 H   0  0  0  0  0  0  0  0  0  0  0  0
    1.0410    2.4097   11.1121 C   0  0  0  0  0  0  0  0  0  0  0  0
    0.3546    3.3742   10.2987 O   0  0  0  0  0  0  0  0  0  0  0  0
    0.5137    4.9545   10.5522 P   0  0  0  0  0  0  0  0  0  0  0  0
    0.0628    5.3569   11.9812 O   0  0  0  0  0  0  0  0  0  0  0  0
   -0.3420    5.7322    9.5177 O   0  0  0  0  0  0  0  0  0  0  0  0
   -0.2463    6.6854    9.6702 H   0  0  0  0  0  0  0  0  0  0  0  0
    2.0712    5.3054   10.3174 O   0  0  0  0  0  0  0  0  0  0  0  0
    3.1088    6.2702   11.0895 P   0  0  0  0  0  0  0  0  0  0  0  0
    4.0443    5.3690   11.9331 O   0  0  0  0  0  0  0  0  0  0  0  0
    2.2996    7.1899   12.0396 O   0  0  0  0  0  0  0  0  0  0  0  0
    2.9068    7.7790   12.5141 H   0  0  0  0  0  0  0  0  0  0  0  0
    4.0098    7.1491    9.9582 N   0  0  0  0  0  0  0  0  0  0  0  0
    4.6735    7.7246   10.4766 H   0  0  0  0  0  0  0  0  0  0  0  0
    3.1613    8.1734    8.9088 P   0  0  0  0  0  0  0  0  0  0  0  0
    3.4228    7.8354    7.4020 O   0  0  0  0  0  0  0  0  0  0  0  0
    1.6188    8.0890    9.2025 O   0  0  0  0  0  0  0  0  0  0  0  0
    3.6443    9.6516    9.1295 O   0  0  0  0  0  0  0  0  0  0  0  0
    1.1417    8.6783    8.5974 H   0  0  0  0  0  0  0  0  0  0  0  0
    3.1613   10.2424    8.5307 H   0  0  0  0  0  0  0  0  0  0  0  0
 35 36  2  0  0  0
 35 37  1  0  0  0
 35 38  1  0  0  0
 35 33  1  0  0  0
 29 30  2  0  0  0
 29 31  1  0  0  0
 29 33  1  0  0  0
 29 28  1  0  0  0
 24 25  2  0  0  0
 24 26  1  0  0  0
 24 28  1  0  0  0
 24 23  1  0  0  0
 23 22  1  0  0  0
 22  1  1  0  0  0
  1  2  1  0  0  0
  1  3  1  0  0  0
  2  7  1  0  0  0
  3  4  1  0  0  0
  3  5  1  0  0  0
  5  6  1  0  0  0
  5  7  1  0  0  0
  7 10  1  0  0  0
 10 11  1  0  0  0
 10 19  1  0  0  0
 11 12  2  0  0  0
 12 13  1  0  0  0
 13 14  1  0  0  0
 13 19  2  0  0  0
 14 15  1  0  0  0
 14 16  2  0  0  0
 16 17  1  0  0  0
 17 18  2  0  0  0
 18 19  1  0  0  0
 37 39  1  0  0  0
 38 40  1  0  0  0
 31 32  1  0  0  0
 33 34  1  0  0  0
 26 27  1  0  0  0
  4  8  1  0  0  0
  6  9  1  0  0  0
 15 20  1  0  0  0
 15 21  1  0  0  0
M  END
> <minimizedAffinity>
-6.92030

$$$$
4FL1_ANP_A_701


 40 42  0  0  0  0  0  0  0  0999 V2000
    2.4637    4.1498   13.0959 C   0  0  0  0  0  0  0  0  0  0  0  0
    1.5994    3.6875   14.1602 O   0  0  0  0  0  0  0  0  0  0  0  0
    2.7434    2.8946   12.2410 C   0  0  0  0  0  0  0  0  0  0  0  0
    3.9491    3.0308   11.4886 O   0  0  0  0  0  0  0  0  0  0  0  0
    2.8477    1.7981   13.3283 C   0  0  0  0  0  0  0  0  0  0  0  0
    4.1458    1.8288   13.9460 O   0  0  0  0  0  0  0  0  0  0  0  0
    1.7525    2.2544   14.3383 C   0  0  0  0  0  0  0  0  0  0  0  0
    4.6862    3.2190   12.0903 H   0  0  0  0  0  0  0  0  0  0  0  0
    4.3157    2.7168   14.2975 H   0  0  0  0  0  0  0  0  0  0  0  0
    0.4817    1.5280   14.1446 N   0  0  0  0  0  0  0  0  0  0  0  0
   -0.6422    1.9598   13.4890 C   0  0  0  0  0  0  0  0  0  0  0  0
   -1.5638    1.0223   13.4858 N   0  0  0  0  0  0  0  0  0  0  0  0
   -1.0711   -0.0882   14.1018 C   0  0  0  0  0  0  0  0  0  0  0  0
   -1.5431   -1.3995   14.3739 C   0  0  0  0  0  0  0  0  0  0  0  0
   -2.7980   -1.8479   13.9889 N   0  0  0  0  0  0  0  0  0  0  0  0
   -0.7289   -2.2508   15.0124 N   0  0  0  0  0  0  0  0  0  0  0  0
    0.4962   -1.9042   15.3566 C   0  0  0  0  0  0  0  0  0  0  0  0
    0.9765   -0.7029   15.1434 N   0  0  0  0  0  0  0  0  0  0  0  0
    0.2439    0.2262   14.5097 C   0  0  0  0  0  0  0  0  0  0  0  0
   -3.4145   -1.2415   13.5184 H   0  0  0  0  0  0  0  0  0  0  0  0
   -3.0722   -2.7727   14.1862 H   0  0  0  0  0  0  0  0  0  0  0  0
    1.7655    5.2597   12.3047 C   0  0  0  0  0  0  0  0  0  0  0  0
    2.7307    6.1445   11.7142 O   0  0  0  0  0  0  0  0  0  0  0  0
    2.8700    6.2939   10.1187 P   0  0  0  0  0  0  0  0  0  0  0  0
    1.5836    6.8817    9.4808 O   0  0  0  0  0  0  0  0  0  0  0  0
    3.1507    4.9025    9.4924 O   0  0  0  0  0  0  0  0  0  0  0  0
    3.2348    4.9921    8.5302 H   0  0  0  0  0  0  0  0  0  0  0  0
    4.1380    7.2561    9.8540 O   0  0  0  0  0  0  0  0  0  0  0  0
    4.5038    8.2916    8.6717 P   0  0  0  0  0  0  0  0  0  0  0  0
    4.0829    9.7056    9.1434 O   0  0  0  0  0  0  0  0  0  0  0  0
    3.6754    7.9082    7.4187 O   0  0  0  0  0  0  0  0  0  0  0  0
    3.8815    8.5204    6.6951 H   0  0  0  0  0  0  0  0  0  0  0  0
    6.1700    8.2464    8.3784 N   0  0  0  0  0  0  0  0  0  0  0  0
    6.6397    8.5214    9.2411 H   0  0  0  0  0  0  0  0  0  0  0  0
    6.7721    9.2296    7.1370 P   0  0  0  0  0  0  0  0  0  0  0  0
    6.7670   10.7480    7.5211 O   0  0  0  0  0  0  0  0  0  0  0  0
    8.2350    8.7910    6.7627 O   0  0  0  0  0  0  0  0  0  0  0  0
    5.8536    9.0818    5.8715 O   0  0  0  0  0  0  0  0  0  0  0  0
    8.5710    9.3590    6.0518 H   0  0  0  0  0  0  0  0  0  0  0  0
    6.1942    9.6430    5.1574 H   0  0  0  0  0  0  0  0  0  0  0  0
 35 36  2  0  0  0
 35 37  1  0  0  0
 35 38  1  0  0  0
 35 33  1  0  0  0
 29 30  2  0  0  0
 29 31  1  0  0  0
 29 33  1  0  0  0
 29 28  1  0  0  0
 24 25  2  0  0  0
 24 26  1  0  0  0
 24 28  1  0  0  0
 24 23  1  0  0  0
 23 22  1  0  0  0
 22  1  1  0  0  0
  1  2  1  0  0  0
  1  3  1  0  0  0
  2  7  1  0  0  0
  3  4  1  0  0  0
  3  5  1  0  0  0
  5  6  1  0  0  0
  5  7  1  0  0  0
  7 10  1  0  0  0
 10 11  1  0  0  0
 10 19  1  0  0  0
 11 12  2  0  0  0
 12 13  1  0  0  0
 13 14  1  0  0  0
 13 19  2  0  0  0
 14 15  1  0  0  0
 14 16  2  0  0  0
 16 17  1  0  0  0
 17 18  2  0  0  0
 18 19  1  0  0  0
 37 39  1  0  0  0
 38 40  1  0  0  0
 31 32  1  0  0  0
 33 34  1  0  0  0
 26 27  1  0  0  0
  4  8  1  0  0  0
  6  9  1  0  0  0
 15 20  1  0  0  0
 15 21  1  0  0  0
M  END
> <minimizedAffinity>
-6.68123

$$$$
