2QW1_3MG_A_310


 17 17  0  0  0  0  0  0  0  0999 V2000
   -4.6279   17.8889  -18.0425 C   0  0  0  0  0  0  0  0  0  0  0  0
   -5.3188   17.2125  -16.9835 O   0  0  0  0  0  0  0  0  0  0  0  0
   -3.1637   18.1495  -17.6859 C   0  0  0  0  0  0  0  0  0  0  0  0
   -2.5334   18.8963  -18.7385 O   0  0  0  0  0  0  0  0  0  0  0  0
   -3.0843   18.8775  -16.3427 C   0  0  0  0  0  0  0  0  0  0  0  0
   -3.8329   18.0829  -15.2735 C   0  0  0  0  0  0  0  0  0  0  0  0
   -3.7732   18.7817  -14.0268 O   0  0  0  0  0  0  0  0  0  0  0  0
   -5.2880   17.8883  -15.7195 C   0  0  0  0  0  0  0  0  0  0  0  0
   -6.0519   17.1238  -14.7752 O   0  0  0  0  0  0  0  0  0  0  0  0
   -2.9897   19.7449  -18.8509 H   0  0  0  0  0  0  0  0  0  0  0  0
   -4.1812   19.6561  -14.1264 H   0  0  0  0  0  0  0  0  0  0  0  0
   -5.6699   16.2360  -14.6935 H   0  0  0  0  0  0  0  0  0  0  0  0
   -4.3514   17.7706  -20.4143 O   0  0  0  0  0  0  0  0  0  0  0  0
   -4.6915   17.0050  -19.2716 C   0  0  0  0  0  0  0  0  0  0  0  0
   -4.3909   17.2083  -21.2037 H   0  0  0  0  0  0  0  0  0  0  0  0
   -1.7256   19.1027  -15.9597 O   0  0  0  0  0  0  0  0  0  0  0  0
   -0.9776   17.8806  -15.8691 C   0  0  0  0  0  0  0  0  0  0  0  0
 17 16  1  0  0  0
 16  5  1  0  0  0
  7  6  1  0  0  0
  5  6  1  0  0  0
  5  3  1  0  0  0
  4  3  1  0  0  0
  6  8  1  0  0  0
  3  1  1  0  0  0
  8  9  1  0  0  0
  8  2  1  0  0  0
  1  2  1  0  0  0
  1 14  1  0  0  0
 13 14  1  0  0  0
 13 15  1  0  0  0
  4 10  1  0  0  0
  7 11  1  0  0  0
  9 12  1  0  0  0
M  END
> <minimizedAffinity>
-5.51957

$$$$
2QW1_3MG_A_310


 17 17  0  0  0  0  0  0  0  0999 V2000
   -4.3474   18.5634  -15.3533 C   0  0  0  0  0  0  0  0  0  0  0  0
   -3.2654   18.1007  -14.5338 O   0  0  0  0  0  0  0  0  0  0  0  0
   -5.1220   17.4008  -15.9757 C   0  0  0  0  0  0  0  0  0  0  0  0
   -6.1432   17.9099  -16.8481 O   0  0  0  0  0  0  0  0  0  0  0  0
   -4.1527   16.4736  -16.7112 C   0  0  0  0  0  0  0  0  0  0  0  0
   -3.0436   16.0200  -15.7630 C   0  0  0  0  0  0  0  0  0  0  0  0
   -2.1295   15.1724  -16.4646 O   0  0  0  0  0  0  0  0  0  0  0  0
   -2.3231   17.2548  -15.2061 C   0  0  0  0  0  0  0  0  0  0  0  0
   -1.2806   16.9094  -14.2821 O   0  0  0  0  0  0  0  0  0  0  0  0
   -5.7335   18.4339  -17.5542 H   0  0  0  0  0  0  0  0  0  0  0  0
   -1.7417   15.6602  -17.2078 H   0  0  0  0  0  0  0  0  0  0  0  0
   -1.6641   16.4493  -13.5192 H   0  0  0  0  0  0  0  0  0  0  0  0
   -4.5242   20.0246  -13.4692 O   0  0  0  0  0  0  0  0  0  0  0  0
   -5.2806   19.3684  -14.4716 C   0  0  0  0  0  0  0  0  0  0  0  0
   -5.1180   20.5413  -12.9023 H   0  0  0  0  0  0  0  0  0  0  0  0
   -4.8398   15.3530  -17.2731 O   0  0  0  0  0  0  0  0  0  0  0  0
   -4.7616   15.3314  -18.7065 C   0  0  0  0  0  0  0  0  0  0  0  0
 17 16  1  0  0  0
 16  5  1  0  0  0
  7  6  1  0  0  0
  5  6  1  0  0  0
  5  3  1  0  0  0
  4  3  1  0  0  0
  6  8  1  0  0  0
  3  1  1  0  0  0
  8  9  1  0  0  0
  8  2  1  0  0  0
  1  2  1  0  0  0
  1 14  1  0  0  0
 13 14  1  0  0  0
 13 15  1  0  0  0
  4 10  1  0  0  0
  7 11  1  0  0  0
  9 12  1  0  0  0
M  END
> <minimizedAffinity>
-5.19491

$$$$
2QW1_3MG_A_310


 17 17  0  0  0  0  0  0  0  0999 V2000
   -4.9257   20.3317  -15.1632 C   0  0  0  0  0  0  0  0  0  0  0  0
   -5.9816   19.3765  -14.9932 O   0  0  0  0  0  0  0  0  0  0  0  0
   -3.8555   19.8247  -16.1309 C   0  0  0  0  0  0  0  0  0  0  0  0
   -2.7824   20.7762  -16.2095 O   0  0  0  0  0  0  0  0  0  0  0  0
   -3.3657   18.4477  -15.6789 C   0  0  0  0  0  0  0  0  0  0  0  0
   -4.5506   17.4933  -15.5366 C   0  0  0  0  0  0  0  0  0  0  0  0
   -4.0865   16.2154  -15.0919 O   0  0  0  0  0  0  0  0  0  0  0  0
   -5.5549   18.0852  -14.5392 C   0  0  0  0  0  0  0  0  0  0  0  0
   -6.7137   17.2551  -14.3720 O   0  0  0  0  0  0  0  0  0  0  0  0
   -2.3880   20.8921  -15.3309 H   0  0  0  0  0  0  0  0  0  0  0  0
   -3.6435   16.3128  -14.2345 H   0  0  0  0  0  0  0  0  0  0  0  0
   -7.1815   17.1786  -15.2183 H   0  0  0  0  0  0  0  0  0  0  0  0
   -4.8505   22.7212  -15.1906 O   0  0  0  0  0  0  0  0  0  0  0  0
   -5.5388   21.6011  -15.7190 C   0  0  0  0  0  0  0  0  0  0  0  0
   -5.2399   23.5363  -15.5440 H   0  0  0  0  0  0  0  0  0  0  0  0
   -2.3906   17.9262  -16.5849 O   0  0  0  0  0  0  0  0  0  0  0  0
   -1.1210   17.7100  -15.9504 C   0  0  0  0  0  0  0  0  0  0  0  0
 17 16  1  0  0  0
 16  5  1  0  0  0
  7  6  1  0  0  0
  5  6  1  0  0  0
  5  3  1  0  0  0
  4  3  1  0  0  0
  6  8  1  0  0  0
  3  1  1  0  0  0
  8  9  1  0  0  0
  8  2  1  0  0  0
  1  2  1  0  0  0
  1 14  1  0  0  0
 13 14  1  0  0  0
 13 15  1  0  0  0
  4 10  1  0  0  0
  7 11  1  0  0  0
  9 12  1  0  0  0
M  END
> <minimizedAffinity>
-5.15229

$$$$
2QW1_3MG_A_310


 17 17  0  0  0  0  0  0  0  0999 V2000
   -4.3635   17.7186  -17.8928 C   0  0  0  0  0  0  0  0  0  0  0  0
   -3.4791   18.0656  -16.8186 O   0  0  0  0  0  0  0  0  0  0  0  0
   -5.8062   18.1264  -17.5909 C   0  0  0  0  0  0  0  0  0  0  0  0
   -6.6665   17.6901  -18.6552 O   0  0  0  0  0  0  0  0  0  0  0  0
   -6.2310   17.5482  -16.2398 C   0  0  0  0  0  0  0  0  0  0  0  0
   -5.2438   17.9772  -15.1552 C   0  0  0  0  0  0  0  0  0  0  0  0
   -5.6355   17.4136  -13.9000 O   0  0  0  0  0  0  0  0  0  0  0  0
   -3.8352   17.5108  -15.5455 C   0  0  0  0  0  0  0  0  0  0  0  0
   -2.8436   17.9019  -14.5845 O   0  0  0  0  0  0  0  0  0  0  0  0
   -6.6185   16.7246  -18.7345 H   0  0  0  0  0  0  0  0  0  0  0  0
   -5.6425   16.4460  -13.9682 H   0  0  0  0  0  0  0  0  0  0  0  0
   -2.8069   18.8698  -14.5334 H   0  0  0  0  0  0  0  0  0  0  0  0
   -4.1728   17.6588  -20.2753 O   0  0  0  0  0  0  0  0  0  0  0  0
   -3.8889   18.4480  -19.1333 C   0  0  0  0  0  0  0  0  0  0  0  0
   -3.8705   18.1222  -21.0720 H   0  0  0  0  0  0  0  0  0  0  0  0
   -7.5641   17.9433  -15.9079 O   0  0  0  0  0  0  0  0  0  0  0  0
   -7.7303   19.3691  -15.9350 C   0  0  0  0  0  0  0  0  0  0  0  0
 17 16  1  0  0  0
 16  5  1  0  0  0
  7  6  1  0  0  0
  5  6  1  0  0  0
  5  3  1  0  0  0
  4  3  1  0  0  0
  6  8  1  0  0  0
  3  1  1  0  0  0
  8  9  1  0  0  0
  8  2  1  0  0  0
  1  2  1  0  0  0
  1 14  1  0  0  0
 13 14  1  0  0  0
 13 15  1  0  0  0
  4 10  1  0  0  0
  7 11  1  0  0  0
  9 12  1  0  0  0
M  END
> <minimizedAffinity>
-5.12477

$$$$
2QW1_3MG_A_310


 17 17  0  0  0  0  0  0  0  0999 V2000
   -3.6386   20.1256  -16.8003 C   0  0  0  0  0  0  0  0  0  0  0  0
   -2.8084   19.4801  -15.8253 O   0  0  0  0  0  0  0  0  0  0  0  0
   -5.0522   20.3658  -16.2686 C   0  0  0  0  0  0  0  0  0  0  0  0
   -5.8681   20.9402  -17.3018 O   0  0  0  0  0  0  0  0  0  0  0  0
   -5.6343   19.0512  -15.7459 C   0  0  0  0  0  0  0  0  0  0  0  0
   -4.6948   18.4414  -14.7064 C   0  0  0  0  0  0  0  0  0  0  0  0
   -5.2352   17.2017  -14.2400 O   0  0  0  0  0  0  0  0  0  0  0  0
   -3.3141   18.2291  -15.3409 C   0  0  0  0  0  0  0  0  0  0  0  0
   -2.3646   17.6818  -14.4141 O   0  0  0  0  0  0  0  0  0  0  0  0
   -5.9107   20.3316  -18.0560 H   0  0  0  0  0  0  0  0  0  0  0  0
   -5.3335   16.5905  -14.9868 H   0  0  0  0  0  0  0  0  0  0  0  0
   -2.2356   18.3019  -13.6794 H   0  0  0  0  0  0  0  0  0  0  0  0
   -3.5549   22.4639  -16.3087 O   0  0  0  0  0  0  0  0  0  0  0  0
   -3.0004   21.4578  -17.1382 C   0  0  0  0  0  0  0  0  0  0  0  0
   -3.1490   23.3187  -16.5218 H   0  0  0  0  0  0  0  0  0  0  0  0
   -6.9428   19.2476  -15.2048 O   0  0  0  0  0  0  0  0  0  0  0  0
   -7.9501   18.5506  -15.9537 C   0  0  0  0  0  0  0  0  0  0  0  0
 17 16  1  0  0  0
 16  5  1  0  0  0
  7  6  1  0  0  0
  5  6  1  0  0  0
  5  3  1  0  0  0
  4  3  1  0  0  0
  6  8  1  0  0  0
  3  1  1  0  0  0
  8  9  1  0  0  0
  8  2  1  0  0  0
  1  2  1  0  0  0
  1 14  1  0  0  0
 13 14  1  0  0  0
 13 15  1  0  0  0
  4 10  1  0  0  0
  7 11  1  0  0  0
  9 12  1  0  0  0
M  END
> <minimizedAffinity>
-5.01105

$$$$
2QW1_3MG_A_310


 17 17  0  0  0  0  0  0  0  0999 V2000
   -3.9462   16.5907  -16.4271 C   0  0  0  0  0  0  0  0  0  0  0  0
   -5.1463   15.9906  -16.9330 O   0  0  0  0  0  0  0  0  0  0  0  0
   -4.1856   17.2918  -15.0892 C   0  0  0  0  0  0  0  0  0  0  0  0
   -2.9797   17.9438  -14.6604 O   0  0  0  0  0  0  0  0  0  0  0  0
   -5.3490   18.2758  -15.2263 C   0  0  0  0  0  0  0  0  0  0  0  0
   -6.5853   17.5512  -15.7570 C   0  0  0  0  0  0  0  0  0  0  0  0
   -7.6610   18.4827  -15.9039 O   0  0  0  0  0  0  0  0  0  0  0  0
   -6.2446   16.8964  -17.1020 C   0  0  0  0  0  0  0  0  0  0  0  0
   -7.3533   16.1706  -17.6533 O   0  0  0  0  0  0  0  0  0  0  0  0
   -2.7152   18.6020  -15.3219 H   0  0  0  0  0  0  0  0  0  0  0  0
   -7.4018   19.1805  -16.5258 H   0  0  0  0  0  0  0  0  0  0  0  0
   -7.5986   15.4497  -17.0525 H   0  0  0  0  0  0  0  0  0  0  0  0
   -3.0207   14.9889  -14.9125 O   0  0  0  0  0  0  0  0  0  0  0  0
   -2.9254   15.4873  -16.2355 C   0  0  0  0  0  0  0  0  0  0  0  0
   -2.3687   14.2820  -14.7856 H   0  0  0  0  0  0  0  0  0  0  0  0
   -5.6255   18.9214  -13.9813 O   0  0  0  0  0  0  0  0  0  0  0  0
   -5.3528   20.3302  -14.0280 C   0  0  0  0  0  0  0  0  0  0  0  0
 17 16  1  0  0  0
 16  5  1  0  0  0
  7  6  1  0  0  0
  5  6  1  0  0  0
  5  3  1  0  0  0
  4  3  1  0  0  0
  6  8  1  0  0  0
  3  1  1  0  0  0
  8  9  1  0  0  0
  8  2  1  0  0  0
  1  2  1  0  0  0
  1 14  1  0  0  0
 13 14  1  0  0  0
 13 15  1  0  0  0
  4 10  1  0  0  0
  7 11  1  0  0  0
  9 12  1  0  0  0
M  END
> <minimizedAffinity>
-5.00752

$$$$
2QW1_3MG_A_310


 17 17  0  0  0  0  0  0  0  0999 V2000
   -5.1944   17.3315  -17.8409 C   0  0  0  0  0  0  0  0  0  0  0  0
   -4.4578   16.4089  -17.0269 O   0  0  0  0  0  0  0  0  0  0  0  0
   -4.5925   18.7364  -17.7886 C   0  0  0  0  0  0  0  0  0  0  0  0
   -5.4055   19.6413  -18.5524 O   0  0  0  0  0  0  0  0  0  0  0  0
   -4.4561   19.1824  -16.3316 C   0  0  0  0  0  0  0  0  0  0  0  0
   -3.6493   18.1513  -15.5437 C   0  0  0  0  0  0  0  0  0  0  0  0
   -3.5462   18.5646  -14.1781 O   0  0  0  0  0  0  0  0  0  0  0  0
   -4.3412   16.7859  -15.6486 C   0  0  0  0  0  0  0  0  0  0  0  0
   -3.6248   15.7549  -14.9531 O   0  0  0  0  0  0  0  0  0  0  0  0
   -6.3009   19.6644  -18.1801 H   0  0  0  0  0  0  0  0  0  0  0  0
   -4.4343   18.6426  -13.7960 H   0  0  0  0  0  0  0  0  0  0  0  0
   -2.7463   15.6475  -15.3500 H   0  0  0  0  0  0  0  0  0  0  0  0
   -4.0991   17.4734  -19.9613 O   0  0  0  0  0  0  0  0  0  0  0  0
   -5.1497   16.8232  -19.2678 C   0  0  0  0  0  0  0  0  0  0  0  0
   -4.0669   17.1509  -20.8756 H   0  0  0  0  0  0  0  0  0  0  0  0
   -3.8595   20.4785  -16.2446 O   0  0  0  0  0  0  0  0  0  0  0  0
   -2.5605   20.5202  -16.8548 C   0  0  0  0  0  0  0  0  0  0  0  0
 17 16  1  0  0  0
 16  5  1  0  0  0
  7  6  1  0  0  0
  5  6  1  0  0  0
  5  3  1  0  0  0
  4  3  1  0  0  0
  6  8  1  0  0  0
  3  1  1  0  0  0
  8  9  1  0  0  0
  8  2  1  0  0  0
  1  2  1  0  0  0
  1 14  1  0  0  0
 13 14  1  0  0  0
 13 15  1  0  0  0
  4 10  1  0  0  0
  7 11  1  0  0  0
  9 12  1  0  0  0
M  END
> <minimizedAffinity>
-4.94568

$$$$
2QW1_3MG_A_310


 17 17  0  0  0  0  0  0  0  0999 V2000
   -4.5019   16.8286  -17.9311 C   0  0  0  0  0  0  0  0  0  0  0  0
   -3.7148   15.6377  -17.7949 O   0  0  0  0  0  0  0  0  0  0  0  0
   -3.6910   18.0826  -17.6015 C   0  0  0  0  0  0  0  0  0  0  0  0
   -4.5374   19.2408  -17.6740 O   0  0  0  0  0  0  0  0  0  0  0  0
   -3.0485   17.9304  -16.2215 C   0  0  0  0  0  0  0  0  0  0  0  0
   -2.2212   16.6467  -16.1700 C   0  0  0  0  0  0  0  0  0  0  0  0
   -1.6430   16.5005  -14.8697 O   0  0  0  0  0  0  0  0  0  0  0  0
   -3.1261   15.4526  -16.5008 C   0  0  0  0  0  0  0  0  0  0  0  0
   -2.4117   14.2079  -16.4989 O   0  0  0  0  0  0  0  0  0  0  0  0
   -5.2615   19.1527  -17.0346 H   0  0  0  0  0  0  0  0  0  0  0  0
   -2.3483   16.4590  -14.2051 H   0  0  0  0  0  0  0  0  0  0  0  0
   -1.7247   14.2283  -17.1833 H   0  0  0  0  0  0  0  0  0  0  0  0
   -4.0425   17.6546  -20.1272 O   0  0  0  0  0  0  0  0  0  0  0  0
   -4.9754   16.9051  -19.3685 C   0  0  0  0  0  0  0  0  0  0  0  0
   -4.3419   17.7061  -21.0484 H   0  0  0  0  0  0  0  0  0  0  0  0
   -2.2497   19.0709  -15.8978 O   0  0  0  0  0  0  0  0  0  0  0  0
   -1.1863   19.2740  -16.8408 C   0  0  0  0  0  0  0  0  0  0  0  0
 17 16  1  0  0  0
 16  5  1  0  0  0
  7  6  1  0  0  0
  5  6  1  0  0  0
  5  3  1  0  0  0
  4  3  1  0  0  0
  6  8  1  0  0  0
  3  1  1  0  0  0
  8  9  1  0  0  0
  8  2  1  0  0  0
  1  2  1  0  0  0
  1 14  1  0  0  0
 13 14  1  0  0  0
 13 15  1  0  0  0
  4 10  1  0  0  0
  7 11  1  0  0  0
  9 12  1  0  0  0
M  END
> <minimizedAffinity>
-4.93810

$$$$
2QW1_3MG_A_310


 17 17  0  0  0  0  0  0  0  0999 V2000
   -5.3851   19.4423  -15.7013 C   0  0  0  0  0  0  0  0  0  0  0  0
   -5.8594   19.0918  -17.0085 O   0  0  0  0  0  0  0  0  0  0  0  0
   -4.1948   18.5785  -15.2818 C   0  0  0  0  0  0  0  0  0  0  0  0
   -3.8044   18.9092  -13.9397 O   0  0  0  0  0  0  0  0  0  0  0  0
   -4.5590   17.0994  -15.4225 C   0  0  0  0  0  0  0  0  0  0  0  0
   -5.0399   16.8135  -16.8446 C   0  0  0  0  0  0  0  0  0  0  0  0
   -5.4000   15.4340  -16.9609 O   0  0  0  0  0  0  0  0  0  0  0  0
   -6.2386   17.7176  -17.1604 C   0  0  0  0  0  0  0  0  0  0  0  0
   -6.7318   17.5257  -18.4945 O   0  0  0  0  0  0  0  0  0  0  0  0
   -4.5462   18.7434  -13.3371 H   0  0  0  0  0  0  0  0  0  0  0  0
   -6.1094   15.2308  -16.3314 H   0  0  0  0  0  0  0  0  0  0  0  0
   -6.0386   17.7580  -19.1320 H   0  0  0  0  0  0  0  0  0  0  0  0
   -5.1796   21.4822  -14.4714 O   0  0  0  0  0  0  0  0  0  0  0  0
   -4.9566   20.8952  -15.7416 C   0  0  0  0  0  0  0  0  0  0  0  0
   -4.9065   22.4127  -14.4929 H   0  0  0  0  0  0  0  0  0  0  0  0
   -3.4535   16.2625  -15.0750 O   0  0  0  0  0  0  0  0  0  0  0  0
   -2.3126   16.4936  -15.9154 C   0  0  0  0  0  0  0  0  0  0  0  0
 17 16  1  0  0  0
 16  5  1  0  0  0
  7  6  1  0  0  0
  5  6  1  0  0  0
  5  3  1  0  0  0
  4  3  1  0  0  0
  6  8  1  0  0  0
  3  1  1  0  0  0
  8  9  1  0  0  0
  8  2  1  0  0  0
  1  2  1  0  0  0
  1 14  1  0  0  0
 13 14  1  0  0  0
 13 15  1  0  0  0
  4 10  1  0  0  0
  7 11  1  0  0  0
  9 12  1  0  0  0
M  END
> <minimizedAffinity>
-4.91478

$$$$
2QW1_3MG_A_310


 17 17  0  0  0  0  0  0  0  0999 V2000
   -4.1584   17.8117  -16.5196 C   0  0  0  0  0  0  0  0  0  0  0  0
   -4.6603   16.6701  -17.2275 O   0  0  0  0  0  0  0  0  0  0  0  0
   -4.6419   19.1213  -17.1441 C   0  0  0  0  0  0  0  0  0  0  0  0
   -4.0530   20.2346  -16.4535 O   0  0  0  0  0  0  0  0  0  0  0  0
   -4.3063   19.1329  -18.6366 C   0  0  0  0  0  0  0  0  0  0  0  0
   -4.8886   17.8919  -19.3118 C   0  0  0  0  0  0  0  0  0  0  0  0
   -4.5508   17.8991  -20.7018 O   0  0  0  0  0  0  0  0  0  0  0  0
   -4.3334   16.6384  -18.6230 C   0  0  0  0  0  0  0  0  0  0  0  0
   -4.8576   15.4270  -19.1866 O   0  0  0  0  0  0  0  0  0  0  0  0
   -3.0869   20.1853  -16.5252 H   0  0  0  0  0  0  0  0  0  0  0  0
   -3.5858   17.8993  -20.8000 H   0  0  0  0  0  0  0  0  0  0  0  0
   -5.8195   15.4031  -19.0638 H   0  0  0  0  0  0  0  0  0  0  0  0
   -3.7660   18.4200  -14.2409 O   0  0  0  0  0  0  0  0  0  0  0  0
   -4.6604   17.7252  -15.0924 C   0  0  0  0  0  0  0  0  0  0  0  0
   -4.0837   18.3671  -13.3260 H   0  0  0  0  0  0  0  0  0  0  0  0
   -4.7800   20.3285  -19.2606 O   0  0  0  0  0  0  0  0  0  0  0  0
   -6.2038   20.4734  -19.1457 C   0  0  0  0  0  0  0  0  0  0  0  0
 17 16  1  0  0  0
 16  5  1  0  0  0
  7  6  1  0  0  0
  5  6  1  0  0  0
  5  3  1  0  0  0
  4  3  1  0  0  0
  6  8  1  0  0  0
  3  1  1  0  0  0
  8  9  1  0  0  0
  8  2  1  0  0  0
  1  2  1  0  0  0
  1 14  1  0  0  0
 13 14  1  0  0  0
 13 15  1  0  0  0
  4 10  1  0  0  0
  7 11  1  0  0  0
  9 12  1  0  0  0
M  END
> <minimizedAffinity>
-4.86711

$$$$
