2WEB_PP4_A_326


 40 42  0  0  0  0  0  0  0  0999 V2000
   23.1822   10.2500   22.1078 C   0  0  0  0  0  0  0  0  0  0  0  0
   21.2461    9.0583   22.9925 C   0  0  0  0  0  0  0  0  0  0  0  0
   21.8829    8.0531   23.2977 O   0  0  0  0  0  0  0  0  0  0  0  0
   21.7677   10.1616   22.4592 N   0  0  0  0  0  0  0  0  0  0  0  0
   21.1843   10.9380   22.2976 H   0  0  0  0  0  0  0  0  0  0  0  0
   19.7607    8.8419   23.3141 C   0  0  0  0  0  0  0  0  0  0  0  0
   18.7800   10.4508   25.7863 O   0  0  0  0  0  0  0  0  0  0  0  0
   18.8228   10.7109   24.5664 C   0  0  0  0  0  0  0  0  0  0  0  0
   19.1677   10.1883   23.3897 N   0  0  0  0  0  0  0  0  0  0  0  0
   19.0251   10.7061   22.5646 H   0  0  0  0  0  0  0  0  0  0  0  0
   19.0478    7.6478   22.6416 C   0  0  0  0  0  0  0  0  0  0  0  0
   17.5394    7.8242   22.7292 C   0  0  0  0  0  0  0  0  0  0  0  0
   18.9877    8.1589   21.1873 C   0  0  0  0  0  0  0  0  0  0  0  0
   23.8574   11.8855   22.5463 P   0  0  0  0  0  0  0  0  0  0  0  0
   24.9845   12.1916   21.6862 O   0  0  0  0  0  0  0  0  0  0  0  0
   22.8051   12.8889   22.5632 O   0  0  0  0  0  0  0  0  0  0  0  0
   24.4878   11.6063   23.9338 O   0  0  0  0  0  0  0  0  0  0  0  0
   24.7179   12.6195   24.8659 C   0  0  0  0  0  0  0  0  0  0  0  0
   26.2188   12.7845   25.0451 C   0  0  0  0  0  0  0  0  0  0  0  0
   27.0375   12.0319   24.5992 O   0  0  0  0  0  0  0  0  0  0  0  0
   27.7992   14.5367   25.3428 C   0  0  0  0  0  0  0  0  0  0  0  0
   26.5481   13.8716   25.7382 O   0  0  0  0  0  0  0  0  0  0  0  0
   24.0564   12.2636   26.1904 C   0  0  0  0  0  0  0  0  0  0  0  0
   22.7298   12.9218   26.3904 C   0  0  0  0  0  0  0  0  0  0  0  0
   21.7555   12.3214   27.1680 C   0  0  0  0  0  0  0  0  0  0  0  0
   22.4705   14.1638   25.8370 C   0  0  0  0  0  0  0  0  0  0  0  0
   20.5223   12.9270   27.3443 C   0  0  0  0  0  0  0  0  0  0  0  0
   21.2453   14.7820   26.0080 C   0  0  0  0  0  0  0  0  0  0  0  0
   20.2679   14.1625   26.7574 C   0  0  0  0  0  0  0  0  0  0  0  0
   23.4163    9.9710   20.6157 C   0  0  0  0  0  0  0  0  0  0  0  0
   21.4303    5.5436   19.4273 C   0  0  0  0  0  0  0  0  0  0  0  0
   21.6188    4.2252   19.0361 C   0  0  0  0  0  0  0  0  0  0  0  0
   22.9105    3.6679   18.8916 C   0  0  0  0  0  0  0  0  0  0  0  0
   24.0546    4.4101   19.0971 C   0  0  0  0  0  0  0  0  0  0  0  0
   23.9133    5.8142   19.4494 C   0  0  0  0  0  0  0  0  0  0  0  0
   22.6108    6.3687   19.6185 C   0  0  0  0  0  0  0  0  0  0  0  0
   22.4949    7.7150   20.0602 C   0  0  0  0  0  0  0  0  0  0  0  0
   23.5995    8.5222   20.2457 C   0  0  0  0  0  0  0  0  0  0  0  0
   24.8957    7.9810   20.0802 C   0  0  0  0  0  0  0  0  0  0  0  0
   25.0320    6.6629   19.6876 C   0  0  0  0  0  0  0  0  0  0  0  0
  7  8  2  0  0  0
 31 32  2  0  0  0
 31 36  1  0  0  0
 32 33  1  0  0  0
 33 34  2  0  0  0
 34 35  1  0  0  0
 35 36  2  0  0  0
 35 40  1  0  0  0
 36 37  1  0  0  0
 37 38  2  0  0  0
 38 39  1  0  0  0
 38 30  1  0  0  0
 39 40  2  0  0  0
  8  9  1  0  0  0
 30  1  1  0  0  0
  1  4  1  0  0  0
  1 14  1  0  0  0
  9  6  1  0  0  0
  6  2  1  0  0  0
  6 11  1  0  0  0
  2  3  2  0  0  0
  2  4  1  0  0  0
 11 12  1  0  0  0
 11 13  1  0  0  0
 14 15  2  0  0  0
 14 16  1  0  0  0
 14 17  1  0  0  0
 18 23  1  0  0  0
 18 19  1  0  0  0
 18 17  1  0  0  0
 23 24  1  0  0  0
 24 25  2  0  0  0
 24 26  1  0  0  0
 25 27  1  0  0  0
 26 28  2  0  0  0
 27 29  2  0  0  0
 28 29  1  0  0  0
 19 22  1  0  0  0
 19 20  2  0  0  0
 21 22  1  0  0  0
  9 10  1  0  0  0
  4  5  1  0  0  0
M  CHG 1  16  -1
M  END
> <minimizedAffinity>
-10.16159

$$$$
2WEB_PP4_A_326


 40 42  0  0  0  0  0  0  0  0999 V2000
   22.0947    8.7209   21.7205 C   0  0  0  0  0  0  0  0  0  0  0  0
   22.3965   11.0688   22.3098 C   0  0  0  0  0  0  0  0  0  0  0  0
   22.0754   11.4885   21.2009 O   0  0  0  0  0  0  0  0  0  0  0  0
   22.4053    9.7864   22.6693 N   0  0  0  0  0  0  0  0  0  0  0  0
   22.6270    9.5507   23.5991 H   0  0  0  0  0  0  0  0  0  0  0  0
   22.7912   12.2480   23.2101 C   0  0  0  0  0  0  0  0  0  0  0  0
   20.2461   11.2688   24.7021 O   0  0  0  0  0  0  0  0  0  0  0  0
   20.5581   12.3590   24.1805 C   0  0  0  0  0  0  0  0  0  0  0  0
   21.5372   12.9619   23.5063 N   0  0  0  0  0  0  0  0  0  0  0  0
   21.4214   13.8917   23.2040 H   0  0  0  0  0  0  0  0  0  0  0  0
   23.8890   12.0056   24.2695 C   0  0  0  0  0  0  0  0  0  0  0  0
   25.2620   12.2566   23.6649 C   0  0  0  0  0  0  0  0  0  0  0  0
   23.9539   13.4075   24.9104 C   0  0  0  0  0  0  0  0  0  0  0  0
   20.4007    8.0984   21.9776 P   0  0  0  0  0  0  0  0  0  0  0  0
   20.1652    7.9044   23.3956 O   0  0  0  0  0  0  0  0  0  0  0  0
   19.4324    8.9480   21.3030 O   0  0  0  0  0  0  0  0  0  0  0  0
   20.4982    6.6654   21.3969 O   0  0  0  0  0  0  0  0  0  0  0  0
   19.5420    6.1489   20.5209 C   0  0  0  0  0  0  0  0  0  0  0  0
   18.3163    5.7415   21.3233 C   0  0  0  0  0  0  0  0  0  0  0  0
   18.2756    4.7960   22.0580 O   0  0  0  0  0  0  0  0  0  0  0  0
   16.9461    6.8885   19.7538 C   0  0  0  0  0  0  0  0  0  0  0  0
   17.2795    6.5568   21.1477 O   0  0  0  0  0  0  0  0  0  0  0  0
   20.1164    4.9518   19.7756 C   0  0  0  0  0  0  0  0  0  0  0  0
   20.4432    5.2399   18.3462 C   0  0  0  0  0  0  0  0  0  0  0  0
   20.6189    4.2076   17.4418 C   0  0  0  0  0  0  0  0  0  0  0  0
   20.5318    6.5453   17.8944 C   0  0  0  0  0  0  0  0  0  0  0  0
   20.9322    4.4750   16.1193 C   0  0  0  0  0  0  0  0  0  0  0  0
   20.8399    6.8271   16.5759 C   0  0  0  0  0  0  0  0  0  0  0  0
   21.0456    5.7928   15.6879 C   0  0  0  0  0  0  0  0  0  0  0  0
   23.0977    7.5618   21.8181 C   0  0  0  0  0  0  0  0  0  0  0  0
   23.8655    3.4932   19.0226 C   0  0  0  0  0  0  0  0  0  0  0  0
   24.1968    2.9449   17.7912 C   0  0  0  0  0  0  0  0  0  0  0  0
   24.5643    3.7527   16.6901 C   0  0  0  0  0  0  0  0  0  0  0  0
   24.5811    5.1296   16.7663 C   0  0  0  0  0  0  0  0  0  0  0  0
   24.1832    5.7572   18.0166 C   0  0  0  0  0  0  0  0  0  0  0  0
   23.8365    4.9415   19.1333 C   0  0  0  0  0  0  0  0  0  0  0  0
   23.5477    5.5716   20.3745 C   0  0  0  0  0  0  0  0  0  0  0  0
   23.5092    6.9454   20.5065 C   0  0  0  0  0  0  0  0  0  0  0  0
   23.8516    7.7628   19.4042 C   0  0  0  0  0  0  0  0  0  0  0  0
   24.1726    7.1699   18.1978 C   0  0  0  0  0  0  0  0  0  0  0  0
  7  8  2  0  0  0
 31 32  2  0  0  0
 31 36  1  0  0  0
 32 33  1  0  0  0
 33 34  2  0  0  0
 34 35  1  0  0  0
 35 36  2  0  0  0
 35 40  1  0  0  0
 36 37  1  0  0  0
 37 38  2  0  0  0
 38 39  1  0  0  0
 38 30  1  0  0  0
 39 40  2  0  0  0
  8  9  1  0  0  0
 30  1  1  0  0  0
  1  4  1  0  0  0
  1 14  1  0  0  0
  9  6  1  0  0  0
  6  2  1  0  0  0
  6 11  1  0  0  0
  2  3  2  0  0  0
  2  4  1  0  0  0
 11 12  1  0  0  0
 11 13  1  0  0  0
 14 15  2  0  0  0
 14 16  1  0  0  0
 14 17  1  0  0  0
 18 23  1  0  0  0
 18 19  1  0  0  0
 18 17  1  0  0  0
 23 24  1  0  0  0
 24 25  2  0  0  0
 24 26  1  0  0  0
 25 27  1  0  0  0
 26 28  2  0  0  0
 27 29  2  0  0  0
 28 29  1  0  0  0
 19 22  1  0  0  0
 19 20  2  0  0  0
 21 22  1  0  0  0
  9 10  1  0  0  0
  4  5  1  0  0  0
M  CHG 1  16  -1
M  END
> <minimizedAffinity>
-10.07067

$$$$
2WEB_PP4_A_326


 40 42  0  0  0  0  0  0  0  0999 V2000
   23.3148    9.8299   21.3710 C   0  0  0  0  0  0  0  0  0  0  0  0
   21.2478    8.7579   22.0986 C   0  0  0  0  0  0  0  0  0  0  0  0
   21.6865    8.4413   23.2015 O   0  0  0  0  0  0  0  0  0  0  0  0
   21.9202    9.4438   21.1760 N   0  0  0  0  0  0  0  0  0  0  0  0
   21.4650    9.6972   20.3406 H   0  0  0  0  0  0  0  0  0  0  0  0
   19.8122    8.2351   21.9482 C   0  0  0  0  0  0  0  0  0  0  0  0
   18.6601    7.9349   24.8196 O   0  0  0  0  0  0  0  0  0  0  0  0
   18.5869    8.8424   23.9658 C   0  0  0  0  0  0  0  0  0  0  0  0
   18.9676    9.1566   22.7276 N   0  0  0  0  0  0  0  0  0  0  0  0
   18.6820   10.0111   22.3309 H   0  0  0  0  0  0  0  0  0  0  0  0
   19.3933    7.6751   20.5708 C   0  0  0  0  0  0  0  0  0  0  0  0
   20.2253    6.4475   20.2318 C   0  0  0  0  0  0  0  0  0  0  0  0
   18.2481    6.7360   21.0029 C   0  0  0  0  0  0  0  0  0  0  0  0
   23.4695   11.6393   21.5302 P   0  0  0  0  0  0  0  0  0  0  0  0
   24.8500   12.0290   21.3153 O   0  0  0  0  0  0  0  0  0  0  0  0
   22.4997   12.3152   20.6833 O   0  0  0  0  0  0  0  0  0  0  0  0
   23.2361   11.8449   23.0480 O   0  0  0  0  0  0  0  0  0  0  0  0
   23.6772   12.9844   23.7228 C   0  0  0  0  0  0  0  0  0  0  0  0
   24.1979   12.5696   25.0899 C   0  0  0  0  0  0  0  0  0  0  0  0
   24.0235   11.4896   25.5781 O   0  0  0  0  0  0  0  0  0  0  0  0
   25.0779   13.3701   27.1493 C   0  0  0  0  0  0  0  0  0  0  0  0
   24.8950   13.5261   25.6980 O   0  0  0  0  0  0  0  0  0  0  0  0
   22.5314   13.9772   23.8648 C   0  0  0  0  0  0  0  0  0  0  0  0
   21.4797   13.5398   24.8321 C   0  0  0  0  0  0  0  0  0  0  0  0
   21.3612   14.1505   26.0680 C   0  0  0  0  0  0  0  0  0  0  0  0
   20.5787   12.5462   24.4896 C   0  0  0  0  0  0  0  0  0  0  0  0
   20.3930   13.7374   26.9683 C   0  0  0  0  0  0  0  0  0  0  0  0
   19.6044   12.1265   25.3769 C   0  0  0  0  0  0  0  0  0  0  0  0
   19.5133   12.7177   26.6191 C   0  0  0  0  0  0  0  0  0  0  0  0
   24.2095    9.3276   20.2281 C   0  0  0  0  0  0  0  0  0  0  0  0
   24.3328    5.6012   16.9029 C   0  0  0  0  0  0  0  0  0  0  0  0
   24.2890    4.2377   16.6467 C   0  0  0  0  0  0  0  0  0  0  0  0
   24.0707    3.2924   17.6757 C   0  0  0  0  0  0  0  0  0  0  0  0
   23.9236    3.6677   18.9946 C   0  0  0  0  0  0  0  0  0  0  0  0
   24.0223    5.0805   19.3260 C   0  0  0  0  0  0  0  0  0  0  0  0
   24.2180    6.0346   18.2849 C   0  0  0  0  0  0  0  0  0  0  0  0
   24.2116    7.4170   18.6166 C   0  0  0  0  0  0  0  0  0  0  0  0
   24.1082    7.8561   19.9215 C   0  0  0  0  0  0  0  0  0  0  0  0
   23.9138    6.9170   20.9611 C   0  0  0  0  0  0  0  0  0  0  0  0
   23.8791    5.5695   20.6560 C   0  0  0  0  0  0  0  0  0  0  0  0
  7  8  2  0  0  0
 31 32  2  0  0  0
 31 36  1  0  0  0
 32 33  1  0  0  0
 33 34  2  0  0  0
 34 35  1  0  0  0
 35 36  2  0  0  0
 35 40  1  0  0  0
 36 37  1  0  0  0
 37 38  2  0  0  0
 38 39  1  0  0  0
 38 30  1  0  0  0
 39 40  2  0  0  0
  8  9  1  0  0  0
 30  1  1  0  0  0
  1  4  1  0  0  0
  1 14  1  0  0  0
  9  6  1  0  0  0
  6  2  1  0  0  0
  6 11  1  0  0  0
  2  3  2  0  0  0
  2  4  1  0  0  0
 11 12  1  0  0  0
 11 13  1  0  0  0
 14 15  2  0  0  0
 14 16  1  0  0  0
 14 17  1  0  0  0
 18 23  1  0  0  0
 18 19  1  0  0  0
 18 17  1  0  0  0
 23 24  1  0  0  0
 24 25  2  0  0  0
 24 26  1  0  0  0
 25 27  1  0  0  0
 26 28  2  0  0  0
 27 29  2  0  0  0
 28 29  1  0  0  0
 19 22  1  0  0  0
 19 20  2  0  0  0
 21 22  1  0  0  0
  9 10  1  0  0  0
  4  5  1  0  0  0
M  CHG 1  16  -1
M  END
> <minimizedAffinity>
-9.92310

$$$$
2WEB_PP4_A_326


 40 42  0  0  0  0  0  0  0  0999 V2000
   23.1912    9.9196   21.5988 C   0  0  0  0  0  0  0  0  0  0  0  0
   21.0648    8.7243   21.5763 C   0  0  0  0  0  0  0  0  0  0  0  0
   21.3004    8.0892   22.6011 O   0  0  0  0  0  0  0  0  0  0  0  0
   21.8727    9.6366   21.0390 N   0  0  0  0  0  0  0  0  0  0  0  0
   21.5730   10.1333   20.2435 H   0  0  0  0  0  0  0  0  0  0  0  0
   19.7026    8.2985   21.0107 C   0  0  0  0  0  0  0  0  0  0  0  0
   20.7727    5.5660   19.9857 O   0  0  0  0  0  0  0  0  0  0  0  0
   20.4164    6.6109   19.4034 C   0  0  0  0  0  0  0  0  0  0  0  0
   19.9657    7.8439   19.6345 N   0  0  0  0  0  0  0  0  0  0  0  0
   19.8074    8.4555   18.8794 H   0  0  0  0  0  0  0  0  0  0  0  0
   18.7263    7.5718   21.9621 C   0  0  0  0  0  0  0  0  0  0  0  0
   18.0176    8.5810   22.8527 C   0  0  0  0  0  0  0  0  0  0  0  0
   17.4685    7.5289   21.0699 C   0  0  0  0  0  0  0  0  0  0  0  0
   23.2525   11.6048   22.2913 P   0  0  0  0  0  0  0  0  0  0  0  0
   24.0841   12.4449   21.4507 O   0  0  0  0  0  0  0  0  0  0  0  0
   21.9109   12.1110   22.5327 O   0  0  0  0  0  0  0  0  0  0  0  0
   24.0882   11.3884   23.5779 O   0  0  0  0  0  0  0  0  0  0  0  0
   24.3452   12.4199   24.4826 C   0  0  0  0  0  0  0  0  0  0  0  0
   25.8495   12.6201   24.5781 C   0  0  0  0  0  0  0  0  0  0  0  0
   26.6125   12.4375   23.6726 O   0  0  0  0  0  0  0  0  0  0  0  0
   26.9813   14.3182   25.7997 C   0  0  0  0  0  0  0  0  0  0  0  0
   26.2474   13.0434   25.7752 O   0  0  0  0  0  0  0  0  0  0  0  0
   23.7641   12.0690   25.8456 C   0  0  0  0  0  0  0  0  0  0  0  0
   22.5029   12.8048   26.1635 C   0  0  0  0  0  0  0  0  0  0  0  0
   22.1862   13.9784   25.5027 C   0  0  0  0  0  0  0  0  0  0  0  0
   21.6098   12.3006   27.0932 C   0  0  0  0  0  0  0  0  0  0  0  0
   21.0223   14.6657   25.8053 C   0  0  0  0  0  0  0  0  0  0  0  0
   20.4421   12.9740   27.4025 C   0  0  0  0  0  0  0  0  0  0  0  0
   20.1491   14.1596   26.7630 C   0  0  0  0  0  0  0  0  0  0  0  0
   24.3029    9.7435   20.5537 C   0  0  0  0  0  0  0  0  0  0  0  0
   24.1298    4.7534   20.3887 C   0  0  0  0  0  0  0  0  0  0  0  0
   24.0216    3.5943   19.6327 C   0  0  0  0  0  0  0  0  0  0  0  0
   23.9650    3.6281   18.2201 C   0  0  0  0  0  0  0  0  0  0  0  0
   23.9791    4.8137   17.5157 C   0  0  0  0  0  0  0  0  0  0  0  0
   24.0299    6.0606   18.2627 C   0  0  0  0  0  0  0  0  0  0  0  0
   24.1116    6.0246   19.6855 C   0  0  0  0  0  0  0  0  0  0  0  0
   24.2613    7.2496   20.3913 C   0  0  0  0  0  0  0  0  0  0  0  0
   24.2432    8.4715   19.7487 C   0  0  0  0  0  0  0  0  0  0  0  0
   24.1624    8.5172   18.3373 C   0  0  0  0  0  0  0  0  0  0  0  0
   24.0542    7.3357   17.6285 C   0  0  0  0  0  0  0  0  0  0  0  0
  7  8  2  0  0  0
 31 32  2  0  0  0
 31 36  1  0  0  0
 32 33  1  0  0  0
 33 34  2  0  0  0
 34 35  1  0  0  0
 35 36  2  0  0  0
 35 40  1  0  0  0
 36 37  1  0  0  0
 37 38  2  0  0  0
 38 39  1  0  0  0
 38 30  1  0  0  0
 39 40  2  0  0  0
  8  9  1  0  0  0
 30  1  1  0  0  0
  1  4  1  0  0  0
  1 14  1  0  0  0
  9  6  1  0  0  0
  6  2  1  0  0  0
  6 11  1  0  0  0
  2  3  2  0  0  0
  2  4  1  0  0  0
 11 12  1  0  0  0
 11 13  1  0  0  0
 14 15  2  0  0  0
 14 16  1  0  0  0
 14 17  1  0  0  0
 18 23  1  0  0  0
 18 19  1  0  0  0
 18 17  1  0  0  0
 23 24  1  0  0  0
 24 25  2  0  0  0
 24 26  1  0  0  0
 25 27  1  0  0  0
 26 28  2  0  0  0
 27 29  2  0  0  0
 28 29  1  0  0  0
 19 22  1  0  0  0
 19 20  2  0  0  0
 21 22  1  0  0  0
  9 10  1  0  0  0
  4  5  1  0  0  0
M  CHG 1  16  -1
M  END
> <minimizedAffinity>
-9.88425

$$$$
2WEB_PP4_A_326


 40 42  0  0  0  0  0  0  0  0999 V2000
   20.1566    7.3782   21.4260 C   0  0  0  0  0  0  0  0  0  0  0  0
   18.0542    6.4089   22.1951 C   0  0  0  0  0  0  0  0  0  0  0  0
   18.3169    5.2780   21.7935 O   0  0  0  0  0  0  0  0  0  0  0  0
   18.8657    7.4609   22.1035 N   0  0  0  0  0  0  0  0  0  0  0  0
   18.5881    8.3167   22.5031 H   0  0  0  0  0  0  0  0  0  0  0  0
   16.6475    6.4210   22.8097 C   0  0  0  0  0  0  0  0  0  0  0  0
   18.0972    7.5584   25.3132 O   0  0  0  0  0  0  0  0  0  0  0  0
   17.4520    6.5096   25.1088 C   0  0  0  0  0  0  0  0  0  0  0  0
   16.7953    5.8457   24.1577 N   0  0  0  0  0  0  0  0  0  0  0  0
   16.4060    4.9638   24.3577 H   0  0  0  0  0  0  0  0  0  0  0  0
   15.7449    7.6388   22.5117 C   0  0  0  0  0  0  0  0  0  0  0  0
   15.4600    7.7242   21.0199 C   0  0  0  0  0  0  0  0  0  0  0  0
   14.3567    6.9940   22.7041 C   0  0  0  0  0  0  0  0  0  0  0  0
   21.3592    8.5202   22.1827 P   0  0  0  0  0  0  0  0  0  0  0  0
   20.6530    9.6074   22.8331 O   0  0  0  0  0  0  0  0  0  0  0  0
   22.2922    7.7966   23.0316 O   0  0  0  0  0  0  0  0  0  0  0  0
   22.0104    9.1672   20.9345 O   0  0  0  0  0  0  0  0  0  0  0  0
   23.3155    9.6622   20.9462 C   0  0  0  0  0  0  0  0  0  0  0  0
   23.2641   11.1649   21.1728 C   0  0  0  0  0  0  0  0  0  0  0  0
   22.2838   11.8363   21.0198 O   0  0  0  0  0  0  0  0  0  0  0  0
   24.3988   12.3821   22.8720 C   0  0  0  0  0  0  0  0  0  0  0  0
   24.4233   11.6734   21.5831 O   0  0  0  0  0  0  0  0  0  0  0  0
   24.0014    9.3430   19.6247 C   0  0  0  0  0  0  0  0  0  0  0  0
   24.0802    7.8797   19.3319 C   0  0  0  0  0  0  0  0  0  0  0  0
   24.0001    7.4163   18.0307 C   0  0  0  0  0  0  0  0  0  0  0  0
   24.2791    6.9677   20.3541 C   0  0  0  0  0  0  0  0  0  0  0  0
   24.0626    6.0591   17.7608 C   0  0  0  0  0  0  0  0  0  0  0  0
   24.3474    5.6102   20.0989 C   0  0  0  0  0  0  0  0  0  0  0  0
   24.2342    5.1535   18.8030 C   0  0  0  0  0  0  0  0  0  0  0  0
   20.0306    7.6721   19.9238 C   0  0  0  0  0  0  0  0  0  0  0  0
   21.2861    2.8761   19.3071 C   0  0  0  0  0  0  0  0  0  0  0  0
   21.5236    1.8130   18.4468 C   0  0  0  0  0  0  0  0  0  0  0  0
   21.4815    1.9673   17.0417 C   0  0  0  0  0  0  0  0  0  0  0  0
   21.1689    3.1717   16.4470 C   0  0  0  0  0  0  0  0  0  0  0  0
   20.8515    4.3033   17.3038 C   0  0  0  0  0  0  0  0  0  0  0  0
   20.9180    4.1531   18.7200 C   0  0  0  0  0  0  0  0  0  0  0  0
   20.7023    5.2957   19.5379 C   0  0  0  0  0  0  0  0  0  0  0  0
   20.3475    6.5197   19.0067 C   0  0  0  0  0  0  0  0  0  0  0  0
   20.2789    6.6784   17.6029 C   0  0  0  0  0  0  0  0  0  0  0  0
   20.5220    5.5893   16.7875 C   0  0  0  0  0  0  0  0  0  0  0  0
  7  8  2  0  0  0
 31 32  2  0  0  0
 31 36  1  0  0  0
 32 33  1  0  0  0
 33 34  2  0  0  0
 34 35  1  0  0  0
 35 36  2  0  0  0
 35 40  1  0  0  0
 36 37  1  0  0  0
 37 38  2  0  0  0
 38 39  1  0  0  0
 38 30  1  0  0  0
 39 40  2  0  0  0
  8  9  1  0  0  0
 30  1  1  0  0  0
  1  4  1  0  0  0
  1 14  1  0  0  0
  9  6  1  0  0  0
  6  2  1  0  0  0
  6 11  1  0  0  0
  2  3  2  0  0  0
  2  4  1  0  0  0
 11 12  1  0  0  0
 11 13  1  0  0  0
 14 15  2  0  0  0
 14 16  1  0  0  0
 14 17  1  0  0  0
 18 23  1  0  0  0
 18 19  1  0  0  0
 18 17  1  0  0  0
 23 24  1  0  0  0
 24 25  2  0  0  0
 24 26  1  0  0  0
 25 27  1  0  0  0
 26 28  2  0  0  0
 27 29  2  0  0  0
 28 29  1  0  0  0
 19 22  1  0  0  0
 19 20  2  0  0  0
 21 22  1  0  0  0
  9 10  1  0  0  0
  4  5  1  0  0  0
M  CHG 1  16  -1
M  END
> <minimizedAffinity>
-9.64038

$$$$
2WEB_PP4_A_326


 40 42  0  0  0  0  0  0  0  0999 V2000
   22.9435    9.7443   21.4876 C   0  0  0  0  0  0  0  0  0  0  0  0
   20.8319    8.5908   21.8897 C   0  0  0  0  0  0  0  0  0  0  0  0
   21.2225    8.0273   22.9090 O   0  0  0  0  0  0  0  0  0  0  0  0
   21.5508    9.4464   21.1653 N   0  0  0  0  0  0  0  0  0  0  0  0
   21.1324    9.8896   20.3922 H   0  0  0  0  0  0  0  0  0  0  0  0
   19.3943    8.1508   21.5792 C   0  0  0  0  0  0  0  0  0  0  0  0
   17.8690    7.4831   24.2041 O   0  0  0  0  0  0  0  0  0  0  0  0
   17.9707    8.5235   23.5222 C   0  0  0  0  0  0  0  0  0  0  0  0
   18.5269    9.0036   22.4101 N   0  0  0  0  0  0  0  0  0  0  0  0
   18.3568    9.9355   22.1419 H   0  0  0  0  0  0  0  0  0  0  0  0
   19.0567    7.7826   20.1175 C   0  0  0  0  0  0  0  0  0  0  0  0
   20.0851    6.8013   19.5758 C   0  0  0  0  0  0  0  0  0  0  0  0
   18.1014    6.5950   20.3564 C   0  0  0  0  0  0  0  0  0  0  0  0
   23.1548   11.5137   21.8721 P   0  0  0  0  0  0  0  0  0  0  0  0
   24.1390   11.6669   22.9265 O   0  0  0  0  0  0  0  0  0  0  0  0
   23.4245   12.2744   20.6626 O   0  0  0  0  0  0  0  0  0  0  0  0
   21.8022   11.8552   22.5460 O   0  0  0  0  0  0  0  0  0  0  0  0
   21.6274   11.8148   23.9303 C   0  0  0  0  0  0  0  0  0  0  0  0
   20.1637   11.5303   24.2281 C   0  0  0  0  0  0  0  0  0  0  0  0
   19.2563   11.8502   23.5143 O   0  0  0  0  0  0  0  0  0  0  0  0
   18.9118   11.3660   26.2436 C   0  0  0  0  0  0  0  0  0  0  0  0
   19.9796   10.8639   25.3650 O   0  0  0  0  0  0  0  0  0  0  0  0
   22.0505   13.1427   24.5439 C   0  0  0  0  0  0  0  0  0  0  0  0
   23.1082   13.0060   25.5906 C   0  0  0  0  0  0  0  0  0  0  0  0
   24.3237   13.6524   25.4525 C   0  0  0  0  0  0  0  0  0  0  0  0
   22.8723   12.2658   26.7363 C   0  0  0  0  0  0  0  0  0  0  0  0
   25.3077   13.5168   26.4179 C   0  0  0  0  0  0  0  0  0  0  0  0
   23.8441   12.1250   27.7103 C   0  0  0  0  0  0  0  0  0  0  0  0
   25.0646   12.7458   27.5503 C   0  0  0  0  0  0  0  0  0  0  0  0
   23.8903    9.3406   20.3477 C   0  0  0  0  0  0  0  0  0  0  0  0
   24.1701    5.7673   16.8676 C   0  0  0  0  0  0  0  0  0  0  0  0
   24.2141    4.4153   16.5560 C   0  0  0  0  0  0  0  0  0  0  0  0
   24.0952    3.4169   17.5504 C   0  0  0  0  0  0  0  0  0  0  0  0
   23.9638    3.7281   18.8875 C   0  0  0  0  0  0  0  0  0  0  0  0
   23.9735    5.1301   19.2747 C   0  0  0  0  0  0  0  0  0  0  0  0
   24.0688    6.1362   18.2691 C   0  0  0  0  0  0  0  0  0  0  0  0
   23.9757    7.5004   18.6584 C   0  0  0  0  0  0  0  0  0  0  0  0
   23.8830    7.8789   19.9829 C   0  0  0  0  0  0  0  0  0  0  0  0
   23.7879    6.8879   20.9875 C   0  0  0  0  0  0  0  0  0  0  0  0
   23.8383    5.5545   20.6275 C   0  0  0  0  0  0  0  0  0  0  0  0
  7  8  2  0  0  0
 31 32  2  0  0  0
 31 36  1  0  0  0
 32 33  1  0  0  0
 33 34  2  0  0  0
 34 35  1  0  0  0
 35 36  2  0  0  0
 35 40  1  0  0  0
 36 37  1  0  0  0
 37 38  2  0  0  0
 38 39  1  0  0  0
 38 30  1  0  0  0
 39 40  2  0  0  0
  8  9  1  0  0  0
 30  1  1  0  0  0
  1  4  1  0  0  0
  1 14  1  0  0  0
  9  6  1  0  0  0
  6  2  1  0  0  0
  6 11  1  0  0  0
  2  3  2  0  0  0
  2  4  1  0  0  0
 11 12  1  0  0  0
 11 13  1  0  0  0
 14 15  2  0  0  0
 14 16  1  0  0  0
 14 17  1  0  0  0
 18 23  1  0  0  0
 18 19  1  0  0  0
 18 17  1  0  0  0
 23 24  1  0  0  0
 24 25  2  0  0  0
 24 26  1  0  0  0
 25 27  1  0  0  0
 26 28  2  0  0  0
 27 29  2  0  0  0
 28 29  1  0  0  0
 19 22  1  0  0  0
 19 20  2  0  0  0
 21 22  1  0  0  0
  9 10  1  0  0  0
  4  5  1  0  0  0
M  CHG 1  16  -1
M  END
> <minimizedAffinity>
-9.58116

$$$$
2WEB_PP4_A_326


 40 42  0  0  0  0  0  0  0  0999 V2000
   22.2803    8.6512   21.3885 C   0  0  0  0  0  0  0  0  0  0  0  0
   20.3252    7.3551   20.7186 C   0  0  0  0  0  0  0  0  0  0  0  0
   20.3395    6.6370   21.7152 O   0  0  0  0  0  0  0  0  0  0  0  0
   21.1724    8.3556   20.4844 N   0  0  0  0  0  0  0  0  0  0  0  0
   21.0485    8.9106   19.6807 H   0  0  0  0  0  0  0  0  0  0  0  0
   19.1874    6.9159   19.7861 C   0  0  0  0  0  0  0  0  0  0  0  0
   16.4338    6.6933   21.2110 O   0  0  0  0  0  0  0  0  0  0  0  0
   17.0094    7.6279   20.6169 C   0  0  0  0  0  0  0  0  0  0  0  0
   18.1251    7.9231   19.9498 N   0  0  0  0  0  0  0  0  0  0  0  0
   18.2400    8.8214   19.5636 H   0  0  0  0  0  0  0  0  0  0  0  0
   19.5738    6.3194   18.4146 C   0  0  0  0  0  0  0  0  0  0  0  0
   20.6393    5.2485   18.5929 C   0  0  0  0  0  0  0  0  0  0  0  0
   18.5176    5.2003   18.3044 C   0  0  0  0  0  0  0  0  0  0  0  0
   22.0345   10.2602   22.2094 P   0  0  0  0  0  0  0  0  0  0  0  0
   22.8481   10.3223   23.4086 O   0  0  0  0  0  0  0  0  0  0  0  0
   22.2362   11.3526   21.2710 O   0  0  0  0  0  0  0  0  0  0  0  0
   20.5804   10.1322   22.7285 O   0  0  0  0  0  0  0  0  0  0  0  0
   20.2193   10.4855   24.0298 C   0  0  0  0  0  0  0  0  0  0  0  0
   19.2335    9.4554   24.5580 C   0  0  0  0  0  0  0  0  0  0  0  0
   19.2538    8.2929   24.2689 O   0  0  0  0  0  0  0  0  0  0  0  0
   18.1691    9.2511   26.6751 C   0  0  0  0  0  0  0  0  0  0  0  0
   18.3412    9.9676   25.4019 O   0  0  0  0  0  0  0  0  0  0  0  0
   19.5960   11.8748   24.0343 C   0  0  0  0  0  0  0  0  0  0  0  0
   20.3447   12.8616   24.8703 C   0  0  0  0  0  0  0  0  0  0  0  0
   21.4781   13.4849   24.3789 C   0  0  0  0  0  0  0  0  0  0  0  0
   19.8911   13.2008   26.1333 C   0  0  0  0  0  0  0  0  0  0  0  0
   22.1777   14.3915   25.1581 C   0  0  0  0  0  0  0  0  0  0  0  0
   20.5772   14.1073   26.9208 C   0  0  0  0  0  0  0  0  0  0  0  0
   21.7239   14.7000   26.4367 C   0  0  0  0  0  0  0  0  0  0  0  0
   23.6306    8.6387   20.6569 C   0  0  0  0  0  0  0  0  0  0  0  0
   23.9801    3.7226   19.8393 C   0  0  0  0  0  0  0  0  0  0  0  0
   24.1250    2.6771   18.9379 C   0  0  0  0  0  0  0  0  0  0  0  0
   24.3228    2.9058   17.5564 C   0  0  0  0  0  0  0  0  0  0  0  0
   24.3485    4.1768   17.0217 C   0  0  0  0  0  0  0  0  0  0  0  0
   24.1403    5.3062   17.9143 C   0  0  0  0  0  0  0  0  0  0  0  0
   23.9654    5.0757   19.3103 C   0  0  0  0  0  0  0  0  0  0  0  0
   23.8637    6.1964   20.1791 C   0  0  0  0  0  0  0  0  0  0  0  0
   23.8430    7.4921   19.7029 C   0  0  0  0  0  0  0  0  0  0  0  0
   24.0158    7.7307   18.3196 C   0  0  0  0  0  0  0  0  0  0  0  0
   24.1544    6.6564   17.4612 C   0  0  0  0  0  0  0  0  0  0  0  0
  7  8  2  0  0  0
 31 32  2  0  0  0
 31 36  1  0  0  0
 32 33  1  0  0  0
 33 34  2  0  0  0
 34 35  1  0  0  0
 35 36  2  0  0  0
 35 40  1  0  0  0
 36 37  1  0  0  0
 37 38  2  0  0  0
 38 39  1  0  0  0
 38 30  1  0  0  0
 39 40  2  0  0  0
  8  9  1  0  0  0
 30  1  1  0  0  0
  1  4  1  0  0  0
  1 14  1  0  0  0
  9  6  1  0  0  0
  6  2  1  0  0  0
  6 11  1  0  0  0
  2  3  2  0  0  0
  2  4  1  0  0  0
 11 12  1  0  0  0
 11 13  1  0  0  0
 14 15  2  0  0  0
 14 16  1  0  0  0
 14 17  1  0  0  0
 18 23  1  0  0  0
 18 19  1  0  0  0
 18 17  1  0  0  0
 23 24  1  0  0  0
 24 25  2  0  0  0
 24 26  1  0  0  0
 25 27  1  0  0  0
 26 28  2  0  0  0
 27 29  2  0  0  0
 28 29  1  0  0  0
 19 22  1  0  0  0
 19 20  2  0  0  0
 21 22  1  0  0  0
  9 10  1  0  0  0
  4  5  1  0  0  0
M  CHG 1  16  -1
M  END
> <minimizedAffinity>
-9.48245

$$$$
2WEB_PP4_A_326


 40 42  0  0  0  0  0  0  0  0999 V2000
   20.6817    7.8120   20.6431 C   0  0  0  0  0  0  0  0  0  0  0  0
   21.7007    9.4185   22.1702 C   0  0  0  0  0  0  0  0  0  0  0  0
   21.7572    8.6329   23.1129 O   0  0  0  0  0  0  0  0  0  0  0  0
   21.2449    9.1228   20.9542 N   0  0  0  0  0  0  0  0  0  0  0  0
   21.2888    9.8059   20.2466 H   0  0  0  0  0  0  0  0  0  0  0  0
   22.2289   10.7902   22.6132 C   0  0  0  0  0  0  0  0  0  0  0  0
   19.8993   12.6815   23.4247 O   0  0  0  0  0  0  0  0  0  0  0  0
   20.6161   11.8909   24.0721 C   0  0  0  0  0  0  0  0  0  0  0  0
   21.6327   11.0395   23.9370 N   0  0  0  0  0  0  0  0  0  0  0  0
   21.9880   10.5737   24.7282 H   0  0  0  0  0  0  0  0  0  0  0  0
   23.6955   11.1376   22.2747 C   0  0  0  0  0  0  0  0  0  0  0  0
   23.7996   12.5905   21.8362 C   0  0  0  0  0  0  0  0  0  0  0  0
   24.1976   11.5599   23.6710 C   0  0  0  0  0  0  0  0  0  0  0  0
   21.9023    6.7722   19.7759 P   0  0  0  0  0  0  0  0  0  0  0  0
   22.6240    7.5760   18.8080 O   0  0  0  0  0  0  0  0  0  0  0  0
   22.7373    6.0568   20.7274 O   0  0  0  0  0  0  0  0  0  0  0  0
   20.9891    5.8570   18.9221 O   0  0  0  0  0  0  0  0  0  0  0  0
   20.6275    4.5726   19.3322 C   0  0  0  0  0  0  0  0  0  0  0  0
   21.6428    3.5826   18.7835 C   0  0  0  0  0  0  0  0  0  0  0  0
   22.0323    2.6178   19.3776 O   0  0  0  0  0  0  0  0  0  0  0  0
   23.5087    3.9481   17.3547 C   0  0  0  0  0  0  0  0  0  0  0  0
   22.0526    3.8792   17.5528 O   0  0  0  0  0  0  0  0  0  0  0  0
   19.2299    4.2425   18.8259 C   0  0  0  0  0  0  0  0  0  0  0  0
   18.2198    4.0945   19.9171 C   0  0  0  0  0  0  0  0  0  0  0  0
   16.8729    3.9847   19.6202 C   0  0  0  0  0  0  0  0  0  0  0  0
   18.6197    4.0207   21.2403 C   0  0  0  0  0  0  0  0  0  0  0  0
   15.9361    3.8582   20.6327 C   0  0  0  0  0  0  0  0  0  0  0  0
   17.6958    3.8905   22.2611 C   0  0  0  0  0  0  0  0  0  0  0  0
   16.3527    3.8142   21.9594 C   0  0  0  0  0  0  0  0  0  0  0  0
   19.4020    7.9277   19.8016 C   0  0  0  0  0  0  0  0  0  0  0  0
   16.9714    7.3209   24.1239 C   0  0  0  0  0  0  0  0  0  0  0  0
   15.7668    7.1682   24.7965 C   0  0  0  0  0  0  0  0  0  0  0  0
   14.5352    7.0744   24.1078 C   0  0  0  0  0  0  0  0  0  0  0  0
   14.4567    7.1638   22.7338 C   0  0  0  0  0  0  0  0  0  0  0  0
   15.6836    7.3852   21.9847 C   0  0  0  0  0  0  0  0  0  0  0  0
   16.9274    7.4552   22.6779 C   0  0  0  0  0  0  0  0  0  0  0  0
   18.1248    7.5716   21.9204 C   0  0  0  0  0  0  0  0  0  0  0  0
   18.1115    7.7049   20.5463 C   0  0  0  0  0  0  0  0  0  0  0  0
   16.8823    7.6368   19.8498 C   0  0  0  0  0  0  0  0  0  0  0  0
   15.7089    7.4859   20.5642 C   0  0  0  0  0  0  0  0  0  0  0  0
  7  8  2  0  0  0
 31 32  2  0  0  0
 31 36  1  0  0  0
 32 33  1  0  0  0
 33 34  2  0  0  0
 34 35  1  0  0  0
 35 36  2  0  0  0
 35 40  1  0  0  0
 36 37  1  0  0  0
 37 38  2  0  0  0
 38 39  1  0  0  0
 38 30  1  0  0  0
 39 40  2  0  0  0
  8  9  1  0  0  0
 30  1  1  0  0  0
  1  4  1  0  0  0
  1 14  1  0  0  0
  9  6  1  0  0  0
  6  2  1  0  0  0
  6 11  1  0  0  0
  2  3  2  0  0  0
  2  4  1  0  0  0
 11 12  1  0  0  0
 11 13  1  0  0  0
 14 15  2  0  0  0
 14 16  1  0  0  0
 14 17  1  0  0  0
 18 23  1  0  0  0
 18 19  1  0  0  0
 18 17  1  0  0  0
 23 24  1  0  0  0
 24 25  2  0  0  0
 24 26  1  0  0  0
 25 27  1  0  0  0
 26 28  2  0  0  0
 27 29  2  0  0  0
 28 29  1  0  0  0
 19 22  1  0  0  0
 19 20  2  0  0  0
 21 22  1  0  0  0
  9 10  1  0  0  0
  4  5  1  0  0  0
M  CHG 1  16  -1
M  END
> <minimizedAffinity>
-9.11518

$$$$
2WEB_PP4_A_326


 40 42  0  0  0  0  0  0  0  0999 V2000
   19.1738    6.4942   19.4684 C   0  0  0  0  0  0  0  0  0  0  0  0
   16.8798    6.9819   20.1397 C   0  0  0  0  0  0  0  0  0  0  0  0
   16.8644    8.0979   19.6265 O   0  0  0  0  0  0  0  0  0  0  0  0
   17.9044    6.1323   20.0926 N   0  0  0  0  0  0  0  0  0  0  0  0
   17.8032    5.2369   20.4890 H   0  0  0  0  0  0  0  0  0  0  0  0
   15.5417    6.7238   20.8466 C   0  0  0  0  0  0  0  0  0  0  0  0
   14.4598    5.1532   18.3921 O   0  0  0  0  0  0  0  0  0  0  0  0
   14.8216    4.8008   19.5334 C   0  0  0  0  0  0  0  0  0  0  0  0
   15.2778    5.2831   20.6893 N   0  0  0  0  0  0  0  0  0  0  0  0
   15.4396    4.6717   21.4437 H   0  0  0  0  0  0  0  0  0  0  0  0
   15.2649    7.4889   22.1598 C   0  0  0  0  0  0  0  0  0  0  0  0
   14.1141    6.8367   22.9109 C   0  0  0  0  0  0  0  0  0  0  0  0
   16.2459    6.7619   23.1027 C   0  0  0  0  0  0  0  0  0  0  0  0
   19.4029    5.5959   17.8988 P   0  0  0  0  0  0  0  0  0  0  0  0
   18.1907    4.8682   17.5749 O   0  0  0  0  0  0  0  0  0  0  0  0
   19.8799    6.4922   16.8578 O   0  0  0  0  0  0  0  0  0  0  0  0
   20.4203    4.5008   18.3061 O   0  0  0  0  0  0  0  0  0  0  0  0
   21.5318    4.1868   17.5223 C   0  0  0  0  0  0  0  0  0  0  0  0
   21.1666    3.0355   16.5986 C   0  0  0  0  0  0  0  0  0  0  0  0
   21.1868    3.0988   15.4024 O   0  0  0  0  0  0  0  0  0  0  0  0
   21.4273    0.6761   16.7456 C   0  0  0  0  0  0  0  0  0  0  0  0
   20.8351    1.9242   17.2511 O   0  0  0  0  0  0  0  0  0  0  0  0
   22.7038    3.8049   18.4164 C   0  0  0  0  0  0  0  0  0  0  0  0
   23.5677    4.9640   18.7946 C   0  0  0  0  0  0  0  0  0  0  0  0
   23.9784    5.8777   17.8402 C   0  0  0  0  0  0  0  0  0  0  0  0
   23.9347    5.1666   20.1139 C   0  0  0  0  0  0  0  0  0  0  0  0
   24.7879    6.9460   18.1895 C   0  0  0  0  0  0  0  0  0  0  0  0
   24.7393    6.2310   20.4777 C   0  0  0  0  0  0  0  0  0  0  0  0
   25.1712    7.1191   19.5157 C   0  0  0  0  0  0  0  0  0  0  0  0
   20.3637    6.2267   20.4020 C   0  0  0  0  0  0  0  0  0  0  0  0
   23.4572   10.1289   20.8032 C   0  0  0  0  0  0  0  0  0  0  0  0
   23.8653   11.2518   21.5098 C   0  0  0  0  0  0  0  0  0  0  0  0
   23.2827   11.6052   22.7491 C   0  0  0  0  0  0  0  0  0  0  0  0
   22.2546   10.8757   23.3085 C   0  0  0  0  0  0  0  0  0  0  0  0
   21.7479    9.7241   22.5789 C   0  0  0  0  0  0  0  0  0  0  0  0
   22.3521    9.3545   21.3417 C   0  0  0  0  0  0  0  0  0  0  0  0
   21.9097    8.1689   20.6939 C   0  0  0  0  0  0  0  0  0  0  0  0
   20.8595    7.4168   21.1814 C   0  0  0  0  0  0  0  0  0  0  0  0
   20.2537    7.7757   22.4081 C   0  0  0  0  0  0  0  0  0  0  0  0
   20.6939    8.9039   23.0739 C   0  0  0  0  0  0  0  0  0  0  0  0
  7  8  2  0  0  0
 31 32  2  0  0  0
 31 36  1  0  0  0
 32 33  1  0  0  0
 33 34  2  0  0  0
 34 35  1  0  0  0
 35 36  2  0  0  0
 35 40  1  0  0  0
 36 37  1  0  0  0
 37 38  2  0  0  0
 38 39  1  0  0  0
 38 30  1  0  0  0
 39 40  2  0  0  0
  8  9  1  0  0  0
 30  1  1  0  0  0
  1  4  1  0  0  0
  1 14  1  0  0  0
  9  6  1  0  0  0
  6  2  1  0  0  0
  6 11  1  0  0  0
  2  3  2  0  0  0
  2  4  1  0  0  0
 11 12  1  0  0  0
 11 13  1  0  0  0
 14 15  2  0  0  0
 14 16  1  0  0  0
 14 17  1  0  0  0
 18 23  1  0  0  0
 18 19  1  0  0  0
 18 17  1  0  0  0
 23 24  1  0  0  0
 24 25  2  0  0  0
 24 26  1  0  0  0
 25 27  1  0  0  0
 26 28  2  0  0  0
 27 29  2  0  0  0
 28 29  1  0  0  0
 19 22  1  0  0  0
 19 20  2  0  0  0
 21 22  1  0  0  0
  9 10  1  0  0  0
  4  5  1  0  0  0
M  CHG 1  16  -1
M  END
> <minimizedAffinity>
-9.09366

$$$$
2WEB_PP4_A_326


 40 42  0  0  0  0  0  0  0  0999 V2000
   20.6062   10.1108   23.3503 C   0  0  0  0  0  0  0  0  0  0  0  0
   21.6503    8.7894   21.5854 C   0  0  0  0  0  0  0  0  0  0  0  0
   20.7713    9.0209   20.7590 O   0  0  0  0  0  0  0  0  0  0  0  0
   21.6861    9.2819   22.8223 N   0  0  0  0  0  0  0  0  0  0  0  0
   22.4610    9.0818   23.3957 H   0  0  0  0  0  0  0  0  0  0  0  0
   22.6923    7.8421   20.9743 C   0  0  0  0  0  0  0  0  0  0  0  0
   21.3031    6.2580   18.6889 O   0  0  0  0  0  0  0  0  0  0  0  0
   21.5382    5.9918   19.8855 C   0  0  0  0  0  0  0  0  0  0  0  0
   22.0757    6.5043   20.9923 N   0  0  0  0  0  0  0  0  0  0  0  0
   22.0605    5.9848   21.8284 H   0  0  0  0  0  0  0  0  0  0  0  0
   23.5268    8.3652   19.7842 C   0  0  0  0  0  0  0  0  0  0  0  0
   24.2541    9.6418   20.1783 C   0  0  0  0  0  0  0  0  0  0  0  0
   24.8387    7.5877   20.0174 C   0  0  0  0  0  0  0  0  0  0  0  0
   21.2049   11.7908   23.7277 P   0  0  0  0  0  0  0  0  0  0  0  0
   22.5160   11.9826   23.1377 O   0  0  0  0  0  0  0  0  0  0  0  0
   20.2115   12.7862   23.3578 O   0  0  0  0  0  0  0  0  0  0  0  0
   21.4707   11.6977   25.2512 O   0  0  0  0  0  0  0  0  0  0  0  0
   21.0573   12.6894   26.1424 C   0  0  0  0  0  0  0  0  0  0  0  0
   22.1532   13.7384   26.2458 C   0  0  0  0  0  0  0  0  0  0  0  0
   21.9867   14.9084   26.0492 O   0  0  0  0  0  0  0  0  0  0  0  0
   24.4602   13.5326   25.7053 C   0  0  0  0  0  0  0  0  0  0  0  0
   23.3318   13.2326   26.6002 O   0  0  0  0  0  0  0  0  0  0  0  0
   20.7748   12.0738   27.5062 C   0  0  0  0  0  0  0  0  0  0  0  0
   19.4163   11.4608   27.6139 C   0  0  0  0  0  0  0  0  0  0  0  0
   19.1441   10.5180   28.5893 C   0  0  0  0  0  0  0  0  0  0  0  0
   18.3959   11.8589   26.7674 C   0  0  0  0  0  0  0  0  0  0  0  0
   17.8877    9.9423   28.6820 C   0  0  0  0  0  0  0  0  0  0  0  0
   17.1356   11.2956   26.8510 C   0  0  0  0  0  0  0  0  0  0  0  0
   16.8810   10.3331   27.8047 C   0  0  0  0  0  0  0  0  0  0  0  0
   19.9717    9.4886   24.6030 C   0  0  0  0  0  0  0  0  0  0  0  0
   16.4009    7.9010   21.4905 C   0  0  0  0  0  0  0  0  0  0  0  0
   15.2497    7.1523   21.2887 C   0  0  0  0  0  0  0  0  0  0  0  0
   14.6023    6.4794   22.3508 C   0  0  0  0  0  0  0  0  0  0  0  0
   15.0957    6.4999   23.6385 C   0  0  0  0  0  0  0  0  0  0  0  0
   16.3337    7.2198   23.8926 C   0  0  0  0  0  0  0  0  0  0  0  0
   16.9723    7.9180   22.8262 C   0  0  0  0  0  0  0  0  0  0  0  0
   18.1255    8.6975   23.1153 C   0  0  0  0  0  0  0  0  0  0  0  0
   18.6914    8.7282   24.3743 C   0  0  0  0  0  0  0  0  0  0  0  0
   18.0650    8.0387   25.4386 C   0  0  0  0  0  0  0  0  0  0  0  0
   16.9211    7.3050   25.1874 C   0  0  0  0  0  0  0  0  0  0  0  0
  7  8  2  0  0  0
 31 32  2  0  0  0
 31 36  1  0  0  0
 32 33  1  0  0  0
 33 34  2  0  0  0
 34 35  1  0  0  0
 35 36  2  0  0  0
 35 40  1  0  0  0
 36 37  1  0  0  0
 37 38  2  0  0  0
 38 39  1  0  0  0
 38 30  1  0  0  0
 39 40  2  0  0  0
  8  9  1  0  0  0
 30  1  1  0  0  0
  1  4  1  0  0  0
  1 14  1  0  0  0
  9  6  1  0  0  0
  6  2  1  0  0  0
  6 11  1  0  0  0
  2  3  2  0  0  0
  2  4  1  0  0  0
 11 12  1  0  0  0
 11 13  1  0  0  0
 14 15  2  0  0  0
 14 16  1  0  0  0
 14 17  1  0  0  0
 18 23  1  0  0  0
 18 19  1  0  0  0
 18 17  1  0  0  0
 23 24  1  0  0  0
 24 25  2  0  0  0
 24 26  1  0  0  0
 25 27  1  0  0  0
 26 28  2  0  0  0
 27 29  2  0  0  0
 28 29  1  0  0  0
 19 22  1  0  0  0
 19 20  2  0  0  0
 21 22  1  0  0  0
  9 10  1  0  0  0
  4  5  1  0  0  0
M  CHG 1  16  -1
M  END
> <minimizedAffinity>
-8.98428

$$$$
