2JDU_MFU_C_1117


 15 15  0  0  0  0  0  0  0  0999 V2000
  -40.0858   20.5857   11.0379 C   0  0  0  0  0  0  0  0  0  0  0  0
  -38.7087   20.0142   11.1975 C   0  0  0  0  0  0  0  0  0  0  0  0
  -38.1593   20.3410   12.5997 C   0  0  0  0  0  0  0  0  0  0  0  0
  -39.0874   19.9588   13.7466 C   0  0  0  0  0  0  0  0  0  0  0  0
  -40.4358   20.6072   13.4783 C   0  0  0  0  0  0  0  0  0  0  0  0
  -41.4498   20.3849   14.6203 C   0  0  0  0  0  0  0  0  0  0  0  0
  -37.7733   20.4821   10.1883 O   0  0  0  0  0  0  0  0  0  0  0  0
  -36.9234   19.6099   12.7476 O   0  0  0  0  0  0  0  0  0  0  0  0
  -39.1471   18.5158   13.8082 O   0  0  0  0  0  0  0  0  0  0  0  0
  -40.9088   20.1768   12.1729 O   0  0  0  0  0  0  0  0  0  0  0  0
  -37.6613   21.4420   10.2714 H   0  0  0  0  0  0  0  0  0  0  0  0
  -37.1009   18.6585   12.6837 H   0  0  0  0  0  0  0  0  0  0  0  0
  -39.4561   18.1683   12.9569 H   0  0  0  0  0  0  0  0  0  0  0  0
  -39.9954   22.0266   11.0116 O   0  0  0  0  0  0  0  0  0  0  0  0
  -41.0789   22.5581   10.1948 C   0  0  0  0  0  0  0  0  0  0  0  0
  1  2  1  0  0  0
  1 14  1  0  0  0
  1 10  1  0  0  0
  2  3  1  0  0  0
  2  7  1  0  0  0
  3  4  1  0  0  0
  3  8  1  0  0  0
  4  5  1  0  0  0
  4  9  1  0  0  0
  5  6  1  0  0  0
  5 10  1  0  0  0
 14 15  1  0  0  0
  7 11  1  0  0  0
  8 12  1  0  0  0
  9 13  1  0  0  0
M  END
> <minimizedAffinity>
-7.36530

$$$$
2JDU_MFU_C_1117


 15 15  0  0  0  0  0  0  0  0999 V2000
  -39.8744   21.9531   13.6337 C   0  0  0  0  0  0  0  0  0  0  0  0
  -39.6265   20.6085   14.2494 C   0  0  0  0  0  0  0  0  0  0  0  0
  -39.4548   19.5452   13.1473 C   0  0  0  0  0  0  0  0  0  0  0  0
  -38.4233   19.8998   12.0828 C   0  0  0  0  0  0  0  0  0  0  0  0
  -38.7908   21.2665   11.5283 C   0  0  0  0  0  0  0  0  0  0  0  0
  -37.8817   21.7085   10.3620 C   0  0  0  0  0  0  0  0  0  0  0  0
  -40.6773   20.1943   15.1642 O   0  0  0  0  0  0  0  0  0  0  0  0
  -39.0388   18.3267   13.8001 O   0  0  0  0  0  0  0  0  0  0  0  0
  -37.1167   19.8640   12.7003 O   0  0  0  0  0  0  0  0  0  0  0  0
  -38.8489   22.2157   12.6277 O   0  0  0  0  0  0  0  0  0  0  0  0
  -41.5114   20.1013   14.6777 H   0  0  0  0  0  0  0  0  0  0  0  0
  -38.1889   18.4719   14.2445 H   0  0  0  0  0  0  0  0  0  0  0  0
  -37.0959   20.4804   13.4490 H   0  0  0  0  0  0  0  0  0  0  0  0
  -41.1714   21.9464   12.9991 O   0  0  0  0  0  0  0  0  0  0  0  0
  -41.9124   23.1304   13.4148 C   0  0  0  0  0  0  0  0  0  0  0  0
  1  2  1  0  0  0
  1 14  1  0  0  0
  1 10  1  0  0  0
  2  3  1  0  0  0
  2  7  1  0  0  0
  3  4  1  0  0  0
  3  8  1  0  0  0
  4  5  1  0  0  0
  4  9  1  0  0  0
  5  6  1  0  0  0
  5 10  1  0  0  0
 14 15  1  0  0  0
  7 11  1  0  0  0
  8 12  1  0  0  0
  9 13  1  0  0  0
M  END
> <minimizedAffinity>
-5.86717

$$$$
2JDU_MFU_C_1117


 15 15  0  0  0  0  0  0  0  0999 V2000
  -39.1847   21.1096   13.1283 C   0  0  0  0  0  0  0  0  0  0  0  0
  -38.0042   20.8208   12.2500 C   0  0  0  0  0  0  0  0  0  0  0  0
  -38.4568   20.6828   10.7834 C   0  0  0  0  0  0  0  0  0  0  0  0
  -39.2970   21.8459   10.2696 C   0  0  0  0  0  0  0  0  0  0  0  0
  -40.4618   22.0267   11.2293 C   0  0  0  0  0  0  0  0  0  0  0  0
  -41.4571   23.1138   10.7717 C   0  0  0  0  0  0  0  0  0  0  0  0
  -37.2725   19.6291   12.6465 O   0  0  0  0  0  0  0  0  0  0  0  0
  -37.2601   20.5927    9.9810 O   0  0  0  0  0  0  0  0  0  0  0  0
  -38.4412   23.0077   10.1813 O   0  0  0  0  0  0  0  0  0  0  0  0
  -39.9353   22.2304   12.5688 O   0  0  0  0  0  0  0  0  0  0  0  0
  -37.8483   18.8531   12.5618 H   0  0  0  0  0  0  0  0  0  0  0  0
  -36.7401   21.4050   10.0838 H   0  0  0  0  0  0  0  0  0  0  0  0
  -38.0556   23.1921   11.0520 H   0  0  0  0  0  0  0  0  0  0  0  0
  -40.0345   19.9428   13.1704 O   0  0  0  0  0  0  0  0  0  0  0  0
  -40.9233   20.0409   14.3211 C   0  0  0  0  0  0  0  0  0  0  0  0
  1  2  1  0  0  0
  1 14  1  0  0  0
  1 10  1  0  0  0
  2  3  1  0  0  0
  2  7  1  0  0  0
  3  4  1  0  0  0
  3  8  1  0  0  0
  4  5  1  0  0  0
  4  9  1  0  0  0
  5  6  1  0  0  0
  5 10  1  0  0  0
 14 15  1  0  0  0
  7 11  1  0  0  0
  8 12  1  0  0  0
  9 13  1  0  0  0
M  END
> <minimizedAffinity>
-5.80847

$$$$
2JDU_MFU_C_1117


 15 15  0  0  0  0  0  0  0  0999 V2000
  -40.1432   21.3718   13.7304 C   0  0  0  0  0  0  0  0  0  0  0  0
  -38.7420   20.8428   13.8034 C   0  0  0  0  0  0  0  0  0  0  0  0
  -38.4411   19.9692   12.5701 C   0  0  0  0  0  0  0  0  0  0  0  0
  -38.7450   20.6367   11.2341 C   0  0  0  0  0  0  0  0  0  0  0  0
  -40.1880   21.1123   11.2791 C   0  0  0  0  0  0  0  0  0  0  0  0
  -40.6640   21.7218    9.9435 C   0  0  0  0  0  0  0  0  0  0  0  0
  -38.4789   20.0817   15.0134 O   0  0  0  0  0  0  0  0  0  0  0  0
  -37.0336   19.6514   12.6136 O   0  0  0  0  0  0  0  0  0  0  0  0
  -37.7935   21.7086   11.0459 O   0  0  0  0  0  0  0  0  0  0  0  0
  -40.3539   21.9913   12.4248 O   0  0  0  0  0  0  0  0  0  0  0  0
  -39.0483   19.2966   15.0318 H   0  0  0  0  0  0  0  0  0  0  0  0
  -36.5156   20.4700   12.5640 H   0  0  0  0  0  0  0  0  0  0  0  0
  -37.8563   22.3305   11.7877 H   0  0  0  0  0  0  0  0  0  0  0  0
  -41.0677   20.2742   13.8899 O   0  0  0  0  0  0  0  0  0  0  0  0
  -41.8836   20.5057   15.0751 C   0  0  0  0  0  0  0  0  0  0  0  0
  1  2  1  0  0  0
  1 14  1  0  0  0
  1 10  1  0  0  0
  2  3  1  0  0  0
  2  7  1  0  0  0
  3  4  1  0  0  0
  3  8  1  0  0  0
  4  5  1  0  0  0
  4  9  1  0  0  0
  5  6  1  0  0  0
  5 10  1  0  0  0
 14 15  1  0  0  0
  7 11  1  0  0  0
  8 12  1  0  0  0
  9 13  1  0  0  0
M  END
> <minimizedAffinity>
-5.74575

$$$$
2JDU_MFU_C_1117


 15 15  0  0  0  0  0  0  0  0999 V2000
  -40.6421   20.7203   11.7069 C   0  0  0  0  0  0  0  0  0  0  0  0
  -39.4372   19.8423   11.8674 C   0  0  0  0  0  0  0  0  0  0  0  0
  -38.3274   20.5993   12.6223 C   0  0  0  0  0  0  0  0  0  0  0  0
  -38.7731   21.2264   13.9380 C   0  0  0  0  0  0  0  0  0  0  0  0
  -39.9821   22.0987   13.6415 C   0  0  0  0  0  0  0  0  0  0  0  0
  -40.4794   22.8799   14.8762 C   0  0  0  0  0  0  0  0  0  0  0  0
  -38.9151   19.3487   10.6039 O   0  0  0  0  0  0  0  0  0  0  0  0
  -37.2819   19.6438   12.9014 O   0  0  0  0  0  0  0  0  0  0  0  0
  -39.0526   20.1560   14.8685 O   0  0  0  0  0  0  0  0  0  0  0  0
  -41.0025   21.2813   13.0062 O   0  0  0  0  0  0  0  0  0  0  0  0
  -38.6147   20.0964   10.0639 H   0  0  0  0  0  0  0  0  0  0  0  0
  -37.6322   18.9368   13.4656 H   0  0  0  0  0  0  0  0  0  0  0  0
  -39.7301   19.5712   14.4945 H   0  0  0  0  0  0  0  0  0  0  0  0
  -40.3212   21.7954   10.7980 O   0  0  0  0  0  0  0  0  0  0  0  0
  -41.5548   22.3262   10.2319 C   0  0  0  0  0  0  0  0  0  0  0  0
  1  2  1  0  0  0
  1 14  1  0  0  0
  1 10  1  0  0  0
  2  3  1  0  0  0
  2  7  1  0  0  0
  3  4  1  0  0  0
  3  8  1  0  0  0
  4  5  1  0  0  0
  4  9  1  0  0  0
  5  6  1  0  0  0
  5 10  1  0  0  0
 14 15  1  0  0  0
  7 11  1  0  0  0
  8 12  1  0  0  0
  9 13  1  0  0  0
M  END
> <minimizedAffinity>
-5.64121

$$$$
2JDU_MFU_C_1117


 15 15  0  0  0  0  0  0  0  0999 V2000
  -39.8257   21.2114   11.5177 C   0  0  0  0  0  0  0  0  0  0  0  0
  -38.8589   20.2283   12.1069 C   0  0  0  0  0  0  0  0  0  0  0  0
  -38.6537   20.5212   13.6058 C   0  0  0  0  0  0  0  0  0  0  0  0
  -39.9434   20.6271   14.4110 C   0  0  0  0  0  0  0  0  0  0  0  0
  -40.8257   21.6582   13.7264 C   0  0  0  0  0  0  0  0  0  0  0  0
  -42.1319   21.9418   14.4979 C   0  0  0  0  0  0  0  0  0  0  0  0
  -37.5708   20.2170   11.4336 O   0  0  0  0  0  0  0  0  0  0  0  0
  -37.8667   19.4363   14.1421 O   0  0  0  0  0  0  0  0  0  0  0  0
  -40.5395   19.3114   14.4707 O   0  0  0  0  0  0  0  0  0  0  0  0
  -41.0285   21.2549   12.3447 O   0  0  0  0  0  0  0  0  0  0  0  0
  -37.1457   21.0831   11.5343 H   0  0  0  0  0  0  0  0  0  0  0  0
  -38.3523   18.6029   14.0391 H   0  0  0  0  0  0  0  0  0  0  0  0
  -40.6965   18.9864   13.5704 H   0  0  0  0  0  0  0  0  0  0  0  0
  -39.2132   22.5190   11.5011 O   0  0  0  0  0  0  0  0  0  0  0  0
  -39.2652   23.0534   10.1463 C   0  0  0  0  0  0  0  0  0  0  0  0
  1  2  1  0  0  0
  1 14  1  0  0  0
  1 10  1  0  0  0
  2  3  1  0  0  0
  2  7  1  0  0  0
  3  4  1  0  0  0
  3  8  1  0  0  0
  4  5  1  0  0  0
  4  9  1  0  0  0
  5  6  1  0  0  0
  5 10  1  0  0  0
 14 15  1  0  0  0
  7 11  1  0  0  0
  8 12  1  0  0  0
  9 13  1  0  0  0
M  END
> <minimizedAffinity>
-5.58004

$$$$
2JDU_MFU_C_1117


 15 15  0  0  0  0  0  0  0  0999 V2000
  -40.9146   21.5533   11.2260 C   0  0  0  0  0  0  0  0  0  0  0  0
  -39.8348   20.9530   10.3761 C   0  0  0  0  0  0  0  0  0  0  0  0
  -38.4663   21.1169   11.0652 C   0  0  0  0  0  0  0  0  0  0  0  0
  -38.4207   20.6200   12.5053 C   0  0  0  0  0  0  0  0  0  0  0  0
  -39.5454   21.3083   13.2616 C   0  0  0  0  0  0  0  0  0  0  0  0
  -39.5536   20.9717   14.7678 C   0  0  0  0  0  0  0  0  0  0  0  0
  -39.7761   21.5199    9.0390 O   0  0  0  0  0  0  0  0  0  0  0  0
  -37.5120   20.3609   10.2895 O   0  0  0  0  0  0  0  0  0  0  0  0
  -38.5424   19.1797   12.4827 O   0  0  0  0  0  0  0  0  0  0  0  0
  -40.8013   21.0300   12.5847 O   0  0  0  0  0  0  0  0  0  0  0  0
  -39.5589   22.4634    9.0970 H   0  0  0  0  0  0  0  0  0  0  0  0
  -37.7642   19.4243   10.2903 H   0  0  0  0  0  0  0  0  0  0  0  0
  -39.3673   18.9319   12.0366 H   0  0  0  0  0  0  0  0  0  0  0  0
  -40.7468   22.9872   11.2539 O   0  0  0  0  0  0  0  0  0  0  0  0
  -42.0314   23.6234   10.9916 C   0  0  0  0  0  0  0  0  0  0  0  0
  1  2  1  0  0  0
  1 14  1  0  0  0
  1 10  1  0  0  0
  2  3  1  0  0  0
  2  7  1  0  0  0
  3  4  1  0  0  0
  3  8  1  0  0  0
  4  5  1  0  0  0
  4  9  1  0  0  0
  5  6  1  0  0  0
  5 10  1  0  0  0
 14 15  1  0  0  0
  7 11  1  0  0  0
  8 12  1  0  0  0
  9 13  1  0  0  0
M  END
> <minimizedAffinity>
-5.52766

$$$$
2JDU_MFU_C_1117


 15 15  0  0  0  0  0  0  0  0999 V2000
  -39.1373   23.1433   12.0366 C   0  0  0  0  0  0  0  0  0  0  0  0
  -38.4526   22.3801   10.9425 C   0  0  0  0  0  0  0  0  0  0  0  0
  -38.0972   20.9617   11.4289 C   0  0  0  0  0  0  0  0  0  0  0  0
  -39.2635   20.1918   12.0370 C   0  0  0  0  0  0  0  0  0  0  0  0
  -39.8588   21.0576   13.1355 C   0  0  0  0  0  0  0  0  0  0  0  0
  -40.9934   20.3539   13.9097 C   0  0  0  0  0  0  0  0  0  0  0  0
  -37.2547   23.0380   10.4476 O   0  0  0  0  0  0  0  0  0  0  0  0
  -37.6160   20.2318   10.2801 O   0  0  0  0  0  0  0  0  0  0  0  0
  -40.1976   19.8888   10.9761 O   0  0  0  0  0  0  0  0  0  0  0  0
  -40.2366   22.3402   12.5653 O   0  0  0  0  0  0  0  0  0  0  0  0
  -36.6012   23.0998   11.1618 H   0  0  0  0  0  0  0  0  0  0  0  0
  -38.3185   20.1783    9.6134 H   0  0  0  0  0  0  0  0  0  0  0  0
  -40.4849   20.7131   10.5530 H   0  0  0  0  0  0  0  0  0  0  0  0
  -38.1876   23.4024   13.0930 O   0  0  0  0  0  0  0  0  0  0  0  0
  -38.1718   24.8308   13.3810 C   0  0  0  0  0  0  0  0  0  0  0  0
  1  2  1  0  0  0
  1 14  1  0  0  0
  1 10  1  0  0  0
  2  3  1  0  0  0
  2  7  1  0  0  0
  3  4  1  0  0  0
  3  8  1  0  0  0
  4  5  1  0  0  0
  4  9  1  0  0  0
  5  6  1  0  0  0
  5 10  1  0  0  0
 14 15  1  0  0  0
  7 11  1  0  0  0
  8 12  1  0  0  0
  9 13  1  0  0  0
M  END
> <minimizedAffinity>
-5.51988

$$$$
2JDU_MFU_C_1117


 15 15  0  0  0  0  0  0  0  0999 V2000
  -38.5446   22.0969   12.6945 C   0  0  0  0  0  0  0  0  0  0  0  0
  -38.2529   20.8628   11.8943 C   0  0  0  0  0  0  0  0  0  0  0  0
  -39.5695   20.1879   11.4635 C   0  0  0  0  0  0  0  0  0  0  0  0
  -40.5568   21.1166   10.7666 C   0  0  0  0  0  0  0  0  0  0  0  0
  -40.7805   22.3121   11.6783 C   0  0  0  0  0  0  0  0  0  0  0  0
  -41.8438   23.2917   11.1383 C   0  0  0  0  0  0  0  0  0  0  0  0
  -37.4242   19.9022   12.6037 O   0  0  0  0  0  0  0  0  0  0  0  0
  -39.2182   19.1254   10.5514 O   0  0  0  0  0  0  0  0  0  0  0  0
  -40.0007   21.4724    9.4805 O   0  0  0  0  0  0  0  0  0  0  0  0
  -39.4953   22.9291   11.9622 O   0  0  0  0  0  0  0  0  0  0  0  0
  -37.8950   19.5888   13.3917 H   0  0  0  0  0  0  0  0  0  0  0  0
  -38.7772   19.5002    9.7730 H   0  0  0  0  0  0  0  0  0  0  0  0
  -39.1340   21.8891    9.6071 H   0  0  0  0  0  0  0  0  0  0  0  0
  -39.1271   21.7099   13.9579 O   0  0  0  0  0  0  0  0  0  0  0  0
  -38.7478   22.6812   14.9760 C   0  0  0  0  0  0  0  0  0  0  0  0
  1  2  1  0  0  0
  1 14  1  0  0  0
  1 10  1  0  0  0
  2  3  1  0  0  0
  2  7  1  0  0  0
  3  4  1  0  0  0
  3  8  1  0  0  0
  4  5  1  0  0  0
  4  9  1  0  0  0
  5  6  1  0  0  0
  5 10  1  0  0  0
 14 15  1  0  0  0
  7 11  1  0  0  0
  8 12  1  0  0  0
  9 13  1  0  0  0
M  END
> <minimizedAffinity>
-5.48758

$$$$
2JDU_MFU_C_1117


 15 15  0  0  0  0  0  0  0  0999 V2000
  -38.2498   21.7146   10.7970 C   0  0  0  0  0  0  0  0  0  0  0  0
  -38.4996   20.4027   11.4789 C   0  0  0  0  0  0  0  0  0  0  0  0
  -39.7878   20.4807   12.3209 C   0  0  0  0  0  0  0  0  0  0  0  0
  -41.0088   20.9868   11.5618 C   0  0  0  0  0  0  0  0  0  0  0  0
  -40.6358   22.3198   10.9339 C   0  0  0  0  0  0  0  0  0  0  0  0
  -41.8195   22.9994   10.2135 C   0  0  0  0  0  0  0  0  0  0  0  0
  -37.3946   19.9746   12.3207 O   0  0  0  0  0  0  0  0  0  0  0  0
  -40.0632   19.1444   12.7925 O   0  0  0  0  0  0  0  0  0  0  0  0
  -41.3786   19.9799   10.5927 O   0  0  0  0  0  0  0  0  0  0  0  0
  -39.4626   22.1293   10.0971 O   0  0  0  0  0  0  0  0  0  0  0  0
  -37.2684   20.6144   13.0387 H   0  0  0  0  0  0  0  0  0  0  0  0
  -40.2078   18.5573   12.0340 H   0  0  0  0  0  0  0  0  0  0  0  0
  -40.6277   19.8071   10.0034 H   0  0  0  0  0  0  0  0  0  0  0  0
  -37.9143   22.7046   11.7932 O   0  0  0  0  0  0  0  0  0  0  0  0
  -37.7185   23.9923   11.1395 C   0  0  0  0  0  0  0  0  0  0  0  0
  1  2  1  0  0  0
  1 14  1  0  0  0
  1 10  1  0  0  0
  2  3  1  0  0  0
  2  7  1  0  0  0
  3  4  1  0  0  0
  3  8  1  0  0  0
  4  5  1  0  0  0
  4  9  1  0  0  0
  5  6  1  0  0  0
  5 10  1  0  0  0
 14 15  1  0  0  0
  7 11  1  0  0  0
  8 12  1  0  0  0
  9 13  1  0  0  0
M  END
> <minimizedAffinity>
-5.29297

$$$$
