5TBM_79A_A_401


 27 29  0  0  0  0  0  0  0  0999 V2000
   23.7191   -0.3767  -10.8807 C   0  0  0  0  0  0  0  0  0  0  0  0
   24.8229    0.1349  -11.4859 C   0  0  0  0  0  0  0  0  0  0  0  0
   24.9531    0.6548  -12.9089 C   0  0  0  0  0  0  0  0  0  0  0  0
   26.4664    0.5872  -13.1084 C   0  0  0  0  0  0  0  0  0  0  0  0
   26.8260    1.5159  -13.9860 F   0  0  0  0  0  0  0  0  0  0  0  0
   26.7696   -0.5844  -13.6215 F   0  0  0  0  0  0  0  0  0  0  0  0
   26.0121    0.1390  -10.7849 C   0  0  0  0  0  0  0  0  0  0  0  0
   27.0584    0.7040  -11.6789 C   0  0  0  0  0  0  0  0  0  0  0  0
   27.2198    2.0779  -11.3426 O   0  0  0  0  0  0  0  0  0  0  0  0
   26.0598   -0.3406   -9.4694 C   0  0  0  0  0  0  0  0  0  0  0  0
   24.9353   -0.8151   -8.8202 C   0  0  0  0  0  0  0  0  0  0  0  0
   23.6997   -0.8366   -9.5677 C   0  0  0  0  0  0  0  0  0  0  0  0
   26.3653    2.5312  -11.4155 H   0  0  0  0  0  0  0  0  0  0  0  0
   27.4857   -0.2983   -8.6297 S   0  0  0  0  0  0  0  0  0  0  0  0
   28.2058   -1.6381   -9.2291 C   0  0  0  0  0  0  0  0  0  0  0  0
   28.0483    0.9704   -8.9938 O   0  0  0  0  0  0  0  0  0  0  0  0
   27.0749   -0.3613   -7.2618 O   0  0  0  0  0  0  0  0  0  0  0  0
   22.6434   -0.3760  -11.7250 O   0  0  0  0  0  0  0  0  0  0  0  0
   19.5512    0.2885  -10.0351 C   0  0  0  0  0  0  0  0  0  0  0  0
   20.8130    0.4426  -10.6125 C   0  0  0  0  0  0  0  0  0  0  0  0
   21.4393   -0.6582  -11.1589 C   0  0  0  0  0  0  0  0  0  0  0  0
   20.8244   -1.9133  -11.1975 C   0  0  0  0  0  0  0  0  0  0  0  0
   19.5669   -2.0640  -10.6066 C   0  0  0  0  0  0  0  0  0  0  0  0
   18.9299   -3.2615  -10.5664 F   0  0  0  0  0  0  0  0  0  0  0  0
   18.9600   -0.9574  -10.0442 C   0  0  0  0  0  0  0  0  0  0  0  0
   18.3678    2.2362   -9.0381 N   0  0  0  0  0  0  0  0  0  0  0  0
   18.9026    1.2968   -9.5197 C   0  0  0  0  0  0  0  0  0  0  0  0
  5  4  1  0  0  0
  6  4  1  0  0  0
  4  3  1  0  0  0
  4  8  1  0  0  0
  3  2  1  0  0  0
 18 21  1  0  0  0
 18  1  1  0  0  0
  8  9  1  0  0  0
  8  7  1  0  0  0
 22 21  2  0  0  0
 22 23  1  0  0  0
  2  1  2  0  0  0
  2  7  1  0  0  0
 21 20  1  0  0  0
 24 23  1  0  0  0
 23 25  2  0  0  0
  1 12  1  0  0  0
  7 10  2  0  0  0
 20 19  2  0  0  0
 25 19  1  0  0  0
 19 27  1  0  0  0
 12 11  2  0  0  0
 17 14  2  0  0  0
 10 11  1  0  0  0
 10 14  1  0  0  0
 27 26  3  0  0  0
 14 15  1  0  0  0
 14 16  2  0  0  0
  9 13  1  0  0  0
M  END
> <minimizedAffinity>
-10.91228

$$$$
5TBM_79A_A_401


 27 29  0  0  0  0  0  0  0  0999 V2000
   23.7845    0.0014  -10.8158 C   0  0  0  0  0  0  0  0  0  0  0  0
   24.9529    0.2791  -11.4516 C   0  0  0  0  0  0  0  0  0  0  0  0
   25.1450    0.8957  -12.8282 C   0  0  0  0  0  0  0  0  0  0  0  0
   26.5786    0.4706  -13.1423 C   0  0  0  0  0  0  0  0  0  0  0  0
   27.1234    1.3655  -13.9573 F   0  0  0  0  0  0  0  0  0  0  0  0
   26.5449   -0.6792  -13.7786 F   0  0  0  0  0  0  0  0  0  0  0  0
   26.1349   -0.0898  -10.8412 C   0  0  0  0  0  0  0  0  0  0  0  0
   27.2478    0.2841  -11.7549 C   0  0  0  0  0  0  0  0  0  0  0  0
   27.7736    1.5300  -11.3099 O   0  0  0  0  0  0  0  0  0  0  0  0
   26.1196   -0.7011   -9.5807 C   0  0  0  0  0  0  0  0  0  0  0  0
   24.9430   -0.9426   -8.8965 C   0  0  0  0  0  0  0  0  0  0  0  0
   23.7095   -0.5738   -9.5512 C   0  0  0  0  0  0  0  0  0  0  0  0
   27.0623    2.1888  -11.2799 H   0  0  0  0  0  0  0  0  0  0  0  0
   27.5465   -1.1075   -8.8464 S   0  0  0  0  0  0  0  0  0  0  0  0
   26.9809   -1.6485   -7.4110 C   0  0  0  0  0  0  0  0  0  0  0  0
   28.1147   -2.0775   -9.7380 O   0  0  0  0  0  0  0  0  0  0  0  0
   28.2732    0.1233   -8.8147 O   0  0  0  0  0  0  0  0  0  0  0  0
   22.7066    0.3614  -11.5763 O   0  0  0  0  0  0  0  0  0  0  0  0
   19.8010   -1.7061  -11.1994 C   0  0  0  0  0  0  0  0  0  0  0  0
   21.0248   -1.1962  -11.6371 C   0  0  0  0  0  0  0  0  0  0  0  0
   21.4883   -0.0127  -11.1011 C   0  0  0  0  0  0  0  0  0  0  0  0
   20.7926    0.6637  -10.0946 C   0  0  0  0  0  0  0  0  0  0  0  0
   19.5621    0.1551   -9.6698 C   0  0  0  0  0  0  0  0  0  0  0  0
   18.8106    0.7821   -8.7298 F   0  0  0  0  0  0  0  0  0  0  0  0
   19.0997   -1.0201  -10.2301 C   0  0  0  0  0  0  0  0  0  0  0  0
   18.8851   -3.8252  -12.1261 N   0  0  0  0  0  0  0  0  0  0  0  0
   19.3211   -2.8303  -11.6563 C   0  0  0  0  0  0  0  0  0  0  0  0
  5  4  1  0  0  0
  6  4  1  0  0  0
  4  3  1  0  0  0
  4  8  1  0  0  0
  3  2  1  0  0  0
 18 21  1  0  0  0
 18  1  1  0  0  0
  8  9  1  0  0  0
  8  7  1  0  0  0
 22 21  2  0  0  0
 22 23  1  0  0  0
  2  1  2  0  0  0
  2  7  1  0  0  0
 21 20  1  0  0  0
 24 23  1  0  0  0
 23 25  2  0  0  0
  1 12  1  0  0  0
  7 10  2  0  0  0
 20 19  2  0  0  0
 25 19  1  0  0  0
 19 27  1  0  0  0
 12 11  2  0  0  0
 17 14  2  0  0  0
 10 11  1  0  0  0
 10 14  1  0  0  0
 27 26  3  0  0  0
 14 15  1  0  0  0
 14 16  2  0  0  0
  9 13  1  0  0  0
M  END
> <minimizedAffinity>
-9.63954

$$$$
5TBM_79A_A_401


 27 29  0  0  0  0  0  0  0  0999 V2000
   23.7266   -0.2020  -10.2680 C   0  0  0  0  0  0  0  0  0  0  0  0
   24.9198   -0.4940   -9.6870 C   0  0  0  0  0  0  0  0  0  0  0  0
   25.1792   -0.9413   -8.2570 C   0  0  0  0  0  0  0  0  0  0  0  0
   26.6618   -0.6032   -8.1084 C   0  0  0  0  0  0  0  0  0  0  0  0
   27.2038   -1.4284   -7.2211 F   0  0  0  0  0  0  0  0  0  0  0  0
   26.7676    0.6178   -7.6334 F   0  0  0  0  0  0  0  0  0  0  0  0
   26.0712   -0.3096  -10.4259 C   0  0  0  0  0  0  0  0  0  0  0  0
   27.2252   -0.6558   -9.5532 C   0  0  0  0  0  0  0  0  0  0  0  0
   27.6170   -1.9892   -9.8619 O   0  0  0  0  0  0  0  0  0  0  0  0
   25.9969    0.1324  -11.7533 C   0  0  0  0  0  0  0  0  0  0  0  0
   24.7888    0.3830  -12.3767 C   0  0  0  0  0  0  0  0  0  0  0  0
   23.5900    0.2089  -11.5902 C   0  0  0  0  0  0  0  0  0  0  0  0
   26.8582   -2.5832   -9.7505 H   0  0  0  0  0  0  0  0  0  0  0  0
   27.3841    0.3168  -12.6376 S   0  0  0  0  0  0  0  0  0  0  0  0
   26.7621    0.9553  -14.0081 C   0  0  0  0  0  0  0  0  0  0  0  0
   28.1893    1.1756  -11.8175 O   0  0  0  0  0  0  0  0  0  0  0  0
   27.9001   -1.0127  -12.7387 O   0  0  0  0  0  0  0  0  0  0  0  0
   22.6919   -0.3670   -9.3894 O   0  0  0  0  0  0  0  0  0  0  0  0
   19.7760   -1.6056  -11.0695 C   0  0  0  0  0  0  0  0  0  0  0  0
   21.0549   -1.5095  -10.5178 C   0  0  0  0  0  0  0  0  0  0  0  0
   21.4418   -0.3261   -9.9240 C   0  0  0  0  0  0  0  0  0  0  0  0
   20.5717    0.7625   -9.8128 C   0  0  0  0  0  0  0  0  0  0  0  0
   19.2973    0.6647  -10.3782 C   0  0  0  0  0  0  0  0  0  0  0  0
   18.4161    1.6962  -10.3483 F   0  0  0  0  0  0  0  0  0  0  0  0
   18.9301   -0.5193  -10.9884 C   0  0  0  0  0  0  0  0  0  0  0  0
   18.9837   -3.6829  -12.1853 N   0  0  0  0  0  0  0  0  0  0  0  0
   19.3480   -2.7050  -11.6271 C   0  0  0  0  0  0  0  0  0  0  0  0
  5  4  1  0  0  0
  6  4  1  0  0  0
  4  3  1  0  0  0
  4  8  1  0  0  0
  3  2  1  0  0  0
 18 21  1  0  0  0
 18  1  1  0  0  0
  8  9  1  0  0  0
  8  7  1  0  0  0
 22 21  2  0  0  0
 22 23  1  0  0  0
  2  1  2  0  0  0
  2  7  1  0  0  0
 21 20  1  0  0  0
 24 23  1  0  0  0
 23 25  2  0  0  0
  1 12  1  0  0  0
  7 10  2  0  0  0
 20 19  2  0  0  0
 25 19  1  0  0  0
 19 27  1  0  0  0
 12 11  2  0  0  0
 17 14  2  0  0  0
 10 11  1  0  0  0
 10 14  1  0  0  0
 27 26  3  0  0  0
 14 15  1  0  0  0
 14 16  2  0  0  0
  9 13  1  0  0  0
M  END
> <minimizedAffinity>
-8.21714

$$$$
5TBM_79A_A_401


 27 29  0  0  0  0  0  0  0  0999 V2000
   23.7216   -0.7354  -10.4437 C   0  0  0  0  0  0  0  0  0  0  0  0
   24.9420   -0.7148   -9.8465 C   0  0  0  0  0  0  0  0  0  0  0  0
   25.3119   -1.2095   -8.4571 C   0  0  0  0  0  0  0  0  0  0  0  0
   26.6215   -0.4597   -8.2179 C   0  0  0  0  0  0  0  0  0  0  0  0
   27.3798   -1.1717   -7.3933 F   0  0  0  0  0  0  0  0  0  0  0  0
   26.3490    0.6808   -7.6238 F   0  0  0  0  0  0  0  0  0  0  0  0
   25.9902   -0.1180  -10.5180 C   0  0  0  0  0  0  0  0  0  0  0  0
   27.1871   -0.1908   -9.6375 C   0  0  0  0  0  0  0  0  0  0  0  0
   27.9664   -1.3058  -10.0573 O   0  0  0  0  0  0  0  0  0  0  0  0
   25.7974    0.4166  -11.7986 C   0  0  0  0  0  0  0  0  0  0  0  0
   24.5756    0.3566  -12.4425 C   0  0  0  0  0  0  0  0  0  0  0  0
   23.4787   -0.2495  -11.7246 C   0  0  0  0  0  0  0  0  0  0  0  0
   27.4218   -2.1081  -10.0337 H   0  0  0  0  0  0  0  0  0  0  0  0
   27.0716    1.0992  -12.6053 S   0  0  0  0  0  0  0  0  0  0  0  0
   26.5297    0.9775  -14.1430 C   0  0  0  0  0  0  0  0  0  0  0  0
   27.1568    2.4149  -12.0394 O   0  0  0  0  0  0  0  0  0  0  0  0
   28.1784    0.2633  -12.2585 O   0  0  0  0  0  0  0  0  0  0  0  0
   22.7775   -1.2933   -9.6268 O   0  0  0  0  0  0  0  0  0  0  0  0
   19.5720    0.1934  -10.2381 C   0  0  0  0  0  0  0  0  0  0  0  0
   20.8820   -0.0149   -9.8024 C   0  0  0  0  0  0  0  0  0  0  0  0
   21.4917   -1.2239  -10.0652 C   0  0  0  0  0  0  0  0  0  0  0  0
   20.8539   -2.2274  -10.8006 C   0  0  0  0  0  0  0  0  0  0  0  0
   19.5382   -2.0180  -11.2230 C   0  0  0  0  0  0  0  0  0  0  0  0
   18.8414   -2.9642  -11.9016 F   0  0  0  0  0  0  0  0  0  0  0  0
   18.9321   -0.8102  -10.9348 C   0  0  0  0  0  0  0  0  0  0  0  0
   18.4187    2.3534   -9.7994 N   0  0  0  0  0  0  0  0  0  0  0  0
   18.9507    1.3229  -10.0351 C   0  0  0  0  0  0  0  0  0  0  0  0
  5  4  1  0  0  0
  6  4  1  0  0  0
  4  3  1  0  0  0
  4  8  1  0  0  0
  3  2  1  0  0  0
 18 21  1  0  0  0
 18  1  1  0  0  0
  8  9  1  0  0  0
  8  7  1  0  0  0
 22 21  2  0  0  0
 22 23  1  0  0  0
  2  1  2  0  0  0
  2  7  1  0  0  0
 21 20  1  0  0  0
 24 23  1  0  0  0
 23 25  2  0  0  0
  1 12  1  0  0  0
  7 10  2  0  0  0
 20 19  2  0  0  0
 25 19  1  0  0  0
 19 27  1  0  0  0
 12 11  2  0  0  0
 17 14  2  0  0  0
 10 11  1  0  0  0
 10 14  1  0  0  0
 27 26  3  0  0  0
 14 15  1  0  0  0
 14 16  2  0  0  0
  9 13  1  0  0  0
M  END
> <minimizedAffinity>
-8.17372

$$$$
