2WQ5_MIY_A_1120


 39 42  0  0  0  0  0  0  0  0999 V2000
  -13.0555   18.4091   13.9509 C   0  0  0  0  0  0  0  0  0  0  0  0
  -12.7179   17.5634   15.0791 C   0  0  0  0  0  0  0  0  0  0  0  0
  -11.6530   17.6337   15.6621 O   0  0  0  0  0  0  0  0  0  0  0  0
  -14.2434   18.9818   13.9931 C   0  0  0  0  0  0  0  0  0  0  0  0
  -14.2583   20.2966   13.8269 O   0  0  0  0  0  0  0  0  0  0  0  0
  -15.4287   18.2858   14.6334 C   0  0  0  0  0  0  0  0  0  0  0  0
  -15.0490   17.3840   15.8112 C   0  0  0  0  0  0  0  0  0  0  0  0
  -13.7814   16.6092   15.5214 C   0  0  0  0  0  0  0  0  0  0  0  0
  -14.0769   15.7114   14.4589 O   0  0  0  0  0  0  0  0  0  0  0  0
  -13.2957   15.8336   16.7120 C   0  0  0  0  0  0  0  0  0  0  0  0
  -12.3936   14.8842   16.4722 O   0  0  0  0  0  0  0  0  0  0  0  0
  -13.7296   16.0947   17.9504 C   0  0  0  0  0  0  0  0  0  0  0  0
  -14.7590   17.1573   18.2606 C   0  0  0  0  0  0  0  0  0  0  0  0
  -14.9228   18.1572   17.1178 C   0  0  0  0  0  0  0  0  0  0  0  0
  -13.2126   15.3017   19.0564 C   0  0  0  0  0  0  0  0  0  0  0  0
  -12.3671   14.3785   18.8267 O   0  0  0  0  0  0  0  0  0  0  0  0
  -13.6566   15.6528   20.4423 C   0  0  0  0  0  0  0  0  0  0  0  0
  -14.2428   16.8935   20.6833 C   0  0  0  0  0  0  0  0  0  0  0  0
  -14.3905   17.8854   19.5410 C   0  0  0  0  0  0  0  0  0  0  0  0
  -13.5200   14.7329   21.4743 C   0  0  0  0  0  0  0  0  0  0  0  0
  -12.9594   13.5465   21.2489 O   0  0  0  0  0  0  0  0  0  0  0  0
  -13.9557   15.0697   22.7592 C   0  0  0  0  0  0  0  0  0  0  0  0
  -14.5257   16.3143   23.0065 C   0  0  0  0  0  0  0  0  0  0  0  0
  -14.6795   17.2373   21.9625 C   0  0  0  0  0  0  0  0  0  0  0  0
  -13.5262   20.7272   13.4313 H   0  0  0  0  0  0  0  0  0  0  0  0
  -14.3907   16.2125   13.6899 H   0  0  0  0  0  0  0  0  0  0  0  0
  -12.1065   14.7215   15.5952 H   0  0  0  0  0  0  0  0  0  0  0  0
  -12.6679   13.3223   20.3871 H   0  0  0  0  0  0  0  0  0  0  0  0
  -11.9412   18.4721   11.8876 O   0  0  0  0  0  0  0  0  0  0  0  0
  -12.0486   18.9455   13.0395 C   0  0  0  0  0  0  0  0  0  0  0  0
  -11.2380   19.9270   13.4441 N   0  0  0  0  0  0  0  0  0  0  0  0
  -10.5589   20.2891   12.8301 H   0  0  0  0  0  0  0  0  0  0  0  0
  -11.3196   20.2883   14.3563 H   0  0  0  0  0  0  0  0  0  0  0  0
  -16.1580   17.6690   13.4857 N   0  0  0  0  0  0  0  0  0  0  0  0
  -16.7840   18.7429   12.6941 C   0  0  0  0  0  0  0  0  0  0  0  0
  -17.2163   16.6954   13.8006 C   0  0  0  0  0  0  0  0  0  0  0  0
  -15.2524   18.5088   22.1782 N   0  0  0  0  0  0  0  0  0  0  0  0
  -14.4180   19.2674   23.1061 C   0  0  0  0  0  0  0  0  0  0  0  0
  -16.6002   18.4636   22.7338 C   0  0  0  0  0  0  0  0  0  0  0  0
 29 30  2  0  0  0
 30 31  1  0  0  0
 30  1  1  0  0  0
  1  2  1  0  0  0
  1  4  2  0  0  0
  2  3  2  0  0  0
  2  8  1  0  0  0
  4  5  1  0  0  0
  4  6  1  0  0  0
  6 34  1  0  0  0
  6  7  1  0  0  0
 34 35  1  0  0  0
 34 36  1  0  0  0
  7  8  1  0  0  0
  7 14  1  0  0  0
  8  9  1  0  0  0
  8 10  1  0  0  0
 10 11  1  0  0  0
 10 12  2  0  0  0
 12 13  1  0  0  0
 12 15  1  0  0  0
 13 14  1  0  0  0
 13 19  1  0  0  0
 15 16  2  0  0  0
 15 17  1  0  0  0
 17 18  2  0  0  0
 17 20  1  0  0  0
 18 19  1  0  0  0
 18 24  1  0  0  0
 20 21  1  0  0  0
 20 22  2  0  0  0
 22 23  1  0  0  0
 23 24  2  0  0  0
 24 37  1  0  0  0
 37 38  1  0  0  0
 37 39  1  0  0  0
 31 32  1  0  0  0
 31 33  1  0  0  0
  5 25  1  0  0  0
  9 26  1  0  0  0
 11 27  1  0  0  0
 21 28  1  0  0  0
M  END
> <minimizedAffinity>
-8.87888

$$$$
2WQ5_MIY_A_1120


 39 42  0  0  0  0  0  0  0  0999 V2000
  -13.6033   17.0785   16.1962 C   0  0  0  0  0  0  0  0  0  0  0  0
  -14.3379   15.9294   15.7041 C   0  0  0  0  0  0  0  0  0  0  0  0
  -13.8968   14.7968   15.7439 O   0  0  0  0  0  0  0  0  0  0  0  0
  -14.2758   17.9037   16.9757 C   0  0  0  0  0  0  0  0  0  0  0  0
  -13.7164   18.1805   18.1450 O   0  0  0  0  0  0  0  0  0  0  0  0
  -15.7580   18.1472   16.7686 C   0  0  0  0  0  0  0  0  0  0  0  0
  -16.5121   16.9274   16.2319 C   0  0  0  0  0  0  0  0  0  0  0  0
  -15.7069   16.2091   15.1705 C   0  0  0  0  0  0  0  0  0  0  0  0
  -15.6056   17.0899   14.0586 O   0  0  0  0  0  0  0  0  0  0  0  0
  -16.3473   14.9229   14.7338 C   0  0  0  0  0  0  0  0  0  0  0  0
  -15.8967   14.3927   13.5988 O   0  0  0  0  0  0  0  0  0  0  0  0
  -17.3051   14.3297   15.4556 C   0  0  0  0  0  0  0  0  0  0  0  0
  -17.8486   14.9056   16.7433 C   0  0  0  0  0  0  0  0  0  0  0  0
  -16.9254   15.9663   17.3394 C   0  0  0  0  0  0  0  0  0  0  0  0
  -17.8788   13.0830   14.9698 C   0  0  0  0  0  0  0  0  0  0  0  0
  -17.4654   12.5860   13.8734 O   0  0  0  0  0  0  0  0  0  0  0  0
  -18.8995   12.3979   15.8239 C   0  0  0  0  0  0  0  0  0  0  0  0
  -19.0199   12.7484   17.1670 C   0  0  0  0  0  0  0  0  0  0  0  0
  -18.0883   13.7970   17.7527 C   0  0  0  0  0  0  0  0  0  0  0  0
  -19.7475   11.4457   15.2722 C   0  0  0  0  0  0  0  0  0  0  0  0
  -19.6353   11.1069   13.9895 O   0  0  0  0  0  0  0  0  0  0  0  0
  -20.7071   10.8278   16.0794 C   0  0  0  0  0  0  0  0  0  0  0  0
  -20.8182   11.1633   17.4248 C   0  0  0  0  0  0  0  0  0  0  0  0
  -19.9744   12.1360   17.9790 C   0  0  0  0  0  0  0  0  0  0  0  0
  -12.8005   18.0302   18.2735 H   0  0  0  0  0  0  0  0  0  0  0  0
  -15.1919   17.9206   14.3408 H   0  0  0  0  0  0  0  0  0  0  0  0
  -15.2251   14.8287   13.1122 H   0  0  0  0  0  0  0  0  0  0  0  0
  -18.9916   11.5220   13.4499 H   0  0  0  0  0  0  0  0  0  0  0  0
  -11.5201   16.8704   17.2544 O   0  0  0  0  0  0  0  0  0  0  0  0
  -12.1442   17.1360   16.2045 C   0  0  0  0  0  0  0  0  0  0  0  0
  -11.4842   17.4862   15.0972 N   0  0  0  0  0  0  0  0  0  0  0  0
  -10.5005   17.5252   15.1021 H   0  0  0  0  0  0  0  0  0  0  0  0
  -11.9815   17.7053   14.2763 H   0  0  0  0  0  0  0  0  0  0  0  0
  -15.8166   19.4113   15.9761 N   0  0  0  0  0  0  0  0  0  0  0  0
  -15.4839   20.5394   16.8641 C   0  0  0  0  0  0  0  0  0  0  0  0
  -17.0934   19.7421   15.3222 C   0  0  0  0  0  0  0  0  0  0  0  0
  -20.0591   12.4997   19.3399 N   0  0  0  0  0  0  0  0  0  0  0  0
  -19.9161   11.3079   20.1718 C   0  0  0  0  0  0  0  0  0  0  0  0
  -21.3171   13.1422   19.7032 C   0  0  0  0  0  0  0  0  0  0  0  0
 29 30  2  0  0  0
 30 31  1  0  0  0
 30  1  1  0  0  0
  1  2  1  0  0  0
  1  4  2  0  0  0
  2  3  2  0  0  0
  2  8  1  0  0  0
  4  5  1  0  0  0
  4  6  1  0  0  0
  6 34  1  0  0  0
  6  7  1  0  0  0
 34 35  1  0  0  0
 34 36  1  0  0  0
  7  8  1  0  0  0
  7 14  1  0  0  0
  8  9  1  0  0  0
  8 10  1  0  0  0
 10 11  1  0  0  0
 10 12  2  0  0  0
 12 13  1  0  0  0
 12 15  1  0  0  0
 13 14  1  0  0  0
 13 19  1  0  0  0
 15 16  2  0  0  0
 15 17  1  0  0  0
 17 18  2  0  0  0
 17 20  1  0  0  0
 18 19  1  0  0  0
 18 24  1  0  0  0
 20 21  1  0  0  0
 20 22  2  0  0  0
 22 23  1  0  0  0
 23 24  2  0  0  0
 24 37  1  0  0  0
 37 38  1  0  0  0
 37 39  1  0  0  0
 31 32  1  0  0  0
 31 33  1  0  0  0
  5 25  1  0  0  0
  9 26  1  0  0  0
 11 27  1  0  0  0
 21 28  1  0  0  0
M  END
> <minimizedAffinity>
-7.74179

$$$$
2WQ5_MIY_A_1120


 39 42  0  0  0  0  0  0  0  0999 V2000
  -17.2362   18.3133   13.6753 C   0  0  0  0  0  0  0  0  0  0  0  0
  -18.4111   18.7472   14.4059 C   0  0  0  0  0  0  0  0  0  0  0  0
  -19.5385   18.6528   13.9598 O   0  0  0  0  0  0  0  0  0  0  0  0
  -16.3767   17.5738   14.3500 C   0  0  0  0  0  0  0  0  0  0  0  0
  -16.0406   16.4206   13.7897 O   0  0  0  0  0  0  0  0  0  0  0  0
  -16.1498   17.7896   15.8336 C   0  0  0  0  0  0  0  0  0  0  0  0
  -17.3976   18.2644   16.5834 C   0  0  0  0  0  0  0  0  0  0  0  0
  -18.1636   19.2910   15.7770 C   0  0  0  0  0  0  0  0  0  0  0  0
  -17.3379   20.4449   15.6815 O   0  0  0  0  0  0  0  0  0  0  0  0
  -19.4724   19.6630   16.4127 C   0  0  0  0  0  0  0  0  0  0  0  0
  -20.0556   20.7716   15.9619 O   0  0  0  0  0  0  0  0  0  0  0  0
  -20.0335   18.9111   17.3666 C   0  0  0  0  0  0  0  0  0  0  0  0
  -19.3976   17.6520   17.9102 C   0  0  0  0  0  0  0  0  0  0  0  0
  -18.3052   17.1104   16.9906 C   0  0  0  0  0  0  0  0  0  0  0  0
  -21.3049   19.3342   17.9358 C   0  0  0  0  0  0  0  0  0  0  0  0
  -21.8533   20.4058   17.5222 O   0  0  0  0  0  0  0  0  0  0  0  0
  -21.9517   18.4455   18.9521 C   0  0  0  0  0  0  0  0  0  0  0  0
  -21.5364   17.1209   19.0716 C   0  0  0  0  0  0  0  0  0  0  0  0
  -20.4564   16.5892   18.1433 C   0  0  0  0  0  0  0  0  0  0  0  0
  -22.9333   18.9483   19.7968 C   0  0  0  0  0  0  0  0  0  0  0  0
  -23.3341   20.2130   19.6855 O   0  0  0  0  0  0  0  0  0  0  0  0
  -23.5150   18.1099   20.7524 C   0  0  0  0  0  0  0  0  0  0  0  0
  -23.1146   16.7823   20.8625 C   0  0  0  0  0  0  0  0  0  0  0  0
  -22.1123   16.2781   20.0219 C   0  0  0  0  0  0  0  0  0  0  0  0
  -16.1806   16.2867   12.8730 H   0  0  0  0  0  0  0  0  0  0  0  0
  -16.4926   20.2045   15.2709 H   0  0  0  0  0  0  0  0  0  0  0  0
  -19.6411   21.2803   15.2930 H   0  0  0  0  0  0  0  0  0  0  0  0
  -22.9431   20.7737   19.0446 H   0  0  0  0  0  0  0  0  0  0  0  0
  -17.4141   17.2578   11.5880 O   0  0  0  0  0  0  0  0  0  0  0  0
  -17.1722   18.3108   12.2166 C   0  0  0  0  0  0  0  0  0  0  0  0
  -16.8412   19.4269   11.5615 N   0  0  0  0  0  0  0  0  0  0  0  0
  -16.7979   19.4259   10.5779 H   0  0  0  0  0  0  0  0  0  0  0  0
  -16.6407   20.2505   12.0622 H   0  0  0  0  0  0  0  0  0  0  0  0
  -14.9263   18.6429   15.8991 N   0  0  0  0  0  0  0  0  0  0  0  0
  -13.7512   17.8042   15.6032 C   0  0  0  0  0  0  0  0  0  0  0  0
  -14.6507   19.3352   17.1687 C   0  0  0  0  0  0  0  0  0  0  0  0
  -21.6829   14.9364   20.1057 N   0  0  0  0  0  0  0  0  0  0  0  0
  -22.8233   14.0469   19.9033 C   0  0  0  0  0  0  0  0  0  0  0  0
  -21.0748   14.5889   21.3851 C   0  0  0  0  0  0  0  0  0  0  0  0
 29 30  2  0  0  0
 30 31  1  0  0  0
 30  1  1  0  0  0
  1  2  1  0  0  0
  1  4  2  0  0  0
  2  3  2  0  0  0
  2  8  1  0  0  0
  4  5  1  0  0  0
  4  6  1  0  0  0
  6 34  1  0  0  0
  6  7  1  0  0  0
 34 35  1  0  0  0
 34 36  1  0  0  0
  7  8  1  0  0  0
  7 14  1  0  0  0
  8  9  1  0  0  0
  8 10  1  0  0  0
 10 11  1  0  0  0
 10 12  2  0  0  0
 12 13  1  0  0  0
 12 15  1  0  0  0
 13 14  1  0  0  0
 13 19  1  0  0  0
 15 16  2  0  0  0
 15 17  1  0  0  0
 17 18  2  0  0  0
 17 20  1  0  0  0
 18 19  1  0  0  0
 18 24  1  0  0  0
 20 21  1  0  0  0
 20 22  2  0  0  0
 22 23  1  0  0  0
 23 24  2  0  0  0
 24 37  1  0  0  0
 37 38  1  0  0  0
 37 39  1  0  0  0
 31 32  1  0  0  0
 31 33  1  0  0  0
  5 25  1  0  0  0
  9 26  1  0  0  0
 11 27  1  0  0  0
 21 28  1  0  0  0
M  END
> <minimizedAffinity>
-7.68900

$$$$
2WQ5_MIY_A_1120


 39 42  0  0  0  0  0  0  0  0999 V2000
  -13.7491   13.2171   16.2680 C   0  0  0  0  0  0  0  0  0  0  0  0
  -14.9427   13.4858   15.4899 C   0  0  0  0  0  0  0  0  0  0  0  0
  -15.7693   12.6320   15.2321 O   0  0  0  0  0  0  0  0  0  0  0  0
  -13.4846   14.0746   17.2352 C   0  0  0  0  0  0  0  0  0  0  0  0
  -13.2935   13.5503   18.4374 O   0  0  0  0  0  0  0  0  0  0  0  0
  -13.8258   15.5455   17.0959 C   0  0  0  0  0  0  0  0  0  0  0  0
  -15.0789   15.8087   16.2562 C   0  0  0  0  0  0  0  0  0  0  0  0
  -15.1273   14.9019   15.0454 C   0  0  0  0  0  0  0  0  0  0  0  0
  -14.0430   15.2741   14.2038 O   0  0  0  0  0  0  0  0  0  0  0  0
  -16.4165   15.0248   14.2850 C   0  0  0  0  0  0  0  0  0  0  0  0
  -16.4264   14.5237   13.0516 O   0  0  0  0  0  0  0  0  0  0  0  0
  -17.5036   15.5889   14.8237 C   0  0  0  0  0  0  0  0  0  0  0  0
  -17.5280   16.1769   16.2161 C   0  0  0  0  0  0  0  0  0  0  0  0
  -16.3603   15.6901   17.0717 C   0  0  0  0  0  0  0  0  0  0  0  0
  -18.7188   15.6716   14.0264 C   0  0  0  0  0  0  0  0  0  0  0  0
  -18.7241   15.2135   12.8389 O   0  0  0  0  0  0  0  0  0  0  0  0
  -19.9444   16.2431   14.6685 C   0  0  0  0  0  0  0  0  0  0  0  0
  -20.0079   16.3500   16.0562 C   0  0  0  0  0  0  0  0  0  0  0  0
  -18.8448   15.8519   16.8986 C   0  0  0  0  0  0  0  0  0  0  0  0
  -20.9965   16.6992   13.8843 C   0  0  0  0  0  0  0  0  0  0  0  0
  -20.9408   16.5981   12.5580 O   0  0  0  0  0  0  0  0  0  0  0  0
  -22.1267   17.2464   14.4989 C   0  0  0  0  0  0  0  0  0  0  0  0
  -22.2002   17.3386   15.8850 C   0  0  0  0  0  0  0  0  0  0  0  0
  -21.1322   16.8940   16.6769 C   0  0  0  0  0  0  0  0  0  0  0  0
  -13.0826   12.6415   18.5240 H   0  0  0  0  0  0  0  0  0  0  0  0
  -13.2104   15.1947   14.6950 H   0  0  0  0  0  0  0  0  0  0  0  0
  -15.6512   14.1339   12.6980 H   0  0  0  0  0  0  0  0  0  0  0  0
  -20.1825   16.2311   12.1476 H   0  0  0  0  0  0  0  0  0  0  0  0
  -11.8840   11.8126   16.0415 O   0  0  0  0  0  0  0  0  0  0  0  0
  -13.1045   11.9072   16.2943 C   0  0  0  0  0  0  0  0  0  0  0  0
  -13.8226   10.8158   16.5726 N   0  0  0  0  0  0  0  0  0  0  0  0
  -13.3886    9.9323   16.5906 H   0  0  0  0  0  0  0  0  0  0  0  0
  -14.7859   10.8949   16.7598 H   0  0  0  0  0  0  0  0  0  0  0  0
  -12.5461   16.1813   16.6628 N   0  0  0  0  0  0  0  0  0  0  0  0
  -11.7021   16.3974   17.8513 C   0  0  0  0  0  0  0  0  0  0  0  0
  -12.6351   17.4713   15.9593 C   0  0  0  0  0  0  0  0  0  0  0  0
  -21.1738   16.9717   18.0854 N   0  0  0  0  0  0  0  0  0  0  0  0
  -22.4898   16.5496   18.5573 C   0  0  0  0  0  0  0  0  0  0  0  0
  -20.9251   18.3091   18.6115 C   0  0  0  0  0  0  0  0  0  0  0  0
 29 30  2  0  0  0
 30 31  1  0  0  0
 30  1  1  0  0  0
  1  2  1  0  0  0
  1  4  2  0  0  0
  2  3  2  0  0  0
  2  8  1  0  0  0
  4  5  1  0  0  0
  4  6  1  0  0  0
  6 34  1  0  0  0
  6  7  1  0  0  0
 34 35  1  0  0  0
 34 36  1  0  0  0
  7  8  1  0  0  0
  7 14  1  0  0  0
  8  9  1  0  0  0
  8 10  1  0  0  0
 10 11  1  0  0  0
 10 12  2  0  0  0
 12 13  1  0  0  0
 12 15  1  0  0  0
 13 14  1  0  0  0
 13 19  1  0  0  0
 15 16  2  0  0  0
 15 17  1  0  0  0
 17 18  2  0  0  0
 17 20  1  0  0  0
 18 19  1  0  0  0
 18 24  1  0  0  0
 20 21  1  0  0  0
 20 22  2  0  0  0
 22 23  1  0  0  0
 23 24  2  0  0  0
 24 37  1  0  0  0
 37 38  1  0  0  0
 37 39  1  0  0  0
 31 32  1  0  0  0
 31 33  1  0  0  0
  5 25  1  0  0  0
  9 26  1  0  0  0
 11 27  1  0  0  0
 21 28  1  0  0  0
M  END
> <minimizedAffinity>
-7.62810

$$$$
2WQ5_MIY_A_1120


 39 42  0  0  0  0  0  0  0  0999 V2000
  -21.1452   18.0681   13.7782 C   0  0  0  0  0  0  0  0  0  0  0  0
  -20.8649   18.8131   14.9901 C   0  0  0  0  0  0  0  0  0  0  0  0
  -21.7153   19.0657   15.8219 O   0  0  0  0  0  0  0  0  0  0  0  0
  -20.3038   17.0930   13.4917 C   0  0  0  0  0  0  0  0  0  0  0  0
  -20.8482   15.9048   13.2717 O   0  0  0  0  0  0  0  0  0  0  0  0
  -18.8313   17.1992   13.8374 C   0  0  0  0  0  0  0  0  0  0  0  0
  -18.5554   18.0044   15.1103 C   0  0  0  0  0  0  0  0  0  0  0  0
  -19.4417   19.2290   15.1865 C   0  0  0  0  0  0  0  0  0  0  0  0
  -19.0538   20.0896   14.1228 O   0  0  0  0  0  0  0  0  0  0  0  0
  -19.3076   19.9565   16.4934 C   0  0  0  0  0  0  0  0  0  0  0  0
  -19.7878   21.1977   16.5321 O   0  0  0  0  0  0  0  0  0  0  0  0
  -18.7541   19.3828   17.5680 C   0  0  0  0  0  0  0  0  0  0  0  0
  -18.1899   17.9804   17.5600 C   0  0  0  0  0  0  0  0  0  0  0  0
  -18.6896   17.1610   16.3719 C   0  0  0  0  0  0  0  0  0  0  0  0
  -18.6596   20.1495   18.8019 C   0  0  0  0  0  0  0  0  0  0  0  0
  -19.0975   21.3442   18.8348 O   0  0  0  0  0  0  0  0  0  0  0  0
  -18.1007   19.4690   20.0124 C   0  0  0  0  0  0  0  0  0  0  0  0
  -18.0174   18.0786   20.0432 C   0  0  0  0  0  0  0  0  0  0  0  0
  -18.5282   17.2725   18.8599 C   0  0  0  0  0  0  0  0  0  0  0  0
  -17.6327   20.2203   21.0832 C   0  0  0  0  0  0  0  0  0  0  0  0
  -17.7113   21.5491   21.0587 O   0  0  0  0  0  0  0  0  0  0  0  0
  -17.0975   19.5699   22.1990 C   0  0  0  0  0  0  0  0  0  0  0  0
  -17.0289   18.1812   22.2398 C   0  0  0  0  0  0  0  0  0  0  0  0
  -17.4854   17.4224   21.1529 C   0  0  0  0  0  0  0  0  0  0  0  0
  -21.7581   15.8386   13.0580 H   0  0  0  0  0  0  0  0  0  0  0  0
  -19.1404   19.6196   13.2787 H   0  0  0  0  0  0  0  0  0  0  0  0
  -20.1705   21.5760   15.7651 H   0  0  0  0  0  0  0  0  0  0  0  0
  -18.0702   21.9835   20.3101 H   0  0  0  0  0  0  0  0  0  0  0  0
  -22.5455   18.3829   11.9228 O   0  0  0  0  0  0  0  0  0  0  0  0
  -22.4545   18.0793   13.1319 C   0  0  0  0  0  0  0  0  0  0  0  0
  -23.5490   17.7807   13.8371 N   0  0  0  0  0  0  0  0  0  0  0  0
  -24.4321   17.7881   13.4019 H   0  0  0  0  0  0  0  0  0  0  0  0
  -23.4726   17.5534   14.7919 H   0  0  0  0  0  0  0  0  0  0  0  0
  -18.1865   17.6516   12.5689 N   0  0  0  0  0  0  0  0  0  0  0  0
  -17.9071   16.4690   11.7352 C   0  0  0  0  0  0  0  0  0  0  0  0
  -16.9268   18.4051   12.6809 C   0  0  0  0  0  0  0  0  0  0  0  0
  -17.4316   16.0122   21.1613 N   0  0  0  0  0  0  0  0  0  0  0  0
  -17.9364   15.5136   22.4377 C   0  0  0  0  0  0  0  0  0  0  0  0
  -16.0902   15.4704   20.9759 C   0  0  0  0  0  0  0  0  0  0  0  0
 29 30  2  0  0  0
 30 31  1  0  0  0
 30  1  1  0  0  0
  1  2  1  0  0  0
  1  4  2  0  0  0
  2  3  2  0  0  0
  2  8  1  0  0  0
  4  5  1  0  0  0
  4  6  1  0  0  0
  6 34  1  0  0  0
  6  7  1  0  0  0
 34 35  1  0  0  0
 34 36  1  0  0  0
  7  8  1  0  0  0
  7 14  1  0  0  0
  8  9  1  0  0  0
  8 10  1  0  0  0
 10 11  1  0  0  0
 10 12  2  0  0  0
 12 13  1  0  0  0
 12 15  1  0  0  0
 13 14  1  0  0  0
 13 19  1  0  0  0
 15 16  2  0  0  0
 15 17  1  0  0  0
 17 18  2  0  0  0
 17 20  1  0  0  0
 18 19  1  0  0  0
 18 24  1  0  0  0
 20 21  1  0  0  0
 20 22  2  0  0  0
 22 23  1  0  0  0
 23 24  2  0  0  0
 24 37  1  0  0  0
 37 38  1  0  0  0
 37 39  1  0  0  0
 31 32  1  0  0  0
 31 33  1  0  0  0
  5 25  1  0  0  0
  9 26  1  0  0  0
 11 27  1  0  0  0
 21 28  1  0  0  0
M  END
> <minimizedAffinity>
-7.48219

$$$$
2WQ5_MIY_A_1120


 39 42  0  0  0  0  0  0  0  0999 V2000
  -12.7040   17.9440   15.3232 C   0  0  0  0  0  0  0  0  0  0  0  0
  -13.8400   18.7433   15.7388 C   0  0  0  0  0  0  0  0  0  0  0  0
  -14.0747   19.8456   15.2819 O   0  0  0  0  0  0  0  0  0  0  0  0
  -12.9596   16.6818   15.0362 C   0  0  0  0  0  0  0  0  0  0  0  0
  -12.5407   16.2614   13.8511 O   0  0  0  0  0  0  0  0  0  0  0  0
  -14.0335   15.9096   15.7776 C   0  0  0  0  0  0  0  0  0  0  0  0
  -15.2156   16.7748   16.2232 C   0  0  0  0  0  0  0  0  0  0  0  0
  -14.7465   18.1144   16.7487 C   0  0  0  0  0  0  0  0  0  0  0  0
  -14.0146   17.8599   17.9412 O   0  0  0  0  0  0  0  0  0  0  0  0
  -15.8853   19.0461   17.0493 C   0  0  0  0  0  0  0  0  0  0  0  0
  -15.6008   20.1042   17.8055 O   0  0  0  0  0  0  0  0  0  0  0  0
  -17.1157   18.8366   16.5672 C   0  0  0  0  0  0  0  0  0  0  0  0
  -17.4789   17.6428   15.7138 C   0  0  0  0  0  0  0  0  0  0  0  0
  -16.2493   16.9593   15.1193 C   0  0  0  0  0  0  0  0  0  0  0  0
  -18.1700   19.7838   16.8998 C   0  0  0  0  0  0  0  0  0  0  0  0
  -17.9054   20.7840   17.6413 O   0  0  0  0  0  0  0  0  0  0  0  0
  -19.5232   19.5717   16.2959 C   0  0  0  0  0  0  0  0  0  0  0  0
  -19.6613   18.7269   15.1966 C   0  0  0  0  0  0  0  0  0  0  0  0
  -18.4291   18.0608   14.6059 C   0  0  0  0  0  0  0  0  0  0  0  0
  -20.6402   20.1831   16.8512 C   0  0  0  0  0  0  0  0  0  0  0  0
  -20.5129   20.9921   17.9009 O   0  0  0  0  0  0  0  0  0  0  0  0
  -21.8994   19.9608   16.2859 C   0  0  0  0  0  0  0  0  0  0  0  0
  -22.0380   19.1314   15.1778 C   0  0  0  0  0  0  0  0  0  0  0  0
  -20.9139   18.5005   14.6266 C   0  0  0  0  0  0  0  0  0  0  0  0
  -11.8771   16.7382   13.3925 H   0  0  0  0  0  0  0  0  0  0  0  0
  -13.2791   17.2582   17.7469 H   0  0  0  0  0  0  0  0  0  0  0  0
  -14.7307   20.2274   18.1306 H   0  0  0  0  0  0  0  0  0  0  0  0
  -19.6683   21.1401   18.2786 H   0  0  0  0  0  0  0  0  0  0  0  0
  -10.4336   18.4852   15.5579 O   0  0  0  0  0  0  0  0  0  0  0  0
  -11.4581   18.5355   14.8435 C   0  0  0  0  0  0  0  0  0  0  0  0
  -11.4217   19.1399   13.6529 N   0  0  0  0  0  0  0  0  0  0  0  0
  -10.5820   19.5389   13.3289 H   0  0  0  0  0  0  0  0  0  0  0  0
  -12.2345   19.1864   13.0994 H   0  0  0  0  0  0  0  0  0  0  0  0
  -13.2861   15.1519   16.8248 N   0  0  0  0  0  0  0  0  0  0  0  0
  -12.7612   13.9125   16.2246 C   0  0  0  0  0  0  0  0  0  0  0  0
  -14.0259   14.7621   18.0363 C   0  0  0  0  0  0  0  0  0  0  0  0
  -21.0182   17.6539   13.5023 N   0  0  0  0  0  0  0  0  0  0  0  0
  -22.0887   18.1315   12.6313 C   0  0  0  0  0  0  0  0  0  0  0  0
  -21.3074   16.2633   13.8340 C   0  0  0  0  0  0  0  0  0  0  0  0
 29 30  2  0  0  0
 30 31  1  0  0  0
 30  1  1  0  0  0
  1  2  1  0  0  0
  1  4  2  0  0  0
  2  3  2  0  0  0
  2  8  1  0  0  0
  4  5  1  0  0  0
  4  6  1  0  0  0
  6 34  1  0  0  0
  6  7  1  0  0  0
 34 35  1  0  0  0
 34 36  1  0  0  0
  7  8  1  0  0  0
  7 14  1  0  0  0
  8  9  1  0  0  0
  8 10  1  0  0  0
 10 11  1  0  0  0
 10 12  2  0  0  0
 12 13  1  0  0  0
 12 15  1  0  0  0
 13 14  1  0  0  0
 13 19  1  0  0  0
 15 16  2  0  0  0
 15 17  1  0  0  0
 17 18  2  0  0  0
 17 20  1  0  0  0
 18 19  1  0  0  0
 18 24  1  0  0  0
 20 21  1  0  0  0
 20 22  2  0  0  0
 22 23  1  0  0  0
 23 24  2  0  0  0
 24 37  1  0  0  0
 37 38  1  0  0  0
 37 39  1  0  0  0
 31 32  1  0  0  0
 31 33  1  0  0  0
  5 25  1  0  0  0
  9 26  1  0  0  0
 11 27  1  0  0  0
 21 28  1  0  0  0
M  END
> <minimizedAffinity>
-7.07675

$$$$
2WQ5_MIY_A_1120


 39 42  0  0  0  0  0  0  0  0999 V2000
  -15.2729   12.5001   15.0480 C   0  0  0  0  0  0  0  0  0  0  0  0
  -16.3752   13.2926   14.5390 C   0  0  0  0  0  0  0  0  0  0  0  0
  -17.3569   12.8004   14.0168 O   0  0  0  0  0  0  0  0  0  0  0  0
  -14.8496   12.8093   16.2588 C   0  0  0  0  0  0  0  0  0  0  0  0
  -14.7863   11.8068   17.1234 O   0  0  0  0  0  0  0  0  0  0  0  0
  -14.8781   14.2404   16.7592 C   0  0  0  0  0  0  0  0  0  0  0  0
  -16.0389   15.0652   16.1964 C   0  0  0  0  0  0  0  0  0  0  0  0
  -16.2579   14.7717   14.7278 C   0  0  0  0  0  0  0  0  0  0  0  0
  -15.1094   15.2430   14.0341 O   0  0  0  0  0  0  0  0  0  0  0  0
  -17.4840   15.4457   14.1823 C   0  0  0  0  0  0  0  0  0  0  0  0
  -17.5813   15.5147   12.8563 O   0  0  0  0  0  0  0  0  0  0  0  0
  -18.4381   15.9330   14.9838 C   0  0  0  0  0  0  0  0  0  0  0  0
  -18.3586   15.8816   16.4925 C   0  0  0  0  0  0  0  0  0  0  0  0
  -17.3276   14.8681   16.9847 C   0  0  0  0  0  0  0  0  0  0  0  0
  -19.5998   16.5723   14.3829 C   0  0  0  0  0  0  0  0  0  0  0  0
  -19.6842   16.6596   13.1159 O   0  0  0  0  0  0  0  0  0  0  0  0
  -20.6892   17.0499   15.2917 C   0  0  0  0  0  0  0  0  0  0  0  0
  -20.7471   16.5805   16.6023 C   0  0  0  0  0  0  0  0  0  0  0  0
  -19.7228   15.5632   17.0782 C   0  0  0  0  0  0  0  0  0  0  0  0
  -21.6143   17.9843   14.8434 C   0  0  0  0  0  0  0  0  0  0  0  0
  -21.5636   18.4348   13.5916 O   0  0  0  0  0  0  0  0  0  0  0  0
  -22.6151   18.4333   15.7101 C   0  0  0  0  0  0  0  0  0  0  0  0
  -22.6857   17.9535   17.0139 C   0  0  0  0  0  0  0  0  0  0  0  0
  -21.7428   17.0231   17.4729 C   0  0  0  0  0  0  0  0  0  0  0  0
  -14.7687   10.9223   16.8148 H   0  0  0  0  0  0  0  0  0  0  0  0
  -14.3175   14.8076   14.3865 H   0  0  0  0  0  0  0  0  0  0  0  0
  -16.8987   15.1656   12.3177 H   0  0  0  0  0  0  0  0  0  0  0  0
  -20.8922   18.1329   13.0119 H   0  0  0  0  0  0  0  0  0  0  0  0
  -13.9543   10.5615   14.9732 O   0  0  0  0  0  0  0  0  0  0  0  0
  -14.9129   11.2004   14.4882 C   0  0  0  0  0  0  0  0  0  0  0  0
  -15.5977   10.7073   13.4527 N   0  0  0  0  0  0  0  0  0  0  0  0
  -15.3555    9.8311   13.0748 H   0  0  0  0  0  0  0  0  0  0  0  0
  -16.3446   11.2201   13.0675 H   0  0  0  0  0  0  0  0  0  0  0  0
  -13.4892   14.7386   16.5303 N   0  0  0  0  0  0  0  0  0  0  0  0
  -12.5879   14.0781   17.4911 C   0  0  0  0  0  0  0  0  0  0  0  0
  -13.2607   16.1876   16.6537 C   0  0  0  0  0  0  0  0  0  0  0  0
  -21.7856   16.5149   18.7887 N   0  0  0  0  0  0  0  0  0  0  0  0
  -22.9950   15.7149   18.9622 C   0  0  0  0  0  0  0  0  0  0  0  0
  -21.7871   17.5453   19.8210 C   0  0  0  0  0  0  0  0  0  0  0  0
 29 30  2  0  0  0
 30 31  1  0  0  0
 30  1  1  0  0  0
  1  2  1  0  0  0
  1  4  2  0  0  0
  2  3  2  0  0  0
  2  8  1  0  0  0
  4  5  1  0  0  0
  4  6  1  0  0  0
  6 34  1  0  0  0
  6  7  1  0  0  0
 34 35  1  0  0  0
 34 36  1  0  0  0
  7  8  1  0  0  0
  7 14  1  0  0  0
  8  9  1  0  0  0
  8 10  1  0  0  0
 10 11  1  0  0  0
 10 12  2  0  0  0
 12 13  1  0  0  0
 12 15  1  0  0  0
 13 14  1  0  0  0
 13 19  1  0  0  0
 15 16  2  0  0  0
 15 17  1  0  0  0
 17 18  2  0  0  0
 17 20  1  0  0  0
 18 19  1  0  0  0
 18 24  1  0  0  0
 20 21  1  0  0  0
 20 22  2  0  0  0
 22 23  1  0  0  0
 23 24  2  0  0  0
 24 37  1  0  0  0
 37 38  1  0  0  0
 37 39  1  0  0  0
 31 32  1  0  0  0
 31 33  1  0  0  0
  5 25  1  0  0  0
  9 26  1  0  0  0
 11 27  1  0  0  0
 21 28  1  0  0  0
M  END
> <minimizedAffinity>
-7.06484

$$$$
2WQ5_MIY_A_1120


 39 42  0  0  0  0  0  0  0  0999 V2000
  -13.0692   17.1975   15.5412 C   0  0  0  0  0  0  0  0  0  0  0  0
  -13.8781   18.1831   16.2314 C   0  0  0  0  0  0  0  0  0  0  0  0
  -14.1026   19.2886   15.7772 O   0  0  0  0  0  0  0  0  0  0  0  0
  -13.5749   15.9808   15.4723 C   0  0  0  0  0  0  0  0  0  0  0  0
  -13.6434   15.4503   14.2596 O   0  0  0  0  0  0  0  0  0  0  0  0
  -14.4276   15.4199   16.5936 C   0  0  0  0  0  0  0  0  0  0  0  0
  -15.2604   16.4791   17.3210 C   0  0  0  0  0  0  0  0  0  0  0  0
  -14.4646   17.7484   17.5368 C   0  0  0  0  0  0  0  0  0  0  0  0
  -13.4133   17.4312   18.4405 O   0  0  0  0  0  0  0  0  0  0  0  0
  -15.2972   18.8602   18.1076 C   0  0  0  0  0  0  0  0  0  0  0  0
  -14.6331   19.8906   18.6269 O   0  0  0  0  0  0  0  0  0  0  0  0
  -16.6345   18.8281   18.0783 C   0  0  0  0  0  0  0  0  0  0  0  0
  -17.4231   17.6723   17.5061 C   0  0  0  0  0  0  0  0  0  0  0  0
  -16.5721   16.7787   16.6063 C   0  0  0  0  0  0  0  0  0  0  0  0
  -17.3754   19.9433   18.6500 C   0  0  0  0  0  0  0  0  0  0  0  0
  -16.7427   20.9191   19.1674 O   0  0  0  0  0  0  0  0  0  0  0  0
  -18.8687   19.9230   18.5469 C   0  0  0  0  0  0  0  0  0  0  0  0
  -19.4840   19.0656   17.6373 C   0  0  0  0  0  0  0  0  0  0  0  0
  -18.6270   18.1889   16.7386 C   0  0  0  0  0  0  0  0  0  0  0  0
  -19.6379   20.7262   19.3795 C   0  0  0  0  0  0  0  0  0  0  0  0
  -19.0543   21.5479   20.2494 O   0  0  0  0  0  0  0  0  0  0  0  0
  -21.0319   20.6825   19.2828 C   0  0  0  0  0  0  0  0  0  0  0  0
  -21.6486   19.8400   18.3636 C   0  0  0  0  0  0  0  0  0  0  0  0
  -20.8740   19.0167   17.5343 C   0  0  0  0  0  0  0  0  0  0  0  0
  -13.1166   15.7965   13.5663 H   0  0  0  0  0  0  0  0  0  0  0  0
  -12.8756   16.7130   18.0717 H   0  0  0  0  0  0  0  0  0  0  0  0
  -13.6961   19.8880   18.6349 H   0  0  0  0  0  0  0  0  0  0  0  0
  -18.1199   21.5759   20.3130 H   0  0  0  0  0  0  0  0  0  0  0  0
  -12.1978   17.5569   13.3932 O   0  0  0  0  0  0  0  0  0  0  0  0
  -11.9919   17.5638   14.6260 C   0  0  0  0  0  0  0  0  0  0  0  0
  -10.7892   17.8891   15.1077 N   0  0  0  0  0  0  0  0  0  0  0  0
  -10.0625   18.1362   14.4912 H   0  0  0  0  0  0  0  0  0  0  0  0
  -10.6296   17.8818   16.0791 H   0  0  0  0  0  0  0  0  0  0  0  0
  -13.4791   14.5978   17.4022 N   0  0  0  0  0  0  0  0  0  0  0  0
  -12.9805   13.4934   16.5636 C   0  0  0  0  0  0  0  0  0  0  0  0
  -13.9930   13.9959   18.6435 C   0  0  0  0  0  0  0  0  0  0  0  0
  -21.4666   18.1511   16.5903 N   0  0  0  0  0  0  0  0  0  0  0  0
  -22.0744   18.9394   15.5218 C   0  0  0  0  0  0  0  0  0  0  0  0
  -22.5036   17.2897   17.1470 C   0  0  0  0  0  0  0  0  0  0  0  0
 29 30  2  0  0  0
 30 31  1  0  0  0
 30  1  1  0  0  0
  1  2  1  0  0  0
  1  4  2  0  0  0
  2  3  2  0  0  0
  2  8  1  0  0  0
  4  5  1  0  0  0
  4  6  1  0  0  0
  6 34  1  0  0  0
  6  7  1  0  0  0
 34 35  1  0  0  0
 34 36  1  0  0  0
  7  8  1  0  0  0
  7 14  1  0  0  0
  8  9  1  0  0  0
  8 10  1  0  0  0
 10 11  1  0  0  0
 10 12  2  0  0  0
 12 13  1  0  0  0
 12 15  1  0  0  0
 13 14  1  0  0  0
 13 19  1  0  0  0
 15 16  2  0  0  0
 15 17  1  0  0  0
 17 18  2  0  0  0
 17 20  1  0  0  0
 18 19  1  0  0  0
 18 24  1  0  0  0
 20 21  1  0  0  0
 20 22  2  0  0  0
 22 23  1  0  0  0
 23 24  2  0  0  0
 24 37  1  0  0  0
 37 38  1  0  0  0
 37 39  1  0  0  0
 31 32  1  0  0  0
 31 33  1  0  0  0
  5 25  1  0  0  0
  9 26  1  0  0  0
 11 27  1  0  0  0
 21 28  1  0  0  0
M  END
> <minimizedAffinity>
-6.98061

$$$$
2WQ5_MIY_A_1120


 39 42  0  0  0  0  0  0  0  0999 V2000
  -15.8118   13.2976   16.1009 C   0  0  0  0  0  0  0  0  0  0  0  0
  -17.0061   13.8089   15.4572 C   0  0  0  0  0  0  0  0  0  0  0  0
  -18.0729   13.2258   15.4855 O   0  0  0  0  0  0  0  0  0  0  0  0
  -15.1386   14.1600   16.8384 C   0  0  0  0  0  0  0  0  0  0  0  0
  -14.8790   13.7800   18.0813 O   0  0  0  0  0  0  0  0  0  0  0  0
  -15.0719   15.6283   16.4657 C   0  0  0  0  0  0  0  0  0  0  0  0
  -16.3354   16.1441   15.7715 C   0  0  0  0  0  0  0  0  0  0  0  0
  -16.8653   15.1336   14.7771 C   0  0  0  0  0  0  0  0  0  0  0  0
  -15.8998   15.0268   13.7385 O   0  0  0  0  0  0  0  0  0  0  0  0
  -18.1873   15.5399   14.1920 C   0  0  0  0  0  0  0  0  0  0  0  0
  -18.5711   14.8955   13.0920 O   0  0  0  0  0  0  0  0  0  0  0  0
  -18.9493   16.4843   14.7558 C   0  0  0  0  0  0  0  0  0  0  0  0
  -18.5434   17.2437   15.9982 C   0  0  0  0  0  0  0  0  0  0  0  0
  -17.4200   16.5466   16.7629 C   0  0  0  0  0  0  0  0  0  0  0  0
  -20.2201   16.8247   14.1324 C   0  0  0  0  0  0  0  0  0  0  0  0
  -20.5786   16.2258   13.0681 O   0  0  0  0  0  0  0  0  0  0  0  0
  -21.0907   17.8336   14.8143 C   0  0  0  0  0  0  0  0  0  0  0  0
  -20.8578   18.1523   16.1505 C   0  0  0  0  0  0  0  0  0  0  0  0
  -19.7444   17.4441   16.9052 C   0  0  0  0  0  0  0  0  0  0  0  0
  -22.1004   18.4763   14.1091 C   0  0  0  0  0  0  0  0  0  0  0  0
  -22.3273   18.1742   12.8324 O   0  0  0  0  0  0  0  0  0  0  0  0
  -22.8933   19.4289   14.7558 C   0  0  0  0  0  0  0  0  0  0  0  0
  -22.6742   19.7367   16.0946 C   0  0  0  0  0  0  0  0  0  0  0  0
  -21.6449   19.1011   16.8029 C   0  0  0  0  0  0  0  0  0  0  0  0
  -14.9201   12.8728   18.3121 H   0  0  0  0  0  0  0  0  0  0  0  0
  -15.0459   14.7643   14.1165 H   0  0  0  0  0  0  0  0  0  0  0  0
  -18.0184   14.2382   12.7172 H   0  0  0  0  0  0  0  0  0  0  0  0
  -21.7949   17.5355   12.4004 H   0  0  0  0  0  0  0  0  0  0  0  0
  -14.6521   11.3081   15.6542 O   0  0  0  0  0  0  0  0  0  0  0  0
  -15.5691   11.8703   16.2909 C   0  0  0  0  0  0  0  0  0  0  0  0
  -16.3357   11.1694   17.1308 N   0  0  0  0  0  0  0  0  0  0  0  0
  -16.1726   10.2071   17.2594 H   0  0  0  0  0  0  0  0  0  0  0  0
  -17.0638   11.6151   17.6211 H   0  0  0  0  0  0  0  0  0  0  0  0
  -13.7710   15.7672   15.7461 N   0  0  0  0  0  0  0  0  0  0  0  0
  -12.6763   15.6491   16.7256 C   0  0  0  0  0  0  0  0  0  0  0  0
  -13.5422   17.0124   14.9950 C   0  0  0  0  0  0  0  0  0  0  0  0
  -21.3956   19.3885   18.1619 N   0  0  0  0  0  0  0  0  0  0  0  0
  -22.6648   19.5634   18.8629 C   0  0  0  0  0  0  0  0  0  0  0  0
  -20.6042   20.5948   18.3758 C   0  0  0  0  0  0  0  0  0  0  0  0
 29 30  2  0  0  0
 30 31  1  0  0  0
 30  1  1  0  0  0
  1  2  1  0  0  0
  1  4  2  0  0  0
  2  3  2  0  0  0
  2  8  1  0  0  0
  4  5  1  0  0  0
  4  6  1  0  0  0
  6 34  1  0  0  0
  6  7  1  0  0  0
 34 35  1  0  0  0
 34 36  1  0  0  0
  7  8  1  0  0  0
  7 14  1  0  0  0
  8  9  1  0  0  0
  8 10  1  0  0  0
 10 11  1  0  0  0
 10 12  2  0  0  0
 12 13  1  0  0  0
 12 15  1  0  0  0
 13 14  1  0  0  0
 13 19  1  0  0  0
 15 16  2  0  0  0
 15 17  1  0  0  0
 17 18  2  0  0  0
 17 20  1  0  0  0
 18 19  1  0  0  0
 18 24  1  0  0  0
 20 21  1  0  0  0
 20 22  2  0  0  0
 22 23  1  0  0  0
 23 24  2  0  0  0
 24 37  1  0  0  0
 37 38  1  0  0  0
 37 39  1  0  0  0
 31 32  1  0  0  0
 31 33  1  0  0  0
  5 25  1  0  0  0
  9 26  1  0  0  0
 11 27  1  0  0  0
 21 28  1  0  0  0
M  END
> <minimizedAffinity>
-6.74057

$$$$
2WQ5_MIY_A_1120


 39 42  0  0  0  0  0  0  0  0999 V2000
  -21.1144   18.3824   15.7720 C   0  0  0  0  0  0  0  0  0  0  0  0
  -20.5701   19.0089   16.9609 C   0  0  0  0  0  0  0  0  0  0  0  0
  -21.1524   19.0179   18.0284 O   0  0  0  0  0  0  0  0  0  0  0  0
  -20.2908   17.5976   15.1037 C   0  0  0  0  0  0  0  0  0  0  0  0
  -20.7329   16.3733   14.8540 O   0  0  0  0  0  0  0  0  0  0  0  0
  -18.8059   17.8959   15.0328 C   0  0  0  0  0  0  0  0  0  0  0  0
  -18.2544   18.5732   16.2904 C   0  0  0  0  0  0  0  0  0  0  0  0
  -19.2133   19.6209   16.8136 C   0  0  0  0  0  0  0  0  0  0  0  0
  -19.2693   20.6561   15.8401 O   0  0  0  0  0  0  0  0  0  0  0  0
  -18.7765   20.1951   18.1307 C   0  0  0  0  0  0  0  0  0  0  0  0
  -19.3646   21.3288   18.5065 O   0  0  0  0  0  0  0  0  0  0  0  0
  -17.8605   19.5906   18.8961 C   0  0  0  0  0  0  0  0  0  0  0  0
  -17.1646   18.3087   18.4990 C   0  0  0  0  0  0  0  0  0  0  0  0
  -17.9005   17.5713   17.3822 C   0  0  0  0  0  0  0  0  0  0  0  0
  -17.4877   20.2059   20.1617 C   0  0  0  0  0  0  0  0  0  0  0  0
  -18.0322   21.3015   20.5125 O   0  0  0  0  0  0  0  0  0  0  0  0
  -16.5129   19.4811   21.0366 C   0  0  0  0  0  0  0  0  0  0  0  0
  -16.2616   18.1289   20.8137 C   0  0  0  0  0  0  0  0  0  0  0  0
  -17.0082   17.4021   19.7069 C   0  0  0  0  0  0  0  0  0  0  0  0
  -15.8344   20.1611   22.0402 C   0  0  0  0  0  0  0  0  0  0  0  0
  -16.0721   21.4529   22.2576 O   0  0  0  0  0  0  0  0  0  0  0  0
  -14.9143   19.4736   22.8372 C   0  0  0  0  0  0  0  0  0  0  0  0
  -14.6740   18.1195   22.6282 C   0  0  0  0  0  0  0  0  0  0  0  0
  -15.3457   17.4360   21.6049 C   0  0  0  0  0  0  0  0  0  0  0  0
  -21.6504   16.1885   14.8978 H   0  0  0  0  0  0  0  0  0  0  0  0
  -19.5514   20.2851   14.9895 H   0  0  0  0  0  0  0  0  0  0  0  0
  -20.0031   21.7317   17.9516 H   0  0  0  0  0  0  0  0  0  0  0  0
  -16.6892   21.9122   21.7225 H   0  0  0  0  0  0  0  0  0  0  0  0
  -23.1871   17.3199   16.0502 O   0  0  0  0  0  0  0  0  0  0  0  0
  -22.5498   18.2621   15.5321 C   0  0  0  0  0  0  0  0  0  0  0  0
  -23.1719   19.1480   14.7496 N   0  0  0  0  0  0  0  0  0  0  0  0
  -24.1396   19.0674   14.5875 H   0  0  0  0  0  0  0  0  0  0  0  0
  -22.6627   19.8816   14.3350 H   0  0  0  0  0  0  0  0  0  0  0  0
  -18.6329   18.5977   13.7262 N   0  0  0  0  0  0  0  0  0  0  0  0
  -18.7659   17.6103   12.6404 C   0  0  0  0  0  0  0  0  0  0  0  0
  -17.3650   19.3120   13.5039 C   0  0  0  0  0  0  0  0  0  0  0  0
  -15.1268   16.0624   21.3659 N   0  0  0  0  0  0  0  0  0  0  0  0
  -15.2508   15.3246   22.6201 C   0  0  0  0  0  0  0  0  0  0  0  0
  -13.8143   15.7614   20.8055 C   0  0  0  0  0  0  0  0  0  0  0  0
 29 30  2  0  0  0
 30 31  1  0  0  0
 30  1  1  0  0  0
  1  2  1  0  0  0
  1  4  2  0  0  0
  2  3  2  0  0  0
  2  8  1  0  0  0
  4  5  1  0  0  0
  4  6  1  0  0  0
  6 34  1  0  0  0
  6  7  1  0  0  0
 34 35  1  0  0  0
 34 36  1  0  0  0
  7  8  1  0  0  0
  7 14  1  0  0  0
  8  9  1  0  0  0
  8 10  1  0  0  0
 10 11  1  0  0  0
 10 12  2  0  0  0
 12 13  1  0  0  0
 12 15  1  0  0  0
 13 14  1  0  0  0
 13 19  1  0  0  0
 15 16  2  0  0  0
 15 17  1  0  0  0
 17 18  2  0  0  0
 17 20  1  0  0  0
 18 19  1  0  0  0
 18 24  1  0  0  0
 20 21  1  0  0  0
 20 22  2  0  0  0
 22 23  1  0  0  0
 23 24  2  0  0  0
 24 37  1  0  0  0
 37 38  1  0  0  0
 37 39  1  0  0  0
 31 32  1  0  0  0
 31 33  1  0  0  0
  5 25  1  0  0  0
  9 26  1  0  0  0
 11 27  1  0  0  0
 21 28  1  0  0  0
M  END
> <minimizedAffinity>
-6.70769

$$$$
