5YFS_RI2_A_401


 24 24  0  0  0  0  0  0  0  0999 V2000
  -33.1784  -14.2924   20.6364 C   0  0  0  0  0  0  0  0  0  0  0  0
  -34.1330  -15.3427   21.1456 C   0  0  0  0  0  0  0  0  0  0  0  0
  -34.5892  -15.0064   22.4600 O   0  0  0  0  0  0  0  0  0  0  0  0
  -33.1774  -16.5147   21.2434 C   0  0  0  0  0  0  0  0  0  0  0  0
  -33.5315  -17.5836   22.0497 O   0  0  0  0  0  0  0  0  0  0  0  0
  -31.9114  -15.8810   21.8398 C   0  0  0  0  0  0  0  0  0  0  0  0
  -31.9100  -14.5813   21.2796 O   0  0  0  0  0  0  0  0  0  0  0  0
  -33.8254  -14.8635   23.0406 H   0  0  0  0  0  0  0  0  0  0  0  0
  -33.6189  -17.2814   22.9673 H   0  0  0  0  0  0  0  0  0  0  0  0
  -33.5847  -12.9388   20.9317 O   0  0  0  0  0  0  0  0  0  0  0  0
  -32.8700  -11.6496   20.2189 P   0  0  0  0  0  0  0  0  0  0  0  0
  -31.3763  -11.6624   20.6686 O   0  0  0  0  0  0  0  0  0  0  0  0
  -32.9955  -11.7309   18.6550 O   0  0  0  0  0  0  0  0  0  0  0  0
  -33.6575  -10.4504   20.7853 O   0  0  0  0  0  0  0  0  0  0  0  0
  -30.9300  -12.4338   20.2858 H   0  0  0  0  0  0  0  0  0  0  0  0
  -34.5759  -10.4914   20.4759 H   0  0  0  0  0  0  0  0  0  0  0  0
  -30.6628  -16.6783   21.6177 C   0  0  0  0  0  0  0  0  0  0  0  0
  -30.4774  -17.0432   20.2698 O   0  0  0  0  0  0  0  0  0  0  0  0
  -29.1580  -17.7181   19.6630 P   0  0  0  0  0  0  0  0  0  0  0  0
  -29.1829  -17.3411   18.1962 O   0  0  0  0  0  0  0  0  0  0  0  0
  -28.0641  -16.9971   20.4136 O   0  0  0  0  0  0  0  0  0  0  0  0
  -29.0047  -19.1985   19.9164 O   0  0  0  0  0  0  0  0  0  0  0  0
  -28.1445  -16.0421   20.2639 H   0  0  0  0  0  0  0  0  0  0  0  0
  -29.6995  -19.6814   19.4421 H   0  0  0  0  0  0  0  0  0  0  0  0
 20 19  2  0  0  0
 18 19  1  0  0  0
 19 22  1  0  0  0
 19 21  1  0  0  0
  2  1  1  0  0  0
 10  1  1  0  0  0
  1  7  1  0  0  0
 10 11  1  0  0  0
  3  2  1  0  0  0
  2  4  1  0  0  0
  5  4  1  0  0  0
  4  6  1  0  0  0
  6  7  1  0  0  0
  6 17  1  0  0  0
 17 18  1  0  0  0
 13 11  2  0  0  0
 11 12  1  0  0  0
 11 14  1  0  0  0
  3  8  1  0  0  0
  5  9  1  0  0  0
 12 15  1  0  0  0
 21 23  1  0  0  0
 14 16  1  0  0  0
 22 24  1  0  0  0
M  END
> <minimizedAffinity>
-10.38664

$$$$
5YFS_RI2_A_401


 24 24  0  0  0  0  0  0  0  0999 V2000
  -31.2857  -16.3909   21.3359 C   0  0  0  0  0  0  0  0  0  0  0  0
  -32.4208  -16.5058   22.3219 C   0  0  0  0  0  0  0  0  0  0  0  0
  -33.2231  -17.6537   22.0266 O   0  0  0  0  0  0  0  0  0  0  0  0
  -33.1951  -15.2575   21.9496 C   0  0  0  0  0  0  0  0  0  0  0  0
  -34.5255  -15.1751   22.3256 O   0  0  0  0  0  0  0  0  0  0  0  0
  -33.1447  -15.2632   20.4142 C   0  0  0  0  0  0  0  0  0  0  0  0
  -31.8732  -15.8198   20.1380 O   0  0  0  0  0  0  0  0  0  0  0  0
  -33.5157  -17.6146   21.1026 H   0  0  0  0  0  0  0  0  0  0  0  0
  -35.0259  -15.8904   21.9028 H   0  0  0  0  0  0  0  0  0  0  0  0
  -30.6517  -17.6497   21.0229 O   0  0  0  0  0  0  0  0  0  0  0  0
  -29.3589  -17.7383   20.0221 P   0  0  0  0  0  0  0  0  0  0  0  0
  -29.8353  -17.2175   18.6308 O   0  0  0  0  0  0  0  0  0  0  0  0
  -28.1623  -16.8818   20.5724 O   0  0  0  0  0  0  0  0  0  0  0  0
  -29.0185  -19.2426   20.0159 O   0  0  0  0  0  0  0  0  0  0  0  0
  -30.0351  -16.2703   18.6913 H   0  0  0  0  0  0  0  0  0  0  0  0
  -28.7293  -19.5124   20.9016 H   0  0  0  0  0  0  0  0  0  0  0  0
  -33.4132  -13.9299   19.7864 C   0  0  0  0  0  0  0  0  0  0  0  0
  -32.9359  -12.8534   20.5594 O   0  0  0  0  0  0  0  0  0  0  0  0
  -32.8329  -11.3320   20.0702 P   0  0  0  0  0  0  0  0  0  0  0  0
  -31.3821  -10.9610   20.2974 O   0  0  0  0  0  0  0  0  0  0  0  0
  -33.1624  -11.4525   18.6016 O   0  0  0  0  0  0  0  0  0  0  0  0
  -33.8191  -10.3754   20.6961 O   0  0  0  0  0  0  0  0  0  0  0  0
  -32.5391  -12.0641   18.1795 H   0  0  0  0  0  0  0  0  0  0  0  0
  -33.6246  -10.2835   21.6420 H   0  0  0  0  0  0  0  0  0  0  0  0
 20 19  2  0  0  0
 18 19  1  0  0  0
 19 22  1  0  0  0
 19 21  1  0  0  0
  2  1  1  0  0  0
 10  1  1  0  0  0
  1  7  1  0  0  0
 10 11  1  0  0  0
  3  2  1  0  0  0
  2  4  1  0  0  0
  5  4  1  0  0  0
  4  6  1  0  0  0
  6  7  1  0  0  0
  6 17  1  0  0  0
 17 18  1  0  0  0
 13 11  2  0  0  0
 11 12  1  0  0  0
 11 14  1  0  0  0
  3  8  1  0  0  0
  5  9  1  0  0  0
 12 15  1  0  0  0
 21 23  1  0  0  0
 14 16  1  0  0  0
 22 24  1  0  0  0
M  END
> <minimizedAffinity>
-9.05350

$$$$
5YFS_RI2_A_401


 24 24  0  0  0  0  0  0  0  0999 V2000
  -32.0896  -15.9397   20.5221 C   0  0  0  0  0  0  0  0  0  0  0  0
  -31.8163  -16.4062   21.9297 C   0  0  0  0  0  0  0  0  0  0  0  0
  -30.9944  -15.4580   22.6183 O   0  0  0  0  0  0  0  0  0  0  0  0
  -30.9902  -17.6390   21.6225 C   0  0  0  0  0  0  0  0  0  0  0  0
  -30.1855  -18.1551   22.6246 O   0  0  0  0  0  0  0  0  0  0  0  0
  -30.0720  -17.1664   20.4851 C   0  0  0  0  0  0  0  0  0  0  0  0
  -30.8887  -16.2569   19.7718 O   0  0  0  0  0  0  0  0  0  0  0  0
  -30.1899  -15.2926   22.1023 H   0  0  0  0  0  0  0  0  0  0  0  0
  -29.5241  -17.4935   22.8811 H   0  0  0  0  0  0  0  0  0  0  0  0
  -32.3786  -14.5289   20.4182 O   0  0  0  0  0  0  0  0  0  0  0  0
  -33.8206  -13.9080   20.8827 P   0  0  0  0  0  0  0  0  0  0  0  0
  -34.6909  -13.7883   19.5935 O   0  0  0  0  0  0  0  0  0  0  0  0
  -34.5103  -14.8284   21.9529 O   0  0  0  0  0  0  0  0  0  0  0  0
  -33.4402  -12.5378   21.4798 O   0  0  0  0  0  0  0  0  0  0  0  0
  -34.9005  -14.6753   19.2614 H   0  0  0  0  0  0  0  0  0  0  0  0
  -32.9019  -12.6701   22.2758 H   0  0  0  0  0  0  0  0  0  0  0  0
  -29.4828  -18.2768   19.6704 C   0  0  0  0  0  0  0  0  0  0  0  0
  -28.3790  -17.8648   18.8983 O   0  0  0  0  0  0  0  0  0  0  0  0
  -26.8788  -18.4006   19.0619 P   0  0  0  0  0  0  0  0  0  0  0  0
  -26.1272  -17.7742   17.9056 O   0  0  0  0  0  0  0  0  0  0  0  0
  -26.4757  -17.8027   20.3884 O   0  0  0  0  0  0  0  0  0  0  0  0
  -26.7263  -19.8997   19.1564 O   0  0  0  0  0  0  0  0  0  0  0  0
  -26.5666  -16.8377   20.3491 H   0  0  0  0  0  0  0  0  0  0  0  0
  -26.9808  -20.3044   18.3124 H   0  0  0  0  0  0  0  0  0  0  0  0
 20 19  2  0  0  0
 18 19  1  0  0  0
 19 22  1  0  0  0
 19 21  1  0  0  0
  2  1  1  0  0  0
 10  1  1  0  0  0
  1  7  1  0  0  0
 10 11  1  0  0  0
  3  2  1  0  0  0
  2  4  1  0  0  0
  5  4  1  0  0  0
  4  6  1  0  0  0
  6  7  1  0  0  0
  6 17  1  0  0  0
 17 18  1  0  0  0
 13 11  2  0  0  0
 11 12  1  0  0  0
 11 14  1  0  0  0
  3  8  1  0  0  0
  5  9  1  0  0  0
 12 15  1  0  0  0
 21 23  1  0  0  0
 14 16  1  0  0  0
 22 24  1  0  0  0
M  END
> <minimizedAffinity>
-8.35085

$$$$
5YFS_RI2_A_401


 24 24  0  0  0  0  0  0  0  0999 V2000
  -29.9694  -16.9779   20.2036 C   0  0  0  0  0  0  0  0  0  0  0  0
  -30.0444  -16.9899   21.7096 C   0  0  0  0  0  0  0  0  0  0  0  0
  -30.3274  -18.3104   22.1839 O   0  0  0  0  0  0  0  0  0  0  0  0
  -31.2750  -16.1264   21.8998 C   0  0  0  0  0  0  0  0  0  0  0  0
  -31.9474  -16.2008   23.1083 O   0  0  0  0  0  0  0  0  0  0  0  0
  -32.2268  -16.6332   20.8056 C   0  0  0  0  0  0  0  0  0  0  0  0
  -31.3478  -16.9738   19.7499 O   0  0  0  0  0  0  0  0  0  0  0  0
  -31.1306  -18.6432   21.7538 H   0  0  0  0  0  0  0  0  0  0  0  0
  -32.2776  -17.1034   23.2396 H   0  0  0  0  0  0  0  0  0  0  0  0
  -29.2683  -18.1087   19.6428 O   0  0  0  0  0  0  0  0  0  0  0  0
  -27.6828  -18.0276   19.2424 P   0  0  0  0  0  0  0  0  0  0  0  0
  -27.2795  -19.4442   18.7285 O   0  0  0  0  0  0  0  0  0  0  0  0
  -27.4356  -16.9311   18.1449 O   0  0  0  0  0  0  0  0  0  0  0  0
  -27.0000  -17.6550   20.5743 O   0  0  0  0  0  0  0  0  0  0  0  0
  -27.7354  -19.6267   17.8920 H   0  0  0  0  0  0  0  0  0  0  0  0
  -27.2847  -16.7686   20.8467 H   0  0  0  0  0  0  0  0  0  0  0  0
  -33.3187  -15.6719   20.4484 C   0  0  0  0  0  0  0  0  0  0  0  0
  -32.8363  -14.4913   19.8503 O   0  0  0  0  0  0  0  0  0  0  0  0
  -33.4571  -13.0285   20.0491 P   0  0  0  0  0  0  0  0  0  0  0  0
  -32.6791  -12.1555   19.0863 O   0  0  0  0  0  0  0  0  0  0  0  0
  -34.8848  -13.2309   19.6015 O   0  0  0  0  0  0  0  0  0  0  0  0
  -33.4780  -12.5141   21.4684 O   0  0  0  0  0  0  0  0  0  0  0  0
  -34.8940  -13.5620   18.6898 H   0  0  0  0  0  0  0  0  0  0  0  0
  -32.5683  -12.3770   21.7760 H   0  0  0  0  0  0  0  0  0  0  0  0
 20 19  2  0  0  0
 18 19  1  0  0  0
 19 22  1  0  0  0
 19 21  1  0  0  0
  2  1  1  0  0  0
 10  1  1  0  0  0
  1  7  1  0  0  0
 10 11  1  0  0  0
  3  2  1  0  0  0
  2  4  1  0  0  0
  5  4  1  0  0  0
  4  6  1  0  0  0
  6  7  1  0  0  0
  6 17  1  0  0  0
 17 18  1  0  0  0
 13 11  2  0  0  0
 11 12  1  0  0  0
 11 14  1  0  0  0
  3  8  1  0  0  0
  5  9  1  0  0  0
 12 15  1  0  0  0
 21 23  1  0  0  0
 14 16  1  0  0  0
 22 24  1  0  0  0
M  END
> <minimizedAffinity>
-7.82074

$$$$
