2HHN_GNQ_B_901


 42 44  0  0  0  0  0  0  0  0999 V2000
   35.6373   28.9167   15.4040 C   0  0  0  0  0  0  0  0  0  0  0  0
   34.5936   28.6089   14.4009 N   0  0  0  0  0  0  0  0  0  0  0  0
   34.4554   29.4253   13.3320 C   0  0  0  0  0  0  0  0  0  0  0  0
   35.1860   30.4193   13.2105 O   0  0  0  0  0  0  0  0  0  0  0  0
   33.5588   29.1655   12.3663 N   0  0  0  0  0  0  0  0  0  0  0  0
   33.4228   30.1066   11.2445 C   0  0  0  0  0  0  0  0  0  0  0  0
   33.1977   29.3511    9.9433 C   0  0  0  0  0  0  0  0  0  0  0  0
   32.0273   28.5587   10.1073 O   0  0  0  0  0  0  0  0  0  0  0  0
   32.3163   27.4966   11.0380 C   0  0  0  0  0  0  0  0  0  0  0  0
   32.5898   28.0666   12.4332 C   0  0  0  0  0  0  0  0  0  0  0  0
   34.0102   27.8234   14.5099 H   0  0  0  0  0  0  0  0  0  0  0  0
   36.9174   28.3811   14.8100 C   0  0  0  0  0  0  0  0  0  0  0  0
   37.0657   27.1764   14.6578 O   0  0  0  0  0  0  0  0  0  0  0  0
   37.8494   29.2561   14.4373 N   0  0  0  0  0  0  0  0  0  0  0  0
   37.7224   30.2189   14.5994 H   0  0  0  0  0  0  0  0  0  0  0  0
   39.0610   28.7705   13.7858 C   0  0  0  0  0  0  0  0  0  0  0  0
   39.1463   29.5335   12.4594 C   0  0  0  0  0  0  0  0  0  0  0  0
   40.2782   28.9909   14.6668 C   0  0  0  0  0  0  0  0  0  0  0  0
   41.2456   29.6683   13.8087 N   0  0  0  0  0  0  0  0  0  0  0  0
   40.9723   29.9991   12.9226 H   0  0  0  0  0  0  0  0  0  0  0  0
   42.5147   29.8402   14.2326 C   0  0  0  0  0  0  0  0  0  0  0  0
   42.6990   30.0724   15.5717 C   0  0  0  0  0  0  0  0  0  0  0  0
   43.9675   30.2574   16.0369 C   0  0  0  0  0  0  0  0  0  0  0  0
   43.6183   29.7917   13.3763 C   0  0  0  0  0  0  0  0  0  0  0  0
   44.9112   29.9861   13.8786 C   0  0  0  0  0  0  0  0  0  0  0  0
   45.1079   30.2061   15.2422 C   0  0  0  0  0  0  0  0  0  0  0  0
   46.3568   30.4138   15.8229 O   0  0  0  0  0  0  0  0  0  0  0  0
   47.4740   29.4899   15.9097 C   0  0  0  0  0  0  0  0  0  0  0  0
   48.1676   29.6239   17.0296 F   0  0  0  0  0  0  0  0  0  0  0  0
   47.0364   28.2467   15.8442 F   0  0  0  0  0  0  0  0  0  0  0  0
   48.3054   29.7036   14.8950 F   0  0  0  0  0  0  0  0  0  0  0  0
   35.3466   28.2522   16.7566 C   0  0  0  0  0  0  0  0  0  0  0  0
   34.4862   29.0372   18.9668 O   0  0  0  0  0  0  0  0  0  0  0  0
   34.0653   28.9496   17.5859 S   0  0  0  0  0  0  0  0  0  0  0  0
   33.7099   30.1987   16.9683 O   0  0  0  0  0  0  0  0  0  0  0  0
   32.8391   27.8284   17.4441 C   0  0  0  0  0  0  0  0  0  0  0  0
   31.4983   28.2897   17.9311 C   0  0  0  0  0  0  0  0  0  0  0  0
   30.8920   29.3608   17.2803 C   0  0  0  0  0  0  0  0  0  0  0  0
   29.6342   29.8054   17.6795 C   0  0  0  0  0  0  0  0  0  0  0  0
   29.0056   29.1432   18.7176 C   0  0  0  0  0  0  0  0  0  0  0  0
   29.6117   28.0672   19.3620 C   0  0  0  0  0  0  0  0  0  0  0  0
   30.8734   27.6151   18.9731 C   0  0  0  0  0  0  0  0  0  0  0  0
 33 34  2  0  0  0
 34 35  2  0  0  0
 34 36  1  0  0  0
 34 32  1  0  0  0
 36 37  1  0  0  0
 37 38  1  0  0  0
 37 42  2  0  0  0
 38 39  2  0  0  0
 39 40  1  0  0  0
 40 41  2  0  0  0
 41 42  1  0  0  0
 32  1  1  0  0  0
  1  2  1  0  0  0
  1 12  1  0  0  0
  2  3  1  0  0  0
  3  4  2  0  0  0
  3  5  1  0  0  0
  5  6  1  0  0  0
  5 10  1  0  0  0
  6  7  1  0  0  0
  7  8  1  0  0  0
  8  9  1  0  0  0
  9 10  1  0  0  0
 12 13  2  0  0  0
 12 14  1  0  0  0
 14 16  1  0  0  0
 16 17  1  0  0  0
 16 18  1  0  0  0
 18 19  1  0  0  0
 19 21  1  0  0  0
 21 22  2  0  0  0
 21 24  1  0  0  0
 22 23  1  0  0  0
 23 26  2  0  0  0
 24 25  2  0  0  0
 25 26  1  0  0  0
 26 27  1  0  0  0
 27 28  1  0  0  0
 28 29  1  0  0  0
 28 30  1  0  0  0
 28 31  1  0  0  0
  2 11  1  0  0  0
 14 15  1  0  0  0
 19 20  1  0  0  0
M  END
> <minimizedAffinity>
-9.19299

$$$$
2HHN_GNQ_B_901


 42 44  0  0  0  0  0  0  0  0999 V2000
   36.2960   30.4568   13.5568 C   0  0  0  0  0  0  0  0  0  0  0  0
   37.7085   30.0835   13.7929 N   0  0  0  0  0  0  0  0  0  0  0  0
   38.6329   31.0643   13.9008 C   0  0  0  0  0  0  0  0  0  0  0  0
   38.2953   32.2517   13.7888 O   0  0  0  0  0  0  0  0  0  0  0  0
   39.9199   30.7848   14.1647 N   0  0  0  0  0  0  0  0  0  0  0  0
   40.8916   31.8865   14.2338 C   0  0  0  0  0  0  0  0  0  0  0  0
   41.8945   31.6393   15.3507 C   0  0  0  0  0  0  0  0  0  0  0  0
   42.5313   30.3949   15.0843 O   0  0  0  0  0  0  0  0  0  0  0  0
   41.5747   29.3354   15.2845 C   0  0  0  0  0  0  0  0  0  0  0  0
   40.4543   29.4213   14.2436 C   0  0  0  0  0  0  0  0  0  0  0  0
   37.9704   29.1377   13.8702 H   0  0  0  0  0  0  0  0  0  0  0  0
   35.4908   29.4367   14.3246 C   0  0  0  0  0  0  0  0  0  0  0  0
   35.0387   28.4550   13.7516 O   0  0  0  0  0  0  0  0  0  0  0  0
   35.3204   29.6277   15.6314 N   0  0  0  0  0  0  0  0  0  0  0  0
   35.6651   30.4415   16.0652 H   0  0  0  0  0  0  0  0  0  0  0  0
   34.6165   28.6163   16.4122 C   0  0  0  0  0  0  0  0  0  0  0  0
   35.7125   27.7838   17.0864 C   0  0  0  0  0  0  0  0  0  0  0  0
   33.6724   29.2604   17.4123 C   0  0  0  0  0  0  0  0  0  0  0  0
   33.6719   28.3607   18.5619 N   0  0  0  0  0  0  0  0  0  0  0  0
   34.4916   28.2390   19.0935 H   0  0  0  0  0  0  0  0  0  0  0  0
   32.5458   27.6965   18.8944 C   0  0  0  0  0  0  0  0  0  0  0  0
   31.9544   28.0289   20.0864 C   0  0  0  0  0  0  0  0  0  0  0  0
   30.8177   27.3745   20.4598 C   0  0  0  0  0  0  0  0  0  0  0  0
   31.9770   26.7071   18.0874 C   0  0  0  0  0  0  0  0  0  0  0  0
   30.8096   26.0487   18.4940 C   0  0  0  0  0  0  0  0  0  0  0  0
   30.1931   26.3933   19.6972 C   0  0  0  0  0  0  0  0  0  0  0  0
   29.0353   25.7863   20.1780 O   0  0  0  0  0  0  0  0  0  0  0  0
   27.6535   26.1300   19.8921 C   0  0  0  0  0  0  0  0  0  0  0  0
   27.1358   25.4089   18.9097 F   0  0  0  0  0  0  0  0  0  0  0  0
   26.9124   25.9488   20.9689 F   0  0  0  0  0  0  0  0  0  0  0  0
   27.5800   27.4077   19.5336 F   0  0  0  0  0  0  0  0  0  0  0  0
   35.9352   30.4223   12.0654 C   0  0  0  0  0  0  0  0  0  0  0  0
   35.1223   32.7233   12.6004 O   0  0  0  0  0  0  0  0  0  0  0  0
   35.4671   31.9130   11.4532 S   0  0  0  0  0  0  0  0  0  0  0  0
   36.5084   32.4418   10.6142 O   0  0  0  0  0  0  0  0  0  0  0  0
   34.0912   31.5709   10.5753 C   0  0  0  0  0  0  0  0  0  0  0  0
   33.4525   30.2506   10.8859 C   0  0  0  0  0  0  0  0  0  0  0  0
   32.5794   30.1776   11.9680 C   0  0  0  0  0  0  0  0  0  0  0  0
   31.9410   28.9792   12.2769 C   0  0  0  0  0  0  0  0  0  0  0  0
   32.1837   27.8824   11.4711 C   0  0  0  0  0  0  0  0  0  0  0  0
   33.0520   27.9604   10.3847 C   0  0  0  0  0  0  0  0  0  0  0  0
   33.7003   29.1549   10.0677 C   0  0  0  0  0  0  0  0  0  0  0  0
 33 34  2  0  0  0
 34 35  2  0  0  0
 34 36  1  0  0  0
 34 32  1  0  0  0
 36 37  1  0  0  0
 37 38  1  0  0  0
 37 42  2  0  0  0
 38 39  2  0  0  0
 39 40  1  0  0  0
 40 41  2  0  0  0
 41 42  1  0  0  0
 32  1  1  0  0  0
  1  2  1  0  0  0
  1 12  1  0  0  0
  2  3  1  0  0  0
  3  4  2  0  0  0
  3  5  1  0  0  0
  5  6  1  0  0  0
  5 10  1  0  0  0
  6  7  1  0  0  0
  7  8  1  0  0  0
  8  9  1  0  0  0
  9 10  1  0  0  0
 12 13  2  0  0  0
 12 14  1  0  0  0
 14 16  1  0  0  0
 16 17  1  0  0  0
 16 18  1  0  0  0
 18 19  1  0  0  0
 19 21  1  0  0  0
 21 22  2  0  0  0
 21 24  1  0  0  0
 22 23  1  0  0  0
 23 26  2  0  0  0
 24 25  2  0  0  0
 25 26  1  0  0  0
 26 27  1  0  0  0
 27 28  1  0  0  0
 28 29  1  0  0  0
 28 30  1  0  0  0
 28 31  1  0  0  0
  2 11  1  0  0  0
 14 15  1  0  0  0
 19 20  1  0  0  0
M  END
> <minimizedAffinity>
-8.38377

$$$$
2HHN_GNQ_B_901


 42 44  0  0  0  0  0  0  0  0999 V2000
   35.4547   29.6029   14.4071 C   0  0  0  0  0  0  0  0  0  0  0  0
   34.9850   29.4382   15.8009 N   0  0  0  0  0  0  0  0  0  0  0  0
   33.7185   29.0172   16.0168 C   0  0  0  0  0  0  0  0  0  0  0  0
   32.9673   28.7888   15.0576 O   0  0  0  0  0  0  0  0  0  0  0  0
   33.2563   28.8029   17.2596 N   0  0  0  0  0  0  0  0  0  0  0  0
   31.8588   28.3819   17.4404 C   0  0  0  0  0  0  0  0  0  0  0  0
   31.7555   27.3526   18.5558 C   0  0  0  0  0  0  0  0  0  0  0  0
   32.2800   27.9491   19.7365 O   0  0  0  0  0  0  0  0  0  0  0  0
   33.7053   28.0998   19.5828 C   0  0  0  0  0  0  0  0  0  0  0  0
   34.0209   29.1076   18.4734 C   0  0  0  0  0  0  0  0  0  0  0  0
   35.5844   29.6318   16.5575 H   0  0  0  0  0  0  0  0  0  0  0  0
   36.8144   28.9482   14.3752 C   0  0  0  0  0  0  0  0  0  0  0  0
   36.9164   27.7390   14.5296 O   0  0  0  0  0  0  0  0  0  0  0  0
   37.8758   29.7191   14.1466 N   0  0  0  0  0  0  0  0  0  0  0  0
   37.7736   30.6942   14.0579 H   0  0  0  0  0  0  0  0  0  0  0  0
   39.1919   29.1008   14.0294 C   0  0  0  0  0  0  0  0  0  0  0  0
   39.4447   28.9587   12.5245 C   0  0  0  0  0  0  0  0  0  0  0  0
   40.2508   29.9391   14.7239 C   0  0  0  0  0  0  0  0  0  0  0  0
   41.3868   29.9447   13.8071 N   0  0  0  0  0  0  0  0  0  0  0  0
   41.2363   29.9067   12.8349 H   0  0  0  0  0  0  0  0  0  0  0  0
   42.6432   30.0020   14.2949 C   0  0  0  0  0  0  0  0  0  0  0  0
   42.7824   30.3023   15.6259 C   0  0  0  0  0  0  0  0  0  0  0  0
   44.0376   30.3756   16.1541 C   0  0  0  0  0  0  0  0  0  0  0  0
   43.7774   29.7729   13.5108 C   0  0  0  0  0  0  0  0  0  0  0  0
   45.0559   29.8554   14.0768 C   0  0  0  0  0  0  0  0  0  0  0  0
   45.2046   30.1437   15.4338 C   0  0  0  0  0  0  0  0  0  0  0  0
   46.4369   30.2495   16.0743 O   0  0  0  0  0  0  0  0  0  0  0  0
   47.5690   29.3424   16.0038 C   0  0  0  0  0  0  0  0  0  0  0  0
   48.3553   29.4162   17.0665 F   0  0  0  0  0  0  0  0  0  0  0  0
   47.1429   28.0983   15.8940 F   0  0  0  0  0  0  0  0  0  0  0  0
   48.3064   29.6365   14.9380 F   0  0  0  0  0  0  0  0  0  0  0  0
   35.5543   31.0810   14.0062 C   0  0  0  0  0  0  0  0  0  0  0  0
   33.2237   31.4508   13.1857 O   0  0  0  0  0  0  0  0  0  0  0  0
   34.5850   31.4889   12.6985 S   0  0  0  0  0  0  0  0  0  0  0  0
   35.0107   32.7496   12.1534 O   0  0  0  0  0  0  0  0  0  0  0  0
   34.8277   30.2434   11.6166 C   0  0  0  0  0  0  0  0  0  0  0  0
   33.5761   29.6291   11.0654 C   0  0  0  0  0  0  0  0  0  0  0  0
   33.1920   28.3767   11.5369 C   0  0  0  0  0  0  0  0  0  0  0  0
   32.0218   27.7798   11.0747 C   0  0  0  0  0  0  0  0  0  0  0  0
   31.2524   28.4723   10.1584 C   0  0  0  0  0  0  0  0  0  0  0  0
   31.6355   29.7284    9.6940 C   0  0  0  0  0  0  0  0  0  0  0  0
   32.8078   30.3348   10.1472 C   0  0  0  0  0  0  0  0  0  0  0  0
 33 34  2  0  0  0
 34 35  2  0  0  0
 34 36  1  0  0  0
 34 32  1  0  0  0
 36 37  1  0  0  0
 37 38  1  0  0  0
 37 42  2  0  0  0
 38 39  2  0  0  0
 39 40  1  0  0  0
 40 41  2  0  0  0
 41 42  1  0  0  0
 32  1  1  0  0  0
  1  2  1  0  0  0
  1 12  1  0  0  0
  2  3  1  0  0  0
  3  4  2  0  0  0
  3  5  1  0  0  0
  5  6  1  0  0  0
  5 10  1  0  0  0
  6  7  1  0  0  0
  7  8  1  0  0  0
  8  9  1  0  0  0
  9 10  1  0  0  0
 12 13  2  0  0  0
 12 14  1  0  0  0
 14 16  1  0  0  0
 16 17  1  0  0  0
 16 18  1  0  0  0
 18 19  1  0  0  0
 19 21  1  0  0  0
 21 22  2  0  0  0
 21 24  1  0  0  0
 22 23  1  0  0  0
 23 26  2  0  0  0
 24 25  2  0  0  0
 25 26  1  0  0  0
 26 27  1  0  0  0
 27 28  1  0  0  0
 28 29  1  0  0  0
 28 30  1  0  0  0
 28 31  1  0  0  0
  2 11  1  0  0  0
 14 15  1  0  0  0
 19 20  1  0  0  0
M  END
> <minimizedAffinity>
-8.26586

$$$$
2HHN_GNQ_B_901


 42 44  0  0  0  0  0  0  0  0999 V2000
   32.8734   29.7937   16.5082 C   0  0  0  0  0  0  0  0  0  0  0  0
   33.8492   30.6031   15.7447 N   0  0  0  0  0  0  0  0  0  0  0  0
   34.8351   29.9702   15.0697 C   0  0  0  0  0  0  0  0  0  0  0  0
   34.9197   28.7341   15.1071 O   0  0  0  0  0  0  0  0  0  0  0  0
   35.7172   30.6518   14.3205 N   0  0  0  0  0  0  0  0  0  0  0  0
   36.7932   29.9181   13.6374 C   0  0  0  0  0  0  0  0  0  0  0  0
   37.0418   30.5059   12.2564 C   0  0  0  0  0  0  0  0  0  0  0  0
   37.3724   31.8790   12.4307 O   0  0  0  0  0  0  0  0  0  0  0  0
   36.1929   32.5860   12.8624 C   0  0  0  0  0  0  0  0  0  0  0  0
   35.7669   32.1162   14.2567 C   0  0  0  0  0  0  0  0  0  0  0  0
   33.7816   31.5851   15.7285 H   0  0  0  0  0  0  0  0  0  0  0  0
   31.5542   30.5053   16.3300 C   0  0  0  0  0  0  0  0  0  0  0  0
   30.5635   29.8806   15.9767 O   0  0  0  0  0  0  0  0  0  0  0  0
   31.5045   31.8090   16.5963 N   0  0  0  0  0  0  0  0  0  0  0  0
   32.3214   32.2978   16.8475 H   0  0  0  0  0  0  0  0  0  0  0  0
   30.2247   32.5041   16.5112 C   0  0  0  0  0  0  0  0  0  0  0  0
   29.8814   32.9068   17.9494 C   0  0  0  0  0  0  0  0  0  0  0  0
   30.3144   33.6967   15.5752 C   0  0  0  0  0  0  0  0  0  0  0  0
   29.7134   33.2399   14.3257 N   0  0  0  0  0  0  0  0  0  0  0  0
   28.8120   33.5435   14.0719 H   0  0  0  0  0  0  0  0  0  0  0  0
   30.3960   32.4007   13.5196 C   0  0  0  0  0  0  0  0  0  0  0  0
   29.7006   31.3469   12.9840 C   0  0  0  0  0  0  0  0  0  0  0  0
   30.3582   30.4733   12.1691 C   0  0  0  0  0  0  0  0  0  0  0  0
   31.7516   32.5640   13.2205 C   0  0  0  0  0  0  0  0  0  0  0  0
   32.4046   31.6521   12.3816 C   0  0  0  0  0  0  0  0  0  0  0  0
   31.6997   30.5874   11.8196 C   0  0  0  0  0  0  0  0  0  0  0  0
   32.2721   29.6338   10.9811 O   0  0  0  0  0  0  0  0  0  0  0  0
   32.9882   28.4251   11.3491 C   0  0  0  0  0  0  0  0  0  0  0  0
   33.2904   27.6675   10.3061 F   0  0  0  0  0  0  0  0  0  0  0  0
   34.1107   28.7377   11.9685 F   0  0  0  0  0  0  0  0  0  0  0  0
   32.2368   27.6975   12.1691 F   0  0  0  0  0  0  0  0  0  0  0  0
   33.2437   29.7007   17.9948 C   0  0  0  0  0  0  0  0  0  0  0  0
   32.8441   27.2858   17.4948 O   0  0  0  0  0  0  0  0  0  0  0  0
   33.3242   28.1262   18.5695 S   0  0  0  0  0  0  0  0  0  0  0  0
   34.6584   27.8437   19.0255 O   0  0  0  0  0  0  0  0  0  0  0  0
   32.2315   28.1036   19.8290 C   0  0  0  0  0  0  0  0  0  0  0  0
   30.8202   27.7817   19.4387 C   0  0  0  0  0  0  0  0  0  0  0  0
   30.4244   26.4469   19.4337 C   0  0  0  0  0  0  0  0  0  0  0  0
   29.1156   26.1028   19.1055 C   0  0  0  0  0  0  0  0  0  0  0  0
   28.2270   27.1194   18.8084 C   0  0  0  0  0  0  0  0  0  0  0  0
   28.6241   28.4545   18.8215 C   0  0  0  0  0  0  0  0  0  0  0  0
   29.9339   28.8111   19.1452 C   0  0  0  0  0  0  0  0  0  0  0  0
 33 34  2  0  0  0
 34 35  2  0  0  0
 34 36  1  0  0  0
 34 32  1  0  0  0
 36 37  1  0  0  0
 37 38  1  0  0  0
 37 42  2  0  0  0
 38 39  2  0  0  0
 39 40  1  0  0  0
 40 41  2  0  0  0
 41 42  1  0  0  0
 32  1  1  0  0  0
  1  2  1  0  0  0
  1 12  1  0  0  0
  2  3  1  0  0  0
  3  4  2  0  0  0
  3  5  1  0  0  0
  5  6  1  0  0  0
  5 10  1  0  0  0
  6  7  1  0  0  0
  7  8  1  0  0  0
  8  9  1  0  0  0
  9 10  1  0  0  0
 12 13  2  0  0  0
 12 14  1  0  0  0
 14 16  1  0  0  0
 16 17  1  0  0  0
 16 18  1  0  0  0
 18 19  1  0  0  0
 19 21  1  0  0  0
 21 22  2  0  0  0
 21 24  1  0  0  0
 22 23  1  0  0  0
 23 26  2  0  0  0
 24 25  2  0  0  0
 25 26  1  0  0  0
 26 27  1  0  0  0
 27 28  1  0  0  0
 28 29  1  0  0  0
 28 30  1  0  0  0
 28 31  1  0  0  0
  2 11  1  0  0  0
 14 15  1  0  0  0
 19 20  1  0  0  0
M  END
> <minimizedAffinity>
-8.19555

$$$$
2HHN_GNQ_B_901


 42 44  0  0  0  0  0  0  0  0999 V2000
   43.1442   30.2921   13.4586 C   0  0  0  0  0  0  0  0  0  0  0  0
   43.0923   30.8757   12.0995 N   0  0  0  0  0  0  0  0  0  0  0  0
   43.6706   30.2038   11.0787 C   0  0  0  0  0  0  0  0  0  0  0  0
   44.2437   29.1252   11.2900 O   0  0  0  0  0  0  0  0  0  0  0  0
   43.6100   30.6625    9.8177 N   0  0  0  0  0  0  0  0  0  0  0  0
   44.2888   29.9123    8.7503 C   0  0  0  0  0  0  0  0  0  0  0  0
   43.4498   29.9200    7.4813 C   0  0  0  0  0  0  0  0  0  0  0  0
   43.2420   31.2794    7.1157 O   0  0  0  0  0  0  0  0  0  0  0  0
   42.3564   31.8854    8.0782 C   0  0  0  0  0  0  0  0  0  0  0  0
   43.0282   31.9582    9.4528 C   0  0  0  0  0  0  0  0  0  0  0  0
   42.6445   31.7381   11.9416 H   0  0  0  0  0  0  0  0  0  0  0  0
   41.7520   30.4733   14.0129 C   0  0  0  0  0  0  0  0  0  0  0  0
   41.5938   30.9390   15.1329 O   0  0  0  0  0  0  0  0  0  0  0  0
   40.7211   30.1410   13.2383 N   0  0  0  0  0  0  0  0  0  0  0  0
   40.8725   29.7375   12.3531 H   0  0  0  0  0  0  0  0  0  0  0  0
   39.3645   30.3822   13.7176 C   0  0  0  0  0  0  0  0  0  0  0  0
   38.7807   31.4422   12.7772 C   0  0  0  0  0  0  0  0  0  0  0  0
   38.5541   29.0979   13.7265 C   0  0  0  0  0  0  0  0  0  0  0  0
   37.1722   29.5242   13.5274 N   0  0  0  0  0  0  0  0  0  0  0  0
   36.9089   29.9686   12.6893 H   0  0  0  0  0  0  0  0  0  0  0  0
   36.2566   29.3077   14.4942 C   0  0  0  0  0  0  0  0  0  0  0  0
   36.4654   28.2342   15.3219 C   0  0  0  0  0  0  0  0  0  0  0  0
   35.5579   27.9794   16.3074 C   0  0  0  0  0  0  0  0  0  0  0  0
   35.1323   30.1181   14.6757 C   0  0  0  0  0  0  0  0  0  0  0  0
   34.2143   29.8346   15.6948 C   0  0  0  0  0  0  0  0  0  0  0  0
   34.4289   28.7542   16.5512 C   0  0  0  0  0  0  0  0  0  0  0  0
   33.5652   28.3995   17.5847 O   0  0  0  0  0  0  0  0  0  0  0  0
   33.7730   28.5298   19.0162 C   0  0  0  0  0  0  0  0  0  0  0  0
   32.6564   28.3895   19.7138 F   0  0  0  0  0  0  0  0  0  0  0  0
   34.6334   27.6192   19.4311 F   0  0  0  0  0  0  0  0  0  0  0  0
   34.2648   29.7350   19.2844 F   0  0  0  0  0  0  0  0  0  0  0  0
   44.1783   30.9976   14.3467 C   0  0  0  0  0  0  0  0  0  0  0  0
   44.6434   29.4767   16.2733 O   0  0  0  0  0  0  0  0  0  0  0  0
   45.2762   29.9491   15.0616 S   0  0  0  0  0  0  0  0  0  0  0  0
   45.6533   28.9271   14.1230 O   0  0  0  0  0  0  0  0  0  0  0  0
   46.5694   30.9277   15.4501 C   0  0  0  0  0  0  0  0  0  0  0  0
   47.6879   30.2423   16.1759 C   0  0  0  0  0  0  0  0  0  0  0  0
   48.4079   30.9710   17.1188 C   0  0  0  0  0  0  0  0  0  0  0  0
   49.4367   30.3679   17.8377 C   0  0  0  0  0  0  0  0  0  0  0  0
   49.7033   29.0320   17.6021 C   0  0  0  0  0  0  0  0  0  0  0  0
   48.9764   28.3035   16.6633 C   0  0  0  0  0  0  0  0  0  0  0  0
   47.9456   28.8982   15.9343 C   0  0  0  0  0  0  0  0  0  0  0  0
 33 34  2  0  0  0
 34 35  2  0  0  0
 34 36  1  0  0  0
 34 32  1  0  0  0
 36 37  1  0  0  0
 37 38  1  0  0  0
 37 42  2  0  0  0
 38 39  2  0  0  0
 39 40  1  0  0  0
 40 41  2  0  0  0
 41 42  1  0  0  0
 32  1  1  0  0  0
  1  2  1  0  0  0
  1 12  1  0  0  0
  2  3  1  0  0  0
  3  4  2  0  0  0
  3  5  1  0  0  0
  5  6  1  0  0  0
  5 10  1  0  0  0
  6  7  1  0  0  0
  7  8  1  0  0  0
  8  9  1  0  0  0
  9 10  1  0  0  0
 12 13  2  0  0  0
 12 14  1  0  0  0
 14 16  1  0  0  0
 16 17  1  0  0  0
 16 18  1  0  0  0
 18 19  1  0  0  0
 19 21  1  0  0  0
 21 22  2  0  0  0
 21 24  1  0  0  0
 22 23  1  0  0  0
 23 26  2  0  0  0
 24 25  2  0  0  0
 25 26  1  0  0  0
 26 27  1  0  0  0
 27 28  1  0  0  0
 28 29  1  0  0  0
 28 30  1  0  0  0
 28 31  1  0  0  0
  2 11  1  0  0  0
 14 15  1  0  0  0
 19 20  1  0  0  0
M  END
> <minimizedAffinity>
-8.14040

$$$$
2HHN_GNQ_B_901


 42 44  0  0  0  0  0  0  0  0999 V2000
   34.6208   30.1544   14.3862 C   0  0  0  0  0  0  0  0  0  0  0  0
   33.8265   29.3912   13.3977 N   0  0  0  0  0  0  0  0  0  0  0  0
   32.7201   29.9616   12.8699 C   0  0  0  0  0  0  0  0  0  0  0  0
   32.3778   31.0991   13.2243 O   0  0  0  0  0  0  0  0  0  0  0  0
   31.9907   29.3345   11.9325 N   0  0  0  0  0  0  0  0  0  0  0  0
   30.7749   29.9835   11.4194 C   0  0  0  0  0  0  0  0  0  0  0  0
   30.6362   29.7421    9.9237 C   0  0  0  0  0  0  0  0  0  0  0  0
   30.6044   28.3341    9.7202 O   0  0  0  0  0  0  0  0  0  0  0  0
   31.9123   27.7979   10.0022 C   0  0  0  0  0  0  0  0  0  0  0  0
   32.2494   27.9613   11.4875 C   0  0  0  0  0  0  0  0  0  0  0  0
   34.0990   28.4841   13.1292 H   0  0  0  0  0  0  0  0  0  0  0  0
   35.9145   30.4777   13.6789 C   0  0  0  0  0  0  0  0  0  0  0  0
   36.1433   30.0064   12.5735 O   0  0  0  0  0  0  0  0  0  0  0  0
   36.7678   31.3043   14.2804 N   0  0  0  0  0  0  0  0  0  0  0  0
   36.5778   31.6457   15.1841 H   0  0  0  0  0  0  0  0  0  0  0  0
   37.9876   31.6979   13.5837 C   0  0  0  0  0  0  0  0  0  0  0  0
   38.2838   33.1266   14.0526 C   0  0  0  0  0  0  0  0  0  0  0  0
   39.1224   30.7354   13.8874 C   0  0  0  0  0  0  0  0  0  0  0  0
   39.7959   31.3036   15.0512 N   0  0  0  0  0  0  0  0  0  0  0  0
   39.3268   31.9515   15.6251 H   0  0  0  0  0  0  0  0  0  0  0  0
   41.0625   30.9389   15.3387 C   0  0  0  0  0  0  0  0  0  0  0  0
   41.6490   30.0163   14.5106 C   0  0  0  0  0  0  0  0  0  0  0  0
   42.9267   29.6180   14.7728 C   0  0  0  0  0  0  0  0  0  0  0  0
   41.7777   31.4550   16.4230 C   0  0  0  0  0  0  0  0  0  0  0  0
   43.0885   31.0288   16.6718 C   0  0  0  0  0  0  0  0  0  0  0  0
   43.6976   30.1032   15.8239 C   0  0  0  0  0  0  0  0  0  0  0  0
   44.9929   29.6228   16.0015 O   0  0  0  0  0  0  0  0  0  0  0  0
   46.2347   30.1699   15.4838 C   0  0  0  0  0  0  0  0  0  0  0  0
   46.0726   30.8314   14.3484 F   0  0  0  0  0  0  0  0  0  0  0  0
   46.7663   30.9941   16.3668 F   0  0  0  0  0  0  0  0  0  0  0  0
   47.0922   29.1810   15.2530 F   0  0  0  0  0  0  0  0  0  0  0  0
   34.8870   29.3402   15.6597 C   0  0  0  0  0  0  0  0  0  0  0  0
   34.3658   29.2927   18.1026 O   0  0  0  0  0  0  0  0  0  0  0  0
   33.7068   29.5307   16.8374 S   0  0  0  0  0  0  0  0  0  0  0  0
   33.0853   30.8199   16.6976 O   0  0  0  0  0  0  0  0  0  0  0  0
   32.6287   28.2970   16.5267 C   0  0  0  0  0  0  0  0  0  0  0  0
   31.6396   28.0284   17.6208 C   0  0  0  0  0  0  0  0  0  0  0  0
   30.7435   29.0373   17.9635 C   0  0  0  0  0  0  0  0  0  0  0  0
   29.7885   28.8231   18.9541 C   0  0  0  0  0  0  0  0  0  0  0  0
   29.7464   27.5834   19.5646 C   0  0  0  0  0  0  0  0  0  0  0  0
   30.6394   26.5734   19.2144 C   0  0  0  0  0  0  0  0  0  0  0  0
   31.6031   26.7777   18.2259 C   0  0  0  0  0  0  0  0  0  0  0  0
 33 34  2  0  0  0
 34 35  2  0  0  0
 34 36  1  0  0  0
 34 32  1  0  0  0
 36 37  1  0  0  0
 37 38  1  0  0  0
 37 42  2  0  0  0
 38 39  2  0  0  0
 39 40  1  0  0  0
 40 41  2  0  0  0
 41 42  1  0  0  0
 32  1  1  0  0  0
  1  2  1  0  0  0
  1 12  1  0  0  0
  2  3  1  0  0  0
  3  4  2  0  0  0
  3  5  1  0  0  0
  5  6  1  0  0  0
  5 10  1  0  0  0
  6  7  1  0  0  0
  7  8  1  0  0  0
  8  9  1  0  0  0
  9 10  1  0  0  0
 12 13  2  0  0  0
 12 14  1  0  0  0
 14 16  1  0  0  0
 16 17  1  0  0  0
 16 18  1  0  0  0
 18 19  1  0  0  0
 19 21  1  0  0  0
 21 22  2  0  0  0
 21 24  1  0  0  0
 22 23  1  0  0  0
 23 26  2  0  0  0
 24 25  2  0  0  0
 25 26  1  0  0  0
 26 27  1  0  0  0
 27 28  1  0  0  0
 28 29  1  0  0  0
 28 30  1  0  0  0
 28 31  1  0  0  0
  2 11  1  0  0  0
 14 15  1  0  0  0
 19 20  1  0  0  0
M  END
> <minimizedAffinity>
-7.96875

$$$$
2HHN_GNQ_B_901


 42 44  0  0  0  0  0  0  0  0999 V2000
   36.7075   30.1761   13.2458 C   0  0  0  0  0  0  0  0  0  0  0  0
   35.9722   30.6055   12.0354 N   0  0  0  0  0  0  0  0  0  0  0  0
   34.9211   29.8667   11.6144 C   0  0  0  0  0  0  0  0  0  0  0  0
   34.5951   28.8417   12.2307 O   0  0  0  0  0  0  0  0  0  0  0  0
   34.1879   30.2374   10.5518 N   0  0  0  0  0  0  0  0  0  0  0  0
   33.0785   29.3775   10.1130 C   0  0  0  0  0  0  0  0  0  0  0  0
   31.8958   30.2243    9.6673 C   0  0  0  0  0  0  0  0  0  0  0  0
   32.3493   31.0712    8.6175 O   0  0  0  0  0  0  0  0  0  0  0  0
   33.2449   32.0547    9.1729 C   0  0  0  0  0  0  0  0  0  0  0  0
   34.5176   31.3840    9.6989 C   0  0  0  0  0  0  0  0  0  0  0  0
   36.2438   31.4150   11.5452 H   0  0  0  0  0  0  0  0  0  0  0  0
   35.7333   30.3714   14.3822 C   0  0  0  0  0  0  0  0  0  0  0  0
   35.3080   31.4891   14.6397 O   0  0  0  0  0  0  0  0  0  0  0  0
   35.3390   29.2961   15.0613 N   0  0  0  0  0  0  0  0  0  0  0  0
   35.7193   28.4111   14.8579 H   0  0  0  0  0  0  0  0  0  0  0  0
   34.3364   29.4456   16.1105 C   0  0  0  0  0  0  0  0  0  0  0  0
   32.9837   29.4176   15.3907 C   0  0  0  0  0  0  0  0  0  0  0  0
   34.4688   28.3466   17.1502 C   0  0  0  0  0  0  0  0  0  0  0  0
   33.7390   28.8405   18.3140 N   0  0  0  0  0  0  0  0  0  0  0  0
   34.0005   29.6906   18.7360 H   0  0  0  0  0  0  0  0  0  0  0  0
   32.7055   28.1294   18.8101 C   0  0  0  0  0  0  0  0  0  0  0  0
   32.1627   27.1676   17.9967 C   0  0  0  0  0  0  0  0  0  0  0  0
   31.1121   26.4324   18.4609 C   0  0  0  0  0  0  0  0  0  0  0  0
   32.1826   28.3345   20.0900 C   0  0  0  0  0  0  0  0  0  0  0  0
   31.1022   27.5669   20.5431 C   0  0  0  0  0  0  0  0  0  0  0  0
   30.5558   26.5754   19.7277 C   0  0  0  0  0  0  0  0  0  0  0  0
   29.4796   25.7721   20.0974 O   0  0  0  0  0  0  0  0  0  0  0  0
   28.0691   25.9704   19.8136 C   0  0  0  0  0  0  0  0  0  0  0  0
   27.6787   25.3720   18.6989 F   0  0  0  0  0  0  0  0  0  0  0  0
   27.3395   25.5018   20.8084 F   0  0  0  0  0  0  0  0  0  0  0  0
   27.8228   27.2695   19.6789 F   0  0  0  0  0  0  0  0  0  0  0  0
   37.9777   31.0078   13.4706 C   0  0  0  0  0  0  0  0  0  0  0  0
   39.0395   29.1499   12.1813 O   0  0  0  0  0  0  0  0  0  0  0  0
   39.3948   30.1715   13.1413 S   0  0  0  0  0  0  0  0  0  0  0  0
   40.4137   31.0922   12.7147 O   0  0  0  0  0  0  0  0  0  0  0  0
   39.7870   29.4596   14.5974 C   0  0  0  0  0  0  0  0  0  0  0  0
   40.9149   30.1119   15.3391 C   0  0  0  0  0  0  0  0  0  0  0  0
   40.6442   31.2638   16.0727 C   0  0  0  0  0  0  0  0  0  0  0  0
   41.6544   31.8878   16.8003 C   0  0  0  0  0  0  0  0  0  0  0  0
   42.9153   31.3211   16.7871 C   0  0  0  0  0  0  0  0  0  0  0  0
   43.1814   30.1644   16.0580 C   0  0  0  0  0  0  0  0  0  0  0  0
   42.1780   29.5325   15.3222 C   0  0  0  0  0  0  0  0  0  0  0  0
 33 34  2  0  0  0
 34 35  2  0  0  0
 34 36  1  0  0  0
 34 32  1  0  0  0
 36 37  1  0  0  0
 37 38  1  0  0  0
 37 42  2  0  0  0
 38 39  2  0  0  0
 39 40  1  0  0  0
 40 41  2  0  0  0
 41 42  1  0  0  0
 32  1  1  0  0  0
  1  2  1  0  0  0
  1 12  1  0  0  0
  2  3  1  0  0  0
  3  4  2  0  0  0
  3  5  1  0  0  0
  5  6  1  0  0  0
  5 10  1  0  0  0
  6  7  1  0  0  0
  7  8  1  0  0  0
  8  9  1  0  0  0
  9 10  1  0  0  0
 12 13  2  0  0  0
 12 14  1  0  0  0
 14 16  1  0  0  0
 16 17  1  0  0  0
 16 18  1  0  0  0
 18 19  1  0  0  0
 19 21  1  0  0  0
 21 22  2  0  0  0
 21 24  1  0  0  0
 22 23  1  0  0  0
 23 26  2  0  0  0
 24 25  2  0  0  0
 25 26  1  0  0  0
 26 27  1  0  0  0
 27 28  1  0  0  0
 28 29  1  0  0  0
 28 30  1  0  0  0
 28 31  1  0  0  0
  2 11  1  0  0  0
 14 15  1  0  0  0
 19 20  1  0  0  0
M  END
> <minimizedAffinity>
-7.88679

$$$$
2HHN_GNQ_B_901


 42 44  0  0  0  0  0  0  0  0999 V2000
   44.1981   29.9462   14.3886 C   0  0  0  0  0  0  0  0  0  0  0  0
   44.0060   30.7287   13.1472 N   0  0  0  0  0  0  0  0  0  0  0  0
   44.1789   30.1140   11.9555 C   0  0  0  0  0  0  0  0  0  0  0  0
   44.5060   28.9191   11.9141 O   0  0  0  0  0  0  0  0  0  0  0  0
   43.9688   30.7627   10.7982 N   0  0  0  0  0  0  0  0  0  0  0  0
   44.2084   30.0583    9.5296 C   0  0  0  0  0  0  0  0  0  0  0  0
   43.1501   30.4378    8.5047 C   0  0  0  0  0  0  0  0  0  0  0  0
   43.2047   31.8500    8.3384 O   0  0  0  0  0  0  0  0  0  0  0  0
   42.7124   32.4751    9.5404 C   0  0  0  0  0  0  0  0  0  0  0  0
   43.6537   32.1926   10.7153 C   0  0  0  0  0  0  0  0  0  0  0  0
   43.7565   31.6802   13.1884 H   0  0  0  0  0  0  0  0  0  0  0  0
   42.8322   29.8909   15.0286 C   0  0  0  0  0  0  0  0  0  0  0  0
   42.6104   29.0971   15.9325 O   0  0  0  0  0  0  0  0  0  0  0  0
   41.9043   30.7442   14.5997 N   0  0  0  0  0  0  0  0  0  0  0  0
   42.0949   31.3518   13.8488 H   0  0  0  0  0  0  0  0  0  0  0  0
   40.6017   30.7677   15.2562 C   0  0  0  0  0  0  0  0  0  0  0  0
   40.6261   31.9980   16.1698 C   0  0  0  0  0  0  0  0  0  0  0  0
   39.4786   30.8192   14.2353 C   0  0  0  0  0  0  0  0  0  0  0  0
   38.8669   29.4946   14.2824 N   0  0  0  0  0  0  0  0  0  0  0  0
   39.4251   28.6987   14.4381 H   0  0  0  0  0  0  0  0  0  0  0  0
   37.5352   29.3634   14.1119 C   0  0  0  0  0  0  0  0  0  0  0  0
   36.9582   30.1050   13.1128 C   0  0  0  0  0  0  0  0  0  0  0  0
   35.6128   30.0039   12.9141 C   0  0  0  0  0  0  0  0  0  0  0  0
   36.7445   28.5208   14.8984 C   0  0  0  0  0  0  0  0  0  0  0  0
   35.3644   28.4356   14.6751 C   0  0  0  0  0  0  0  0  0  0  0  0
   34.7732   29.1741   13.6496 C   0  0  0  0  0  0  0  0  0  0  0  0
   33.4102   29.1521   13.3635 O   0  0  0  0  0  0  0  0  0  0  0  0
   32.7354   28.5181   12.2446 C   0  0  0  0  0  0  0  0  0  0  0  0
   31.7699   29.2666   11.7340 F   0  0  0  0  0  0  0  0  0  0  0  0
   33.6029   28.2563   11.2853 F   0  0  0  0  0  0  0  0  0  0  0  0
   32.1872   27.3763   12.6475 F   0  0  0  0  0  0  0  0  0  0  0  0
   45.2132   30.6066   15.3316 C   0  0  0  0  0  0  0  0  0  0  0  0
   46.5470   28.5735   15.9052 O   0  0  0  0  0  0  0  0  0  0  0  0
   46.7248   29.8784   15.3073 S   0  0  0  0  0  0  0  0  0  0  0  0
   47.2416   29.8775   13.9654 O   0  0  0  0  0  0  0  0  0  0  0  0
   47.6463   30.8354   16.3151 C   0  0  0  0  0  0  0  0  0  0  0  0
   48.7291   30.1139   17.0598 C   0  0  0  0  0  0  0  0  0  0  0  0
   48.9800   28.7834   16.7355 C   0  0  0  0  0  0  0  0  0  0  0  0
   49.9950   28.0816   17.3810 C   0  0  0  0  0  0  0  0  0  0  0  0
   50.7500   28.7474   18.3285 C   0  0  0  0  0  0  0  0  0  0  0  0
   50.5014   30.0808   18.6456 C   0  0  0  0  0  0  0  0  0  0  0  0
   49.4846   30.7932   18.0081 C   0  0  0  0  0  0  0  0  0  0  0  0
 33 34  2  0  0  0
 34 35  2  0  0  0
 34 36  1  0  0  0
 34 32  1  0  0  0
 36 37  1  0  0  0
 37 38  1  0  0  0
 37 42  2  0  0  0
 38 39  2  0  0  0
 39 40  1  0  0  0
 40 41  2  0  0  0
 41 42  1  0  0  0
 32  1  1  0  0  0
  1  2  1  0  0  0
  1 12  1  0  0  0
  2  3  1  0  0  0
  3  4  2  0  0  0
  3  5  1  0  0  0
  5  6  1  0  0  0
  5 10  1  0  0  0
  6  7  1  0  0  0
  7  8  1  0  0  0
  8  9  1  0  0  0
  9 10  1  0  0  0
 12 13  2  0  0  0
 12 14  1  0  0  0
 14 16  1  0  0  0
 16 17  1  0  0  0
 16 18  1  0  0  0
 18 19  1  0  0  0
 19 21  1  0  0  0
 21 22  2  0  0  0
 21 24  1  0  0  0
 22 23  1  0  0  0
 23 26  2  0  0  0
 24 25  2  0  0  0
 25 26  1  0  0  0
 26 27  1  0  0  0
 27 28  1  0  0  0
 28 29  1  0  0  0
 28 30  1  0  0  0
 28 31  1  0  0  0
  2 11  1  0  0  0
 14 15  1  0  0  0
 19 20  1  0  0  0
M  END
> <minimizedAffinity>
-7.83357

$$$$
2HHN_GNQ_B_901


 42 44  0  0  0  0  0  0  0  0999 V2000
   35.4543   32.7739   13.3768 C   0  0  0  0  0  0  0  0  0  0  0  0
   36.7226   32.0348   13.5655 N   0  0  0  0  0  0  0  0  0  0  0  0
   37.8307   32.7217   13.9235 C   0  0  0  0  0  0  0  0  0  0  0  0
   37.7781   33.9508   14.0754 O   0  0  0  0  0  0  0  0  0  0  0  0
   38.9957   32.0953   14.1566 N   0  0  0  0  0  0  0  0  0  0  0  0
   40.1801   32.8940   14.5060 C   0  0  0  0  0  0  0  0  0  0  0  0
   41.0050   32.1820   15.5676 C   0  0  0  0  0  0  0  0  0  0  0  0
   41.3671   30.9095   15.0439 O   0  0  0  0  0  0  0  0  0  0  0  0
   40.1843   30.0892   14.9666 C   0  0  0  0  0  0  0  0  0  0  0  0
   39.2028   30.6599   13.9384 C   0  0  0  0  0  0  0  0  0  0  0  0
   36.7587   31.0600   13.4326 H   0  0  0  0  0  0  0  0  0  0  0  0
   34.4808   32.1252   14.3308 C   0  0  0  0  0  0  0  0  0  0  0  0
   33.7949   32.8166   15.0710 O   0  0  0  0  0  0  0  0  0  0  0  0
   34.3777   30.7977   14.3143 N   0  0  0  0  0  0  0  0  0  0  0  0
   34.9630   30.2596   13.7337 H   0  0  0  0  0  0  0  0  0  0  0  0
   33.3868   30.1507   15.1673 C   0  0  0  0  0  0  0  0  0  0  0  0
   32.7902   29.0228   14.3184 C   0  0  0  0  0  0  0  0  0  0  0  0
   34.0212   29.6441   16.4507 C   0  0  0  0  0  0  0  0  0  0  0  0
   33.1448   30.1203   17.5166 N   0  0  0  0  0  0  0  0  0  0  0  0
   33.1923   31.0581   17.8123 H   0  0  0  0  0  0  0  0  0  0  0  0
   32.2697   29.2725   18.0956 C   0  0  0  0  0  0  0  0  0  0  0  0
   32.7765   28.3746   19.0001 C   0  0  0  0  0  0  0  0  0  0  0  0
   31.9235   27.4968   19.6015 C   0  0  0  0  0  0  0  0  0  0  0  0
   30.9010   29.2774   17.8121 C   0  0  0  0  0  0  0  0  0  0  0  0
   30.0457   28.3647   18.4424 C   0  0  0  0  0  0  0  0  0  0  0  0
   30.5515   27.4596   19.3761 C   0  0  0  0  0  0  0  0  0  0  0  0
   29.7733   26.5167   20.0435 O   0  0  0  0  0  0  0  0  0  0  0  0
   29.4457   25.1639   19.6289 C   0  0  0  0  0  0  0  0  0  0  0  0
   28.1491   24.9865   19.4277 F   0  0  0  0  0  0  0  0  0  0  0  0
   30.0789   24.8704   18.5089 F   0  0  0  0  0  0  0  0  0  0  0  0
   29.8263   24.3075   20.5713 F   0  0  0  0  0  0  0  0  0  0  0  0
   34.9443   32.6786   11.9324 C   0  0  0  0  0  0  0  0  0  0  0  0
   36.8311   31.9010   10.4913 O   0  0  0  0  0  0  0  0  0  0  0  0
   35.6044   31.3992   11.0702 S   0  0  0  0  0  0  0  0  0  0  0  0
   35.7501   30.2572   11.9318 O   0  0  0  0  0  0  0  0  0  0  0  0
   34.4908   31.1138    9.8622 C   0  0  0  0  0  0  0  0  0  0  0  0
   33.4512   30.0840   10.1883 C   0  0  0  0  0  0  0  0  0  0  0  0
   32.1921   30.5210   10.5910 C   0  0  0  0  0  0  0  0  0  0  0  0
   31.1865   29.6010   10.8767 C   0  0  0  0  0  0  0  0  0  0  0  0
   31.4697   28.2559   10.7293 C   0  0  0  0  0  0  0  0  0  0  0  0
   32.7281   27.8219   10.3191 C   0  0  0  0  0  0  0  0  0  0  0  0
   33.7448   28.7344   10.0335 C   0  0  0  0  0  0  0  0  0  0  0  0
 33 34  2  0  0  0
 34 35  2  0  0  0
 34 36  1  0  0  0
 34 32  1  0  0  0
 36 37  1  0  0  0
 37 38  1  0  0  0
 37 42  2  0  0  0
 38 39  2  0  0  0
 39 40  1  0  0  0
 40 41  2  0  0  0
 41 42  1  0  0  0
 32  1  1  0  0  0
  1  2  1  0  0  0
  1 12  1  0  0  0
  2  3  1  0  0  0
  3  4  2  0  0  0
  3  5  1  0  0  0
  5  6  1  0  0  0
  5 10  1  0  0  0
  6  7  1  0  0  0
  7  8  1  0  0  0
  8  9  1  0  0  0
  9 10  1  0  0  0
 12 13  2  0  0  0
 12 14  1  0  0  0
 14 16  1  0  0  0
 16 17  1  0  0  0
 16 18  1  0  0  0
 18 19  1  0  0  0
 19 21  1  0  0  0
 21 22  2  0  0  0
 21 24  1  0  0  0
 22 23  1  0  0  0
 23 26  2  0  0  0
 24 25  2  0  0  0
 25 26  1  0  0  0
 26 27  1  0  0  0
 27 28  1  0  0  0
 28 29  1  0  0  0
 28 30  1  0  0  0
 28 31  1  0  0  0
  2 11  1  0  0  0
 14 15  1  0  0  0
 19 20  1  0  0  0
M  END
> <minimizedAffinity>
-7.74981

$$$$
2HHN_GNQ_B_901


 42 44  0  0  0  0  0  0  0  0999 V2000
   32.4878   30.4308   15.8002 C   0  0  0  0  0  0  0  0  0  0  0  0
   31.6339   31.3731   16.5573 N   0  0  0  0  0  0  0  0  0  0  0  0
   30.3203   31.4555   16.2479 C   0  0  0  0  0  0  0  0  0  0  0  0
   29.8517   30.7597   15.3354 O   0  0  0  0  0  0  0  0  0  0  0  0
   29.4899   32.2567   16.9355 N   0  0  0  0  0  0  0  0  0  0  0  0
   28.0777   32.3377   16.5332 C   0  0  0  0  0  0  0  0  0  0  0  0
   27.1812   32.4213   17.7595 C   0  0  0  0  0  0  0  0  0  0  0  0
   27.5810   33.5672   18.5025 O   0  0  0  0  0  0  0  0  0  0  0  0
   28.8766   33.3128   19.0807 C   0  0  0  0  0  0  0  0  0  0  0  0
   29.9367   33.1810   17.9829 C   0  0  0  0  0  0  0  0  0  0  0  0
   32.0156   31.9302   17.2736 H   0  0  0  0  0  0  0  0  0  0  0  0
   32.5079   29.1709   16.6313 C   0  0  0  0  0  0  0  0  0  0  0  0
   32.4523   28.0766   16.0873 O   0  0  0  0  0  0  0  0  0  0  0  0
   32.6170   29.2936   17.9527 N   0  0  0  0  0  0  0  0  0  0  0  0
   32.6272   30.1847   18.3713 H   0  0  0  0  0  0  0  0  0  0  0  0
   32.7210   28.0914   18.7725 C   0  0  0  0  0  0  0  0  0  0  0  0
   34.1494   28.0972   19.3279 C   0  0  0  0  0  0  0  0  0  0  0  0
   31.6679   28.0860   19.8667 C   0  0  0  0  0  0  0  0  0  0  0  0
   30.4940   28.7077   19.2615 N   0  0  0  0  0  0  0  0  0  0  0  0
   30.4727   29.6806   19.1122 H   0  0  0  0  0  0  0  0  0  0  0  0
   29.4382   27.9462   18.9074 C   0  0  0  0  0  0  0  0  0  0  0  0
   29.5588   26.5916   19.0847 C   0  0  0  0  0  0  0  0  0  0  0  0
   28.5147   25.7882   18.7323 C   0  0  0  0  0  0  0  0  0  0  0  0
   28.2578   28.4766   18.3792 C   0  0  0  0  0  0  0  0  0  0  0  0
   27.2000   27.6301   18.0238 C   0  0  0  0  0  0  0  0  0  0  0  0
   27.3090   26.2526   18.2171 C   0  0  0  0  0  0  0  0  0  0  0  0
   26.3092   25.3409   17.8869 O   0  0  0  0  0  0  0  0  0  0  0  0
   25.7287   25.0747   16.5824 C   0  0  0  0  0  0  0  0  0  0  0  0
   24.9532   26.0583   16.1532 F   0  0  0  0  0  0  0  0  0  0  0  0
   26.6858   24.8885   15.6932 F   0  0  0  0  0  0  0  0  0  0  0  0
   24.9845   23.9753   16.6449 F   0  0  0  0  0  0  0  0  0  0  0  0
   33.9095   30.9751   15.6049 C   0  0  0  0  0  0  0  0  0  0  0  0
   33.1681   31.5799   13.2970 O   0  0  0  0  0  0  0  0  0  0  0  0
   34.3533   31.1312   13.9941 S   0  0  0  0  0  0  0  0  0  0  0  0
   35.4970   31.9962   13.8874 O   0  0  0  0  0  0  0  0  0  0  0  0
   34.7212   29.5731   13.5276 C   0  0  0  0  0  0  0  0  0  0  0  0
   33.8986   29.0395   12.3935 C   0  0  0  0  0  0  0  0  0  0  0  0
   34.2920   29.3421   11.0927 C   0  0  0  0  0  0  0  0  0  0  0  0
   33.5749   28.8447   10.0075 C   0  0  0  0  0  0  0  0  0  0  0  0
   32.4847   28.0332   10.2607 C   0  0  0  0  0  0  0  0  0  0  0  0
   32.0979   27.7262   11.5631 C   0  0  0  0  0  0  0  0  0  0  0  0
   32.8066   28.2218   12.6585 C   0  0  0  0  0  0  0  0  0  0  0  0
 33 34  2  0  0  0
 34 35  2  0  0  0
 34 36  1  0  0  0
 34 32  1  0  0  0
 36 37  1  0  0  0
 37 38  1  0  0  0
 37 42  2  0  0  0
 38 39  2  0  0  0
 39 40  1  0  0  0
 40 41  2  0  0  0
 41 42  1  0  0  0
 32  1  1  0  0  0
  1  2  1  0  0  0
  1 12  1  0  0  0
  2  3  1  0  0  0
  3  4  2  0  0  0
  3  5  1  0  0  0
  5  6  1  0  0  0
  5 10  1  0  0  0
  6  7  1  0  0  0
  7  8  1  0  0  0
  8  9  1  0  0  0
  9 10  1  0  0  0
 12 13  2  0  0  0
 12 14  1  0  0  0
 14 16  1  0  0  0
 16 17  1  0  0  0
 16 18  1  0  0  0
 18 19  1  0  0  0
 19 21  1  0  0  0
 21 22  2  0  0  0
 21 24  1  0  0  0
 22 23  1  0  0  0
 23 26  2  0  0  0
 24 25  2  0  0  0
 25 26  1  0  0  0
 26 27  1  0  0  0
 27 28  1  0  0  0
 28 29  1  0  0  0
 28 30  1  0  0  0
 28 31  1  0  0  0
  2 11  1  0  0  0
 14 15  1  0  0  0
 19 20  1  0  0  0
M  END
> <minimizedAffinity>
-7.73362

$$$$
