3EJQ_HN3_A_1049


 25 27  0  0  0  0  0  0  0  0999 V2000
   29.0977   65.1691    8.1313 C   0  0  0  0  0  0  0  0  0  0  0  0
   29.0706   65.0753    6.5983 C   0  0  0  0  0  0  0  0  0  0  0  0
   29.6254   66.3564    5.9573 C   0  0  0  0  0  0  0  0  0  0  0  0
   31.0530   66.6313    6.4482 C   0  0  0  0  0  0  0  0  0  0  0  0
   31.4930   67.8856    5.9417 O   0  0  0  0  0  0  0  0  0  0  0  0
   31.0962   66.6785    7.9720 C   0  0  0  0  0  0  0  0  0  0  0  0
   32.4775   66.7382    8.6310 C   0  0  0  0  0  0  0  0  0  0  0  0
   33.4886   65.9608    7.9477 O   0  0  0  0  0  0  0  0  0  0  0  0
   30.5086   65.4424    8.5294 N   0  0  0  0  0  0  0  0  0  0  0  0
   30.7779   65.5782    9.9882 C   0  0  0  0  0  0  0  0  0  0  0  0
   32.2138   66.1383   10.0136 C   0  0  0  0  0  0  0  0  0  0  0  0
   33.1353   65.0729   10.2715 O   0  0  0  0  0  0  0  0  0  0  0  0
   30.9071   68.5881    6.2644 H   0  0  0  0  0  0  0  0  0  0  0  0
   33.2099   65.0326    7.9067 H   0  0  0  0  0  0  0  0  0  0  0  0
   33.0418   64.3918    9.5873 H   0  0  0  0  0  0  0  0  0  0  0  0
   28.0529   66.1708    8.6651 C   0  0  0  0  0  0  0  0  0  0  0  0
   25.9438   65.7931    7.5785 O   0  0  0  0  0  0  0  0  0  0  0  0
   26.6171   65.6708    8.5999 C   0  0  0  0  0  0  0  0  0  0  0  0
   26.0130   65.0116    9.8266 C   0  0  0  0  0  0  0  0  0  0  0  0
   25.5147   63.7027    9.7411 C   0  0  0  0  0  0  0  0  0  0  0  0
   24.9587   63.0719   10.8675 C   0  0  0  0  0  0  0  0  0  0  0  0
   24.8771   63.7537   12.0837 C   0  0  0  0  0  0  0  0  0  0  0  0
   24.2820   63.0991   13.3157 C   0  0  0  0  0  0  0  0  0  0  0  0
   25.3791   65.0497   12.1789 C   0  0  0  0  0  0  0  0  0  0  0  0
   25.9504   65.6759   11.0546 C   0  0  0  0  0  0  0  0  0  0  0  0
 17 18  2  0  0  0
 18 19  1  0  0  0
 18 16  1  0  0  0
 19 20  2  0  0  0
 19 25  1  0  0  0
 20 21  1  0  0  0
 21 22  2  0  0  0
 22 23  1  0  0  0
 22 24  1  0  0  0
 24 25  2  0  0  0
 16  1  1  0  0  0
  1  2  1  0  0  0
  1  9  1  0  0  0
  2  3  1  0  0  0
  3  4  1  0  0  0
  4  5  1  0  0  0
  4  6  1  0  0  0
  6  7  1  0  0  0
  6  9  1  0  0  0
  7  8  1  0  0  0
  7 11  1  0  0  0
  9 10  1  0  0  0
 10 11  1  0  0  0
 11 12  1  0  0  0
  5 13  1  0  0  0
  8 14  1  0  0  0
 12 15  1  0  0  0
M  END
> <minimizedAffinity>
-9.55963

$$$$
3EJQ_HN3_A_1049


 25 27  0  0  0  0  0  0  0  0999 V2000
   29.0351   65.1494    8.0127 C   0  0  0  0  0  0  0  0  0  0  0  0
   29.0625   65.0724    6.4788 C   0  0  0  0  0  0  0  0  0  0  0  0
   29.6343   66.3626    5.8718 C   0  0  0  0  0  0  0  0  0  0  0  0
   31.0426   66.6374    6.4158 C   0  0  0  0  0  0  0  0  0  0  0  0
   31.4949   67.8990    5.9389 O   0  0  0  0  0  0  0  0  0  0  0  0
   31.0316   66.6680    7.9407 C   0  0  0  0  0  0  0  0  0  0  0  0
   32.3885   66.7256    8.6487 C   0  0  0  0  0  0  0  0  0  0  0  0
   33.4265   65.9597    7.9932 O   0  0  0  0  0  0  0  0  0  0  0  0
   30.4299   65.4236    8.4635 N   0  0  0  0  0  0  0  0  0  0  0  0
   30.6470   65.5443    9.9322 C   0  0  0  0  0  0  0  0  0  0  0  0
   32.0787   66.1095   10.0145 C   0  0  0  0  0  0  0  0  0  0  0  0
   32.9950   65.0448   10.2932 O   0  0  0  0  0  0  0  0  0  0  0  0
   30.8951   68.5956    6.2484 H   0  0  0  0  0  0  0  0  0  0  0  0
   33.1532   65.0309    7.9322 H   0  0  0  0  0  0  0  0  0  0  0  0
   32.9285   64.3709    9.5987 H   0  0  0  0  0  0  0  0  0  0  0  0
   27.9679   66.1412    8.5202 C   0  0  0  0  0  0  0  0  0  0  0  0
   26.3058   64.4283    8.2463 O   0  0  0  0  0  0  0  0  0  0  0  0
   26.5881   65.5295    8.7144 C   0  0  0  0  0  0  0  0  0  0  0  0
   25.5462   66.3039    9.5012 C   0  0  0  0  0  0  0  0  0  0  0  0
   25.9478   67.3355   10.3635 C   0  0  0  0  0  0  0  0  0  0  0  0
   24.9980   68.0695   11.0948 C   0  0  0  0  0  0  0  0  0  0  0  0
   23.6397   67.7630   10.9857 C   0  0  0  0  0  0  0  0  0  0  0  0
   22.5923   68.5372   11.7627 C   0  0  0  0  0  0  0  0  0  0  0  0
   23.2327   66.7470   10.1239 C   0  0  0  0  0  0  0  0  0  0  0  0
   24.1828   66.0221    9.3793 C   0  0  0  0  0  0  0  0  0  0  0  0
 17 18  2  0  0  0
 18 19  1  0  0  0
 18 16  1  0  0  0
 19 20  2  0  0  0
 19 25  1  0  0  0
 20 21  1  0  0  0
 21 22  2  0  0  0
 22 23  1  0  0  0
 22 24  1  0  0  0
 24 25  2  0  0  0
 16  1  1  0  0  0
  1  2  1  0  0  0
  1  9  1  0  0  0
  2  3  1  0  0  0
  3  4  1  0  0  0
  4  5  1  0  0  0
  4  6  1  0  0  0
  6  7  1  0  0  0
  6  9  1  0  0  0
  7  8  1  0  0  0
  7 11  1  0  0  0
  9 10  1  0  0  0
 10 11  1  0  0  0
 11 12  1  0  0  0
  5 13  1  0  0  0
  8 14  1  0  0  0
 12 15  1  0  0  0
M  END
> <minimizedAffinity>
-9.38417

$$$$
3EJQ_HN3_A_1049


 25 27  0  0  0  0  0  0  0  0999 V2000
   29.0772   65.1478    8.0814 C   0  0  0  0  0  0  0  0  0  0  0  0
   29.0711   65.0613    6.5478 C   0  0  0  0  0  0  0  0  0  0  0  0
   29.6259   66.3492    5.9204 C   0  0  0  0  0  0  0  0  0  0  0  0
   31.0450   66.6311    6.4317 C   0  0  0  0  0  0  0  0  0  0  0  0
   31.4834   67.8908    5.9372 O   0  0  0  0  0  0  0  0  0  0  0  0
   31.0675   66.6711    7.9562 C   0  0  0  0  0  0  0  0  0  0  0  0
   32.4395   66.7366    8.6338 C   0  0  0  0  0  0  0  0  0  0  0  0
   33.4648   65.9693    7.9605 O   0  0  0  0  0  0  0  0  0  0  0  0
   30.4808   65.4285    8.4997 N   0  0  0  0  0  0  0  0  0  0  0  0
   30.7297   65.5588    9.9625 C   0  0  0  0  0  0  0  0  0  0  0  0
   32.1613   66.1282   10.0099 C   0  0  0  0  0  0  0  0  0  0  0  0
   33.0864   65.0677   10.2750 O   0  0  0  0  0  0  0  0  0  0  0  0
   30.8886   68.5878    6.2555 H   0  0  0  0  0  0  0  0  0  0  0  0
   33.1929   65.0395    7.9112 H   0  0  0  0  0  0  0  0  0  0  0  0
   33.0065   64.3893    9.5863 H   0  0  0  0  0  0  0  0  0  0  0  0
   28.0187   66.1400    8.6060 C   0  0  0  0  0  0  0  0  0  0  0  0
   25.7993   65.2211    8.6502 O   0  0  0  0  0  0  0  0  0  0  0  0
   26.8233   65.4810    9.2789 C   0  0  0  0  0  0  0  0  0  0  0  0
   26.9065   65.1443   10.7568 C   0  0  0  0  0  0  0  0  0  0  0  0
   27.4797   63.9301   11.1644 C   0  0  0  0  0  0  0  0  0  0  0  0
   27.5732   63.6033   12.5283 C   0  0  0  0  0  0  0  0  0  0  0  0
   27.0743   64.4794   13.4948 C   0  0  0  0  0  0  0  0  0  0  0  0
   27.1607   64.1535   14.9735 C   0  0  0  0  0  0  0  0  0  0  0  0
   26.5132   65.6912   13.0982 C   0  0  0  0  0  0  0  0  0  0  0  0
   26.4338   66.0257   11.7329 C   0  0  0  0  0  0  0  0  0  0  0  0
 17 18  2  0  0  0
 18 19  1  0  0  0
 18 16  1  0  0  0
 19 20  2  0  0  0
 19 25  1  0  0  0
 20 21  1  0  0  0
 21 22  2  0  0  0
 22 23  1  0  0  0
 22 24  1  0  0  0
 24 25  2  0  0  0
 16  1  1  0  0  0
  1  2  1  0  0  0
  1  9  1  0  0  0
  2  3  1  0  0  0
  3  4  1  0  0  0
  4  5  1  0  0  0
  4  6  1  0  0  0
  6  7  1  0  0  0
  6  9  1  0  0  0
  7  8  1  0  0  0
  7 11  1  0  0  0
  9 10  1  0  0  0
 10 11  1  0  0  0
 11 12  1  0  0  0
  5 13  1  0  0  0
  8 14  1  0  0  0
 12 15  1  0  0  0
M  END
> <minimizedAffinity>
-9.32607

$$$$
3EJQ_HN3_A_1049


 25 27  0  0  0  0  0  0  0  0999 V2000
   26.2141   65.5129   11.1906 C   0  0  0  0  0  0  0  0  0  0  0  0
   24.7482   65.6493   11.6292 C   0  0  0  0  0  0  0  0  0  0  0  0
   24.1834   64.2984   12.0937 C   0  0  0  0  0  0  0  0  0  0  0  0
   25.0296   63.7239   13.2377 C   0  0  0  0  0  0  0  0  0  0  0  0
   24.5634   62.4193   13.5605 O   0  0  0  0  0  0  0  0  0  0  0  0
   26.4950   63.6300   12.8256 C   0  0  0  0  0  0  0  0  0  0  0  0
   27.5069   63.2713   13.9179 C   0  0  0  0  0  0  0  0  0  0  0  0
   27.2017   63.8417   15.2121 O   0  0  0  0  0  0  0  0  0  0  0  0
   26.9670   64.9457   12.3461 N   0  0  0  0  0  0  0  0  0  0  0  0
   28.4261   64.7205   12.1484 C   0  0  0  0  0  0  0  0  0  0  0  0
   28.8056   63.8771   13.3815 C   0  0  0  0  0  0  0  0  0  0  0  0
   29.3994   64.7237   14.3722 O   0  0  0  0  0  0  0  0  0  0  0  0
   24.6492   61.8440   12.7843 H   0  0  0  0  0  0  0  0  0  0  0  0
   27.1620   64.8081   15.1383 H   0  0  0  0  0  0  0  0  0  0  0  0
   28.7759   65.4268   14.6125 H   0  0  0  0  0  0  0  0  0  0  0  0
   26.3482   64.7336    9.8659 C   0  0  0  0  0  0  0  0  0  0  0  0
   25.6189   66.0629    8.0023 O   0  0  0  0  0  0  0  0  0  0  0  0
   26.5666   65.6126    8.6429 C   0  0  0  0  0  0  0  0  0  0  0  0
   27.9870   65.9315    8.2126 C   0  0  0  0  0  0  0  0  0  0  0  0
   28.2768   66.1269    6.8536 C   0  0  0  0  0  0  0  0  0  0  0  0
   29.5840   66.4308    6.4356 C   0  0  0  0  0  0  0  0  0  0  0  0
   30.6164   66.5203    7.3719 C   0  0  0  0  0  0  0  0  0  0  0  0
   32.0365   66.8461    6.9505 C   0  0  0  0  0  0  0  0  0  0  0  0
   30.3343   66.3376    8.7239 C   0  0  0  0  0  0  0  0  0  0  0  0
   29.0220   66.0489    9.1444 C   0  0  0  0  0  0  0  0  0  0  0  0
 17 18  2  0  0  0
 18 19  1  0  0  0
 18 16  1  0  0  0
 19 20  2  0  0  0
 19 25  1  0  0  0
 20 21  1  0  0  0
 21 22  2  0  0  0
 22 23  1  0  0  0
 22 24  1  0  0  0
 24 25  2  0  0  0
 16  1  1  0  0  0
  1  2  1  0  0  0
  1  9  1  0  0  0
  2  3  1  0  0  0
  3  4  1  0  0  0
  4  5  1  0  0  0
  4  6  1  0  0  0
  6  7  1  0  0  0
  6  9  1  0  0  0
  7  8  1  0  0  0
  7 11  1  0  0  0
  9 10  1  0  0  0
 10 11  1  0  0  0
 11 12  1  0  0  0
  5 13  1  0  0  0
  8 14  1  0  0  0
 12 15  1  0  0  0
M  END
> <minimizedAffinity>
-8.57246

$$$$
3EJQ_HN3_A_1049


 25 27  0  0  0  0  0  0  0  0999 V2000
   25.7894   64.5588   11.4872 C   0  0  0  0  0  0  0  0  0  0  0  0
   26.5889   63.3120   11.0800 C   0  0  0  0  0  0  0  0  0  0  0  0
   28.0364   63.3946   11.5878 C   0  0  0  0  0  0  0  0  0  0  0  0
   28.0647   63.5703   13.1120 C   0  0  0  0  0  0  0  0  0  0  0  0
   29.4065   63.7724   13.5390 O   0  0  0  0  0  0  0  0  0  0  0  0
   27.2333   64.7795   13.5277 C   0  0  0  0  0  0  0  0  0  0  0  0
   26.9867   64.9767   15.0264 C   0  0  0  0  0  0  0  0  0  0  0  0
   26.8022   63.7427   15.7590 O   0  0  0  0  0  0  0  0  0  0  0  0
   25.8686   64.6653   12.9725 N   0  0  0  0  0  0  0  0  0  0  0  0
   25.1603   65.8159   13.5996 C   0  0  0  0  0  0  0  0  0  0  0  0
   25.6889   65.7868   15.0473 C   0  0  0  0  0  0  0  0  0  0  0  0
   24.7247   65.1494   15.8928 O   0  0  0  0  0  0  0  0  0  0  0  0
   29.7614   64.5730   13.1219 H   0  0  0  0  0  0  0  0  0  0  0  0
   26.0503   63.2554   15.3875 H   0  0  0  0  0  0  0  0  0  0  0  0
   24.5539   64.2513   15.5686 H   0  0  0  0  0  0  0  0  0  0  0  0
   26.2409   65.8116   10.7083 C   0  0  0  0  0  0  0  0  0  0  0  0
   25.5147   65.1452    8.5173 O   0  0  0  0  0  0  0  0  0  0  0  0
   26.4261   65.5861    9.2147 C   0  0  0  0  0  0  0  0  0  0  0  0
   27.7677   65.9128    8.5840 C   0  0  0  0  0  0  0  0  0  0  0  0
   27.8744   66.0226    7.1892 C   0  0  0  0  0  0  0  0  0  0  0  0
   29.1058   66.3321    6.5862 C   0  0  0  0  0  0  0  0  0  0  0  0
   30.2456   66.5132    7.3729 C   0  0  0  0  0  0  0  0  0  0  0  0
   31.5877   66.8474    6.7506 C   0  0  0  0  0  0  0  0  0  0  0  0
   30.1452   66.4159    8.7589 C   0  0  0  0  0  0  0  0  0  0  0  0
   28.9084   66.1214    9.3640 C   0  0  0  0  0  0  0  0  0  0  0  0
 17 18  2  0  0  0
 18 19  1  0  0  0
 18 16  1  0  0  0
 19 20  2  0  0  0
 19 25  1  0  0  0
 20 21  1  0  0  0
 21 22  2  0  0  0
 22 23  1  0  0  0
 22 24  1  0  0  0
 24 25  2  0  0  0
 16  1  1  0  0  0
  1  2  1  0  0  0
  1  9  1  0  0  0
  2  3  1  0  0  0
  3  4  1  0  0  0
  4  5  1  0  0  0
  4  6  1  0  0  0
  6  7  1  0  0  0
  6  9  1  0  0  0
  7  8  1  0  0  0
  7 11  1  0  0  0
  9 10  1  0  0  0
 10 11  1  0  0  0
 11 12  1  0  0  0
  5 13  1  0  0  0
  8 14  1  0  0  0
 12 15  1  0  0  0
M  END
> <minimizedAffinity>
-8.45233

$$$$
3EJQ_HN3_A_1049


 25 27  0  0  0  0  0  0  0  0999 V2000
   25.1189   64.4160    9.9256 C   0  0  0  0  0  0  0  0  0  0  0  0
   25.3512   62.9946   10.4595 C   0  0  0  0  0  0  0  0  0  0  0  0
   25.6077   63.0092   11.9740 C   0  0  0  0  0  0  0  0  0  0  0  0
   24.4371   63.6705   12.7137 C   0  0  0  0  0  0  0  0  0  0  0  0
   24.7566   63.7865   14.0950 O   0  0  0  0  0  0  0  0  0  0  0  0
   24.1699   65.0648   12.1563 C   0  0  0  0  0  0  0  0  0  0  0  0
   22.9060   65.7813   12.6410 C   0  0  0  0  0  0  0  0  0  0  0  0
   21.7737   64.9035   12.8433 O   0  0  0  0  0  0  0  0  0  0  0  0
   23.9773   64.9921   10.6929 N   0  0  0  0  0  0  0  0  0  0  0  0
   23.5704   66.3820   10.3445 C   0  0  0  0  0  0  0  0  0  0  0  0
   22.6093   66.7481   11.4927 C   0  0  0  0  0  0  0  0  0  0  0  0
   21.2568   66.5864   11.0506 O   0  0  0  0  0  0  0  0  0  0  0  0
   25.5478   64.3379   14.1987 H   0  0  0  0  0  0  0  0  0  0  0  0
   21.5663   64.4468   12.0130 H   0  0  0  0  0  0  0  0  0  0  0  0
   21.1182   65.6708   10.7621 H   0  0  0  0  0  0  0  0  0  0  0  0
   26.4144   65.2538    9.9367 C   0  0  0  0  0  0  0  0  0  0  0  0
   26.1253   65.7720    7.6087 O   0  0  0  0  0  0  0  0  0  0  0  0
   26.9018   65.6696    8.5564 C   0  0  0  0  0  0  0  0  0  0  0  0
   28.3784   65.9591    8.3559 C   0  0  0  0  0  0  0  0  0  0  0  0
   28.8514   66.3250    7.0865 C   0  0  0  0  0  0  0  0  0  0  0  0
   30.2136   66.6047    6.8820 C   0  0  0  0  0  0  0  0  0  0  0  0
   31.1176   66.4995    7.9414 C   0  0  0  0  0  0  0  0  0  0  0  0
   32.5930   66.7946    7.7507 C   0  0  0  0  0  0  0  0  0  0  0  0
   30.6537   66.1468    9.2068 C   0  0  0  0  0  0  0  0  0  0  0  0
   29.2867   65.8820    9.4153 C   0  0  0  0  0  0  0  0  0  0  0  0
 17 18  2  0  0  0
 18 19  1  0  0  0
 18 16  1  0  0  0
 19 20  2  0  0  0
 19 25  1  0  0  0
 20 21  1  0  0  0
 21 22  2  0  0  0
 22 23  1  0  0  0
 22 24  1  0  0  0
 24 25  2  0  0  0
 16  1  1  0  0  0
  1  2  1  0  0  0
  1  9  1  0  0  0
  2  3  1  0  0  0
  3  4  1  0  0  0
  4  5  1  0  0  0
  4  6  1  0  0  0
  6  7  1  0  0  0
  6  9  1  0  0  0
  7  8  1  0  0  0
  7 11  1  0  0  0
  9 10  1  0  0  0
 10 11  1  0  0  0
 11 12  1  0  0  0
  5 13  1  0  0  0
  8 14  1  0  0  0
 12 15  1  0  0  0
M  END
> <minimizedAffinity>
-8.27652

$$$$
3EJQ_HN3_A_1049


 25 27  0  0  0  0  0  0  0  0999 V2000
   26.2284   66.4429   10.5348 C   0  0  0  0  0  0  0  0  0  0  0  0
   26.0301   67.8694   11.0689 C   0  0  0  0  0  0  0  0  0  0  0  0
   24.5415   68.1696   11.3010 C   0  0  0  0  0  0  0  0  0  0  0  0
   23.9295   67.1490   12.2699 C   0  0  0  0  0  0  0  0  0  0  0  0
   22.5278   67.3714   12.3664 O   0  0  0  0  0  0  0  0  0  0  0  0
   24.1643   65.7274   11.7698 C   0  0  0  0  0  0  0  0  0  0  0  0
   23.7992   64.5827   12.7196 C   0  0  0  0  0  0  0  0  0  0  0  0
   24.0714   64.8652   14.1124 O   0  0  0  0  0  0  0  0  0  0  0  0
   25.6054   65.5143   11.5214 N   0  0  0  0  0  0  0  0  0  0  0  0
   25.6741   64.0598   11.2072 C   0  0  0  0  0  0  0  0  0  0  0  0
   24.7052   63.4477   12.2380 C   0  0  0  0  0  0  0  0  0  0  0  0
   25.4538   62.9158   13.3369 O   0  0  0  0  0  0  0  0  0  0  0  0
   22.1218   67.2603   11.4925 H   0  0  0  0  0  0  0  0  0  0  0  0
   25.0140   65.0652   14.2235 H   0  0  0  0  0  0  0  0  0  0  0  0
   25.9851   63.6214   13.7378 H   0  0  0  0  0  0  0  0  0  0  0  0
   25.7298   66.2977    9.0821 C   0  0  0  0  0  0  0  0  0  0  0  0
   26.1548   64.3958    7.6772 O   0  0  0  0  0  0  0  0  0  0  0  0
   26.6033   65.4105    8.2070 C   0  0  0  0  0  0  0  0  0  0  0  0
   28.0564   65.7936    7.9928 C   0  0  0  0  0  0  0  0  0  0  0  0
   28.9927   65.5778    9.0154 C   0  0  0  0  0  0  0  0  0  0  0  0
   30.3443   65.9185    8.8338 C   0  0  0  0  0  0  0  0  0  0  0  0
   30.7662   66.4979    7.6351 C   0  0  0  0  0  0  0  0  0  0  0  0
   32.2177   66.8762    7.4107 C   0  0  0  0  0  0  0  0  0  0  0  0
   29.8444   66.7056    6.6116 C   0  0  0  0  0  0  0  0  0  0  0  0
   28.4934   66.3499    6.7875 C   0  0  0  0  0  0  0  0  0  0  0  0
 17 18  2  0  0  0
 18 19  1  0  0  0
 18 16  1  0  0  0
 19 20  2  0  0  0
 19 25  1  0  0  0
 20 21  1  0  0  0
 21 22  2  0  0  0
 22 23  1  0  0  0
 22 24  1  0  0  0
 24 25  2  0  0  0
 16  1  1  0  0  0
  1  2  1  0  0  0
  1  9  1  0  0  0
  2  3  1  0  0  0
  3  4  1  0  0  0
  4  5  1  0  0  0
  4  6  1  0  0  0
  6  7  1  0  0  0
  6  9  1  0  0  0
  7  8  1  0  0  0
  7 11  1  0  0  0
  9 10  1  0  0  0
 10 11  1  0  0  0
 11 12  1  0  0  0
  5 13  1  0  0  0
  8 14  1  0  0  0
 12 15  1  0  0  0
M  END
> <minimizedAffinity>
-8.22874

$$$$
3EJQ_HN3_A_1049


 25 27  0  0  0  0  0  0  0  0999 V2000
   26.4518   64.0422   11.4142 C   0  0  0  0  0  0  0  0  0  0  0  0
   27.5164   63.0915   11.9818 C   0  0  0  0  0  0  0  0  0  0  0  0
   28.1138   63.6465   13.2838 C   0  0  0  0  0  0  0  0  0  0  0  0
   27.0112   63.8913   14.3225 C   0  0  0  0  0  0  0  0  0  0  0  0
   27.5726   64.5229   15.4669 O   0  0  0  0  0  0  0  0  0  0  0  0
   25.9260   64.7968   13.7491 C   0  0  0  0  0  0  0  0  0  0  0  0
   24.6522   64.9747   14.5806 C   0  0  0  0  0  0  0  0  0  0  0  0
   24.2370   63.7797   15.2828 O   0  0  0  0  0  0  0  0  0  0  0  0
   25.4242   64.2356   12.4774 N   0  0  0  0  0  0  0  0  0  0  0  0
   24.2821   65.1337   12.1488 C   0  0  0  0  0  0  0  0  0  0  0  0
   23.6099   65.3375   13.5209 C   0  0  0  0  0  0  0  0  0  0  0  0
   22.4761   64.4693   13.6285 O   0  0  0  0  0  0  0  0  0  0  0  0
   27.9588   65.3746   15.2093 H   0  0  0  0  0  0  0  0  0  0  0  0
   24.0873   63.0650   14.6443 H   0  0  0  0  0  0  0  0  0  0  0  0
   22.7617   63.5491   13.5165 H   0  0  0  0  0  0  0  0  0  0  0  0
   27.0765   65.3366   10.8534 C   0  0  0  0  0  0  0  0  0  0  0  0
   26.7662   64.8310    8.5254 O   0  0  0  0  0  0  0  0  0  0  0  0
   27.5258   65.2365    9.4029 C   0  0  0  0  0  0  0  0  0  0  0  0
   28.9428   65.6455    9.0437 C   0  0  0  0  0  0  0  0  0  0  0  0
   29.9504   65.6003   10.0192 C   0  0  0  0  0  0  0  0  0  0  0  0
   31.2703   65.9674    9.7046 C   0  0  0  0  0  0  0  0  0  0  0  0
   31.5884   66.4036    8.4165 C   0  0  0  0  0  0  0  0  0  0  0  0
   33.0034   66.8065    8.0479 C   0  0  0  0  0  0  0  0  0  0  0  0
   30.5955   66.4414    7.4401 C   0  0  0  0  0  0  0  0  0  0  0  0
   29.2767   66.0586    7.7510 C   0  0  0  0  0  0  0  0  0  0  0  0
 17 18  2  0  0  0
 18 19  1  0  0  0
 18 16  1  0  0  0
 19 20  2  0  0  0
 19 25  1  0  0  0
 20 21  1  0  0  0
 21 22  2  0  0  0
 22 23  1  0  0  0
 22 24  1  0  0  0
 24 25  2  0  0  0
 16  1  1  0  0  0
  1  2  1  0  0  0
  1  9  1  0  0  0
  2  3  1  0  0  0
  3  4  1  0  0  0
  4  5  1  0  0  0
  4  6  1  0  0  0
  6  7  1  0  0  0
  6  9  1  0  0  0
  7  8  1  0  0  0
  7 11  1  0  0  0
  9 10  1  0  0  0
 10 11  1  0  0  0
 11 12  1  0  0  0
  5 13  1  0  0  0
  8 14  1  0  0  0
 12 15  1  0  0  0
M  END
> <minimizedAffinity>
-7.84205

$$$$
3EJQ_HN3_A_1049


 25 27  0  0  0  0  0  0  0  0999 V2000
   25.0677   65.5618   10.3609 C   0  0  0  0  0  0  0  0  0  0  0  0
   26.0975   64.9724   11.3365 C   0  0  0  0  0  0  0  0  0  0  0  0
   26.7838   66.0801   12.1500 C   0  0  0  0  0  0  0  0  0  0  0  0
   25.7446   66.9129   12.9125 C   0  0  0  0  0  0  0  0  0  0  0  0
   26.3927   68.0059   13.5519 O   0  0  0  0  0  0  0  0  0  0  0  0
   24.6914   67.4623   11.9559 C   0  0  0  0  0  0  0  0  0  0  0  0
   23.4684   68.1426   12.5782 C   0  0  0  0  0  0  0  0  0  0  0  0
   23.0138   67.5257   13.8056 O   0  0  0  0  0  0  0  0  0  0  0  0
   24.1014   66.3581   11.1709 N   0  0  0  0  0  0  0  0  0  0  0  0
   23.0018   67.0334   10.4269 C   0  0  0  0  0  0  0  0  0  0  0  0
   22.4040   67.9737   11.4921 C   0  0  0  0  0  0  0  0  0  0  0  0
   21.2262   67.3767   12.0462 O   0  0  0  0  0  0  0  0  0  0  0  0
   26.8175   68.5659   12.8835 H   0  0  0  0  0  0  0  0  0  0  0  0
   22.7936   66.5960   13.6379 H   0  0  0  0  0  0  0  0  0  0  0  0
   21.4510   66.5156   12.4319 H   0  0  0  0  0  0  0  0  0  0  0  0
   25.7435   66.3215    9.2007 C   0  0  0  0  0  0  0  0  0  0  0  0
   26.1257   64.4519    7.7411 O   0  0  0  0  0  0  0  0  0  0  0  0
   26.5942   65.4462    8.2918 C   0  0  0  0  0  0  0  0  0  0  0  0
   28.0497   65.8157    8.0696 C   0  0  0  0  0  0  0  0  0  0  0  0
   28.4749   66.2445    6.8030 C   0  0  0  0  0  0  0  0  0  0  0  0
   29.8166   66.5987    6.5788 C   0  0  0  0  0  0  0  0  0  0  0  0
   30.7486   66.5059    7.6148 C   0  0  0  0  0  0  0  0  0  0  0  0
   32.2028   66.8806    7.4025 C   0  0  0  0  0  0  0  0  0  0  0  0
   30.3317   66.0908    8.8776 C   0  0  0  0  0  0  0  0  0  0  0  0
   28.9846   65.7512    9.1064 C   0  0  0  0  0  0  0  0  0  0  0  0
 17 18  2  0  0  0
 18 19  1  0  0  0
 18 16  1  0  0  0
 19 20  2  0  0  0
 19 25  1  0  0  0
 20 21  1  0  0  0
 21 22  2  0  0  0
 22 23  1  0  0  0
 22 24  1  0  0  0
 24 25  2  0  0  0
 16  1  1  0  0  0
  1  2  1  0  0  0
  1  9  1  0  0  0
  2  3  1  0  0  0
  3  4  1  0  0  0
  4  5  1  0  0  0
  4  6  1  0  0  0
  6  7  1  0  0  0
  6  9  1  0  0  0
  7  8  1  0  0  0
  7 11  1  0  0  0
  9 10  1  0  0  0
 10 11  1  0  0  0
 11 12  1  0  0  0
  5 13  1  0  0  0
  8 14  1  0  0  0
 12 15  1  0  0  0
M  END
> <minimizedAffinity>
-7.59464

$$$$
3EJQ_HN3_A_1049


 25 27  0  0  0  0  0  0  0  0999 V2000
   29.7006   65.2682   10.0183 C   0  0  0  0  0  0  0  0  0  0  0  0
   28.5344   64.6402    9.2405 C   0  0  0  0  0  0  0  0  0  0  0  0
   27.9818   65.6166    8.1911 C   0  0  0  0  0  0  0  0  0  0  0  0
   29.0904   66.0554    7.2251 C   0  0  0  0  0  0  0  0  0  0  0  0
   28.5837   67.0535    6.3472 O   0  0  0  0  0  0  0  0  0  0  0  0
   30.2723   66.6368    7.9940 C   0  0  0  0  0  0  0  0  0  0  0  0
   31.5468   66.9331    7.1980 C   0  0  0  0  0  0  0  0  0  0  0  0
   31.8245   65.9710    6.1536 O   0  0  0  0  0  0  0  0  0  0  0  0
   30.7288   65.6728    9.0169 N   0  0  0  0  0  0  0  0  0  0  0  0
   31.9634   66.3154    9.5476 C   0  0  0  0  0  0  0  0  0  0  0  0
   32.6353   66.8573    8.2706 C   0  0  0  0  0  0  0  0  0  0  0  0
   33.6698   65.9566    7.8588 O   0  0  0  0  0  0  0  0  0  0  0  0
   28.2928   67.8212    6.8639 H   0  0  0  0  0  0  0  0  0  0  0  0
   31.9064   65.0862    6.5425 H   0  0  0  0  0  0  0  0  0  0  0  0
   33.2903   65.0775    7.7037 H   0  0  0  0  0  0  0  0  0  0  0  0
   29.2232   66.3875   10.9667 C   0  0  0  0  0  0  0  0  0  0  0  0
   28.4020   65.3818   12.9880 O   0  0  0  0  0  0  0  0  0  0  0  0
   28.1319   65.9609   11.9377 C   0  0  0  0  0  0  0  0  0  0  0  0
   26.6842   66.2589   11.5917 C   0  0  0  0  0  0  0  0  0  0  0  0
   25.6881   65.3160   11.8876 C   0  0  0  0  0  0  0  0  0  0  0  0
   24.3409   65.5762   11.5824 C   0  0  0  0  0  0  0  0  0  0  0  0
   23.9820   66.7733   10.9588 C   0  0  0  0  0  0  0  0  0  0  0  0
   22.5368   67.0815   10.6170 C   0  0  0  0  0  0  0  0  0  0  0  0
   24.9641   67.7185   10.6714 C   0  0  0  0  0  0  0  0  0  0  0  0
   26.3116   67.4647   10.9914 C   0  0  0  0  0  0  0  0  0  0  0  0
 17 18  2  0  0  0
 18 19  1  0  0  0
 18 16  1  0  0  0
 19 20  2  0  0  0
 19 25  1  0  0  0
 20 21  1  0  0  0
 21 22  2  0  0  0
 22 23  1  0  0  0
 22 24  1  0  0  0
 24 25  2  0  0  0
 16  1  1  0  0  0
  1  2  1  0  0  0
  1  9  1  0  0  0
  2  3  1  0  0  0
  3  4  1  0  0  0
  4  5  1  0  0  0
  4  6  1  0  0  0
  6  7  1  0  0  0
  6  9  1  0  0  0
  7  8  1  0  0  0
  7 11  1  0  0  0
  9 10  1  0  0  0
 10 11  1  0  0  0
 11 12  1  0  0  0
  5 13  1  0  0  0
  8 14  1  0  0  0
 12 15  1  0  0  0
M  END
> <minimizedAffinity>
-7.58592

$$$$
