4XTV_44K_A_301


 42 46  0  0  0  0  0  0  0  0999 V2000
   -4.1678   -5.1149    6.1619 S   0  0  0  0  0  0  0  0  0  0  0  0
   -5.4396   -5.3978    5.5610 O   0  0  0  0  0  0  0  0  0  0  0  0
   -3.1380   -5.0996    5.1492 O   0  0  0  0  0  0  0  0  0  0  0  0
   -4.5591   -6.3850    8.3653 C   0  0  0  0  0  0  0  0  0  0  0  0
   -5.4194   -5.5903    8.7155 O   0  0  0  0  0  0  0  0  0  0  0  0
   -3.8136   -6.2259    7.2670 N   0  0  0  0  0  0  0  0  0  0  0  0
   -3.0282   -6.8040    7.1320 H   0  0  0  0  0  0  0  0  0  0  0  0
   -4.3107   -7.6298    9.1860 C   0  0  0  0  0  0  0  0  0  0  0  0
   -3.7326   -7.2457   10.5455 C   0  0  0  0  0  0  0  0  0  0  0  0
   -4.0805   -8.2649   11.6293 C   0  0  0  0  0  0  0  0  0  0  0  0
   -3.4445   -7.9086   12.9720 C   0  0  0  0  0  0  0  0  0  0  0  0
   -2.3508  -10.0404   13.7560 C   0  0  0  0  0  0  0  0  0  0  0  0
   -1.1305   -9.3157   13.4818 N   0  0  0  0  0  0  0  0  0  0  0  0
   -0.1942   -9.5661   14.3929 C   0  0  0  0  0  0  0  0  0  0  0  0
    0.8964   -9.0094   14.4555 O   0  0  0  0  0  0  0  0  0  0  0  0
   -0.6102  -10.4998   15.2410 N   0  0  0  0  0  0  0  0  0  0  0  0
   -2.0202  -10.7554   15.0627 C   0  0  0  0  0  0  0  0  0  0  0  0
   -2.7382  -10.1306   16.2427 C   0  0  0  0  0  0  0  0  0  0  0  0
   -3.4720   -8.6576   15.6370 S   0  0  0  0  0  0  0  0  0  0  0  0
   -3.5270   -9.0916   13.9299 C   0  0  0  0  0  0  0  0  0  0  0  0
   -1.0074   -8.7108   12.7148 H   0  0  0  0  0  0  0  0  0  0  0  0
   -0.0370  -10.9545   15.8997 H   0  0  0  0  0  0  0  0  0  0  0  0
   -4.2534   -3.6634    6.8300 N   0  0  0  0  0  0  0  0  0  0  0  0
   -4.6137   -3.0398    6.1077 H   0  0  0  0  0  0  0  0  0  0  0  0
   -3.0958   -2.9972    7.3968 C   0  0  0  0  0  0  0  0  0  0  0  0
   -3.3626   -1.4957    7.3586 C   0  0  0  0  0  0  0  0  0  0  0  0
   -4.5543   -1.1628    8.2500 C   0  0  0  0  0  0  0  0  0  0  0  0
   -2.1962   -0.6731    7.8895 C   0  0  0  0  0  0  0  0  0  0  0  0
   -2.7771    0.4494    8.7387 C   0  0  0  0  0  0  0  0  0  0  0  0
   -4.2306    0.1062    9.0310 C   0  0  0  0  0  0  0  0  0  0  0  0
   -4.3669   -0.1494   10.4860 N   0  0  0  0  0  0  0  0  0  0  0  0
   -3.3548   -0.2678   11.3548 C   0  0  0  0  0  0  0  0  0  0  0  0
   -3.8483   -0.5009   12.5882 N   0  0  0  0  0  0  0  0  0  0  0  0
   -5.1915   -0.5285   12.4837 C   0  0  0  0  0  0  0  0  0  0  0  0
   -5.5088   -0.3114   11.1530 C   0  0  0  0  0  0  0  0  0  0  0  0
   -6.8015   -0.2879   10.7619 N   0  0  0  0  0  0  0  0  0  0  0  0
   -7.7658   -0.4894   11.6698 C   0  0  0  0  0  0  0  0  0  0  0  0
   -7.4847   -0.7015   12.9637 N   0  0  0  0  0  0  0  0  0  0  0  0
   -6.2104   -0.7310   13.4021 C   0  0  0  0  0  0  0  0  0  0  0  0
   -5.9340   -0.9476   14.7133 N   0  0  0  0  0  0  0  0  0  0  0  0
   -6.6677   -1.0899   15.3541 H   0  0  0  0  0  0  0  0  0  0  0  0
   -4.9997   -0.9625   15.0235 H   0  0  0  0  0  0  0  0  0  0  0  0
 18 19  1  0  0  0
 18 17  1  0  0  0
 19 20  1  0  0  0
 16 17  1  0  0  0
 16 14  1  0  0  0
 40 39  1  0  0  0
 17 12  1  0  0  0
 15 14  2  0  0  0
 14 13  1  0  0  0
 20 12  1  0  0  0
 20 11  1  0  0  0
 39 38  2  0  0  0
 39 34  1  0  0  0
 12 13  1  0  0  0
 38 37  1  0  0  0
 11 10  1  0  0  0
 33 34  1  0  0  0
 33 32  2  0  0  0
 34 35  2  0  0  0
 37 36  2  0  0  0
 32 31  1  0  0  0
 10  9  1  0  0  0
 35 36  1  0  0  0
 35 31  1  0  0  0
 31 30  1  0  0  0
  9  8  1  0  0  0
 30 29  1  0  0  0
 30 27  1  0  0  0
  8  4  1  0  0  0
 29 28  1  0  0  0
 27 26  1  0  0  0
  5  4  2  0  0  0
 28 26  1  0  0  0
  4  6  1  0  0  0
 26 25  1  0  0  0
 25 23  1  0  0  0
  6  1  1  0  0  0
 23  1  1  0  0  0
  1  2  2  0  0  0
  1  3  2  0  0  0
 13 21  1  0  0  0
 16 22  1  0  0  0
  6  7  1  0  0  0
 23 24  1  0  0  0
 40 41  1  0  0  0
 40 42  1  0  0  0
M  END
> <minimizedAffinity>
-13.33692

$$$$
4XTV_44K_A_301


 42 46  0  0  0  0  0  0  0  0999 V2000
   -3.7783   -4.4195    6.3111 S   0  0  0  0  0  0  0  0  0  0  0  0
   -4.7240   -5.1634    5.5296 O   0  0  0  0  0  0  0  0  0  0  0  0
   -2.4349   -4.7185    5.8728 O   0  0  0  0  0  0  0  0  0  0  0  0
   -4.3055   -6.0087    8.2651 C   0  0  0  0  0  0  0  0  0  0  0  0
   -4.7577   -6.8538    7.5064 O   0  0  0  0  0  0  0  0  0  0  0  0
   -3.9270   -4.7896    7.8674 N   0  0  0  0  0  0  0  0  0  0  0  0
   -3.7348   -4.1017    8.5449 H   0  0  0  0  0  0  0  0  0  0  0  0
   -4.1382   -6.3318    9.7322 C   0  0  0  0  0  0  0  0  0  0  0  0
   -3.5076   -7.7131    9.8884 C   0  0  0  0  0  0  0  0  0  0  0  0
   -4.0239   -8.4466   11.1253 C   0  0  0  0  0  0  0  0  0  0  0  0
   -3.2480   -8.0591   12.3831 C   0  0  0  0  0  0  0  0  0  0  0  0
   -2.3185  -10.0991   13.5365 C   0  0  0  0  0  0  0  0  0  0  0  0
   -1.0485   -9.4601   13.2744 N   0  0  0  0  0  0  0  0  0  0  0  0
   -0.2014   -9.6148   14.2882 C   0  0  0  0  0  0  0  0  0  0  0  0
    0.9045   -9.0917   14.3698 O   0  0  0  0  0  0  0  0  0  0  0  0
   -0.7265  -10.4090   15.2143 N   0  0  0  0  0  0  0  0  0  0  0  0
   -2.1274  -10.6391   14.9506 C   0  0  0  0  0  0  0  0  0  0  0  0
   -2.9098   -9.8347   15.9701 C   0  0  0  0  0  0  0  0  0  0  0  0
   -3.5251   -8.4348   15.1118 S   0  0  0  0  0  0  0  0  0  0  0  0
   -3.4610   -9.0964   13.4797 C   0  0  0  0  0  0  0  0  0  0  0  0
   -0.8366   -8.9705   12.4469 H   0  0  0  0  0  0  0  0  0  0  0  0
   -0.2295  -10.7882   15.9749 H   0  0  0  0  0  0  0  0  0  0  0  0
   -4.0623   -2.8629    6.0728 N   0  0  0  0  0  0  0  0  0  0  0  0
   -4.4132   -2.4999    6.9591 H   0  0  0  0  0  0  0  0  0  0  0  0
   -4.9755   -2.3849    5.0517 C   0  0  0  0  0  0  0  0  0  0  0  0
   -5.7811   -1.2376    5.6533 C   0  0  0  0  0  0  0  0  0  0  0  0
   -5.6081   -1.2275    7.1684 C   0  0  0  0  0  0  0  0  0  0  0  0
   -5.3188    0.1296    5.1671 C   0  0  0  0  0  0  0  0  0  0  0  0
   -5.3301    1.0691    6.3654 C   0  0  0  0  0  0  0  0  0  0  0  0
   -5.4320    0.2175    7.6224 C   0  0  0  0  0  0  0  0  0  0  0  0
   -4.1665    0.3554    8.3841 N   0  0  0  0  0  0  0  0  0  0  0  0
   -2.9740    0.6726    7.8637 C   0  0  0  0  0  0  0  0  0  0  0  0
   -2.0506    0.7040    8.8463 N   0  0  0  0  0  0  0  0  0  0  0  0
   -2.6806    0.4000    9.9981 C   0  0  0  0  0  0  0  0  0  0  0  0
   -4.0136    0.1762    9.6955 C   0  0  0  0  0  0  0  0  0  0  0  0
   -4.8835   -0.1497   10.6761 N   0  0  0  0  0  0  0  0  0  0  0  0
   -4.4400   -0.2663   11.9349 C   0  0  0  0  0  0  0  0  0  0  0  0
   -3.1548   -0.0547   12.2536 N   0  0  0  0  0  0  0  0  0  0  0  0
   -2.2503    0.2753   11.3103 C   0  0  0  0  0  0  0  0  0  0  0  0
   -0.9507    0.4865   11.6407 N   0  0  0  0  0  0  0  0  0  0  0  0
   -0.6596    0.3944   12.5766 H   0  0  0  0  0  0  0  0  0  0  0  0
   -0.2994    0.7318   10.9444 H   0  0  0  0  0  0  0  0  0  0  0  0
 18 19  1  0  0  0
 18 17  1  0  0  0
 19 20  1  0  0  0
 16 17  1  0  0  0
 16 14  1  0  0  0
 40 39  1  0  0  0
 17 12  1  0  0  0
 15 14  2  0  0  0
 14 13  1  0  0  0
 20 12  1  0  0  0
 20 11  1  0  0  0
 39 38  2  0  0  0
 39 34  1  0  0  0
 12 13  1  0  0  0
 38 37  1  0  0  0
 11 10  1  0  0  0
 33 34  1  0  0  0
 33 32  2  0  0  0
 34 35  2  0  0  0
 37 36  2  0  0  0
 32 31  1  0  0  0
 10  9  1  0  0  0
 35 36  1  0  0  0
 35 31  1  0  0  0
 31 30  1  0  0  0
  9  8  1  0  0  0
 30 29  1  0  0  0
 30 27  1  0  0  0
  8  4  1  0  0  0
 29 28  1  0  0  0
 27 26  1  0  0  0
  5  4  2  0  0  0
 28 26  1  0  0  0
  4  6  1  0  0  0
 26 25  1  0  0  0
 25 23  1  0  0  0
  6  1  1  0  0  0
 23  1  1  0  0  0
  1  2  2  0  0  0
  1  3  2  0  0  0
 13 21  1  0  0  0
 16 22  1  0  0  0
  6  7  1  0  0  0
 23 24  1  0  0  0
 40 41  1  0  0  0
 40 42  1  0  0  0
M  END
> <minimizedAffinity>
-11.09218

$$$$
4XTV_44K_A_301


 42 46  0  0  0  0  0  0  0  0999 V2000
   -3.4508   -3.7953    7.1112 S   0  0  0  0  0  0  0  0  0  0  0  0
   -3.3969   -4.4380    5.8296 O   0  0  0  0  0  0  0  0  0  0  0  0
   -2.1126   -3.5211    7.5805 O   0  0  0  0  0  0  0  0  0  0  0  0
   -4.3035   -6.0548    7.9994 C   0  0  0  0  0  0  0  0  0  0  0  0
   -4.0185   -6.6177    6.9524 O   0  0  0  0  0  0  0  0  0  0  0  0
   -4.2077   -4.7328    8.1739 N   0  0  0  0  0  0  0  0  0  0  0  0
   -4.6109   -4.3236    8.9734 H   0  0  0  0  0  0  0  0  0  0  0  0
   -4.7772   -6.8681    9.1822 C   0  0  0  0  0  0  0  0  0  0  0  0
   -3.5780   -7.4762    9.9047 C   0  0  0  0  0  0  0  0  0  0  0  0
   -3.9974   -8.3375   11.0950 C   0  0  0  0  0  0  0  0  0  0  0  0
   -3.2357   -7.9635   12.3656 C   0  0  0  0  0  0  0  0  0  0  0  0
   -2.3695  -10.0312   13.5188 C   0  0  0  0  0  0  0  0  0  0  0  0
   -1.0810   -9.4265   13.2663 N   0  0  0  0  0  0  0  0  0  0  0  0
   -0.2447   -9.6071   14.2849 C   0  0  0  0  0  0  0  0  0  0  0  0
    0.8746   -9.1147   14.3748 O   0  0  0  0  0  0  0  0  0  0  0  0
   -0.7970  -10.3892   15.2054 N   0  0  0  0  0  0  0  0  0  0  0  0
   -2.2020  -10.5801   14.9325 C   0  0  0  0  0  0  0  0  0  0  0  0
   -2.9684   -9.7575   15.9494 C   0  0  0  0  0  0  0  0  0  0  0  0
   -3.5399   -8.3389   15.0915 S   0  0  0  0  0  0  0  0  0  0  0  0
   -3.4838   -8.9975   13.4579 C   0  0  0  0  0  0  0  0  0  0  0  0
   -0.8506   -8.9407   12.4416 H   0  0  0  0  0  0  0  0  0  0  0  0
   -0.3153  -10.7839   15.9680 H   0  0  0  0  0  0  0  0  0  0  0  0
   -4.2269   -2.4076    6.9313 N   0  0  0  0  0  0  0  0  0  0  0  0
   -4.6461   -2.4358    6.0019 H   0  0  0  0  0  0  0  0  0  0  0  0
   -3.5601   -1.1230    7.0339 C   0  0  0  0  0  0  0  0  0  0  0  0
   -4.6097   -0.0883    7.4276 C   0  0  0  0  0  0  0  0  0  0  0  0
   -5.0460    0.6957    6.1944 C   0  0  0  0  0  0  0  0  0  0  0  0
   -5.8748   -0.7153    7.9980 C   0  0  0  0  0  0  0  0  0  0  0  0
   -7.0618    0.0464    7.4239 C   0  0  0  0  0  0  0  0  0  0  0  0
   -6.5601    0.8693    6.2463 C   0  0  0  0  0  0  0  0  0  0  0  0
   -7.1714    0.3316    5.0062 N   0  0  0  0  0  0  0  0  0  0  0  0
   -7.9752    1.0086    4.1763 C   0  0  0  0  0  0  0  0  0  0  0  0
   -8.3457    0.2059    3.1577 N   0  0  0  0  0  0  0  0  0  0  0  0
   -7.7620   -0.9919    3.3587 C   0  0  0  0  0  0  0  0  0  0  0  0
   -7.0280   -0.9045    4.5300 C   0  0  0  0  0  0  0  0  0  0  0  0
   -6.3333   -1.9748    4.9734 N   0  0  0  0  0  0  0  0  0  0  0  0
   -6.3743   -3.1185    4.2768 C   0  0  0  0  0  0  0  0  0  0  0  0
   -7.0772   -3.2284    3.1401 N   0  0  0  0  0  0  0  0  0  0  0  0
   -7.7838   -2.1874    2.6567 C   0  0  0  0  0  0  0  0  0  0  0  0
   -8.4939   -2.3072    1.5060 N   0  0  0  0  0  0  0  0  0  0  0  0
   -8.5002   -3.1623    1.0181 H   0  0  0  0  0  0  0  0  0  0  0  0
   -9.0027   -1.5389    1.1593 H   0  0  0  0  0  0  0  0  0  0  0  0
 18 19  1  0  0  0
 18 17  1  0  0  0
 19 20  1  0  0  0
 16 17  1  0  0  0
 16 14  1  0  0  0
 40 39  1  0  0  0
 17 12  1  0  0  0
 15 14  2  0  0  0
 14 13  1  0  0  0
 20 12  1  0  0  0
 20 11  1  0  0  0
 39 38  2  0  0  0
 39 34  1  0  0  0
 12 13  1  0  0  0
 38 37  1  0  0  0
 11 10  1  0  0  0
 33 34  1  0  0  0
 33 32  2  0  0  0
 34 35  2  0  0  0
 37 36  2  0  0  0
 32 31  1  0  0  0
 10  9  1  0  0  0
 35 36  1  0  0  0
 35 31  1  0  0  0
 31 30  1  0  0  0
  9  8  1  0  0  0
 30 29  1  0  0  0
 30 27  1  0  0  0
  8  4  1  0  0  0
 29 28  1  0  0  0
 27 26  1  0  0  0
  5  4  2  0  0  0
 28 26  1  0  0  0
  4  6  1  0  0  0
 26 25  1  0  0  0
 25 23  1  0  0  0
  6  1  1  0  0  0
 23  1  1  0  0  0
  1  2  2  0  0  0
  1  3  2  0  0  0
 13 21  1  0  0  0
 16 22  1  0  0  0
  6  7  1  0  0  0
 23 24  1  0  0  0
 40 41  1  0  0  0
 40 42  1  0  0  0
M  END
> <minimizedAffinity>
-10.73767

$$$$
