2W66_HQ6_A_1716


 22 22  0  0  0  0  0  0  0  0999 V2000
    7.8872  -11.6373    3.8665 C   0  0  0  0  0  0  0  0  0  0  0  0
    7.2181  -13.0631    3.8861 C   0  0  0  0  0  0  0  0  0  0  0  0
    7.4981  -13.8330    2.6990 O   0  0  0  0  0  0  0  0  0  0  0  0
    7.4786  -10.6261    2.7709 C   0  0  0  0  0  0  0  0  0  0  0  0
    8.6744  -10.2797    2.0681 O   0  0  0  0  0  0  0  0  0  0  0  0
    6.4123  -11.0322    1.7382 C   0  0  0  0  0  0  0  0  0  0  0  0
    6.3162  -10.0332    0.7490 O   0  0  0  0  0  0  0  0  0  0  0  0
    5.0408  -11.3890    2.3747 C   0  0  0  0  0  0  0  0  0  0  0  0
    5.0728  -12.7935    2.7781 N   0  0  0  0  0  0  0  0  0  0  0  0
    5.6866  -13.0853    4.0465 C   0  0  0  0  0  0  0  0  0  0  0  0
    7.0747  -13.4131    1.9339 H   0  0  0  0  0  0  0  0  0  0  0  0
    9.0263  -11.0657    1.6217 H   0  0  0  0  0  0  0  0  0  0  0  0
    6.0298   -9.2010    1.1567 H   0  0  0  0  0  0  0  0  0  0  0  0
    5.5829  -13.3098    2.0614 H   0  0  0  0  0  0  0  0  0  0  0  0
    5.8081  -10.1908    5.3660 O   0  0  0  0  0  0  0  0  0  0  0  0
    6.9120  -10.3008    5.8779 C   0  0  0  0  0  0  0  0  0  0  0  0
    7.2229   -9.8620    7.3198 C   0  0  0  0  0  0  0  0  0  0  0  0
    8.0045  -10.8697    5.1177 N   0  0  0  0  0  0  0  0  0  0  0  0
    8.9128  -10.7301    5.4708 H   0  0  0  0  0  0  0  0  0  0  0  0
    3.8870  -11.3241    1.3410 C   0  0  0  0  0  0  0  0  0  0  0  0
    3.6422  -12.6160    0.8137 O   0  0  0  0  0  0  0  0  0  0  0  0
    4.4437  -12.9441    0.3768 H   0  0  0  0  0  0  0  0  0  0  0  0
 15 16  2  0  0  0
 16 17  1  0  0  0
 16 18  1  0  0  0
 18  1  1  0  0  0
  1  2  1  0  0  0
  1  4  1  0  0  0
  2  3  1  0  0  0
  2 10  1  0  0  0
  4  5  1  0  0  0
  4  6  1  0  0  0
  6  7  1  0  0  0
  6  8  1  0  0  0
  8 20  1  0  0  0
  8  9  1  0  0  0
 20 21  1  0  0  0
  9 10  1  0  0  0
 18 19  1  0  0  0
  3 11  1  0  0  0
  5 12  1  0  0  0
  7 13  1  0  0  0
 21 22  1  0  0  0
  9 14  1  0  0  0
M  END
> <minimizedAffinity>
-8.82689

$$$$
2W66_HQ6_A_1716


 22 22  0  0  0  0  0  0  0  0999 V2000
    5.8005  -12.4336    1.3510 C   0  0  0  0  0  0  0  0  0  0  0  0
    4.8743  -12.9038    2.5352 C   0  0  0  0  0  0  0  0  0  0  0  0
    4.1672  -11.8150    3.1635 O   0  0  0  0  0  0  0  0  0  0  0  0
    6.9716  -11.4685    1.6454 C   0  0  0  0  0  0  0  0  0  0  0  0
    6.7597  -10.3097    0.8353 O   0  0  0  0  0  0  0  0  0  0  0  0
    7.2150  -11.0072    3.0933 C   0  0  0  0  0  0  0  0  0  0  0  0
    8.2167  -10.0161    3.1054 O   0  0  0  0  0  0  0  0  0  0  0  0
    7.5077  -12.1768    4.0729 C   0  0  0  0  0  0  0  0  0  0  0  0
    6.2316  -12.7143    4.5413 N   0  0  0  0  0  0  0  0  0  0  0  0
    5.5760  -13.6608    3.6782 C   0  0  0  0  0  0  0  0  0  0  0  0
    4.8012  -11.2333    3.6114 H   0  0  0  0  0  0  0  0  0  0  0  0
    5.9418   -9.8673    1.1115 H   0  0  0  0  0  0  0  0  0  0  0  0
    9.0467  -10.3913    2.7721 H   0  0  0  0  0  0  0  0  0  0  0  0
    5.5961  -11.9282    4.6780 H   0  0  0  0  0  0  0  0  0  0  0  0
    4.6261  -15.0022    0.5226 O   0  0  0  0  0  0  0  0  0  0  0  0
    5.6101  -14.6011   -0.0804 C   0  0  0  0  0  0  0  0  0  0  0  0
    6.1675  -15.2868   -1.3402 C   0  0  0  0  0  0  0  0  0  0  0  0
    6.3097  -13.4231    0.3867 N   0  0  0  0  0  0  0  0  0  0  0  0
    7.2122  -13.2687    0.0250 H   0  0  0  0  0  0  0  0  0  0  0  0
    8.2045  -11.6877    5.3688 C   0  0  0  0  0  0  0  0  0  0  0  0
    7.5297  -10.5500    5.8761 O   0  0  0  0  0  0  0  0  0  0  0  0
    7.5508   -9.8402    5.2153 H   0  0  0  0  0  0  0  0  0  0  0  0
 15 16  2  0  0  0
 16 17  1  0  0  0
 16 18  1  0  0  0
 18  1  1  0  0  0
  1  2  1  0  0  0
  1  4  1  0  0  0
  2  3  1  0  0  0
  2 10  1  0  0  0
  4  5  1  0  0  0
  4  6  1  0  0  0
  6  7  1  0  0  0
  6  8  1  0  0  0
  8 20  1  0  0  0
  8  9  1  0  0  0
 20 21  1  0  0  0
  9 10  1  0  0  0
 18 19  1  0  0  0
  3 11  1  0  0  0
  5 12  1  0  0  0
  7 13  1  0  0  0
 21 22  1  0  0  0
  9 14  1  0  0  0
M  END
> <minimizedAffinity>
-7.40565

$$$$
2W66_HQ6_A_1716


 22 22  0  0  0  0  0  0  0  0999 V2000
    5.6617  -14.1008    0.8989 C   0  0  0  0  0  0  0  0  0  0  0  0
    5.8990  -15.1776    2.0237 C   0  0  0  0  0  0  0  0  0  0  0  0
    4.8290  -15.2281    2.9897 O   0  0  0  0  0  0  0  0  0  0  0  0
    5.5636  -12.6085    1.2904 C   0  0  0  0  0  0  0  0  0  0  0  0
    4.2881  -12.1498    0.8360 O   0  0  0  0  0  0  0  0  0  0  0  0
    5.7208  -12.2111    2.7689 C   0  0  0  0  0  0  0  0  0  0  0  0
    5.4355  -10.8390    2.9163 O   0  0  0  0  0  0  0  0  0  0  0  0
    7.0941  -12.6130    3.3736 C   0  0  0  0  0  0  0  0  0  0  0  0
    7.0054  -13.9968    3.8359 N   0  0  0  0  0  0  0  0  0  0  0  0
    7.1938  -15.0208    2.8427 C   0  0  0  0  0  0  0  0  0  0  0  0
    4.8089  -14.3995    3.4935 H   0  0  0  0  0  0  0  0  0  0  0  0
    3.5866  -12.6218    1.3113 H   0  0  0  0  0  0  0  0  0  0  0  0
    6.0727  -10.3192    2.4019 H   0  0  0  0  0  0  0  0  0  0  0  0
    6.0799  -14.1281    4.2441 H   0  0  0  0  0  0  0  0  0  0  0  0
    6.0154  -16.3288   -0.9917 O   0  0  0  0  0  0  0  0  0  0  0  0
    6.4718  -15.2381   -1.2996 C   0  0  0  0  0  0  0  0  0  0  0  0
    7.0790  -14.9349   -2.6807 C   0  0  0  0  0  0  0  0  0  0  0  0
    6.4551  -14.1541   -0.3404 N   0  0  0  0  0  0  0  0  0  0  0  0
    7.0291  -13.3783   -0.5353 H   0  0  0  0  0  0  0  0  0  0  0  0
    7.4191  -11.8103    4.6596 C   0  0  0  0  0  0  0  0  0  0  0  0
    8.2032  -10.6767    4.3321 O   0  0  0  0  0  0  0  0  0  0  0  0
    9.0317  -10.9652    3.9184 H   0  0  0  0  0  0  0  0  0  0  0  0
 15 16  2  0  0  0
 16 17  1  0  0  0
 16 18  1  0  0  0
 18  1  1  0  0  0
  1  2  1  0  0  0
  1  4  1  0  0  0
  2  3  1  0  0  0
  2 10  1  0  0  0
  4  5  1  0  0  0
  4  6  1  0  0  0
  6  7  1  0  0  0
  6  8  1  0  0  0
  8 20  1  0  0  0
  8  9  1  0  0  0
 20 21  1  0  0  0
  9 10  1  0  0  0
 18 19  1  0  0  0
  3 11  1  0  0  0
  5 12  1  0  0  0
  7 13  1  0  0  0
 21 22  1  0  0  0
  9 14  1  0  0  0
M  END
> <minimizedAffinity>
-7.22383

$$$$
2W66_HQ6_A_1716


 22 22  0  0  0  0  0  0  0  0999 V2000
    5.7142  -13.9687    1.9271 C   0  0  0  0  0  0  0  0  0  0  0  0
    5.3728  -14.6166    0.5325 C   0  0  0  0  0  0  0  0  0  0  0  0
    4.7224  -15.8984    0.6512 O   0  0  0  0  0  0  0  0  0  0  0  0
    6.6927  -14.6952    2.8782 C   0  0  0  0  0  0  0  0  0  0  0  0
    5.9821  -14.9259    4.0971 O   0  0  0  0  0  0  0  0  0  0  0  0
    7.3244  -16.0246    2.4288 C   0  0  0  0  0  0  0  0  0  0  0  0
    8.0444  -16.5858    3.5023 O   0  0  0  0  0  0  0  0  0  0  0  0
    8.1700  -15.8990    1.1316 C   0  0  0  0  0  0  0  0  0  0  0  0
    7.2733  -16.0272   -0.0156 N   0  0  0  0  0  0  0  0  0  0  0  0
    6.5657  -14.8398   -0.4156 C   0  0  0  0  0  0  0  0  0  0  0  0
    5.3402  -16.5402    1.0350 H   0  0  0  0  0  0  0  0  0  0  0  0
    5.2393  -15.5268    3.9296 H   0  0  0  0  0  0  0  0  0  0  0  0
    8.7649  -15.9879    3.7560 H   0  0  0  0  0  0  0  0  0  0  0  0
    6.5794  -16.7393    0.2120 H   0  0  0  0  0  0  0  0  0  0  0  0
    4.9862  -11.9954    3.9860 O   0  0  0  0  0  0  0  0  0  0  0  0
    5.7756  -11.6536    3.1184 C   0  0  0  0  0  0  0  0  0  0  0  0
    6.5216  -10.3077    3.1367 C   0  0  0  0  0  0  0  0  0  0  0  0
    6.0467  -12.5363    2.0037 N   0  0  0  0  0  0  0  0  0  0  0  0
    6.4962  -12.1411    1.2220 H   0  0  0  0  0  0  0  0  0  0  0  0
    9.1584  -17.0821    0.9665 C   0  0  0  0  0  0  0  0  0  0  0  0
   10.3725  -16.7897    1.6354 O   0  0  0  0  0  0  0  0  0  0  0  0
   10.7667  -15.9893    1.2548 H   0  0  0  0  0  0  0  0  0  0  0  0
 15 16  2  0  0  0
 16 17  1  0  0  0
 16 18  1  0  0  0
 18  1  1  0  0  0
  1  2  1  0  0  0
  1  4  1  0  0  0
  2  3  1  0  0  0
  2 10  1  0  0  0
  4  5  1  0  0  0
  4  6  1  0  0  0
  6  7  1  0  0  0
  6  8  1  0  0  0
  8 20  1  0  0  0
  8  9  1  0  0  0
 20 21  1  0  0  0
  9 10  1  0  0  0
 18 19  1  0  0  0
  3 11  1  0  0  0
  5 12  1  0  0  0
  7 13  1  0  0  0
 21 22  1  0  0  0
  9 14  1  0  0  0
M  END
> <minimizedAffinity>
-6.60198

$$$$
2W66_HQ6_A_1716


 22 22  0  0  0  0  0  0  0  0999 V2000
    5.9083  -13.9695    3.3757 C   0  0  0  0  0  0  0  0  0  0  0  0
    5.1571  -13.3710    2.1273 C   0  0  0  0  0  0  0  0  0  0  0  0
    4.0337  -14.1728    1.7084 O   0  0  0  0  0  0  0  0  0  0  0  0
    6.5792  -15.3574    3.2596 C   0  0  0  0  0  0  0  0  0  0  0  0
    5.9888  -16.1822    4.2671 O   0  0  0  0  0  0  0  0  0  0  0  0
    6.5130  -16.1106    1.9192 C   0  0  0  0  0  0  0  0  0  0  0  0
    7.0394  -17.4071    2.0858 O   0  0  0  0  0  0  0  0  0  0  0  0
    7.1691  -15.3364    0.7429 C   0  0  0  0  0  0  0  0  0  0  0  0
    6.1769  -14.4184    0.1868 N   0  0  0  0  0  0  0  0  0  0  0  0
    6.0131  -13.1597    0.8647 C   0  0  0  0  0  0  0  0  0  0  0  0
    4.3522  -15.0253    1.3727 H   0  0  0  0  0  0  0  0  0  0  0  0
    5.0448  -16.2988    4.0772 H   0  0  0  0  0  0  0  0  0  0  0  0
    7.9725  -17.3464    2.3440 H   0  0  0  0  0  0  0  0  0  0  0  0
    5.2749  -14.8946    0.1962 H   0  0  0  0  0  0  0  0  0  0  0  0
    5.5456  -11.2142    4.3452 O   0  0  0  0  0  0  0  0  0  0  0  0
    6.5388  -11.8244    4.7113 C   0  0  0  0  0  0  0  0  0  0  0  0
    7.5201  -11.2864    5.7676 C   0  0  0  0  0  0  0  0  0  0  0  0
    6.8362  -13.1222    4.1434 N   0  0  0  0  0  0  0  0  0  0  0  0
    7.7457  -13.4718    4.2839 H   0  0  0  0  0  0  0  0  0  0  0  0
    7.5185  -16.2713   -0.4436 C   0  0  0  0  0  0  0  0  0  0  0  0
    6.3967  -17.0728   -0.7693 O   0  0  0  0  0  0  0  0  0  0  0  0
    6.1501  -17.6112   -0.0010 H   0  0  0  0  0  0  0  0  0  0  0  0
 15 16  2  0  0  0
 16 17  1  0  0  0
 16 18  1  0  0  0
 18  1  1  0  0  0
  1  2  1  0  0  0
  1  4  1  0  0  0
  2  3  1  0  0  0
  2 10  1  0  0  0
  4  5  1  0  0  0
  4  6  1  0  0  0
  6  7  1  0  0  0
  6  8  1  0  0  0
  8 20  1  0  0  0
  8  9  1  0  0  0
 20 21  1  0  0  0
  9 10  1  0  0  0
 18 19  1  0  0  0
  3 11  1  0  0  0
  5 12  1  0  0  0
  7 13  1  0  0  0
 21 22  1  0  0  0
  9 14  1  0  0  0
M  END
> <minimizedAffinity>
-6.54729

$$$$
2W66_HQ6_A_1716


 22 22  0  0  0  0  0  0  0  0999 V2000
    6.7534  -15.9367    0.7154 C   0  0  0  0  0  0  0  0  0  0  0  0
    6.5472  -16.4443    2.1922 C   0  0  0  0  0  0  0  0  0  0  0  0
    5.1685  -16.4046    2.6140 O   0  0  0  0  0  0  0  0  0  0  0  0
    6.3914  -14.4761    0.3613 C   0  0  0  0  0  0  0  0  0  0  0  0
    5.4158  -14.5383   -0.6819 O   0  0  0  0  0  0  0  0  0  0  0  0
    5.8571  -13.5486    1.4671 C   0  0  0  0  0  0  0  0  0  0  0  0
    5.4425  -12.3298    0.8941 O   0  0  0  0  0  0  0  0  0  0  0  0
    6.8507  -13.3573    2.6459 C   0  0  0  0  0  0  0  0  0  0  0  0
    6.6636  -14.4592    3.5879 N   0  0  0  0  0  0  0  0  0  0  0  0
    7.3381  -15.6922    3.2787 C   0  0  0  0  0  0  0  0  0  0  0  0
    4.8727  -15.4823    2.6660 H   0  0  0  0  0  0  0  0  0  0  0  0
    4.6112  -14.9643   -0.3471 H   0  0  0  0  0  0  0  0  0  0  0  0
    6.2033  -11.8904    0.4830 H   0  0  0  0  0  0  0  0  0  0  0  0
    5.6643  -14.6572    3.6382 H   0  0  0  0  0  0  0  0  0  0  0  0
    7.1807  -16.6644   -2.1044 O   0  0  0  0  0  0  0  0  0  0  0  0
    8.1645  -16.4483   -1.4130 C   0  0  0  0  0  0  0  0  0  0  0  0
    9.5956  -16.3847   -1.9751 C   0  0  0  0  0  0  0  0  0  0  0  0
    8.0112  -16.2358    0.0106 N   0  0  0  0  0  0  0  0  0  0  0  0
    8.8258  -16.2970    0.5601 H   0  0  0  0  0  0  0  0  0  0  0  0
    6.5232  -12.0929    3.4813 C   0  0  0  0  0  0  0  0  0  0  0  0
    5.1243  -12.0022    3.6859 O   0  0  0  0  0  0  0  0  0  0  0  0
    4.6753  -11.9428    2.8281 H   0  0  0  0  0  0  0  0  0  0  0  0
 15 16  2  0  0  0
 16 17  1  0  0  0
 16 18  1  0  0  0
 18  1  1  0  0  0
  1  2  1  0  0  0
  1  4  1  0  0  0
  2  3  1  0  0  0
  2 10  1  0  0  0
  4  5  1  0  0  0
  4  6  1  0  0  0
  6  7  1  0  0  0
  6  8  1  0  0  0
  8 20  1  0  0  0
  8  9  1  0  0  0
 20 21  1  0  0  0
  9 10  1  0  0  0
 18 19  1  0  0  0
  3 11  1  0  0  0
  5 12  1  0  0  0
  7 13  1  0  0  0
 21 22  1  0  0  0
  9 14  1  0  0  0
M  END
> <minimizedAffinity>
-6.43473

$$$$
2W66_HQ6_A_1716


 22 22  0  0  0  0  0  0  0  0999 V2000
    5.9795  -10.7756    3.0118 C   0  0  0  0  0  0  0  0  0  0  0  0
    7.3589  -10.9747    2.2777 C   0  0  0  0  0  0  0  0  0  0  0  0
    7.2259  -11.0668    0.8445 O   0  0  0  0  0  0  0  0  0  0  0  0
    4.8979  -11.8743    2.8983 C   0  0  0  0  0  0  0  0  0  0  0  0
    3.7404  -11.2516    2.3360 O   0  0  0  0  0  0  0  0  0  0  0  0
    5.2048  -13.1452    2.0864 C   0  0  0  0  0  0  0  0  0  0  0  0
    4.0361  -13.9253    1.9810 O   0  0  0  0  0  0  0  0  0  0  0  0
    6.4210  -13.9454    2.6285 C   0  0  0  0  0  0  0  0  0  0  0  0
    7.6384  -13.3775    2.0524 N   0  0  0  0  0  0  0  0  0  0  0  0
    8.1743  -12.2105    2.7017 C   0  0  0  0  0  0  0  0  0  0  0  0
    6.7474  -11.8790    0.6157 H   0  0  0  0  0  0  0  0  0  0  0  0
    3.9414  -10.9475    1.4371 H   0  0  0  0  0  0  0  0  0  0  0  0
    3.7514  -14.2024    2.8659 H   0  0  0  0  0  0  0  0  0  0  0  0
    7.4355  -13.1276    1.0846 H   0  0  0  0  0  0  0  0  0  0  0  0
    7.0857  -12.0634    5.4163 O   0  0  0  0  0  0  0  0  0  0  0  0
    6.6460  -10.9286    5.5249 C   0  0  0  0  0  0  0  0  0  0  0  0
    6.7823  -10.0880    6.8067 C   0  0  0  0  0  0  0  0  0  0  0  0
    5.9577  -10.3137    4.4098 N   0  0  0  0  0  0  0  0  0  0  0  0
    5.4239   -9.5098    4.6048 H   0  0  0  0  0  0  0  0  0  0  0  0
    6.4203  -15.4125    2.1270 C   0  0  0  0  0  0  0  0  0  0  0  0
    5.5041  -16.1793    2.8885 O   0  0  0  0  0  0  0  0  0  0  0  0
    5.7657  -16.1616    3.8224 H   0  0  0  0  0  0  0  0  0  0  0  0
 15 16  2  0  0  0
 16 17  1  0  0  0
 16 18  1  0  0  0
 18  1  1  0  0  0
  1  2  1  0  0  0
  1  4  1  0  0  0
  2  3  1  0  0  0
  2 10  1  0  0  0
  4  5  1  0  0  0
  4  6  1  0  0  0
  6  7  1  0  0  0
  6  8  1  0  0  0
  8 20  1  0  0  0
  8  9  1  0  0  0
 20 21  1  0  0  0
  9 10  1  0  0  0
 18 19  1  0  0  0
  3 11  1  0  0  0
  5 12  1  0  0  0
  7 13  1  0  0  0
 21 22  1  0  0  0
  9 14  1  0  0  0
M  END
> <minimizedAffinity>
-6.33792

$$$$
2W66_HQ6_A_1716


 22 22  0  0  0  0  0  0  0  0999 V2000
    6.0273  -13.6458    1.2660 C   0  0  0  0  0  0  0  0  0  0  0  0
    5.4698  -12.1954    1.0079 C   0  0  0  0  0  0  0  0  0  0  0  0
    6.5067  -11.1941    0.9581 O   0  0  0  0  0  0  0  0  0  0  0  0
    6.7724  -13.9446    2.5871 C   0  0  0  0  0  0  0  0  0  0  0  0
    8.0749  -14.4100    2.2254 O   0  0  0  0  0  0  0  0  0  0  0  0
    6.9328  -12.8208    3.6262 C   0  0  0  0  0  0  0  0  0  0  0  0
    7.7748  -13.2631    4.6660 O   0  0  0  0  0  0  0  0  0  0  0  0
    5.5794  -12.2575    4.1402 C   0  0  0  0  0  0  0  0  0  0  0  0
    5.1277  -11.2254    3.2089 N   0  0  0  0  0  0  0  0  0  0  0  0
    4.4395  -11.6791    2.0294 C   0  0  0  0  0  0  0  0  0  0  0  0
    6.9161  -11.1088    1.8333 H   0  0  0  0  0  0  0  0  0  0  0  0
    8.5577  -13.7005    1.7733 H   0  0  0  0  0  0  0  0  0  0  0  0
    7.3663  -14.0212    5.1124 H   0  0  0  0  0  0  0  0  0  0  0  0
    5.9486  -10.7012    2.9059 H   0  0  0  0  0  0  0  0  0  0  0  0
    6.1064  -15.5331   -0.9913 O   0  0  0  0  0  0  0  0  0  0  0  0
    5.3565  -15.7846   -0.0601 C   0  0  0  0  0  0  0  0  0  0  0  0
    4.5751  -17.1046    0.0634 C   0  0  0  0  0  0  0  0  0  0  0  0
    5.1720  -14.8141    0.9978 N   0  0  0  0  0  0  0  0  0  0  0  0
    4.4009  -14.9479    1.5952 H   0  0  0  0  0  0  0  0  0  0  0  0
    5.7384  -11.5024    5.4851 C   0  0  0  0  0  0  0  0  0  0  0  0
    5.8094  -10.1077    5.2466 O   0  0  0  0  0  0  0  0  0  0  0  0
    6.5731   -9.9150    4.6804 H   0  0  0  0  0  0  0  0  0  0  0  0
 15 16  2  0  0  0
 16 17  1  0  0  0
 16 18  1  0  0  0
 18  1  1  0  0  0
  1  2  1  0  0  0
  1  4  1  0  0  0
  2  3  1  0  0  0
  2 10  1  0  0  0
  4  5  1  0  0  0
  4  6  1  0  0  0
  6  7  1  0  0  0
  6  8  1  0  0  0
  8 20  1  0  0  0
  8  9  1  0  0  0
 20 21  1  0  0  0
  9 10  1  0  0  0
 18 19  1  0  0  0
  3 11  1  0  0  0
  5 12  1  0  0  0
  7 13  1  0  0  0
 21 22  1  0  0  0
  9 14  1  0  0  0
M  END
> <minimizedAffinity>
-6.30071

$$$$
2W66_HQ6_A_1716


 22 22  0  0  0  0  0  0  0  0999 V2000
    6.2223  -14.0477    3.8557 C   0  0  0  0  0  0  0  0  0  0  0  0
    6.4695  -12.8161    4.8059 C   0  0  0  0  0  0  0  0  0  0  0  0
    5.3399  -11.9218    4.8741 O   0  0  0  0  0  0  0  0  0  0  0  0
    5.9656  -13.8015    2.3513 C   0  0  0  0  0  0  0  0  0  0  0  0
    4.6918  -14.3786    2.0543 O   0  0  0  0  0  0  0  0  0  0  0  0
    5.9781  -12.3585    1.8166 C   0  0  0  0  0  0  0  0  0  0  0  0
    5.5638  -12.3561    0.4697 O   0  0  0  0  0  0  0  0  0  0  0  0
    7.3332  -11.6308    2.0353 C   0  0  0  0  0  0  0  0  0  0  0  0
    7.3320  -11.0508    3.3769 N   0  0  0  0  0  0  0  0  0  0  0  0
    7.6818  -11.9318    4.4596 C   0  0  0  0  0  0  0  0  0  0  0  0
    5.2103  -11.4982    4.0111 H   0  0  0  0  0  0  0  0  0  0  0  0
    4.0011  -13.9091    2.5478 H   0  0  0  0  0  0  0  0  0  0  0  0
    6.1893  -12.8729   -0.0619 H   0  0  0  0  0  0  0  0  0  0  0  0
    6.3940  -10.6938    3.5590 H   0  0  0  0  0  0  0  0  0  0  0  0
    5.5856  -16.8914    3.4417 O   0  0  0  0  0  0  0  0  0  0  0  0
    6.7589  -16.5818    3.5844 C   0  0  0  0  0  0  0  0  0  0  0  0
    7.9227  -17.5724    3.4042 C   0  0  0  0  0  0  0  0  0  0  0  0
    7.1064  -15.2223    3.9397 N   0  0  0  0  0  0  0  0  0  0  0  0
    8.0213  -15.0682    4.2689 H   0  0  0  0  0  0  0  0  0  0  0  0
    7.4911  -10.4050    1.0991 C   0  0  0  0  0  0  0  0  0  0  0  0
    6.2219   -9.8298    0.8437 O   0  0  0  0  0  0  0  0  0  0  0  0
    5.6497  -10.4861    0.4160 H   0  0  0  0  0  0  0  0  0  0  0  0
 15 16  2  0  0  0
 16 17  1  0  0  0
 16 18  1  0  0  0
 18  1  1  0  0  0
  1  2  1  0  0  0
  1  4  1  0  0  0
  2  3  1  0  0  0
  2 10  1  0  0  0
  4  5  1  0  0  0
  4  6  1  0  0  0
  6  7  1  0  0  0
  6  8  1  0  0  0
  8 20  1  0  0  0
  8  9  1  0  0  0
 20 21  1  0  0  0
  9 10  1  0  0  0
 18 19  1  0  0  0
  3 11  1  0  0  0
  5 12  1  0  0  0
  7 13  1  0  0  0
 21 22  1  0  0  0
  9 14  1  0  0  0
M  END
> <minimizedAffinity>
-6.14471

$$$$
2W66_HQ6_A_1716


 22 22  0  0  0  0  0  0  0  0999 V2000
    5.5392  -12.7598    2.0340 C   0  0  0  0  0  0  0  0  0  0  0  0
    4.4357  -13.4878    1.1776 C   0  0  0  0  0  0  0  0  0  0  0  0
    3.4049  -14.0933    1.9846 O   0  0  0  0  0  0  0  0  0  0  0  0
    6.3992  -13.5861    3.0176 C   0  0  0  0  0  0  0  0  0  0  0  0
    6.2018  -13.0142    4.3128 O   0  0  0  0  0  0  0  0  0  0  0  0
    6.1682  -15.1042    3.1199 C   0  0  0  0  0  0  0  0  0  0  0  0
    6.9367  -15.6228    4.1811 O   0  0  0  0  0  0  0  0  0  0  0  0
    6.3998  -15.8557    1.7801 C   0  0  0  0  0  0  0  0  0  0  0  0
    5.1638  -15.7989    1.0018 N   0  0  0  0  0  0  0  0  0  0  0  0
    4.9381  -14.6002    0.2385 C   0  0  0  0  0  0  0  0  0  0  0  0
    3.7844  -14.8217    2.5006 H   0  0  0  0  0  0  0  0  0  0  0  0
    5.2744  -13.1221    4.5760 H   0  0  0  0  0  0  0  0  0  0  0  0
    7.8785  -15.4795    3.9984 H   0  0  0  0  0  0  0  0  0  0  0  0
    4.3841  -15.9039    1.6510 H   0  0  0  0  0  0  0  0  0  0  0  0
    6.6329  -10.2321    3.0721 O   0  0  0  0  0  0  0  0  0  0  0  0
    7.0643  -10.6488    2.0076 C   0  0  0  0  0  0  0  0  0  0  0  0
    8.2504  -10.0069    1.2664 C   0  0  0  0  0  0  0  0  0  0  0  0
    6.4523  -11.8037    1.3856 N   0  0  0  0  0  0  0  0  0  0  0  0
    6.6670  -11.9653    0.4385 H   0  0  0  0  0  0  0  0  0  0  0  0
    6.6336  -17.3727    1.9986 C   0  0  0  0  0  0  0  0  0  0  0  0
    5.7341  -17.8604    2.9785 O   0  0  0  0  0  0  0  0  0  0  0  0
    5.8814  -17.3913    3.8147 H   0  0  0  0  0  0  0  0  0  0  0  0
 15 16  2  0  0  0
 16 17  1  0  0  0
 16 18  1  0  0  0
 18  1  1  0  0  0
  1  2  1  0  0  0
  1  4  1  0  0  0
  2  3  1  0  0  0
  2 10  1  0  0  0
  4  5  1  0  0  0
  4  6  1  0  0  0
  6  7  1  0  0  0
  6  8  1  0  0  0
  8 20  1  0  0  0
  8  9  1  0  0  0
 20 21  1  0  0  0
  9 10  1  0  0  0
 18 19  1  0  0  0
  3 11  1  0  0  0
  5 12  1  0  0  0
  7 13  1  0  0  0
 21 22  1  0  0  0
  9 14  1  0  0  0
M  END
> <minimizedAffinity>
-6.07416

$$$$
