6CBF_EWD_A_201


 23 25  0  0  0  0  0  0  0  0999 V2000
   12.8259    9.8789    3.0163 C   0  0  0  0  0  0  0  0  0  0  0  0
   12.6389   10.1828    1.6693 C   0  0  0  0  0  0  0  0  0  0  0  0
   11.3750   10.0919    1.0791 C   0  0  0  0  0  0  0  0  0  0  0  0
   10.2753    9.6982    1.8397 C   0  0  0  0  0  0  0  0  0  0  0  0
   10.4819    9.3821    3.1817 C   0  0  0  0  0  0  0  0  0  0  0  0
   11.7385    9.4738    3.7685 C   0  0  0  0  0  0  0  0  0  0  0  0
   14.1737    9.9713    3.6388 C   0  0  0  0  0  0  0  0  0  0  0  0
   15.3945    9.7554    3.0143 C   0  0  0  0  0  0  0  0  0  0  0  0
   16.3812    9.9375    3.9181 N   0  0  0  0  0  0  0  0  0  0  0  0
   15.7534   10.2771    5.1139 N   0  0  0  0  0  0  0  0  0  0  0  0
   14.4246   10.3021    4.9570 C   0  0  0  0  0  0  0  0  0  0  0  0
   17.3493    9.8482    3.7630 H   0  0  0  0  0  0  0  0  0  0  0  0
    9.3585    8.9579    4.0707 C   0  0  0  0  0  0  0  0  0  0  0  0
    9.3143    7.7752    4.4642 O   0  0  0  0  0  0  0  0  0  0  0  0
    8.5190    9.8229    4.4055 O   0  0  0  0  0  0  0  0  0  0  0  0
    8.5952   10.6993    4.0829 H   0  0  0  0  0  0  0  0  0  0  0  0
    9.0172    9.5706    1.2713 O   0  0  0  0  0  0  0  0  0  0  0  0
    8.2883   10.5143    0.5680 C   0  0  0  0  0  0  0  0  0  0  0  0
    8.3503   11.8854    0.8558 C   0  0  0  0  0  0  0  0  0  0  0  0
    7.5833   12.7853    0.1130 C   0  0  0  0  0  0  0  0  0  0  0  0
    6.7520   12.3233   -0.9105 C   0  0  0  0  0  0  0  0  0  0  0  0
    6.6796   10.9621   -1.1944 C   0  0  0  0  0  0  0  0  0  0  0  0
    7.4405   10.0616   -0.4514 C   0  0  0  0  0  0  0  0  0  0  0  0
 22 23  2  0  0  0
 22 21  1  0  0  0
 23 18  1  0  0  0
 21 20  2  0  0  0
 18 17  1  0  0  0
 18 19  2  0  0  0
 20 19  1  0  0  0
 17  4  1  0  0  0
  3  4  2  0  0  0
  3  2  1  0  0  0
  4  5  1  0  0  0
  2  1  2  0  0  0
  5  6  2  0  0  0
  5 13  1  0  0  0
  1  6  1  0  0  0
  1  7  1  0  0  0
 11  7  1  0  0  0
 11 10  2  0  0  0
 14 13  2  0  0  0
 13 15  1  0  0  0
  7  8  2  0  0  0
 10  9  1  0  0  0
  8  9  1  0  0  0
  9 12  1  0  0  0
 15 16  1  0  0  0
M  END
> <minimizedAffinity>
-10.48154

$$$$
6CBF_EWD_A_201


 23 25  0  0  0  0  0  0  0  0999 V2000
    9.0645   10.7897    0.8917 C   0  0  0  0  0  0  0  0  0  0  0  0
   10.3175   10.6072    0.3101 C   0  0  0  0  0  0  0  0  0  0  0  0
   11.3222    9.8959    0.9724 C   0  0  0  0  0  0  0  0  0  0  0  0
   11.0783    9.3506    2.2318 C   0  0  0  0  0  0  0  0  0  0  0  0
    9.8250    9.5559    2.8068 C   0  0  0  0  0  0  0  0  0  0  0  0
    8.8259   10.2622    2.1475 C   0  0  0  0  0  0  0  0  0  0  0  0
    8.0002   11.5524    0.1859 C   0  0  0  0  0  0  0  0  0  0  0  0
    7.1384   11.0689   -0.7892 C   0  0  0  0  0  0  0  0  0  0  0  0
    6.3198   12.0700   -1.1783 N   0  0  0  0  0  0  0  0  0  0  0  0
    6.6827   13.1826   -0.4235 N   0  0  0  0  0  0  0  0  0  0  0  0
    7.6920   12.8822    0.4022 C   0  0  0  0  0  0  0  0  0  0  0  0
    5.6096   12.0227   -1.8584 H   0  0  0  0  0  0  0  0  0  0  0  0
    9.4765    9.0014    4.1497 C   0  0  0  0  0  0  0  0  0  0  0  0
    8.5672    9.5437    4.8089 O   0  0  0  0  0  0  0  0  0  0  0  0
   10.1003    7.9916    4.5451 O   0  0  0  0  0  0  0  0  0  0  0  0
   10.7761    7.6202    4.0129 H   0  0  0  0  0  0  0  0  0  0  0  0
   12.0672    8.6674    2.9227 O   0  0  0  0  0  0  0  0  0  0  0  0
   13.2635    9.1531    3.4224 C   0  0  0  0  0  0  0  0  0  0  0  0
   14.4364    9.2075    2.6556 C   0  0  0  0  0  0  0  0  0  0  0  0
   15.6129    9.7021    3.2221 C   0  0  0  0  0  0  0  0  0  0  0  0
   15.6256   10.1368    4.5498 C   0  0  0  0  0  0  0  0  0  0  0  0
   14.4662   10.0765    5.3184 C   0  0  0  0  0  0  0  0  0  0  0  0
   13.2920    9.5789    4.7568 C   0  0  0  0  0  0  0  0  0  0  0  0
 22 23  2  0  0  0
 22 21  1  0  0  0
 23 18  1  0  0  0
 21 20  2  0  0  0
 18 17  1  0  0  0
 18 19  2  0  0  0
 20 19  1  0  0  0
 17  4  1  0  0  0
  3  4  2  0  0  0
  3  2  1  0  0  0
  4  5  1  0  0  0
  2  1  2  0  0  0
  5  6  2  0  0  0
  5 13  1  0  0  0
  1  6  1  0  0  0
  1  7  1  0  0  0
 11  7  1  0  0  0
 11 10  2  0  0  0
 14 13  2  0  0  0
 13 15  1  0  0  0
  7  8  2  0  0  0
 10  9  1  0  0  0
  8  9  1  0  0  0
  9 12  1  0  0  0
 15 16  1  0  0  0
M  END
> <minimizedAffinity>
-9.38076

$$$$
6CBF_EWD_A_201


 23 25  0  0  0  0  0  0  0  0999 V2000
    7.6029   12.3431    2.9382 C   0  0  0  0  0  0  0  0  0  0  0  0
    8.3738   12.7760    1.8612 C   0  0  0  0  0  0  0  0  0  0  0  0
    9.3788   11.9667    1.3235 C   0  0  0  0  0  0  0  0  0  0  0  0
    9.6201   10.7029    1.8596 C   0  0  0  0  0  0  0  0  0  0  0  0
    8.8510   10.2911    2.9471 C   0  0  0  0  0  0  0  0  0  0  0  0
    7.8510   11.0956    3.4807 C   0  0  0  0  0  0  0  0  0  0  0  0
    6.5384   13.2099    3.5110 C   0  0  0  0  0  0  0  0  0  0  0  0
    6.1119   13.2403    4.8317 C   0  0  0  0  0  0  0  0  0  0  0  0
    5.1307   14.1607    4.9486 N   0  0  0  0  0  0  0  0  0  0  0  0
    4.9589   14.7071    3.6793 N   0  0  0  0  0  0  0  0  0  0  0  0
    5.8022   14.1435    2.8064 C   0  0  0  0  0  0  0  0  0  0  0  0
    4.6364   14.3976    5.7664 H   0  0  0  0  0  0  0  0  0  0  0  0
    9.0382    8.9502    3.5788 C   0  0  0  0  0  0  0  0  0  0  0  0
    9.2102    8.8831    4.8123 O   0  0  0  0  0  0  0  0  0  0  0  0
    8.9870    7.9429    2.8387 O   0  0  0  0  0  0  0  0  0  0  0  0
    8.8559    8.0452    1.9165 H   0  0  0  0  0  0  0  0  0  0  0  0
   10.6309    9.8934    1.3646 O   0  0  0  0  0  0  0  0  0  0  0  0
   11.9508    9.8131    1.7744 C   0  0  0  0  0  0  0  0  0  0  0  0
   12.7220   10.9475    2.0658 C   0  0  0  0  0  0  0  0  0  0  0  0
   14.0510   10.7981    2.4674 C   0  0  0  0  0  0  0  0  0  0  0  0
   14.6145    9.5241    2.5740 C   0  0  0  0  0  0  0  0  0  0  0  0
   13.8561    8.3949    2.2770 C   0  0  0  0  0  0  0  0  0  0  0  0
   12.5310    8.5416    1.8715 C   0  0  0  0  0  0  0  0  0  0  0  0
 22 23  2  0  0  0
 22 21  1  0  0  0
 23 18  1  0  0  0
 21 20  2  0  0  0
 18 17  1  0  0  0
 18 19  2  0  0  0
 20 19  1  0  0  0
 17  4  1  0  0  0
  3  4  2  0  0  0
  3  2  1  0  0  0
  4  5  1  0  0  0
  2  1  2  0  0  0
  5  6  2  0  0  0
  5 13  1  0  0  0
  1  6  1  0  0  0
  1  7  1  0  0  0
 11  7  1  0  0  0
 11 10  2  0  0  0
 14 13  2  0  0  0
 13 15  1  0  0  0
  7  8  2  0  0  0
 10  9  1  0  0  0
  8  9  1  0  0  0
  9 12  1  0  0  0
 15 16  1  0  0  0
M  END
> <minimizedAffinity>
-8.73481

$$$$
6CBF_EWD_A_201


 23 25  0  0  0  0  0  0  0  0999 V2000
    8.1460   11.4874    0.2830 C   0  0  0  0  0  0  0  0  0  0  0  0
    8.6961   12.2330    1.3237 C   0  0  0  0  0  0  0  0  0  0  0  0
    9.5373   11.6389    2.2690 C   0  0  0  0  0  0  0  0  0  0  0  0
    9.8435   10.2822    2.1773 C   0  0  0  0  0  0  0  0  0  0  0  0
    9.2723    9.5468    1.1397 C   0  0  0  0  0  0  0  0  0  0  0  0
    8.4368   10.1381    0.1994 C   0  0  0  0  0  0  0  0  0  0  0  0
    7.2466   12.1225   -0.7172 C   0  0  0  0  0  0  0  0  0  0  0  0
    6.4748   11.4738   -1.6716 C   0  0  0  0  0  0  0  0  0  0  0  0
    5.7992   12.4005   -2.3846 N   0  0  0  0  0  0  0  0  0  0  0  0
    6.1588   13.6363   -1.8529 N   0  0  0  0  0  0  0  0  0  0  0  0
    7.0283   13.4810   -0.8476 C   0  0  0  0  0  0  0  0  0  0  0  0
    5.1777   12.2356   -3.1301 H   0  0  0  0  0  0  0  0  0  0  0  0
    9.5516    8.0898    0.9632 C   0  0  0  0  0  0  0  0  0  0  0  0
    8.5925    7.3025    0.8378 O   0  0  0  0  0  0  0  0  0  0  0  0
   10.7474    7.7245    0.9217 O   0  0  0  0  0  0  0  0  0  0  0  0
   11.4336    8.3548    1.0212 H   0  0  0  0  0  0  0  0  0  0  0  0
   10.6502    9.6625    3.1192 O   0  0  0  0  0  0  0  0  0  0  0  0
   12.0281    9.7147    3.2436 C   0  0  0  0  0  0  0  0  0  0  0  0
   12.7028    9.2444    4.3794 C   0  0  0  0  0  0  0  0  0  0  0  0
   14.0948    9.3331    4.4455 C   0  0  0  0  0  0  0  0  0  0  0  0
   14.8148    9.8931    3.3872 C   0  0  0  0  0  0  0  0  0  0  0  0
   14.1493   10.3700    2.2611 C   0  0  0  0  0  0  0  0  0  0  0  0
   12.7598   10.2869    2.1948 C   0  0  0  0  0  0  0  0  0  0  0  0
 22 23  2  0  0  0
 22 21  1  0  0  0
 23 18  1  0  0  0
 21 20  2  0  0  0
 18 17  1  0  0  0
 18 19  2  0  0  0
 20 19  1  0  0  0
 17  4  1  0  0  0
  3  4  2  0  0  0
  3  2  1  0  0  0
  4  5  1  0  0  0
  2  1  2  0  0  0
  5  6  2  0  0  0
  5 13  1  0  0  0
  1  6  1  0  0  0
  1  7  1  0  0  0
 11  7  1  0  0  0
 11 10  2  0  0  0
 14 13  2  0  0  0
 13 15  1  0  0  0
  7  8  2  0  0  0
 10  9  1  0  0  0
  8  9  1  0  0  0
  9 12  1  0  0  0
 15 16  1  0  0  0
M  END
> <minimizedAffinity>
-8.54819

$$$$
6CBF_EWD_A_201


 23 25  0  0  0  0  0  0  0  0999 V2000
    8.2317   10.2853    2.7912 C   0  0  0  0  0  0  0  0  0  0  0  0
    8.5563    9.8119    4.0609 C   0  0  0  0  0  0  0  0  0  0  0  0
    9.7967    9.2185    4.3130 C   0  0  0  0  0  0  0  0  0  0  0  0
   10.7346    9.0977    3.2889 C   0  0  0  0  0  0  0  0  0  0  0  0
   10.3883    9.5617    2.0207 C   0  0  0  0  0  0  0  0  0  0  0  0
    9.1554   10.1527    1.7707 C   0  0  0  0  0  0  0  0  0  0  0  0
    6.9084   10.9107    2.5261 C   0  0  0  0  0  0  0  0  0  0  0  0
    6.3739   11.2316    1.2858 C   0  0  0  0  0  0  0  0  0  0  0  0
    5.1539   11.7808    1.4691 N   0  0  0  0  0  0  0  0  0  0  0  0
    4.9359   11.7898    2.8446 N   0  0  0  0  0  0  0  0  0  0  0  0
    5.9847   11.2669    3.4906 C   0  0  0  0  0  0  0  0  0  0  0  0
    4.5420   12.1088    0.7711 H   0  0  0  0  0  0  0  0  0  0  0  0
   11.3351    9.4778    0.8680 C   0  0  0  0  0  0  0  0  0  0  0  0
   11.5253   10.4926    0.1683 O   0  0  0  0  0  0  0  0  0  0  0  0
   11.9210    8.3901    0.6705 O   0  0  0  0  0  0  0  0  0  0  0  0
   11.7440    7.6553    1.2243 H   0  0  0  0  0  0  0  0  0  0  0  0
   11.9597    8.4859    3.5051 O   0  0  0  0  0  0  0  0  0  0  0  0
   13.1687    9.0703    3.8418 C   0  0  0  0  0  0  0  0  0  0  0  0
   13.3776    9.7240    5.0647 C   0  0  0  0  0  0  0  0  0  0  0  0
   14.6196   10.2998    5.3401 C   0  0  0  0  0  0  0  0  0  0  0  0
   15.6507   10.2308    4.3998 C   0  0  0  0  0  0  0  0  0  0  0  0
   15.4458    9.5910    3.1803 C   0  0  0  0  0  0  0  0  0  0  0  0
   14.2058    9.0197    2.9013 C   0  0  0  0  0  0  0  0  0  0  0  0
 22 23  2  0  0  0
 22 21  1  0  0  0
 23 18  1  0  0  0
 21 20  2  0  0  0
 18 17  1  0  0  0
 18 19  2  0  0  0
 20 19  1  0  0  0
 17  4  1  0  0  0
  3  4  2  0  0  0
  3  2  1  0  0  0
  4  5  1  0  0  0
  2  1  2  0  0  0
  5  6  2  0  0  0
  5 13  1  0  0  0
  1  6  1  0  0  0
  1  7  1  0  0  0
 11  7  1  0  0  0
 11 10  2  0  0  0
 14 13  2  0  0  0
 13 15  1  0  0  0
  7  8  2  0  0  0
 10  9  1  0  0  0
  8  9  1  0  0  0
  9 12  1  0  0  0
 15 16  1  0  0  0
M  END
> <minimizedAffinity>
-8.36600

$$$$
6CBF_EWD_A_201


 23 25  0  0  0  0  0  0  0  0999 V2000
   12.7049    9.6636    3.5736 C   0  0  0  0  0  0  0  0  0  0  0  0
   11.7808    8.9880    4.3680 C   0  0  0  0  0  0  0  0  0  0  0  0
   10.4596    8.8136    3.9461 C   0  0  0  0  0  0  0  0  0  0  0  0
   10.0485    9.3131    2.7115 C   0  0  0  0  0  0  0  0  0  0  0  0
   10.9809   10.0006    1.9357 C   0  0  0  0  0  0  0  0  0  0  0  0
   12.2948   10.1727    2.3550 C   0  0  0  0  0  0  0  0  0  0  0  0
   14.1084    9.8519    4.0291 C   0  0  0  0  0  0  0  0  0  0  0  0
   15.2584    9.6876    3.2690 C   0  0  0  0  0  0  0  0  0  0  0  0
   16.3314    9.9532    4.0447 N   0  0  0  0  0  0  0  0  0  0  0  0
   15.8288   10.2922    5.2984 N   0  0  0  0  0  0  0  0  0  0  0  0
   14.4918   10.2362    5.3001 C   0  0  0  0  0  0  0  0  0  0  0  0
   17.2782    9.9149    3.7776 H   0  0  0  0  0  0  0  0  0  0  0  0
   10.6274   10.5628    0.5974 C   0  0  0  0  0  0  0  0  0  0  0  0
   11.3606   10.3051   -0.3780 O   0  0  0  0  0  0  0  0  0  0  0  0
    9.5867   11.2516    0.5089 O   0  0  0  0  0  0  0  0  0  0  0  0
    9.0685   11.4176    1.2716 H   0  0  0  0  0  0  0  0  0  0  0  0
    8.7366    9.1804    2.2834 O   0  0  0  0  0  0  0  0  0  0  0  0
    7.6579   10.0101    2.5374 C   0  0  0  0  0  0  0  0  0  0  0  0
    7.5584   10.7854    3.7017 C   0  0  0  0  0  0  0  0  0  0  0  0
    6.4395   11.5967    3.9012 C   0  0  0  0  0  0  0  0  0  0  0  0
    5.4186   11.6335    2.9481 C   0  0  0  0  0  0  0  0  0  0  0  0
    5.5079   10.8587    1.7947 C   0  0  0  0  0  0  0  0  0  0  0  0
    6.6214   10.0448    1.5956 C   0  0  0  0  0  0  0  0  0  0  0  0
 22 23  2  0  0  0
 22 21  1  0  0  0
 23 18  1  0  0  0
 21 20  2  0  0  0
 18 17  1  0  0  0
 18 19  2  0  0  0
 20 19  1  0  0  0
 17  4  1  0  0  0
  3  4  2  0  0  0
  3  2  1  0  0  0
  4  5  1  0  0  0
  2  1  2  0  0  0
  5  6  2  0  0  0
  5 13  1  0  0  0
  1  6  1  0  0  0
  1  7  1  0  0  0
 11  7  1  0  0  0
 11 10  2  0  0  0
 14 13  2  0  0  0
 13 15  1  0  0  0
  7  8  2  0  0  0
 10  9  1  0  0  0
  8  9  1  0  0  0
  9 12  1  0  0  0
 15 16  1  0  0  0
M  END
> <minimizedAffinity>
-7.66339

$$$$
