4FSL_0VB_A_501


 37 39  0  0  0  0  0  0  0  0999 V2000
   -5.0601   15.0842   35.3702 C   0  0  0  0  0  0  0  0  0  0  0  0
   -3.8072   15.0322   36.1542 N   0  0  0  0  0  0  0  0  0  0  0  0
   -3.5820   14.2239   36.6692 H   0  0  0  0  0  0  0  0  0  0  0  0
   -5.9948   16.0094   33.1742 C   0  0  0  0  0  0  0  0  0  0  0  0
   -5.5337   16.2006   34.5602 N   0  0  0  0  0  0  0  0  0  0  0  0
   -5.9741   14.7577   32.4873 O   0  0  0  0  0  0  0  0  0  0  0  0
   -5.5456   17.1048   34.9495 H   0  0  0  0  0  0  0  0  0  0  0  0
   -6.4753   17.1234   32.3031 C   0  0  0  0  0  0  0  0  0  0  0  0
   -5.9622   17.6097   30.9927 C   0  0  0  0  0  0  0  0  0  0  0  0
   -7.6617   17.8793   32.8395 C   0  0  0  0  0  0  0  0  0  0  0  0
   -8.4867   17.7109   34.1120 C   0  0  0  0  0  0  0  0  0  0  0  0
   -6.7824   18.7648   30.5402 N   0  0  0  0  0  0  0  0  0  0  0  0
   -7.9723   19.1228   31.6073 S   0  0  0  0  0  0  0  0  0  0  0  0
   -5.1278   17.2241   28.5215 C   0  0  0  0  0  0  0  0  0  0  0  0
   -3.4436   16.8578   30.4406 C   0  0  0  0  0  0  0  0  0  0  0  0
   -4.0153   16.8397   27.5319 C   0  0  0  0  0  0  0  0  0  0  0  0
   -2.3186   16.4763   29.4937 C   0  0  0  0  0  0  0  0  0  0  0  0
   -4.8510   17.2704   30.0245 C   0  0  0  0  0  0  0  0  0  0  0  0
   -2.6022   16.4593   27.9930 C   0  0  0  0  0  0  0  0  0  0  0  0
   -0.5920   14.9711   27.3312 C   0  0  0  0  0  0  0  0  0  0  0  0
   -1.4797   16.0883   27.1941 O   0  0  0  0  0  0  0  0  0  0  0  0
   -5.9736   13.9306   35.4215 N   0  0  0  0  0  0  0  0  0  0  0  0
   -6.9272   14.1500   35.3125 H   0  0  0  0  0  0  0  0  0  0  0  0
   -5.6839   12.5068   35.6094 C   0  0  0  0  0  0  0  0  0  0  0  0
   -5.3445   11.0842   33.2116 C   0  0  0  0  0  0  0  0  0  0  0  0
   -3.5487   11.4180   35.0054 C   0  0  0  0  0  0  0  0  0  0  0  0
   -4.9673   11.7247   34.5463 C   0  0  0  0  0  0  0  0  0  0  0  0
   -4.4156   10.2624   32.3241 C   0  0  0  0  0  0  0  0  0  0  0  0
   -2.9748   10.0021   32.7735 C   0  0  0  0  0  0  0  0  0  0  0  0
   -2.6194   10.5988   34.1288 C   0  0  0  0  0  0  0  0  0  0  0  0
   -4.9889    9.7454   31.0074 C   0  0  0  0  0  0  0  0  0  0  0  0
   -1.0470   10.4819   34.9318 Cl  0  0  0  0  0  0  0  0  0  0  0  0
   -1.0111    9.7718   31.0932 C   0  0  0  0  0  0  0  0  0  0  0  0
    0.0143    9.0959   30.1821 C   0  0  0  0  0  0  0  0  0  0  0  0
   -2.0667    9.1871   31.9491 N   0  0  0  0  0  0  0  0  0  0  0  0
   -0.9263   11.2013   31.1063 O   0  0  0  0  0  0  0  0  0  0  0  0
   -2.1666    8.2079   31.9684 H   0  0  0  0  0  0  0  0  0  0  0  0
 21 20  1  0  0  0
 21 19  1  0  0  0
 16 19  2  0  0  0
 16 14  1  0  0  0
 19 17  1  0  0  0
 14 18  2  0  0  0
 17 15  2  0  0  0
 34 33  1  0  0  0
 18 15  1  0  0  0
 18  9  1  0  0  0
 36 33  2  0  0  0
 12  9  2  0  0  0
 12 13  1  0  0  0
 32 30  1  0  0  0
 33 35  1  0  0  0
  9  8  1  0  0  0
 13 10  1  0  0  0
 35 29  1  0  0  0
 30 29  2  0  0  0
 30 26  1  0  0  0
  8 10  2  0  0  0
  8  4  1  0  0  0
  6  4  2  0  0  0
 29 28  1  0  0  0
 10 11  1  0  0  0
 26 27  2  0  0  0
  4  5  1  0  0  0
 28 31  1  0  0  0
 28 25  2  0  0  0
 27 25  1  0  0  0
 27 24  1  0  0  0
 22 24  1  0  0  0
 22  1  1  0  0  0
  5  1  1  0  0  0
  1  2  2  0  0  0
  5  7  1  0  0  0
  2  3  1  0  0  0
 35 37  1  0  0  0
 22 23  1  0  0  0
M  END
> <minimizedAffinity>
-10.04285

$$$$
4FSL_0VB_A_501


 37 39  0  0  0  0  0  0  0  0999 V2000
   -5.1410   15.0823   35.4091 C   0  0  0  0  0  0  0  0  0  0  0  0
   -3.9004   14.9907   36.2087 N   0  0  0  0  0  0  0  0  0  0  0  0
   -3.7069   14.1754   36.7255 H   0  0  0  0  0  0  0  0  0  0  0  0
   -5.9936   16.0419   33.1945 C   0  0  0  0  0  0  0  0  0  0  0  0
   -5.5695   16.2138   34.5948 N   0  0  0  0  0  0  0  0  0  0  0  0
   -5.9768   14.7951   32.4984 O   0  0  0  0  0  0  0  0  0  0  0  0
   -5.5755   17.1151   34.9908 H   0  0  0  0  0  0  0  0  0  0  0  0
   -6.4273   17.1713   32.3189 C   0  0  0  0  0  0  0  0  0  0  0  0
   -5.8782   17.6464   31.0189 C   0  0  0  0  0  0  0  0  0  0  0  0
   -7.6007   17.9593   32.8373 C   0  0  0  0  0  0  0  0  0  0  0  0
   -8.4519   17.8110   34.0949 C   0  0  0  0  0  0  0  0  0  0  0  0
   -6.6573   18.8256   30.5561 N   0  0  0  0  0  0  0  0  0  0  0  0
   -7.8547   19.2144   31.6038 S   0  0  0  0  0  0  0  0  0  0  0  0
   -5.0173   17.2267   28.5624 C   0  0  0  0  0  0  0  0  0  0  0  0
   -3.3676   16.8406   30.5074 C   0  0  0  0  0  0  0  0  0  0  0  0
   -3.8991   16.8132   27.5912 C   0  0  0  0  0  0  0  0  0  0  0  0
   -2.2374   16.4301   29.5790 C   0  0  0  0  0  0  0  0  0  0  0  0
   -4.7606   17.2782   30.0688 C   0  0  0  0  0  0  0  0  0  0  0  0
   -2.5004   16.4080   28.0746 C   0  0  0  0  0  0  0  0  0  0  0  0
   -0.6387   14.7791   27.3168 C   0  0  0  0  0  0  0  0  0  0  0  0
   -1.3745   16.0091   27.2941 O   0  0  0  0  0  0  0  0  0  0  0  0
   -6.0905   13.9576   35.4473 N   0  0  0  0  0  0  0  0  0  0  0  0
   -7.0175   14.1876   35.2083 H   0  0  0  0  0  0  0  0  0  0  0  0
   -5.8699   12.5494   35.7858 C   0  0  0  0  0  0  0  0  0  0  0  0
   -3.3666   11.3511   35.3549 C   0  0  0  0  0  0  0  0  0  0  0  0
   -5.3172   11.3495   33.6968 C   0  0  0  0  0  0  0  0  0  0  0  0
   -4.8156   11.7480   35.0777 C   0  0  0  0  0  0  0  0  0  0  0  0
   -2.4644   10.5596   34.4139 C   0  0  0  0  0  0  0  0  0  0  0  0
   -2.9969   10.1209   33.0465 C   0  0  0  0  0  0  0  0  0  0  0  0
   -4.4243   10.5639   32.7541 C   0  0  0  0  0  0  0  0  0  0  0  0
   -1.0565   10.2372   34.9075 C   0  0  0  0  0  0  0  0  0  0  0  0
   -5.3317   10.2232   31.2737 Cl  0  0  0  0  0  0  0  0  0  0  0  0
   -1.1849   10.0464   31.1909 C   0  0  0  0  0  0  0  0  0  0  0  0
   -0.2208    9.4544   30.1621 C   0  0  0  0  0  0  0  0  0  0  0  0
   -2.1366    9.3813   32.1077 N   0  0  0  0  0  0  0  0  0  0  0  0
   -1.1530   11.4763   31.2643 O   0  0  0  0  0  0  0  0  0  0  0  0
   -2.1976    8.3989   32.0893 H   0  0  0  0  0  0  0  0  0  0  0  0
 21 20  1  0  0  0
 21 19  1  0  0  0
 16 19  2  0  0  0
 16 14  1  0  0  0
 19 17  1  0  0  0
 14 18  2  0  0  0
 17 15  2  0  0  0
 34 33  1  0  0  0
 18 15  1  0  0  0
 18  9  1  0  0  0
 36 33  2  0  0  0
 12  9  2  0  0  0
 12 13  1  0  0  0
 32 30  1  0  0  0
 33 35  1  0  0  0
  9  8  1  0  0  0
 13 10  1  0  0  0
 35 29  1  0  0  0
 30 29  2  0  0  0
 30 26  1  0  0  0
  8 10  2  0  0  0
  8  4  1  0  0  0
  6  4  2  0  0  0
 29 28  1  0  0  0
 10 11  1  0  0  0
 26 27  2  0  0  0
  4  5  1  0  0  0
 28 31  1  0  0  0
 28 25  2  0  0  0
 27 25  1  0  0  0
 27 24  1  0  0  0
 22 24  1  0  0  0
 22  1  1  0  0  0
  5  1  1  0  0  0
  1  2  2  0  0  0
  5  7  1  0  0  0
  2  3  1  0  0  0
 35 37  1  0  0  0
 22 23  1  0  0  0
M  END
> <minimizedAffinity>
-9.96088

$$$$
4FSL_0VB_A_501


 37 39  0  0  0  0  0  0  0  0999 V2000
   -4.6940   14.5815   34.9068 C   0  0  0  0  0  0  0  0  0  0  0  0
   -5.5932   13.9339   35.8861 N   0  0  0  0  0  0  0  0  0  0  0  0
   -5.3874   13.0315   36.2216 H   0  0  0  0  0  0  0  0  0  0  0  0
   -5.5888   16.1039   33.0536 C   0  0  0  0  0  0  0  0  0  0  0  0
   -4.8585   15.9054   34.3176 N   0  0  0  0  0  0  0  0  0  0  0  0
   -6.1457   15.0450   32.2740 O   0  0  0  0  0  0  0  0  0  0  0  0
   -4.4719   16.6861   34.7761 H   0  0  0  0  0  0  0  0  0  0  0  0
   -5.7710   17.4374   32.4063 C   0  0  0  0  0  0  0  0  0  0  0  0
   -5.2686   17.9502   31.1018 C   0  0  0  0  0  0  0  0  0  0  0  0
   -6.5850   18.4216   33.2034 C   0  0  0  0  0  0  0  0  0  0  0  0
   -7.2815   18.3085   34.5563 C   0  0  0  0  0  0  0  0  0  0  0  0
   -5.7129   19.3580   30.9216 N   0  0  0  0  0  0  0  0  0  0  0  0
   -6.6034   19.8836   32.1917 S   0  0  0  0  0  0  0  0  0  0  0  0
   -5.0111   17.4481   28.5263 C   0  0  0  0  0  0  0  0  0  0  0  0
   -3.0496   16.8310   30.0835 C   0  0  0  0  0  0  0  0  0  0  0  0
   -4.1879   16.9032   27.3474 C   0  0  0  0  0  0  0  0  0  0  0  0
   -2.2052   16.2870   28.9439 C   0  0  0  0  0  0  0  0  0  0  0  0
   -4.4357   17.4501   29.9429 C   0  0  0  0  0  0  0  0  0  0  0  0
   -2.7826   16.3150   27.5301 C   0  0  0  0  0  0  0  0  0  0  0  0
   -1.7751   16.1381   25.1537 C   0  0  0  0  0  0  0  0  0  0  0  0
   -1.9094   15.7816   26.5357 O   0  0  0  0  0  0  0  0  0  0  0  0
   -3.5272   13.8302   34.4148 N   0  0  0  0  0  0  0  0  0  0  0  0
   -2.6931   14.3498   34.3549 H   0  0  0  0  0  0  0  0  0  0  0  0
   -3.4147   12.4294   34.0008 C   0  0  0  0  0  0  0  0  0  0  0  0
   -1.9339   10.6942   32.3624 C   0  0  0  0  0  0  0  0  0  0  0  0
   -1.5887   13.2249   32.5373 C   0  0  0  0  0  0  0  0  0  0  0  0
   -2.4035   12.0144   32.9710 C   0  0  0  0  0  0  0  0  0  0  0  0
   -0.8080   10.5325   31.3464 C   0  0  0  0  0  0  0  0  0  0  0  0
   -0.0276   11.7650   30.8798 C   0  0  0  0  0  0  0  0  0  0  0  0
   -0.4652   13.0714   31.5286 C   0  0  0  0  0  0  0  0  0  0  0  0
   -0.5274    9.1210   30.8378 C   0  0  0  0  0  0  0  0  0  0  0  0
    0.2272   14.6684   31.2110 Cl  0  0  0  0  0  0  0  0  0  0  0  0
    2.4961   11.8753   30.2870 C   0  0  0  0  0  0  0  0  0  0  0  0
    3.7678   11.7860   29.4425 C   0  0  0  0  0  0  0  0  0  0  0  0
    1.0832   11.6321   29.9221 N   0  0  0  0  0  0  0  0  0  0  0  0
    2.7254   12.2615   31.6468 O   0  0  0  0  0  0  0  0  0  0  0  0
    0.8759   11.3694   28.9962 H   0  0  0  0  0  0  0  0  0  0  0  0
 21 20  1  0  0  0
 21 19  1  0  0  0
 16 19  2  0  0  0
 16 14  1  0  0  0
 19 17  1  0  0  0
 14 18  2  0  0  0
 17 15  2  0  0  0
 34 33  1  0  0  0
 18 15  1  0  0  0
 18  9  1  0  0  0
 36 33  2  0  0  0
 12  9  2  0  0  0
 12 13  1  0  0  0
 32 30  1  0  0  0
 33 35  1  0  0  0
  9  8  1  0  0  0
 13 10  1  0  0  0
 35 29  1  0  0  0
 30 29  2  0  0  0
 30 26  1  0  0  0
  8 10  2  0  0  0
  8  4  1  0  0  0
  6  4  2  0  0  0
 29 28  1  0  0  0
 10 11  1  0  0  0
 26 27  2  0  0  0
  4  5  1  0  0  0
 28 31  1  0  0  0
 28 25  2  0  0  0
 27 25  1  0  0  0
 27 24  1  0  0  0
 22 24  1  0  0  0
 22  1  1  0  0  0
  5  1  1  0  0  0
  1  2  2  0  0  0
  5  7  1  0  0  0
  2  3  1  0  0  0
 35 37  1  0  0  0
 22 23  1  0  0  0
M  END
> <minimizedAffinity>
-8.18299

$$$$
4FSL_0VB_A_501


 37 39  0  0  0  0  0  0  0  0999 V2000
   -0.7608   10.0883   27.9880 C   0  0  0  0  0  0  0  0  0  0  0  0
   -1.2080    9.8959   26.5916 N   0  0  0  0  0  0  0  0  0  0  0  0
   -1.5364    9.0158   26.2967 H   0  0  0  0  0  0  0  0  0  0  0  0
    0.1632   12.4627   27.7413 C   0  0  0  0  0  0  0  0  0  0  0  0
   -0.2513   11.3218   28.5761 N   0  0  0  0  0  0  0  0  0  0  0  0
    0.1586   12.4555   26.3133 O   0  0  0  0  0  0  0  0  0  0  0  0
   -0.1826   11.3938   29.5555 H   0  0  0  0  0  0  0  0  0  0  0  0
    0.7029   13.7394   28.2976 C   0  0  0  0  0  0  0  0  0  0  0  0
    0.0322   15.0492   28.5247 C   0  0  0  0  0  0  0  0  0  0  0  0
    2.1579   13.6970   28.6819 C   0  0  0  0  0  0  0  0  0  0  0  0
    3.1945   12.5788   28.6255 C   0  0  0  0  0  0  0  0  0  0  0  0
    1.0137   16.0145   29.0873 N   0  0  0  0  0  0  0  0  0  0  0  0
    2.4926   15.3375   29.2801 S   0  0  0  0  0  0  0  0  0  0  0  0
   -1.9761   15.6888   26.9407 C   0  0  0  0  0  0  0  0  0  0  0  0
   -2.1291   16.3651   29.4251 C   0  0  0  0  0  0  0  0  0  0  0  0
   -3.3503   16.3440   26.7241 C   0  0  0  0  0  0  0  0  0  0  0  0
   -3.4892   17.0190   29.2509 C   0  0  0  0  0  0  0  0  0  0  0  0
   -1.3377   15.6595   28.3297 C   0  0  0  0  0  0  0  0  0  0  0  0
   -4.1267   17.0181   27.8629 C   0  0  0  0  0  0  0  0  0  0  0  0
   -5.8139   18.8088   27.0626 C   0  0  0  0  0  0  0  0  0  0  0  0
   -5.4016   17.6566   27.8092 O   0  0  0  0  0  0  0  0  0  0  0  0
   -0.7712    8.9314   28.8987 N   0  0  0  0  0  0  0  0  0  0  0  0
   -1.1180    8.0972   28.5074 H   0  0  0  0  0  0  0  0  0  0  0  0
   -0.3455    8.8289   30.2968 C   0  0  0  0  0  0  0  0  0  0  0  0
   -0.9296    9.8593   32.8434 C   0  0  0  0  0  0  0  0  0  0  0  0
   -2.6215    9.5385   30.9489 C   0  0  0  0  0  0  0  0  0  0  0  0
   -1.1693    9.4387   31.3944 C   0  0  0  0  0  0  0  0  0  0  0  0
   -1.9843   10.4120   33.7963 C   0  0  0  0  0  0  0  0  0  0  0  0
   -3.4332   10.5545   33.3206 C   0  0  0  0  0  0  0  0  0  0  0  0
   -3.6770   10.0851   31.8925 C   0  0  0  0  0  0  0  0  0  0  0  0
   -1.5191   10.8075   35.1952 C   0  0  0  0  0  0  0  0  0  0  0  0
   -5.2291   10.1144   31.0433 Cl  0  0  0  0  0  0  0  0  0  0  0  0
   -4.7411   12.4986   34.4350 C   0  0  0  0  0  0  0  0  0  0  0  0
   -5.7683   13.2016   35.3233 C   0  0  0  0  0  0  0  0  0  0  0  0
   -4.4762   11.0576   34.2303 N   0  0  0  0  0  0  0  0  0  0  0  0
   -3.9054   13.3923   33.6909 O   0  0  0  0  0  0  0  0  0  0  0  0
   -5.0224   10.4049   34.7250 H   0  0  0  0  0  0  0  0  0  0  0  0
 21 20  1  0  0  0
 21 19  1  0  0  0
 16 19  2  0  0  0
 16 14  1  0  0  0
 19 17  1  0  0  0
 14 18  2  0  0  0
 17 15  2  0  0  0
 34 33  1  0  0  0
 18 15  1  0  0  0
 18  9  1  0  0  0
 36 33  2  0  0  0
 12  9  2  0  0  0
 12 13  1  0  0  0
 32 30  1  0  0  0
 33 35  1  0  0  0
  9  8  1  0  0  0
 13 10  1  0  0  0
 35 29  1  0  0  0
 30 29  2  0  0  0
 30 26  1  0  0  0
  8 10  2  0  0  0
  8  4  1  0  0  0
  6  4  2  0  0  0
 29 28  1  0  0  0
 10 11  1  0  0  0
 26 27  2  0  0  0
  4  5  1  0  0  0
 28 31  1  0  0  0
 28 25  2  0  0  0
 27 25  1  0  0  0
 27 24  1  0  0  0
 22 24  1  0  0  0
 22  1  1  0  0  0
  5  1  1  0  0  0
  1  2  2  0  0  0
  5  7  1  0  0  0
  2  3  1  0  0  0
 35 37  1  0  0  0
 22 23  1  0  0  0
M  END
> <minimizedAffinity>
-8.08754

$$$$
4FSL_0VB_A_501


 37 39  0  0  0  0  0  0  0  0999 V2000
    0.7318   15.7807   29.8725 C   0  0  0  0  0  0  0  0  0  0  0  0
    1.8521   16.5322   30.4783 N   0  0  0  0  0  0  0  0  0  0  0  0
    1.7909   17.5095   30.5809 H   0  0  0  0  0  0  0  0  0  0  0  0
    1.0832   13.3806   30.6901 C   0  0  0  0  0  0  0  0  0  0  0  0
    0.6689   14.3404   29.6521 N   0  0  0  0  0  0  0  0  0  0  0  0
    1.6228   13.7538   31.9585 O   0  0  0  0  0  0  0  0  0  0  0  0
    0.3413   14.0011   28.7880 H   0  0  0  0  0  0  0  0  0  0  0  0
    1.0489   11.8990   30.5051 C   0  0  0  0  0  0  0  0  0  0  0  0
    0.0329   10.8991   30.9353 C   0  0  0  0  0  0  0  0  0  0  0  0
    2.2338   11.3250   29.7750 C   0  0  0  0  0  0  0  0  0  0  0  0
    3.4704   11.9795   29.1662 C   0  0  0  0  0  0  0  0  0  0  0  0
    0.4731    9.5401   30.5221 N   0  0  0  0  0  0  0  0  0  0  0  0
    1.9080    9.5776   29.7333 S   0  0  0  0  0  0  0  0  0  0  0  0
   -2.4083    9.9467   31.2269 C   0  0  0  0  0  0  0  0  0  0  0  0
   -1.6443   11.8298   32.8153 C   0  0  0  0  0  0  0  0  0  0  0  0
   -3.7675    9.9528   31.9459 C   0  0  0  0  0  0  0  0  0  0  0  0
   -2.9725   11.8627   33.5520 C   0  0  0  0  0  0  0  0  0  0  0  0
   -1.2862   10.8836   31.6749 C   0  0  0  0  0  0  0  0  0  0  0  0
   -4.0756   10.9031   33.1104 C   0  0  0  0  0  0  0  0  0  0  0  0
   -5.5215   11.7050   35.1004 C   0  0  0  0  0  0  0  0  0  0  0  0
   -5.2802   11.0155   33.8670 O   0  0  0  0  0  0  0  0  0  0  0  0
   -0.4396   16.5289   29.3866 N   0  0  0  0  0  0  0  0  0  0  0  0
   -0.3200   17.5050   29.3411 H   0  0  0  0  0  0  0  0  0  0  0  0
   -1.7555   16.0461   28.9604 C   0  0  0  0  0  0  0  0  0  0  0  0
   -3.6964   16.8118   30.8404 C   0  0  0  0  0  0  0  0  0  0  0  0
   -3.8287   17.2286   28.3179 C   0  0  0  0  0  0  0  0  0  0  0  0
   -3.0108   16.6851   29.4810 C   0  0  0  0  0  0  0  0  0  0  0  0
   -5.0434   17.4784   31.0997 C   0  0  0  0  0  0  0  0  0  0  0  0
   -5.8346   18.0661   29.9273 C   0  0  0  0  0  0  0  0  0  0  0  0
   -5.1709   17.8910   28.5679 C   0  0  0  0  0  0  0  0  0  0  0  0
   -5.5276   17.5289   32.5463 C   0  0  0  0  0  0  0  0  0  0  0  0
   -5.8178   18.4525   27.0195 Cl  0  0  0  0  0  0  0  0  0  0  0  0
   -8.4193   17.9281   30.1088 C   0  0  0  0  0  0  0  0  0  0  0  0
   -9.8614   18.3941   30.3123 C   0  0  0  0  0  0  0  0  0  0  0  0
   -7.1509   18.6887   30.1468 N   0  0  0  0  0  0  0  0  0  0  0  0
   -8.2924   16.5284   29.8337 O   0  0  0  0  0  0  0  0  0  0  0  0
   -7.1887   19.6558   30.3272 H   0  0  0  0  0  0  0  0  0  0  0  0
 21 20  1  0  0  0
 21 19  1  0  0  0
 16 19  2  0  0  0
 16 14  1  0  0  0
 19 17  1  0  0  0
 14 18  2  0  0  0
 17 15  2  0  0  0
 34 33  1  0  0  0
 18 15  1  0  0  0
 18  9  1  0  0  0
 36 33  2  0  0  0
 12  9  2  0  0  0
 12 13  1  0  0  0
 32 30  1  0  0  0
 33 35  1  0  0  0
  9  8  1  0  0  0
 13 10  1  0  0  0
 35 29  1  0  0  0
 30 29  2  0  0  0
 30 26  1  0  0  0
  8 10  2  0  0  0
  8  4  1  0  0  0
  6  4  2  0  0  0
 29 28  1  0  0  0
 10 11  1  0  0  0
 26 27  2  0  0  0
  4  5  1  0  0  0
 28 31  1  0  0  0
 28 25  2  0  0  0
 27 25  1  0  0  0
 27 24  1  0  0  0
 22 24  1  0  0  0
 22  1  1  0  0  0
  5  1  1  0  0  0
  1  2  2  0  0  0
  5  7  1  0  0  0
  2  3  1  0  0  0
 35 37  1  0  0  0
 22 23  1  0  0  0
M  END
> <minimizedAffinity>
-8.01827

$$$$
4FSL_0VB_A_501


 37 39  0  0  0  0  0  0  0  0999 V2000
    0.6615   11.5234   29.3720 C   0  0  0  0  0  0  0  0  0  0  0  0
    1.3275   12.0580   30.5793 N   0  0  0  0  0  0  0  0  0  0  0  0
    1.6399   11.4435   31.2821 H   0  0  0  0  0  0  0  0  0  0  0  0
    0.3547   13.7519   28.1505 C   0  0  0  0  0  0  0  0  0  0  0  0
    0.1452   12.2970   28.2487 N   0  0  0  0  0  0  0  0  0  0  0  0
    1.0181   14.5356   29.1429 O   0  0  0  0  0  0  0  0  0  0  0  0
   -0.3560   11.8353   27.5381 H   0  0  0  0  0  0  0  0  0  0  0  0
   -0.1662   14.5868   27.0271 C   0  0  0  0  0  0  0  0  0  0  0  0
   -1.2911   15.5618   26.9944 C   0  0  0  0  0  0  0  0  0  0  0  0
    0.5559   14.4079   25.7183 C   0  0  0  0  0  0  0  0  0  0  0  0
    1.7440   13.5369   25.3208 C   0  0  0  0  0  0  0  0  0  0  0  0
   -1.4183   16.1218   25.6226 N   0  0  0  0  0  0  0  0  0  0  0  0
   -0.2948   15.5022   24.6046 S   0  0  0  0  0  0  0  0  0  0  0  0
   -3.6654   16.6284   27.4144 C   0  0  0  0  0  0  0  0  0  0  0  0
   -2.1070   16.3026   29.4437 C   0  0  0  0  0  0  0  0  0  0  0  0
   -4.7093   17.2308   28.3695 C   0  0  0  0  0  0  0  0  0  0  0  0
   -3.1142   16.8886   30.4184 C   0  0  0  0  0  0  0  0  0  0  0  0
   -2.3275   16.1147   27.9470 C   0  0  0  0  0  0  0  0  0  0  0  0
   -4.4570   17.3741   29.8761 C   0  0  0  0  0  0  0  0  0  0  0  0
   -5.3771   19.2243   31.4329 C   0  0  0  0  0  0  0  0  0  0  0  0
   -5.3281   17.9054   30.8735 O   0  0  0  0  0  0  0  0  0  0  0  0
    0.4353   10.0717   29.2746 N   0  0  0  0  0  0  0  0  0  0  0  0
    0.6693    9.6717   28.4060 H   0  0  0  0  0  0  0  0  0  0  0  0
   -0.0841    9.1302   30.2697 C   0  0  0  0  0  0  0  0  0  0  0  0
   -2.7949    9.6194   30.8177 C   0  0  0  0  0  0  0  0  0  0  0  0
   -0.8739    9.8726   32.4910 C   0  0  0  0  0  0  0  0  0  0  0  0
   -1.2981    9.4709   31.0853 C   0  0  0  0  0  0  0  0  0  0  0  0
   -3.8433   10.0516   31.8375 C   0  0  0  0  0  0  0  0  0  0  0  0
   -3.4106   10.4057   33.2634 C   0  0  0  0  0  0  0  0  0  0  0  0
   -1.9111   10.3060   33.5104 C   0  0  0  0  0  0  0  0  0  0  0  0
   -5.2945   10.0968   31.3668 C   0  0  0  0  0  0  0  0  0  0  0  0
   -1.0887   10.6445   35.0402 Cl  0  0  0  0  0  0  0  0  0  0  0  0
   -4.7659   12.2747   34.4476 C   0  0  0  0  0  0  0  0  0  0  0  0
   -5.7581   12.9225   35.4142 C   0  0  0  0  0  0  0  0  0  0  0  0
   -4.3991   10.8540   34.2586 N   0  0  0  0  0  0  0  0  0  0  0  0
   -4.0871   13.2064   33.5978 O   0  0  0  0  0  0  0  0  0  0  0  0
   -4.8360   10.1770   34.8244 H   0  0  0  0  0  0  0  0  0  0  0  0
 21 20  1  0  0  0
 21 19  1  0  0  0
 16 19  2  0  0  0
 16 14  1  0  0  0
 19 17  1  0  0  0
 14 18  2  0  0  0
 17 15  2  0  0  0
 34 33  1  0  0  0
 18 15  1  0  0  0
 18  9  1  0  0  0
 36 33  2  0  0  0
 12  9  2  0  0  0
 12 13  1  0  0  0
 32 30  1  0  0  0
 33 35  1  0  0  0
  9  8  1  0  0  0
 13 10  1  0  0  0
 35 29  1  0  0  0
 30 29  2  0  0  0
 30 26  1  0  0  0
  8 10  2  0  0  0
  8  4  1  0  0  0
  6  4  2  0  0  0
 29 28  1  0  0  0
 10 11  1  0  0  0
 26 27  2  0  0  0
  4  5  1  0  0  0
 28 31  1  0  0  0
 28 25  2  0  0  0
 27 25  1  0  0  0
 27 24  1  0  0  0
 22 24  1  0  0  0
 22  1  1  0  0  0
  5  1  1  0  0  0
  1  2  2  0  0  0
  5  7  1  0  0  0
  2  3  1  0  0  0
 35 37  1  0  0  0
 22 23  1  0  0  0
M  END
> <minimizedAffinity>
-7.77384

$$$$
4FSL_0VB_A_501


 37 39  0  0  0  0  0  0  0  0999 V2000
   -4.7079   14.5009   34.8880 C   0  0  0  0  0  0  0  0  0  0  0  0
   -5.7256   13.8411   35.7342 N   0  0  0  0  0  0  0  0  0  0  0  0
   -5.5532   12.9447   36.1028 H   0  0  0  0  0  0  0  0  0  0  0  0
   -5.5469   16.0268   33.0118 C   0  0  0  0  0  0  0  0  0  0  0  0
   -4.8109   15.8182   34.2709 N   0  0  0  0  0  0  0  0  0  0  0  0
   -6.1689   14.9816   32.2636 O   0  0  0  0  0  0  0  0  0  0  0  0
   -4.3778   16.5875   34.7066 H   0  0  0  0  0  0  0  0  0  0  0  0
   -5.6680   17.3534   32.3366 C   0  0  0  0  0  0  0  0  0  0  0  0
   -5.0861   17.8366   31.0540 C   0  0  0  0  0  0  0  0  0  0  0  0
   -6.5044   18.3647   33.0742 C   0  0  0  0  0  0  0  0  0  0  0  0
   -7.2749   18.2854   34.3888 C   0  0  0  0  0  0  0  0  0  0  0  0
   -5.4925   19.2495   30.8298 N   0  0  0  0  0  0  0  0  0  0  0  0
   -6.4398   19.8111   32.0422 S   0  0  0  0  0  0  0  0  0  0  0  0
   -4.7083   17.2697   28.5070 C   0  0  0  0  0  0  0  0  0  0  0  0
   -2.8284   16.6799   30.1717 C   0  0  0  0  0  0  0  0  0  0  0  0
   -3.8330   16.6911   27.3828 C   0  0  0  0  0  0  0  0  0  0  0  0
   -1.9338   16.1031   29.0878 C   0  0  0  0  0  0  0  0  0  0  0  0
   -4.2018   17.3033   29.9492 C   0  0  0  0  0  0  0  0  0  0  0  0
   -2.4423   16.0996   27.6476 C   0  0  0  0  0  0  0  0  0  0  0  0
   -0.5417   14.5118   26.8988 C   0  0  0  0  0  0  0  0  0  0  0  0
   -1.5259   15.5368   26.7097 O   0  0  0  0  0  0  0  0  0  0  0  0
   -3.4690   13.7698   34.5737 N   0  0  0  0  0  0  0  0  0  0  0  0
   -2.6616   14.1060   35.0257 H   0  0  0  0  0  0  0  0  0  0  0  0
   -3.2515   12.6197   33.6926 C   0  0  0  0  0  0  0  0  0  0  0  0
   -1.0814   13.5705   32.1844 C   0  0  0  0  0  0  0  0  0  0  0  0
   -1.8423   11.1295   32.3133 C   0  0  0  0  0  0  0  0  0  0  0  0
   -2.0470   12.5580   32.7978 C   0  0  0  0  0  0  0  0  0  0  0  0
    0.0591   13.2456   31.2255 C   0  0  0  0  0  0  0  0  0  0  0  0
    0.2863   11.7968   30.7837 C   0  0  0  0  0  0  0  0  0  0  0  0
   -0.7110   10.7990   31.3572 C   0  0  0  0  0  0  0  0  0  0  0  0
    0.9306   14.4095   30.7613 C   0  0  0  0  0  0  0  0  0  0  0  0
   -0.7276    9.0569   31.0475 Cl  0  0  0  0  0  0  0  0  0  0  0  0
    1.1108   11.1247   28.4171 C   0  0  0  0  0  0  0  0  0  0  0  0
    2.0855   10.7570   27.2976 C   0  0  0  0  0  0  0  0  0  0  0  0
    1.3620   11.4607   29.8358 N   0  0  0  0  0  0  0  0  0  0  0  0
   -0.2630   11.1375   28.0129 O   0  0  0  0  0  0  0  0  0  0  0  0
    2.2911   11.4596   30.1611 H   0  0  0  0  0  0  0  0  0  0  0  0
 21 20  1  0  0  0
 21 19  1  0  0  0
 16 19  2  0  0  0
 16 14  1  0  0  0
 19 17  1  0  0  0
 14 18  2  0  0  0
 17 15  2  0  0  0
 34 33  1  0  0  0
 18 15  1  0  0  0
 18  9  1  0  0  0
 36 33  2  0  0  0
 12  9  2  0  0  0
 12 13  1  0  0  0
 32 30  1  0  0  0
 33 35  1  0  0  0
  9  8  1  0  0  0
 13 10  1  0  0  0
 35 29  1  0  0  0
 30 29  2  0  0  0
 30 26  1  0  0  0
  8 10  2  0  0  0
  8  4  1  0  0  0
  6  4  2  0  0  0
 29 28  1  0  0  0
 10 11  1  0  0  0
 26 27  2  0  0  0
  4  5  1  0  0  0
 28 31  1  0  0  0
 28 25  2  0  0  0
 27 25  1  0  0  0
 27 24  1  0  0  0
 22 24  1  0  0  0
 22  1  1  0  0  0
  5  1  1  0  0  0
  1  2  2  0  0  0
  5  7  1  0  0  0
  2  3  1  0  0  0
 35 37  1  0  0  0
 22 23  1  0  0  0
M  END
> <minimizedAffinity>
-7.77348

$$$$
4FSL_0VB_A_501


 37 39  0  0  0  0  0  0  0  0999 V2000
    0.8562   13.7639   30.2058 C   0  0  0  0  0  0  0  0  0  0  0  0
    0.9974   14.6971   31.3443 N   0  0  0  0  0  0  0  0  0  0  0  0
    1.6601   14.5165   32.0496 H   0  0  0  0  0  0  0  0  0  0  0  0
   -0.3577   15.1924   28.4628 C   0  0  0  0  0  0  0  0  0  0  0  0
   -0.0722   13.8894   29.0881 N   0  0  0  0  0  0  0  0  0  0  0  0
    0.1884   16.4338   28.9099 O   0  0  0  0  0  0  0  0  0  0  0  0
   -0.5193   13.0832   28.7428 H   0  0  0  0  0  0  0  0  0  0  0  0
   -1.3099   15.3714   27.3262 C   0  0  0  0  0  0  0  0  0  0  0  0
   -2.6134   16.0887   27.2671 C   0  0  0  0  0  0  0  0  0  0  0  0
   -0.8882   14.7156   26.0383 C   0  0  0  0  0  0  0  0  0  0  0  0
    0.3503   13.9065   25.6648 C   0  0  0  0  0  0  0  0  0  0  0  0
   -3.1854   15.9599   25.9004 N   0  0  0  0  0  0  0  0  0  0  0  0
   -2.2117   15.0900   24.9116 S   0  0  0  0  0  0  0  0  0  0  0  0
   -3.1880   16.9479   29.6926 C   0  0  0  0  0  0  0  0  0  0  0  0
   -4.7981   17.5662   27.7747 C   0  0  0  0  0  0  0  0  0  0  0  0
   -4.1101   17.7158   30.6542 C   0  0  0  0  0  0  0  0  0  0  0  0
   -5.7312   18.3368   28.6931 C   0  0  0  0  0  0  0  0  0  0  0  0
   -3.5039   16.8807   28.1982 C   0  0  0  0  0  0  0  0  0  0  0  0
   -5.3894   18.4174   30.1796 C   0  0  0  0  0  0  0  0  0  0  0  0
   -6.2506   19.5937   32.3169 C   0  0  0  0  0  0  0  0  0  0  0  0
   -6.3291   19.1633   30.9518 O   0  0  0  0  0  0  0  0  0  0  0  0
    1.6857   12.5476   30.1825 N   0  0  0  0  0  0  0  0  0  0  0  0
    2.6219   12.6878   29.9123 H   0  0  0  0  0  0  0  0  0  0  0  0
    1.3340   11.1611   30.4991 C   0  0  0  0  0  0  0  0  0  0  0  0
   -1.3705   10.4702   30.8093 C   0  0  0  0  0  0  0  0  0  0  0  0
    0.2363   11.0650   32.7116 C   0  0  0  0  0  0  0  0  0  0  0  0
    0.0544   10.8407   31.2169 C   0  0  0  0  0  0  0  0  0  0  0  0
   -2.5410   10.2514   31.7623 C   0  0  0  0  0  0  0  0  0  0  0  0
   -2.3335   10.4315   33.2690 C   0  0  0  0  0  0  0  0  0  0  0  0
   -0.9244   10.8516   33.6656 C   0  0  0  0  0  0  0  0  0  0  0  0
   -3.8763    9.8476   31.1428 C   0  0  0  0  0  0  0  0  0  0  0  0
   -0.3561   11.1418   35.3161 Cl  0  0  0  0  0  0  0  0  0  0  0  0
   -4.4695   11.3016   34.4576 C   0  0  0  0  0  0  0  0  0  0  0  0
   -5.6889   11.3001   35.3804 C   0  0  0  0  0  0  0  0  0  0  0  0
   -3.4542   10.2550   34.2078 N   0  0  0  0  0  0  0  0  0  0  0  0
   -4.2928   12.5207   33.7272 O   0  0  0  0  0  0  0  0  0  0  0  0
   -3.5314    9.4010   34.6915 H   0  0  0  0  0  0  0  0  0  0  0  0
 21 20  1  0  0  0
 21 19  1  0  0  0
 16 19  2  0  0  0
 16 14  1  0  0  0
 19 17  1  0  0  0
 14 18  2  0  0  0
 17 15  2  0  0  0
 34 33  1  0  0  0
 18 15  1  0  0  0
 18  9  1  0  0  0
 36 33  2  0  0  0
 12  9  2  0  0  0
 12 13  1  0  0  0
 32 30  1  0  0  0
 33 35  1  0  0  0
  9  8  1  0  0  0
 13 10  1  0  0  0
 35 29  1  0  0  0
 30 29  2  0  0  0
 30 26  1  0  0  0
  8 10  2  0  0  0
  8  4  1  0  0  0
  6  4  2  0  0  0
 29 28  1  0  0  0
 10 11  1  0  0  0
 26 27  2  0  0  0
  4  5  1  0  0  0
 28 31  1  0  0  0
 28 25  2  0  0  0
 27 25  1  0  0  0
 27 24  1  0  0  0
 22 24  1  0  0  0
 22  1  1  0  0  0
  5  1  1  0  0  0
  1  2  2  0  0  0
  5  7  1  0  0  0
  2  3  1  0  0  0
 35 37  1  0  0  0
 22 23  1  0  0  0
M  END
> <minimizedAffinity>
-7.73952

$$$$
4FSL_0VB_A_501


 37 39  0  0  0  0  0  0  0  0999 V2000
   -5.6935   15.4920   34.8092 C   0  0  0  0  0  0  0  0  0  0  0  0
   -7.0048   15.8043   35.4175 N   0  0  0  0  0  0  0  0  0  0  0  0
   -7.3339   15.2724   36.1778 H   0  0  0  0  0  0  0  0  0  0  0  0
   -5.7458   16.3052   32.3826 C   0  0  0  0  0  0  0  0  0  0  0  0
   -5.0696   16.1813   33.6855 N   0  0  0  0  0  0  0  0  0  0  0  0
   -7.0192   15.7330   32.0819 O   0  0  0  0  0  0  0  0  0  0  0  0
   -4.1741   16.5737   33.8006 H   0  0  0  0  0  0  0  0  0  0  0  0
   -5.1413   16.9896   31.2007 C   0  0  0  0  0  0  0  0  0  0  0  0
   -3.7986   16.8273   30.5779 C   0  0  0  0  0  0  0  0  0  0  0  0
   -6.0275   18.0113   30.5396 C   0  0  0  0  0  0  0  0  0  0  0  0
   -7.4497   18.4744   30.8415 C   0  0  0  0  0  0  0  0  0  0  0  0
   -3.6747   17.7577   29.4243 N   0  0  0  0  0  0  0  0  0  0  0  0
   -5.0347   18.6442   29.2074 S   0  0  0  0  0  0  0  0  0  0  0  0
   -1.4075   16.0513   29.7830 C   0  0  0  0  0  0  0  0  0  0  0  0
   -2.3573   15.0232   31.9495 C   0  0  0  0  0  0  0  0  0  0  0  0
   -0.1492   15.1893   29.9788 C   0  0  0  0  0  0  0  0  0  0  0  0
   -1.1289   14.1592   32.1785 C   0  0  0  0  0  0  0  0  0  0  0  0
   -2.5478   16.0068   30.8005 C   0  0  0  0  0  0  0  0  0  0  0  0
    0.0137   14.2331   31.1676 C   0  0  0  0  0  0  0  0  0  0  0  0
    1.4807   12.7760   32.7228 C   0  0  0  0  0  0  0  0  0  0  0  0
    1.1176   13.3833   31.4761 O   0  0  0  0  0  0  0  0  0  0  0  0
   -4.9276   14.3476   35.3305 N   0  0  0  0  0  0  0  0  0  0  0  0
   -4.0754   14.5808   35.7649 H   0  0  0  0  0  0  0  0  0  0  0  0
   -5.2370   12.9159   35.3032 C   0  0  0  0  0  0  0  0  0  0  0  0
   -2.8965   11.4395   34.8232 C   0  0  0  0  0  0  0  0  0  0  0  0
   -4.9684   11.4659   33.3196 C   0  0  0  0  0  0  0  0  0  0  0  0
   -4.3213   11.9480   34.6104 C   0  0  0  0  0  0  0  0  0  0  0  0
   -2.1500   10.4733   33.9093 C   0  0  0  0  0  0  0  0  0  0  0  0
   -2.8304    9.9558   32.6385 C   0  0  0  0  0  0  0  0  0  0  0  0
   -4.2308   10.5063   32.4041 C   0  0  0  0  0  0  0  0  0  0  0  0
   -0.7415   10.0640   34.3317 C   0  0  0  0  0  0  0  0  0  0  0  0
   -5.2836   10.1116   31.0378 Cl  0  0  0  0  0  0  0  0  0  0  0  0
   -1.1199    9.5105   30.7389 C   0  0  0  0  0  0  0  0  0  0  0  0
   -0.2900    8.7254   29.7223 C   0  0  0  0  0  0  0  0  0  0  0  0
   -2.1205    9.0453   31.7243 N   0  0  0  0  0  0  0  0  0  0  0  0
   -0.8824   10.9226   30.7190 O   0  0  0  0  0  0  0  0  0  0  0  0
   -2.3211    8.0826   31.7710 H   0  0  0  0  0  0  0  0  0  0  0  0
 21 20  1  0  0  0
 21 19  1  0  0  0
 16 19  2  0  0  0
 16 14  1  0  0  0
 19 17  1  0  0  0
 14 18  2  0  0  0
 17 15  2  0  0  0
 34 33  1  0  0  0
 18 15  1  0  0  0
 18  9  1  0  0  0
 36 33  2  0  0  0
 12  9  2  0  0  0
 12 13  1  0  0  0
 32 30  1  0  0  0
 33 35  1  0  0  0
  9  8  1  0  0  0
 13 10  1  0  0  0
 35 29  1  0  0  0
 30 29  2  0  0  0
 30 26  1  0  0  0
  8 10  2  0  0  0
  8  4  1  0  0  0
  6  4  2  0  0  0
 29 28  1  0  0  0
 10 11  1  0  0  0
 26 27  2  0  0  0
  4  5  1  0  0  0
 28 31  1  0  0  0
 28 25  2  0  0  0
 27 25  1  0  0  0
 27 24  1  0  0  0
 22 24  1  0  0  0
 22  1  1  0  0  0
  5  1  1  0  0  0
  1  2  2  0  0  0
  5  7  1  0  0  0
  2  3  1  0  0  0
 35 37  1  0  0  0
 22 23  1  0  0  0
M  END
> <minimizedAffinity>
-7.69295

$$$$
4FSL_0VB_A_501


 37 39  0  0  0  0  0  0  0  0999 V2000
   -4.0049   17.0959   29.3518 C   0  0  0  0  0  0  0  0  0  0  0  0
   -4.2115   17.6538   27.9979 N   0  0  0  0  0  0  0  0  0  0  0  0
   -3.4456   17.7652   27.3894 H   0  0  0  0  0  0  0  0  0  0  0  0
   -4.9601   17.5089   31.6905 C   0  0  0  0  0  0  0  0  0  0  0  0
   -5.0292   16.8697   30.3650 N   0  0  0  0  0  0  0  0  0  0  0  0
   -3.8870   18.3464   32.1224 O   0  0  0  0  0  0  0  0  0  0  0  0
   -5.7859   16.2749   30.1580 H   0  0  0  0  0  0  0  0  0  0  0  0
   -5.9774   17.2968   32.7632 C   0  0  0  0  0  0  0  0  0  0  0  0
   -6.1333   16.1782   33.7335 C   0  0  0  0  0  0  0  0  0  0  0  0
   -7.0142   18.3826   32.8754 C   0  0  0  0  0  0  0  0  0  0  0  0
   -7.2159   19.6826   32.1026 C   0  0  0  0  0  0  0  0  0  0  0  0
   -7.3227   16.4306   34.5897 N   0  0  0  0  0  0  0  0  0  0  0  0
   -8.0650   17.8383   34.2024 S   0  0  0  0  0  0  0  0  0  0  0  0
   -6.1132   13.8636   34.9960 C   0  0  0  0  0  0  0  0  0  0  0  0
   -4.0275   14.5146   33.6252 C   0  0  0  0  0  0  0  0  0  0  0  0
   -5.3992   12.5561   35.3772 C   0  0  0  0  0  0  0  0  0  0  0  0
   -3.2919   13.2329   33.9771 C   0  0  0  0  0  0  0  0  0  0  0  0
   -5.4400   14.8768   34.0697 C   0  0  0  0  0  0  0  0  0  0  0  0
   -3.9868   12.2179   34.8825 C   0  0  0  0  0  0  0  0  0  0  0  0
   -2.4653   10.2244   34.2465 C   0  0  0  0  0  0  0  0  0  0  0  0
   -3.2102   11.0512   35.1500 O   0  0  0  0  0  0  0  0  0  0  0  0
   -2.6349   16.7645   29.7777 N   0  0  0  0  0  0  0  0  0  0  0  0
   -2.4209   16.9991   30.7096 H   0  0  0  0  0  0  0  0  0  0  0  0
   -1.5409   16.1399   29.0299 C   0  0  0  0  0  0  0  0  0  0  0  0
   -0.6840   14.1494   30.8164 C   0  0  0  0  0  0  0  0  0  0  0  0
   -0.4170   14.0734   28.2713 C   0  0  0  0  0  0  0  0  0  0  0  0
   -0.9589   14.8295   29.4763 C   0  0  0  0  0  0  0  0  0  0  0  0
   -0.0022   12.7984   31.0061 C   0  0  0  0  0  0  0  0  0  0  0  0
    0.4948   12.0235   29.7820 C   0  0  0  0  0  0  0  0  0  0  0  0
    0.2648   12.7298   28.4526 C   0  0  0  0  0  0  0  0  0  0  0  0
    0.1380   12.2847   32.4365 C   0  0  0  0  0  0  0  0  0  0  0  0
    0.7176   12.1096   26.8584 Cl  0  0  0  0  0  0  0  0  0  0  0  0
    2.6544   10.6047   30.0171 C   0  0  0  0  0  0  0  0  0  0  0  0
    3.5362    9.3661   30.1809 C   0  0  0  0  0  0  0  0  0  0  0  0
    1.1824   10.7309   29.9400 N   0  0  0  0  0  0  0  0  0  0  0  0
    3.3858   11.8321   29.9199 O   0  0  0  0  0  0  0  0  0  0  0  0
    0.6374    9.9130   29.9968 H   0  0  0  0  0  0  0  0  0  0  0  0
 21 20  1  0  0  0
 21 19  1  0  0  0
 16 19  2  0  0  0
 16 14  1  0  0  0
 19 17  1  0  0  0
 14 18  2  0  0  0
 17 15  2  0  0  0
 34 33  1  0  0  0
 18 15  1  0  0  0
 18  9  1  0  0  0
 36 33  2  0  0  0
 12  9  2  0  0  0
 12 13  1  0  0  0
 32 30  1  0  0  0
 33 35  1  0  0  0
  9  8  1  0  0  0
 13 10  1  0  0  0
 35 29  1  0  0  0
 30 29  2  0  0  0
 30 26  1  0  0  0
  8 10  2  0  0  0
  8  4  1  0  0  0
  6  4  2  0  0  0
 29 28  1  0  0  0
 10 11  1  0  0  0
 26 27  2  0  0  0
  4  5  1  0  0  0
 28 31  1  0  0  0
 28 25  2  0  0  0
 27 25  1  0  0  0
 27 24  1  0  0  0
 22 24  1  0  0  0
 22  1  1  0  0  0
  5  1  1  0  0  0
  1  2  2  0  0  0
  5  7  1  0  0  0
  2  3  1  0  0  0
 35 37  1  0  0  0
 22 23  1  0  0  0
M  END
> <minimizedAffinity>
-7.54997

$$$$
