4U0W_16G_A_301


 25 25  0  0  0  0  0  0  0  0999 V2000
  -41.6800   -8.5782   25.3637 C   0  0  0  0  0  0  0  0  0  0  0  0
  -41.3726   -7.6747   24.1778 C   0  0  0  0  0  0  0  0  0  0  0  0
  -42.4559   -7.6740   23.1498 C   0  0  0  0  0  0  0  0  0  0  0  0
  -42.8206   -9.0700   22.7821 C   0  0  0  0  0  0  0  0  0  0  0  0
  -43.3566   -9.7220   24.0342 C   0  0  0  0  0  0  0  0  0  0  0  0
  -42.6269   -7.9837   26.1680 O   0  0  0  0  0  0  0  0  0  0  0  0
  -42.0297   -7.0245   21.9346 O   0  0  0  0  0  0  0  0  0  0  0  0
  -43.8129   -9.0836   21.7490 O   0  0  0  0  0  0  0  0  0  0  0  0
  -42.2467   -9.8875   24.9613 O   0  0  0  0  0  0  0  0  0  0  0  0
  -43.4499   -7.8684   25.6676 H   0  0  0  0  0  0  0  0  0  0  0  0
  -41.2778   -7.5069   21.5567 H   0  0  0  0  0  0  0  0  0  0  0  0
  -44.6043   -8.6133   22.0546 H   0  0  0  0  0  0  0  0  0  0  0  0
  -40.2049   -5.3758   24.1919 C   0  0  0  0  0  0  0  0  0  0  0  0
  -40.0473   -4.0608   24.9407 C   0  0  0  0  0  0  0  0  0  0  0  0
  -41.1027   -6.3529   24.7362 N   0  0  0  0  0  0  0  0  0  0  0  0
  -39.5792   -5.5712   23.1688 O   0  0  0  0  0  0  0  0  0  0  0  0
  -41.5808   -6.1102   25.5619 H   0  0  0  0  0  0  0  0  0  0  0  0
  -43.9543  -11.0711   23.7695 C   0  0  0  0  0  0  0  0  0  0  0  0
  -45.3509  -10.9103   24.0252 O   0  0  0  0  0  0  0  0  0  0  0  0
  -46.2000  -12.1146   24.6363 P   0  0  0  0  0  0  0  0  0  0  0  0
  -46.1787  -12.0911   26.1511 O   0  0  0  0  0  0  0  0  0  0  0  0
  -47.6190  -11.9537   24.1330 O   0  0  0  0  0  0  0  0  0  0  0  0
  -45.5545  -13.3877   24.1307 O   0  0  0  0  0  0  0  0  0  0  0  0
  -47.9933  -11.1286   24.4794 H   0  0  0  0  0  0  0  0  0  0  0  0
  -44.6501  -13.4507   24.4756 H   0  0  0  0  0  0  0  0  0  0  0  0
  1  2  1  0  0  0
  1  6  1  0  0  0
  1  9  1  0  0  0
  2  3  1  0  0  0
  2 15  1  0  0  0
  3  4  1  0  0  0
  3  7  1  0  0  0
  4  5  1  0  0  0
  4  8  1  0  0  0
  5 18  1  0  0  0
  5  9  1  0  0  0
 18 19  1  0  0  0
 13 14  1  0  0  0
 13 15  1  0  0  0
 13 16  2  0  0  0
 19 20  1  0  0  0
 20 21  2  0  0  0
 20 22  1  0  0  0
 20 23  1  0  0  0
 15 17  1  0  0  0
  6 10  1  0  0  0
  7 11  1  0  0  0
  8 12  1  0  0  0
 22 24  1  0  0  0
 23 25  1  0  0  0
M  END
> <minimizedAffinity>
-10.77755

$$$$
4U0W_16G_A_301


 25 25  0  0  0  0  0  0  0  0999 V2000
  -42.9611   -7.5903   22.4231 C   0  0  0  0  0  0  0  0  0  0  0  0
  -42.1344   -7.6639   23.6992 C   0  0  0  0  0  0  0  0  0  0  0  0
  -41.8464   -9.0656   24.1267 C   0  0  0  0  0  0  0  0  0  0  0  0
  -43.1025   -9.8644   24.1597 C   0  0  0  0  0  0  0  0  0  0  0  0
  -43.6309   -9.8999   22.7456 C   0  0  0  0  0  0  0  0  0  0  0  0
  -42.1708   -7.9009   21.3386 O   0  0  0  0  0  0  0  0  0  0  0  0
  -41.2944   -9.1081   25.4585 O   0  0  0  0  0  0  0  0  0  0  0  0
  -42.8505  -11.1934   24.6312 O   0  0  0  0  0  0  0  0  0  0  0  0
  -44.0829   -8.5590   22.4044 O   0  0  0  0  0  0  0  0  0  0  0  0
  -41.8469   -8.8112   21.4247 H   0  0  0  0  0  0  0  0  0  0  0  0
  -41.9377   -8.7444   26.0868 H   0  0  0  0  0  0  0  0  0  0  0  0
  -42.2078  -11.6269   24.0482 H   0  0  0  0  0  0  0  0  0  0  0  0
  -40.7185   -5.5137   23.8419 C   0  0  0  0  0  0  0  0  0  0  0  0
  -39.3970   -4.8623   23.4624 C   0  0  0  0  0  0  0  0  0  0  0  0
  -40.9313   -6.8761   23.4472 N   0  0  0  0  0  0  0  0  0  0  0  0
  -41.5530   -4.8810   24.4582 O   0  0  0  0  0  0  0  0  0  0  0  0
  -40.1992   -7.3207   22.9618 H   0  0  0  0  0  0  0  0  0  0  0  0
  -44.7867  -10.8412   22.5869 C   0  0  0  0  0  0  0  0  0  0  0  0
  -45.5351  -10.7108   23.7971 O   0  0  0  0  0  0  0  0  0  0  0  0
  -46.1957  -11.9944   24.4759 P   0  0  0  0  0  0  0  0  0  0  0  0
  -46.1266  -11.9156   25.9874 O   0  0  0  0  0  0  0  0  0  0  0  0
  -47.6397  -12.0393   24.0224 O   0  0  0  0  0  0  0  0  0  0  0  0
  -45.4043  -13.1883   23.9845 O   0  0  0  0  0  0  0  0  0  0  0  0
  -48.1083  -11.2591   24.3578 H   0  0  0  0  0  0  0  0  0  0  0  0
  -44.4885  -13.1197   24.2965 H   0  0  0  0  0  0  0  0  0  0  0  0
  1  2  1  0  0  0
  1  6  1  0  0  0
  1  9  1  0  0  0
  2  3  1  0  0  0
  2 15  1  0  0  0
  3  4  1  0  0  0
  3  7  1  0  0  0
  4  5  1  0  0  0
  4  8  1  0  0  0
  5 18  1  0  0  0
  5  9  1  0  0  0
 18 19  1  0  0  0
 13 14  1  0  0  0
 13 15  1  0  0  0
 13 16  2  0  0  0
 19 20  1  0  0  0
 20 21  2  0  0  0
 20 22  1  0  0  0
 20 23  1  0  0  0
 15 17  1  0  0  0
  6 10  1  0  0  0
  7 11  1  0  0  0
  8 12  1  0  0  0
 22 24  1  0  0  0
 23 25  1  0  0  0
M  END
> <minimizedAffinity>
-9.41405

$$$$
4U0W_16G_A_301


 25 25  0  0  0  0  0  0  0  0999 V2000
  -42.1999   -8.2636   25.7407 C   0  0  0  0  0  0  0  0  0  0  0  0
  -42.7798   -8.4390   24.3442 C   0  0  0  0  0  0  0  0  0  0  0  0
  -41.8472   -7.9939   23.2660 C   0  0  0  0  0  0  0  0  0  0  0  0
  -41.3395   -6.6242   23.5545 C   0  0  0  0  0  0  0  0  0  0  0  0
  -40.5620   -6.7133   24.8460 C   0  0  0  0  0  0  0  0  0  0  0  0
  -41.2514   -9.2344   25.9755 O   0  0  0  0  0  0  0  0  0  0  0  0
  -42.5118   -7.9276   21.9877 O   0  0  0  0  0  0  0  0  0  0  0  0
  -40.4948   -6.1588   22.4952 O   0  0  0  0  0  0  0  0  0  0  0  0
  -41.5104   -6.9639   25.9213 O   0  0  0  0  0  0  0  0  0  0  0  0
  -40.5234   -9.1350   25.3423 H   0  0  0  0  0  0  0  0  0  0  0  0
  -43.2302   -7.2773   22.0302 H   0  0  0  0  0  0  0  0  0  0  0  0
  -39.7451   -6.7651   22.3894 H   0  0  0  0  0  0  0  0  0  0  0  0
  -44.3182  -10.3556   23.5642 C   0  0  0  0  0  0  0  0  0  0  0  0
  -44.5478  -11.8595   23.5873 C   0  0  0  0  0  0  0  0  0  0  0  0
  -43.1597   -9.8447   24.2381 N   0  0  0  0  0  0  0  0  0  0  0  0
  -45.1046   -9.6296   22.9889 O   0  0  0  0  0  0  0  0  0  0  0  0
  -42.5665  -10.5020   24.6685 H   0  0  0  0  0  0  0  0  0  0  0  0
  -39.8190   -5.4493   25.1583 C   0  0  0  0  0  0  0  0  0  0  0  0
  -40.1274   -5.1706   26.5254 O   0  0  0  0  0  0  0  0  0  0  0  0
  -39.0340   -5.4127   27.6615 P   0  0  0  0  0  0  0  0  0  0  0  0
  -39.2754   -4.5161   28.8588 O   0  0  0  0  0  0  0  0  0  0  0  0
  -39.1376   -6.8668   28.0707 O   0  0  0  0  0  0  0  0  0  0  0  0
  -37.6937   -5.0885   27.0357 O   0  0  0  0  0  0  0  0  0  0  0  0
  -40.0085   -7.0304   28.4654 H   0  0  0  0  0  0  0  0  0  0  0  0
  -37.6702   -4.1506   26.7894 H   0  0  0  0  0  0  0  0  0  0  0  0
  1  2  1  0  0  0
  1  6  1  0  0  0
  1  9  1  0  0  0
  2  3  1  0  0  0
  2 15  1  0  0  0
  3  4  1  0  0  0
  3  7  1  0  0  0
  4  5  1  0  0  0
  4  8  1  0  0  0
  5 18  1  0  0  0
  5  9  1  0  0  0
 18 19  1  0  0  0
 13 14  1  0  0  0
 13 15  1  0  0  0
 13 16  2  0  0  0
 19 20  1  0  0  0
 20 21  2  0  0  0
 20 22  1  0  0  0
 20 23  1  0  0  0
 15 17  1  0  0  0
  6 10  1  0  0  0
  7 11  1  0  0  0
  8 12  1  0  0  0
 22 24  1  0  0  0
 23 25  1  0  0  0
M  END
> <minimizedAffinity>
-8.76060

$$$$
4U0W_16G_A_301


 25 25  0  0  0  0  0  0  0  0999 V2000
  -41.6093   -7.8842   22.4131 C   0  0  0  0  0  0  0  0  0  0  0  0
  -42.6377   -8.9183   22.8493 C   0  0  0  0  0  0  0  0  0  0  0  0
  -43.2736   -8.5907   24.1602 C   0  0  0  0  0  0  0  0  0  0  0  0
  -42.2309   -8.2910   25.1800 C   0  0  0  0  0  0  0  0  0  0  0  0
  -41.4889   -7.0685   24.6949 C   0  0  0  0  0  0  0  0  0  0  0  0
  -42.2509   -6.7487   21.9702 O   0  0  0  0  0  0  0  0  0  0  0  0
  -44.0402   -9.7021   24.6672 O   0  0  0  0  0  0  0  0  0  0  0  0
  -42.8246   -8.0389   26.4591 O   0  0  0  0  0  0  0  0  0  0  0  0
  -40.7219   -7.4498   23.5181 O   0  0  0  0  0  0  0  0  0  0  0  0
  -42.7633   -6.3623   22.6975 H   0  0  0  0  0  0  0  0  0  0  0  0
  -43.4523  -10.4591   24.8164 H   0  0  0  0  0  0  0  0  0  0  0  0
  -43.4339   -7.2873   26.3902 H   0  0  0  0  0  0  0  0  0  0  0  0
  -44.5440  -10.0826   21.5611 C   0  0  0  0  0  0  0  0  0  0  0  0
  -45.4422  -10.0188   20.3347 C   0  0  0  0  0  0  0  0  0  0  0  0
  -43.5945   -9.0246   21.7516 N   0  0  0  0  0  0  0  0  0  0  0  0
  -44.6440  -11.0099   22.3399 O   0  0  0  0  0  0  0  0  0  0  0  0
  -43.5872   -8.3041   21.0807 H   0  0  0  0  0  0  0  0  0  0  0  0
  -40.5394   -6.5272   25.7210 C   0  0  0  0  0  0  0  0  0  0  0  0
  -40.1583   -7.6610   26.5026 O   0  0  0  0  0  0  0  0  0  0  0  0
  -39.6580   -7.4697   28.0053 P   0  0  0  0  0  0  0  0  0  0  0  0
  -38.5258   -6.4661   28.0857 O   0  0  0  0  0  0  0  0  0  0  0  0
  -40.8457   -6.9800   28.8067 O   0  0  0  0  0  0  0  0  0  0  0  0
  -39.1768   -8.8289   28.4680 O   0  0  0  0  0  0  0  0  0  0  0  0
  -41.1205   -6.1096   28.4785 H   0  0  0  0  0  0  0  0  0  0  0  0
  -38.4179   -9.1036   27.9300 H   0  0  0  0  0  0  0  0  0  0  0  0
  1  2  1  0  0  0
  1  6  1  0  0  0
  1  9  1  0  0  0
  2  3  1  0  0  0
  2 15  1  0  0  0
  3  4  1  0  0  0
  3  7  1  0  0  0
  4  5  1  0  0  0
  4  8  1  0  0  0
  5 18  1  0  0  0
  5  9  1  0  0  0
 18 19  1  0  0  0
 13 14  1  0  0  0
 13 15  1  0  0  0
 13 16  2  0  0  0
 19 20  1  0  0  0
 20 21  2  0  0  0
 20 22  1  0  0  0
 20 23  1  0  0  0
 15 17  1  0  0  0
  6 10  1  0  0  0
  7 11  1  0  0  0
  8 12  1  0  0  0
 22 24  1  0  0  0
 23 25  1  0  0  0
M  END
> <minimizedAffinity>
-8.43395

$$$$
4U0W_16G_A_301


 25 25  0  0  0  0  0  0  0  0999 V2000
  -40.6407   -5.2613   24.2979 C   0  0  0  0  0  0  0  0  0  0  0  0
  -40.5739   -5.8653   25.6936 C   0  0  0  0  0  0  0  0  0  0  0  0
  -40.5189   -7.3577   25.6805 C   0  0  0  0  0  0  0  0  0  0  0  0
  -41.6047   -7.9075   24.8229 C   0  0  0  0  0  0  0  0  0  0  0  0
  -41.3427   -7.4118   23.4208 C   0  0  0  0  0  0  0  0  0  0  0  0
  -39.4046   -5.3441   23.6959 O   0  0  0  0  0  0  0  0  0  0  0  0
  -40.7176   -7.9045   27.0002 O   0  0  0  0  0  0  0  0  0  0  0  0
  -41.6043   -9.3397   24.8535 O   0  0  0  0  0  0  0  0  0  0  0  0
  -41.5818   -5.9762   23.4031 O   0  0  0  0  0  0  0  0  0  0  0  0
  -39.1539   -6.2761   23.5991 H   0  0  0  0  0  0  0  0  0  0  0  0
  -41.5966   -7.6541   27.3250 H   0  0  0  0  0  0  0  0  0  0  0  0
  -40.7476   -9.6696   24.5403 H   0  0  0  0  0  0  0  0  0  0  0  0
  -39.1402   -5.2689   27.7521 C   0  0  0  0  0  0  0  0  0  0  0  0
  -37.8934   -4.5441   28.2368 C   0  0  0  0  0  0  0  0  0  0  0  0
  -39.4225   -5.2486   26.3460 N   0  0  0  0  0  0  0  0  0  0  0  0
  -39.8600   -5.8386   28.5482 O   0  0  0  0  0  0  0  0  0  0  0  0
  -38.7813   -4.7755   25.7679 H   0  0  0  0  0  0  0  0  0  0  0  0
  -42.2425   -8.0517   22.4068 C   0  0  0  0  0  0  0  0  0  0  0  0
  -43.4344   -8.3746   23.1258 O   0  0  0  0  0  0  0  0  0  0  0  0
  -44.5496   -9.3000   22.4588 P   0  0  0  0  0  0  0  0  0  0  0  0
  -45.0751  -10.3257   23.4424 O   0  0  0  0  0  0  0  0  0  0  0  0
  -45.6707   -8.3863   22.0107 O   0  0  0  0  0  0  0  0  0  0  0  0
  -43.8799   -9.9979   21.2937 O   0  0  0  0  0  0  0  0  0  0  0  0
  -46.0706   -7.9612   22.7855 H   0  0  0  0  0  0  0  0  0  0  0  0
  -43.1706  -10.5709   21.6244 H   0  0  0  0  0  0  0  0  0  0  0  0
  1  2  1  0  0  0
  1  6  1  0  0  0
  1  9  1  0  0  0
  2  3  1  0  0  0
  2 15  1  0  0  0
  3  4  1  0  0  0
  3  7  1  0  0  0
  4  5  1  0  0  0
  4  8  1  0  0  0
  5 18  1  0  0  0
  5  9  1  0  0  0
 18 19  1  0  0  0
 13 14  1  0  0  0
 13 15  1  0  0  0
 13 16  2  0  0  0
 19 20  1  0  0  0
 20 21  2  0  0  0
 20 22  1  0  0  0
 20 23  1  0  0  0
 15 17  1  0  0  0
  6 10  1  0  0  0
  7 11  1  0  0  0
  8 12  1  0  0  0
 22 24  1  0  0  0
 23 25  1  0  0  0
M  END
> <minimizedAffinity>
-8.22034

$$$$
4U0W_16G_A_301


 25 25  0  0  0  0  0  0  0  0999 V2000
  -41.0167   -7.8999   26.0026 C   0  0  0  0  0  0  0  0  0  0  0  0
  -40.1902   -6.6419   25.7755 C   0  0  0  0  0  0  0  0  0  0  0  0
  -40.7096   -5.7973   24.6587 C   0  0  0  0  0  0  0  0  0  0  0  0
  -40.9192   -6.6250   23.4389 C   0  0  0  0  0  0  0  0  0  0  0  0
  -41.9720   -7.6502   23.7864 C   0  0  0  0  0  0  0  0  0  0  0  0
  -42.2017   -7.5718   26.6234 O   0  0  0  0  0  0  0  0  0  0  0  0
  -39.7716   -4.7623   24.2997 O   0  0  0  0  0  0  0  0  0  0  0  0
  -41.3552   -5.8152   22.3407 O   0  0  0  0  0  0  0  0  0  0  0  0
  -41.3895   -8.5823   24.7406 O   0  0  0  0  0  0  0  0  0  0  0  0
  -42.7162   -6.9842   26.0481 H   0  0  0  0  0  0  0  0  0  0  0  0
  -38.9458   -5.1671   23.9913 H   0  0  0  0  0  0  0  0  0  0  0  0
  -42.1850   -5.3712   22.5757 H   0  0  0  0  0  0  0  0  0  0  0  0
  -39.0777   -5.1280   27.5416 C   0  0  0  0  0  0  0  0  0  0  0  0
  -39.2238   -4.5060   28.9224 C   0  0  0  0  0  0  0  0  0  0  0  0
  -40.1519   -5.9465   27.0587 N   0  0  0  0  0  0  0  0  0  0  0  0
  -38.0740   -4.9258   26.8873 O   0  0  0  0  0  0  0  0  0  0  0  0
  -40.9352   -6.0488   27.6463 H   0  0  0  0  0  0  0  0  0  0  0  0
  -42.4346   -8.4276   22.5910 C   0  0  0  0  0  0  0  0  0  0  0  0
  -43.2391   -9.4800   23.1265 O   0  0  0  0  0  0  0  0  0  0  0  0
  -44.6179   -9.8731   22.4269 P   0  0  0  0  0  0  0  0  0  0  0  0
  -45.3594  -10.9272   23.2238 O   0  0  0  0  0  0  0  0  0  0  0  0
  -45.4453   -8.6079   22.3408 O   0  0  0  0  0  0  0  0  0  0  0  0
  -44.2597  -10.4166   21.0597 O   0  0  0  0  0  0  0  0  0  0  0  0
  -45.6517   -8.2950   23.2355 H   0  0  0  0  0  0  0  0  0  0  0  0
  -43.7318  -11.2240   21.1609 H   0  0  0  0  0  0  0  0  0  0  0  0
  1  2  1  0  0  0
  1  6  1  0  0  0
  1  9  1  0  0  0
  2  3  1  0  0  0
  2 15  1  0  0  0
  3  4  1  0  0  0
  3  7  1  0  0  0
  4  5  1  0  0  0
  4  8  1  0  0  0
  5 18  1  0  0  0
  5  9  1  0  0  0
 18 19  1  0  0  0
 13 14  1  0  0  0
 13 15  1  0  0  0
 13 16  2  0  0  0
 19 20  1  0  0  0
 20 21  2  0  0  0
 20 22  1  0  0  0
 20 23  1  0  0  0
 15 17  1  0  0  0
  6 10  1  0  0  0
  7 11  1  0  0  0
  8 12  1  0  0  0
 22 24  1  0  0  0
 23 25  1  0  0  0
M  END
> <minimizedAffinity>
-7.92726

$$$$
4U0W_16G_A_301


 25 25  0  0  0  0  0  0  0  0999 V2000
  -42.3671   -7.7618   22.4326 C   0  0  0  0  0  0  0  0  0  0  0  0
  -41.7458   -6.8246   23.4588 C   0  0  0  0  0  0  0  0  0  0  0  0
  -41.0874   -7.5495   24.5863 C   0  0  0  0  0  0  0  0  0  0  0  0
  -42.0142   -8.5637   25.1602 C   0  0  0  0  0  0  0  0  0  0  0  0
  -42.3020   -9.5588   24.0615 C   0  0  0  0  0  0  0  0  0  0  0  0
  -41.3766   -8.3324   21.6643 O   0  0  0  0  0  0  0  0  0  0  0  0
  -40.7412   -6.6514   25.6604 O   0  0  0  0  0  0  0  0  0  0  0  0
  -41.4190   -9.2214   26.2851 O   0  0  0  0  0  0  0  0  0  0  0  0
  -43.1067   -8.8877   23.0512 O   0  0  0  0  0  0  0  0  0  0  0  0
  -40.7942   -8.8633   22.2298 H   0  0  0  0  0  0  0  0  0  0  0  0
  -41.5475   -6.2448   26.0145 H   0  0  0  0  0  0  0  0  0  0  0  0
  -40.5971   -9.6557   26.0079 H   0  0  0  0  0  0  0  0  0  0  0  0
  -40.2446   -4.7443   23.1992 C   0  0  0  0  0  0  0  0  0  0  0  0
  -39.3342   -3.9722   22.2559 C   0  0  0  0  0  0  0  0  0  0  0  0
  -40.8347   -5.9589   22.7157 N   0  0  0  0  0  0  0  0  0  0  0  0
  -40.4523   -4.3261   24.3210 O   0  0  0  0  0  0  0  0  0  0  0  0
  -40.6043   -6.2340   21.7990 H   0  0  0  0  0  0  0  0  0  0  0  0
  -43.0628  -10.7536   24.5523 C   0  0  0  0  0  0  0  0  0  0  0  0
  -44.3100  -10.7056   23.8568 O   0  0  0  0  0  0  0  0  0  0  0  0
  -45.4931  -11.6974   24.2588 P   0  0  0  0  0  0  0  0  0  0  0  0
  -45.8280  -11.5872   25.7324 O   0  0  0  0  0  0  0  0  0  0  0  0
  -46.6947  -11.3128   23.4216 O   0  0  0  0  0  0  0  0  0  0  0  0
  -45.0003  -13.0944   23.9445 O   0  0  0  0  0  0  0  0  0  0  0  0
  -46.9766  -10.4143   23.6542 H   0  0  0  0  0  0  0  0  0  0  0  0
  -44.2327  -13.2993   24.5010 H   0  0  0  0  0  0  0  0  0  0  0  0
  1  2  1  0  0  0
  1  6  1  0  0  0
  1  9  1  0  0  0
  2  3  1  0  0  0
  2 15  1  0  0  0
  3  4  1  0  0  0
  3  7  1  0  0  0
  4  5  1  0  0  0
  4  8  1  0  0  0
  5 18  1  0  0  0
  5  9  1  0  0  0
 18 19  1  0  0  0
 13 14  1  0  0  0
 13 15  1  0  0  0
 13 16  2  0  0  0
 19 20  1  0  0  0
 20 21  2  0  0  0
 20 22  1  0  0  0
 20 23  1  0  0  0
 15 17  1  0  0  0
  6 10  1  0  0  0
  7 11  1  0  0  0
  8 12  1  0  0  0
 22 24  1  0  0  0
 23 25  1  0  0  0
M  END
> <minimizedAffinity>
-7.88642

$$$$
4U0W_16G_A_301


 25 25  0  0  0  0  0  0  0  0999 V2000
  -41.2049   -6.7414   22.4619 C   0  0  0  0  0  0  0  0  0  0  0  0
  -41.7873   -7.9685   23.1491 C   0  0  0  0  0  0  0  0  0  0  0  0
  -42.0450   -7.7539   24.6044 C   0  0  0  0  0  0  0  0  0  0  0  0
  -40.8348   -7.1936   25.2666 C   0  0  0  0  0  0  0  0  0  0  0  0
  -40.5747   -5.8498   24.6286 C   0  0  0  0  0  0  0  0  0  0  0  0
  -42.1906   -5.7959   22.2849 O   0  0  0  0  0  0  0  0  0  0  0  0
  -42.3463   -8.9945   25.2754 O   0  0  0  0  0  0  0  0  0  0  0  0
  -41.0463   -7.0440   26.6755 O   0  0  0  0  0  0  0  0  0  0  0  0
  -40.1424   -6.0826   23.2584 O   0  0  0  0  0  0  0  0  0  0  0  0
  -42.5273   -5.5140   23.1499 H   0  0  0  0  0  0  0  0  0  0  0  0
  -41.5861   -9.5929   25.2053 H   0  0  0  0  0  0  0  0  0  0  0  0
  -41.8004   -6.4532   26.8283 H   0  0  0  0  0  0  0  0  0  0  0  0
  -43.7037   -9.5616   22.4871 C   0  0  0  0  0  0  0  0  0  0  0  0
  -44.9222   -9.7448   21.5947 C   0  0  0  0  0  0  0  0  0  0  0  0
  -42.9858   -8.3234   22.3945 N   0  0  0  0  0  0  0  0  0  0  0  0
  -43.3667  -10.4495   23.2451 O   0  0  0  0  0  0  0  0  0  0  0  0
  -43.3329   -7.6513   21.7644 H   0  0  0  0  0  0  0  0  0  0  0  0
  -39.5032   -5.0753   25.3354 C   0  0  0  0  0  0  0  0  0  0  0  0
  -39.8533   -5.1434   26.7190 O   0  0  0  0  0  0  0  0  0  0  0  0
  -38.7173   -5.1056   27.8383 P   0  0  0  0  0  0  0  0  0  0  0  0
  -39.1029   -4.1927   28.9845 O   0  0  0  0  0  0  0  0  0  0  0  0
  -38.5435   -6.5242   28.3385 O   0  0  0  0  0  0  0  0  0  0  0  0
  -37.4697   -4.5818   27.1585 O   0  0  0  0  0  0  0  0  0  0  0  0
  -39.3630   -6.8191   28.7655 H   0  0  0  0  0  0  0  0  0  0  0  0
  -37.6241   -3.6737   26.8546 H   0  0  0  0  0  0  0  0  0  0  0  0
  1  2  1  0  0  0
  1  6  1  0  0  0
  1  9  1  0  0  0
  2  3  1  0  0  0
  2 15  1  0  0  0
  3  4  1  0  0  0
  3  7  1  0  0  0
  4  5  1  0  0  0
  4  8  1  0  0  0
  5 18  1  0  0  0
  5  9  1  0  0  0
 18 19  1  0  0  0
 13 14  1  0  0  0
 13 15  1  0  0  0
 13 16  2  0  0  0
 19 20  1  0  0  0
 20 21  2  0  0  0
 20 22  1  0  0  0
 20 23  1  0  0  0
 15 17  1  0  0  0
  6 10  1  0  0  0
  7 11  1  0  0  0
  8 12  1  0  0  0
 22 24  1  0  0  0
 23 25  1  0  0  0
M  END
> <minimizedAffinity>
-7.78846

$$$$
