1RNM_C5P_E_200


 27 28  0  0  0  0  0  0  0  0999 V2000
   15.0183   16.2304   28.4455 C   0  0  0  0  0  0  0  0  0  0  0  0
   15.0279   17.1656   29.4581 O   0  0  0  0  0  0  0  0  0  0  0  0
   14.1565   16.7821   27.4298 C   0  0  0  0  0  0  0  0  0  0  0  0
   13.6383   15.5718   26.9068 O   0  0  0  0  0  0  0  0  0  0  0  0
   13.1720   17.6704   28.1138 C   0  0  0  0  0  0  0  0  0  0  0  0
   12.0202   16.9672   28.4957 O   0  0  0  0  0  0  0  0  0  0  0  0
   13.8439   17.8876   29.4001 C   0  0  0  0  0  0  0  0  0  0  0  0
   13.2733   15.0374   27.6294 H   0  0  0  0  0  0  0  0  0  0  0  0
   12.2715   16.2104   29.0479 H   0  0  0  0  0  0  0  0  0  0  0  0
   14.1857   19.2612   29.6989 N   0  0  0  0  0  0  0  0  0  0  0  0
   13.1779   20.0070   30.2529 C   0  0  0  0  0  0  0  0  0  0  0  0
   13.5124   21.2391   30.6422 N   0  0  0  0  0  0  0  0  0  0  0  0
   14.7685   21.7503   30.4969 C   0  0  0  0  0  0  0  0  0  0  0  0
   15.8083   20.9913   29.9082 C   0  0  0  0  0  0  0  0  0  0  0  0
   15.4688   19.7519   29.5285 C   0  0  0  0  0  0  0  0  0  0  0  0
   12.0099   19.6196   30.3354 O   0  0  0  0  0  0  0  0  0  0  0  0
   15.0212   22.9965   30.8819 N   0  0  0  0  0  0  0  0  0  0  0  0
   14.3097   23.5385   31.2931 H   0  0  0  0  0  0  0  0  0  0  0  0
   15.9201   23.3779   30.7559 H   0  0  0  0  0  0  0  0  0  0  0  0
   16.3670   16.0911   27.9040 C   0  0  0  0  0  0  0  0  0  0  0  0
   16.4036   14.8968   27.1130 O   0  0  0  0  0  0  0  0  0  0  0  0
   17.6845   12.9183   26.6118 O   0  0  0  0  0  0  0  0  0  0  0  0
   16.8587   13.4600   27.7496 P   0  0  0  0  0  0  0  0  0  0  0  0
   15.5562   12.7364   28.0412 O   0  0  0  0  0  0  0  0  0  0  0  0
   17.6091   13.9822   28.9585 O   0  0  0  0  0  0  0  0  0  0  0  0
   18.0313   12.0447   26.8513 H   0  0  0  0  0  0  0  0  0  0  0  0
   17.9597   13.2355   29.4688 H   0  0  0  0  0  0  0  0  0  0  0  0
 22 23  1  0  0  0
 23 24  2  0  0  0
 23 25  1  0  0  0
 23 21  1  0  0  0
 21 20  1  0  0  0
 20  1  1  0  0  0
  1  2  1  0  0  0
  1  3  1  0  0  0
  2  7  1  0  0  0
  3  4  1  0  0  0
  3  5  1  0  0  0
  5  6  1  0  0  0
  5  7  1  0  0  0
  7 10  1  0  0  0
 10 11  1  0  0  0
 10 15  1  0  0  0
 11 12  1  0  0  0
 11 16  2  0  0  0
 12 13  2  0  0  0
 13 14  1  0  0  0
 13 17  1  0  0  0
 14 15  2  0  0  0
 22 26  1  0  0  0
 25 27  1  0  0  0
  4  8  1  0  0  0
  6  9  1  0  0  0
 17 18  1  0  0  0
 17 19  1  0  0  0
M  END
> <minimizedAffinity>
-6.83547

$$$$
1RNM_C5P_E_200


 27 28  0  0  0  0  0  0  0  0999 V2000
   15.8652   19.0555   29.2320 C   0  0  0  0  0  0  0  0  0  0  0  0
   15.4178   17.8869   29.8100 O   0  0  0  0  0  0  0  0  0  0  0  0
   15.2013   19.1230   27.9539 C   0  0  0  0  0  0  0  0  0  0  0  0
   16.2076   19.8030   27.2246 O   0  0  0  0  0  0  0  0  0  0  0  0
   14.9184   17.7229   27.5232 C   0  0  0  0  0  0  0  0  0  0  0  0
   15.9775   17.1886   26.7750 O   0  0  0  0  0  0  0  0  0  0  0  0
   15.0489   17.0102   28.7991 C   0  0  0  0  0  0  0  0  0  0  0  0
   17.0504   19.3325   27.3206 H   0  0  0  0  0  0  0  0  0  0  0  0
   16.7992   17.2523   27.2867 H   0  0  0  0  0  0  0  0  0  0  0  0
   13.8558   16.3331   29.2582 N   0  0  0  0  0  0  0  0  0  0  0  0
   13.9861   14.9814   29.4450 C   0  0  0  0  0  0  0  0  0  0  0  0
   12.9308   14.3636   29.9799 N   0  0  0  0  0  0  0  0  0  0  0  0
   11.7796   15.0131   30.3161 C   0  0  0  0  0  0  0  0  0  0  0  0
   11.6325   16.4055   30.1079 C   0  0  0  0  0  0  0  0  0  0  0  0
   12.6989   17.0218   29.5799 C   0  0  0  0  0  0  0  0  0  0  0  0
   14.9745   14.3363   29.0869 O   0  0  0  0  0  0  0  0  0  0  0  0
   10.7587   14.3271   30.8182 N   0  0  0  0  0  0  0  0  0  0  0  0
   10.8437   13.3580   30.9694 H   0  0  0  0  0  0  0  0  0  0  0  0
    9.9171   14.7878   31.0390 H   0  0  0  0  0  0  0  0  0  0  0  0
   15.4454   20.1901   30.0492 C   0  0  0  0  0  0  0  0  0  0  0  0
   16.2882   21.3029   29.7255 O   0  0  0  0  0  0  0  0  0  0  0  0
   16.8303   23.5260   28.9704 O   0  0  0  0  0  0  0  0  0  0  0  0
   15.7186   22.8366   29.7180 P   0  0  0  0  0  0  0  0  0  0  0  0
   15.5664   23.1995   31.1843 O   0  0  0  0  0  0  0  0  0  0  0  0
   14.4289   22.5891   28.9614 O   0  0  0  0  0  0  0  0  0  0  0  0
   16.6260   24.4705   28.8860 H   0  0  0  0  0  0  0  0  0  0  0  0
   13.9464   23.4248   28.8630 H   0  0  0  0  0  0  0  0  0  0  0  0
 22 23  1  0  0  0
 23 24  2  0  0  0
 23 25  1  0  0  0
 23 21  1  0  0  0
 21 20  1  0  0  0
 20  1  1  0  0  0
  1  2  1  0  0  0
  1  3  1  0  0  0
  2  7  1  0  0  0
  3  4  1  0  0  0
  3  5  1  0  0  0
  5  6  1  0  0  0
  5  7  1  0  0  0
  7 10  1  0  0  0
 10 11  1  0  0  0
 10 15  1  0  0  0
 11 12  1  0  0  0
 11 16  2  0  0  0
 12 13  2  0  0  0
 13 14  1  0  0  0
 13 17  1  0  0  0
 14 15  2  0  0  0
 22 26  1  0  0  0
 25 27  1  0  0  0
  4  8  1  0  0  0
  6  9  1  0  0  0
 17 18  1  0  0  0
 17 19  1  0  0  0
M  END
> <minimizedAffinity>
-6.74000

$$$$
1RNM_C5P_E_200


 27 28  0  0  0  0  0  0  0  0999 V2000
   13.6698   15.5993   27.6072 C   0  0  0  0  0  0  0  0  0  0  0  0
   13.4964   16.9630   27.7090 O   0  0  0  0  0  0  0  0  0  0  0  0
   15.0646   15.3734   27.8943 C   0  0  0  0  0  0  0  0  0  0  0  0
   15.2726   14.2393   27.0713 O   0  0  0  0  0  0  0  0  0  0  0  0
   15.8066   16.6072   27.5027 C   0  0  0  0  0  0  0  0  0  0  0  0
   16.2286   16.5539   26.1663 O   0  0  0  0  0  0  0  0  0  0  0  0
   14.7106   17.5810   27.4437 C   0  0  0  0  0  0  0  0  0  0  0  0
   14.9785   14.4368   26.1683 H   0  0  0  0  0  0  0  0  0  0  0  0
   15.4638   16.3923   25.5919 H   0  0  0  0  0  0  0  0  0  0  0  0
   14.8154   18.6919   28.3643 N   0  0  0  0  0  0  0  0  0  0  0  0
   15.9095   19.4981   28.1854 C   0  0  0  0  0  0  0  0  0  0  0  0
   15.9574   20.5918   28.9489 N   0  0  0  0  0  0  0  0  0  0  0  0
   14.9963   20.9024   29.8654 C   0  0  0  0  0  0  0  0  0  0  0  0
   13.8740   20.0638   30.0678 C   0  0  0  0  0  0  0  0  0  0  0  0
   13.8265   18.9727   29.2915 C   0  0  0  0  0  0  0  0  0  0  0  0
   16.8422   19.2223   27.4270 O   0  0  0  0  0  0  0  0  0  0  0  0
   15.1254   21.9944   30.6111 N   0  0  0  0  0  0  0  0  0  0  0  0
   15.8998   22.5888   30.4836 H   0  0  0  0  0  0  0  0  0  0  0  0
   14.4467   22.2092   31.2911 H   0  0  0  0  0  0  0  0  0  0  0  0
   12.8589   14.9323   28.6215 C   0  0  0  0  0  0  0  0  0  0  0  0
   13.6661   14.7685   29.7941 O   0  0  0  0  0  0  0  0  0  0  0  0
   14.6550   16.2963   31.3734 O   0  0  0  0  0  0  0  0  0  0  0  0
   13.3438   15.5805   31.1775 P   0  0  0  0  0  0  0  0  0  0  0  0
   13.0078   14.5005   32.1903 O   0  0  0  0  0  0  0  0  0  0  0  0
   12.1745   16.4070   30.6807 O   0  0  0  0  0  0  0  0  0  0  0  0
   14.6125   16.8340   32.1796 H   0  0  0  0  0  0  0  0  0  0  0  0
   11.8468   16.9687   31.4004 H   0  0  0  0  0  0  0  0  0  0  0  0
 22 23  1  0  0  0
 23 24  2  0  0  0
 23 25  1  0  0  0
 23 21  1  0  0  0
 21 20  1  0  0  0
 20  1  1  0  0  0
  1  2  1  0  0  0
  1  3  1  0  0  0
  2  7  1  0  0  0
  3  4  1  0  0  0
  3  5  1  0  0  0
  5  6  1  0  0  0
  5  7  1  0  0  0
  7 10  1  0  0  0
 10 11  1  0  0  0
 10 15  1  0  0  0
 11 12  1  0  0  0
 11 16  2  0  0  0
 12 13  2  0  0  0
 13 14  1  0  0  0
 13 17  1  0  0  0
 14 15  2  0  0  0
 22 26  1  0  0  0
 25 27  1  0  0  0
  4  8  1  0  0  0
  6  9  1  0  0  0
 17 18  1  0  0  0
 17 19  1  0  0  0
M  END
> <minimizedAffinity>
-6.68963

$$$$
1RNM_C5P_E_200


 27 28  0  0  0  0  0  0  0  0999 V2000
   15.1931   19.0603   29.5862 C   0  0  0  0  0  0  0  0  0  0  0  0
   15.1796   17.6861   29.4787 O   0  0  0  0  0  0  0  0  0  0  0  0
   15.2558   19.5447   28.2297 C   0  0  0  0  0  0  0  0  0  0  0  0
   15.9933   20.7322   28.4593 O   0  0  0  0  0  0  0  0  0  0  0  0
   15.9407   18.5001   27.4137 C   0  0  0  0  0  0  0  0  0  0  0  0
   17.3295   18.6937   27.3871 O   0  0  0  0  0  0  0  0  0  0  0  0
   15.8067   17.3324   28.2921 C   0  0  0  0  0  0  0  0  0  0  0  0
   16.8043   20.5199   28.9473 H   0  0  0  0  0  0  0  0  0  0  0  0
   17.6689   18.7258   28.2953 H   0  0  0  0  0  0  0  0  0  0  0  0
   15.0538   16.2252   27.7443 N   0  0  0  0  0  0  0  0  0  0  0  0
   15.7332   15.0370   27.6686 C   0  0  0  0  0  0  0  0  0  0  0  0
   15.0169   13.9813   27.2766 N   0  0  0  0  0  0  0  0  0  0  0  0
   13.6938   14.0576   26.9543 C   0  0  0  0  0  0  0  0  0  0  0  0
   12.9919   15.2855   27.0124 C   0  0  0  0  0  0  0  0  0  0  0  0
   13.7139   16.3397   27.4161 C   0  0  0  0  0  0  0  0  0  0  0  0
   16.9447   14.9307   27.8739 O   0  0  0  0  0  0  0  0  0  0  0  0
   13.0518   12.9692   26.5441 N   0  0  0  0  0  0  0  0  0  0  0  0
   13.5247   12.1070   26.4976 H   0  0  0  0  0  0  0  0  0  0  0  0
   12.1032   13.0249   26.2866 H   0  0  0  0  0  0  0  0  0  0  0  0
   13.9453   19.5092   30.1969 C   0  0  0  0  0  0  0  0  0  0  0  0
   14.2707   20.4644   31.2143 O   0  0  0  0  0  0  0  0  0  0  0  0
   13.3159   22.0593   29.6810 O   0  0  0  0  0  0  0  0  0  0  0  0
   14.1022   22.0728   30.9661 P   0  0  0  0  0  0  0  0  0  0  0  0
   15.5228   22.6018   30.8814 O   0  0  0  0  0  0  0  0  0  0  0  0
   13.3450   22.4135   32.2341 O   0  0  0  0  0  0  0  0  0  0  0  0
   13.1360   22.9709   29.4025 H   0  0  0  0  0  0  0  0  0  0  0  0
   13.1555   23.3646   32.2518 H   0  0  0  0  0  0  0  0  0  0  0  0
 22 23  1  0  0  0
 23 24  2  0  0  0
 23 25  1  0  0  0
 23 21  1  0  0  0
 21 20  1  0  0  0
 20  1  1  0  0  0
  1  2  1  0  0  0
  1  3  1  0  0  0
  2  7  1  0  0  0
  3  4  1  0  0  0
  3  5  1  0  0  0
  5  6  1  0  0  0
  5  7  1  0  0  0
  7 10  1  0  0  0
 10 11  1  0  0  0
 10 15  1  0  0  0
 11 12  1  0  0  0
 11 16  2  0  0  0
 12 13  2  0  0  0
 13 14  1  0  0  0
 13 17  1  0  0  0
 14 15  2  0  0  0
 22 26  1  0  0  0
 25 27  1  0  0  0
  4  8  1  0  0  0
  6  9  1  0  0  0
 17 18  1  0  0  0
 17 19  1  0  0  0
M  END
> <minimizedAffinity>
-6.59835

$$$$
1RNM_C5P_E_200


 27 28  0  0  0  0  0  0  0  0999 V2000
   13.4382   14.7992   28.6930 C   0  0  0  0  0  0  0  0  0  0  0  0
   13.5362   16.1102   28.2783 O   0  0  0  0  0  0  0  0  0  0  0  0
   14.7736   14.4280   29.0904 C   0  0  0  0  0  0  0  0  0  0  0  0
   14.7244   13.0533   28.7516 O   0  0  0  0  0  0  0  0  0  0  0  0
   15.7235   15.2608   28.2966 C   0  0  0  0  0  0  0  0  0  0  0  0
   16.0721   14.6379   27.0893 O   0  0  0  0  0  0  0  0  0  0  0  0
   14.8350   16.3378   27.8450 C   0  0  0  0  0  0  0  0  0  0  0  0
   14.4373   12.9575   27.8300 H   0  0  0  0  0  0  0  0  0  0  0  0
   15.2676   14.4283   26.5896 H   0  0  0  0  0  0  0  0  0  0  0  0
   15.1904   17.6664   28.2937 N   0  0  0  0  0  0  0  0  0  0  0  0
   16.0758   18.3372   27.4906 C   0  0  0  0  0  0  0  0  0  0  0  0
   16.3214   19.6051   27.8274 N   0  0  0  0  0  0  0  0  0  0  0  0
   15.7489   20.2131   28.9058 C   0  0  0  0  0  0  0  0  0  0  0  0
   14.8485   19.5195   29.7495 C   0  0  0  0  0  0  0  0  0  0  0  0
   14.5984   18.2501   29.4006 C   0  0  0  0  0  0  0  0  0  0  0  0
   16.6781   17.8105   26.5520 O   0  0  0  0  0  0  0  0  0  0  0  0
   16.0631   21.4707   29.1968 N   0  0  0  0  0  0  0  0  0  0  0  0
   16.6877   21.9680   28.6207 H   0  0  0  0  0  0  0  0  0  0  0  0
   15.6714   21.9054   29.9885 H   0  0  0  0  0  0  0  0  0  0  0  0
   12.5559   14.7244   29.8536 C   0  0  0  0  0  0  0  0  0  0  0  0
   13.3707   14.7752   31.0313 O   0  0  0  0  0  0  0  0  0  0  0  0
   11.8940   14.7277   32.9349 O   0  0  0  0  0  0  0  0  0  0  0  0
   12.9293   15.6483   32.3426 P   0  0  0  0  0  0  0  0  0  0  0  0
   12.4190   16.9621   31.7783 O   0  0  0  0  0  0  0  0  0  0  0  0
   14.2771   15.7053   33.0335 O   0  0  0  0  0  0  0  0  0  0  0  0
   11.5326   15.1248   33.7427 H   0  0  0  0  0  0  0  0  0  0  0  0
   14.1957   16.2057   33.8604 H   0  0  0  0  0  0  0  0  0  0  0  0
 22 23  1  0  0  0
 23 24  2  0  0  0
 23 25  1  0  0  0
 23 21  1  0  0  0
 21 20  1  0  0  0
 20  1  1  0  0  0
  1  2  1  0  0  0
  1  3  1  0  0  0
  2  7  1  0  0  0
  3  4  1  0  0  0
  3  5  1  0  0  0
  5  6  1  0  0  0
  5  7  1  0  0  0
  7 10  1  0  0  0
 10 11  1  0  0  0
 10 15  1  0  0  0
 11 12  1  0  0  0
 11 16  2  0  0  0
 12 13  2  0  0  0
 13 14  1  0  0  0
 13 17  1  0  0  0
 14 15  2  0  0  0
 22 26  1  0  0  0
 25 27  1  0  0  0
  4  8  1  0  0  0
  6  9  1  0  0  0
 17 18  1  0  0  0
 17 19  1  0  0  0
M  END
> <minimizedAffinity>
-6.50181

$$$$
1RNM_C5P_E_200


 27 28  0  0  0  0  0  0  0  0999 V2000
   15.7253   17.4639   27.1365 C   0  0  0  0  0  0  0  0  0  0  0  0
   14.4413   17.4513   27.6379 O   0  0  0  0  0  0  0  0  0  0  0  0
   16.5399   18.0018   28.1976 C   0  0  0  0  0  0  0  0  0  0  0  0
   17.5231   18.6471   27.4078 O   0  0  0  0  0  0  0  0  0  0  0  0
   15.6719   18.8971   29.0169 C   0  0  0  0  0  0  0  0  0  0  0  0
   15.6916   20.2151   28.5380 O   0  0  0  0  0  0  0  0  0  0  0  0
   14.3393   18.4382   28.6086 C   0  0  0  0  0  0  0  0  0  0  0  0
   17.0901   19.2350   26.7692 H   0  0  0  0  0  0  0  0  0  0  0  0
   15.4397   20.2226   27.6013 H   0  0  0  0  0  0  0  0  0  0  0  0
   13.5192   17.8900   29.6666 N   0  0  0  0  0  0  0  0  0  0  0  0
   12.3274   18.5342   29.8757 C   0  0  0  0  0  0  0  0  0  0  0  0
   11.5094   17.9696   30.7665 N   0  0  0  0  0  0  0  0  0  0  0  0
   11.8229   16.8303   31.4476 C   0  0  0  0  0  0  0  0  0  0  0  0
   13.0600   16.1714   31.2496 C   0  0  0  0  0  0  0  0  0  0  0  0
   13.8727   16.7374   30.3470 C   0  0  0  0  0  0  0  0  0  0  0  0
   12.0302   19.6066   29.3438 O   0  0  0  0  0  0  0  0  0  0  0  0
   10.9701   16.3413   32.3413 N   0  0  0  0  0  0  0  0  0  0  0  0
   10.1052   16.7869   32.4917 H   0  0  0  0  0  0  0  0  0  0  0  0
   11.2030   15.5332   32.8531 H   0  0  0  0  0  0  0  0  0  0  0  0
   16.1479   16.0948   26.8567 C   0  0  0  0  0  0  0  0  0  0  0  0
   16.0694   15.3503   28.0785 O   0  0  0  0  0  0  0  0  0  0  0  0
   17.8893   13.9541   28.8166 O   0  0  0  0  0  0  0  0  0  0  0  0
   16.5428   13.7864   28.1618 P   0  0  0  0  0  0  0  0  0  0  0  0
   16.5490   13.3071   26.7212 O   0  0  0  0  0  0  0  0  0  0  0  0
   15.4157   13.2606   29.0280 O   0  0  0  0  0  0  0  0  0  0  0  0
   18.3023   13.0843   28.9341 H   0  0  0  0  0  0  0  0  0  0  0  0
   15.5428   12.3115   29.1830 H   0  0  0  0  0  0  0  0  0  0  0  0
 22 23  1  0  0  0
 23 24  2  0  0  0
 23 25  1  0  0  0
 23 21  1  0  0  0
 21 20  1  0  0  0
 20  1  1  0  0  0
  1  2  1  0  0  0
  1  3  1  0  0  0
  2  7  1  0  0  0
  3  4  1  0  0  0
  3  5  1  0  0  0
  5  6  1  0  0  0
  5  7  1  0  0  0
  7 10  1  0  0  0
 10 11  1  0  0  0
 10 15  1  0  0  0
 11 12  1  0  0  0
 11 16  2  0  0  0
 12 13  2  0  0  0
 13 14  1  0  0  0
 13 17  1  0  0  0
 14 15  2  0  0  0
 22 26  1  0  0  0
 25 27  1  0  0  0
  4  8  1  0  0  0
  6  9  1  0  0  0
 17 18  1  0  0  0
 17 19  1  0  0  0
M  END
> <minimizedAffinity>
-6.39743

$$$$
1RNM_C5P_E_200


 27 28  0  0  0  0  0  0  0  0999 V2000
   14.2923   22.3881   31.6188 C   0  0  0  0  0  0  0  0  0  0  0  0
   14.3228   21.0434   31.3174 O   0  0  0  0  0  0  0  0  0  0  0  0
   14.6868   23.0566   30.4038 C   0  0  0  0  0  0  0  0  0  0  0  0
   15.3290   24.1821   30.9764 O   0  0  0  0  0  0  0  0  0  0  0  0
   15.5667   22.1208   29.6447 C   0  0  0  0  0  0  0  0  0  0  0  0
   16.9155   22.2829   29.9933 O   0  0  0  0  0  0  0  0  0  0  0  0
   15.2312   20.8448   30.2869 C   0  0  0  0  0  0  0  0  0  0  0  0
   15.9945   23.8839   31.6160 H   0  0  0  0  0  0  0  0  0  0  0  0
   17.0164   22.1789   30.9524 H   0  0  0  0  0  0  0  0  0  0  0  0
   14.6529   19.8440   29.4172 N   0  0  0  0  0  0  0  0  0  0  0  0
   15.5156   19.2930   28.5055 C   0  0  0  0  0  0  0  0  0  0  0  0
   15.0276   18.2865   27.7773 N   0  0  0  0  0  0  0  0  0  0  0  0
   13.7502   17.8260   27.9056 C   0  0  0  0  0  0  0  0  0  0  0  0
   12.8492   18.4037   28.8320 C   0  0  0  0  0  0  0  0  0  0  0  0
   13.3479   19.4070   29.5670 C   0  0  0  0  0  0  0  0  0  0  0  0
   16.6526   19.7231   28.2972 O   0  0  0  0  0  0  0  0  0  0  0  0
   13.3246   16.8382   27.1256 N   0  0  0  0  0  0  0  0  0  0  0  0
   13.9379   16.4250   26.4757 H   0  0  0  0  0  0  0  0  0  0  0  0
   12.3959   16.5195   27.1976 H   0  0  0  0  0  0  0  0  0  0  0  0
   12.9261   22.7766   31.9562 C   0  0  0  0  0  0  0  0  0  0  0  0
   12.1256   22.6455   30.7749 O   0  0  0  0  0  0  0  0  0  0  0  0
   10.5504   21.5405   32.2254 O   0  0  0  0  0  0  0  0  0  0  0  0
   10.5705   22.1420   30.8443 P   0  0  0  0  0  0  0  0  0  0  0  0
   10.4260   21.1725   29.6848 O   0  0  0  0  0  0  0  0  0  0  0  0
    9.8950   23.4874   30.6683 O   0  0  0  0  0  0  0  0  0  0  0  0
    9.6655   21.1902   32.4128 H   0  0  0  0  0  0  0  0  0  0  0  0
    8.9322   23.3705   30.6856 H   0  0  0  0  0  0  0  0  0  0  0  0
 22 23  1  0  0  0
 23 24  2  0  0  0
 23 25  1  0  0  0
 23 21  1  0  0  0
 21 20  1  0  0  0
 20  1  1  0  0  0
  1  2  1  0  0  0
  1  3  1  0  0  0
  2  7  1  0  0  0
  3  4  1  0  0  0
  3  5  1  0  0  0
  5  6  1  0  0  0
  5  7  1  0  0  0
  7 10  1  0  0  0
 10 11  1  0  0  0
 10 15  1  0  0  0
 11 12  1  0  0  0
 11 16  2  0  0  0
 12 13  2  0  0  0
 13 14  1  0  0  0
 13 17  1  0  0  0
 14 15  2  0  0  0
 22 26  1  0  0  0
 25 27  1  0  0  0
  4  8  1  0  0  0
  6  9  1  0  0  0
 17 18  1  0  0  0
 17 19  1  0  0  0
M  END
> <minimizedAffinity>
-6.27198

$$$$
1RNM_C5P_E_200


 27 28  0  0  0  0  0  0  0  0999 V2000
   15.8338   18.2045   29.1171 C   0  0  0  0  0  0  0  0  0  0  0  0
   14.6612   17.4877   29.2236 O   0  0  0  0  0  0  0  0  0  0  0  0
   15.8640   18.6792   27.7561 C   0  0  0  0  0  0  0  0  0  0  0  0
   17.2670   18.6797   27.5597 O   0  0  0  0  0  0  0  0  0  0  0  0
   15.0907   17.7089   26.9274 C   0  0  0  0  0  0  0  0  0  0  0  0
   15.9111   16.6862   26.4295 O   0  0  0  0  0  0  0  0  0  0  0  0
   14.3211   17.0125   27.9646 C   0  0  0  0  0  0  0  0  0  0  0  0
   17.6258   17.8080   27.7882 H   0  0  0  0  0  0  0  0  0  0  0  0
   16.3685   16.2512   27.1660 H   0  0  0  0  0  0  0  0  0  0  0  0
   12.8833   17.1297   27.8563 N   0  0  0  0  0  0  0  0  0  0  0  0
   12.2829   16.2147   27.0310 C   0  0  0  0  0  0  0  0  0  0  0  0
   10.9485   16.2350   27.0131 N   0  0  0  0  0  0  0  0  0  0  0  0
   10.2074   17.1103   27.7513 C   0  0  0  0  0  0  0  0  0  0  0  0
   10.8225   18.0698   28.5907 C   0  0  0  0  0  0  0  0  0  0  0  0
   12.1620   18.0379   28.6120 C   0  0  0  0  0  0  0  0  0  0  0  0
   12.9078   15.4556   26.2864 O   0  0  0  0  0  0  0  0  0  0  0  0
    8.8820   17.0910   27.6608 N   0  0  0  0  0  0  0  0  0  0  0  0
    8.4377   16.4304   27.0817 H   0  0  0  0  0  0  0  0  0  0  0  0
    8.3443   17.7375   28.1728 H   0  0  0  0  0  0  0  0  0  0  0  0
   15.7840   19.3493   30.0217 C   0  0  0  0  0  0  0  0  0  0  0  0
   16.1657   20.5145   29.2802 O   0  0  0  0  0  0  0  0  0  0  0  0
   15.3727   22.4635   28.1059 O   0  0  0  0  0  0  0  0  0  0  0  0
   15.4429   21.9617   29.5248 P   0  0  0  0  0  0  0  0  0  0  0  0
   16.3790   22.7085   30.4582 O   0  0  0  0  0  0  0  0  0  0  0  0
   14.1529   21.4621   30.1440 O   0  0  0  0  0  0  0  0  0  0  0  0
   14.9549   23.3388   28.0928 H   0  0  0  0  0  0  0  0  0  0  0  0
   13.5838   22.2175   30.3594 H   0  0  0  0  0  0  0  0  0  0  0  0
 22 23  1  0  0  0
 23 24  2  0  0  0
 23 25  1  0  0  0
 23 21  1  0  0  0
 21 20  1  0  0  0
 20  1  1  0  0  0
  1  2  1  0  0  0
  1  3  1  0  0  0
  2  7  1  0  0  0
  3  4  1  0  0  0
  3  5  1  0  0  0
  5  6  1  0  0  0
  5  7  1  0  0  0
  7 10  1  0  0  0
 10 11  1  0  0  0
 10 15  1  0  0  0
 11 12  1  0  0  0
 11 16  2  0  0  0
 12 13  2  0  0  0
 13 14  1  0  0  0
 13 17  1  0  0  0
 14 15  2  0  0  0
 22 26  1  0  0  0
 25 27  1  0  0  0
  4  8  1  0  0  0
  6  9  1  0  0  0
 17 18  1  0  0  0
 17 19  1  0  0  0
M  END
> <minimizedAffinity>
-6.17013

$$$$
1RNM_C5P_E_200


 27 28  0  0  0  0  0  0  0  0999 V2000
   14.9393   21.0509   30.8149 C   0  0  0  0  0  0  0  0  0  0  0  0
   14.1680   19.9131   30.7115 O   0  0  0  0  0  0  0  0  0  0  0  0
   15.2427   21.4263   29.4563 C   0  0  0  0  0  0  0  0  0  0  0  0
   16.5161   22.0080   29.6732 O   0  0  0  0  0  0  0  0  0  0  0  0
   15.2270   20.1810   28.6348 C   0  0  0  0  0  0  0  0  0  0  0  0
   16.4914   19.5757   28.5901 O   0  0  0  0  0  0  0  0  0  0  0  0
   14.4811   19.2774   29.5181 C   0  0  0  0  0  0  0  0  0  0  0  0
   17.0808   21.3810   30.1516 H   0  0  0  0  0  0  0  0  0  0  0  0
   16.8030   19.4108   29.4938 H   0  0  0  0  0  0  0  0  0  0  0  0
   13.2355   18.7726   28.9830 N   0  0  0  0  0  0  0  0  0  0  0  0
   13.3430   17.6345   28.2265 C   0  0  0  0  0  0  0  0  0  0  0  0
   12.1915   17.0917   27.8253 N   0  0  0  0  0  0  0  0  0  0  0  0
   10.9726   17.6248   28.1261 C   0  0  0  0  0  0  0  0  0  0  0  0
   10.8564   18.8103   28.8908 C   0  0  0  0  0  0  0  0  0  0  0  0
   12.0154   19.3449   29.2990 C   0  0  0  0  0  0  0  0  0  0  0  0
   14.4206   17.1574   27.8628 O   0  0  0  0  0  0  0  0  0  0  0  0
    9.8687   17.0450   27.6677 N   0  0  0  0  0  0  0  0  0  0  0  0
    9.9312   16.2199   27.1341 H   0  0  0  0  0  0  0  0  0  0  0  0
    8.9881   17.4403   27.8614 H   0  0  0  0  0  0  0  0  0  0  0  0
   14.1544   22.1114   31.4400 C   0  0  0  0  0  0  0  0  0  0  0  0
   14.9814   23.2782   31.5292 O   0  0  0  0  0  0  0  0  0  0  0  0
   13.0127   24.4996   30.8666 O   0  0  0  0  0  0  0  0  0  0  0  0
   14.5027   24.7176   30.9160 P   0  0  0  0  0  0  0  0  0  0  0  0
   15.2130   24.8233   29.5783 O   0  0  0  0  0  0  0  0  0  0  0  0
   15.0323   25.6137   32.0176 O   0  0  0  0  0  0  0  0  0  0  0  0
   12.5814   25.2933   30.5132 H   0  0  0  0  0  0  0  0  0  0  0  0
   14.8278   26.5385   31.8084 H   0  0  0  0  0  0  0  0  0  0  0  0
 22 23  1  0  0  0
 23 24  2  0  0  0
 23 25  1  0  0  0
 23 21  1  0  0  0
 21 20  1  0  0  0
 20  1  1  0  0  0
  1  2  1  0  0  0
  1  3  1  0  0  0
  2  7  1  0  0  0
  3  4  1  0  0  0
  3  5  1  0  0  0
  5  6  1  0  0  0
  5  7  1  0  0  0
  7 10  1  0  0  0
 10 11  1  0  0  0
 10 15  1  0  0  0
 11 12  1  0  0  0
 11 16  2  0  0  0
 12 13  2  0  0  0
 13 14  1  0  0  0
 13 17  1  0  0  0
 14 15  2  0  0  0
 22 26  1  0  0  0
 25 27  1  0  0  0
  4  8  1  0  0  0
  6  9  1  0  0  0
 17 18  1  0  0  0
 17 19  1  0  0  0
M  END
> <minimizedAffinity>
-6.15587

$$$$
1RNM_C5P_E_200


 27 28  0  0  0  0  0  0  0  0999 V2000
   14.5138   20.8531   29.4884 C   0  0  0  0  0  0  0  0  0  0  0  0
   13.5009   20.9677   30.4163 O   0  0  0  0  0  0  0  0  0  0  0  0
   15.0540   22.1829   29.3527 C   0  0  0  0  0  0  0  0  0  0  0  0
   15.4463   22.1179   27.9930 O   0  0  0  0  0  0  0  0  0  0  0  0
   13.9581   23.1446   29.6691 C   0  0  0  0  0  0  0  0  0  0  0  0
   13.2258   23.4883   28.5234 O   0  0  0  0  0  0  0  0  0  0  0  0
   13.0222   22.2702   30.3851 C   0  0  0  0  0  0  0  0  0  0  0  0
   14.6934   21.8317   27.4526 H   0  0  0  0  0  0  0  0  0  0  0  0
   12.8909   22.6825   28.0999 H   0  0  0  0  0  0  0  0  0  0  0  0
   12.7505   22.6405   31.7569 N   0  0  0  0  0  0  0  0  0  0  0  0
   11.4464   22.4966   32.1538 C   0  0  0  0  0  0  0  0  0  0  0  0
   11.2037   22.7213   33.4469 N   0  0  0  0  0  0  0  0  0  0  0  0
   12.1738   23.0845   34.3342 C   0  0  0  0  0  0  0  0  0  0  0  0
   13.5187   23.2531   33.9259 C   0  0  0  0  0  0  0  0  0  0  0  0
   13.7578   23.0165   32.6288 C   0  0  0  0  0  0  0  0  0  0  0  0
   10.5215   22.2463   31.3772 O   0  0  0  0  0  0  0  0  0  0  0  0
   11.8527   23.3198   35.6017 N   0  0  0  0  0  0  0  0  0  0  0  0
   10.9221   23.2075   35.9027 H   0  0  0  0  0  0  0  0  0  0  0  0
   12.5453   23.6063   36.2399 H   0  0  0  0  0  0  0  0  0  0  0  0
   15.5498   19.9673   30.0113 C   0  0  0  0  0  0  0  0  0  0  0  0
   15.3230   18.6581   29.4746 O   0  0  0  0  0  0  0  0  0  0  0  0
   16.7374   17.0108   28.4295 O   0  0  0  0  0  0  0  0  0  0  0  0
   15.9245   18.2114   28.0201 P   0  0  0  0  0  0  0  0  0  0  0  0
   16.7049   19.4207   27.5367 O   0  0  0  0  0  0  0  0  0  0  0  0
   14.6117   17.9459   27.3108 O   0  0  0  0  0  0  0  0  0  0  0  0
   17.1659   16.6287   27.6477 H   0  0  0  0  0  0  0  0  0  0  0  0
   14.7879   17.6604   26.4006 H   0  0  0  0  0  0  0  0  0  0  0  0
 22 23  1  0  0  0
 23 24  2  0  0  0
 23 25  1  0  0  0
 23 21  1  0  0  0
 21 20  1  0  0  0
 20  1  1  0  0  0
  1  2  1  0  0  0
  1  3  1  0  0  0
  2  7  1  0  0  0
  3  4  1  0  0  0
  3  5  1  0  0  0
  5  6  1  0  0  0
  5  7  1  0  0  0
  7 10  1  0  0  0
 10 11  1  0  0  0
 10 15  1  0  0  0
 11 12  1  0  0  0
 11 16  2  0  0  0
 12 13  2  0  0  0
 13 14  1  0  0  0
 13 17  1  0  0  0
 14 15  2  0  0  0
 22 26  1  0  0  0
 25 27  1  0  0  0
  4  8  1  0  0  0
  6  9  1  0  0  0
 17 18  1  0  0  0
 17 19  1  0  0  0
M  END
> <minimizedAffinity>
-6.13393

$$$$
