1NDV_FR0_A_1001


 31 34  0  0  0  0  0  0  0  0999 V2000
   50.5433   51.2184   19.5530 C   0  0  0  0  0  0  0  0  0  0  0  0
   49.7369   51.5497   18.0728 S   0  0  0  0  0  0  0  0  0  0  0  0
   48.9421   49.9251   18.0678 C   0  0  0  0  0  0  0  0  0  0  0  0
   49.2741   49.1992   19.2892 C   0  0  0  0  0  0  0  0  0  0  0  0
   50.1873   49.9472   20.1261 C   0  0  0  0  0  0  0  0  0  0  0  0
   48.0845   49.3272   17.1997 C   0  0  0  0  0  0  0  0  0  0  0  0
   46.8561   49.0641   18.0112 N   0  0  0  0  0  0  0  0  0  0  0  0
   45.7134   48.6179   17.4285 C   0  0  0  0  0  0  0  0  0  0  0  0
   46.1681   48.2465   15.7848 S   0  0  0  0  0  0  0  0  0  0  0  0
   47.7386   48.8181   16.0223 C   0  0  0  0  0  0  0  0  0  0  0  0
   44.5577   48.1657   18.0054 N   0  0  0  0  0  0  0  0  0  0  0  0
   44.5335   47.3129   19.0675 C   0  0  0  0  0  0  0  0  0  0  0  0
   45.4288   47.4185   20.0091 N   0  0  0  0  0  0  0  0  0  0  0  0
   43.6574   46.3191   19.1884 N   0  0  0  0  0  0  0  0  0  0  0  0
   46.1019   48.1359   19.9701 H   0  0  0  0  0  0  0  0  0  0  0  0
   45.4319   46.7809   20.7592 H   0  0  0  0  0  0  0  0  0  0  0  0
   42.9593   46.1926   18.5059 H   0  0  0  0  0  0  0  0  0  0  0  0
   43.7072   45.7102   19.9605 H   0  0  0  0  0  0  0  0  0  0  0  0
   51.5229   52.0901   20.2282 C   0  0  0  0  0  0  0  0  0  0  0  0
   50.9088   52.5359   21.4741 N   0  0  0  0  0  0  0  0  0  0  0  0
   50.9259   51.9363   22.2548 H   0  0  0  0  0  0  0  0  0  0  0  0
   50.8670   54.9879   21.9982 N   0  0  0  0  0  0  0  0  0  0  0  0
   49.9967   56.0358   21.7888 C   0  0  0  0  0  0  0  0  0  0  0  0
   48.8111   55.4549   21.2503 C   0  0  0  0  0  0  0  0  0  0  0  0
   49.0400   54.0950   21.1790 N   0  0  0  0  0  0  0  0  0  0  0  0
   50.2598   53.8627   21.6026 C   0  0  0  0  0  0  0  0  0  0  0  0
   50.0886   57.4284   21.9588 C   0  0  0  0  0  0  0  0  0  0  0  0
   48.9621   58.2078   21.5902 C   0  0  0  0  0  0  0  0  0  0  0  0
   47.7819   57.6248   21.0460 C   0  0  0  0  0  0  0  0  0  0  0  0
   47.7026   56.2445   20.8776 C   0  0  0  0  0  0  0  0  0  0  0  0
   48.3990   53.4171   20.8647 H   0  0  0  0  0  0  0  0  0  0  0  0
 22 23  1  0  0  0
 22 26  2  0  0  0
 23 24  2  0  0  0
 23 27  1  0  0  0
 24 25  1  0  0  0
 24 30  1  0  0  0
 25 26  1  0  0  0
 26 20  1  0  0  0
 27 28  2  0  0  0
 28 29  1  0  0  0
 29 30  2  0  0  0
 20 19  1  0  0  0
 19  1  1  0  0  0
  1  2  1  0  0  0
  1  5  2  0  0  0
  2  3  1  0  0  0
  3  4  2  0  0  0
  3  6  1  0  0  0
  4  5  1  0  0  0
  6  7  1  0  0  0
  6 10  2  0  0  0
  7  8  2  0  0  0
  8  9  1  0  0  0
  8 11  1  0  0  0
  9 10  1  0  0  0
 11 12  2  0  0  0
 12 13  1  0  0  0
 12 14  1  0  0  0
 25 31  1  0  0  0
 20 21  1  0  0  0
 13 15  1  0  0  0
 13 16  1  0  0  0
 14 17  1  0  0  0
 14 18  1  0  0  0
M  END
> <minimizedAffinity>
-9.63950

$$$$
1NDV_FR0_A_1001


 31 34  0  0  0  0  0  0  0  0999 V2000
   50.1422   51.8552   19.0193 C   0  0  0  0  0  0  0  0  0  0  0  0
   50.3559   52.7224   20.4868 S   0  0  0  0  0  0  0  0  0  0  0  0
   49.4386   54.1468   19.8536 C   0  0  0  0  0  0  0  0  0  0  0  0
   48.9146   53.8563   18.5232 C   0  0  0  0  0  0  0  0  0  0  0  0
   49.3232   52.5478   18.0598 C   0  0  0  0  0  0  0  0  0  0  0  0
   49.1177   55.3477   20.4026 C   0  0  0  0  0  0  0  0  0  0  0  0
   50.4358   55.9621   20.7515 N   0  0  0  0  0  0  0  0  0  0  0  0
   50.5185   57.2493   21.1766 C   0  0  0  0  0  0  0  0  0  0  0  0
   48.8623   57.7464   21.4142 S   0  0  0  0  0  0  0  0  0  0  0  0
   48.2702   56.2778   20.8292 C   0  0  0  0  0  0  0  0  0  0  0  0
   51.5859   57.9311   21.6948 N   0  0  0  0  0  0  0  0  0  0  0  0
   52.8751   57.5060   21.5791 C   0  0  0  0  0  0  0  0  0  0  0  0
   53.2739   56.9240   20.4829 N   0  0  0  0  0  0  0  0  0  0  0  0
   53.7699   57.6072   22.5583 N   0  0  0  0  0  0  0  0  0  0  0  0
   52.6529   56.8220   19.7258 H   0  0  0  0  0  0  0  0  0  0  0  0
   54.1960   56.5864   20.4122 H   0  0  0  0  0  0  0  0  0  0  0  0
   53.5227   58.0379   23.4085 H   0  0  0  0  0  0  0  0  0  0  0  0
   54.6792   57.2515   22.4329 H   0  0  0  0  0  0  0  0  0  0  0  0
   50.7151   50.5358   18.6931 C   0  0  0  0  0  0  0  0  0  0  0  0
   50.0575   50.0754   17.4750 N   0  0  0  0  0  0  0  0  0  0  0  0
   50.4508   50.3100   16.6035 H   0  0  0  0  0  0  0  0  0  0  0  0
   48.1379   48.9291   18.6109 N   0  0  0  0  0  0  0  0  0  0  0  0
   46.9443   48.3624   18.2193 C   0  0  0  0  0  0  0  0  0  0  0  0
   46.9602   48.3685   16.7936 C   0  0  0  0  0  0  0  0  0  0  0  0
   48.1652   48.9292   16.4188 N   0  0  0  0  0  0  0  0  0  0  0  0
   48.8161   49.2655   17.5072 C   0  0  0  0  0  0  0  0  0  0  0  0
   45.8231   47.8738   18.9127 C   0  0  0  0  0  0  0  0  0  0  0  0
   44.7388   47.3840   18.1401 C   0  0  0  0  0  0  0  0  0  0  0  0
   44.7553   47.3980   16.7159 C   0  0  0  0  0  0  0  0  0  0  0  0
   45.8692   47.8881   16.0385 C   0  0  0  0  0  0  0  0  0  0  0  0
   48.4811   49.0549   15.4948 H   0  0  0  0  0  0  0  0  0  0  0  0
 22 23  1  0  0  0
 22 26  2  0  0  0
 23 24  2  0  0  0
 23 27  1  0  0  0
 24 25  1  0  0  0
 24 30  1  0  0  0
 25 26  1  0  0  0
 26 20  1  0  0  0
 27 28  2  0  0  0
 28 29  1  0  0  0
 29 30  2  0  0  0
 20 19  1  0  0  0
 19  1  1  0  0  0
  1  2  1  0  0  0
  1  5  2  0  0  0
  2  3  1  0  0  0
  3  4  2  0  0  0
  3  6  1  0  0  0
  4  5  1  0  0  0
  6  7  1  0  0  0
  6 10  2  0  0  0
  7  8  2  0  0  0
  8  9  1  0  0  0
  8 11  1  0  0  0
  9 10  1  0  0  0
 11 12  2  0  0  0
 12 13  1  0  0  0
 12 14  1  0  0  0
 25 31  1  0  0  0
 20 21  1  0  0  0
 13 15  1  0  0  0
 13 16  1  0  0  0
 14 17  1  0  0  0
 14 18  1  0  0  0
M  END
> <minimizedAffinity>
-9.22628

$$$$
1NDV_FR0_A_1001


 31 34  0  0  0  0  0  0  0  0999 V2000
   51.3375   55.5148   20.9729 C   0  0  0  0  0  0  0  0  0  0  0  0
   51.2105   55.1429   19.3005 S   0  0  0  0  0  0  0  0  0  0  0  0
   50.5875   53.4816   19.6515 C   0  0  0  0  0  0  0  0  0  0  0  0
   50.4169   53.3020   21.0894 C   0  0  0  0  0  0  0  0  0  0  0  0
   50.8483   54.4677   21.8304 C   0  0  0  0  0  0  0  0  0  0  0  0
   50.2108   52.4549   18.8449 C   0  0  0  0  0  0  0  0  0  0  0  0
   50.1831   51.2629   19.7476 N   0  0  0  0  0  0  0  0  0  0  0  0
   49.6873   50.0724   19.3215 C   0  0  0  0  0  0  0  0  0  0  0  0
   49.4229   50.2879   17.6098 S   0  0  0  0  0  0  0  0  0  0  0  0
   49.8743   51.9130   17.6795 C   0  0  0  0  0  0  0  0  0  0  0  0
   49.7264   48.8441   19.9237 N   0  0  0  0  0  0  0  0  0  0  0  0
   50.5414   48.5500   20.9750 C   0  0  0  0  0  0  0  0  0  0  0  0
   50.7706   49.4464   21.8933 N   0  0  0  0  0  0  0  0  0  0  0  0
   51.1753   47.3878   21.1069 N   0  0  0  0  0  0  0  0  0  0  0  0
   50.3279   50.3245   21.8453 H   0  0  0  0  0  0  0  0  0  0  0  0
   51.3862   49.2454   22.6347 H   0  0  0  0  0  0  0  0  0  0  0  0
   51.0392   46.6746   20.4420 H   0  0  0  0  0  0  0  0  0  0  0  0
   51.7805   47.2410   21.8694 H   0  0  0  0  0  0  0  0  0  0  0  0
   51.8899   56.7534   21.5527 C   0  0  0  0  0  0  0  0  0  0  0  0
   50.7586   57.5433   22.0264 N   0  0  0  0  0  0  0  0  0  0  0  0
   50.8179   57.9801   22.9067 H   0  0  0  0  0  0  0  0  0  0  0  0
   48.2895   57.3729   21.6222 N   0  0  0  0  0  0  0  0  0  0  0  0
   47.3957   57.8687   20.6978 C   0  0  0  0  0  0  0  0  0  0  0  0
   48.1848   58.5177   19.7032 C   0  0  0  0  0  0  0  0  0  0  0  0
   49.5022   58.3630   20.0875 N   0  0  0  0  0  0  0  0  0  0  0  0
   49.5225   57.7095   21.2249 C   0  0  0  0  0  0  0  0  0  0  0  0
   45.9929   57.8767   20.6050 C   0  0  0  0  0  0  0  0  0  0  0  0
   45.4152   58.5352   19.4890 C   0  0  0  0  0  0  0  0  0  0  0  0
   46.2064   59.1884   18.5010 C   0  0  0  0  0  0  0  0  0  0  0  0
   47.5953   59.1784   18.6045 C   0  0  0  0  0  0  0  0  0  0  0  0
   50.2897   58.6870   19.5934 H   0  0  0  0  0  0  0  0  0  0  0  0
 22 23  1  0  0  0
 22 26  2  0  0  0
 23 24  2  0  0  0
 23 27  1  0  0  0
 24 25  1  0  0  0
 24 30  1  0  0  0
 25 26  1  0  0  0
 26 20  1  0  0  0
 27 28  2  0  0  0
 28 29  1  0  0  0
 29 30  2  0  0  0
 20 19  1  0  0  0
 19  1  1  0  0  0
  1  2  1  0  0  0
  1  5  2  0  0  0
  2  3  1  0  0  0
  3  4  2  0  0  0
  3  6  1  0  0  0
  4  5  1  0  0  0
  6  7  1  0  0  0
  6 10  2  0  0  0
  7  8  2  0  0  0
  8  9  1  0  0  0
  8 11  1  0  0  0
  9 10  1  0  0  0
 11 12  2  0  0  0
 12 13  1  0  0  0
 12 14  1  0  0  0
 25 31  1  0  0  0
 20 21  1  0  0  0
 13 15  1  0  0  0
 13 16  1  0  0  0
 14 17  1  0  0  0
 14 18  1  0  0  0
M  END
> <minimizedAffinity>
-8.76496

$$$$
1NDV_FR0_A_1001


 31 34  0  0  0  0  0  0  0  0999 V2000
   51.0093   52.7411   20.2192 C   0  0  0  0  0  0  0  0  0  0  0  0
   50.9523   54.1825   19.2863 S   0  0  0  0  0  0  0  0  0  0  0  0
   49.6182   54.8626   20.3006 C   0  0  0  0  0  0  0  0  0  0  0  0
   49.3160   53.9588   21.4055 C   0  0  0  0  0  0  0  0  0  0  0  0
   50.1154   52.7541   21.3470 C   0  0  0  0  0  0  0  0  0  0  0  0
   48.9345   56.0357   20.2486 C   0  0  0  0  0  0  0  0  0  0  0  0
   48.7255   56.2808   18.7882 N   0  0  0  0  0  0  0  0  0  0  0  0
   47.9278   57.2906   18.3540 C   0  0  0  0  0  0  0  0  0  0  0  0
   47.5464   58.2051   19.7910 S   0  0  0  0  0  0  0  0  0  0  0  0
   48.3648   57.1109   20.7822 C   0  0  0  0  0  0  0  0  0  0  0  0
   47.7443   57.7760   17.0877 N   0  0  0  0  0  0  0  0  0  0  0  0
   47.9021   57.0207   15.9649 C   0  0  0  0  0  0  0  0  0  0  0  0
   47.5366   55.7694   15.9641 N   0  0  0  0  0  0  0  0  0  0  0  0
   48.4642   57.4769   14.8488 N   0  0  0  0  0  0  0  0  0  0  0  0
   47.1153   55.3791   16.7637 H   0  0  0  0  0  0  0  0  0  0  0  0
   47.6819   55.2146   15.1638 H   0  0  0  0  0  0  0  0  0  0  0  0
   48.7594   58.4146   14.7941 H   0  0  0  0  0  0  0  0  0  0  0  0
   48.5851   56.8770   14.0777 H   0  0  0  0  0  0  0  0  0  0  0  0
   51.8524   51.5607   19.9523 C   0  0  0  0  0  0  0  0  0  0  0  0
   51.7017   51.2409   18.5369 N   0  0  0  0  0  0  0  0  0  0  0  0
   52.3761   51.5704   17.8997 H   0  0  0  0  0  0  0  0  0  0  0  0
   49.7889   49.6356   18.7667 N   0  0  0  0  0  0  0  0  0  0  0  0
   48.7293   49.2313   17.9838 C   0  0  0  0  0  0  0  0  0  0  0  0
   48.9341   49.8369   16.7093 C   0  0  0  0  0  0  0  0  0  0  0  0
   50.1077   50.5585   16.8039 N   0  0  0  0  0  0  0  0  0  0  0  0
   50.5659   50.4359   18.0271 C   0  0  0  0  0  0  0  0  0  0  0  0
   47.5877   48.4449   18.2187 C   0  0  0  0  0  0  0  0  0  0  0  0
   46.6779   48.2755   17.1435 C   0  0  0  0  0  0  0  0  0  0  0  0
   46.8822   48.8877   15.8737 C   0  0  0  0  0  0  0  0  0  0  0  0
   48.0142   49.6684   15.6527 C   0  0  0  0  0  0  0  0  0  0  0  0
   50.5277   51.0755   16.0789 H   0  0  0  0  0  0  0  0  0  0  0  0
 22 23  1  0  0  0
 22 26  2  0  0  0
 23 24  2  0  0  0
 23 27  1  0  0  0
 24 25  1  0  0  0
 24 30  1  0  0  0
 25 26  1  0  0  0
 26 20  1  0  0  0
 27 28  2  0  0  0
 28 29  1  0  0  0
 29 30  2  0  0  0
 20 19  1  0  0  0
 19  1  1  0  0  0
  1  2  1  0  0  0
  1  5  2  0  0  0
  2  3  1  0  0  0
  3  4  2  0  0  0
  3  6  1  0  0  0
  4  5  1  0  0  0
  6  7  1  0  0  0
  6 10  2  0  0  0
  7  8  2  0  0  0
  8  9  1  0  0  0
  8 11  1  0  0  0
  9 10  1  0  0  0
 11 12  2  0  0  0
 12 13  1  0  0  0
 12 14  1  0  0  0
 25 31  1  0  0  0
 20 21  1  0  0  0
 13 15  1  0  0  0
 13 16  1  0  0  0
 14 17  1  0  0  0
 14 18  1  0  0  0
M  END
> <minimizedAffinity>
-8.47701

$$$$
1NDV_FR0_A_1001


 31 34  0  0  0  0  0  0  0  0999 V2000
   51.3646   55.4251   20.8977 C   0  0  0  0  0  0  0  0  0  0  0  0
   50.8575   54.1478   21.9285 S   0  0  0  0  0  0  0  0  0  0  0  0
   50.8964   52.9518   20.5723 C   0  0  0  0  0  0  0  0  0  0  0  0
   51.3956   53.5861   19.3568 C   0  0  0  0  0  0  0  0  0  0  0  0
   51.6581   54.9951   19.5560 C   0  0  0  0  0  0  0  0  0  0  0  0
   50.6180   51.6230   20.5141 C   0  0  0  0  0  0  0  0  0  0  0  0
   50.0114   51.4283   19.1611 N   0  0  0  0  0  0  0  0  0  0  0  0
   49.7538   50.1844   18.6808 C   0  0  0  0  0  0  0  0  0  0  0  0
   50.0391   49.1179   20.0328 S   0  0  0  0  0  0  0  0  0  0  0  0
   50.5624   50.3915   21.0094 C   0  0  0  0  0  0  0  0  0  0  0  0
   49.0620   49.8058   17.5623 N   0  0  0  0  0  0  0  0  0  0  0  0
   49.3543   50.2581   16.3109 C   0  0  0  0  0  0  0  0  0  0  0  0
   50.5950   50.4509   15.9604 N   0  0  0  0  0  0  0  0  0  0  0  0
   48.4263   50.5697   15.4100 N   0  0  0  0  0  0  0  0  0  0  0  0
   51.3227   50.2374   16.5882 H   0  0  0  0  0  0  0  0  0  0  0  0
   50.8043   50.8099   15.0680 H   0  0  0  0  0  0  0  0  0  0  0  0
   47.4731   50.4443   15.6216 H   0  0  0  0  0  0  0  0  0  0  0  0
   48.6929   50.9258   14.5317 H   0  0  0  0  0  0  0  0  0  0  0  0
   51.5006   56.8459   21.2695 C   0  0  0  0  0  0  0  0  0  0  0  0
   50.2713   57.2258   21.9570 N   0  0  0  0  0  0  0  0  0  0  0  0
   50.2575   57.2294   22.9414 H   0  0  0  0  0  0  0  0  0  0  0  0
   47.8337   57.0566   21.3924 N   0  0  0  0  0  0  0  0  0  0  0  0
   46.9202   57.8117   20.6890 C   0  0  0  0  0  0  0  0  0  0  0  0
   47.6719   58.8514   20.0670 C   0  0  0  0  0  0  0  0  0  0  0  0
   48.9896   58.6503   20.4278 N   0  0  0  0  0  0  0  0  0  0  0  0
   49.0418   57.6065   21.2210 C   0  0  0  0  0  0  0  0  0  0  0  0
   45.5238   57.7581   20.5348 C   0  0  0  0  0  0  0  0  0  0  0  0
   44.9155   58.7593   19.7347 C   0  0  0  0  0  0  0  0  0  0  0  0
   45.6688   59.8006   19.1205 C   0  0  0  0  0  0  0  0  0  0  0  0
   47.0512   59.8471   19.2831 C   0  0  0  0  0  0  0  0  0  0  0  0
   49.7570   59.1957   20.1397 H   0  0  0  0  0  0  0  0  0  0  0  0
 22 23  1  0  0  0
 22 26  2  0  0  0
 23 24  2  0  0  0
 23 27  1  0  0  0
 24 25  1  0  0  0
 24 30  1  0  0  0
 25 26  1  0  0  0
 26 20  1  0  0  0
 27 28  2  0  0  0
 28 29  1  0  0  0
 29 30  2  0  0  0
 20 19  1  0  0  0
 19  1  1  0  0  0
  1  2  1  0  0  0
  1  5  2  0  0  0
  2  3  1  0  0  0
  3  4  2  0  0  0
  3  6  1  0  0  0
  4  5  1  0  0  0
  6  7  1  0  0  0
  6 10  2  0  0  0
  7  8  2  0  0  0
  8  9  1  0  0  0
  8 11  1  0  0  0
  9 10  1  0  0  0
 11 12  2  0  0  0
 12 13  1  0  0  0
 12 14  1  0  0  0
 25 31  1  0  0  0
 20 21  1  0  0  0
 13 15  1  0  0  0
 13 16  1  0  0  0
 14 17  1  0  0  0
 14 18  1  0  0  0
M  END
> <minimizedAffinity>
-8.39294

$$$$
1NDV_FR0_A_1001


 31 34  0  0  0  0  0  0  0  0999 V2000
   51.2315   52.1676   19.7874 C   0  0  0  0  0  0  0  0  0  0  0  0
   50.3770   52.8985   21.0862 S   0  0  0  0  0  0  0  0  0  0  0  0
   50.7710   54.5615   20.4943 C   0  0  0  0  0  0  0  0  0  0  0  0
   51.4984   54.4865   19.2317 C   0  0  0  0  0  0  0  0  0  0  0  0
   51.7544   53.1170   18.8407 C   0  0  0  0  0  0  0  0  0  0  0  0
   50.4643   55.7985   20.9657 C   0  0  0  0  0  0  0  0  0  0  0  0
   49.0173   55.9762   20.6321 N   0  0  0  0  0  0  0  0  0  0  0  0
   48.3156   57.0406   21.1001 C   0  0  0  0  0  0  0  0  0  0  0  0
   49.5150   58.0777   21.8298 S   0  0  0  0  0  0  0  0  0  0  0  0
   50.7481   56.9611   21.5428 C   0  0  0  0  0  0  0  0  0  0  0  0
   47.0551   57.4655   20.7785 N   0  0  0  0  0  0  0  0  0  0  0  0
   46.7716   58.1966   19.6646 C   0  0  0  0  0  0  0  0  0  0  0  0
   47.4033   57.9578   18.5496 N   0  0  0  0  0  0  0  0  0  0  0  0
   45.8984   59.2002   19.6504 N   0  0  0  0  0  0  0  0  0  0  0  0
   48.0610   57.2267   18.5033 H   0  0  0  0  0  0  0  0  0  0  0  0
   47.2228   58.5086   17.7538 H   0  0  0  0  0  0  0  0  0  0  0  0
   45.3932   59.4247   20.4650 H   0  0  0  0  0  0  0  0  0  0  0  0
   45.7575   59.7185   18.8253 H   0  0  0  0  0  0  0  0  0  0  0  0
   51.4601   50.7232   19.5953 C   0  0  0  0  0  0  0  0  0  0  0  0
   51.0433   50.4033   18.2344 N   0  0  0  0  0  0  0  0  0  0  0  0
   51.6176   50.6778   17.4833 H   0  0  0  0  0  0  0  0  0  0  0  0
   48.9352   49.2003   18.8649 N   0  0  0  0  0  0  0  0  0  0  0  0
   47.7940   48.7840   18.2139 C   0  0  0  0  0  0  0  0  0  0  0  0
   48.0236   49.0332   16.8289 C   0  0  0  0  0  0  0  0  0  0  0  0
   49.2906   49.5743   16.7341 N   0  0  0  0  0  0  0  0  0  0  0  0
   49.7827   49.6782   17.9459 C   0  0  0  0  0  0  0  0  0  0  0  0
   46.5648   48.2541   18.6437 C   0  0  0  0  0  0  0  0  0  0  0  0
   45.5916   47.9719   17.6508 C   0  0  0  0  0  0  0  0  0  0  0  0
   45.8217   48.2286   16.2688 C   0  0  0  0  0  0  0  0  0  0  0  0
   47.0414   48.7577   15.8539 C   0  0  0  0  0  0  0  0  0  0  0  0
   49.7457   49.8366   15.9015 H   0  0  0  0  0  0  0  0  0  0  0  0
 22 23  1  0  0  0
 22 26  2  0  0  0
 23 24  2  0  0  0
 23 27  1  0  0  0
 24 25  1  0  0  0
 24 30  1  0  0  0
 25 26  1  0  0  0
 26 20  1  0  0  0
 27 28  2  0  0  0
 28 29  1  0  0  0
 29 30  2  0  0  0
 20 19  1  0  0  0
 19  1  1  0  0  0
  1  2  1  0  0  0
  1  5  2  0  0  0
  2  3  1  0  0  0
  3  4  2  0  0  0
  3  6  1  0  0  0
  4  5  1  0  0  0
  6  7  1  0  0  0
  6 10  2  0  0  0
  7  8  2  0  0  0
  8  9  1  0  0  0
  8 11  1  0  0  0
  9 10  1  0  0  0
 11 12  2  0  0  0
 12 13  1  0  0  0
 12 14  1  0  0  0
 25 31  1  0  0  0
 20 21  1  0  0  0
 13 15  1  0  0  0
 13 16  1  0  0  0
 14 17  1  0  0  0
 14 18  1  0  0  0
M  END
> <minimizedAffinity>
-8.27121

$$$$
1NDV_FR0_A_1001


 31 34  0  0  0  0  0  0  0  0999 V2000
   48.8812   55.1812   20.0186 C   0  0  0  0  0  0  0  0  0  0  0  0
   48.8246   55.9194   18.4684 S   0  0  0  0  0  0  0  0  0  0  0  0
   47.9666   57.3719   19.1206 C   0  0  0  0  0  0  0  0  0  0  0  0
   47.8272   57.2652   20.5691 C   0  0  0  0  0  0  0  0  0  0  0  0
   48.3520   56.0122   21.0675 C   0  0  0  0  0  0  0  0  0  0  0  0
   47.5148   58.5103   18.5320 C   0  0  0  0  0  0  0  0  0  0  0  0
   46.1688   58.7369   19.1431 N   0  0  0  0  0  0  0  0  0  0  0  0
   45.4789   59.8840   18.9137 C   0  0  0  0  0  0  0  0  0  0  0  0
   46.3870   60.7081   17.6717 S   0  0  0  0  0  0  0  0  0  0  0  0
   47.5971   59.5312   17.6857 C   0  0  0  0  0  0  0  0  0  0  0  0
   44.1884   60.2063   19.2353 N   0  0  0  0  0  0  0  0  0  0  0  0
   43.3759   59.4000   19.9741 C   0  0  0  0  0  0  0  0  0  0  0  0
   43.8680   58.7096   20.9643 N   0  0  0  0  0  0  0  0  0  0  0  0
   42.0821   59.2299   19.7154 N   0  0  0  0  0  0  0  0  0  0  0  0
   44.8200   58.7965   21.1998 H   0  0  0  0  0  0  0  0  0  0  0  0
   43.2878   58.1012   21.4765 H   0  0  0  0  0  0  0  0  0  0  0  0
   41.6580   59.7264   18.9785 H   0  0  0  0  0  0  0  0  0  0  0  0
   41.5487   58.6076   20.2607 H   0  0  0  0  0  0  0  0  0  0  0  0
   49.3939   53.8327   20.3256 C   0  0  0  0  0  0  0  0  0  0  0  0
   50.0947   53.3624   19.1357 N   0  0  0  0  0  0  0  0  0  0  0  0
   50.8951   53.8479   18.8311 H   0  0  0  0  0  0  0  0  0  0  0  0
   49.5485   50.9313   18.8517 N   0  0  0  0  0  0  0  0  0  0  0  0
   48.8969   50.1606   17.9132 C   0  0  0  0  0  0  0  0  0  0  0  0
   48.6157   51.0329   16.8210 C   0  0  0  0  0  0  0  0  0  0  0  0
   49.1238   52.2693   17.1677 N   0  0  0  0  0  0  0  0  0  0  0  0
   49.6403   52.1767   18.3702 C   0  0  0  0  0  0  0  0  0  0  0  0
   48.4741   48.8203   17.8758 C   0  0  0  0  0  0  0  0  0  0  0  0
   47.7823   48.3851   16.7162 C   0  0  0  0  0  0  0  0  0  0  0  0
   47.4970   49.2611   15.6300 C   0  0  0  0  0  0  0  0  0  0  0  0
   47.9165   50.5883   15.6788 C   0  0  0  0  0  0  0  0  0  0  0  0
   49.1022   53.0798   16.6093 H   0  0  0  0  0  0  0  0  0  0  0  0
 22 23  1  0  0  0
 22 26  2  0  0  0
 23 24  2  0  0  0
 23 27  1  0  0  0
 24 25  1  0  0  0
 24 30  1  0  0  0
 25 26  1  0  0  0
 26 20  1  0  0  0
 27 28  2  0  0  0
 28 29  1  0  0  0
 29 30  2  0  0  0
 20 19  1  0  0  0
 19  1  1  0  0  0
  1  2  1  0  0  0
  1  5  2  0  0  0
  2  3  1  0  0  0
  3  4  2  0  0  0
  3  6  1  0  0  0
  4  5  1  0  0  0
  6  7  1  0  0  0
  6 10  2  0  0  0
  7  8  2  0  0  0
  8  9  1  0  0  0
  8 11  1  0  0  0
  9 10  1  0  0  0
 11 12  2  0  0  0
 12 13  1  0  0  0
 12 14  1  0  0  0
 25 31  1  0  0  0
 20 21  1  0  0  0
 13 15  1  0  0  0
 13 16  1  0  0  0
 14 17  1  0  0  0
 14 18  1  0  0  0
M  END
> <minimizedAffinity>
-8.06460

$$$$
1NDV_FR0_A_1001


 31 34  0  0  0  0  0  0  0  0999 V2000
   49.2294   51.8746   17.3297 C   0  0  0  0  0  0  0  0  0  0  0  0
   49.9150   52.9919   18.4400 S   0  0  0  0  0  0  0  0  0  0  0  0
   48.7451   54.2851   17.9603 C   0  0  0  0  0  0  0  0  0  0  0  0
   47.7871   53.7623   16.9918 C   0  0  0  0  0  0  0  0  0  0  0  0
   48.0748   52.3882   16.6411 C   0  0  0  0  0  0  0  0  0  0  0  0
   48.5768   55.5681   18.3749 C   0  0  0  0  0  0  0  0  0  0  0  0
   49.6484   55.7728   19.3979 N   0  0  0  0  0  0  0  0  0  0  0  0
   49.8942   57.0026   19.9190 C   0  0  0  0  0  0  0  0  0  0  0  0
   48.5940   58.0048   19.3261 S   0  0  0  0  0  0  0  0  0  0  0  0
   47.9640   56.7468   18.3932 C   0  0  0  0  0  0  0  0  0  0  0  0
   50.6988   57.3627   20.9658 N   0  0  0  0  0  0  0  0  0  0  0  0
   51.9816   56.9272   21.1101 C   0  0  0  0  0  0  0  0  0  0  0  0
   52.7418   56.7792   20.0616 N   0  0  0  0  0  0  0  0  0  0  0  0
   52.5120   56.5883   22.2821 N   0  0  0  0  0  0  0  0  0  0  0  0
   52.4003   57.0146   19.1687 H   0  0  0  0  0  0  0  0  0  0  0  0
   53.6576   56.4322   20.1625 H   0  0  0  0  0  0  0  0  0  0  0  0
   51.9824   56.6796   23.1070 H   0  0  0  0  0  0  0  0  0  0  0  0
   53.4342   56.2462   22.3246 H   0  0  0  0  0  0  0  0  0  0  0  0
   49.7205   50.5134   17.0448 C   0  0  0  0  0  0  0  0  0  0  0  0
   49.2995   49.6674   18.1562 N   0  0  0  0  0  0  0  0  0  0  0  0
   49.8478   49.6471   18.9737 H   0  0  0  0  0  0  0  0  0  0  0  0
   47.3196   48.4870   19.1440 N   0  0  0  0  0  0  0  0  0  0  0  0
   46.1681   47.9019   18.6636 C   0  0  0  0  0  0  0  0  0  0  0  0
   46.2903   47.9118   17.2430 C   0  0  0  0  0  0  0  0  0  0  0  0
   47.5105   48.4932   16.9600 N   0  0  0  0  0  0  0  0  0  0  0  0
   48.0727   48.8372   18.0944 C   0  0  0  0  0  0  0  0  0  0  0  0
   45.0065   47.3932   19.2706 C   0  0  0  0  0  0  0  0  0  0  0  0
   43.9911   46.8877   18.4184 C   0  0  0  0  0  0  0  0  0  0  0  0
   44.1137   46.9057   16.9994 C   0  0  0  0  0  0  0  0  0  0  0  0
   45.2668   47.4157   16.4079 C   0  0  0  0  0  0  0  0  0  0  0  0
   47.8925   48.6264   16.0624 H   0  0  0  0  0  0  0  0  0  0  0  0
 22 23  1  0  0  0
 22 26  2  0  0  0
 23 24  2  0  0  0
 23 27  1  0  0  0
 24 25  1  0  0  0
 24 30  1  0  0  0
 25 26  1  0  0  0
 26 20  1  0  0  0
 27 28  2  0  0  0
 28 29  1  0  0  0
 29 30  2  0  0  0
 20 19  1  0  0  0
 19  1  1  0  0  0
  1  2  1  0  0  0
  1  5  2  0  0  0
  2  3  1  0  0  0
  3  4  2  0  0  0
  3  6  1  0  0  0
  4  5  1  0  0  0
  6  7  1  0  0  0
  6 10  2  0  0  0
  7  8  2  0  0  0
  8  9  1  0  0  0
  8 11  1  0  0  0
  9 10  1  0  0  0
 11 12  2  0  0  0
 12 13  1  0  0  0
 12 14  1  0  0  0
 25 31  1  0  0  0
 20 21  1  0  0  0
 13 15  1  0  0  0
 13 16  1  0  0  0
 14 17  1  0  0  0
 14 18  1  0  0  0
M  END
> <minimizedAffinity>
-7.80654

$$$$
1NDV_FR0_A_1001


 31 34  0  0  0  0  0  0  0  0999 V2000
   49.5011   56.8930   21.1540 C   0  0  0  0  0  0  0  0  0  0  0  0
   49.1412   56.7824   19.4778 S   0  0  0  0  0  0  0  0  0  0  0  0
   48.1150   58.2706   19.5343 C   0  0  0  0  0  0  0  0  0  0  0  0
   48.1588   58.8612   20.8678 C   0  0  0  0  0  0  0  0  0  0  0  0
   48.9516   58.0662   21.7807 C   0  0  0  0  0  0  0  0  0  0  0  0
   47.4041   58.9301   18.5823 C   0  0  0  0  0  0  0  0  0  0  0  0
   46.0614   59.1478   19.2039 N   0  0  0  0  0  0  0  0  0  0  0  0
   45.1280   59.9283   18.6006 C   0  0  0  0  0  0  0  0  0  0  0  0
   45.7914   60.2770   17.0243 S   0  0  0  0  0  0  0  0  0  0  0  0
   47.2316   59.4723   17.3817 C   0  0  0  0  0  0  0  0  0  0  0  0
   43.8090   60.1135   18.9149 N   0  0  0  0  0  0  0  0  0  0  0  0
   43.1443   59.3601   19.8349 C   0  0  0  0  0  0  0  0  0  0  0  0
   43.7548   58.9625   20.9159 N   0  0  0  0  0  0  0  0  0  0  0  0
   41.8880   58.9518   19.6768 N   0  0  0  0  0  0  0  0  0  0  0  0
   44.6858   59.2349   21.0840 H   0  0  0  0  0  0  0  0  0  0  0  0
   43.2848   58.3898   21.5643 H   0  0  0  0  0  0  0  0  0  0  0  0
   41.3793   59.2224   18.8786 H   0  0  0  0  0  0  0  0  0  0  0  0
   41.4671   58.3792   20.3581 H   0  0  0  0  0  0  0  0  0  0  0  0
   50.2777   55.9214   21.9466 C   0  0  0  0  0  0  0  0  0  0  0  0
   51.0100   55.0876   20.9995 N   0  0  0  0  0  0  0  0  0  0  0  0
   51.8079   55.4574   20.5571 H   0  0  0  0  0  0  0  0  0  0  0  0
   49.9963   53.3115   19.5481 N   0  0  0  0  0  0  0  0  0  0  0  0
   49.9572   51.9339   19.5414 C   0  0  0  0  0  0  0  0  0  0  0  0
   50.5608   51.5218   20.7657 C   0  0  0  0  0  0  0  0  0  0  0  0
   50.9156   52.6768   21.4344 N   0  0  0  0  0  0  0  0  0  0  0  0
   50.5912   53.7013   20.6818 C   0  0  0  0  0  0  0  0  0  0  0  0
   49.5105   50.9757   18.6146 C   0  0  0  0  0  0  0  0  0  0  0  0
   49.6728   49.6088   18.9578 C   0  0  0  0  0  0  0  0  0  0  0  0
   50.2825   49.2008   20.1787 C   0  0  0  0  0  0  0  0  0  0  0  0
   50.7256   50.1580   21.0882 C   0  0  0  0  0  0  0  0  0  0  0  0
   51.3386   52.7233   22.3222 H   0  0  0  0  0  0  0  0  0  0  0  0
 22 23  1  0  0  0
 22 26  2  0  0  0
 23 24  2  0  0  0
 23 27  1  0  0  0
 24 25  1  0  0  0
 24 30  1  0  0  0
 25 26  1  0  0  0
 26 20  1  0  0  0
 27 28  2  0  0  0
 28 29  1  0  0  0
 29 30  2  0  0  0
 20 19  1  0  0  0
 19  1  1  0  0  0
  1  2  1  0  0  0
  1  5  2  0  0  0
  2  3  1  0  0  0
  3  4  2  0  0  0
  3  6  1  0  0  0
  4  5  1  0  0  0
  6  7  1  0  0  0
  6 10  2  0  0  0
  7  8  2  0  0  0
  8  9  1  0  0  0
  8 11  1  0  0  0
  9 10  1  0  0  0
 11 12  2  0  0  0
 12 13  1  0  0  0
 12 14  1  0  0  0
 25 31  1  0  0  0
 20 21  1  0  0  0
 13 15  1  0  0  0
 13 16  1  0  0  0
 14 17  1  0  0  0
 14 18  1  0  0  0
M  END
> <minimizedAffinity>
-7.74465

$$$$
1NDV_FR0_A_1001


 31 34  0  0  0  0  0  0  0  0999 V2000
   49.3909   55.6854   21.4190 C   0  0  0  0  0  0  0  0  0  0  0  0
   48.9420   54.3674   20.4127 S   0  0  0  0  0  0  0  0  0  0  0  0
   50.3182   53.3581   21.0115 C   0  0  0  0  0  0  0  0  0  0  0  0
   51.0442   54.0685   22.0591 C   0  0  0  0  0  0  0  0  0  0  0  0
   50.5057   55.3932   22.2809 C   0  0  0  0  0  0  0  0  0  0  0  0
   50.7267   52.0966   20.7143 C   0  0  0  0  0  0  0  0  0  0  0  0
   49.8625   51.6864   19.5647 N   0  0  0  0  0  0  0  0  0  0  0  0
   50.0976   50.5327   18.8879 C   0  0  0  0  0  0  0  0  0  0  0  0
   51.3229   49.7115   19.8210 S   0  0  0  0  0  0  0  0  0  0  0  0
   51.4598   51.0040   20.8982 C   0  0  0  0  0  0  0  0  0  0  0  0
   49.3380   49.9080   17.9362 N   0  0  0  0  0  0  0  0  0  0  0  0
   49.4436   50.1677   16.6030 C   0  0  0  0  0  0  0  0  0  0  0  0
   50.6108   50.4131   16.0769 N   0  0  0  0  0  0  0  0  0  0  0  0
   48.3964   50.2350   15.7852 N   0  0  0  0  0  0  0  0  0  0  0  0
   51.4202   50.3774   16.6362 H   0  0  0  0  0  0  0  0  0  0  0  0
   50.6829   50.6342   15.1203 H   0  0  0  0  0  0  0  0  0  0  0  0
   47.4910   50.0589   16.1293 H   0  0  0  0  0  0  0  0  0  0  0  0
   48.5269   50.4609   14.8359 H   0  0  0  0  0  0  0  0  0  0  0  0
   48.7568   57.0168   21.4492 C   0  0  0  0  0  0  0  0  0  0  0  0
   48.4732   57.3849   20.0663 N   0  0  0  0  0  0  0  0  0  0  0  0
   49.1661   57.2378   19.3825 H   0  0  0  0  0  0  0  0  0  0  0  0
   46.7398   58.0912   18.3974 N   0  0  0  0  0  0  0  0  0  0  0  0
   45.4205   58.4875   18.4397 C   0  0  0  0  0  0  0  0  0  0  0  0
   45.0969   58.6148   19.8225 C   0  0  0  0  0  0  0  0  0  0  0  0
   46.2437   58.2964   20.5230 N   0  0  0  0  0  0  0  0  0  0  0  0
   47.1753   57.9734   19.6575 C   0  0  0  0  0  0  0  0  0  0  0  0
   44.4403   58.7196   17.4590 C   0  0  0  0  0  0  0  0  0  0  0  0
   43.1460   59.0933   17.9038 C   0  0  0  0  0  0  0  0  0  0  0  0
   42.8244   59.2127   19.2863 C   0  0  0  0  0  0  0  0  0  0  0  0
   43.8017   58.9764   20.2500 C   0  0  0  0  0  0  0  0  0  0  0  0
   46.3446   58.3095   21.5022 H   0  0  0  0  0  0  0  0  0  0  0  0
 22 23  1  0  0  0
 22 26  2  0  0  0
 23 24  2  0  0  0
 23 27  1  0  0  0
 24 25  1  0  0  0
 24 30  1  0  0  0
 25 26  1  0  0  0
 26 20  1  0  0  0
 27 28  2  0  0  0
 28 29  1  0  0  0
 29 30  2  0  0  0
 20 19  1  0  0  0
 19  1  1  0  0  0
  1  2  1  0  0  0
  1  5  2  0  0  0
  2  3  1  0  0  0
  3  4  2  0  0  0
  3  6  1  0  0  0
  4  5  1  0  0  0
  6  7  1  0  0  0
  6 10  2  0  0  0
  7  8  2  0  0  0
  8  9  1  0  0  0
  8 11  1  0  0  0
  9 10  1  0  0  0
 11 12  2  0  0  0
 12 13  1  0  0  0
 12 14  1  0  0  0
 25 31  1  0  0  0
 20 21  1  0  0  0
 13 15  1  0  0  0
 13 16  1  0  0  0
 14 17  1  0  0  0
 14 18  1  0  0  0
M  END
> <minimizedAffinity>
-7.74170

$$$$
