5F61_5W0_A_203


 40 43  0  0  0  0  0  0  0  0999 V2000
   -3.8059  -11.2616   -6.0954 C   0  0  0  0  0  0  0  0  0  0  0  0
   -4.3073   -9.8373   -4.3246 C   0  0  0  0  0  0  0  0  0  0  0  0
   -2.4591   -8.5373   -3.2170 C   0  0  0  0  0  0  0  0  0  0  0  0
   -4.6887  -10.7244   -5.2575 N   0  0  0  0  0  0  0  0  0  0  0  0
   -2.9375   -9.5231   -4.2659 C   0  0  0  0  0  0  0  0  0  0  0  0
   -2.0485  -10.1256   -5.1919 C   0  0  0  0  0  0  0  0  0  0  0  0
   -2.5068  -10.9768   -6.1116 N   0  0  0  0  0  0  0  0  0  0  0  0
   -4.3703  -12.1869   -6.9955 N   0  0  0  0  0  0  0  0  0  0  0  0
   -5.3436  -12.3149   -6.9218 H   0  0  0  0  0  0  0  0  0  0  0  0
   -4.5074  -13.9054   -8.6534 C   0  0  0  0  0  0  0  0  0  0  0  0
   -2.6515  -14.5677  -10.0368 C   0  0  0  0  0  0  0  0  0  0  0  0
   -3.9768  -14.6971   -9.6646 C   0  0  0  0  0  0  0  0  0  0  0  0
   -3.7181  -12.9639   -8.0006 C   0  0  0  0  0  0  0  0  0  0  0  0
   -2.3929  -12.8297   -8.3653 C   0  0  0  0  0  0  0  0  0  0  0  0
   -1.8691  -13.6281   -9.3717 C   0  0  0  0  0  0  0  0  0  0  0  0
   -0.5777  -13.4893   -9.6734 F   0  0  0  0  0  0  0  0  0  0  0  0
   -1.1365  -17.4416  -14.4270 C   0  0  0  0  0  0  0  0  0  0  0  0
   -1.7538  -16.7667  -13.5452 N   0  0  0  0  0  0  0  0  0  0  0  0
   -1.3860  -15.4176  -13.4462 C   0  0  0  0  0  0  0  0  0  0  0  0
   -2.1508  -14.7234  -12.3392 C   0  0  0  0  0  0  0  0  0  0  0  0
   -2.0671  -15.3322  -11.0933 N   0  0  0  0  0  0  0  0  0  0  0  0
   -2.4355  -16.6677  -11.2172 C   0  0  0  0  0  0  0  0  0  0  0  0
   -1.6598  -17.3837  -12.3005 C   0  0  0  0  0  0  0  0  0  0  0  0
   -0.6784   -9.8181   -5.1655 N   0  0  0  0  0  0  0  0  0  0  0  0
   -0.3517   -9.1928   -4.4789 H   0  0  0  0  0  0  0  0  0  0  0  0
    0.2601  -10.3667   -6.0832 C   0  0  0  0  0  0  0  0  0  0  0  0
    0.4092  -11.7283   -6.2549 C   0  0  0  0  0  0  0  0  0  0  0  0
    1.3560  -12.1937   -7.1425 C   0  0  0  0  0  0  0  0  0  0  0  0
    2.0201   -9.9510   -7.6724 C   0  0  0  0  0  0  0  0  0  0  0  0
    2.1551  -11.3161   -7.8508 C   0  0  0  0  0  0  0  0  0  0  0  0
    1.0771   -9.4726   -6.7843 C   0  0  0  0  0  0  0  0  0  0  0  0
    2.9123   -9.1174   -8.4183 N   0  0  0  0  0  0  0  0  0  0  0  0
    3.7235   -9.5471   -8.7742 H   0  0  0  0  0  0  0  0  0  0  0  0
    2.7250   -7.5262   -8.7411 S   0  0  0  0  0  0  0  0  0  0  0  0
    1.3468   -7.1917   -8.8997 O   0  0  0  0  0  0  0  0  0  0  0  0
    3.5048   -7.2696   -9.9060 O   0  0  0  0  0  0  0  0  0  0  0  0
    3.4209   -6.5723   -7.3992 C   0  0  0  0  0  0  0  0  0  0  0  0
    2.2992   -6.1285   -6.4744 C   0  0  0  0  0  0  0  0  0  0  0  0
    4.4363   -7.4028   -6.6359 C   0  0  0  0  0  0  0  0  0  0  0  0
    4.0886   -5.3653   -8.0404 C   0  0  0  0  0  0  0  0  0  0  0  0
 10 12  2  0  0  0
 10 13  1  0  0  0
  8  1  1  0  0  0
  8 13  1  0  0  0
  1  4  2  0  0  0
  1  7  1  0  0  0
  2  4  1  0  0  0
  2  5  2  0  0  0
  3  5  1  0  0  0
 26 27  2  0  0  0
 26 24  1  0  0  0
 26 31  1  0  0  0
 27 28  1  0  0  0
 28 30  2  0  0  0
 29 30  1  0  0  0
 29 32  1  0  0  0
 29 31  2  0  0  0
 17 18  1  0  0  0
 18 19  1  0  0  0
 18 23  1  0  0  0
 19 20  1  0  0  0
 20 21  1  0  0  0
 21 22  1  0  0  0
 21 11  1  0  0  0
 22 23  1  0  0  0
 11 12  1  0  0  0
 11 15  2  0  0  0
 13 14  2  0  0  0
  5  6  1  0  0  0
  6 24  1  0  0  0
  6  7  2  0  0  0
 32 34  1  0  0  0
 34 35  2  0  0  0
 34 36  2  0  0  0
 34 37  1  0  0  0
 37 38  1  0  0  0
 37 39  1  0  0  0
 37 40  1  0  0  0
 14 15  1  0  0  0
 15 16  1  0  0  0
  8  9  1  0  0  0
 24 25  1  0  0  0
 32 33  1  0  0  0
M  END
> <minimizedAffinity>
-9.42312

$$$$
5F61_5W0_A_203


 40 43  0  0  0  0  0  0  0  0999 V2000
   -3.8018  -11.1653   -6.3158 C   0  0  0  0  0  0  0  0  0  0  0  0
   -4.3365   -9.9141   -4.4279 C   0  0  0  0  0  0  0  0  0  0  0  0
   -2.5182   -8.6791   -3.2027 C   0  0  0  0  0  0  0  0  0  0  0  0
   -4.6974  -10.7229   -5.4371 N   0  0  0  0  0  0  0  0  0  0  0  0
   -2.9738   -9.5779   -4.3365 C   0  0  0  0  0  0  0  0  0  0  0  0
   -2.0705  -10.0775   -5.3088 C   0  0  0  0  0  0  0  0  0  0  0  0
   -2.5090  -10.8533   -6.3019 N   0  0  0  0  0  0  0  0  0  0  0  0
   -4.3448  -12.0190   -7.2964 N   0  0  0  0  0  0  0  0  0  0  0  0
   -5.1716  -11.7026   -7.7273 H   0  0  0  0  0  0  0  0  0  0  0  0
   -2.7957  -13.8211   -7.0259 C   0  0  0  0  0  0  0  0  0  0  0  0
   -2.7679  -15.7719   -8.4366 C   0  0  0  0  0  0  0  0  0  0  0  0
   -2.2604  -15.0570   -7.3674 C   0  0  0  0  0  0  0  0  0  0  0  0
   -3.8555  -13.2820   -7.7484 C   0  0  0  0  0  0  0  0  0  0  0  0
   -4.3669  -13.9890   -8.8188 C   0  0  0  0  0  0  0  0  0  0  0  0
   -3.8229  -15.2196   -9.1571 C   0  0  0  0  0  0  0  0  0  0  0  0
   -4.3245  -15.8567  -10.2157 F   0  0  0  0  0  0  0  0  0  0  0  0
   -0.7649  -20.8136   -9.0680 C   0  0  0  0  0  0  0  0  0  0  0  0
   -1.1742  -19.6927   -8.6317 N   0  0  0  0  0  0  0  0  0  0  0  0
   -2.5609  -19.4930   -8.6794 C   0  0  0  0  0  0  0  0  0  0  0  0
   -2.9311  -18.1133   -8.1774 C   0  0  0  0  0  0  0  0  0  0  0  0
   -2.2767  -17.0618   -8.8069 N   0  0  0  0  0  0  0  0  0  0  0  0
   -0.9047  -17.2827   -8.7473 C   0  0  0  0  0  0  0  0  0  0  0  0
   -0.5151  -18.6467   -9.2721 C   0  0  0  0  0  0  0  0  0  0  0  0
   -0.7072   -9.7451   -5.2501 N   0  0  0  0  0  0  0  0  0  0  0  0
   -0.4089   -9.1107   -4.5589 H   0  0  0  0  0  0  0  0  0  0  0  0
    0.2636  -10.2809   -6.1415 C   0  0  0  0  0  0  0  0  0  0  0  0
    0.4073  -11.6395   -6.3398 C   0  0  0  0  0  0  0  0  0  0  0  0
    1.3858  -12.0930   -7.1987 C   0  0  0  0  0  0  0  0  0  0  0  0
    2.0914   -9.8451   -7.6463 C   0  0  0  0  0  0  0  0  0  0  0  0
    2.2214  -11.2068   -7.8520 C   0  0  0  0  0  0  0  0  0  0  0  0
    1.1169   -9.3786   -6.7864 C   0  0  0  0  0  0  0  0  0  0  0  0
    3.0213   -9.0029   -8.3344 N   0  0  0  0  0  0  0  0  0  0  0  0
    3.8808   -9.4102   -8.5884 H   0  0  0  0  0  0  0  0  0  0  0  0
    2.8049   -7.4352   -8.7427 S   0  0  0  0  0  0  0  0  0  0  0  0
    1.4187   -7.1261   -8.8826 O   0  0  0  0  0  0  0  0  0  0  0  0
    3.5501   -7.2374   -9.9412 O   0  0  0  0  0  0  0  0  0  0  0  0
    3.5237   -6.3977   -7.4771 C   0  0  0  0  0  0  0  0  0  0  0  0
    4.0881   -5.1446   -8.1267 C   0  0  0  0  0  0  0  0  0  0  0  0
    2.4764   -6.0294   -6.4423 C   0  0  0  0  0  0  0  0  0  0  0  0
    4.6392   -7.2152   -6.8437 C   0  0  0  0  0  0  0  0  0  0  0  0
 10 12  2  0  0  0
 10 13  1  0  0  0
  8  1  1  0  0  0
  8 13  1  0  0  0
  1  4  2  0  0  0
  1  7  1  0  0  0
  2  4  1  0  0  0
  2  5  2  0  0  0
  3  5  1  0  0  0
 26 27  2  0  0  0
 26 24  1  0  0  0
 26 31  1  0  0  0
 27 28  1  0  0  0
 28 30  2  0  0  0
 29 30  1  0  0  0
 29 32  1  0  0  0
 29 31  2  0  0  0
 17 18  1  0  0  0
 18 19  1  0  0  0
 18 23  1  0  0  0
 19 20  1  0  0  0
 20 21  1  0  0  0
 21 22  1  0  0  0
 21 11  1  0  0  0
 22 23  1  0  0  0
 11 12  1  0  0  0
 11 15  2  0  0  0
 13 14  2  0  0  0
  5  6  1  0  0  0
  6 24  1  0  0  0
  6  7  2  0  0  0
 32 34  1  0  0  0
 34 35  2  0  0  0
 34 36  2  0  0  0
 34 37  1  0  0  0
 37 38  1  0  0  0
 37 39  1  0  0  0
 37 40  1  0  0  0
 14 15  1  0  0  0
 15 16  1  0  0  0
  8  9  1  0  0  0
 24 25  1  0  0  0
 32 33  1  0  0  0
M  END
> <minimizedAffinity>
-9.20875

$$$$
5F61_5W0_A_203


 40 43  0  0  0  0  0  0  0  0999 V2000
   -0.0178   -9.5880   -6.5182 C   0  0  0  0  0  0  0  0  0  0  0  0
   -2.2138  -10.3403   -6.6834 C   0  0  0  0  0  0  0  0  0  0  0  0
   -2.6656  -12.6817   -7.4873 C   0  0  0  0  0  0  0  0  0  0  0  0
   -1.3254   -9.3755   -6.3956 N   0  0  0  0  0  0  0  0  0  0  0  0
   -1.6976  -11.5681   -7.1354 C   0  0  0  0  0  0  0  0  0  0  0  0
   -0.2929  -11.7329   -7.2385 C   0  0  0  0  0  0  0  0  0  0  0  0
    0.5298  -10.7366   -6.9054 N   0  0  0  0  0  0  0  0  0  0  0  0
    0.7707   -8.4658   -6.1958 N   0  0  0  0  0  0  0  0  0  0  0  0
    0.7447   -8.1824   -5.2533 H   0  0  0  0  0  0  0  0  0  0  0  0
    2.2163   -6.5804   -6.4718 C   0  0  0  0  0  0  0  0  0  0  0  0
    3.3108   -6.0381   -8.5465 C   0  0  0  0  0  0  0  0  0  0  0  0
    3.0651   -5.7675   -7.2130 C   0  0  0  0  0  0  0  0  0  0  0  0
    1.6025   -7.6847   -7.0543 C   0  0  0  0  0  0  0  0  0  0  0  0
    1.8414   -7.9608   -8.3862 C   0  0  0  0  0  0  0  0  0  0  0  0
    2.6853   -7.1408   -9.1211 C   0  0  0  0  0  0  0  0  0  0  0  0
    2.8661   -7.4234  -10.4117 F   0  0  0  0  0  0  0  0  0  0  0  0
    6.9939   -2.7588  -10.8937 C   0  0  0  0  0  0  0  0  0  0  0  0
    6.2456   -3.4037  -10.0948 N   0  0  0  0  0  0  0  0  0  0  0  0
    6.5193   -4.7738   -9.9799 C   0  0  0  0  0  0  0  0  0  0  0  0
    5.5436   -5.4481   -9.0388 C   0  0  0  0  0  0  0  0  0  0  0  0
    4.2019   -5.2546   -9.3429 N   0  0  0  0  0  0  0  0  0  0  0  0
    3.9554   -3.8900   -9.4523 C   0  0  0  0  0  0  0  0  0  0  0  0
    4.9042   -3.2060  -10.4113 C   0  0  0  0  0  0  0  0  0  0  0  0
    0.2499  -12.9533   -7.6725 N   0  0  0  0  0  0  0  0  0  0  0  0
    0.5316  -13.0329   -8.6125 H   0  0  0  0  0  0  0  0  0  0  0  0
    0.4124  -14.0801   -6.8194 C   0  0  0  0  0  0  0  0  0  0  0  0
    1.1655  -14.0233   -5.6637 C   0  0  0  0  0  0  0  0  0  0  0  0
    1.3031  -15.1597   -4.8953 C   0  0  0  0  0  0  0  0  0  0  0  0
   -0.0396  -16.4135   -6.4369 C   0  0  0  0  0  0  0  0  0  0  0  0
    0.7043  -16.3469   -5.2726 C   0  0  0  0  0  0  0  0  0  0  0  0
   -0.1827  -15.2828   -7.2164 C   0  0  0  0  0  0  0  0  0  0  0  0
   -0.5932  -17.6903   -6.7697 N   0  0  0  0  0  0  0  0  0  0  0  0
   -0.0103  -18.3072   -7.2687 H   0  0  0  0  0  0  0  0  0  0  0  0
   -2.0925  -18.2311   -6.4078 S   0  0  0  0  0  0  0  0  0  0  0  0
   -2.5958  -17.6033   -5.2293 O   0  0  0  0  0  0  0  0  0  0  0  0
   -1.9784  -19.6466   -6.2873 O   0  0  0  0  0  0  0  0  0  0  0  0
   -3.1843  -17.8879   -7.7807 C   0  0  0  0  0  0  0  0  0  0  0  0
   -2.3515  -17.6873   -9.0365 C   0  0  0  0  0  0  0  0  0  0  0  0
   -4.1618  -19.0327   -7.9734 C   0  0  0  0  0  0  0  0  0  0  0  0
   -3.9225  -16.6067   -7.4235 C   0  0  0  0  0  0  0  0  0  0  0  0
 10 12  2  0  0  0
 10 13  1  0  0  0
  8  1  1  0  0  0
  8 13  1  0  0  0
  1  4  2  0  0  0
  1  7  1  0  0  0
  2  4  1  0  0  0
  2  5  2  0  0  0
  3  5  1  0  0  0
 26 27  2  0  0  0
 26 24  1  0  0  0
 26 31  1  0  0  0
 27 28  1  0  0  0
 28 30  2  0  0  0
 29 30  1  0  0  0
 29 32  1  0  0  0
 29 31  2  0  0  0
 17 18  1  0  0  0
 18 19  1  0  0  0
 18 23  1  0  0  0
 19 20  1  0  0  0
 20 21  1  0  0  0
 21 22  1  0  0  0
 21 11  1  0  0  0
 22 23  1  0  0  0
 11 12  1  0  0  0
 11 15  2  0  0  0
 13 14  2  0  0  0
  5  6  1  0  0  0
  6 24  1  0  0  0
  6  7  2  0  0  0
 32 34  1  0  0  0
 34 35  2  0  0  0
 34 36  2  0  0  0
 34 37  1  0  0  0
 37 38  1  0  0  0
 37 39  1  0  0  0
 37 40  1  0  0  0
 14 15  1  0  0  0
 15 16  1  0  0  0
  8  9  1  0  0  0
 24 25  1  0  0  0
 32 33  1  0  0  0
M  END
> <minimizedAffinity>
-8.94201

$$$$
5F61_5W0_A_203


 40 43  0  0  0  0  0  0  0  0999 V2000
    0.4669  -10.3442   -6.4220 C   0  0  0  0  0  0  0  0  0  0  0  0
   -1.5750   -9.9124   -5.3925 C   0  0  0  0  0  0  0  0  0  0  0  0
   -3.6101  -11.2262   -6.0742 C   0  0  0  0  0  0  0  0  0  0  0  0
   -0.2658   -9.6585   -5.5485 N   0  0  0  0  0  0  0  0  0  0  0  0
   -2.1310  -10.9165   -6.2055 C   0  0  0  0  0  0  0  0  0  0  0  0
   -1.2946  -11.6151   -7.1128 C   0  0  0  0  0  0  0  0  0  0  0  0
    0.0059  -11.3269   -7.1906 N   0  0  0  0  0  0  0  0  0  0  0  0
    1.8146   -9.9368   -6.4734 N   0  0  0  0  0  0  0  0  0  0  0  0
    2.4361  -10.4449   -5.9035 H   0  0  0  0  0  0  0  0  0  0  0  0
    3.1390   -7.9460   -6.5307 C   0  0  0  0  0  0  0  0  0  0  0  0
    3.6679   -6.7602   -8.5582 C   0  0  0  0  0  0  0  0  0  0  0  0
    3.7696   -6.8954   -7.1859 C   0  0  0  0  0  0  0  0  0  0  0  0
    2.3990   -8.8849   -7.2423 C   0  0  0  0  0  0  0  0  0  0  0  0
    2.2912   -8.7560   -8.6131 C   0  0  0  0  0  0  0  0  0  0  0  0
    2.9187   -7.7008   -9.2591 C   0  0  0  0  0  0  0  0  0  0  0  0
    2.7652   -7.5941  -10.5794 F   0  0  0  0  0  0  0  0  0  0  0  0
    6.4796   -2.5563  -10.6198 C   0  0  0  0  0  0  0  0  0  0  0  0
    5.9392   -3.4373   -9.8808 N   0  0  0  0  0  0  0  0  0  0  0  0
    6.4486   -4.7364  -10.0143 C   0  0  0  0  0  0  0  0  0  0  0  0
    5.7053   -5.7082   -9.1223 C   0  0  0  0  0  0  0  0  0  0  0  0
    4.3255   -5.7190   -9.2833 N   0  0  0  0  0  0  0  0  0  0  0  0
    3.8444   -4.4210   -9.1475 C   0  0  0  0  0  0  0  0  0  0  0  0
    4.5576   -3.4420  -10.0533 C   0  0  0  0  0  0  0  0  0  0  0  0
   -1.8204  -12.6327   -7.9255 N   0  0  0  0  0  0  0  0  0  0  0  0
   -2.0514  -12.4155   -8.8576 H   0  0  0  0  0  0  0  0  0  0  0  0
   -2.0354  -13.9621   -7.4669 C   0  0  0  0  0  0  0  0  0  0  0  0
   -1.0169  -14.7303   -6.9392 C   0  0  0  0  0  0  0  0  0  0  0  0
   -1.2883  -16.0208   -6.5371 C   0  0  0  0  0  0  0  0  0  0  0  0
   -3.5803  -15.7896   -7.2040 C   0  0  0  0  0  0  0  0  0  0  0  0
   -2.5591  -16.5497   -6.6629 C   0  0  0  0  0  0  0  0  0  0  0  0
   -3.3204  -14.4965   -7.6129 C   0  0  0  0  0  0  0  0  0  0  0  0
   -4.8545  -16.4281   -7.3307 N   0  0  0  0  0  0  0  0  0  0  0  0
   -5.4434  -16.3976   -6.5424 H   0  0  0  0  0  0  0  0  0  0  0  0
   -5.4339  -17.2030   -8.6480 S   0  0  0  0  0  0  0  0  0  0  0  0
   -5.9451  -18.4904   -8.3047 O   0  0  0  0  0  0  0  0  0  0  0  0
   -4.3543  -17.2547   -9.5769 O   0  0  0  0  0  0  0  0  0  0  0  0
   -6.7346  -16.2189   -9.3792 C   0  0  0  0  0  0  0  0  0  0  0  0
   -6.1726  -14.8576   -9.7553 C   0  0  0  0  0  0  0  0  0  0  0  0
   -7.2940  -16.9158  -10.6059 C   0  0  0  0  0  0  0  0  0  0  0  0
   -7.8064  -16.0732   -8.3097 C   0  0  0  0  0  0  0  0  0  0  0  0
 10 12  2  0  0  0
 10 13  1  0  0  0
  8  1  1  0  0  0
  8 13  1  0  0  0
  1  4  2  0  0  0
  1  7  1  0  0  0
  2  4  1  0  0  0
  2  5  2  0  0  0
  3  5  1  0  0  0
 26 27  2  0  0  0
 26 24  1  0  0  0
 26 31  1  0  0  0
 27 28  1  0  0  0
 28 30  2  0  0  0
 29 30  1  0  0  0
 29 32  1  0  0  0
 29 31  2  0  0  0
 17 18  1  0  0  0
 18 19  1  0  0  0
 18 23  1  0  0  0
 19 20  1  0  0  0
 20 21  1  0  0  0
 21 22  1  0  0  0
 21 11  1  0  0  0
 22 23  1  0  0  0
 11 12  1  0  0  0
 11 15  2  0  0  0
 13 14  2  0  0  0
  5  6  1  0  0  0
  6 24  1  0  0  0
  6  7  2  0  0  0
 32 34  1  0  0  0
 34 35  2  0  0  0
 34 36  2  0  0  0
 34 37  1  0  0  0
 37 38  1  0  0  0
 37 39  1  0  0  0
 37 40  1  0  0  0
 14 15  1  0  0  0
 15 16  1  0  0  0
  8  9  1  0  0  0
 24 25  1  0  0  0
 32 33  1  0  0  0
M  END
> <minimizedAffinity>
-8.82515

$$$$
5F61_5W0_A_203


 40 43  0  0  0  0  0  0  0  0999 V2000
    0.0416  -14.0936   -7.5196 C   0  0  0  0  0  0  0  0  0  0  0  0
    1.5892  -15.2025   -6.1815 C   0  0  0  0  0  0  0  0  0  0  0  0
    3.8058  -15.8878   -7.1561 C   0  0  0  0  0  0  0  0  0  0  0  0
    0.3885  -14.6260   -6.3508 N   0  0  0  0  0  0  0  0  0  0  0  0
    2.4452  -15.2322   -7.2972 C   0  0  0  0  0  0  0  0  0  0  0  0
    2.0181  -14.6415   -8.5136 C   0  0  0  0  0  0  0  0  0  0  0  0
    0.8203  -14.0596   -8.5973 N   0  0  0  0  0  0  0  0  0  0  0  0
   -1.2581  -13.5496   -7.5303 N   0  0  0  0  0  0  0  0  0  0  0  0
   -1.9007  -13.9914   -8.1312 H   0  0  0  0  0  0  0  0  0  0  0  0
   -3.1114  -12.5088   -6.4338 C   0  0  0  0  0  0  0  0  0  0  0  0
   -2.9612  -10.3976   -5.2863 C   0  0  0  0  0  0  0  0  0  0  0  0
   -3.7002  -11.4950   -5.6880 C   0  0  0  0  0  0  0  0  0  0  0  0
   -1.7670  -12.4427   -6.7855 C   0  0  0  0  0  0  0  0  0  0  0  0
   -1.0224  -11.3490   -6.3896 C   0  0  0  0  0  0  0  0  0  0  0  0
   -1.6191  -10.3381   -5.6503 C   0  0  0  0  0  0  0  0  0  0  0  0
   -0.8741   -9.2846   -5.3137 F   0  0  0  0  0  0  0  0  0  0  0  0
   -4.8887   -6.8473   -1.6108 C   0  0  0  0  0  0  0  0  0  0  0  0
   -4.3871   -7.8410   -2.2236 N   0  0  0  0  0  0  0  0  0  0  0  0
   -3.1182   -7.6318   -2.7815 C   0  0  0  0  0  0  0  0  0  0  0  0
   -2.6380   -8.8624   -3.5214 C   0  0  0  0  0  0  0  0  0  0  0  0
   -3.5097   -9.3461   -4.4890 N   0  0  0  0  0  0  0  0  0  0  0  0
   -4.7599   -9.5446   -3.9125 C   0  0  0  0  0  0  0  0  0  0  0  0
   -5.2670   -8.3145   -3.1931 C   0  0  0  0  0  0  0  0  0  0  0  0
    2.8587  -14.6436   -9.6387 N   0  0  0  0  0  0  0  0  0  0  0  0
    2.9369  -15.4728  -10.1636 H   0  0  0  0  0  0  0  0  0  0  0  0
    3.6026  -13.5052  -10.0565 C   0  0  0  0  0  0  0  0  0  0  0  0
    4.2935  -13.4779  -11.2514 C   0  0  0  0  0  0  0  0  0  0  0  0
    5.0158  -12.3516  -11.5839 C   0  0  0  0  0  0  0  0  0  0  0  0
    4.3808  -11.2887   -9.5300 C   0  0  0  0  0  0  0  0  0  0  0  0
    5.0594  -11.2616  -10.7351 C   0  0  0  0  0  0  0  0  0  0  0  0
    3.6558  -12.4120   -9.1845 C   0  0  0  0  0  0  0  0  0  0  0  0
    4.5102  -10.1324   -8.6973 N   0  0  0  0  0  0  0  0  0  0  0  0
    5.1131  -10.2117   -7.9230 H   0  0  0  0  0  0  0  0  0  0  0  0
    3.7612   -8.6935   -8.8976 S   0  0  0  0  0  0  0  0  0  0  0  0
    3.0059   -8.6703  -10.1082 O   0  0  0  0  0  0  0  0  0  0  0  0
    4.7904   -7.7086   -8.8566 O   0  0  0  0  0  0  0  0  0  0  0  0
    2.6739   -8.4029   -7.5091 C   0  0  0  0  0  0  0  0  0  0  0  0
    1.5067   -7.5432   -7.9666 C   0  0  0  0  0  0  0  0  0  0  0  0
    2.1709   -9.7215   -6.9509 C   0  0  0  0  0  0  0  0  0  0  0  0
    3.5030   -7.6624   -6.4708 C   0  0  0  0  0  0  0  0  0  0  0  0
 10 12  2  0  0  0
 10 13  1  0  0  0
  8  1  1  0  0  0
  8 13  1  0  0  0
  1  4  2  0  0  0
  1  7  1  0  0  0
  2  4  1  0  0  0
  2  5  2  0  0  0
  3  5  1  0  0  0
 26 27  2  0  0  0
 26 24  1  0  0  0
 26 31  1  0  0  0
 27 28  1  0  0  0
 28 30  2  0  0  0
 29 30  1  0  0  0
 29 32  1  0  0  0
 29 31  2  0  0  0
 17 18  1  0  0  0
 18 19  1  0  0  0
 18 23  1  0  0  0
 19 20  1  0  0  0
 20 21  1  0  0  0
 21 22  1  0  0  0
 21 11  1  0  0  0
 22 23  1  0  0  0
 11 12  1  0  0  0
 11 15  2  0  0  0
 13 14  2  0  0  0
  5  6  1  0  0  0
  6 24  1  0  0  0
  6  7  2  0  0  0
 32 34  1  0  0  0
 34 35  2  0  0  0
 34 36  2  0  0  0
 34 37  1  0  0  0
 37 38  1  0  0  0
 37 39  1  0  0  0
 37 40  1  0  0  0
 14 15  1  0  0  0
 15 16  1  0  0  0
  8  9  1  0  0  0
 24 25  1  0  0  0
 32 33  1  0  0  0
M  END
> <minimizedAffinity>
-8.70305

$$$$
5F61_5W0_A_203


 40 43  0  0  0  0  0  0  0  0999 V2000
    2.2620   -7.3582   -7.1334 C   0  0  0  0  0  0  0  0  0  0  0  0
    2.9103   -5.9736   -8.8878 C   0  0  0  0  0  0  0  0  0  0  0  0
    5.2372   -5.0157   -8.9171 C   0  0  0  0  0  0  0  0  0  0  0  0
    1.9858   -6.7274   -8.2717 N   0  0  0  0  0  0  0  0  0  0  0  0
    4.1669   -5.8698   -8.2644 C   0  0  0  0  0  0  0  0  0  0  0  0
    4.4000   -6.5721   -7.0547 C   0  0  0  0  0  0  0  0  0  0  0  0
    3.4401   -7.3270   -6.5169 N   0  0  0  0  0  0  0  0  0  0  0  0
    1.1749   -8.0871   -6.6119 N   0  0  0  0  0  0  0  0  0  0  0  0
    0.4833   -7.5548   -6.1563 H   0  0  0  0  0  0  0  0  0  0  0  0
   -0.2170   -9.9438   -6.0324 C   0  0  0  0  0  0  0  0  0  0  0  0
    0.2704  -12.2164   -6.6604 C   0  0  0  0  0  0  0  0  0  0  0  0
   -0.5494  -11.2930   -6.0385 C   0  0  0  0  0  0  0  0  0  0  0  0
    0.9428   -9.4954   -6.6564 C   0  0  0  0  0  0  0  0  0  0  0  0
    1.7679  -10.4116   -7.2784 C   0  0  0  0  0  0  0  0  0  0  0  0
    1.4320  -11.7577   -7.2748 C   0  0  0  0  0  0  0  0  0  0  0  0
    2.2702  -12.6142   -7.8597 F   0  0  0  0  0  0  0  0  0  0  0  0
   -1.4021  -17.4013   -6.2752 C   0  0  0  0  0  0  0  0  0  0  0  0
   -1.1885  -16.1579   -6.1251 N   0  0  0  0  0  0  0  0  0  0  0  0
   -1.7553  -15.3233   -7.0984 C   0  0  0  0  0  0  0  0  0  0  0  0
   -1.4024  -13.8727   -6.8459 C   0  0  0  0  0  0  0  0  0  0  0  0
   -0.0437  -13.6090   -6.7254 N   0  0  0  0  0  0  0  0  0  0  0  0
    0.4955  -14.4484   -5.7562 C   0  0  0  0  0  0  0  0  0  0  0  0
    0.1758  -15.9049   -6.0097 C   0  0  0  0  0  0  0  0  0  0  0  0
    5.6502   -6.4984   -6.4192 N   0  0  0  0  0  0  0  0  0  0  0  0
    5.8211   -5.7462   -5.8074 H   0  0  0  0  0  0  0  0  0  0  0  0
    6.6816   -7.4581   -6.6167 C   0  0  0  0  0  0  0  0  0  0  0  0
    7.7079   -7.6300   -5.7096 C   0  0  0  0  0  0  0  0  0  0  0  0
    8.6900   -8.5605   -5.9751 C   0  0  0  0  0  0  0  0  0  0  0  0
    7.6415   -9.1337   -8.0544 C   0  0  0  0  0  0  0  0  0  0  0  0
    8.6596   -9.3115   -7.1350 C   0  0  0  0  0  0  0  0  0  0  0  0
    6.6534   -8.2029   -7.8012 C   0  0  0  0  0  0  0  0  0  0  0  0
    7.7081   -9.9266   -9.2436 N   0  0  0  0  0  0  0  0  0  0  0  0
    7.9098   -9.4496  -10.0809 H   0  0  0  0  0  0  0  0  0  0  0  0
    7.4843  -11.5416   -9.3566 S   0  0  0  0  0  0  0  0  0  0  0  0
    7.5959  -12.1676   -8.0790 O   0  0  0  0  0  0  0  0  0  0  0  0
    8.4495  -12.0047  -10.2972 O   0  0  0  0  0  0  0  0  0  0  0  0
    5.8631  -11.8601  -10.0386 C   0  0  0  0  0  0  0  0  0  0  0  0
    5.3933  -13.2304   -9.5778 C   0  0  0  0  0  0  0  0  0  0  0  0
    4.8853  -10.7892   -9.5909 C   0  0  0  0  0  0  0  0  0  0  0  0
    6.0286  -11.8369  -11.5505 C   0  0  0  0  0  0  0  0  0  0  0  0
 10 12  2  0  0  0
 10 13  1  0  0  0
  8  1  1  0  0  0
  8 13  1  0  0  0
  1  4  2  0  0  0
  1  7  1  0  0  0
  2  4  1  0  0  0
  2  5  2  0  0  0
  3  5  1  0  0  0
 26 27  2  0  0  0
 26 24  1  0  0  0
 26 31  1  0  0  0
 27 28  1  0  0  0
 28 30  2  0  0  0
 29 30  1  0  0  0
 29 32  1  0  0  0
 29 31  2  0  0  0
 17 18  1  0  0  0
 18 19  1  0  0  0
 18 23  1  0  0  0
 19 20  1  0  0  0
 20 21  1  0  0  0
 21 22  1  0  0  0
 21 11  1  0  0  0
 22 23  1  0  0  0
 11 12  1  0  0  0
 11 15  2  0  0  0
 13 14  2  0  0  0
  5  6  1  0  0  0
  6 24  1  0  0  0
  6  7  2  0  0  0
 32 34  1  0  0  0
 34 35  2  0  0  0
 34 36  2  0  0  0
 34 37  1  0  0  0
 37 38  1  0  0  0
 37 39  1  0  0  0
 37 40  1  0  0  0
 14 15  1  0  0  0
 15 16  1  0  0  0
  8  9  1  0  0  0
 24 25  1  0  0  0
 32 33  1  0  0  0
M  END
> <minimizedAffinity>
-8.58524

$$$$
5F61_5W0_A_203


 40 43  0  0  0  0  0  0  0  0999 V2000
   -3.8367  -11.2275   -6.0242 C   0  0  0  0  0  0  0  0  0  0  0  0
   -4.4926   -9.8202   -4.2907 C   0  0  0  0  0  0  0  0  0  0  0  0
   -2.7723   -8.3957   -3.1313 C   0  0  0  0  0  0  0  0  0  0  0  0
   -4.7824  -10.7386   -5.2263 N   0  0  0  0  0  0  0  0  0  0  0  0
   -3.1483   -9.4199   -4.1852 C   0  0  0  0  0  0  0  0  0  0  0  0
   -2.1891   -9.9745   -5.0702 C   0  0  0  0  0  0  0  0  0  0  0  0
   -2.5583  -10.8618   -5.9958 N   0  0  0  0  0  0  0  0  0  0  0  0
   -4.3078  -12.1953   -6.9333 N   0  0  0  0  0  0  0  0  0  0  0  0
   -5.2698  -12.3980   -6.8805 H   0  0  0  0  0  0  0  0  0  0  0  0
   -4.2857  -13.8954   -8.6154 C   0  0  0  0  0  0  0  0  0  0  0  0
   -2.3442  -14.4357   -9.9328 C   0  0  0  0  0  0  0  0  0  0  0  0
   -3.6737  -14.6427   -9.6143 C   0  0  0  0  0  0  0  0  0  0  0  0
   -3.5755  -12.9213   -7.9211 C   0  0  0  0  0  0  0  0  0  0  0  0
   -2.2467  -12.7096   -8.2320 C   0  0  0  0  0  0  0  0  0  0  0  0
   -1.6412  -13.4640   -9.2264 C   0  0  0  0  0  0  0  0  0  0  0  0
   -0.3488  -13.2504   -9.4757 F   0  0  0  0  0  0  0  0  0  0  0  0
   -0.5126  -17.5092  -14.0591 C   0  0  0  0  0  0  0  0  0  0  0  0
   -1.1985  -16.9302  -13.1598 N   0  0  0  0  0  0  0  0  0  0  0  0
   -1.4631  -15.5713  -13.3797 C   0  0  0  0  0  0  0  0  0  0  0  0
   -2.2467  -14.9750  -12.2296 C   0  0  0  0  0  0  0  0  0  0  0  0
   -1.6782  -15.1522  -10.9744 N   0  0  0  0  0  0  0  0  0  0  0  0
   -1.4246  -16.5060  -10.7802 C   0  0  0  0  0  0  0  0  0  0  0  0
   -0.6176  -17.1108  -11.9074 C   0  0  0  0  0  0  0  0  0  0  0  0
   -0.8428   -9.5812   -4.9968 N   0  0  0  0  0  0  0  0  0  0  0  0
   -0.5668   -8.9903   -4.2593 H   0  0  0  0  0  0  0  0  0  0  0  0
    0.1414   -9.9955   -5.9368 C   0  0  0  0  0  0  0  0  0  0  0  0
    0.7767   -9.1025   -6.7763 C   0  0  0  0  0  0  0  0  0  0  0  0
    1.7025   -9.5745   -7.6822 C   0  0  0  0  0  0  0  0  0  0  0  0
    1.3487  -11.8249   -6.9325 C   0  0  0  0  0  0  0  0  0  0  0  0
    1.9925  -10.9236   -7.7612 C   0  0  0  0  0  0  0  0  0  0  0  0
    0.4175  -11.3647   -6.0226 C   0  0  0  0  0  0  0  0  0  0  0  0
    1.6829  -13.2052   -7.1069 N   0  0  0  0  0  0  0  0  0  0  0  0
    2.2226  -13.4317   -7.8985 H   0  0  0  0  0  0  0  0  0  0  0  0
    1.2618  -14.4450   -6.1286 S   0  0  0  0  0  0  0  0  0  0  0  0
   -0.1561  -14.5377   -5.9962 O   0  0  0  0  0  0  0  0  0  0  0  0
    1.9292  -14.2103   -4.8915 O   0  0  0  0  0  0  0  0  0  0  0  0
    1.8993  -15.9693   -6.8105 C   0  0  0  0  0  0  0  0  0  0  0  0
    3.3186  -16.1800   -6.3086 C   0  0  0  0  0  0  0  0  0  0  0  0
    1.0176  -17.1358   -6.4041 C   0  0  0  0  0  0  0  0  0  0  0  0
    1.8918  -15.7922   -8.3213 C   0  0  0  0  0  0  0  0  0  0  0  0
 10 12  2  0  0  0
 10 13  1  0  0  0
  8  1  1  0  0  0
  8 13  1  0  0  0
  1  4  2  0  0  0
  1  7  1  0  0  0
  2  4  1  0  0  0
  2  5  2  0  0  0
  3  5  1  0  0  0
 26 27  2  0  0  0
 26 24  1  0  0  0
 26 31  1  0  0  0
 27 28  1  0  0  0
 28 30  2  0  0  0
 29 30  1  0  0  0
 29 32  1  0  0  0
 29 31  2  0  0  0
 17 18  1  0  0  0
 18 19  1  0  0  0
 18 23  1  0  0  0
 19 20  1  0  0  0
 20 21  1  0  0  0
 21 22  1  0  0  0
 21 11  1  0  0  0
 22 23  1  0  0  0
 11 12  1  0  0  0
 11 15  2  0  0  0
 13 14  2  0  0  0
  5  6  1  0  0  0
  6 24  1  0  0  0
  6  7  2  0  0  0
 32 34  1  0  0  0
 34 35  2  0  0  0
 34 36  2  0  0  0
 34 37  1  0  0  0
 37 38  1  0  0  0
 37 39  1  0  0  0
 37 40  1  0  0  0
 14 15  1  0  0  0
 15 16  1  0  0  0
  8  9  1  0  0  0
 24 25  1  0  0  0
 32 33  1  0  0  0
M  END
> <minimizedAffinity>
-8.57532

$$$$
5F61_5W0_A_203


 40 43  0  0  0  0  0  0  0  0999 V2000
    0.1457  -10.3160   -6.2814 C   0  0  0  0  0  0  0  0  0  0  0  0
   -1.8295   -9.8999   -5.1234 C   0  0  0  0  0  0  0  0  0  0  0  0
   -3.9870  -10.8941   -5.9538 C   0  0  0  0  0  0  0  0  0  0  0  0
   -0.5059   -9.7353   -5.2773 N   0  0  0  0  0  0  0  0  0  0  0  0
   -2.4887  -10.6936   -6.0794 C   0  0  0  0  0  0  0  0  0  0  0  0
   -1.7355  -11.2899   -7.1225 C   0  0  0  0  0  0  0  0  0  0  0  0
   -0.4160  -11.1047   -7.1932 N   0  0  0  0  0  0  0  0  0  0  0  0
    1.5235  -10.0226   -6.3069 N   0  0  0  0  0  0  0  0  0  0  0  0
    2.0872  -10.5682   -5.7121 H   0  0  0  0  0  0  0  0  0  0  0  0
    3.0860   -8.2133   -6.3821 C   0  0  0  0  0  0  0  0  0  0  0  0
    3.6950   -7.0675   -8.4102 C   0  0  0  0  0  0  0  0  0  0  0  0
    3.8227   -7.2387   -7.0441 C   0  0  0  0  0  0  0  0  0  0  0  0
    2.2110   -9.0389   -7.0808 C   0  0  0  0  0  0  0  0  0  0  0  0
    2.0764   -8.8732   -8.4452 C   0  0  0  0  0  0  0  0  0  0  0  0
    2.8110   -7.8938   -9.0979 C   0  0  0  0  0  0  0  0  0  0  0  0
    2.6300   -7.7453  -10.4106 F   0  0  0  0  0  0  0  0  0  0  0  0
    6.7830   -3.0743  -10.4952 C   0  0  0  0  0  0  0  0  0  0  0  0
    6.1359   -3.8741   -9.7496 N   0  0  0  0  0  0  0  0  0  0  0  0
    6.6637   -5.1687   -9.6467 C   0  0  0  0  0  0  0  0  0  0  0  0
    5.7926   -6.0451   -8.7718 C   0  0  0  0  0  0  0  0  0  0  0  0
    4.4551   -6.1044   -9.1429 N   0  0  0  0  0  0  0  0  0  0  0  0
    3.9549   -4.8102   -9.2390 C   0  0  0  0  0  0  0  0  0  0  0  0
    4.7985   -3.9288  -10.1330 C   0  0  0  0  0  0  0  0  0  0  0  0
   -2.3659  -12.0994   -8.0816 N   0  0  0  0  0  0  0  0  0  0  0  0
   -2.7899  -11.6643   -8.8563 H   0  0  0  0  0  0  0  0  0  0  0  0
   -2.4213  -13.5179   -7.9877 C   0  0  0  0  0  0  0  0  0  0  0  0
   -3.6179  -14.2057   -7.9629 C   0  0  0  0  0  0  0  0  0  0  0  0
   -3.6007  -15.5792   -7.8445 C   0  0  0  0  0  0  0  0  0  0  0  0
   -1.2042  -15.5818   -7.7543 C   0  0  0  0  0  0  0  0  0  0  0  0
   -2.4059  -16.2668   -7.7444 C   0  0  0  0  0  0  0  0  0  0  0  0
   -1.2083  -14.2058   -7.8698 C   0  0  0  0  0  0  0  0  0  0  0  0
   -0.0183  -16.3691   -7.6092 N   0  0  0  0  0  0  0  0  0  0  0  0
    0.3287  -16.7982   -8.4245 H   0  0  0  0  0  0  0  0  0  0  0  0
    0.8203  -16.6302   -6.2308 S   0  0  0  0  0  0  0  0  0  0  0  0
    1.4218  -17.9243   -6.2313 O   0  0  0  0  0  0  0  0  0  0  0  0
   -0.1087  -16.4410   -5.1668 O   0  0  0  0  0  0  0  0  0  0  0  0
    2.0894  -15.3813   -6.0740 C   0  0  0  0  0  0  0  0  0  0  0  0
    2.5991  -15.0177   -7.4591 C   0  0  0  0  0  0  0  0  0  0  0  0
    1.5340  -14.1528   -5.3770 C   0  0  0  0  0  0  0  0  0  0  0  0
    3.2011  -16.0100   -5.2477 C   0  0  0  0  0  0  0  0  0  0  0  0
 10 12  2  0  0  0
 10 13  1  0  0  0
  8  1  1  0  0  0
  8 13  1  0  0  0
  1  4  2  0  0  0
  1  7  1  0  0  0
  2  4  1  0  0  0
  2  5  2  0  0  0
  3  5  1  0  0  0
 26 27  2  0  0  0
 26 24  1  0  0  0
 26 31  1  0  0  0
 27 28  1  0  0  0
 28 30  2  0  0  0
 29 30  1  0  0  0
 29 32  1  0  0  0
 29 31  2  0  0  0
 17 18  1  0  0  0
 18 19  1  0  0  0
 18 23  1  0  0  0
 19 20  1  0  0  0
 20 21  1  0  0  0
 21 22  1  0  0  0
 21 11  1  0  0  0
 22 23  1  0  0  0
 11 12  1  0  0  0
 11 15  2  0  0  0
 13 14  2  0  0  0
  5  6  1  0  0  0
  6 24  1  0  0  0
  6  7  2  0  0  0
 32 34  1  0  0  0
 34 35  2  0  0  0
 34 36  2  0  0  0
 34 37  1  0  0  0
 37 38  1  0  0  0
 37 39  1  0  0  0
 37 40  1  0  0  0
 14 15  1  0  0  0
 15 16  1  0  0  0
  8  9  1  0  0  0
 24 25  1  0  0  0
 32 33  1  0  0  0
M  END
> <minimizedAffinity>
-8.52208

$$$$
5F61_5W0_A_203


 40 43  0  0  0  0  0  0  0  0999 V2000
   -3.3394  -13.1734   -7.7475 C   0  0  0  0  0  0  0  0  0  0  0  0
   -4.4090  -11.3045   -6.8648 C   0  0  0  0  0  0  0  0  0  0  0  0
   -3.1247   -9.7226   -5.3880 C   0  0  0  0  0  0  0  0  0  0  0  0
   -4.4307  -12.4263   -7.6023 N   0  0  0  0  0  0  0  0  0  0  0  0
   -3.1912  -10.9733   -6.2438 C   0  0  0  0  0  0  0  0  0  0  0  0
   -2.0625  -11.8082   -6.4433 C   0  0  0  0  0  0  0  0  0  0  0  0
   -2.1532  -12.8926   -7.2155 N   0  0  0  0  0  0  0  0  0  0  0  0
   -3.5420  -14.3242   -8.5347 N   0  0  0  0  0  0  0  0  0  0  0  0
   -4.0265  -15.0609   -8.0969 H   0  0  0  0  0  0  0  0  0  0  0  0
   -3.9117  -15.4701  -10.6012 C   0  0  0  0  0  0  0  0  0  0  0  0
   -2.5484  -15.1506  -12.5598 C   0  0  0  0  0  0  0  0  0  0  0  0
   -3.6190  -15.7568  -11.9290 C   0  0  0  0  0  0  0  0  0  0  0  0
   -3.1379  -14.5640   -9.8831 C   0  0  0  0  0  0  0  0  0  0  0  0
   -2.0656  -13.9555  -10.5054 C   0  0  0  0  0  0  0  0  0  0  0  0
   -1.7764  -14.2517  -11.8296 C   0  0  0  0  0  0  0  0  0  0  0  0
   -0.7147  -13.6664  -12.3850 F   0  0  0  0  0  0  0  0  0  0  0  0
   -1.8942  -16.6007  -17.7845 C   0  0  0  0  0  0  0  0  0  0  0  0
   -2.2553  -16.4779  -16.5725 N   0  0  0  0  0  0  0  0  0  0  0  0
   -2.9679  -15.3099  -16.2674 C   0  0  0  0  0  0  0  0  0  0  0  0
   -3.3083  -15.2478  -14.7934 C   0  0  0  0  0  0  0  0  0  0  0  0
   -2.2265  -15.3841  -13.9324 N   0  0  0  0  0  0  0  0  0  0  0  0
   -1.5359  -16.5476  -14.2549 C   0  0  0  0  0  0  0  0  0  0  0  0
   -1.1632  -16.6120  -15.7193 C   0  0  0  0  0  0  0  0  0  0  0  0
   -0.8304  -11.4928   -5.8475 N   0  0  0  0  0  0  0  0  0  0  0  0
   -0.7256  -11.6431   -4.8802 H   0  0  0  0  0  0  0  0  0  0  0  0
    0.2735  -10.9665   -6.5744 C   0  0  0  0  0  0  0  0  0  0  0  0
    1.1626  -11.7790   -7.2490 C   0  0  0  0  0  0  0  0  0  0  0  0
    2.2262  -11.2051   -7.9126 C   0  0  0  0  0  0  0  0  0  0  0  0
    1.5325   -9.0176   -7.2164 C   0  0  0  0  0  0  0  0  0  0  0  0
    2.4120   -9.8356   -7.9025 C   0  0  0  0  0  0  0  0  0  0  0  0
    0.4648   -9.5805   -6.5457 C   0  0  0  0  0  0  0  0  0  0  0  0
    1.8209   -7.6162   -7.2284 N   0  0  0  0  0  0  0  0  0  0  0  0
    1.0919   -7.0182   -7.5116 H   0  0  0  0  0  0  0  0  0  0  0  0
    3.2349   -6.9047   -6.8209 S   0  0  0  0  0  0  0  0  0  0  0  0
    4.1002   -7.8231   -6.1544 O   0  0  0  0  0  0  0  0  0  0  0  0
    2.8882   -5.7762   -6.0225 O   0  0  0  0  0  0  0  0  0  0  0  0
    4.0321   -6.2995   -8.3018 C   0  0  0  0  0  0  0  0  0  0  0  0
    3.3133   -6.8642   -9.5163 C   0  0  0  0  0  0  0  0  0  0  0  0
    4.0045   -4.7824   -8.3306 C   0  0  0  0  0  0  0  0  0  0  0  0
    5.4645   -6.8089   -8.2489 C   0  0  0  0  0  0  0  0  0  0  0  0
 10 12  2  0  0  0
 10 13  1  0  0  0
  8  1  1  0  0  0
  8 13  1  0  0  0
  1  4  2  0  0  0
  1  7  1  0  0  0
  2  4  1  0  0  0
  2  5  2  0  0  0
  3  5  1  0  0  0
 26 27  2  0  0  0
 26 24  1  0  0  0
 26 31  1  0  0  0
 27 28  1  0  0  0
 28 30  2  0  0  0
 29 30  1  0  0  0
 29 32  1  0  0  0
 29 31  2  0  0  0
 17 18  1  0  0  0
 18 19  1  0  0  0
 18 23  1  0  0  0
 19 20  1  0  0  0
 20 21  1  0  0  0
 21 22  1  0  0  0
 21 11  1  0  0  0
 22 23  1  0  0  0
 11 12  1  0  0  0
 11 15  2  0  0  0
 13 14  2  0  0  0
  5  6  1  0  0  0
  6 24  1  0  0  0
  6  7  2  0  0  0
 32 34  1  0  0  0
 34 35  2  0  0  0
 34 36  2  0  0  0
 34 37  1  0  0  0
 37 38  1  0  0  0
 37 39  1  0  0  0
 37 40  1  0  0  0
 14 15  1  0  0  0
 15 16  1  0  0  0
  8  9  1  0  0  0
 24 25  1  0  0  0
 32 33  1  0  0  0
M  END
> <minimizedAffinity>
-8.25951

$$$$
5F61_5W0_A_203


 40 43  0  0  0  0  0  0  0  0999 V2000
    0.6566  -12.8357   -6.5782 C   0  0  0  0  0  0  0  0  0  0  0  0
    1.8437  -14.1860   -5.1007 C   0  0  0  0  0  0  0  0  0  0  0  0
    1.7768  -16.6862   -5.3785 C   0  0  0  0  0  0  0  0  0  0  0  0
    1.4479  -12.9726   -5.5175 N   0  0  0  0  0  0  0  0  0  0  0  0
    1.3678  -15.2949   -5.8234 C   0  0  0  0  0  0  0  0  0  0  0  0
    0.5320  -15.0812   -6.9488 C   0  0  0  0  0  0  0  0  0  0  0  0
    0.2050  -13.8422   -7.3211 N   0  0  0  0  0  0  0  0  0  0  0  0
    0.3213  -11.4977   -6.8653 N   0  0  0  0  0  0  0  0  0  0  0  0
   -0.6417  -11.2950   -6.8904 H   0  0  0  0  0  0  0  0  0  0  0  0
    2.3001  -10.6679   -7.9218 C   0  0  0  0  0  0  0  0  0  0  0  0
    3.0109   -8.3711   -7.7940 C   0  0  0  0  0  0  0  0  0  0  0  0
    3.1983   -9.6613   -8.2546 C   0  0  0  0  0  0  0  0  0  0  0  0
    1.1927  -10.3965   -7.1246 C   0  0  0  0  0  0  0  0  0  0  0  0
    0.9994   -9.1108   -6.6590 C   0  0  0  0  0  0  0  0  0  0  0  0
    1.9040   -8.1127   -6.9908 C   0  0  0  0  0  0  0  0  0  0  0  0
    1.6986   -6.8914   -6.4964 F   0  0  0  0  0  0  0  0  0  0  0  0
    6.4122   -4.6075   -9.8175 C   0  0  0  0  0  0  0  0  0  0  0  0
    5.6560   -5.6085   -9.6164 N   0  0  0  0  0  0  0  0  0  0  0  0
    4.2845   -5.3276   -9.5440 C   0  0  0  0  0  0  0  0  0  0  0  0
    3.4850   -6.5815   -9.2598 C   0  0  0  0  0  0  0  0  0  0  0  0
    3.8851   -7.2936   -8.1360 N   0  0  0  0  0  0  0  0  0  0  0  0
    5.2471   -7.5593   -8.2304 C   0  0  0  0  0  0  0  0  0  0  0  0
    6.0634   -6.3118   -8.4860 C   0  0  0  0  0  0  0  0  0  0  0  0
    0.0552  -16.1696   -7.6974 N   0  0  0  0  0  0  0  0  0  0  0  0
    0.5295  -16.4125   -8.5252 H   0  0  0  0  0  0  0  0  0  0  0  0
   -1.0802  -16.9379   -7.3172 C   0  0  0  0  0  0  0  0  0  0  0  0
   -0.9767  -18.2597   -6.9327 C   0  0  0  0  0  0  0  0  0  0  0  0
   -2.1206  -18.9542   -6.6012 C   0  0  0  0  0  0  0  0  0  0  0  0
   -3.4716  -17.0255   -7.0550 C   0  0  0  0  0  0  0  0  0  0  0  0
   -3.3602  -18.3455   -6.6567 C   0  0  0  0  0  0  0  0  0  0  0  0
   -2.3335  -16.3199   -7.3920 C   0  0  0  0  0  0  0  0  0  0  0  0
   -4.7955  -16.4865   -7.1187 N   0  0  0  0  0  0  0  0  0  0  0  0
   -5.0919  -15.9523   -6.3467 H   0  0  0  0  0  0  0  0  0  0  0  0
   -5.8670  -16.6653   -8.3400 S   0  0  0  0  0  0  0  0  0  0  0  0
   -7.2087  -16.5397   -7.8703 O   0  0  0  0  0  0  0  0  0  0  0  0
   -5.5896  -17.9373   -8.9197 O   0  0  0  0  0  0  0  0  0  0  0  0
   -5.5496  -15.4200   -9.5823 C   0  0  0  0  0  0  0  0  0  0  0  0
   -6.8525  -15.0835  -10.2892 C   0  0  0  0  0  0  0  0  0  0  0  0
   -4.9609  -14.1767   -8.9412 C   0  0  0  0  0  0  0  0  0  0  0  0
   -4.5610  -16.0393  -10.5585 C   0  0  0  0  0  0  0  0  0  0  0  0
 10 12  2  0  0  0
 10 13  1  0  0  0
  8  1  1  0  0  0
  8 13  1  0  0  0
  1  4  2  0  0  0
  1  7  1  0  0  0
  2  4  1  0  0  0
  2  5  2  0  0  0
  3  5  1  0  0  0
 26 27  2  0  0  0
 26 24  1  0  0  0
 26 31  1  0  0  0
 27 28  1  0  0  0
 28 30  2  0  0  0
 29 30  1  0  0  0
 29 32  1  0  0  0
 29 31  2  0  0  0
 17 18  1  0  0  0
 18 19  1  0  0  0
 18 23  1  0  0  0
 19 20  1  0  0  0
 20 21  1  0  0  0
 21 22  1  0  0  0
 21 11  1  0  0  0
 22 23  1  0  0  0
 11 12  1  0  0  0
 11 15  2  0  0  0
 13 14  2  0  0  0
  5  6  1  0  0  0
  6 24  1  0  0  0
  6  7  2  0  0  0
 32 34  1  0  0  0
 34 35  2  0  0  0
 34 36  2  0  0  0
 34 37  1  0  0  0
 37 38  1  0  0  0
 37 39  1  0  0  0
 37 40  1  0  0  0
 14 15  1  0  0  0
 15 16  1  0  0  0
  8  9  1  0  0  0
 24 25  1  0  0  0
 32 33  1  0  0  0
M  END
> <minimizedAffinity>
-8.22997

$$$$
