3D1Z_017_B_201


 42 45  0  0  0  0  0  0  0  0999 V2000
   15.0052   23.6559   18.0493 C   0  0  0  0  0  0  0  0  0  0  0  0
   13.8213   24.4191   18.2832 O   0  0  0  0  0  0  0  0  0  0  0  0
   13.5527   24.8591   17.4615 H   0  0  0  0  0  0  0  0  0  0  0  0
   16.1336   24.6354   17.6013 C   0  0  0  0  0  0  0  0  0  0  0  0
   17.4704   23.9589   17.7569 N   0  0  0  0  0  0  0  0  0  0  0  0
   18.3088   23.6854   16.1929 S   0  0  0  0  0  0  0  0  0  0  0  0
   17.2428   23.1888   15.1881 O   0  0  0  0  0  0  0  0  0  0  0  0
   19.5324   22.7534   16.5525 O   0  0  0  0  0  0  0  0  0  0  0  0
   20.7507   28.5686   13.8568 N   0  0  0  0  0  0  0  0  0  0  0  0
   20.1494   27.4687   14.3998 C   0  0  0  0  0  0  0  0  0  0  0  0
   20.8320   26.7255   15.3648 C   0  0  0  0  0  0  0  0  0  0  0  0
   20.2714   25.5933   15.9357 C   0  0  0  0  0  0  0  0  0  0  0  0
   18.9690   25.2749   15.5668 C   0  0  0  0  0  0  0  0  0  0  0  0
   18.2554   25.9372   14.5561 C   0  0  0  0  0  0  0  0  0  0  0  0
   18.8449   27.1060   14.0199 C   0  0  0  0  0  0  0  0  0  0  0  0
   21.6643   28.8148   14.1289 H   0  0  0  0  0  0  0  0  0  0  0  0
   20.2705   29.1151   13.1935 H   0  0  0  0  0  0  0  0  0  0  0  0
   18.3049   24.3396   18.9215 C   0  0  0  0  0  0  0  0  0  0  0  0
   18.0028   23.3923   20.1201 C   0  0  0  0  0  0  0  0  0  0  0  0
   17.9410   21.9395   19.6620 C   0  0  0  0  0  0  0  0  0  0  0  0
   19.1590   23.5767   21.0976 C   0  0  0  0  0  0  0  0  0  0  0  0
   14.6877   22.5593   16.9710 C   0  0  0  0  0  0  0  0  0  0  0  0
   13.9262   21.5574   17.6524 N   0  0  0  0  0  0  0  0  0  0  0  0
   14.3395   20.2849   17.8049 C   0  0  0  0  0  0  0  0  0  0  0  0
   15.4375   19.7711   17.4198 O   0  0  0  0  0  0  0  0  0  0  0  0
   13.0534   21.8121   18.0299 H   0  0  0  0  0  0  0  0  0  0  0  0
   13.3600   19.5456   18.4766 O   0  0  0  0  0  0  0  0  0  0  0  0
   13.8172   18.3079   19.1282 C   0  0  0  0  0  0  0  0  0  0  0  0
   13.9012   18.5861   20.6424 C   0  0  0  0  0  0  0  0  0  0  0  0
   12.5234   18.6563   21.0785 O   0  0  0  0  0  0  0  0  0  0  0  0
   11.8471   17.6714   20.2600 C   0  0  0  0  0  0  0  0  0  0  0  0
   10.6018   18.2566   19.8404 O   0  0  0  0  0  0  0  0  0  0  0  0
   10.6848   18.3215   18.3913 C   0  0  0  0  0  0  0  0  0  0  0  0
   11.6669   17.2012   17.9699 C   0  0  0  0  0  0  0  0  0  0  0  0
   12.6597   17.3297   19.0992 C   0  0  0  0  0  0  0  0  0  0  0  0
   13.8479   23.0625   15.7483 C   0  0  0  0  0  0  0  0  0  0  0  0
   12.0995   21.5648   14.7344 C   0  0  0  0  0  0  0  0  0  0  0  0
   11.7236   20.5237   13.8629 C   0  0  0  0  0  0  0  0  0  0  0  0
   12.7072   19.8627   13.1175 C   0  0  0  0  0  0  0  0  0  0  0  0
   14.0424   20.2429   13.1635 C   0  0  0  0  0  0  0  0  0  0  0  0
   14.4362   21.3081   14.0021 C   0  0  0  0  0  0  0  0  0  0  0  0
   13.4437   21.9550   14.7774 C   0  0  0  0  0  0  0  0  0  0  0  0
  9 10  1  0  0  0
 10 11  2  0  0  0
 10 15  1  0  0  0
 11 12  1  0  0  0
 12 13  2  0  0  0
 13 14  1  0  0  0
 13  6  1  0  0  0
 14 15  2  0  0  0
  6  7  2  0  0  0
  6  8  2  0  0  0
  6  5  1  0  0  0
  5 18  1  0  0  0
  5  4  1  0  0  0
 18 19  1  0  0  0
 19 20  1  0  0  0
 19 21  1  0  0  0
  4  1  1  0  0  0
  1  2  1  0  0  0
  1 22  1  0  0  0
 22 23  1  0  0  0
 22 36  1  0  0  0
 23 24  1  0  0  0
 24 25  2  0  0  0
 24 27  1  0  0  0
 27 28  1  0  0  0
 28 29  1  0  0  0
 28 35  1  0  0  0
 29 30  1  0  0  0
 30 31  1  0  0  0
 31 32  1  0  0  0
 31 35  1  0  0  0
 32 33  1  0  0  0
 33 34  1  0  0  0
 34 35  1  0  0  0
 36 42  1  0  0  0
 37 38  2  0  0  0
 37 42  1  0  0  0
 38 39  1  0  0  0
 39 40  2  0  0  0
 40 41  1  0  0  0
 41 42  2  0  0  0
  9 16  1  0  0  0
  9 17  1  0  0  0
  2  3  1  0  0  0
 23 26  1  0  0  0
M  END
> <minimizedAffinity>
-9.94140

$$$$
3D1Z_017_B_201


 42 45  0  0  0  0  0  0  0  0999 V2000
   15.6705   23.5187   17.8324 C   0  0  0  0  0  0  0  0  0  0  0  0
   14.8230   24.5659   18.3056 O   0  0  0  0  0  0  0  0  0  0  0  0
   14.8271   24.5717   19.2756 H   0  0  0  0  0  0  0  0  0  0  0  0
   15.1037   22.1623   18.3542 C   0  0  0  0  0  0  0  0  0  0  0  0
   13.9687   21.7230   17.4668 N   0  0  0  0  0  0  0  0  0  0  0  0
   14.3067   21.9603   15.7195 S   0  0  0  0  0  0  0  0  0  0  0  0
   15.7293   21.4137   15.4549 O   0  0  0  0  0  0  0  0  0  0  0  0
   13.9988   23.4871   15.4561 O   0  0  0  0  0  0  0  0  0  0  0  0
   10.4536   19.1294   12.1974 N   0  0  0  0  0  0  0  0  0  0  0  0
   11.3603   19.7400   13.0167 C   0  0  0  0  0  0  0  0  0  0  0  0
   10.9139   20.6845   13.9432 C   0  0  0  0  0  0  0  0  0  0  0  0
   11.7954   21.3423   14.7871 C   0  0  0  0  0  0  0  0  0  0  0  0
   13.1322   20.9638   14.7285 C   0  0  0  0  0  0  0  0  0  0  0  0
   13.6553   20.0749   13.7769 C   0  0  0  0  0  0  0  0  0  0  0  0
   12.7232   19.3989   12.9552 C   0  0  0  0  0  0  0  0  0  0  0  0
    9.5014   19.3747   12.2476 H   0  0  0  0  0  0  0  0  0  0  0  0
   10.7522   18.4441   11.5568 H   0  0  0  0  0  0  0  0  0  0  0  0
   13.2185   20.5056   17.8579 C   0  0  0  0  0  0  0  0  0  0  0  0
   14.0513   19.6777   18.8809 C   0  0  0  0  0  0  0  0  0  0  0  0
   13.2309   19.3733   20.1293 C   0  0  0  0  0  0  0  0  0  0  0  0
   14.4103   18.3773   18.1693 C   0  0  0  0  0  0  0  0  0  0  0  0
   17.1341   23.7978   18.3285 C   0  0  0  0  0  0  0  0  0  0  0  0
   17.6508   24.8082   17.4566 N   0  0  0  0  0  0  0  0  0  0  0  0
   18.9659   25.0110   17.2504 C   0  0  0  0  0  0  0  0  0  0  0  0
   19.9411   24.3583   17.7414 O   0  0  0  0  0  0  0  0  0  0  0  0
   17.0103   25.3860   16.9820 H   0  0  0  0  0  0  0  0  0  0  0  0
   19.1484   26.0913   16.3805 O   0  0  0  0  0  0  0  0  0  0  0  0
   19.5900   25.7565   15.0172 C   0  0  0  0  0  0  0  0  0  0  0  0
   18.7314   26.5811   14.0373 C   0  0  0  0  0  0  0  0  0  0  0  0
   19.2157   27.9372   14.1784 O   0  0  0  0  0  0  0  0  0  0  0  0
   20.6379   27.7791   14.4018 C   0  0  0  0  0  0  0  0  0  0  0  0
   21.0050   28.7000   15.4442 O   0  0  0  0  0  0  0  0  0  0  0  0
   21.4913   27.8663   16.5302 C   0  0  0  0  0  0  0  0  0  0  0  0
   22.0012   26.5616   15.8706 C   0  0  0  0  0  0  0  0  0  0  0  0
   20.9404   26.4122   14.8076 C   0  0  0  0  0  0  0  0  0  0  0  0
   17.2410   24.3227   19.8004 C   0  0  0  0  0  0  0  0  0  0  0  0
   19.2133   24.3053   21.3617 C   0  0  0  0  0  0  0  0  0  0  0  0
   20.1719   23.6141   22.1286 C   0  0  0  0  0  0  0  0  0  0  0  0
   20.1874   22.2144   22.1101 C   0  0  0  0  0  0  0  0  0  0  0  0
   19.2438   21.4791   21.4041 C   0  0  0  0  0  0  0  0  0  0  0  0
   18.2511   22.1509   20.6582 C   0  0  0  0  0  0  0  0  0  0  0  0
   18.2564   23.5667   20.6548 C   0  0  0  0  0  0  0  0  0  0  0  0
  9 10  1  0  0  0
 10 11  2  0  0  0
 10 15  1  0  0  0
 11 12  1  0  0  0
 12 13  2  0  0  0
 13 14  1  0  0  0
 13  6  1  0  0  0
 14 15  2  0  0  0
  6  7  2  0  0  0
  6  8  2  0  0  0
  6  5  1  0  0  0
  5 18  1  0  0  0
  5  4  1  0  0  0
 18 19  1  0  0  0
 19 20  1  0  0  0
 19 21  1  0  0  0
  4  1  1  0  0  0
  1  2  1  0  0  0
  1 22  1  0  0  0
 22 23  1  0  0  0
 22 36  1  0  0  0
 23 24  1  0  0  0
 24 25  2  0  0  0
 24 27  1  0  0  0
 27 28  1  0  0  0
 28 29  1  0  0  0
 28 35  1  0  0  0
 29 30  1  0  0  0
 30 31  1  0  0  0
 31 32  1  0  0  0
 31 35  1  0  0  0
 32 33  1  0  0  0
 33 34  1  0  0  0
 34 35  1  0  0  0
 36 42  1  0  0  0
 37 38  2  0  0  0
 37 42  1  0  0  0
 38 39  1  0  0  0
 39 40  2  0  0  0
 40 41  1  0  0  0
 41 42  2  0  0  0
  9 16  1  0  0  0
  9 17  1  0  0  0
  2  3  1  0  0  0
 23 26  1  0  0  0
M  END
> <minimizedAffinity>
-9.82199

$$$$
3D1Z_017_B_201


 42 45  0  0  0  0  0  0  0  0999 V2000
   15.2252   23.6799   18.1500 C   0  0  0  0  0  0  0  0  0  0  0  0
   14.0216   24.4118   18.3827 O   0  0  0  0  0  0  0  0  0  0  0  0
   13.7548   24.8634   17.5667 H   0  0  0  0  0  0  0  0  0  0  0  0
   16.3379   24.6933   17.7392 C   0  0  0  0  0  0  0  0  0  0  0  0
   17.6730   23.9961   17.7465 N   0  0  0  0  0  0  0  0  0  0  0  0
   17.9005   22.9224   19.1674 S   0  0  0  0  0  0  0  0  0  0  0  0
   17.9103   21.4684   18.6396 O   0  0  0  0  0  0  0  0  0  0  0  0
   16.7837   23.3707   20.1906 O   0  0  0  0  0  0  0  0  0  0  0  0
   23.0014   24.4225   21.8126 N   0  0  0  0  0  0  0  0  0  0  0  0
   21.8383   24.0328   21.2114 C   0  0  0  0  0  0  0  0  0  0  0  0
   21.4632   24.6258   20.0042 C   0  0  0  0  0  0  0  0  0  0  0  0
   20.2858   24.2756   19.3616 C   0  0  0  0  0  0  0  0  0  0  0  0
   19.5340   23.2517   19.9276 C   0  0  0  0  0  0  0  0  0  0  0  0
   19.8177   22.6642   21.1700 C   0  0  0  0  0  0  0  0  0  0  0  0
   21.0428   23.0221   21.7800 C   0  0  0  0  0  0  0  0  0  0  0  0
   23.5517   25.1309   21.4071 H   0  0  0  0  0  0  0  0  0  0  0  0
   23.2892   23.9949   22.6514 H   0  0  0  0  0  0  0  0  0  0  0  0
   18.2170   23.5337   16.4473 C   0  0  0  0  0  0  0  0  0  0  0  0
   18.7452   24.7511   15.6322 C   0  0  0  0  0  0  0  0  0  0  0  0
   20.1967   24.5384   15.2172 C   0  0  0  0  0  0  0  0  0  0  0  0
   17.8609   24.8367   14.3924 C   0  0  0  0  0  0  0  0  0  0  0  0
   14.9474   22.6000   17.0442 C   0  0  0  0  0  0  0  0  0  0  0  0
   14.1333   21.6050   17.6728 N   0  0  0  0  0  0  0  0  0  0  0  0
   14.4708   20.3033   17.7425 C   0  0  0  0  0  0  0  0  0  0  0  0
   15.5326   19.7499   17.3132 O   0  0  0  0  0  0  0  0  0  0  0  0
   13.2806   21.8873   18.0760 H   0  0  0  0  0  0  0  0  0  0  0  0
   13.4547   19.5835   18.3800 O   0  0  0  0  0  0  0  0  0  0  0  0
   13.8640   18.3338   19.0407 C   0  0  0  0  0  0  0  0  0  0  0  0
   13.9632   18.6207   20.5524 C   0  0  0  0  0  0  0  0  0  0  0  0
   12.5905   18.7493   20.9912 O   0  0  0  0  0  0  0  0  0  0  0  0
   11.8731   17.7856   20.1825 C   0  0  0  0  0  0  0  0  0  0  0  0
   10.6510   18.4167   19.7610 O   0  0  0  0  0  0  0  0  0  0  0  0
   10.7326   18.4664   18.3112 C   0  0  0  0  0  0  0  0  0  0  0  0
   11.6681   17.3045   17.8967 C   0  0  0  0  0  0  0  0  0  0  0  0
   12.6683   17.4024   19.0225 C   0  0  0  0  0  0  0  0  0  0  0  0
   14.1834   23.1303   15.7839 C   0  0  0  0  0  0  0  0  0  0  0  0
   12.7581   21.3610   14.7039 C   0  0  0  0  0  0  0  0  0  0  0  0
   12.5598   20.3639   13.7286 C   0  0  0  0  0  0  0  0  0  0  0  0
   13.5927   20.0642   12.8325 C   0  0  0  0  0  0  0  0  0  0  0  0
   14.7924   20.7644   12.8342 C   0  0  0  0  0  0  0  0  0  0  0  0
   14.9987   21.7928   13.7790 C   0  0  0  0  0  0  0  0  0  0  0  0
   13.9637   22.0735   14.7034 C   0  0  0  0  0  0  0  0  0  0  0  0
  9 10  1  0  0  0
 10 11  2  0  0  0
 10 15  1  0  0  0
 11 12  1  0  0  0
 12 13  2  0  0  0
 13 14  1  0  0  0
 13  6  1  0  0  0
 14 15  2  0  0  0
  6  7  2  0  0  0
  6  8  2  0  0  0
  6  5  1  0  0  0
  5 18  1  0  0  0
  5  4  1  0  0  0
 18 19  1  0  0  0
 19 20  1  0  0  0
 19 21  1  0  0  0
  4  1  1  0  0  0
  1  2  1  0  0  0
  1 22  1  0  0  0
 22 23  1  0  0  0
 22 36  1  0  0  0
 23 24  1  0  0  0
 24 25  2  0  0  0
 24 27  1  0  0  0
 27 28  1  0  0  0
 28 29  1  0  0  0
 28 35  1  0  0  0
 29 30  1  0  0  0
 30 31  1  0  0  0
 31 32  1  0  0  0
 31 35  1  0  0  0
 32 33  1  0  0  0
 33 34  1  0  0  0
 34 35  1  0  0  0
 36 42  1  0  0  0
 37 38  2  0  0  0
 37 42  1  0  0  0
 38 39  1  0  0  0
 39 40  2  0  0  0
 40 41  1  0  0  0
 41 42  2  0  0  0
  9 16  1  0  0  0
  9 17  1  0  0  0
  2  3  1  0  0  0
 23 26  1  0  0  0
M  END
> <minimizedAffinity>
-9.82168

$$$$
3D1Z_017_B_201


 42 45  0  0  0  0  0  0  0  0999 V2000
   16.0218   24.6360   17.9555 C   0  0  0  0  0  0  0  0  0  0  0  0
   15.5299   25.7835   18.6482 O   0  0  0  0  0  0  0  0  0  0  0  0
   15.4014   25.5655   19.5845 H   0  0  0  0  0  0  0  0  0  0  0  0
   14.9561   23.5030   18.0749 C   0  0  0  0  0  0  0  0  0  0  0  0
   15.3160   22.3805   17.1373 N   0  0  0  0  0  0  0  0  0  0  0  0
   15.7405   20.8582   17.9894 S   0  0  0  0  0  0  0  0  0  0  0  0
   16.1540   21.2449   19.4288 O   0  0  0  0  0  0  0  0  0  0  0  0
   16.7879   20.1488   17.0434 O   0  0  0  0  0  0  0  0  0  0  0  0
   10.9793   17.4175   18.8608 N   0  0  0  0  0  0  0  0  0  0  0  0
   12.0550   18.2248   18.6214 C   0  0  0  0  0  0  0  0  0  0  0  0
   13.3429   17.7055   18.7680 C   0  0  0  0  0  0  0  0  0  0  0  0
   14.4669   18.4873   18.5508 C   0  0  0  0  0  0  0  0  0  0  0  0
   14.2591   19.7872   18.1025 C   0  0  0  0  0  0  0  0  0  0  0  0
   12.9958   20.3899   18.0011 C   0  0  0  0  0  0  0  0  0  0  0  0
   11.8722   19.5534   18.1983 C   0  0  0  0  0  0  0  0  0  0  0  0
   11.1171   16.4887   19.1567 H   0  0  0  0  0  0  0  0  0  0  0  0
   10.0663   17.7645   18.7374 H   0  0  0  0  0  0  0  0  0  0  0  0
   14.5497   22.2647   15.8735 C   0  0  0  0  0  0  0  0  0  0  0  0
   15.5112   21.8995   14.7041 C   0  0  0  0  0  0  0  0  0  0  0  0
   14.7418   21.7411   13.3976 C   0  0  0  0  0  0  0  0  0  0  0  0
   16.4884   23.0650   14.5898 C   0  0  0  0  0  0  0  0  0  0  0  0
   17.4082   24.2350   18.5744 C   0  0  0  0  0  0  0  0  0  0  0  0
   18.3830   25.0152   17.8750 N   0  0  0  0  0  0  0  0  0  0  0  0
   19.2476   24.4980   16.9815 C   0  0  0  0  0  0  0  0  0  0  0  0
   19.3346   23.2908   16.5906 O   0  0  0  0  0  0  0  0  0  0  0  0
   18.4236   25.9819   18.0568 H   0  0  0  0  0  0  0  0  0  0  0  0
   20.0938   25.5043   16.5035 O   0  0  0  0  0  0  0  0  0  0  0  0
   20.4883   25.4000   15.0895 C   0  0  0  0  0  0  0  0  0  0  0  0
   19.3216   25.9461   14.2423 C   0  0  0  0  0  0  0  0  0  0  0  0
   19.3554   27.3773   14.4523 O   0  0  0  0  0  0  0  0  0  0  0  0
   20.7674   27.6819   14.5575 C   0  0  0  0  0  0  0  0  0  0  0  0
   20.9161   28.6195   15.6383 O   0  0  0  0  0  0  0  0  0  0  0  0
   21.7451   27.9379   16.6177 C   0  0  0  0  0  0  0  0  0  0  0  0
   22.5823   26.9058   15.8233 C   0  0  0  0  0  0  0  0  0  0  0  0
   21.5302   26.4707   14.8328 C   0  0  0  0  0  0  0  0  0  0  0  0
   17.5551   24.5299   20.1057 C   0  0  0  0  0  0  0  0  0  0  0  0
   18.9839   22.7055   21.0846 C   0  0  0  0  0  0  0  0  0  0  0  0
   20.1881   22.2608   21.6652 C   0  0  0  0  0  0  0  0  0  0  0  0
   21.2140   23.1814   21.9100 C   0  0  0  0  0  0  0  0  0  0  0  0
   21.1061   24.5162   21.5407 C   0  0  0  0  0  0  0  0  0  0  0  0
   19.9226   24.9761   20.9237 C   0  0  0  0  0  0  0  0  0  0  0  0
   18.8751   24.0490   20.7047 C   0  0  0  0  0  0  0  0  0  0  0  0
  9 10  1  0  0  0
 10 11  2  0  0  0
 10 15  1  0  0  0
 11 12  1  0  0  0
 12 13  2  0  0  0
 13 14  1  0  0  0
 13  6  1  0  0  0
 14 15  2  0  0  0
  6  7  2  0  0  0
  6  8  2  0  0  0
  6  5  1  0  0  0
  5 18  1  0  0  0
  5  4  1  0  0  0
 18 19  1  0  0  0
 19 20  1  0  0  0
 19 21  1  0  0  0
  4  1  1  0  0  0
  1  2  1  0  0  0
  1 22  1  0  0  0
 22 23  1  0  0  0
 22 36  1  0  0  0
 23 24  1  0  0  0
 24 25  2  0  0  0
 24 27  1  0  0  0
 27 28  1  0  0  0
 28 29  1  0  0  0
 28 35  1  0  0  0
 29 30  1  0  0  0
 30 31  1  0  0  0
 31 32  1  0  0  0
 31 35  1  0  0  0
 32 33  1  0  0  0
 33 34  1  0  0  0
 34 35  1  0  0  0
 36 42  1  0  0  0
 37 38  2  0  0  0
 37 42  1  0  0  0
 38 39  1  0  0  0
 39 40  2  0  0  0
 40 41  1  0  0  0
 41 42  2  0  0  0
  9 16  1  0  0  0
  9 17  1  0  0  0
  2  3  1  0  0  0
 23 26  1  0  0  0
M  END
> <minimizedAffinity>
-9.77683

$$$$
3D1Z_017_B_201


 42 45  0  0  0  0  0  0  0  0999 V2000
   17.9303   24.3043   15.3530 C   0  0  0  0  0  0  0  0  0  0  0  0
   17.8598   24.7584   14.0011 O   0  0  0  0  0  0  0  0  0  0  0  0
   17.7288   25.7194   13.9892 H   0  0  0  0  0  0  0  0  0  0  0  0
   16.5771   24.6446   16.0505 C   0  0  0  0  0  0  0  0  0  0  0  0
   15.8092   23.3719   16.2943 N   0  0  0  0  0  0  0  0  0  0  0  0
   16.2800   22.5446   17.8168 S   0  0  0  0  0  0  0  0  0  0  0  0
   16.1031   23.5688   18.9623 O   0  0  0  0  0  0  0  0  0  0  0  0
   17.7124   21.9479   17.5215 O   0  0  0  0  0  0  0  0  0  0  0  0
   12.9579   17.7860   19.0757 N   0  0  0  0  0  0  0  0  0  0  0  0
   13.6841   18.9071   18.7897 C   0  0  0  0  0  0  0  0  0  0  0  0
   14.5943   18.8778   17.7312 C   0  0  0  0  0  0  0  0  0  0  0  0
   15.3653   19.9842   17.4096 C   0  0  0  0  0  0  0  0  0  0  0  0
   15.1365   21.1494   18.1334 C   0  0  0  0  0  0  0  0  0  0  0  0
   14.2896   21.2264   19.2497 C   0  0  0  0  0  0  0  0  0  0  0  0
   13.4954   20.0893   19.5276 C   0  0  0  0  0  0  0  0  0  0  0  0
   13.0969   16.9629   18.5537 H   0  0  0  0  0  0  0  0  0  0  0  0
   12.2954   17.8011   19.8039 H   0  0  0  0  0  0  0  0  0  0  0  0
   14.3749   23.3491   15.9202 C   0  0  0  0  0  0  0  0  0  0  0  0
   14.1870   22.5518   14.5957 C   0  0  0  0  0  0  0  0  0  0  0  0
   15.4681   21.8167   14.2178 C   0  0  0  0  0  0  0  0  0  0  0  0
   13.0755   21.5442   14.8709 C   0  0  0  0  0  0  0  0  0  0  0  0
   19.1615   24.9893   16.0465 C   0  0  0  0  0  0  0  0  0  0  0  0
   19.4082   24.2286   17.2333 N   0  0  0  0  0  0  0  0  0  0  0  0
   19.9449   24.7501   18.3528 C   0  0  0  0  0  0  0  0  0  0  0  0
   20.2859   25.9572   18.5638 O   0  0  0  0  0  0  0  0  0  0  0  0
   19.1728   23.2726   17.2312 H   0  0  0  0  0  0  0  0  0  0  0  0
   20.0953   23.7483   19.3176 O   0  0  0  0  0  0  0  0  0  0  0  0
   19.0483   23.6819   20.3497 C   0  0  0  0  0  0  0  0  0  0  0  0
   18.7707   22.1917   20.6316 C   0  0  0  0  0  0  0  0  0  0  0  0
   19.9330   21.7348   21.3621 O   0  0  0  0  0  0  0  0  0  0  0  0
   20.3040   22.8734   22.1765 C   0  0  0  0  0  0  0  0  0  0  0  0
   21.7372   22.9829   22.1189 O   0  0  0  0  0  0  0  0  0  0  0  0
   21.9926   24.2748   21.5052 C   0  0  0  0  0  0  0  0  0  0  0  0
   20.7510   25.1466   21.8144 C   0  0  0  0  0  0  0  0  0  0  0  0
   19.6849   24.0892   21.6636 C   0  0  0  0  0  0  0  0  0  0  0  0
   20.4749   25.0010   15.1931 C   0  0  0  0  0  0  0  0  0  0  0  0
   20.5513   27.3150   14.2093 C   0  0  0  0  0  0  0  0  0  0  0  0
   21.1623   28.5772   14.0744 C   0  0  0  0  0  0  0  0  0  0  0  0
   22.3585   28.8377   14.7535 C   0  0  0  0  0  0  0  0  0  0  0  0
   22.9341   27.9075   15.6097 C   0  0  0  0  0  0  0  0  0  0  0  0
   22.3191   26.6495   15.7886 C   0  0  0  0  0  0  0  0  0  0  0  0
   21.1254   26.3780   15.0773 C   0  0  0  0  0  0  0  0  0  0  0  0
  9 10  1  0  0  0
 10 11  2  0  0  0
 10 15  1  0  0  0
 11 12  1  0  0  0
 12 13  2  0  0  0
 13 14  1  0  0  0
 13  6  1  0  0  0
 14 15  2  0  0  0
  6  7  2  0  0  0
  6  8  2  0  0  0
  6  5  1  0  0  0
  5 18  1  0  0  0
  5  4  1  0  0  0
 18 19  1  0  0  0
 19 20  1  0  0  0
 19 21  1  0  0  0
  4  1  1  0  0  0
  1  2  1  0  0  0
  1 22  1  0  0  0
 22 23  1  0  0  0
 22 36  1  0  0  0
 23 24  1  0  0  0
 24 25  2  0  0  0
 24 27  1  0  0  0
 27 28  1  0  0  0
 28 29  1  0  0  0
 28 35  1  0  0  0
 29 30  1  0  0  0
 30 31  1  0  0  0
 31 32  1  0  0  0
 31 35  1  0  0  0
 32 33  1  0  0  0
 33 34  1  0  0  0
 34 35  1  0  0  0
 36 42  1  0  0  0
 37 38  2  0  0  0
 37 42  1  0  0  0
 38 39  1  0  0  0
 39 40  2  0  0  0
 40 41  1  0  0  0
 41 42  2  0  0  0
  9 16  1  0  0  0
  9 17  1  0  0  0
  2  3  1  0  0  0
 23 26  1  0  0  0
M  END
> <minimizedAffinity>
-9.75628

$$$$
3D1Z_017_B_201


 42 45  0  0  0  0  0  0  0  0999 V2000
   16.4836   23.7384   15.7864 C   0  0  0  0  0  0  0  0  0  0  0  0
   15.4249   24.3186   16.5486 O   0  0  0  0  0  0  0  0  0  0  0  0
   15.6644   24.3167   17.4885 H   0  0  0  0  0  0  0  0  0  0  0  0
   16.6736   22.2651   16.2625 C   0  0  0  0  0  0  0  0  0  0  0  0
   15.3247   21.6511   16.5312 N   0  0  0  0  0  0  0  0  0  0  0  0
   14.9002   21.6165   18.2755 S   0  0  0  0  0  0  0  0  0  0  0  0
   14.1212   22.9181   18.5781 O   0  0  0  0  0  0  0  0  0  0  0  0
   16.2683   21.3392   19.0148 O   0  0  0  0  0  0  0  0  0  0  0  0
   11.1175   17.2861   19.7605 N   0  0  0  0  0  0  0  0  0  0  0  0
   11.9801   18.2725   19.3742 C   0  0  0  0  0  0  0  0  0  0  0  0
   13.2156   18.3866   20.0146 C   0  0  0  0  0  0  0  0  0  0  0  0
   14.1201   19.3789   19.6695 C   0  0  0  0  0  0  0  0  0  0  0  0
   13.7796   20.2056   18.6043 C   0  0  0  0  0  0  0  0  0  0  0  0
   12.5301   20.1884   17.9657 C   0  0  0  0  0  0  0  0  0  0  0  0
   11.6464   19.1427   18.3211 C   0  0  0  0  0  0  0  0  0  0  0  0
   11.3598   16.6816   20.4988 H   0  0  0  0  0  0  0  0  0  0  0  0
   10.2536   17.1797   19.3005 H   0  0  0  0  0  0  0  0  0  0  0  0
   14.2335   21.9345   15.5685 C   0  0  0  0  0  0  0  0  0  0  0  0
   14.1698   20.8077   14.4955 C   0  0  0  0  0  0  0  0  0  0  0  0
   12.7243   20.4447   14.1742 C   0  0  0  0  0  0  0  0  0  0  0  0
   14.8473   21.3774   13.2534 C   0  0  0  0  0  0  0  0  0  0  0  0
   17.7746   24.6114   15.9792 C   0  0  0  0  0  0  0  0  0  0  0  0
   18.4660   24.0369   17.0927 N   0  0  0  0  0  0  0  0  0  0  0  0
   18.1114   24.2436   18.3752 C   0  0  0  0  0  0  0  0  0  0  0  0
   17.1307   24.9258   18.8119 O   0  0  0  0  0  0  0  0  0  0  0  0
   19.2426   23.4596   16.9114 H   0  0  0  0  0  0  0  0  0  0  0  0
   19.0026   23.5812   19.2261 O   0  0  0  0  0  0  0  0  0  0  0  0
   18.6038   23.4948   20.6401 C   0  0  0  0  0  0  0  0  0  0  0  0
   18.8008   22.0326   21.0877 C   0  0  0  0  0  0  0  0  0  0  0  0
   20.2354   21.8672   21.1764 O   0  0  0  0  0  0  0  0  0  0  0  0
   20.7065   23.1508   21.6539 C   0  0  0  0  0  0  0  0  0  0  0  0
   21.8873   23.4733   20.8983 O   0  0  0  0  0  0  0  0  0  0  0  0
   21.5551   24.6925   20.1813 C   0  0  0  0  0  0  0  0  0  0  0  0
   20.4582   25.3943   21.0188 C   0  0  0  0  0  0  0  0  0  0  0  0
   19.6866   24.1731   21.4556 C   0  0  0  0  0  0  0  0  0  0  0  0
   18.7497   24.6237   14.7535 C   0  0  0  0  0  0  0  0  0  0  0  0
   21.0571   25.4917   15.2539 C   0  0  0  0  0  0  0  0  0  0  0  0
   21.9923   26.5438   15.3122 C   0  0  0  0  0  0  0  0  0  0  0  0
   21.5912   27.8396   14.9659 C   0  0  0  0  0  0  0  0  0  0  0  0
   20.3095   28.1129   14.5053 C   0  0  0  0  0  0  0  0  0  0  0  0
   19.3667   27.0671   14.4036 C   0  0  0  0  0  0  0  0  0  0  0  0
   19.7665   25.7629   14.7830 C   0  0  0  0  0  0  0  0  0  0  0  0
  9 10  1  0  0  0
 10 11  2  0  0  0
 10 15  1  0  0  0
 11 12  1  0  0  0
 12 13  2  0  0  0
 13 14  1  0  0  0
 13  6  1  0  0  0
 14 15  2  0  0  0
  6  7  2  0  0  0
  6  8  2  0  0  0
  6  5  1  0  0  0
  5 18  1  0  0  0
  5  4  1  0  0  0
 18 19  1  0  0  0
 19 20  1  0  0  0
 19 21  1  0  0  0
  4  1  1  0  0  0
  1  2  1  0  0  0
  1 22  1  0  0  0
 22 23  1  0  0  0
 22 36  1  0  0  0
 23 24  1  0  0  0
 24 25  2  0  0  0
 24 27  1  0  0  0
 27 28  1  0  0  0
 28 29  1  0  0  0
 28 35  1  0  0  0
 29 30  1  0  0  0
 30 31  1  0  0  0
 31 32  1  0  0  0
 31 35  1  0  0  0
 32 33  1  0  0  0
 33 34  1  0  0  0
 34 35  1  0  0  0
 36 42  1  0  0  0
 37 38  2  0  0  0
 37 42  1  0  0  0
 38 39  1  0  0  0
 39 40  2  0  0  0
 40 41  1  0  0  0
 41 42  2  0  0  0
  9 16  1  0  0  0
  9 17  1  0  0  0
  2  3  1  0  0  0
 23 26  1  0  0  0
M  END
> <minimizedAffinity>
-9.71939

$$$$
3D1Z_017_B_201


 42 45  0  0  0  0  0  0  0  0999 V2000
   17.0429   21.4970   17.0892 C   0  0  0  0  0  0  0  0  0  0  0  0
   17.7957   20.2906   16.9597 O   0  0  0  0  0  0  0  0  0  0  0  0
   18.6491   20.3922   17.4094 H   0  0  0  0  0  0  0  0  0  0  0  0
   17.8468   22.6465   16.4066 C   0  0  0  0  0  0  0  0  0  0  0  0
   16.8860   23.6117   15.7633 N   0  0  0  0  0  0  0  0  0  0  0  0
   17.2905   25.3309   16.0871 S   0  0  0  0  0  0  0  0  0  0  0  0
   16.7182   25.6760   17.4821 O   0  0  0  0  0  0  0  0  0  0  0  0
   16.7673   26.1110   14.8171 O   0  0  0  0  0  0  0  0  0  0  0  0
   23.1313   26.4037   16.0913 N   0  0  0  0  0  0  0  0  0  0  0  0
   21.7925   26.1351   16.1310 C   0  0  0  0  0  0  0  0  0  0  0  0
   21.1604   25.6503   14.9842 C   0  0  0  0  0  0  0  0  0  0  0  0
   19.8016   25.3759   14.9687 C   0  0  0  0  0  0  0  0  0  0  0  0
   19.1098   25.5268   16.1656 C   0  0  0  0  0  0  0  0  0  0  0  0
   19.6682   26.0733   17.3313 C   0  0  0  0  0  0  0  0  0  0  0  0
   21.0627   26.3102   17.3203 C   0  0  0  0  0  0  0  0  0  0  0  0
   23.6339   26.2781   15.2541 H   0  0  0  0  0  0  0  0  0  0  0  0
   23.5935   26.7228   16.8998 H   0  0  0  0  0  0  0  0  0  0  0  0
   16.3675   23.2744   14.4161 C   0  0  0  0  0  0  0  0  0  0  0  0
   15.2312   22.2163   14.5371 C   0  0  0  0  0  0  0  0  0  0  0  0
   13.9280   22.8677   14.9863 C   0  0  0  0  0  0  0  0  0  0  0  0
   15.0598   21.6285   13.1401 C   0  0  0  0  0  0  0  0  0  0  0  0
   16.7803   21.7607   18.6148 C   0  0  0  0  0  0  0  0  0  0  0  0
   15.5272   21.1332   18.9046 N   0  0  0  0  0  0  0  0  0  0  0  0
   14.3535   21.7929   18.9298 C   0  0  0  0  0  0  0  0  0  0  0  0
   14.1462   23.0235   18.6842 O   0  0  0  0  0  0  0  0  0  0  0  0
   15.5229   20.1675   19.0957 H   0  0  0  0  0  0  0  0  0  0  0  0
   13.3233   20.9140   19.2811 O   0  0  0  0  0  0  0  0  0  0  0  0
   13.7007   19.4987   19.4233 C   0  0  0  0  0  0  0  0  0  0  0  0
   13.0809   18.9845   20.7380 C   0  0  0  0  0  0  0  0  0  0  0  0
   11.6644   18.8845   20.4602 O   0  0  0  0  0  0  0  0  0  0  0  0
   11.6086   18.4645   19.0753 C   0  0  0  0  0  0  0  0  0  0  0  0
   10.5671   19.2307   18.4449 O   0  0  0  0  0  0  0  0  0  0  0  0
   11.2385   20.0034   17.4137 C   0  0  0  0  0  0  0  0  0  0  0  0
   12.5091   19.2016   17.0396 C   0  0  0  0  0  0  0  0  0  0  0  0
   12.8852   18.7119   18.4166 C   0  0  0  0  0  0  0  0  0  0  0  0
   17.8593   21.1642   19.5809 C   0  0  0  0  0  0  0  0  0  0  0  0
   18.4214   23.5627   20.0900 C   0  0  0  0  0  0  0  0  0  0  0  0
   19.1078   24.5341   20.8450 C   0  0  0  0  0  0  0  0  0  0  0  0
   19.9810   24.1248   21.8598 C   0  0  0  0  0  0  0  0  0  0  0  0
   20.1473   22.7857   22.1894 C   0  0  0  0  0  0  0  0  0  0  0  0
   19.4412   21.7972   21.4704 C   0  0  0  0  0  0  0  0  0  0  0  0
   18.5816   22.2123   20.4247 C   0  0  0  0  0  0  0  0  0  0  0  0
  9 10  1  0  0  0
 10 11  2  0  0  0
 10 15  1  0  0  0
 11 12  1  0  0  0
 12 13  2  0  0  0
 13 14  1  0  0  0
 13  6  1  0  0  0
 14 15  2  0  0  0
  6  7  2  0  0  0
  6  8  2  0  0  0
  6  5  1  0  0  0
  5 18  1  0  0  0
  5  4  1  0  0  0
 18 19  1  0  0  0
 19 20  1  0  0  0
 19 21  1  0  0  0
  4  1  1  0  0  0
  1  2  1  0  0  0
  1 22  1  0  0  0
 22 23  1  0  0  0
 22 36  1  0  0  0
 23 24  1  0  0  0
 24 25  2  0  0  0
 24 27  1  0  0  0
 27 28  1  0  0  0
 28 29  1  0  0  0
 28 35  1  0  0  0
 29 30  1  0  0  0
 30 31  1  0  0  0
 31 32  1  0  0  0
 31 35  1  0  0  0
 32 33  1  0  0  0
 33 34  1  0  0  0
 34 35  1  0  0  0
 36 42  1  0  0  0
 37 38  2  0  0  0
 37 42  1  0  0  0
 38 39  1  0  0  0
 39 40  2  0  0  0
 40 41  1  0  0  0
 41 42  2  0  0  0
  9 16  1  0  0  0
  9 17  1  0  0  0
  2  3  1  0  0  0
 23 26  1  0  0  0
M  END
> <minimizedAffinity>
-9.52951

$$$$
3D1Z_017_B_201


 42 45  0  0  0  0  0  0  0  0999 V2000
   18.1953   23.4438   19.2829 C   0  0  0  0  0  0  0  0  0  0  0  0
   17.0696   23.5654   20.1527 O   0  0  0  0  0  0  0  0  0  0  0  0
   16.5091   24.2991   19.8554 H   0  0  0  0  0  0  0  0  0  0  0  0
   19.0105   24.7718   19.3553 C   0  0  0  0  0  0  0  0  0  0  0  0
   20.4807   24.4591   19.2590 N   0  0  0  0  0  0  0  0  0  0  0  0
   21.5142   25.9272   19.2359 S   0  0  0  0  0  0  0  0  0  0  0  0
   22.9474   25.4782   19.6062 O   0  0  0  0  0  0  0  0  0  0  0  0
   20.7600   26.9620   20.1609 O   0  0  0  0  0  0  0  0  0  0  0  0
   21.7065   28.6114   13.9421 N   0  0  0  0  0  0  0  0  0  0  0  0
   21.6844   27.9576   15.1414 C   0  0  0  0  0  0  0  0  0  0  0  0
   20.5017   27.9344   15.8833 C   0  0  0  0  0  0  0  0  0  0  0  0
   20.4315   27.2971   17.1124 C   0  0  0  0  0  0  0  0  0  0  0  0
   21.5647   26.6129   17.5384 C   0  0  0  0  0  0  0  0  0  0  0  0
   22.8014   26.6539   16.8763 C   0  0  0  0  0  0  0  0  0  0  0  0
   22.8268   27.2850   15.6107 C   0  0  0  0  0  0  0  0  0  0  0  0
   20.9019   29.0795   13.6218 H   0  0  0  0  0  0  0  0  0  0  0  0
   22.5271   28.6144   13.3982 H   0  0  0  0  0  0  0  0  0  0  0  0
   20.9856   23.2804   20.0030 C   0  0  0  0  0  0  0  0  0  0  0  0
   20.8092   23.5066   21.5338 C   0  0  0  0  0  0  0  0  0  0  0  0
   20.1158   22.3140   22.1827 C   0  0  0  0  0  0  0  0  0  0  0  0
   22.2188   23.6539   22.0975 C   0  0  0  0  0  0  0  0  0  0  0  0
   17.6761   23.1267   17.8352 C   0  0  0  0  0  0  0  0  0  0  0  0
   16.6399   22.1536   18.0016 N   0  0  0  0  0  0  0  0  0  0  0  0
   16.6594   20.9396   17.4193 C   0  0  0  0  0  0  0  0  0  0  0  0
   17.5673   20.4459   16.6778 O   0  0  0  0  0  0  0  0  0  0  0  0
   15.8717   22.3841   18.5724 H   0  0  0  0  0  0  0  0  0  0  0  0
   15.4920   20.2400   17.7426 O   0  0  0  0  0  0  0  0  0  0  0  0
   14.3199   21.0611   18.0860 C   0  0  0  0  0  0  0  0  0  0  0  0
   13.4643   21.2020   16.8111 C   0  0  0  0  0  0  0  0  0  0  0  0
   12.8656   19.8978   16.6263 O   0  0  0  0  0  0  0  0  0  0  0  0
   12.6146   19.4340   17.9752 C   0  0  0  0  0  0  0  0  0  0  0  0
   12.9934   18.0470   18.0204 O   0  0  0  0  0  0  0  0  0  0  0  0
   14.0739   17.9824   18.9896 C   0  0  0  0  0  0  0  0  0  0  0  0
   13.8627   19.1828   19.9443 C   0  0  0  0  0  0  0  0  0  0  0  0
   13.4010   20.2025   18.9321 C   0  0  0  0  0  0  0  0  0  0  0  0
   17.0747   24.3530   17.0685 C   0  0  0  0  0  0  0  0  0  0  0  0
   17.3348   25.6964   14.9577 C   0  0  0  0  0  0  0  0  0  0  0  0
   18.0874   26.0948   13.8353 C   0  0  0  0  0  0  0  0  0  0  0  0
   19.3555   25.5398   13.6261 C   0  0  0  0  0  0  0  0  0  0  0  0
   19.9250   24.6495   14.5274 C   0  0  0  0  0  0  0  0  0  0  0  0
   19.2038   24.2646   15.6784 C   0  0  0  0  0  0  0  0  0  0  0  0
   17.9093   24.8046   15.8718 C   0  0  0  0  0  0  0  0  0  0  0  0
  9 10  1  0  0  0
 10 11  2  0  0  0
 10 15  1  0  0  0
 11 12  1  0  0  0
 12 13  2  0  0  0
 13 14  1  0  0  0
 13  6  1  0  0  0
 14 15  2  0  0  0
  6  7  2  0  0  0
  6  8  2  0  0  0
  6  5  1  0  0  0
  5 18  1  0  0  0
  5  4  1  0  0  0
 18 19  1  0  0  0
 19 20  1  0  0  0
 19 21  1  0  0  0
  4  1  1  0  0  0
  1  2  1  0  0  0
  1 22  1  0  0  0
 22 23  1  0  0  0
 22 36  1  0  0  0
 23 24  1  0  0  0
 24 25  2  0  0  0
 24 27  1  0  0  0
 27 28  1  0  0  0
 28 29  1  0  0  0
 28 35  1  0  0  0
 29 30  1  0  0  0
 30 31  1  0  0  0
 31 32  1  0  0  0
 31 35  1  0  0  0
 32 33  1  0  0  0
 33 34  1  0  0  0
 34 35  1  0  0  0
 36 42  1  0  0  0
 37 38  2  0  0  0
 37 42  1  0  0  0
 38 39  1  0  0  0
 39 40  2  0  0  0
 40 41  1  0  0  0
 41 42  2  0  0  0
  9 16  1  0  0  0
  9 17  1  0  0  0
  2  3  1  0  0  0
 23 26  1  0  0  0
M  END
> <minimizedAffinity>
-9.52118

$$$$
3D1Z_017_B_201


 42 45  0  0  0  0  0  0  0  0999 V2000
   17.3724   21.8667   17.1487 C   0  0  0  0  0  0  0  0  0  0  0  0
   17.8767   20.5803   16.7890 O   0  0  0  0  0  0  0  0  0  0  0  0
   18.5637   20.3143   17.4200 H   0  0  0  0  0  0  0  0  0  0  0  0
   18.5510   22.8864   17.0811 C   0  0  0  0  0  0  0  0  0  0  0  0
   18.3788   23.7665   15.8709 N   0  0  0  0  0  0  0  0  0  0  0  0
   16.7851   24.5919   15.8201 S   0  0  0  0  0  0  0  0  0  0  0  0
   16.9133   25.7633   14.8181 O   0  0  0  0  0  0  0  0  0  0  0  0
   16.4434   24.8958   17.3321 O   0  0  0  0  0  0  0  0  0  0  0  0
   12.9044   20.4861   13.9901 N   0  0  0  0  0  0  0  0  0  0  0  0
   13.7636   21.4625   14.4080 C   0  0  0  0  0  0  0  0  0  0  0  0
   15.0436   21.5268   13.8537 C   0  0  0  0  0  0  0  0  0  0  0  0
   15.9574   22.4895   14.2539 C   0  0  0  0  0  0  0  0  0  0  0  0
   15.5192   23.4381   15.1715 C   0  0  0  0  0  0  0  0  0  0  0  0
   14.2736   23.3897   15.8161 C   0  0  0  0  0  0  0  0  0  0  0  0
   13.3562   22.4149   15.3591 C   0  0  0  0  0  0  0  0  0  0  0  0
   13.1985   19.8237   13.3238 H   0  0  0  0  0  0  0  0  0  0  0  0
   11.9910   20.4449   14.3553 H   0  0  0  0  0  0  0  0  0  0  0  0
   19.5587   24.5305   15.3998 C   0  0  0  0  0  0  0  0  0  0  0  0
   19.6095   25.9154   16.1103 C   0  0  0  0  0  0  0  0  0  0  0  0
   20.4089   25.8323   17.4057 C   0  0  0  0  0  0  0  0  0  0  0  0
   20.3050   26.8584   15.1339 C   0  0  0  0  0  0  0  0  0  0  0  0
   16.7325   21.7703   18.5795 C   0  0  0  0  0  0  0  0  0  0  0  0
   15.5974   20.9104   18.4372 N   0  0  0  0  0  0  0  0  0  0  0  0
   14.3442   21.2716   18.7723 C   0  0  0  0  0  0  0  0  0  0  0  0
   13.9516   22.3938   19.2245 O   0  0  0  0  0  0  0  0  0  0  0  0
   15.7404   20.0063   18.0748 H   0  0  0  0  0  0  0  0  0  0  0  0
   13.4684   20.2028   18.5538 O   0  0  0  0  0  0  0  0  0  0  0  0
   13.9480   18.8769   18.9754 C   0  0  0  0  0  0  0  0  0  0  0  0
   14.0235   18.8805   20.5154 C   0  0  0  0  0  0  0  0  0  0  0  0
   12.6437   18.8456   20.9494 O   0  0  0  0  0  0  0  0  0  0  0  0
   11.9882   18.0112   19.9639 C   0  0  0  0  0  0  0  0  0  0  0  0
   10.7327   18.6390   19.6491 O   0  0  0  0  0  0  0  0  0  0  0  0
   10.8174   18.9644   18.2356 C   0  0  0  0  0  0  0  0  0  0  0  0
   11.8219   17.9563   17.6256 C   0  0  0  0  0  0  0  0  0  0  0  0
   12.8096   17.8985   18.7651 C   0  0  0  0  0  0  0  0  0  0  0  0
   17.6685   21.1642   19.6794 C   0  0  0  0  0  0  0  0  0  0  0  0
   19.5288   21.7711   21.2603 C   0  0  0  0  0  0  0  0  0  0  0  0
   20.2560   22.7248   21.9995 C   0  0  0  0  0  0  0  0  0  0  0  0
   19.8634   24.0680   21.9623 C   0  0  0  0  0  0  0  0  0  0  0  0
   18.8110   24.5035   21.1671 C   0  0  0  0  0  0  0  0  0  0  0  0
   18.0915   23.5706   20.3893 C   0  0  0  0  0  0  0  0  0  0  0  0
   18.4719   22.2082   20.4522 C   0  0  0  0  0  0  0  0  0  0  0  0
  9 10  1  0  0  0
 10 11  2  0  0  0
 10 15  1  0  0  0
 11 12  1  0  0  0
 12 13  2  0  0  0
 13 14  1  0  0  0
 13  6  1  0  0  0
 14 15  2  0  0  0
  6  7  2  0  0  0
  6  8  2  0  0  0
  6  5  1  0  0  0
  5 18  1  0  0  0
  5  4  1  0  0  0
 18 19  1  0  0  0
 19 20  1  0  0  0
 19 21  1  0  0  0
  4  1  1  0  0  0
  1  2  1  0  0  0
  1 22  1  0  0  0
 22 23  1  0  0  0
 22 36  1  0  0  0
 23 24  1  0  0  0
 24 25  2  0  0  0
 24 27  1  0  0  0
 27 28  1  0  0  0
 28 29  1  0  0  0
 28 35  1  0  0  0
 29 30  1  0  0  0
 30 31  1  0  0  0
 31 32  1  0  0  0
 31 35  1  0  0  0
 32 33  1  0  0  0
 33 34  1  0  0  0
 34 35  1  0  0  0
 36 42  1  0  0  0
 37 38  2  0  0  0
 37 42  1  0  0  0
 38 39  1  0  0  0
 39 40  2  0  0  0
 40 41  1  0  0  0
 41 42  2  0  0  0
  9 16  1  0  0  0
  9 17  1  0  0  0
  2  3  1  0  0  0
 23 26  1  0  0  0
M  END
> <minimizedAffinity>
-9.27309

$$$$
3D1Z_017_B_201


 42 45  0  0  0  0  0  0  0  0999 V2000
   16.5426   22.9459   16.1626 C   0  0  0  0  0  0  0  0  0  0  0  0
   16.9144   22.0901   15.0817 O   0  0  0  0  0  0  0  0  0  0  0  0
   16.6435   22.4934   14.2422 H   0  0  0  0  0  0  0  0  0  0  0  0
   14.9905   23.1010   16.1471 C   0  0  0  0  0  0  0  0  0  0  0  0
   14.3539   21.7624   16.4147 N   0  0  0  0  0  0  0  0  0  0  0  0
   14.5379   21.2213   18.1168 S   0  0  0  0  0  0  0  0  0  0  0  0
   14.0614   22.3859   19.0164 O   0  0  0  0  0  0  0  0  0  0  0  0
   16.0329   20.7216   18.2183 O   0  0  0  0  0  0  0  0  0  0  0  0
   10.8762   16.5733   18.6203 N   0  0  0  0  0  0  0  0  0  0  0  0
   11.7430   17.6260   18.5402 C   0  0  0  0  0  0  0  0  0  0  0  0
   11.2344   18.9178   18.3907 C   0  0  0  0  0  0  0  0  0  0  0  0
   12.0722   20.0177   18.2904 C   0  0  0  0  0  0  0  0  0  0  0  0
   13.4374   19.7903   18.4259 C   0  0  0  0  0  0  0  0  0  0  0  0
   14.0161   18.5145   18.5088 C   0  0  0  0  0  0  0  0  0  0  0  0
   13.1304   17.4196   18.6417 C   0  0  0  0  0  0  0  0  0  0  0  0
    9.9065   16.7275   18.5481 H   0  0  0  0  0  0  0  0  0  0  0  0
   11.2211   15.6604   18.7502 H   0  0  0  0  0  0  0  0  0  0  0  0
   13.0699   21.4613   15.7376 C   0  0  0  0  0  0  0  0  0  0  0  0
   13.2430   20.2297   14.8003 C   0  0  0  0  0  0  0  0  0  0  0  0
   11.8876   19.6794   14.3708 C   0  0  0  0  0  0  0  0  0  0  0  0
   14.0036   20.7390   13.5803 C   0  0  0  0  0  0  0  0  0  0  0  0
   17.2928   24.3154   15.9962 C   0  0  0  0  0  0  0  0  0  0  0  0
   18.1276   24.4407   17.1519 N   0  0  0  0  0  0  0  0  0  0  0  0
   17.6532   24.6772   18.3898 C   0  0  0  0  0  0  0  0  0  0  0  0
   16.4389   24.7963   18.7490 O   0  0  0  0  0  0  0  0  0  0  0  0
   19.1009   24.3491   17.0356 H   0  0  0  0  0  0  0  0  0  0  0  0
   18.7166   24.7852   19.2923 O   0  0  0  0  0  0  0  0  0  0  0  0
   20.0640   24.6029   18.7291 C   0  0  0  0  0  0  0  0  0  0  0  0
   20.7557   25.9808   18.7289 C   0  0  0  0  0  0  0  0  0  0  0  0
   21.0517   26.2418   20.1210 O   0  0  0  0  0  0  0  0  0  0  0  0
   21.3795   24.9379   20.6591 C   0  0  0  0  0  0  0  0  0  0  0  0
   20.7401   24.8401   21.9440 O   0  0  0  0  0  0  0  0  0  0  0  0
   19.8052   23.7352   21.8171 C   0  0  0  0  0  0  0  0  0  0  0  0
   20.3759   22.8192   20.7069 C   0  0  0  0  0  0  0  0  0  0  0  0
   20.8954   23.8857   19.7741 C   0  0  0  0  0  0  0  0  0  0  0  0
   18.2017   24.4175   14.7248 C   0  0  0  0  0  0  0  0  0  0  0  0
   19.0038   26.7997   14.6238 C   0  0  0  0  0  0  0  0  0  0  0  0
   20.0338   27.7576   14.7025 C   0  0  0  0  0  0  0  0  0  0  0  0
   21.3492   27.3352   14.9285 C   0  0  0  0  0  0  0  0  0  0  0  0
   21.6652   25.9992   15.1399 C   0  0  0  0  0  0  0  0  0  0  0  0
   20.6431   25.0260   15.1022 C   0  0  0  0  0  0  0  0  0  0  0  0
   19.3182   25.4529   14.8437 C   0  0  0  0  0  0  0  0  0  0  0  0
  9 10  1  0  0  0
 10 11  2  0  0  0
 10 15  1  0  0  0
 11 12  1  0  0  0
 12 13  2  0  0  0
 13 14  1  0  0  0
 13  6  1  0  0  0
 14 15  2  0  0  0
  6  7  2  0  0  0
  6  8  2  0  0  0
  6  5  1  0  0  0
  5 18  1  0  0  0
  5  4  1  0  0  0
 18 19  1  0  0  0
 19 20  1  0  0  0
 19 21  1  0  0  0
  4  1  1  0  0  0
  1  2  1  0  0  0
  1 22  1  0  0  0
 22 23  1  0  0  0
 22 36  1  0  0  0
 23 24  1  0  0  0
 24 25  2  0  0  0
 24 27  1  0  0  0
 27 28  1  0  0  0
 28 29  1  0  0  0
 28 35  1  0  0  0
 29 30  1  0  0  0
 30 31  1  0  0  0
 31 32  1  0  0  0
 31 35  1  0  0  0
 32 33  1  0  0  0
 33 34  1  0  0  0
 34 35  1  0  0  0
 36 42  1  0  0  0
 37 38  2  0  0  0
 37 42  1  0  0  0
 38 39  1  0  0  0
 39 40  2  0  0  0
 40 41  1  0  0  0
 41 42  2  0  0  0
  9 16  1  0  0  0
  9 17  1  0  0  0
  2  3  1  0  0  0
 23 26  1  0  0  0
M  END
> <minimizedAffinity>
-9.25915

$$$$
