5K1D_5GP_A_401


 31 33  0  0  0  0  0  0  0  0999 V2000
   -2.2800    2.1411   19.4531 C   0  0  0  0  0  0  0  0  0  0  0  0
   -2.1298    0.9437   20.2667 O   0  0  0  0  0  0  0  0  0  0  0  0
   -1.1511    2.1072   18.4197 C   0  0  0  0  0  0  0  0  0  0  0  0
   -0.0661    2.9135   18.8783 O   0  0  0  0  0  0  0  0  0  0  0  0
   -0.7376    0.6332   18.4122 C   0  0  0  0  0  0  0  0  0  0  0  0
    0.5945    0.4039   18.0052 O   0  0  0  0  0  0  0  0  0  0  0  0
   -0.9606    0.2505   19.8720 C   0  0  0  0  0  0  0  0  0  0  0  0
    0.2171    2.6069   19.7539 H   0  0  0  0  0  0  0  0  0  0  0  0
    1.1989    0.8891   18.5886 H   0  0  0  0  0  0  0  0  0  0  0  0
   -1.1717   -1.1836   20.1156 N   0  0  0  0  0  0  0  0  0  0  0  0
   -2.3043   -1.7679   20.5426 C   0  0  0  0  0  0  0  0  0  0  0  0
   -2.1001   -3.0989   20.6548 N   0  0  0  0  0  0  0  0  0  0  0  0
   -0.8214   -3.3513   20.2932 C   0  0  0  0  0  0  0  0  0  0  0  0
   -0.0562   -4.5184   20.2188 C   0  0  0  0  0  0  0  0  0  0  0  0
   -0.5622   -5.6284   20.5157 O   0  0  0  0  0  0  0  0  0  0  0  0
    1.2280   -4.4439   19.8257 N   0  0  0  0  0  0  0  0  0  0  0  0
    1.7826   -3.2602   19.5012 C   0  0  0  0  0  0  0  0  0  0  0  0
    3.0788   -3.2201   19.0998 N   0  0  0  0  0  0  0  0  0  0  0  0
    1.0609   -2.1083   19.5633 N   0  0  0  0  0  0  0  0  0  0  0  0
   -0.2382   -2.1350   19.9674 C   0  0  0  0  0  0  0  0  0  0  0  0
    1.7692   -5.2647   19.7745 H   0  0  0  0  0  0  0  0  0  0  0  0
    3.6055   -4.0505   19.0530 H   0  0  0  0  0  0  0  0  0  0  0  0
    3.4920   -2.3606   18.8554 H   0  0  0  0  0  0  0  0  0  0  0  0
   -3.6791    2.1888   18.8795 C   0  0  0  0  0  0  0  0  0  0  0  0
   -3.8789    3.2889   17.9951 O   0  0  0  0  0  0  0  0  0  0  0  0
   -5.1882    4.2004   18.1124 P   0  0  0  0  0  0  0  0  0  0  0  0
   -6.3237    3.1978   17.9100 O   0  0  0  0  0  0  0  0  0  0  0  0
   -4.9983    5.2387   17.0323 O   0  0  0  0  0  0  0  0  0  0  0  0
   -5.0986    4.8421   19.4810 O   0  0  0  0  0  0  0  0  0  0  0  0
   -5.7560    5.8443   17.0293 H   0  0  0  0  0  0  0  0  0  0  0  0
   -5.8690    5.4146   19.6207 H   0  0  0  0  0  0  0  0  0  0  0  0
 26 27  2  0  0  0
 26 28  1  0  0  0
 26 29  1  0  0  0
 26 25  1  0  0  0
 25 24  1  0  0  0
 24  1  1  0  0  0
  1  2  1  0  0  0
  1  3  1  0  0  0
  2  7  1  0  0  0
  3  4  1  0  0  0
  3  5  1  0  0  0
  5  6  1  0  0  0
  5  7  1  0  0  0
  7 10  1  0  0  0
 10 11  1  0  0  0
 10 20  1  0  0  0
 11 12  2  0  0  0
 12 13  1  0  0  0
 13 14  1  0  0  0
 13 20  2  0  0  0
 14 15  2  0  0  0
 14 16  1  0  0  0
 16 17  1  0  0  0
 17 18  1  0  0  0
 17 19  2  0  0  0
 19 20  1  0  0  0
 28 30  1  0  0  0
 29 31  1  0  0  0
  4  8  1  0  0  0
  6  9  1  0  0  0
 16 21  1  0  0  0
 18 22  1  0  0  0
 18 23  1  0  0  0
M  END
> <minimizedAffinity>
-8.74505

$$$$
5K1D_5GP_A_401


 31 33  0  0  0  0  0  0  0  0999 V2000
   -1.9151   -0.3155   21.1601 C   0  0  0  0  0  0  0  0  0  0  0  0
   -1.8583   -1.3285   20.1165 O   0  0  0  0  0  0  0  0  0  0  0  0
   -0.5745   -0.3768   21.8968 C   0  0  0  0  0  0  0  0  0  0  0  0
   -0.7175   -1.1727   23.0731 O   0  0  0  0  0  0  0  0  0  0  0  0
    0.3357   -1.0897   20.8932 C   0  0  0  0  0  0  0  0  0  0  0  0
    1.4250   -1.7718   21.4771 O   0  0  0  0  0  0  0  0  0  0  0  0
   -0.6450   -2.0490   20.2260 C   0  0  0  0  0  0  0  0  0  0  0  0
   -1.0534   -2.0500   22.8311 H   0  0  0  0  0  0  0  0  0  0  0  0
    1.0939   -2.4275   22.1105 H   0  0  0  0  0  0  0  0  0  0  0  0
   -0.2570   -2.5034   18.8830 N   0  0  0  0  0  0  0  0  0  0  0  0
   -0.9827   -2.3942   17.7570 C   0  0  0  0  0  0  0  0  0  0  0  0
   -0.2915   -2.9376   16.7309 N   0  0  0  0  0  0  0  0  0  0  0  0
    0.8835   -3.3937   17.2217 C   0  0  0  0  0  0  0  0  0  0  0  0
    1.9783   -4.0436   16.6454 C   0  0  0  0  0  0  0  0  0  0  0  0
    1.9887   -4.2998   15.4163 O   0  0  0  0  0  0  0  0  0  0  0  0
    3.0226   -4.3928   17.4179 N   0  0  0  0  0  0  0  0  0  0  0  0
    3.0261   -4.1212   18.7371 C   0  0  0  0  0  0  0  0  0  0  0  0
    4.0993   -4.4789   19.4875 N   0  0  0  0  0  0  0  0  0  0  0  0
    1.9744   -3.4885   19.3246 N   0  0  0  0  0  0  0  0  0  0  0  0
    0.8914   -3.1279   18.5837 C   0  0  0  0  0  0  0  0  0  0  0  0
    3.7939   -4.8524   17.0140 H   0  0  0  0  0  0  0  0  0  0  0  0
    4.8629   -4.9370   19.0676 H   0  0  0  0  0  0  0  0  0  0  0  0
    4.1139   -4.2803   20.4517 H   0  0  0  0  0  0  0  0  0  0  0  0
   -2.2526    1.0245   20.5443 C   0  0  0  0  0  0  0  0  0  0  0  0
   -1.9994    1.0703   19.1422 O   0  0  0  0  0  0  0  0  0  0  0  0
   -0.8001    1.9545   18.5600 P   0  0  0  0  0  0  0  0  0  0  0  0
   -0.3587    2.7747   19.7716 O   0  0  0  0  0  0  0  0  0  0  0  0
   -1.4371    2.7144   17.4209 O   0  0  0  0  0  0  0  0  0  0  0  0
    0.2038    0.9533   18.0285 O   0  0  0  0  0  0  0  0  0  0  0  0
   -0.7740    3.2854   17.0023 H   0  0  0  0  0  0  0  0  0  0  0  0
    0.9652    1.4252   17.6566 H   0  0  0  0  0  0  0  0  0  0  0  0
 26 27  2  0  0  0
 26 28  1  0  0  0
 26 29  1  0  0  0
 26 25  1  0  0  0
 25 24  1  0  0  0
 24  1  1  0  0  0
  1  2  1  0  0  0
  1  3  1  0  0  0
  2  7  1  0  0  0
  3  4  1  0  0  0
  3  5  1  0  0  0
  5  6  1  0  0  0
  5  7  1  0  0  0
  7 10  1  0  0  0
 10 11  1  0  0  0
 10 20  1  0  0  0
 11 12  2  0  0  0
 12 13  1  0  0  0
 13 14  1  0  0  0
 13 20  2  0  0  0
 14 15  2  0  0  0
 14 16  1  0  0  0
 16 17  1  0  0  0
 17 18  1  0  0  0
 17 19  2  0  0  0
 19 20  1  0  0  0
 28 30  1  0  0  0
 29 31  1  0  0  0
  4  8  1  0  0  0
  6  9  1  0  0  0
 16 21  1  0  0  0
 18 22  1  0  0  0
 18 23  1  0  0  0
M  END
> <minimizedAffinity>
-8.43980

$$$$
5K1D_5GP_A_401


 31 33  0  0  0  0  0  0  0  0999 V2000
   -2.0474   -0.0545   21.4219 C   0  0  0  0  0  0  0  0  0  0  0  0
   -1.5306   -1.2083   20.7009 O   0  0  0  0  0  0  0  0  0  0  0  0
   -1.0056    0.2921   22.4887 C   0  0  0  0  0  0  0  0  0  0  0  0
   -1.3934   -0.2878   23.7342 O   0  0  0  0  0  0  0  0  0  0  0  0
    0.2601   -0.3931   21.9669 C   0  0  0  0  0  0  0  0  0  0  0  0
    1.1991   -0.7226   22.9682 O   0  0  0  0  0  0  0  0  0  0  0  0
   -0.3229   -1.6363   21.3021 C   0  0  0  0  0  0  0  0  0  0  0  0
   -1.5126   -1.2439   23.6224 H   0  0  0  0  0  0  0  0  0  0  0  0
    0.7828   -1.3048   23.6229 H   0  0  0  0  0  0  0  0  0  0  0  0
    0.5206   -2.2404   20.2608 N   0  0  0  0  0  0  0  0  0  0  0  0
    0.2796   -2.2527   18.9386 C   0  0  0  0  0  0  0  0  0  0  0  0
    1.2796   -2.9119   18.3130 N   0  0  0  0  0  0  0  0  0  0  0  0
    2.1589   -3.3182   19.2571 C   0  0  0  0  0  0  0  0  0  0  0  0
    3.3572   -4.0357   19.2092 C   0  0  0  0  0  0  0  0  0  0  0  0
    3.8181   -4.4276   18.1090 O   0  0  0  0  0  0  0  0  0  0  0  0
    4.0145   -4.3034   20.3517 N   0  0  0  0  0  0  0  0  0  0  0  0
    3.5332   -3.8864   21.5385 C   0  0  0  0  0  0  0  0  0  0  0  0
    4.2251   -4.1652   22.6726 N   0  0  0  0  0  0  0  0  0  0  0  0
    2.3697   -3.1849   21.6148 N   0  0  0  0  0  0  0  0  0  0  0  0
    1.6652   -2.9021   20.4855 C   0  0  0  0  0  0  0  0  0  0  0  0
    4.8578   -4.8105   20.3202 H   0  0  0  0  0  0  0  0  0  0  0  0
    5.0675   -4.6724   22.6232 H   0  0  0  0  0  0  0  0  0  0  0  0
    3.8845   -3.8603   23.5446 H   0  0  0  0  0  0  0  0  0  0  0  0
   -2.3608    1.0541   20.4414 C   0  0  0  0  0  0  0  0  0  0  0  0
   -1.7527    0.8561   19.1673 O   0  0  0  0  0  0  0  0  0  0  0  0
   -0.7600    1.9535   18.5597 P   0  0  0  0  0  0  0  0  0  0  0  0
    0.3464    1.1060   17.9326 O   0  0  0  0  0  0  0  0  0  0  0  0
   -0.3779    2.7911   19.7568 O   0  0  0  0  0  0  0  0  0  0  0  0
   -1.6080    2.7621   17.6007 O   0  0  0  0  0  0  0  0  0  0  0  0
    0.2317    3.4927   19.4793 H   0  0  0  0  0  0  0  0  0  0  0  0
   -1.0639    3.4532   17.1918 H   0  0  0  0  0  0  0  0  0  0  0  0
 26 27  2  0  0  0
 26 28  1  0  0  0
 26 29  1  0  0  0
 26 25  1  0  0  0
 25 24  1  0  0  0
 24  1  1  0  0  0
  1  2  1  0  0  0
  1  3  1  0  0  0
  2  7  1  0  0  0
  3  4  1  0  0  0
  3  5  1  0  0  0
  5  6  1  0  0  0
  5  7  1  0  0  0
  7 10  1  0  0  0
 10 11  1  0  0  0
 10 20  1  0  0  0
 11 12  2  0  0  0
 12 13  1  0  0  0
 13 14  1  0  0  0
 13 20  2  0  0  0
 14 15  2  0  0  0
 14 16  1  0  0  0
 16 17  1  0  0  0
 17 18  1  0  0  0
 17 19  2  0  0  0
 19 20  1  0  0  0
 28 30  1  0  0  0
 29 31  1  0  0  0
  4  8  1  0  0  0
  6  9  1  0  0  0
 16 21  1  0  0  0
 18 22  1  0  0  0
 18 23  1  0  0  0
M  END
> <minimizedAffinity>
-8.24843

$$$$
5K1D_5GP_A_401


 31 33  0  0  0  0  0  0  0  0999 V2000
   -1.8381   -0.5554   21.1599 C   0  0  0  0  0  0  0  0  0  0  0  0
   -1.0938   -1.7923   20.9742 O   0  0  0  0  0  0  0  0  0  0  0  0
   -1.0209    0.3005   22.1312 C   0  0  0  0  0  0  0  0  0  0  0  0
   -1.5366    0.1389   23.4525 O   0  0  0  0  0  0  0  0  0  0  0  0
    0.3771   -0.3167   22.0388 C   0  0  0  0  0  0  0  0  0  0  0  0
    1.1758   -0.1245   23.1868 O   0  0  0  0  0  0  0  0  0  0  0  0
    0.0424   -1.7887   21.8182 C   0  0  0  0  0  0  0  0  0  0  0  0
   -1.5341   -0.8021   23.6877 H   0  0  0  0  0  0  0  0  0  0  0  0
    0.7257   -0.4989   23.9602 H   0  0  0  0  0  0  0  0  0  0  0  0
    1.0993   -2.5784   21.1703 N   0  0  0  0  0  0  0  0  0  0  0  0
    2.0406   -3.3167   21.7830 C   0  0  0  0  0  0  0  0  0  0  0  0
    2.8354   -3.8837   20.8488 N   0  0  0  0  0  0  0  0  0  0  0  0
    2.3853   -3.4946   19.6340 C   0  0  0  0  0  0  0  0  0  0  0  0
    2.8045   -3.7522   18.3260 C   0  0  0  0  0  0  0  0  0  0  0  0
    3.7906   -4.4992   18.1117 O   0  0  0  0  0  0  0  0  0  0  0  0
    2.1428   -3.1937   17.2967 N   0  0  0  0  0  0  0  0  0  0  0  0
    1.0814   -2.3931   17.5120 C   0  0  0  0  0  0  0  0  0  0  0  0
    0.4296   -1.8519   16.4513 N   0  0  0  0  0  0  0  0  0  0  0  0
    0.6505   -2.1259   18.7748 N   0  0  0  0  0  0  0  0  0  0  0  0
    1.2974   -2.6596   19.8464 C   0  0  0  0  0  0  0  0  0  0  0  0
    2.4379   -3.3725   16.3746 H   0  0  0  0  0  0  0  0  0  0  0  0
    0.7371   -2.0419   15.5355 H   0  0  0  0  0  0  0  0  0  0  0  0
   -0.3505   -1.2696   16.5978 H   0  0  0  0  0  0  0  0  0  0  0  0
   -2.1089    0.0774   19.8127 C   0  0  0  0  0  0  0  0  0  0  0  0
   -1.8204    1.4732   19.7873 O   0  0  0  0  0  0  0  0  0  0  0  0
   -0.7901    2.0723   18.7204 P   0  0  0  0  0  0  0  0  0  0  0  0
    0.0295    3.0590   19.5511 O   0  0  0  0  0  0  0  0  0  0  0  0
   -1.6826    2.6601   17.6533 O   0  0  0  0  0  0  0  0  0  0  0  0
   -0.0430    0.8717   18.1790 O   0  0  0  0  0  0  0  0  0  0  0  0
   -1.1359    3.0519   16.9542 H   0  0  0  0  0  0  0  0  0  0  0  0
    0.6053    1.1647   17.5196 H   0  0  0  0  0  0  0  0  0  0  0  0
 26 27  2  0  0  0
 26 28  1  0  0  0
 26 29  1  0  0  0
 26 25  1  0  0  0
 25 24  1  0  0  0
 24  1  1  0  0  0
  1  2  1  0  0  0
  1  3  1  0  0  0
  2  7  1  0  0  0
  3  4  1  0  0  0
  3  5  1  0  0  0
  5  6  1  0  0  0
  5  7  1  0  0  0
  7 10  1  0  0  0
 10 11  1  0  0  0
 10 20  1  0  0  0
 11 12  2  0  0  0
 12 13  1  0  0  0
 13 14  1  0  0  0
 13 20  2  0  0  0
 14 15  2  0  0  0
 14 16  1  0  0  0
 16 17  1  0  0  0
 17 18  1  0  0  0
 17 19  2  0  0  0
 19 20  1  0  0  0
 28 30  1  0  0  0
 29 31  1  0  0  0
  4  8  1  0  0  0
  6  9  1  0  0  0
 16 21  1  0  0  0
 18 22  1  0  0  0
 18 23  1  0  0  0
M  END
> <minimizedAffinity>
-8.19226

$$$$
5K1D_5GP_A_401


 31 33  0  0  0  0  0  0  0  0999 V2000
    0.3468   -1.1198   19.5148 C   0  0  0  0  0  0  0  0  0  0  0  0
    0.1030   -0.4291   20.7725 O   0  0  0  0  0  0  0  0  0  0  0  0
   -0.0316   -2.5852   19.7447 C   0  0  0  0  0  0  0  0  0  0  0  0
    1.1451   -3.3361   20.0438 O   0  0  0  0  0  0  0  0  0  0  0  0
   -0.9333   -2.5164   20.9801 C   0  0  0  0  0  0  0  0  0  0  0  0
   -0.9725   -3.7057   21.7397 O   0  0  0  0  0  0  0  0  0  0  0  0
   -0.2957   -1.3671   21.7545 C   0  0  0  0  0  0  0  0  0  0  0  0
    1.5959   -2.9406   20.8061 H   0  0  0  0  0  0  0  0  0  0  0  0
   -0.0750   -3.9352   22.0274 H   0  0  0  0  0  0  0  0  0  0  0  0
   -1.1858   -0.6867   22.7061 N   0  0  0  0  0  0  0  0  0  0  0  0
   -2.5297   -0.6971   22.6975 C   0  0  0  0  0  0  0  0  0  0  0  0
   -2.9843    0.0528   23.7256 N   0  0  0  0  0  0  0  0  0  0  0  0
   -1.9096    0.5398   24.3869 C   0  0  0  0  0  0  0  0  0  0  0  0
   -1.7620    1.3665   25.5039 C   0  0  0  0  0  0  0  0  0  0  0  0
   -2.7725    1.7997   26.1102 O   0  0  0  0  0  0  0  0  0  0  0  0
   -0.5277    1.6947   25.9260 N   0  0  0  0  0  0  0  0  0  0  0  0
    0.5650    1.2344   25.2871 C   0  0  0  0  0  0  0  0  0  0  0  0
    1.7967    1.5770   25.7435 N   0  0  0  0  0  0  0  0  0  0  0  0
    0.4511    0.4270   24.1977 N   0  0  0  0  0  0  0  0  0  0  0  0
   -0.7780    0.0794   23.7286 C   0  0  0  0  0  0  0  0  0  0  0  0
   -0.4217    2.2785   26.7116 H   0  0  0  0  0  0  0  0  0  0  0  0
    1.8850    2.1608   26.5313 H   0  0  0  0  0  0  0  0  0  0  0  0
    2.6018    1.2415   25.2868 H   0  0  0  0  0  0  0  0  0  0  0  0
   -0.4082   -0.4249   18.4032 C   0  0  0  0  0  0  0  0  0  0  0  0
   -0.0320    0.9412   18.2466 O   0  0  0  0  0  0  0  0  0  0  0  0
   -0.9779    2.1131   18.7859 P   0  0  0  0  0  0  0  0  0  0  0  0
   -0.0079    3.0126   19.5510 O   0  0  0  0  0  0  0  0  0  0  0  0
   -2.0177    1.3846   19.6039 O   0  0  0  0  0  0  0  0  0  0  0  0
   -1.6081    2.7111   17.5458 O   0  0  0  0  0  0  0  0  0  0  0  0
   -2.6437    2.0255   19.9759 H   0  0  0  0  0  0  0  0  0  0  0  0
   -2.2005    3.4355   17.8014 H   0  0  0  0  0  0  0  0  0  0  0  0
 26 27  2  0  0  0
 26 28  1  0  0  0
 26 29  1  0  0  0
 26 25  1  0  0  0
 25 24  1  0  0  0
 24  1  1  0  0  0
  1  2  1  0  0  0
  1  3  1  0  0  0
  2  7  1  0  0  0
  3  4  1  0  0  0
  3  5  1  0  0  0
  5  6  1  0  0  0
  5  7  1  0  0  0
  7 10  1  0  0  0
 10 11  1  0  0  0
 10 20  1  0  0  0
 11 12  2  0  0  0
 12 13  1  0  0  0
 13 14  1  0  0  0
 13 20  2  0  0  0
 14 15  2  0  0  0
 14 16  1  0  0  0
 16 17  1  0  0  0
 17 18  1  0  0  0
 17 19  2  0  0  0
 19 20  1  0  0  0
 28 30  1  0  0  0
 29 31  1  0  0  0
  4  8  1  0  0  0
  6  9  1  0  0  0
 16 21  1  0  0  0
 18 22  1  0  0  0
 18 23  1  0  0  0
M  END
> <minimizedAffinity>
-7.93332

$$$$
5K1D_5GP_A_401


 31 33  0  0  0  0  0  0  0  0999 V2000
    1.7119   -4.0931   19.5786 C   0  0  0  0  0  0  0  0  0  0  0  0
    1.6785   -5.3414   18.8309 O   0  0  0  0  0  0  0  0  0  0  0  0
    3.1825   -3.6754   19.6593 C   0  0  0  0  0  0  0  0  0  0  0  0
    3.7253   -4.0957   20.9109 O   0  0  0  0  0  0  0  0  0  0  0  0
    3.8270   -4.4689   18.5196 C   0  0  0  0  0  0  0  0  0  0  0  0
    5.2042   -4.7254   18.6944 O   0  0  0  0  0  0  0  0  0  0  0  0
    3.0019   -5.7518   18.5417 C   0  0  0  0  0  0  0  0  0  0  0  0
    3.6004   -5.0522   21.0127 H   0  0  0  0  0  0  0  0  0  0  0  0
    5.3398   -5.2124   19.5222 H   0  0  0  0  0  0  0  0  0  0  0  0
    2.9846   -6.5042   17.2791 N   0  0  0  0  0  0  0  0  0  0  0  0
    3.4463   -6.0858   16.0882 C   0  0  0  0  0  0  0  0  0  0  0  0
    3.2428   -7.0556   15.1695 N   0  0  0  0  0  0  0  0  0  0  0  0
    2.6450   -8.0957   15.7942 C   0  0  0  0  0  0  0  0  0  0  0  0
    2.1963   -9.3469   15.3625 C   0  0  0  0  0  0  0  0  0  0  0  0
    2.3356   -9.6914   14.1633 O   0  0  0  0  0  0  0  0  0  0  0  0
    1.6137  -10.1809   16.2425 N   0  0  0  0  0  0  0  0  0  0  0  0
    1.4607   -9.8255   17.5325 C   0  0  0  0  0  0  0  0  0  0  0  0
    0.8765  -10.6935   18.3974 N   0  0  0  0  0  0  0  0  0  0  0  0
    1.8892   -8.6142   17.9808 N   0  0  0  0  0  0  0  0  0  0  0  0
    2.4732   -7.7340   17.1229 C   0  0  0  0  0  0  0  0  0  0  0  0
    1.2951  -11.0619   15.9398 H   0  0  0  0  0  0  0  0  0  0  0  0
    0.5647  -11.5712   18.0785 H   0  0  0  0  0  0  0  0  0  0  0  0
    0.7648  -10.4454   19.3436 H   0  0  0  0  0  0  0  0  0  0  0  0
    0.7905   -3.0880   18.9233 C   0  0  0  0  0  0  0  0  0  0  0  0
    0.5138   -3.3959   17.5592 O   0  0  0  0  0  0  0  0  0  0  0  0
    0.7818   -2.3156   16.4102 P   0  0  0  0  0  0  0  0  0  0  0  0
    1.9763   -2.9025   15.6591 O   0  0  0  0  0  0  0  0  0  0  0  0
    1.0222   -1.0348   17.1735 O   0  0  0  0  0  0  0  0  0  0  0  0
   -0.5182   -2.2323   15.6385 O   0  0  0  0  0  0  0  0  0  0  0  0
    1.1960   -0.3137   16.5484 H   0  0  0  0  0  0  0  0  0  0  0  0
   -0.4263   -1.5886   14.9187 H   0  0  0  0  0  0  0  0  0  0  0  0
 26 27  2  0  0  0
 26 28  1  0  0  0
 26 29  1  0  0  0
 26 25  1  0  0  0
 25 24  1  0  0  0
 24  1  1  0  0  0
  1  2  1  0  0  0
  1  3  1  0  0  0
  2  7  1  0  0  0
  3  4  1  0  0  0
  3  5  1  0  0  0
  5  6  1  0  0  0
  5  7  1  0  0  0
  7 10  1  0  0  0
 10 11  1  0  0  0
 10 20  1  0  0  0
 11 12  2  0  0  0
 12 13  1  0  0  0
 13 14  1  0  0  0
 13 20  2  0  0  0
 14 15  2  0  0  0
 14 16  1  0  0  0
 16 17  1  0  0  0
 17 18  1  0  0  0
 17 19  2  0  0  0
 19 20  1  0  0  0
 28 30  1  0  0  0
 29 31  1  0  0  0
  4  8  1  0  0  0
  6  9  1  0  0  0
 16 21  1  0  0  0
 18 22  1  0  0  0
 18 23  1  0  0  0
M  END
> <minimizedAffinity>
-7.71321

$$$$
5K1D_5GP_A_401


 31 33  0  0  0  0  0  0  0  0999 V2000
    0.6257   -3.5659   20.1328 C   0  0  0  0  0  0  0  0  0  0  0  0
    1.1604   -4.6052   19.2654 O   0  0  0  0  0  0  0  0  0  0  0  0
    1.7995   -3.0560   20.9728 C   0  0  0  0  0  0  0  0  0  0  0  0
    1.7902   -3.7076   22.2429 O   0  0  0  0  0  0  0  0  0  0  0  0
    3.0198   -3.5065   20.1653 C   0  0  0  0  0  0  0  0  0  0  0  0
    4.1932   -3.6795   20.9307 O   0  0  0  0  0  0  0  0  0  0  0  0
    2.5230   -4.8244   19.5792 C   0  0  0  0  0  0  0  0  0  0  0  0
    1.8107   -4.6687   22.1133 H   0  0  0  0  0  0  0  0  0  0  0  0
    4.0301   -4.3319   21.6297 H   0  0  0  0  0  0  0  0  0  0  0  0
    3.2119   -5.2623   18.3568 N   0  0  0  0  0  0  0  0  0  0  0  0
    4.0978   -4.5536   17.6360 C   0  0  0  0  0  0  0  0  0  0  0  0
    4.5001   -5.2930   16.5789 N   0  0  0  0  0  0  0  0  0  0  0  0
    3.8567   -6.4812   16.6387 C   0  0  0  0  0  0  0  0  0  0  0  0
    3.8652   -7.6205   15.8294 C   0  0  0  0  0  0  0  0  0  0  0  0
    4.5960   -7.6685   14.8096 O   0  0  0  0  0  0  0  0  0  0  0  0
    3.0841   -8.6671   16.1515 N   0  0  0  0  0  0  0  0  0  0  0  0
    2.2976   -8.6304   17.2443 C   0  0  0  0  0  0  0  0  0  0  0  0
    1.5276   -9.7067   17.5467 N   0  0  0  0  0  0  0  0  0  0  0  0
    2.2703   -7.5349   18.0509 N   0  0  0  0  0  0  0  0  0  0  0  0
    3.0350   -6.4485   17.7565 C   0  0  0  0  0  0  0  0  0  0  0  0
    3.0872   -9.4698   15.5814 H   0  0  0  0  0  0  0  0  0  0  0  0
    1.5435  -10.5020   16.9666 H   0  0  0  0  0  0  0  0  0  0  0  0
    0.9532   -9.6920   18.3462 H   0  0  0  0  0  0  0  0  0  0  0  0
   -0.0710   -2.5176   19.2935 C   0  0  0  0  0  0  0  0  0  0  0  0
   -0.5003   -3.0151   18.0284 O   0  0  0  0  0  0  0  0  0  0  0  0
    0.1890   -2.5068   16.6773 P   0  0  0  0  0  0  0  0  0  0  0  0
   -1.0031   -2.0679   15.8277 O   0  0  0  0  0  0  0  0  0  0  0  0
    0.9600   -3.7123   16.1944 O   0  0  0  0  0  0  0  0  0  0  0  0
    1.1412   -1.4119   17.1100 O   0  0  0  0  0  0  0  0  0  0  0  0
    1.4171   -3.4937   15.3672 H   0  0  0  0  0  0  0  0  0  0  0  0
    1.5981   -1.0547   16.3325 H   0  0  0  0  0  0  0  0  0  0  0  0
 26 27  2  0  0  0
 26 28  1  0  0  0
 26 29  1  0  0  0
 26 25  1  0  0  0
 25 24  1  0  0  0
 24  1  1  0  0  0
  1  2  1  0  0  0
  1  3  1  0  0  0
  2  7  1  0  0  0
  3  4  1  0  0  0
  3  5  1  0  0  0
  5  6  1  0  0  0
  5  7  1  0  0  0
  7 10  1  0  0  0
 10 11  1  0  0  0
 10 20  1  0  0  0
 11 12  2  0  0  0
 12 13  1  0  0  0
 13 14  1  0  0  0
 13 20  2  0  0  0
 14 15  2  0  0  0
 14 16  1  0  0  0
 16 17  1  0  0  0
 17 18  1  0  0  0
 17 19  2  0  0  0
 19 20  1  0  0  0
 28 30  1  0  0  0
 29 31  1  0  0  0
  4  8  1  0  0  0
  6  9  1  0  0  0
 16 21  1  0  0  0
 18 22  1  0  0  0
 18 23  1  0  0  0
M  END
> <minimizedAffinity>
-7.41480

$$$$
5K1D_5GP_A_401


 31 33  0  0  0  0  0  0  0  0999 V2000
   -0.4820   -1.5968   18.8476 C   0  0  0  0  0  0  0  0  0  0  0  0
    0.2820   -1.0375   19.9531 O   0  0  0  0  0  0  0  0  0  0  0  0
   -1.3588   -2.7019   19.4421 C   0  0  0  0  0  0  0  0  0  0  0  0
   -0.7212   -3.9648   19.2520 O   0  0  0  0  0  0  0  0  0  0  0  0
   -1.3875   -2.3521   20.9323 C   0  0  0  0  0  0  0  0  0  0  0  0
   -1.6274   -3.4518   21.7843 O   0  0  0  0  0  0  0  0  0  0  0  0
    0.0090   -1.7713   21.1321 C   0  0  0  0  0  0  0  0  0  0  0  0
    0.1671   -3.9403   19.6409 H   0  0  0  0  0  0  0  0  0  0  0  0
   -0.9458   -4.1268   21.6407 H   0  0  0  0  0  0  0  0  0  0  0  0
    0.1491   -0.8651   22.2809 N   0  0  0  0  0  0  0  0  0  0  0  0
   -0.2094    0.4293   22.3315 C   0  0  0  0  0  0  0  0  0  0  0  0
    0.0882    0.9231   23.5536 N   0  0  0  0  0  0  0  0  0  0  0  0
    0.6411   -0.0763   24.2782 C   0  0  0  0  0  0  0  0  0  0  0  0
    1.1430   -0.1556   25.5800 C   0  0  0  0  0  0  0  0  0  0  0  0
    1.1162    0.8493   26.3322 O   0  0  0  0  0  0  0  0  0  0  0  0
    1.6552   -1.3180   26.0224 N   0  0  0  0  0  0  0  0  0  0  0  0
    1.6873   -2.4047   25.2273 C   0  0  0  0  0  0  0  0  0  0  0  0
    2.2028   -3.5654   25.7067 N   0  0  0  0  0  0  0  0  0  0  0  0
    1.2046   -2.3567   23.9559 N   0  0  0  0  0  0  0  0  0  0  0  0
    0.6884   -1.1982   23.4627 C   0  0  0  0  0  0  0  0  0  0  0  0
    2.0110   -1.3752   26.9385 H   0  0  0  0  0  0  0  0  0  0  0  0
    2.5534   -3.6057   26.6258 H   0  0  0  0  0  0  0  0  0  0  0  0
    2.2261   -4.3667   25.1353 H   0  0  0  0  0  0  0  0  0  0  0  0
   -1.2309   -0.4886   18.1405 C   0  0  0  0  0  0  0  0  0  0  0  0
   -0.5294    0.7524   18.1554 O   0  0  0  0  0  0  0  0  0  0  0  0
   -1.2148    2.0677   18.7546 P   0  0  0  0  0  0  0  0  0  0  0  0
   -2.2538    1.5029   19.7227 O   0  0  0  0  0  0  0  0  0  0  0  0
   -1.7423    2.7832   17.5337 O   0  0  0  0  0  0  0  0  0  0  0  0
   -0.0796    2.8538   19.3759 O   0  0  0  0  0  0  0  0  0  0  0  0
   -2.1808    3.6049   17.8048 H   0  0  0  0  0  0  0  0  0  0  0  0
   -0.4270    3.6728   19.7625 H   0  0  0  0  0  0  0  0  0  0  0  0
 26 27  2  0  0  0
 26 28  1  0  0  0
 26 29  1  0  0  0
 26 25  1  0  0  0
 25 24  1  0  0  0
 24  1  1  0  0  0
  1  2  1  0  0  0
  1  3  1  0  0  0
  2  7  1  0  0  0
  3  4  1  0  0  0
  3  5  1  0  0  0
  5  6  1  0  0  0
  5  7  1  0  0  0
  7 10  1  0  0  0
 10 11  1  0  0  0
 10 20  1  0  0  0
 11 12  2  0  0  0
 12 13  1  0  0  0
 13 14  1  0  0  0
 13 20  2  0  0  0
 14 15  2  0  0  0
 14 16  1  0  0  0
 16 17  1  0  0  0
 17 18  1  0  0  0
 17 19  2  0  0  0
 19 20  1  0  0  0
 28 30  1  0  0  0
 29 31  1  0  0  0
  4  8  1  0  0  0
  6  9  1  0  0  0
 16 21  1  0  0  0
 18 22  1  0  0  0
 18 23  1  0  0  0
M  END
> <minimizedAffinity>
-7.36143

$$$$
5K1D_5GP_A_401


 31 33  0  0  0  0  0  0  0  0999 V2000
    3.5690   -4.0354   20.0729 C   0  0  0  0  0  0  0  0  0  0  0  0
    2.9791   -2.7698   20.4837 O   0  0  0  0  0  0  0  0  0  0  0  0
    2.6121   -5.1331   20.5448 C   0  0  0  0  0  0  0  0  0  0  0  0
    3.0741   -5.6606   21.7882 O   0  0  0  0  0  0  0  0  0  0  0  0
    1.2989   -4.3750   20.7567 C   0  0  0  0  0  0  0  0  0  0  0  0
    0.4259   -4.9720   21.6916 O   0  0  0  0  0  0  0  0  0  0  0  0
    1.8080   -3.0198   21.2381 C   0  0  0  0  0  0  0  0  0  0  0  0
    3.1655   -4.9401   22.4312 H   0  0  0  0  0  0  0  0  0  0  0  0
    0.8750   -5.0529   22.5476 H   0  0  0  0  0  0  0  0  0  0  0  0
    0.8812   -1.8972   21.0346 N   0  0  0  0  0  0  0  0  0  0  0  0
    0.4338   -1.0446   21.9723 C   0  0  0  0  0  0  0  0  0  0  0  0
   -0.4090   -0.1581   21.3980 N   0  0  0  0  0  0  0  0  0  0  0  0
   -0.4905   -0.4604   20.0821 C   0  0  0  0  0  0  0  0  0  0  0  0
   -1.1992    0.0913   19.0114 C   0  0  0  0  0  0  0  0  0  0  0  0
   -1.9403    1.0892   19.1884 O   0  0  0  0  0  0  0  0  0  0  0  0
   -1.0811   -0.4549   17.7879 N   0  0  0  0  0  0  0  0  0  0  0  0
   -0.2873   -1.5235   17.5831 C   0  0  0  0  0  0  0  0  0  0  0  0
   -0.1829   -2.0458   16.3345 N   0  0  0  0  0  0  0  0  0  0  0  0
    0.4152   -2.0804   18.6069 N   0  0  0  0  0  0  0  0  0  0  0  0
    0.3164   -1.5681   19.8636 C   0  0  0  0  0  0  0  0  0  0  0  0
   -1.5811   -0.0689   17.0328 H   0  0  0  0  0  0  0  0  0  0  0  0
   -0.6889   -1.6469   15.5901 H   0  0  0  0  0  0  0  0  0  0  0  0
    0.3987   -2.8236   16.1733 H   0  0  0  0  0  0  0  0  0  0  0  0
    3.8357   -4.0077   18.5839 C   0  0  0  0  0  0  0  0  0  0  0  0
    2.6631   -4.2359   17.8060 O   0  0  0  0  0  0  0  0  0  0  0  0
    2.7123   -4.1344   16.2103 P   0  0  0  0  0  0  0  0  0  0  0  0
    3.9403   -4.9699   15.8508 O   0  0  0  0  0  0  0  0  0  0  0  0
    2.8010   -2.6495   15.9496 O   0  0  0  0  0  0  0  0  0  0  0  0
    1.3768   -4.6722   15.7413 O   0  0  0  0  0  0  0  0  0  0  0  0
    2.8359   -2.4906   14.9933 H   0  0  0  0  0  0  0  0  0  0  0  0
    1.3373   -4.6397   14.7726 H   0  0  0  0  0  0  0  0  0  0  0  0
 26 27  2  0  0  0
 26 28  1  0  0  0
 26 29  1  0  0  0
 26 25  1  0  0  0
 25 24  1  0  0  0
 24  1  1  0  0  0
  1  2  1  0  0  0
  1  3  1  0  0  0
  2  7  1  0  0  0
  3  4  1  0  0  0
  3  5  1  0  0  0
  5  6  1  0  0  0
  5  7  1  0  0  0
  7 10  1  0  0  0
 10 11  1  0  0  0
 10 20  1  0  0  0
 11 12  2  0  0  0
 12 13  1  0  0  0
 13 14  1  0  0  0
 13 20  2  0  0  0
 14 15  2  0  0  0
 14 16  1  0  0  0
 16 17  1  0  0  0
 17 18  1  0  0  0
 17 19  2  0  0  0
 19 20  1  0  0  0
 28 30  1  0  0  0
 29 31  1  0  0  0
  4  8  1  0  0  0
  6  9  1  0  0  0
 16 21  1  0  0  0
 18 22  1  0  0  0
 18 23  1  0  0  0
M  END
> <minimizedAffinity>
-7.31028

$$$$
5K1D_5GP_A_401


 31 33  0  0  0  0  0  0  0  0999 V2000
   -0.3252   -1.2430   19.2592 C   0  0  0  0  0  0  0  0  0  0  0  0
    0.9056   -1.8216   18.7406 O   0  0  0  0  0  0  0  0  0  0  0  0
   -1.3210   -1.2289   18.0965 C   0  0  0  0  0  0  0  0  0  0  0  0
   -1.3191    0.0624   17.4880 O   0  0  0  0  0  0  0  0  0  0  0  0
   -0.7336   -2.2608   17.1299 C   0  0  0  0  0  0  0  0  0  0  0  0
   -1.0941   -2.0651   15.7792 O   0  0  0  0  0  0  0  0  0  0  0  0
    0.7627   -2.0654   17.3538 C   0  0  0  0  0  0  0  0  0  0  0  0
   -0.4170    0.2887   17.2126 H   0  0  0  0  0  0  0  0  0  0  0  0
   -0.8118   -1.1820   15.4939 H   0  0  0  0  0  0  0  0  0  0  0  0
    1.6021   -3.2192   17.0007 N   0  0  0  0  0  0  0  0  0  0  0  0
    1.8490   -3.6847   15.7642 C   0  0  0  0  0  0  0  0  0  0  0  0
    2.6563   -4.7649   15.8513 N   0  0  0  0  0  0  0  0  0  0  0  0
    2.9182   -4.9786   17.1610 C   0  0  0  0  0  0  0  0  0  0  0  0
    3.6715   -5.9353   17.8467 C   0  0  0  0  0  0  0  0  0  0  0  0
    4.2894   -6.8276   17.2155 O   0  0  0  0  0  0  0  0  0  0  0  0
    3.7306   -5.8929   19.1899 N   0  0  0  0  0  0  0  0  0  0  0  0
    3.0755   -4.9394   19.8795 C   0  0  0  0  0  0  0  0  0  0  0  0
    3.1625   -4.9190   21.2340 N   0  0  0  0  0  0  0  0  0  0  0  0
    2.3355   -3.9947   19.2379 N   0  0  0  0  0  0  0  0  0  0  0  0
    2.2377   -4.0066   17.8807 C   0  0  0  0  0  0  0  0  0  0  0  0
    4.2593   -6.5672   19.6748 H   0  0  0  0  0  0  0  0  0  0  0  0
    3.6965   -5.6000   21.7033 H   0  0  0  0  0  0  0  0  0  0  0  0
    2.6916   -4.2230   21.7471 H   0  0  0  0  0  0  0  0  0  0  0  0
   -0.7703   -2.0161   20.4810 C   0  0  0  0  0  0  0  0  0  0  0  0
   -0.2461   -1.4843   21.6954 O   0  0  0  0  0  0  0  0  0  0  0  0
    0.9744   -2.2030   22.4389 P   0  0  0  0  0  0  0  0  0  0  0  0
    1.0435   -1.4664   23.7762 O   0  0  0  0  0  0  0  0  0  0  0  0
    2.1352   -2.0046   21.4935 O   0  0  0  0  0  0  0  0  0  0  0  0
    0.5899   -3.6663   22.5005 O   0  0  0  0  0  0  0  0  0  0  0  0
    2.9308   -2.4142   21.8678 H   0  0  0  0  0  0  0  0  0  0  0  0
    1.2926   -4.1669   22.9438 H   0  0  0  0  0  0  0  0  0  0  0  0
 26 27  2  0  0  0
 26 28  1  0  0  0
 26 29  1  0  0  0
 26 25  1  0  0  0
 25 24  1  0  0  0
 24  1  1  0  0  0
  1  2  1  0  0  0
  1  3  1  0  0  0
  2  7  1  0  0  0
  3  4  1  0  0  0
  3  5  1  0  0  0
  5  6  1  0  0  0
  5  7  1  0  0  0
  7 10  1  0  0  0
 10 11  1  0  0  0
 10 20  1  0  0  0
 11 12  2  0  0  0
 12 13  1  0  0  0
 13 14  1  0  0  0
 13 20  2  0  0  0
 14 15  2  0  0  0
 14 16  1  0  0  0
 16 17  1  0  0  0
 17 18  1  0  0  0
 17 19  2  0  0  0
 19 20  1  0  0  0
 28 30  1  0  0  0
 29 31  1  0  0  0
  4  8  1  0  0  0
  6  9  1  0  0  0
 16 21  1  0  0  0
 18 22  1  0  0  0
 18 23  1  0  0  0
M  END
> <minimizedAffinity>
-7.30579

$$$$
