5JSQ_6MS_A_301


 26 27  0  0  0  0  0  0  0  0999 V2000
   42.5552   21.7688   46.4428 O   0  0  0  0  0  0  0  0  0  0  0  0
   41.8076   21.8103   45.4922 C   0  0  0  0  0  0  0  0  0  0  0  0
   40.5260   21.3111   45.6586 N   0  0  0  0  0  0  0  0  0  0  0  0
   39.5861   21.3125   44.6078 C   0  0  0  0  0  0  0  0  0  0  0  0
   38.3432   20.7892   44.8997 N   0  0  0  0  0  0  0  0  0  0  0  0
   39.9153   21.7975   43.3067 N   0  0  0  0  0  0  0  0  0  0  0  0
   41.2453   22.2841   43.1133 C   0  0  0  0  0  0  0  0  0  0  0  0
   42.1908   22.3193   44.1349 C   0  0  0  0  0  0  0  0  0  0  0  0
   43.3339   22.8732   43.6239 N   0  0  0  0  0  0  0  0  0  0  0  0
   43.0962   23.1527   42.3397 C   0  0  0  0  0  0  0  0  0  0  0  0
   41.8570   22.8048   42.0258 N   0  0  0  0  0  0  0  0  0  0  0  0
   40.2645   20.9454   46.5345 H   0  0  0  0  0  0  0  0  0  0  0  0
   37.6449   20.7630   44.2062 H   0  0  0  0  0  0  0  0  0  0  0  0
   38.1547   20.4420   45.8015 H   0  0  0  0  0  0  0  0  0  0  0  0
   41.1781   22.9391   40.7489 C   0  0  0  0  0  0  0  0  0  0  0  0
   41.0110   24.4601   40.4365 C   0  0  0  0  0  0  0  0  0  0  0  0
   39.7373   25.0342   41.0974 C   0  0  0  0  0  0  0  0  0  0  0  0
   38.9646   25.9921   40.1764 C   0  0  0  0  0  0  0  0  0  0  0  0
   39.3964   27.4329   40.4878 C   0  0  0  0  0  0  0  0  0  0  0  0
   39.8373   28.2359   39.2937 C   0  0  0  0  0  0  0  0  0  0  0  0
   41.2714   29.2469   39.7801 P   0  0  0  0  0  0  0  0  0  0  0  0
   42.4821   28.3520   39.9142 O   0  0  0  0  0  0  0  0  0  0  0  0
   41.5133   30.2886   38.7152 O   0  0  0  0  0  0  0  0  0  0  0  0
   41.0089   29.9625   41.0864 O   0  0  0  0  0  0  0  0  0  0  0  0
   43.2505   28.8842   40.1733 H   0  0  0  0  0  0  0  0  0  0  0  0
   40.2310   30.5341   40.9913 H   0  0  0  0  0  0  0  0  0  0  0  0
 23 21  2  0  0  0
 24 21  1  0  0  0
 21 20  1  0  0  0
 21 22  1  0  0  0
 19 20  1  0  0  0
 19 18  1  0  0  0
 17 18  1  0  0  0
 17 16  1  0  0  0
 15 16  1  0  0  0
 15 11  1  0  0  0
 11 10  1  0  0  0
 11  7  1  0  0  0
 10  9  2  0  0  0
  7  6  1  0  0  0
  7  8  2  0  0  0
  6  4  2  0  0  0
  9  8  1  0  0  0
  8  2  1  0  0  0
  4  5  1  0  0  0
  4  3  1  0  0  0
  2  3  1  0  0  0
  2  1  2  0  0  0
  3 12  1  0  0  0
  5 13  1  0  0  0
  5 14  1  0  0  0
 22 25  1  0  0  0
 24 26  1  0  0  0
M  END
> <minimizedAffinity>
-7.24560

$$$$
5JSQ_6MS_A_301


 26 27  0  0  0  0  0  0  0  0999 V2000
   34.9175   22.6016   43.6486 O   0  0  0  0  0  0  0  0  0  0  0  0
   35.7495   23.0019   42.8664 C   0  0  0  0  0  0  0  0  0  0  0  0
   35.3019   23.6341   41.7177 N   0  0  0  0  0  0  0  0  0  0  0  0
   36.1955   24.1298   40.7465 C   0  0  0  0  0  0  0  0  0  0  0  0
   35.6262   24.7404   39.6480 N   0  0  0  0  0  0  0  0  0  0  0  0
   37.6082   23.9768   40.8784 N   0  0  0  0  0  0  0  0  0  0  0  0
   38.0808   23.2962   42.0431 C   0  0  0  0  0  0  0  0  0  0  0  0
   37.2279   22.8154   43.0331 C   0  0  0  0  0  0  0  0  0  0  0  0
   38.0030   22.2582   44.0145 N   0  0  0  0  0  0  0  0  0  0  0  0
   39.2759   22.3848   43.6306 C   0  0  0  0  0  0  0  0  0  0  0  0
   39.3329   22.9998   42.4585 N   0  0  0  0  0  0  0  0  0  0  0  0
   34.3335   23.7402   41.5758 H   0  0  0  0  0  0  0  0  0  0  0  0
   36.1993   25.1063   38.9360 H   0  0  0  0  0  0  0  0  0  0  0  0
   34.6468   24.8102   39.5761 H   0  0  0  0  0  0  0  0  0  0  0  0
   40.5077   23.3528   41.6809 C   0  0  0  0  0  0  0  0  0  0  0  0
   41.0703   24.7050   42.2229 C   0  0  0  0  0  0  0  0  0  0  0  0
   41.2451   25.7381   41.0867 C   0  0  0  0  0  0  0  0  0  0  0  0
   40.3577   26.9805   41.2653 C   0  0  0  0  0  0  0  0  0  0  0  0
   39.9053   27.4679   39.8807 C   0  0  0  0  0  0  0  0  0  0  0  0
   39.4567   28.9035   39.8281 C   0  0  0  0  0  0  0  0  0  0  0  0
   40.9223   29.9537   39.5741 P   0  0  0  0  0  0  0  0  0  0  0  0
   41.4449   29.7390   38.1722 O   0  0  0  0  0  0  0  0  0  0  0  0
   40.5227   31.3968   39.7623 O   0  0  0  0  0  0  0  0  0  0  0  0
   42.0002   29.6290   40.5841 O   0  0  0  0  0  0  0  0  0  0  0  0
   42.2264   30.2957   38.0296 H   0  0  0  0  0  0  0  0  0  0  0  0
   41.6565   29.7693   41.4803 H   0  0  0  0  0  0  0  0  0  0  0  0
 23 21  2  0  0  0
 24 21  1  0  0  0
 21 20  1  0  0  0
 21 22  1  0  0  0
 19 20  1  0  0  0
 19 18  1  0  0  0
 17 18  1  0  0  0
 17 16  1  0  0  0
 15 16  1  0  0  0
 15 11  1  0  0  0
 11 10  1  0  0  0
 11  7  1  0  0  0
 10  9  2  0  0  0
  7  6  1  0  0  0
  7  8  2  0  0  0
  6  4  2  0  0  0
  9  8  1  0  0  0
  8  2  1  0  0  0
  4  5  1  0  0  0
  4  3  1  0  0  0
  2  3  1  0  0  0
  2  1  2  0  0  0
  3 12  1  0  0  0
  5 13  1  0  0  0
  5 14  1  0  0  0
 22 25  1  0  0  0
 24 26  1  0  0  0
M  END
> <minimizedAffinity>
-7.10091

$$$$
5JSQ_6MS_A_301


 26 27  0  0  0  0  0  0  0  0999 V2000
   34.8198   23.1115   43.1117 O   0  0  0  0  0  0  0  0  0  0  0  0
   35.9292   22.9142   42.6707 C   0  0  0  0  0  0  0  0  0  0  0  0
   36.7494   22.0355   43.3596 N   0  0  0  0  0  0  0  0  0  0  0  0
   38.0590   21.7461   42.9253 C   0  0  0  0  0  0  0  0  0  0  0  0
   38.7749   20.8538   43.6966 N   0  0  0  0  0  0  0  0  0  0  0  0
   38.6220   22.3688   41.7713 N   0  0  0  0  0  0  0  0  0  0  0  0
   37.7974   23.3030   41.0711 C   0  0  0  0  0  0  0  0  0  0  0  0
   36.4920   23.5940   41.4585 C   0  0  0  0  0  0  0  0  0  0  0  0
   35.9813   24.4896   40.5575 N   0  0  0  0  0  0  0  0  0  0  0  0
   36.9421   24.7418   39.6649 C   0  0  0  0  0  0  0  0  0  0  0  0
   38.0270   24.0418   39.9623 N   0  0  0  0  0  0  0  0  0  0  0  0
   36.4083   21.6012   44.1747 H   0  0  0  0  0  0  0  0  0  0  0  0
   39.6952   20.6124   43.4437 H   0  0  0  0  0  0  0  0  0  0  0  0
   38.3653   20.4585   44.4999 H   0  0  0  0  0  0  0  0  0  0  0  0
   39.2963   24.0019   39.2576 C   0  0  0  0  0  0  0  0  0  0  0  0
   39.5924   25.4276   38.6931 C   0  0  0  0  0  0  0  0  0  0  0  0
   40.7294   26.1195   39.4789 C   0  0  0  0  0  0  0  0  0  0  0  0
   40.3673   26.3819   40.9495 C   0  0  0  0  0  0  0  0  0  0  0  0
   40.4618   27.8910   41.2201 C   0  0  0  0  0  0  0  0  0  0  0  0
   39.8008   28.7639   40.1876 C   0  0  0  0  0  0  0  0  0  0  0  0
   41.0268   29.9671   39.5837 P   0  0  0  0  0  0  0  0  0  0  0  0
   40.4701   31.3626   39.7489 O   0  0  0  0  0  0  0  0  0  0  0  0
   42.2926   29.8158   40.3916 O   0  0  0  0  0  0  0  0  0  0  0  0
   41.3630   29.7120   38.1313 O   0  0  0  0  0  0  0  0  0  0  0  0
   41.1184   32.0093   39.4290 H   0  0  0  0  0  0  0  0  0  0  0  0
   41.7193   28.8150   38.0346 H   0  0  0  0  0  0  0  0  0  0  0  0
 23 21  2  0  0  0
 24 21  1  0  0  0
 21 20  1  0  0  0
 21 22  1  0  0  0
 19 20  1  0  0  0
 19 18  1  0  0  0
 17 18  1  0  0  0
 17 16  1  0  0  0
 15 16  1  0  0  0
 15 11  1  0  0  0
 11 10  1  0  0  0
 11  7  1  0  0  0
 10  9  2  0  0  0
  7  6  1  0  0  0
  7  8  2  0  0  0
  6  4  2  0  0  0
  9  8  1  0  0  0
  8  2  1  0  0  0
  4  5  1  0  0  0
  4  3  1  0  0  0
  2  3  1  0  0  0
  2  1  2  0  0  0
  3 12  1  0  0  0
  5 13  1  0  0  0
  5 14  1  0  0  0
 22 25  1  0  0  0
 24 26  1  0  0  0
M  END
> <minimizedAffinity>
-6.99519

$$$$
5JSQ_6MS_A_301


 26 27  0  0  0  0  0  0  0  0999 V2000
   35.2552   22.5119   42.9642 O   0  0  0  0  0  0  0  0  0  0  0  0
   36.4646   22.4879   42.9967 C   0  0  0  0  0  0  0  0  0  0  0  0
   37.0679   21.5952   43.8677 N   0  0  0  0  0  0  0  0  0  0  0  0
   38.4700   21.4983   43.9786 C   0  0  0  0  0  0  0  0  0  0  0  0
   38.9483   20.5701   44.8804 N   0  0  0  0  0  0  0  0  0  0  0  0
   39.3427   22.3382   43.2240 N   0  0  0  0  0  0  0  0  0  0  0  0
   38.7315   23.2868   42.3466 C   0  0  0  0  0  0  0  0  0  0  0  0
   37.3515   23.3929   42.1950 C   0  0  0  0  0  0  0  0  0  0  0  0
   37.1098   24.3631   41.2596 N   0  0  0  0  0  0  0  0  0  0  0  0
   38.2955   24.8359   40.8670 C   0  0  0  0  0  0  0  0  0  0  0  0
   39.2667   24.2031   41.5087 N   0  0  0  0  0  0  0  0  0  0  0  0
   36.5021   21.0128   44.4243 H   0  0  0  0  0  0  0  0  0  0  0  0
   39.9187   20.4565   45.0020 H   0  0  0  0  0  0  0  0  0  0  0  0
   38.3193   20.0212   45.4023 H   0  0  0  0  0  0  0  0  0  0  0  0
   40.7016   24.3888   41.3831 C   0  0  0  0  0  0  0  0  0  0  0  0
   41.1903   23.6157   40.1173 C   0  0  0  0  0  0  0  0  0  0  0  0
   41.7872   24.5779   39.0653 C   0  0  0  0  0  0  0  0  0  0  0  0
   42.3312   25.8766   39.6820 C   0  0  0  0  0  0  0  0  0  0  0  0
   41.9873   27.0481   38.7500 C   0  0  0  0  0  0  0  0  0  0  0  0
   40.6471   27.6859   38.9993 C   0  0  0  0  0  0  0  0  0  0  0  0
   40.8484   28.9603   40.2842 P   0  0  0  0  0  0  0  0  0  0  0  0
   40.7178   28.3135   41.6440 O   0  0  0  0  0  0  0  0  0  0  0  0
   42.2143   29.5849   40.1371 O   0  0  0  0  0  0  0  0  0  0  0  0
   39.8131   30.0518   40.1281 O   0  0  0  0  0  0  0  0  0  0  0  0
   40.8240   28.9870   42.3340 H   0  0  0  0  0  0  0  0  0  0  0  0
   39.9041   30.4611   39.2534 H   0  0  0  0  0  0  0  0  0  0  0  0
 23 21  2  0  0  0
 24 21  1  0  0  0
 21 20  1  0  0  0
 21 22  1  0  0  0
 19 20  1  0  0  0
 19 18  1  0  0  0
 17 18  1  0  0  0
 17 16  1  0  0  0
 15 16  1  0  0  0
 15 11  1  0  0  0
 11 10  1  0  0  0
 11  7  1  0  0  0
 10  9  2  0  0  0
  7  6  1  0  0  0
  7  8  2  0  0  0
  6  4  2  0  0  0
  9  8  1  0  0  0
  8  2  1  0  0  0
  4  5  1  0  0  0
  4  3  1  0  0  0
  2  3  1  0  0  0
  2  1  2  0  0  0
  3 12  1  0  0  0
  5 13  1  0  0  0
  5 14  1  0  0  0
 22 25  1  0  0  0
 24 26  1  0  0  0
M  END
> <minimizedAffinity>
-6.65020

$$$$
5JSQ_6MS_A_301


 26 27  0  0  0  0  0  0  0  0999 V2000
   42.5275   21.8307   46.3403 O   0  0  0  0  0  0  0  0  0  0  0  0
   41.7543   21.8493   45.4098 C   0  0  0  0  0  0  0  0  0  0  0  0
   40.4834   21.3384   45.6181 N   0  0  0  0  0  0  0  0  0  0  0  0
   39.5157   21.3133   44.5932 C   0  0  0  0  0  0  0  0  0  0  0  0
   38.2873   20.7806   44.9263 N   0  0  0  0  0  0  0  0  0  0  0  0
   39.8042   21.7820   43.2766 N   0  0  0  0  0  0  0  0  0  0  0  0
   41.1228   22.2805   43.0401 C   0  0  0  0  0  0  0  0  0  0  0  0
   42.0949   22.3418   44.0351 C   0  0  0  0  0  0  0  0  0  0  0  0
   43.2174   22.9007   43.4853 N   0  0  0  0  0  0  0  0  0  0  0  0
   42.9422   23.1579   42.2040 C   0  0  0  0  0  0  0  0  0  0  0  0
   41.6991   22.7914   41.9289 N   0  0  0  0  0  0  0  0  0  0  0  0
   40.2497   20.9832   46.5061 H   0  0  0  0  0  0  0  0  0  0  0  0
   37.5710   20.7361   44.2524 H   0  0  0  0  0  0  0  0  0  0  0  0
   38.1271   20.4451   45.8379 H   0  0  0  0  0  0  0  0  0  0  0  0
   40.9847   22.8987   40.6689 C   0  0  0  0  0  0  0  0  0  0  0  0
   40.7579   24.4121   40.3575 C   0  0  0  0  0  0  0  0  0  0  0  0
   39.3153   24.8478   40.7013 C   0  0  0  0  0  0  0  0  0  0  0  0
   38.2558   24.1456   39.8370 C   0  0  0  0  0  0  0  0  0  0  0  0
   36.8659   24.4462   40.4177 C   0  0  0  0  0  0  0  0  0  0  0  0
   36.1244   23.2468   40.9438 C   0  0  0  0  0  0  0  0  0  0  0  0
   35.8121   23.4991   42.7198 P   0  0  0  0  0  0  0  0  0  0  0  0
   34.8559   22.4350   43.2077 O   0  0  0  0  0  0  0  0  0  0  0  0
   37.1225   23.3968   43.4614 O   0  0  0  0  0  0  0  0  0  0  0  0
   35.2331   24.8727   42.9760 O   0  0  0  0  0  0  0  0  0  0  0  0
   34.6848   22.5632   44.1538 H   0  0  0  0  0  0  0  0  0  0  0  0
   35.8528   25.5488   42.6601 H   0  0  0  0  0  0  0  0  0  0  0  0
 23 21  2  0  0  0
 24 21  1  0  0  0
 21 20  1  0  0  0
 21 22  1  0  0  0
 19 20  1  0  0  0
 19 18  1  0  0  0
 17 18  1  0  0  0
 17 16  1  0  0  0
 15 16  1  0  0  0
 15 11  1  0  0  0
 11 10  1  0  0  0
 11  7  1  0  0  0
 10  9  2  0  0  0
  7  6  1  0  0  0
  7  8  2  0  0  0
  6  4  2  0  0  0
  9  8  1  0  0  0
  8  2  1  0  0  0
  4  5  1  0  0  0
  4  3  1  0  0  0
  2  3  1  0  0  0
  2  1  2  0  0  0
  3 12  1  0  0  0
  5 13  1  0  0  0
  5 14  1  0  0  0
 22 25  1  0  0  0
 24 26  1  0  0  0
M  END
> <minimizedAffinity>
-6.62146

$$$$
5JSQ_6MS_A_301


 26 27  0  0  0  0  0  0  0  0999 V2000
   41.3160   21.4680   45.9284 O   0  0  0  0  0  0  0  0  0  0  0  0
   41.2107   21.8996   44.8028 C   0  0  0  0  0  0  0  0  0  0  0  0
   42.3747   22.2339   44.1298 N   0  0  0  0  0  0  0  0  0  0  0  0
   42.3522   22.7482   42.8173 C   0  0  0  0  0  0  0  0  0  0  0  0
   43.5778   23.0410   42.2553 N   0  0  0  0  0  0  0  0  0  0  0  0
   41.1273   22.9835   42.1241 N   0  0  0  0  0  0  0  0  0  0  0  0
   39.9181   22.6741   42.8206 C   0  0  0  0  0  0  0  0  0  0  0  0
   39.9047   22.1429   44.1076 C   0  0  0  0  0  0  0  0  0  0  0  0
   38.5975   21.9320   44.4563 N   0  0  0  0  0  0  0  0  0  0  0  0
   37.8460   22.3303   43.4267 C   0  0  0  0  0  0  0  0  0  0  0  0
   38.6220   22.7747   42.4491 N   0  0  0  0  0  0  0  0  0  0  0  0
   43.2411   22.1090   44.5804 H   0  0  0  0  0  0  0  0  0  0  0  0
   43.6262   23.4030   41.3410 H   0  0  0  0  0  0  0  0  0  0  0  0
   44.4039   22.8880   42.7685 H   0  0  0  0  0  0  0  0  0  0  0  0
   38.2297   23.2900   41.1491 C   0  0  0  0  0  0  0  0  0  0  0  0
   38.3093   24.8491   41.1918 C   0  0  0  0  0  0  0  0  0  0  0  0
   37.9201   25.4704   39.8311 C   0  0  0  0  0  0  0  0  0  0  0  0
   39.1282   26.0231   39.0578 C   0  0  0  0  0  0  0  0  0  0  0  0
   40.0020   26.8381   40.0231 C   0  0  0  0  0  0  0  0  0  0  0  0
   39.8220   28.3298   39.9371 C   0  0  0  0  0  0  0  0  0  0  0  0
   41.4456   29.0855   39.6083 P   0  0  0  0  0  0  0  0  0  0  0  0
   41.3929   29.8083   38.2818 O   0  0  0  0  0  0  0  0  0  0  0  0
   41.7596   30.0604   40.7168 O   0  0  0  0  0  0  0  0  0  0  0  0
   42.5342   28.0358   39.5834 O   0  0  0  0  0  0  0  0  0  0  0  0
   42.2551   30.2136   38.1000 H   0  0  0  0  0  0  0  0  0  0  0  0
   42.5609   27.5773   40.4378 H   0  0  0  0  0  0  0  0  0  0  0  0
 23 21  2  0  0  0
 24 21  1  0  0  0
 21 20  1  0  0  0
 21 22  1  0  0  0
 19 20  1  0  0  0
 19 18  1  0  0  0
 17 18  1  0  0  0
 17 16  1  0  0  0
 15 16  1  0  0  0
 15 11  1  0  0  0
 11 10  1  0  0  0
 11  7  1  0  0  0
 10  9  2  0  0  0
  7  6  1  0  0  0
  7  8  2  0  0  0
  6  4  2  0  0  0
  9  8  1  0  0  0
  8  2  1  0  0  0
  4  5  1  0  0  0
  4  3  1  0  0  0
  2  3  1  0  0  0
  2  1  2  0  0  0
  3 12  1  0  0  0
  5 13  1  0  0  0
  5 14  1  0  0  0
 22 25  1  0  0  0
 24 26  1  0  0  0
M  END
> <minimizedAffinity>
-6.46808

$$$$
5JSQ_6MS_A_301


 26 27  0  0  0  0  0  0  0  0999 V2000
   37.6227   21.1658   44.4530 O   0  0  0  0  0  0  0  0  0  0  0  0
   37.4126   21.9441   43.5506 C   0  0  0  0  0  0  0  0  0  0  0  0
   36.2769   22.7334   43.6321 N   0  0  0  0  0  0  0  0  0  0  0  0
   35.9465   23.6654   42.6273 C   0  0  0  0  0  0  0  0  0  0  0  0
   34.7906   24.3924   42.8252 N   0  0  0  0  0  0  0  0  0  0  0  0
   36.7465   23.8220   41.4560 N   0  0  0  0  0  0  0  0  0  0  0  0
   37.9028   22.9892   41.3444 C   0  0  0  0  0  0  0  0  0  0  0  0
   38.2713   22.0757   42.3284 C   0  0  0  0  0  0  0  0  0  0  0  0
   39.4356   21.4784   41.9256 N   0  0  0  0  0  0  0  0  0  0  0  0
   39.7556   21.9998   40.7384 C   0  0  0  0  0  0  0  0  0  0  0  0
   38.8493   22.8986   40.3832 N   0  0  0  0  0  0  0  0  0  0  0  0
   35.6845   22.6408   44.4129 H   0  0  0  0  0  0  0  0  0  0  0  0
   34.5078   25.0587   42.1579 H   0  0  0  0  0  0  0  0  0  0  0  0
   34.2486   24.2448   43.6337 H   0  0  0  0  0  0  0  0  0  0  0  0
   38.8088   23.7126   39.1811 C   0  0  0  0  0  0  0  0  0  0  0  0
   40.2546   24.2201   38.8797 C   0  0  0  0  0  0  0  0  0  0  0  0
   40.4475   25.6809   39.3464 C   0  0  0  0  0  0  0  0  0  0  0  0
   39.1736   26.2877   39.9563 C   0  0  0  0  0  0  0  0  0  0  0  0
   39.0293   27.7345   39.4610 C   0  0  0  0  0  0  0  0  0  0  0  0
   40.2900   28.3468   38.9126 C   0  0  0  0  0  0  0  0  0  0  0  0
   40.8853   29.5934   40.0987 P   0  0  0  0  0  0  0  0  0  0  0  0
   42.3958   29.6302   40.0579 O   0  0  0  0  0  0  0  0  0  0  0  0
   40.3241   30.9392   39.7095 O   0  0  0  0  0  0  0  0  0  0  0  0
   40.4126   29.2743   41.4995 O   0  0  0  0  0  0  0  0  0  0  0  0
   42.7203   30.2926   40.6878 H   0  0  0  0  0  0  0  0  0  0  0  0
   39.4430   29.2527   41.5165 H   0  0  0  0  0  0  0  0  0  0  0  0
 23 21  2  0  0  0
 24 21  1  0  0  0
 21 20  1  0  0  0
 21 22  1  0  0  0
 19 20  1  0  0  0
 19 18  1  0  0  0
 17 18  1  0  0  0
 17 16  1  0  0  0
 15 16  1  0  0  0
 15 11  1  0  0  0
 11 10  1  0  0  0
 11  7  1  0  0  0
 10  9  2  0  0  0
  7  6  1  0  0  0
  7  8  2  0  0  0
  6  4  2  0  0  0
  9  8  1  0  0  0
  8  2  1  0  0  0
  4  5  1  0  0  0
  4  3  1  0  0  0
  2  3  1  0  0  0
  2  1  2  0  0  0
  3 12  1  0  0  0
  5 13  1  0  0  0
  5 14  1  0  0  0
 22 25  1  0  0  0
 24 26  1  0  0  0
M  END
> <minimizedAffinity>
-6.29812

$$$$
5JSQ_6MS_A_301


 26 27  0  0  0  0  0  0  0  0999 V2000
   41.4467   30.2205   38.8182 O   0  0  0  0  0  0  0  0  0  0  0  0
   41.3263   29.0205   38.7200 C   0  0  0  0  0  0  0  0  0  0  0  0
   41.4310   28.4641   37.4554 N   0  0  0  0  0  0  0  0  0  0  0  0
   41.3006   27.0769   37.2412 C   0  0  0  0  0  0  0  0  0  0  0  0
   41.4265   26.6461   35.9365 N   0  0  0  0  0  0  0  0  0  0  0  0
   41.0203   26.1750   38.3110 N   0  0  0  0  0  0  0  0  0  0  0  0
   40.8766   26.7412   39.6156 C   0  0  0  0  0  0  0  0  0  0  0  0
   41.0227   28.1030   39.8664 C   0  0  0  0  0  0  0  0  0  0  0  0
   40.8612   28.2972   41.2120 N   0  0  0  0  0  0  0  0  0  0  0  0
   40.6152   27.1024   41.7558 C   0  0  0  0  0  0  0  0  0  0  0  0
   40.6209   26.1703   40.8142 N   0  0  0  0  0  0  0  0  0  0  0  0
   41.6010   29.0536   36.6855 H   0  0  0  0  0  0  0  0  0  0  0  0
   41.3450   25.6882   35.7243 H   0  0  0  0  0  0  0  0  0  0  0  0
   41.5977   27.2966   35.2176 H   0  0  0  0  0  0  0  0  0  0  0  0
   40.4112   24.7404   40.9589 C   0  0  0  0  0  0  0  0  0  0  0  0
   40.9952   24.2929   42.3364 C   0  0  0  0  0  0  0  0  0  0  0  0
   40.4242   22.9244   42.7724 C   0  0  0  0  0  0  0  0  0  0  0  0
   39.0588   23.0397   43.4689 C   0  0  0  0  0  0  0  0  0  0  0  0
   38.0016   22.3376   42.6035 C   0  0  0  0  0  0  0  0  0  0  0  0
   37.1918   23.2516   41.7239 C   0  0  0  0  0  0  0  0  0  0  0  0
   35.4755   23.2606   42.3319 P   0  0  0  0  0  0  0  0  0  0  0  0
   35.3700   22.3356   43.5227 O   0  0  0  0  0  0  0  0  0  0  0  0
   35.1122   24.6685   42.7364 O   0  0  0  0  0  0  0  0  0  0  0  0
   34.5168   22.8209   41.2479 O   0  0  0  0  0  0  0  0  0  0  0  0
   34.4577   22.3353   43.8521 H   0  0  0  0  0  0  0  0  0  0  0  0
   34.5911   23.4195   40.4882 H   0  0  0  0  0  0  0  0  0  0  0  0
 23 21  2  0  0  0
 24 21  1  0  0  0
 21 20  1  0  0  0
 21 22  1  0  0  0
 19 20  1  0  0  0
 19 18  1  0  0  0
 17 18  1  0  0  0
 17 16  1  0  0  0
 15 16  1  0  0  0
 15 11  1  0  0  0
 11 10  1  0  0  0
 11  7  1  0  0  0
 10  9  2  0  0  0
  7  6  1  0  0  0
  7  8  2  0  0  0
  6  4  2  0  0  0
  9  8  1  0  0  0
  8  2  1  0  0  0
  4  5  1  0  0  0
  4  3  1  0  0  0
  2  3  1  0  0  0
  2  1  2  0  0  0
  3 12  1  0  0  0
  5 13  1  0  0  0
  5 14  1  0  0  0
 22 25  1  0  0  0
 24 26  1  0  0  0
M  END
> <minimizedAffinity>
-6.27934

$$$$
5JSQ_6MS_A_301


 26 27  0  0  0  0  0  0  0  0999 V2000
   38.9093   18.7763   40.4128 O   0  0  0  0  0  0  0  0  0  0  0  0
   39.0775   19.7932   41.0466 C   0  0  0  0  0  0  0  0  0  0  0  0
   38.1129   20.1376   41.9796 N   0  0  0  0  0  0  0  0  0  0  0  0
   38.2197   21.3055   42.7619 C   0  0  0  0  0  0  0  0  0  0  0  0
   37.1951   21.5370   43.6564 N   0  0  0  0  0  0  0  0  0  0  0  0
   39.3105   22.2132   42.6109 N   0  0  0  0  0  0  0  0  0  0  0  0
   40.2950   21.8861   41.6276 C   0  0  0  0  0  0  0  0  0  0  0  0
   40.2330   20.7294   40.8549 C   0  0  0  0  0  0  0  0  0  0  0  0
   41.3410   20.7071   40.0510 N   0  0  0  0  0  0  0  0  0  0  0  0
   42.0425   21.8122   40.3162 C   0  0  0  0  0  0  0  0  0  0  0  0
   41.4280   22.5209   41.2518 N   0  0  0  0  0  0  0  0  0  0  0  0
   37.3316   19.5508   42.0995 H   0  0  0  0  0  0  0  0  0  0  0  0
   37.2140   22.3367   44.2304 H   0  0  0  0  0  0  0  0  0  0  0  0
   36.4450   20.9026   43.7207 H   0  0  0  0  0  0  0  0  0  0  0  0
   41.8411   23.7796   41.8473 C   0  0  0  0  0  0  0  0  0  0  0  0
   41.6037   24.9194   40.8065 C   0  0  0  0  0  0  0  0  0  0  0  0
   40.5020   25.8943   41.2804 C   0  0  0  0  0  0  0  0  0  0  0  0
   39.3820   26.0815   40.2444 C   0  0  0  0  0  0  0  0  0  0  0  0
   39.6904   27.3292   39.4033 C   0  0  0  0  0  0  0  0  0  0  0  0
   39.7505   28.6183   40.1776 C   0  0  0  0  0  0  0  0  0  0  0  0
   41.3147   29.4581   39.7733 P   0  0  0  0  0  0  0  0  0  0  0  0
   41.5165   30.6107   40.7301 O   0  0  0  0  0  0  0  0  0  0  0  0
   42.4454   28.4679   39.9099 O   0  0  0  0  0  0  0  0  0  0  0  0
   41.3026   29.9640   38.3480 O   0  0  0  0  0  0  0  0  0  0  0  0
   42.3485   31.0630   40.5205 H   0  0  0  0  0  0  0  0  0  0  0  0
   41.1727   29.2183   37.7413 H   0  0  0  0  0  0  0  0  0  0  0  0
 23 21  2  0  0  0
 24 21  1  0  0  0
 21 20  1  0  0  0
 21 22  1  0  0  0
 19 20  1  0  0  0
 19 18  1  0  0  0
 17 18  1  0  0  0
 17 16  1  0  0  0
 15 16  1  0  0  0
 15 11  1  0  0  0
 11 10  1  0  0  0
 11  7  1  0  0  0
 10  9  2  0  0  0
  7  6  1  0  0  0
  7  8  2  0  0  0
  6  4  2  0  0  0
  9  8  1  0  0  0
  8  2  1  0  0  0
  4  5  1  0  0  0
  4  3  1  0  0  0
  2  3  1  0  0  0
  2  1  2  0  0  0
  3 12  1  0  0  0
  5 13  1  0  0  0
  5 14  1  0  0  0
 22 25  1  0  0  0
 24 26  1  0  0  0
M  END
> <minimizedAffinity>
-6.24953

$$$$
5JSQ_6MS_A_301


 26 27  0  0  0  0  0  0  0  0999 V2000
   42.7818   22.6633   43.9589 O   0  0  0  0  0  0  0  0  0  0  0  0
   41.6872   22.4460   43.4912 C   0  0  0  0  0  0  0  0  0  0  0  0
   40.7600   21.8017   44.2942 N   0  0  0  0  0  0  0  0  0  0  0  0
   39.4611   21.5019   43.8355 C   0  0  0  0  0  0  0  0  0  0  0  0
   38.6307   20.8595   44.7307 N   0  0  0  0  0  0  0  0  0  0  0  0
   39.0426   21.8160   42.5078 N   0  0  0  0  0  0  0  0  0  0  0  0
   40.0014   22.4506   41.6587 C   0  0  0  0  0  0  0  0  0  0  0  0
   41.2842   22.7824   42.0867 C   0  0  0  0  0  0  0  0  0  0  0  0
   41.9208   23.4057   41.0469 N   0  0  0  0  0  0  0  0  0  0  0  0
   41.0628   23.4408   40.0240 C   0  0  0  0  0  0  0  0  0  0  0  0
   39.9186   22.8740   40.3773 N   0  0  0  0  0  0  0  0  0  0  0  0
   41.0153   21.5463   45.2101 H   0  0  0  0  0  0  0  0  0  0  0  0
   37.7116   20.6240   44.4677 H   0  0  0  0  0  0  0  0  0  0  0  0
   38.9571   20.6366   45.6323 H   0  0  0  0  0  0  0  0  0  0  0  0
   38.7128   22.7054   39.5854 C   0  0  0  0  0  0  0  0  0  0  0  0
   37.7677   23.9176   39.8613 C   0  0  0  0  0  0  0  0  0  0  0  0
   38.2737   25.1976   39.1581 C   0  0  0  0  0  0  0  0  0  0  0  0
   38.6705   26.3065   40.1459 C   0  0  0  0  0  0  0  0  0  0  0  0
   39.4590   27.3848   39.3877 C   0  0  0  0  0  0  0  0  0  0  0  0
   39.7844   28.6158   40.1902 C   0  0  0  0  0  0  0  0  0  0  0  0
   41.4321   29.2076   39.6901 P   0  0  0  0  0  0  0  0  0  0  0  0
   42.3924   28.0404   39.6801 O   0  0  0  0  0  0  0  0  0  0  0  0
   41.3327   29.8079   38.3091 O   0  0  0  0  0  0  0  0  0  0  0  0
   41.9296   30.2796   40.6339 O   0  0  0  0  0  0  0  0  0  0  0  0
   43.2730   28.3484   39.4144 H   0  0  0  0  0  0  0  0  0  0  0  0
   41.3079   31.0241   40.6341 H   0  0  0  0  0  0  0  0  0  0  0  0
 23 21  2  0  0  0
 24 21  1  0  0  0
 21 20  1  0  0  0
 21 22  1  0  0  0
 19 20  1  0  0  0
 19 18  1  0  0  0
 17 18  1  0  0  0
 17 16  1  0  0  0
 15 16  1  0  0  0
 15 11  1  0  0  0
 11 10  1  0  0  0
 11  7  1  0  0  0
 10  9  2  0  0  0
  7  6  1  0  0  0
  7  8  2  0  0  0
  6  4  2  0  0  0
  9  8  1  0  0  0
  8  2  1  0  0  0
  4  5  1  0  0  0
  4  3  1  0  0  0
  2  3  1  0  0  0
  2  1  2  0  0  0
  3 12  1  0  0  0
  5 13  1  0  0  0
  5 14  1  0  0  0
 22 25  1  0  0  0
 24 26  1  0  0  0
M  END
> <minimizedAffinity>
-6.13413

$$$$
