6FAF_D3B_A_302


 28 29  0  0  0  0  0  0  0  0999 V2000
   11.9986   35.6736   15.1514 N   0  0  0  0  0  0  0  0  0  0  0  0
   13.2117   35.3040   14.6137 C   0  0  0  0  0  0  0  0  0  0  0  0
   13.4357   35.2483   13.4063 O   0  0  0  0  0  0  0  0  0  0  0  0
   14.1599   35.0040   15.5628 N   0  0  0  0  0  0  0  0  0  0  0  0
   11.9956   35.9037   16.1086 H   0  0  0  0  0  0  0  0  0  0  0  0
   15.0779   34.8666   15.2345 H   0  0  0  0  0  0  0  0  0  0  0  0
   13.3399   33.4632   18.8201 C   0  0  0  0  0  0  0  0  0  0  0  0
   13.6276   34.4927   19.7030 C   0  0  0  0  0  0  0  0  0  0  0  0
   14.0851   35.7088   19.2118 C   0  0  0  0  0  0  0  0  0  0  0  0
   14.2420   35.9155   17.8463 C   0  0  0  0  0  0  0  0  0  0  0  0
   13.9660   34.8701   16.9589 C   0  0  0  0  0  0  0  0  0  0  0  0
   13.5120   33.6392   17.4496 C   0  0  0  0  0  0  0  0  0  0  0  0
   12.9320   32.7799   16.5671 O   0  0  0  0  0  0  0  0  0  0  0  0
   13.0512   32.9031   15.6459 H   0  0  0  0  0  0  0  0  0  0  0  0
   14.5532   36.9845   20.3442 S   0  0  0  0  0  0  0  0  0  0  0  0
   14.8148   38.1593   19.5723 O   0  0  0  0  0  0  0  0  0  0  0  0
   15.5942   36.4623   21.1787 O   0  0  0  0  0  0  0  0  0  0  0  0
   13.3016   37.3126   21.2990 N   0  0  0  0  0  0  0  0  0  0  0  0
   13.0842   36.4944   21.8678 H   0  0  0  0  0  0  0  0  0  0  0  0
   12.4921   37.5542   20.7274 H   0  0  0  0  0  0  0  0  0  0  0  0
   10.7493   35.7593   14.4758 C   0  0  0  0  0  0  0  0  0  0  0  0
   10.6745   36.3279   13.1991 C   0  0  0  0  0  0  0  0  0  0  0  0
    9.4647   36.4413   12.5271 C   0  0  0  0  0  0  0  0  0  0  0  0
    8.3173   35.9927   13.1693 C   0  0  0  0  0  0  0  0  0  0  0  0
    8.3747   35.4273   14.4317 C   0  0  0  0  0  0  0  0  0  0  0  0
    9.5832   35.2806   15.1123 C   0  0  0  0  0  0  0  0  0  0  0  0
    9.6279   34.5918   16.4522 C   0  0  0  0  0  0  0  0  0  0  0  0
    9.4053   37.0045   11.1281 C   0  0  0  0  0  0  0  0  0  0  0  0
 28 23  1  0  0  0
 23 24  2  0  0  0
 23 22  1  0  0  0
 24 25  1  0  0  0
 22 21  2  0  0  0
  3  2  2  0  0  0
 25 26  2  0  0  0
 21 26  1  0  0  0
 21  1  1  0  0  0
  2  1  1  0  0  0
  2  4  1  0  0  0
 26 27  1  0  0  0
  4 11  1  0  0  0
 13 12  1  0  0  0
 11 12  2  0  0  0
 11 10  1  0  0  0
 12  7  1  0  0  0
 10  9  2  0  0  0
  7  8  2  0  0  0
  9  8  1  0  0  0
  9 15  1  0  0  0
 18 15  1  0  0  0
 15 17  2  0  0  0
 15 16  2  0  0  0
  1  5  1  0  0  0
  4  6  1  0  0  0
 13 14  1  0  0  0
 18 19  1  0  0  0
 18 20  1  0  0  0
M  END
> <minimizedAffinity>
-8.35437

$$$$
6FAF_D3B_A_302


 28 29  0  0  0  0  0  0  0  0999 V2000
   11.7641   34.5714   14.6576 N   0  0  0  0  0  0  0  0  0  0  0  0
   13.0175   34.4144   14.1084 C   0  0  0  0  0  0  0  0  0  0  0  0
   13.2175   34.1702   12.9203 O   0  0  0  0  0  0  0  0  0  0  0  0
   14.0349   34.5617   15.0211 N   0  0  0  0  0  0  0  0  0  0  0  0
   11.7256   34.9846   15.5503 H   0  0  0  0  0  0  0  0  0  0  0  0
   14.9483   34.5937   14.6552 H   0  0  0  0  0  0  0  0  0  0  0  0
   13.5083   33.5874   18.5467 C   0  0  0  0  0  0  0  0  0  0  0  0
   13.7413   34.7821   19.2105 C   0  0  0  0  0  0  0  0  0  0  0  0
   14.0633   35.9196   18.4813 C   0  0  0  0  0  0  0  0  0  0  0  0
   14.1381   35.8827   17.0938 C   0  0  0  0  0  0  0  0  0  0  0  0
   13.9180   34.6725   16.4277 C   0  0  0  0  0  0  0  0  0  0  0  0
   13.6009   33.5208   17.1590 C   0  0  0  0  0  0  0  0  0  0  0  0
   13.0617   32.4691   16.4829 O   0  0  0  0  0  0  0  0  0  0  0  0
   13.1269   32.4294   15.5490 H   0  0  0  0  0  0  0  0  0  0  0  0
   14.4647   37.4162   19.3346 S   0  0  0  0  0  0  0  0  0  0  0  0
   13.8535   37.3434   20.6252 O   0  0  0  0  0  0  0  0  0  0  0  0
   14.1271   38.5098   18.4728 O   0  0  0  0  0  0  0  0  0  0  0  0
   16.0553   37.4690   19.5647 N   0  0  0  0  0  0  0  0  0  0  0  0
   16.5278   37.5217   18.6623 H   0  0  0  0  0  0  0  0  0  0  0  0
   16.3557   36.6279   20.0573 H   0  0  0  0  0  0  0  0  0  0  0  0
   10.5188   34.2022   14.0768 C   0  0  0  0  0  0  0  0  0  0  0  0
   10.3049   34.3632   12.7029 C   0  0  0  0  0  0  0  0  0  0  0  0
    9.0921   34.0291   12.1153 C   0  0  0  0  0  0  0  0  0  0  0  0
    8.0799   33.5481   12.9365 C   0  0  0  0  0  0  0  0  0  0  0  0
    8.2759   33.3825   14.2969 C   0  0  0  0  0  0  0  0  0  0  0  0
    9.4950   33.6874   14.9020 C   0  0  0  0  0  0  0  0  0  0  0  0
    9.7067   33.4251   16.3710 C   0  0  0  0  0  0  0  0  0  0  0  0
    8.8930   34.1541   10.6244 C   0  0  0  0  0  0  0  0  0  0  0  0
 28 23  1  0  0  0
 23 24  2  0  0  0
 23 22  1  0  0  0
 24 25  1  0  0  0
 22 21  2  0  0  0
  3  2  2  0  0  0
 25 26  2  0  0  0
 21 26  1  0  0  0
 21  1  1  0  0  0
  2  1  1  0  0  0
  2  4  1  0  0  0
 26 27  1  0  0  0
  4 11  1  0  0  0
 13 12  1  0  0  0
 11 12  2  0  0  0
 11 10  1  0  0  0
 12  7  1  0  0  0
 10  9  2  0  0  0
  7  8  2  0  0  0
  9  8  1  0  0  0
  9 15  1  0  0  0
 18 15  1  0  0  0
 15 17  2  0  0  0
 15 16  2  0  0  0
  1  5  1  0  0  0
  4  6  1  0  0  0
 13 14  1  0  0  0
 18 19  1  0  0  0
 18 20  1  0  0  0
M  END
> <minimizedAffinity>
-7.65330

$$$$
6FAF_D3B_A_302


 28 29  0  0  0  0  0  0  0  0999 V2000
   12.2919   35.0461   14.5779 N   0  0  0  0  0  0  0  0  0  0  0  0
   13.4550   34.3998   14.2217 C   0  0  0  0  0  0  0  0  0  0  0  0
   13.6873   33.9861   13.0876 O   0  0  0  0  0  0  0  0  0  0  0  0
   14.3429   34.2625   15.2622 N   0  0  0  0  0  0  0  0  0  0  0  0
   12.3048   35.5305   15.4348 H   0  0  0  0  0  0  0  0  0  0  0  0
   15.2402   33.9308   15.0294 H   0  0  0  0  0  0  0  0  0  0  0  0
   13.3364   33.7728   18.7840 C   0  0  0  0  0  0  0  0  0  0  0  0
   13.6948   34.9846   19.3541 C   0  0  0  0  0  0  0  0  0  0  0  0
   14.2630   35.9735   18.5612 C   0  0  0  0  0  0  0  0  0  0  0  0
   14.4614   35.7732   17.2001 C   0  0  0  0  0  0  0  0  0  0  0  0
   14.1133   34.5439   16.6306 C   0  0  0  0  0  0  0  0  0  0  0  0
   13.5475   33.5405   17.4274 C   0  0  0  0  0  0  0  0  0  0  0  0
   12.9123   32.5138   16.7979 O   0  0  0  0  0  0  0  0  0  0  0  0
   13.0581   32.3621   15.8848 H   0  0  0  0  0  0  0  0  0  0  0  0
   14.8176   37.4775   19.3090 S   0  0  0  0  0  0  0  0  0  0  0  0
   14.2289   38.5554   18.5768 O   0  0  0  0  0  0  0  0  0  0  0  0
   16.2452   37.4107   19.4087 O   0  0  0  0  0  0  0  0  0  0  0  0
   14.2418   37.5519   20.8086 N   0  0  0  0  0  0  0  0  0  0  0  0
   14.6408   36.7951   21.3640 H   0  0  0  0  0  0  0  0  0  0  0  0
   13.2262   37.4593   20.7879 H   0  0  0  0  0  0  0  0  0  0  0  0
   11.0740   35.0907   13.8437 C   0  0  0  0  0  0  0  0  0  0  0  0
   10.0673   34.1494   14.0879 C   0  0  0  0  0  0  0  0  0  0  0  0
    8.8780   34.1594   13.3714 C   0  0  0  0  0  0  0  0  0  0  0  0
    8.7206   35.1219   12.3819 C   0  0  0  0  0  0  0  0  0  0  0  0
    9.7065   36.0602   12.1287 C   0  0  0  0  0  0  0  0  0  0  0  0
   10.8970   36.0833   12.8550 C   0  0  0  0  0  0  0  0  0  0  0  0
   11.9206   37.1626   12.6119 C   0  0  0  0  0  0  0  0  0  0  0  0
    7.7776   33.1744   13.6828 C   0  0  0  0  0  0  0  0  0  0  0  0
 28 23  1  0  0  0
 23 24  2  0  0  0
 23 22  1  0  0  0
 24 25  1  0  0  0
 22 21  2  0  0  0
  3  2  2  0  0  0
 25 26  2  0  0  0
 21 26  1  0  0  0
 21  1  1  0  0  0
  2  1  1  0  0  0
  2  4  1  0  0  0
 26 27  1  0  0  0
  4 11  1  0  0  0
 13 12  1  0  0  0
 11 12  2  0  0  0
 11 10  1  0  0  0
 12  7  1  0  0  0
 10  9  2  0  0  0
  7  8  2  0  0  0
  9  8  1  0  0  0
  9 15  1  0  0  0
 18 15  1  0  0  0
 15 17  2  0  0  0
 15 16  2  0  0  0
  1  5  1  0  0  0
  4  6  1  0  0  0
 13 14  1  0  0  0
 18 19  1  0  0  0
 18 20  1  0  0  0
M  END
> <minimizedAffinity>
-7.58526

$$$$
6FAF_D3B_A_302


 28 29  0  0  0  0  0  0  0  0999 V2000
   12.3111   33.8728   15.8120 N   0  0  0  0  0  0  0  0  0  0  0  0
   12.5031   34.9667   14.9971 C   0  0  0  0  0  0  0  0  0  0  0  0
   12.7669   36.0923   15.4150 O   0  0  0  0  0  0  0  0  0  0  0  0
   12.3751   34.6788   13.6590 N   0  0  0  0  0  0  0  0  0  0  0  0
   12.3335   32.9913   15.3744 H   0  0  0  0  0  0  0  0  0  0  0  0
   12.6354   35.3920   13.0323 H   0  0  0  0  0  0  0  0  0  0  0  0
   10.0528   32.1822   12.2341 C   0  0  0  0  0  0  0  0  0  0  0  0
   10.9184   31.1613   11.8727 C   0  0  0  0  0  0  0  0  0  0  0  0
   12.2792   31.2988   12.1149 C   0  0  0  0  0  0  0  0  0  0  0  0
   12.7849   32.4377   12.7308 C   0  0  0  0  0  0  0  0  0  0  0  0
   11.9113   33.4728   13.0801 C   0  0  0  0  0  0  0  0  0  0  0  0
   10.5392   33.3425   12.8307 C   0  0  0  0  0  0  0  0  0  0  0  0
    9.6935   34.1886   13.4809 O   0  0  0  0  0  0  0  0  0  0  0  0
   10.0263   34.9680   13.8806 H   0  0  0  0  0  0  0  0  0  0  0  0
   13.3940   30.0437   11.5574 S   0  0  0  0  0  0  0  0  0  0  0  0
   13.4881   30.1634   10.1357 O   0  0  0  0  0  0  0  0  0  0  0  0
   12.9589   28.7985   12.1169 O   0  0  0  0  0  0  0  0  0  0  0  0
   14.8549   30.3467   12.1572 N   0  0  0  0  0  0  0  0  0  0  0  0
   14.8276   30.2704   13.1740 H   0  0  0  0  0  0  0  0  0  0  0  0
   15.1414   31.2898   11.8946 H   0  0  0  0  0  0  0  0  0  0  0  0
   12.0838   33.8767   17.2166 C   0  0  0  0  0  0  0  0  0  0  0  0
   13.1521   34.0484   18.1044 C   0  0  0  0  0  0  0  0  0  0  0  0
   12.9596   34.0361   19.4794 C   0  0  0  0  0  0  0  0  0  0  0  0
   11.6717   33.8246   19.9558 C   0  0  0  0  0  0  0  0  0  0  0  0
   10.6044   33.6538   19.0908 C   0  0  0  0  0  0  0  0  0  0  0  0
   10.7728   33.6889   17.7067 C   0  0  0  0  0  0  0  0  0  0  0  0
    9.5830   33.5774   16.7882 C   0  0  0  0  0  0  0  0  0  0  0  0
   14.1105   34.2789   20.4251 C   0  0  0  0  0  0  0  0  0  0  0  0
 28 23  1  0  0  0
 23 24  2  0  0  0
 23 22  1  0  0  0
 24 25  1  0  0  0
 22 21  2  0  0  0
  3  2  2  0  0  0
 25 26  2  0  0  0
 21 26  1  0  0  0
 21  1  1  0  0  0
  2  1  1  0  0  0
  2  4  1  0  0  0
 26 27  1  0  0  0
  4 11  1  0  0  0
 13 12  1  0  0  0
 11 12  2  0  0  0
 11 10  1  0  0  0
 12  7  1  0  0  0
 10  9  2  0  0  0
  7  8  2  0  0  0
  9  8  1  0  0  0
  9 15  1  0  0  0
 18 15  1  0  0  0
 15 17  2  0  0  0
 15 16  2  0  0  0
  1  5  1  0  0  0
  4  6  1  0  0  0
 13 14  1  0  0  0
 18 19  1  0  0  0
 18 20  1  0  0  0
M  END
> <minimizedAffinity>
-7.22596

$$$$
6FAF_D3B_A_302


 28 29  0  0  0  0  0  0  0  0999 V2000
   13.0747   35.6011   15.0556 N   0  0  0  0  0  0  0  0  0  0  0  0
   11.9407   36.1897   14.5409 C   0  0  0  0  0  0  0  0  0  0  0  0
   10.9946   36.5678   15.2288 O   0  0  0  0  0  0  0  0  0  0  0  0
   11.9672   36.3201   13.1727 N   0  0  0  0  0  0  0  0  0  0  0  0
   13.8525   35.5487   14.4543 H   0  0  0  0  0  0  0  0  0  0  0  0
   11.2446   36.8546   12.7711 H   0  0  0  0  0  0  0  0  0  0  0  0
   14.8473   36.1176   10.8660 C   0  0  0  0  0  0  0  0  0  0  0  0
   14.8709   34.7663   10.5573 C   0  0  0  0  0  0  0  0  0  0  0  0
   13.9174   33.9205   11.1095 C   0  0  0  0  0  0  0  0  0  0  0  0
   12.9281   34.4116   11.9534 C   0  0  0  0  0  0  0  0  0  0  0  0
   12.9161   35.7728   12.2756 C   0  0  0  0  0  0  0  0  0  0  0  0
   13.8802   36.6285   11.7278 C   0  0  0  0  0  0  0  0  0  0  0  0
   13.6403   37.9679   11.7768 O   0  0  0  0  0  0  0  0  0  0  0  0
   12.9884   38.3061   12.3586 H   0  0  0  0  0  0  0  0  0  0  0  0
   14.0126   32.1814   10.8005 S   0  0  0  0  0  0  0  0  0  0  0  0
   15.2310   31.9447   10.0907 O   0  0  0  0  0  0  0  0  0  0  0  0
   12.7756   31.7802   10.1992 O   0  0  0  0  0  0  0  0  0  0  0  0
   14.1257   31.4120   12.2080 N   0  0  0  0  0  0  0  0  0  0  0  0
   13.2709   31.5582   12.7450 H   0  0  0  0  0  0  0  0  0  0  0  0
   14.9223   31.7755   12.7311 H   0  0  0  0  0  0  0  0  0  0  0  0
   13.2460   35.0606   16.3606 C   0  0  0  0  0  0  0  0  0  0  0  0
   13.7058   35.8702   17.4056 C   0  0  0  0  0  0  0  0  0  0  0  0
   13.9001   35.3620   18.6830 C   0  0  0  0  0  0  0  0  0  0  0  0
   13.6458   34.0125   18.8939 C   0  0  0  0  0  0  0  0  0  0  0  0
   13.1899   33.1987   17.8709 C   0  0  0  0  0  0  0  0  0  0  0  0
   12.9636   33.6957   16.5876 C   0  0  0  0  0  0  0  0  0  0  0  0
   12.3938   32.8064   15.5123 C   0  0  0  0  0  0  0  0  0  0  0  0
   14.3421   36.2580   19.8144 C   0  0  0  0  0  0  0  0  0  0  0  0
 28 23  1  0  0  0
 23 24  2  0  0  0
 23 22  1  0  0  0
 24 25  1  0  0  0
 22 21  2  0  0  0
  3  2  2  0  0  0
 25 26  2  0  0  0
 21 26  1  0  0  0
 21  1  1  0  0  0
  2  1  1  0  0  0
  2  4  1  0  0  0
 26 27  1  0  0  0
  4 11  1  0  0  0
 13 12  1  0  0  0
 11 12  2  0  0  0
 11 10  1  0  0  0
 12  7  1  0  0  0
 10  9  2  0  0  0
  7  8  2  0  0  0
  9  8  1  0  0  0
  9 15  1  0  0  0
 18 15  1  0  0  0
 15 17  2  0  0  0
 15 16  2  0  0  0
  1  5  1  0  0  0
  4  6  1  0  0  0
 13 14  1  0  0  0
 18 19  1  0  0  0
 18 20  1  0  0  0
M  END
> <minimizedAffinity>
-7.06761

$$$$
6FAF_D3B_A_302


 28 29  0  0  0  0  0  0  0  0999 V2000
   12.5212   32.5441   14.4132 N   0  0  0  0  0  0  0  0  0  0  0  0
   13.1919   33.2123   13.4126 C   0  0  0  0  0  0  0  0  0  0  0  0
   13.6765   34.3342   13.5458 O   0  0  0  0  0  0  0  0  0  0  0  0
   13.2733   32.4989   12.2403 N   0  0  0  0  0  0  0  0  0  0  0  0
   12.3788   31.5796   14.2766 H   0  0  0  0  0  0  0  0  0  0  0  0
   13.8568   32.8731   11.5413 H   0  0  0  0  0  0  0  0  0  0  0  0
   12.6837   28.8745   11.8255 C   0  0  0  0  0  0  0  0  0  0  0  0
   11.3653   28.8471   11.3979 C   0  0  0  0  0  0  0  0  0  0  0  0
   10.6728   30.0402   11.2354 C   0  0  0  0  0  0  0  0  0  0  0  0
   11.2875   31.2631   11.4778 C   0  0  0  0  0  0  0  0  0  0  0  0
   12.6130   31.2870   11.9243 C   0  0  0  0  0  0  0  0  0  0  0  0
   13.3131   30.0864   12.0975 C   0  0  0  0  0  0  0  0  0  0  0  0
   14.6699   30.1516   12.1912 O   0  0  0  0  0  0  0  0  0  0  0  0
   15.0881   30.9698   12.3744 H   0  0  0  0  0  0  0  0  0  0  0  0
    8.9605   29.9998   10.7933 S   0  0  0  0  0  0  0  0  0  0  0  0
    8.4105   28.8001   11.3432 O   0  0  0  0  0  0  0  0  0  0  0  0
    8.8733   30.2130    9.3792 O   0  0  0  0  0  0  0  0  0  0  0  0
    8.2141   31.2339   11.5045 N   0  0  0  0  0  0  0  0  0  0  0  0
    8.5814   32.1113   11.1362 H   0  0  0  0  0  0  0  0  0  0  0  0
    8.3744   31.1939   12.5110 H   0  0  0  0  0  0  0  0  0  0  0  0
   12.0116   33.0942   15.6223 C   0  0  0  0  0  0  0  0  0  0  0  0
   12.8624   33.3145   16.7117 C   0  0  0  0  0  0  0  0  0  0  0  0
   12.3861   33.8316   17.9090 C   0  0  0  0  0  0  0  0  0  0  0  0
   11.0276   34.1059   18.0065 C   0  0  0  0  0  0  0  0  0  0  0  0
   10.1731   33.8942   16.9380 C   0  0  0  0  0  0  0  0  0  0  0  0
   10.6364   33.4002   15.7187 C   0  0  0  0  0  0  0  0  0  0  0  0
    9.6993   33.2519   14.5476 C   0  0  0  0  0  0  0  0  0  0  0  0
   13.3234   34.1176   19.0569 C   0  0  0  0  0  0  0  0  0  0  0  0
 28 23  1  0  0  0
 23 24  2  0  0  0
 23 22  1  0  0  0
 24 25  1  0  0  0
 22 21  2  0  0  0
  3  2  2  0  0  0
 25 26  2  0  0  0
 21 26  1  0  0  0
 21  1  1  0  0  0
  2  1  1  0  0  0
  2  4  1  0  0  0
 26 27  1  0  0  0
  4 11  1  0  0  0
 13 12  1  0  0  0
 11 12  2  0  0  0
 11 10  1  0  0  0
 12  7  1  0  0  0
 10  9  2  0  0  0
  7  8  2  0  0  0
  9  8  1  0  0  0
  9 15  1  0  0  0
 18 15  1  0  0  0
 15 17  2  0  0  0
 15 16  2  0  0  0
  1  5  1  0  0  0
  4  6  1  0  0  0
 13 14  1  0  0  0
 18 19  1  0  0  0
 18 20  1  0  0  0
M  END
> <minimizedAffinity>
-6.86586

$$$$
6FAF_D3B_A_302


 28 29  0  0  0  0  0  0  0  0999 V2000
    9.0802   36.2848   12.7260 N   0  0  0  0  0  0  0  0  0  0  0  0
    8.6312   35.4953   11.6903 C   0  0  0  0  0  0  0  0  0  0  0  0
    8.5646   34.2690   11.7449 O   0  0  0  0  0  0  0  0  0  0  0  0
    8.2567   36.2139   10.5798 N   0  0  0  0  0  0  0  0  0  0  0  0
    8.8789   37.2464   12.6628 H   0  0  0  0  0  0  0  0  0  0  0  0
    7.8035   35.7097    9.8660 H   0  0  0  0  0  0  0  0  0  0  0  0
    7.5007   39.8172   10.2613 C   0  0  0  0  0  0  0  0  0  0  0  0
    8.7500   40.3466    9.9768 C   0  0  0  0  0  0  0  0  0  0  0  0
    9.8468   39.4999    9.8787 C   0  0  0  0  0  0  0  0  0  0  0  0
    9.7078   38.1268   10.0438 C   0  0  0  0  0  0  0  0  0  0  0  0
    8.4490   37.5971   10.3463 C   0  0  0  0  0  0  0  0  0  0  0  0
    7.3413   38.4474   10.4543 C   0  0  0  0  0  0  0  0  0  0  0  0
    6.1025   37.8846   10.4024 O   0  0  0  0  0  0  0  0  0  0  0  0
    6.0012   36.9623   10.5330 H   0  0  0  0  0  0  0  0  0  0  0  0
   11.4566   40.1866    9.6219 S   0  0  0  0  0  0  0  0  0  0  0  0
   11.4239   41.5319   10.1051 O   0  0  0  0  0  0  0  0  0  0  0  0
   11.8133   39.9541    8.2539 O   0  0  0  0  0  0  0  0  0  0  0  0
   12.5124   39.3817   10.5292 N   0  0  0  0  0  0  0  0  0  0  0  0
   12.5635   38.4133   10.2132 H   0  0  0  0  0  0  0  0  0  0  0  0
   12.2115   39.4060   11.5035 H   0  0  0  0  0  0  0  0  0  0  0  0
    9.8028   35.8636   13.8770 C   0  0  0  0  0  0  0  0  0  0  0  0
    9.1673   35.1170   14.8758 C   0  0  0  0  0  0  0  0  0  0  0  0
    9.8450   34.7110   16.0176 C   0  0  0  0  0  0  0  0  0  0  0  0
   11.1753   35.0874   16.1551 C   0  0  0  0  0  0  0  0  0  0  0  0
   11.8184   35.8251   15.1759 C   0  0  0  0  0  0  0  0  0  0  0  0
   11.1627   36.2202   14.0100 C   0  0  0  0  0  0  0  0  0  0  0  0
   11.9073   36.9559   12.9254 C   0  0  0  0  0  0  0  0  0  0  0  0
    9.1644   33.8584   17.0606 C   0  0  0  0  0  0  0  0  0  0  0  0
 28 23  1  0  0  0
 23 24  2  0  0  0
 23 22  1  0  0  0
 24 25  1  0  0  0
 22 21  2  0  0  0
  3  2  2  0  0  0
 25 26  2  0  0  0
 21 26  1  0  0  0
 21  1  1  0  0  0
  2  1  1  0  0  0
  2  4  1  0  0  0
 26 27  1  0  0  0
  4 11  1  0  0  0
 13 12  1  0  0  0
 11 12  2  0  0  0
 11 10  1  0  0  0
 12  7  1  0  0  0
 10  9  2  0  0  0
  7  8  2  0  0  0
  9  8  1  0  0  0
  9 15  1  0  0  0
 18 15  1  0  0  0
 15 17  2  0  0  0
 15 16  2  0  0  0
  1  5  1  0  0  0
  4  6  1  0  0  0
 13 14  1  0  0  0
 18 19  1  0  0  0
 18 20  1  0  0  0
M  END
> <minimizedAffinity>
-6.64761

$$$$
6FAF_D3B_A_302


 28 29  0  0  0  0  0  0  0  0999 V2000
   10.8249   35.2919   13.1607 N   0  0  0  0  0  0  0  0  0  0  0  0
   10.8010   34.4313   12.0854 C   0  0  0  0  0  0  0  0  0  0  0  0
   10.3323   33.2957   12.1292 O   0  0  0  0  0  0  0  0  0  0  0  0
   11.3522   34.9674   10.9458 N   0  0  0  0  0  0  0  0  0  0  0  0
   11.0081   36.2382   12.9604 H   0  0  0  0  0  0  0  0  0  0  0  0
   11.2373   34.4462   10.1186 H   0  0  0  0  0  0  0  0  0  0  0  0
   14.1359   37.3902   11.1392 C   0  0  0  0  0  0  0  0  0  0  0  0
   13.5727   38.5181   10.5626 C   0  0  0  0  0  0  0  0  0  0  0  0
   12.2574   38.4764   10.1181 C   0  0  0  0  0  0  0  0  0  0  0  0
   11.4906   37.3256   10.2591 C   0  0  0  0  0  0  0  0  0  0  0  0
   12.0662   36.1842   10.8270 C   0  0  0  0  0  0  0  0  0  0  0  0
   13.3947   36.2186   11.2694 C   0  0  0  0  0  0  0  0  0  0  0  0
   13.8076   35.2332   12.1134 O   0  0  0  0  0  0  0  0  0  0  0  0
   13.3049   34.4469   12.1971 H   0  0  0  0  0  0  0  0  0  0  0  0
   11.5743   39.8803    9.2867 S   0  0  0  0  0  0  0  0  0  0  0  0
   10.2613   39.5167    8.8529 O   0  0  0  0  0  0  0  0  0  0  0  0
   12.5286   40.3110    8.3087 O   0  0  0  0  0  0  0  0  0  0  0  0
   11.4094   41.0786   10.3463 N   0  0  0  0  0  0  0  0  0  0  0  0
   12.3294   41.3665   10.6798 H   0  0  0  0  0  0  0  0  0  0  0  0
   10.8462   40.7602   11.1348 H   0  0  0  0  0  0  0  0  0  0  0  0
   10.6140   34.9639   14.5290 C   0  0  0  0  0  0  0  0  0  0  0  0
   11.6572   34.4340   15.2972 C   0  0  0  0  0  0  0  0  0  0  0  0
   11.4716   34.0873   16.6287 C   0  0  0  0  0  0  0  0  0  0  0  0
   10.2071   34.2601   17.1776 C   0  0  0  0  0  0  0  0  0  0  0  0
    9.1651   34.7836   16.4314 C   0  0  0  0  0  0  0  0  0  0  0  0
    9.3379   35.1623   15.1003 C   0  0  0  0  0  0  0  0  0  0  0  0
    8.2082   35.8010   14.3338 C   0  0  0  0  0  0  0  0  0  0  0  0
   12.6190   33.5700   17.4619 C   0  0  0  0  0  0  0  0  0  0  0  0
 28 23  1  0  0  0
 23 24  2  0  0  0
 23 22  1  0  0  0
 24 25  1  0  0  0
 22 21  2  0  0  0
  3  2  2  0  0  0
 25 26  2  0  0  0
 21 26  1  0  0  0
 21  1  1  0  0  0
  2  1  1  0  0  0
  2  4  1  0  0  0
 26 27  1  0  0  0
  4 11  1  0  0  0
 13 12  1  0  0  0
 11 12  2  0  0  0
 11 10  1  0  0  0
 12  7  1  0  0  0
 10  9  2  0  0  0
  7  8  2  0  0  0
  9  8  1  0  0  0
  9 15  1  0  0  0
 18 15  1  0  0  0
 15 17  2  0  0  0
 15 16  2  0  0  0
  1  5  1  0  0  0
  4  6  1  0  0  0
 13 14  1  0  0  0
 18 19  1  0  0  0
 18 20  1  0  0  0
M  END
> <minimizedAffinity>
-6.64254

$$$$
6FAF_D3B_A_302


 28 29  0  0  0  0  0  0  0  0999 V2000
   11.8799   35.3372   12.5281 N   0  0  0  0  0  0  0  0  0  0  0  0
   11.2702   34.1962   12.0548 C   0  0  0  0  0  0  0  0  0  0  0  0
   11.0996   33.9574   10.8610 O   0  0  0  0  0  0  0  0  0  0  0  0
   10.8696   33.3386   13.0517 N   0  0  0  0  0  0  0  0  0  0  0  0
   12.1673   35.3219   13.4695 H   0  0  0  0  0  0  0  0  0  0  0  0
   10.5531   32.4520   12.7637 H   0  0  0  0  0  0  0  0  0  0  0  0
    9.5875   33.7776   16.4897 C   0  0  0  0  0  0  0  0  0  0  0  0
   10.7562   33.9885   17.2051 C   0  0  0  0  0  0  0  0  0  0  0  0
   11.9752   33.9966   16.5392 C   0  0  0  0  0  0  0  0  0  0  0  0
   12.0398   33.8142   15.1627 C   0  0  0  0  0  0  0  0  0  0  0  0
   10.8606   33.5859   14.4457 C   0  0  0  0  0  0  0  0  0  0  0  0
    9.6296   33.5688   15.1137 C   0  0  0  0  0  0  0  0  0  0  0  0
    8.4998   33.6921   14.3639 O   0  0  0  0  0  0  0  0  0  0  0  0
    8.5339   33.5504   13.4383 H   0  0  0  0  0  0  0  0  0  0  0  0
   13.4728   34.1589   17.4665 S   0  0  0  0  0  0  0  0  0  0  0  0
   13.5404   33.0433   18.3582 O   0  0  0  0  0  0  0  0  0  0  0  0
   13.5012   35.4823   18.0148 O   0  0  0  0  0  0  0  0  0  0  0  0
   14.7201   34.0377   16.4588 N   0  0  0  0  0  0  0  0  0  0  0  0
   14.7056   34.8198   15.8042 H   0  0  0  0  0  0  0  0  0  0  0  0
   14.6557   33.1606   15.9421 H   0  0  0  0  0  0  0  0  0  0  0  0
   12.1400   36.5354   11.8062 C   0  0  0  0  0  0  0  0  0  0  0  0
   11.0872   37.3817   11.4397 C   0  0  0  0  0  0  0  0  0  0  0  0
   11.3126   38.5463   10.7180 C   0  0  0  0  0  0  0  0  0  0  0  0
   12.6184   38.8410   10.3463 C   0  0  0  0  0  0  0  0  0  0  0  0
   13.6707   38.0145   10.7016 C   0  0  0  0  0  0  0  0  0  0  0  0
   13.4684   36.8541   11.4485 C   0  0  0  0  0  0  0  0  0  0  0  0
   14.6395   36.0132   11.8879 C   0  0  0  0  0  0  0  0  0  0  0  0
   10.1759   39.4793   10.3779 C   0  0  0  0  0  0  0  0  0  0  0  0
 28 23  1  0  0  0
 23 24  2  0  0  0
 23 22  1  0  0  0
 24 25  1  0  0  0
 22 21  2  0  0  0
  3  2  2  0  0  0
 25 26  2  0  0  0
 21 26  1  0  0  0
 21  1  1  0  0  0
  2  1  1  0  0  0
  2  4  1  0  0  0
 26 27  1  0  0  0
  4 11  1  0  0  0
 13 12  1  0  0  0
 11 12  2  0  0  0
 11 10  1  0  0  0
 12  7  1  0  0  0
 10  9  2  0  0  0
  7  8  2  0  0  0
  9  8  1  0  0  0
  9 15  1  0  0  0
 18 15  1  0  0  0
 15 17  2  0  0  0
 15 16  2  0  0  0
  1  5  1  0  0  0
  4  6  1  0  0  0
 13 14  1  0  0  0
 18 19  1  0  0  0
 18 20  1  0  0  0
M  END
> <minimizedAffinity>
-6.62141

$$$$
6FAF_D3B_A_302


 28 29  0  0  0  0  0  0  0  0999 V2000
   13.5534   34.5901   12.7533 N   0  0  0  0  0  0  0  0  0  0  0  0
   13.4035   33.2449   12.4974 C   0  0  0  0  0  0  0  0  0  0  0  0
   13.7731   32.7015   11.4585 O   0  0  0  0  0  0  0  0  0  0  0  0
   12.7994   32.5588   13.5241 N   0  0  0  0  0  0  0  0  0  0  0  0
   13.4361   34.8738   13.6887 H   0  0  0  0  0  0  0  0  0  0  0  0
   12.7921   31.5772   13.4482 H   0  0  0  0  0  0  0  0  0  0  0  0
   10.1917   33.9687   15.7305 C   0  0  0  0  0  0  0  0  0  0  0  0
   10.8782   34.1146   16.9261 C   0  0  0  0  0  0  0  0  0  0  0  0
   12.2176   33.7535   16.9957 C   0  0  0  0  0  0  0  0  0  0  0  0
   12.8858   33.2645   15.8792 C   0  0  0  0  0  0  0  0  0  0  0  0
   12.1867   33.1036   14.6783 C   0  0  0  0  0  0  0  0  0  0  0  0
   10.8338   33.4587   14.6051 C   0  0  0  0  0  0  0  0  0  0  0  0
   10.2863   33.6185   13.3687 O   0  0  0  0  0  0  0  0  0  0  0  0
   10.7227   33.2732   12.6149 H   0  0  0  0  0  0  0  0  0  0  0  0
   13.0632   33.8393   18.5470 S   0  0  0  0  0  0  0  0  0  0  0  0
   13.6853   35.1247   18.6184 O   0  0  0  0  0  0  0  0  0  0  0  0
   13.8830   32.6697   18.6586 O   0  0  0  0  0  0  0  0  0  0  0  0
   11.9777   33.7707   19.7315 N   0  0  0  0  0  0  0  0  0  0  0  0
   11.5109   32.8640   19.7128 H   0  0  0  0  0  0  0  0  0  0  0  0
   11.2879   34.5111   19.6038 H   0  0  0  0  0  0  0  0  0  0  0  0
   13.8590   35.6148   11.8146 C   0  0  0  0  0  0  0  0  0  0  0  0
   14.8887   35.4356   10.8838 C   0  0  0  0  0  0  0  0  0  0  0  0
   15.2196   36.4278    9.9706 C   0  0  0  0  0  0  0  0  0  0  0  0
   14.5113   37.6220   10.0198 C   0  0  0  0  0  0  0  0  0  0  0  0
   13.4896   37.8145   10.9340 C   0  0  0  0  0  0  0  0  0  0  0  0
   13.1248   36.8207   11.8420 C   0  0  0  0  0  0  0  0  0  0  0  0
   11.9586   37.0271   12.7743 C   0  0  0  0  0  0  0  0  0  0  0  0
   16.2939   36.2008    8.9351 C   0  0  0  0  0  0  0  0  0  0  0  0
 28 23  1  0  0  0
 23 24  2  0  0  0
 23 22  1  0  0  0
 24 25  1  0  0  0
 22 21  2  0  0  0
  3  2  2  0  0  0
 25 26  2  0  0  0
 21 26  1  0  0  0
 21  1  1  0  0  0
  2  1  1  0  0  0
  2  4  1  0  0  0
 26 27  1  0  0  0
  4 11  1  0  0  0
 13 12  1  0  0  0
 11 12  2  0  0  0
 11 10  1  0  0  0
 12  7  1  0  0  0
 10  9  2  0  0  0
  7  8  2  0  0  0
  9  8  1  0  0  0
  9 15  1  0  0  0
 18 15  1  0  0  0
 15 17  2  0  0  0
 15 16  2  0  0  0
  1  5  1  0  0  0
  4  6  1  0  0  0
 13 14  1  0  0  0
 18 19  1  0  0  0
 18 20  1  0  0  0
M  END
> <minimizedAffinity>
-6.50844

$$$$
