1AJV_NMB_A_501


 43 47  0  0  0  0  0  0  0  0999 V2000
   11.2724   23.5354    6.0915 N   0  0  0  0  0  0  0  0  0  0  0  0
   11.7269   22.0338    6.6327 S   0  0  0  0  0  0  0  0  0  0  0  0
   13.3030   22.0554    6.3037 N   0  0  0  0  0  0  0  0  0  0  0  0
   13.6214   21.8663    4.8635 C   0  0  0  0  0  0  0  0  0  0  0  0
   13.7691   23.1970    4.1497 C   0  0  0  0  0  0  0  0  0  0  0  0
   12.9115   24.3120    4.7057 C   0  0  0  0  0  0  0  0  0  0  0  0
   11.4125   24.0601    4.7513 C   0  0  0  0  0  0  0  0  0  0  0  0
   11.1172   20.9639    5.8775 O   0  0  0  0  0  0  0  0  0  0  0  0
   15.1026   23.6447    4.2450 O   0  0  0  0  0  0  0  0  0  0  0  0
   13.2254   25.4771    3.9806 O   0  0  0  0  0  0  0  0  0  0  0  0
   11.5936   22.0218    8.0513 O   0  0  0  0  0  0  0  0  0  0  0  0
   15.3240   23.8050    5.1757 H   0  0  0  0  0  0  0  0  0  0  0  0
   12.9935   25.3495    3.0474 H   0  0  0  0  0  0  0  0  0  0  0  0
   10.1147   24.0240    6.7068 C   0  0  0  0  0  0  0  0  0  0  0  0
    9.8571   25.1542    7.6423 C   0  0  0  0  0  0  0  0  0  0  0  0
   10.9125   25.8336    8.2616 C   0  0  0  0  0  0  0  0  0  0  0  0
   10.6513   26.8854    9.1406 C   0  0  0  0  0  0  0  0  0  0  0  0
    9.3074   27.2688    9.4126 C   0  0  0  0  0  0  0  0  0  0  0  0
    8.2359   26.5915    8.8016 C   0  0  0  0  0  0  0  0  0  0  0  0
    8.5154   25.5301    7.9132 C   0  0  0  0  0  0  0  0  0  0  0  0
   14.2157   22.6910    7.2799 C   0  0  0  0  0  0  0  0  0  0  0  0
   15.2501   21.8469    7.9730 C   0  0  0  0  0  0  0  0  0  0  0  0
   14.8653   20.7652    8.8035 C   0  0  0  0  0  0  0  0  0  0  0  0
   15.8512   19.9651    9.4465 C   0  0  0  0  0  0  0  0  0  0  0  0
   17.2198   20.2486    9.2581 C   0  0  0  0  0  0  0  0  0  0  0  0
   17.6014   21.3291    8.4322 C   0  0  0  0  0  0  0  0  0  0  0  0
   16.6181   22.1206    7.7941 C   0  0  0  0  0  0  0  0  0  0  0  0
   10.6945   23.1729    3.7186 C   0  0  0  0  0  0  0  0  0  0  0  0
   10.2511   24.0792    2.6794 O   0  0  0  0  0  0  0  0  0  0  0  0
    8.9495   24.4129    2.5883 C   0  0  0  0  0  0  0  0  0  0  0  0
    8.5375   25.5172    1.8159 C   0  0  0  0  0  0  0  0  0  0  0  0
    7.1857   25.8766    1.7196 C   0  0  0  0  0  0  0  0  0  0  0  0
    6.2229   25.1281    2.4078 C   0  0  0  0  0  0  0  0  0  0  0  0
    6.6229   24.0283    3.1848 C   0  0  0  0  0  0  0  0  0  0  0  0
    7.9868   23.6741    3.2687 C   0  0  0  0  0  0  0  0  0  0  0  0
   14.8578   20.9738    4.6549 C   0  0  0  0  0  0  0  0  0  0  0  0
   14.5765   19.9693    3.6519 O   0  0  0  0  0  0  0  0  0  0  0  0
   15.5562   19.1058    3.2760 C   0  0  0  0  0  0  0  0  0  0  0  0
   15.5712   18.5758    1.9681 C   0  0  0  0  0  0  0  0  0  0  0  0
   16.5853   17.6884    1.5755 C   0  0  0  0  0  0  0  0  0  0  0  0
   17.5953   17.3355    2.4986 C   0  0  0  0  0  0  0  0  0  0  0  0
   17.5847   17.8647    3.8008 C   0  0  0  0  0  0  0  0  0  0  0  0
   16.5651   18.7433    4.1806 C   0  0  0  0  0  0  0  0  0  0  0  0
  1  2  1  0  0  0
  1  7  1  0  0  0
  1 14  1  0  0  0
  2  3  1  0  0  0
  2  8  2  0  0  0
  2 11  2  0  0  0
  3  4  1  0  0  0
  3 21  1  0  0  0
  4  5  1  0  0  0
  4 36  1  0  0  0
  5  6  1  0  0  0
  5  9  1  0  0  0
  6  7  1  0  0  0
  6 10  1  0  0  0
  7 28  1  0  0  0
 14 15  1  0  0  0
 15 16  2  0  0  0
 15 20  1  0  0  0
 16 17  1  0  0  0
 17 18  2  0  0  0
 18 19  1  0  0  0
 19 20  2  0  0  0
 37 38  1  0  0  0
 37 36  1  0  0  0
 38 39  2  0  0  0
 38 43  1  0  0  0
 39 40  1  0  0  0
 40 41  2  0  0  0
 41 42  1  0  0  0
 42 43  2  0  0  0
 21 22  1  0  0  0
 22 23  2  0  0  0
 22 27  1  0  0  0
 23 24  1  0  0  0
 24 25  2  0  0  0
 25 26  1  0  0  0
 26 27  2  0  0  0
 28 29  1  0  0  0
 29 30  1  0  0  0
 30 31  2  0  0  0
 30 35  1  0  0  0
 31 32  1  0  0  0
 32 33  2  0  0  0
 33 34  1  0  0  0
 34 35  2  0  0  0
  9 12  1  0  0  0
 10 13  1  0  0  0
M  END
> <minimizedAffinity>
-12.62237

$$$$
1AJV_NMB_A_501


 43 47  0  0  0  0  0  0  0  0999 V2000
   13.3788   21.6081    5.5310 N   0  0  0  0  0  0  0  0  0  0  0  0
   11.7892   21.7112    5.9967 S   0  0  0  0  0  0  0  0  0  0  0  0
   11.3205   23.0247    5.1919 N   0  0  0  0  0  0  0  0  0  0  0  0
   11.7986   24.3004    5.7881 C   0  0  0  0  0  0  0  0  0  0  0  0
   13.1002   24.7544    5.1543 C   0  0  0  0  0  0  0  0  0  0  0  0
   13.9974   23.6332    4.6788 C   0  0  0  0  0  0  0  0  0  0  0  0
   14.4104   22.6038    5.7190 C   0  0  0  0  0  0  0  0  0  0  0  0
   11.6408   21.9648    7.4110 O   0  0  0  0  0  0  0  0  0  0  0  0
   12.8283   25.5456    4.0195 O   0  0  0  0  0  0  0  0  0  0  0  0
   15.1123   24.2291    4.0595 O   0  0  0  0  0  0  0  0  0  0  0  0
   11.0955   20.6021    5.4318 O   0  0  0  0  0  0  0  0  0  0  0  0
   12.3697   25.0094    3.3539 H   0  0  0  0  0  0  0  0  0  0  0  0
   15.6009   24.7560    4.7110 H   0  0  0  0  0  0  0  0  0  0  0  0
   13.9037   20.3141    5.6190 C   0  0  0  0  0  0  0  0  0  0  0  0
   14.9189   19.5697    4.8226 C   0  0  0  0  0  0  0  0  0  0  0  0
   16.2864   19.7081    5.0863 C   0  0  0  0  0  0  0  0  0  0  0  0
   17.2231   19.0079    4.3249 C   0  0  0  0  0  0  0  0  0  0  0  0
   16.7890   18.1515    3.2736 C   0  0  0  0  0  0  0  0  0  0  0  0
   15.4175   18.0065    2.9934 C   0  0  0  0  0  0  0  0  0  0  0  0
   14.4812   18.7201    3.7731 C   0  0  0  0  0  0  0  0  0  0  0  0
   10.9041   22.8723    3.7801 C   0  0  0  0  0  0  0  0  0  0  0  0
    9.6990   23.6252    3.2863 C   0  0  0  0  0  0  0  0  0  0  0  0
    9.8393   24.6989    2.3722 C   0  0  0  0  0  0  0  0  0  0  0  0
    8.6925   25.3984    1.9018 C   0  0  0  0  0  0  0  0  0  0  0  0
    7.4079   25.0232    2.3469 C   0  0  0  0  0  0  0  0  0  0  0  0
    7.2703   23.9547    3.2605 C   0  0  0  0  0  0  0  0  0  0  0  0
    8.4128   23.2615    3.7240 C   0  0  0  0  0  0  0  0  0  0  0  0
   14.5879   22.9606    7.2058 C   0  0  0  0  0  0  0  0  0  0  0  0
   15.9512   22.5914    7.5268 O   0  0  0  0  0  0  0  0  0  0  0  0
   16.1925   21.5142    8.2983 C   0  0  0  0  0  0  0  0  0  0  0  0
   15.1426   20.8505    8.9639 C   0  0  0  0  0  0  0  0  0  0  0  0
   15.3840   19.7322    9.7744 C   0  0  0  0  0  0  0  0  0  0  0  0
   16.6948   19.2653    9.9320 C   0  0  0  0  0  0  0  0  0  0  0  0
   17.7497   19.9224    9.2772 C   0  0  0  0  0  0  0  0  0  0  0  0
   17.4920   21.0440    8.4597 C   0  0  0  0  0  0  0  0  0  0  0  0
   10.7281   25.4047    5.7314 C   0  0  0  0  0  0  0  0  0  0  0  0
    9.6416   25.0840    6.6320 O   0  0  0  0  0  0  0  0  0  0  0  0
    9.2934   25.9691    7.6026 C   0  0  0  0  0  0  0  0  0  0  0  0
   10.2408   26.3725    8.5678 C   0  0  0  0  0  0  0  0  0  0  0  0
    9.8855   27.2910    9.5678 C   0  0  0  0  0  0  0  0  0  0  0  0
    8.5731   27.8140    9.5961 C   0  0  0  0  0  0  0  0  0  0  0  0
    7.6285   27.4166    8.6340 C   0  0  0  0  0  0  0  0  0  0  0  0
    7.9943   26.4962    7.6465 C   0  0  0  0  0  0  0  0  0  0  0  0
  1  2  1  0  0  0
  1  7  1  0  0  0
  1 14  1  0  0  0
  2  3  1  0  0  0
  2  8  2  0  0  0
  2 11  2  0  0  0
  3  4  1  0  0  0
  3 21  1  0  0  0
  4  5  1  0  0  0
  4 36  1  0  0  0
  5  6  1  0  0  0
  5  9  1  0  0  0
  6  7  1  0  0  0
  6 10  1  0  0  0
  7 28  1  0  0  0
 14 15  1  0  0  0
 15 16  2  0  0  0
 15 20  1  0  0  0
 16 17  1  0  0  0
 17 18  2  0  0  0
 18 19  1  0  0  0
 19 20  2  0  0  0
 37 38  1  0  0  0
 37 36  1  0  0  0
 38 39  2  0  0  0
 38 43  1  0  0  0
 39 40  1  0  0  0
 40 41  2  0  0  0
 41 42  1  0  0  0
 42 43  2  0  0  0
 21 22  1  0  0  0
 22 23  2  0  0  0
 22 27  1  0  0  0
 23 24  1  0  0  0
 24 25  2  0  0  0
 25 26  1  0  0  0
 26 27  2  0  0  0
 28 29  1  0  0  0
 29 30  1  0  0  0
 30 31  2  0  0  0
 30 35  1  0  0  0
 31 32  1  0  0  0
 32 33  2  0  0  0
 33 34  1  0  0  0
 34 35  2  0  0  0
  9 12  1  0  0  0
 10 13  1  0  0  0
M  END
> <minimizedAffinity>
-10.72963

$$$$
1AJV_NMB_A_501


 43 47  0  0  0  0  0  0  0  0999 V2000
   11.5164   23.1277    4.3242 N   0  0  0  0  0  0  0  0  0  0  0  0
   13.1589   23.0408    4.1026 S   0  0  0  0  0  0  0  0  0  0  0  0
   13.6035   22.2426    5.4285 N   0  0  0  0  0  0  0  0  0  0  0  0
   13.6002   23.0728    6.6622 C   0  0  0  0  0  0  0  0  0  0  0  0
   12.2834   22.9536    7.4064 C   0  0  0  0  0  0  0  0  0  0  0  0
   11.0782   22.7110    6.5253 C   0  0  0  0  0  0  0  0  0  0  0  0
   10.8156   23.7360    5.4332 C   0  0  0  0  0  0  0  0  0  0  0  0
   13.7902   24.3400    4.1183 O   0  0  0  0  0  0  0  0  0  0  0  0
   12.3379   21.8665    8.3024 O   0  0  0  0  0  0  0  0  0  0  0  0
    9.9675   22.5552    7.3760 O   0  0  0  0  0  0  0  0  0  0  0  0
   13.4052   22.1823    2.9924 O   0  0  0  0  0  0  0  0  0  0  0  0
   12.4485   21.0418    7.8038 H   0  0  0  0  0  0  0  0  0  0  0  0
    9.8228   23.3759    7.8724 H   0  0  0  0  0  0  0  0  0  0  0  0
   10.7989   23.2739    3.1320 C   0  0  0  0  0  0  0  0  0  0  0  0
    9.5048   23.9301    2.7951 C   0  0  0  0  0  0  0  0  0  0  0  0
    8.2841   23.3063    3.0774 C   0  0  0  0  0  0  0  0  0  0  0  0
    7.0818   23.9336    2.7480 C   0  0  0  0  0  0  0  0  0  0  0  0
    7.0942   25.2111    2.1197 C   0  0  0  0  0  0  0  0  0  0  0  0
    8.3139   25.8481    1.8249 C   0  0  0  0  0  0  0  0  0  0  0  0
    9.5225   25.2021    2.1653 C   0  0  0  0  0  0  0  0  0  0  0  0
   13.5175   20.7653    5.4210 C   0  0  0  0  0  0  0  0  0  0  0  0
   14.6577   19.9679    4.8491 C   0  0  0  0  0  0  0  0  0  0  0  0
   15.9967   20.2523    5.2153 C   0  0  0  0  0  0  0  0  0  0  0  0
   17.0684   19.4854    4.6777 C   0  0  0  0  0  0  0  0  0  0  0  0
   16.7990   18.4362    3.7746 C   0  0  0  0  0  0  0  0  0  0  0  0
   15.4638   18.1563    3.4083 C   0  0  0  0  0  0  0  0  0  0  0  0
   14.4018   18.9201    3.9464 C   0  0  0  0  0  0  0  0  0  0  0  0
   11.1875   25.2213    5.5909 C   0  0  0  0  0  0  0  0  0  0  0  0
    9.9259   25.9169    5.7406 O   0  0  0  0  0  0  0  0  0  0  0  0
    9.5920   26.4565    6.9284 C   0  0  0  0  0  0  0  0  0  0  0  0
    8.4590   27.2848    7.0546 C   0  0  0  0  0  0  0  0  0  0  0  0
    8.1064   27.8565    8.2854 C   0  0  0  0  0  0  0  0  0  0  0  0
    8.8971   27.6053    9.4136 C   0  0  0  0  0  0  0  0  0  0  0  0
   10.0317   26.7852    9.2982 C   0  0  0  0  0  0  0  0  0  0  0  0
   10.3722   26.2116    8.0541 C   0  0  0  0  0  0  0  0  0  0  0  0
   14.7964   22.7565    7.5776 C   0  0  0  0  0  0  0  0  0  0  0  0
   14.5708   21.5047    8.2678 O   0  0  0  0  0  0  0  0  0  0  0  0
   15.6275   20.8286    8.7905 C   0  0  0  0  0  0  0  0  0  0  0  0
   16.9454   21.2615    8.5304 C   0  0  0  0  0  0  0  0  0  0  0  0
   18.0382   20.5686    9.0739 C   0  0  0  0  0  0  0  0  0  0  0  0
   17.8079   19.4380    9.8896 C   0  0  0  0  0  0  0  0  0  0  0  0
   16.4962   19.0068   10.1531 C   0  0  0  0  0  0  0  0  0  0  0  0
   15.4166   19.7031    9.6004 C   0  0  0  0  0  0  0  0  0  0  0  0
  1  2  1  0  0  0
  1  7  1  0  0  0
  1 14  1  0  0  0
  2  3  1  0  0  0
  2  8  2  0  0  0
  2 11  2  0  0  0
  3  4  1  0  0  0
  3 21  1  0  0  0
  4  5  1  0  0  0
  4 36  1  0  0  0
  5  6  1  0  0  0
  5  9  1  0  0  0
  6  7  1  0  0  0
  6 10  1  0  0  0
  7 28  1  0  0  0
 14 15  1  0  0  0
 15 16  2  0  0  0
 15 20  1  0  0  0
 16 17  1  0  0  0
 17 18  2  0  0  0
 18 19  1  0  0  0
 19 20  2  0  0  0
 37 38  1  0  0  0
 37 36  1  0  0  0
 38 39  2  0  0  0
 38 43  1  0  0  0
 39 40  1  0  0  0
 40 41  2  0  0  0
 41 42  1  0  0  0
 42 43  2  0  0  0
 21 22  1  0  0  0
 22 23  2  0  0  0
 22 27  1  0  0  0
 23 24  1  0  0  0
 24 25  2  0  0  0
 25 26  1  0  0  0
 26 27  2  0  0  0
 28 29  1  0  0  0
 29 30  1  0  0  0
 30 31  2  0  0  0
 30 35  1  0  0  0
 31 32  1  0  0  0
 32 33  2  0  0  0
 33 34  1  0  0  0
 34 35  2  0  0  0
  9 12  1  0  0  0
 10 13  1  0  0  0
M  END
> <minimizedAffinity>
-10.66735

$$$$
1AJV_NMB_A_501


 43 47  0  0  0  0  0  0  0  0999 V2000
   12.6982   22.7133    6.8090 N   0  0  0  0  0  0  0  0  0  0  0  0
   12.2394   21.4384    5.8505 S   0  0  0  0  0  0  0  0  0  0  0  0
   12.2238   22.1377    4.4002 N   0  0  0  0  0  0  0  0  0  0  0  0
   11.0454   23.0137    4.1652 C   0  0  0  0  0  0  0  0  0  0  0  0
   11.3502   24.4579    4.5160 C   0  0  0  0  0  0  0  0  0  0  0  0
   12.3523   24.6396    5.6343 C   0  0  0  0  0  0  0  0  0  0  0  0
   12.0174   23.9797    6.9627 C   0  0  0  0  0  0  0  0  0  0  0  0
   10.9045   20.9732    6.1477 O   0  0  0  0  0  0  0  0  0  0  0  0
   11.8922   25.1177    3.3942 O   0  0  0  0  0  0  0  0  0  0  0  0
   12.5686   26.0234    5.7761 O   0  0  0  0  0  0  0  0  0  0  0  0
   13.3019   20.4890    5.8482 O   0  0  0  0  0  0  0  0  0  0  0  0
   12.7382   24.7076    3.1554 H   0  0  0  0  0  0  0  0  0  0  0  0
   11.7397   26.4553    6.0355 H   0  0  0  0  0  0  0  0  0  0  0  0
   13.3117   22.3213    8.0037 C   0  0  0  0  0  0  0  0  0  0  0  0
   14.6401   21.7258    8.3198 C   0  0  0  0  0  0  0  0  0  0  0  0
   15.8138   22.2392    7.7561 C   0  0  0  0  0  0  0  0  0  0  0  0
   17.0486   21.6636    8.0586 C   0  0  0  0  0  0  0  0  0  0  0  0
   17.1171   20.5483    8.9409 C   0  0  0  0  0  0  0  0  0  0  0  0
   15.9448   20.0179    9.5110 C   0  0  0  0  0  0  0  0  0  0  0  0
   14.7027   20.6116    9.1969 C   0  0  0  0  0  0  0  0  0  0  0  0
   13.4998   22.2451    3.6584 C   0  0  0  0  0  0  0  0  0  0  0  0
   14.3620   21.0222    3.5029 C   0  0  0  0  0  0  0  0  0  0  0  0
   15.4389   20.7767    4.3907 C   0  0  0  0  0  0  0  0  0  0  0  0
   16.2425   19.6114    4.2427 C   0  0  0  0  0  0  0  0  0  0  0  0
   15.9680   18.6942    3.2071 C   0  0  0  0  0  0  0  0  0  0  0  0
   14.8960   18.9422    2.3213 C   0  0  0  0  0  0  0  0  0  0  0  0
   14.0992   20.1009    2.4731 C   0  0  0  0  0  0  0  0  0  0  0  0
   10.5683   23.7880    7.4450 C   0  0  0  0  0  0  0  0  0  0  0  0
   10.2845   24.9441    8.2702 O   0  0  0  0  0  0  0  0  0  0  0  0
    9.3790   25.8545    7.8640 C   0  0  0  0  0  0  0  0  0  0  0  0
    8.8849   25.8453    6.5443 C   0  0  0  0  0  0  0  0  0  0  0  0
    7.9468   26.7925    6.1098 C   0  0  0  0  0  0  0  0  0  0  0  0
    7.4930   27.7723    7.0014 C   0  0  0  0  0  0  0  0  0  0  0  0
    7.9826   27.7939    8.3179 C   0  0  0  0  0  0  0  0  0  0  0  0
    8.9229   26.8309    8.7439 C   0  0  0  0  0  0  0  0  0  0  0  0
   10.5026   22.8838    2.7308 C   0  0  0  0  0  0  0  0  0  0  0  0
    9.0642   22.7283    2.7607 O   0  0  0  0  0  0  0  0  0  0  0  0
    8.2709   23.8314    2.7332 C   0  0  0  0  0  0  0  0  0  0  0  0
    8.7096   25.0045    2.0827 C   0  0  0  0  0  0  0  0  0  0  0  0
    7.8898   26.1432    2.0476 C   0  0  0  0  0  0  0  0  0  0  0  0
    6.6184   26.1030    2.6629 C   0  0  0  0  0  0  0  0  0  0  0  0
    6.1776   24.9348    3.3085 C   0  0  0  0  0  0  0  0  0  0  0  0
    7.0070   23.8092    3.3409 C   0  0  0  0  0  0  0  0  0  0  0  0
  1  2  1  0  0  0
  1  7  1  0  0  0
  1 14  1  0  0  0
  2  3  1  0  0  0
  2  8  2  0  0  0
  2 11  2  0  0  0
  3  4  1  0  0  0
  3 21  1  0  0  0
  4  5  1  0  0  0
  4 36  1  0  0  0
  5  6  1  0  0  0
  5  9  1  0  0  0
  6  7  1  0  0  0
  6 10  1  0  0  0
  7 28  1  0  0  0
 14 15  1  0  0  0
 15 16  2  0  0  0
 15 20  1  0  0  0
 16 17  1  0  0  0
 17 18  2  0  0  0
 18 19  1  0  0  0
 19 20  2  0  0  0
 37 38  1  0  0  0
 37 36  1  0  0  0
 38 39  2  0  0  0
 38 43  1  0  0  0
 39 40  1  0  0  0
 40 41  2  0  0  0
 41 42  1  0  0  0
 42 43  2  0  0  0
 21 22  1  0  0  0
 22 23  2  0  0  0
 22 27  1  0  0  0
 23 24  1  0  0  0
 24 25  2  0  0  0
 25 26  1  0  0  0
 26 27  2  0  0  0
 28 29  1  0  0  0
 29 30  1  0  0  0
 30 31  2  0  0  0
 30 35  1  0  0  0
 31 32  1  0  0  0
 32 33  2  0  0  0
 33 34  1  0  0  0
 34 35  2  0  0  0
  9 12  1  0  0  0
 10 13  1  0  0  0
M  END
> <minimizedAffinity>
-9.71649

$$$$
