6EP4_DME_A_601


 18 17  0  0  0  0  0  0  0  0999 V2000
  -20.9507  -37.2876  -25.6918 C   0  0  0  0  0  0  0  0  0  0  0  0
  -21.0993  -38.6919  -26.2827 C   0  0  0  0  0  0  0  0  0  0  0  0
  -20.7884  -38.7533  -27.7621 C   0  0  0  0  0  0  0  0  0  0  0  0
  -21.1164  -40.1598  -28.2536 C   0  0  0  0  0  0  0  0  0  0  0  0
  -20.6197  -41.1857  -27.2403 C   0  0  0  0  0  0  0  0  0  0  0  0
  -21.0014  -42.5492  -27.6254 N   0  0  0  0  0  0  0  0  0  0  0  0
  -19.8170  -43.4066  -27.4811 C   0  0  0  0  0  0  0  0  0  0  0  0
  -21.9930  -43.0773  -26.6817 C   0  0  0  0  0  0  0  0  0  0  0  0
  -21.5208  -42.5738  -28.9999 C   0  0  0  0  0  0  0  0  0  0  0  0
  -21.9088  -37.3441  -24.5158 C   0  0  0  0  0  0  0  0  0  0  0  0
  -22.0601  -38.8214  -24.1567 C   0  0  0  0  0  0  0  0  0  0  0  0
  -22.5758  -38.9795  -22.7362 C   0  0  0  0  0  0  0  0  0  0  0  0
  -22.7007  -40.4838  -22.5178 C   0  0  0  0  0  0  0  0  0  0  0  0
  -21.4846  -41.0401  -21.7902 C   0  0  0  0  0  0  0  0  0  0  0  0
  -21.1379  -42.3509  -22.3478 N   0  0  0  0  0  0  0  0  0  0  0  0
  -22.3389  -42.9766  -22.9088 C   0  0  0  0  0  0  0  0  0  0  0  0
  -20.4358  -43.2189  -21.3951 C   0  0  0  0  0  0  0  0  0  0  0  0
  -20.2289  -42.0870  -23.4734 C   0  0  0  0  0  0  0  0  0  0  0  0
  6  5  1  0  0  0
  6  7  1  0  0  0
  6  8  1  0  0  0
  6  9  1  0  0  0
  5  4  1  0  0  0
  4  3  1  0  0  0
  3  2  1  0  0  0
  2  1  1  0  0  0
  1 10  1  0  0  0
 10 11  1  0  0  0
 11 12  1  0  0  0
 12 13  1  0  0  0
 13 14  1  0  0  0
 14 15  1  0  0  0
 15 16  1  0  0  0
 15 17  1  0  0  0
 15 18  1  0  0  0
M  CHG 1   6   1
M  CHG 1  15   1
M  END
> <minimizedAffinity>
-5.28643

$$$$
6EP4_DME_A_601


 18 17  0  0  0  0  0  0  0  0999 V2000
  -23.3361  -41.8980  -22.1126 C   0  0  0  0  0  0  0  0  0  0  0  0
  -22.4087  -40.7069  -21.8592 C   0  0  0  0  0  0  0  0  0  0  0  0
  -22.6474  -39.5520  -22.8070 C   0  0  0  0  0  0  0  0  0  0  0  0
  -21.3205  -39.2138  -23.4797 C   0  0  0  0  0  0  0  0  0  0  0  0
  -21.5631  -38.8612  -24.9435 C   0  0  0  0  0  0  0  0  0  0  0  0
  -20.9769  -37.5606  -25.2868 N   0  0  0  0  0  0  0  0  0  0  0  0
  -19.5698  -37.5747  -24.8640 C   0  0  0  0  0  0  0  0  0  0  0  0
  -20.9533  -37.3905  -26.7440 C   0  0  0  0  0  0  0  0  0  0  0  0
  -21.7224  -36.4696  -24.6438 C   0  0  0  0  0  0  0  0  0  0  0  0
  -22.5379  -43.0435  -21.5165 C   0  0  0  0  0  0  0  0  0  0  0  0
  -21.0875  -42.5675  -21.4523 C   0  0  0  0  0  0  0  0  0  0  0  0
  -20.1313  -43.7217  -21.7017 C   0  0  0  0  0  0  0  0  0  0  0  0
  -19.5091  -43.4420  -23.0659 C   0  0  0  0  0  0  0  0  0  0  0  0
  -20.3043  -44.1038  -24.1829 C   0  0  0  0  0  0  0  0  0  0  0  0
  -20.4122  -43.1832  -25.3188 N   0  0  0  0  0  0  0  0  0  0  0  0
  -20.2458  -43.9289  -26.5697 C   0  0  0  0  0  0  0  0  0  0  0  0
  -19.5091  -42.0305  -25.2186 C   0  0  0  0  0  0  0  0  0  0  0  0
  -21.7933  -42.6780  -25.3036 C   0  0  0  0  0  0  0  0  0  0  0  0
  6  5  1  0  0  0
  6  7  1  0  0  0
  6  8  1  0  0  0
  6  9  1  0  0  0
  5  4  1  0  0  0
  4  3  1  0  0  0
  3  2  1  0  0  0
  2  1  1  0  0  0
  1 10  1  0  0  0
 10 11  1  0  0  0
 11 12  1  0  0  0
 12 13  1  0  0  0
 13 14  1  0  0  0
 14 15  1  0  0  0
 15 16  1  0  0  0
 15 17  1  0  0  0
 15 18  1  0  0  0
M  CHG 1   6   1
M  CHG 1  15   1
M  END
> <minimizedAffinity>
-5.21007

$$$$
6EP4_DME_A_601


 18 17  0  0  0  0  0  0  0  0999 V2000
  -23.1699  -41.9801  -21.4865 C   0  0  0  0  0  0  0  0  0  0  0  0
  -23.6313  -42.4631  -22.8638 C   0  0  0  0  0  0  0  0  0  0  0  0
  -22.5202  -43.0834  -23.6822 C   0  0  0  0  0  0  0  0  0  0  0  0
  -21.3248  -43.3052  -22.7605 C   0  0  0  0  0  0  0  0  0  0  0  0
  -20.0441  -42.8790  -23.4705 C   0  0  0  0  0  0  0  0  0  0  0  0
  -19.0629  -43.9695  -23.5084 N   0  0  0  0  0  0  0  0  0  0  0  0
  -19.3721  -44.8139  -24.6703 C   0  0  0  0  0  0  0  0  0  0  0  0
  -17.7216  -43.4282  -23.7550 C   0  0  0  0  0  0  0  0  0  0  0  0
  -19.0954  -44.7402  -22.2576 C   0  0  0  0  0  0  0  0  0  0  0  0
  -23.5387  -40.5084  -21.5355 C   0  0  0  0  0  0  0  0  0  0  0  0
  -22.2696  -39.7619  -21.9435 C   0  0  0  0  0  0  0  0  0  0  0  0
  -22.6082  -38.5557  -22.8032 C   0  0  0  0  0  0  0  0  0  0  0  0
  -21.9104  -38.8026  -24.1368 C   0  0  0  0  0  0  0  0  0  0  0  0
  -21.6339  -37.4956  -24.8669 C   0  0  0  0  0  0  0  0  0  0  0  0
  -20.6692  -37.7320  -25.9454 N   0  0  0  0  0  0  0  0  0  0  0  0
  -21.0008  -38.9840  -26.6319 C   0  0  0  0  0  0  0  0  0  0  0  0
  -19.2731  -37.6817  -25.4957 C   0  0  0  0  0  0  0  0  0  0  0  0
  -20.8705  -36.6464  -26.9169 C   0  0  0  0  0  0  0  0  0  0  0  0
  6  5  1  0  0  0
  6  7  1  0  0  0
  6  8  1  0  0  0
  6  9  1  0  0  0
  5  4  1  0  0  0
  4  3  1  0  0  0
  3  2  1  0  0  0
  2  1  1  0  0  0
  1 10  1  0  0  0
 10 11  1  0  0  0
 11 12  1  0  0  0
 12 13  1  0  0  0
 13 14  1  0  0  0
 14 15  1  0  0  0
 15 16  1  0  0  0
 15 17  1  0  0  0
 15 18  1  0  0  0
M  CHG 1   6   1
M  CHG 1  15   1
M  END
> <minimizedAffinity>
-5.19827

$$$$
6EP4_DME_A_601


 18 17  0  0  0  0  0  0  0  0999 V2000
  -18.0842  -45.9237  -23.2204 C   0  0  0  0  0  0  0  0  0  0  0  0
  -19.2262  -45.5505  -24.1689 C   0  0  0  0  0  0  0  0  0  0  0  0
  -19.1588  -46.2713  -25.4974 C   0  0  0  0  0  0  0  0  0  0  0  0
  -19.4352  -45.2532  -26.5994 C   0  0  0  0  0  0  0  0  0  0  0  0
  -20.0721  -44.0055  -25.9965 C   0  0  0  0  0  0  0  0  0  0  0  0
  -20.6472  -43.1415  -27.0339 N   0  0  0  0  0  0  0  0  0  0  0  0
  -20.3732  -43.7598  -28.3383 C   0  0  0  0  0  0  0  0  0  0  0  0
  -22.1086  -43.1107  -26.9068 C   0  0  0  0  0  0  0  0  0  0  0  0
  -20.0851  -41.7863  -26.9506 C   0  0  0  0  0  0  0  0  0  0  0  0
  -18.4694  -45.1689  -21.9608 C   0  0  0  0  0  0  0  0  0  0  0  0
  -19.5869  -44.2075  -22.3621 C   0  0  0  0  0  0  0  0  0  0  0  0
  -20.2529  -43.6139  -21.1321 C   0  0  0  0  0  0  0  0  0  0  0  0
  -21.5008  -42.9070  -21.6511 C   0  0  0  0  0  0  0  0  0  0  0  0
  -21.1395  -41.7693  -22.5962 C   0  0  0  0  0  0  0  0  0  0  0  0
  -22.1225  -40.6900  -22.4612 N   0  0  0  0  0  0  0  0  0  0  0  0
  -23.4236  -41.2569  -22.0943 C   0  0  0  0  0  0  0  0  0  0  0  0
  -22.1930  -39.8192  -23.6405 C   0  0  0  0  0  0  0  0  0  0  0  0
  -21.6765  -39.8733  -21.3223 C   0  0  0  0  0  0  0  0  0  0  0  0
  6  5  1  0  0  0
  6  7  1  0  0  0
  6  8  1  0  0  0
  6  9  1  0  0  0
  5  4  1  0  0  0
  4  3  1  0  0  0
  3  2  1  0  0  0
  2  1  1  0  0  0
  1 10  1  0  0  0
 10 11  1  0  0  0
 11 12  1  0  0  0
 12 13  1  0  0  0
 13 14  1  0  0  0
 14 15  1  0  0  0
 15 16  1  0  0  0
 15 17  1  0  0  0
 15 18  1  0  0  0
M  CHG 1   6   1
M  CHG 1  15   1
M  END
> <minimizedAffinity>
-5.19374

$$$$
6EP4_DME_A_601


 18 17  0  0  0  0  0  0  0  0999 V2000
  -20.9987  -36.8693  -26.1936 C   0  0  0  0  0  0  0  0  0  0  0  0
  -20.8632  -37.3938  -24.7620 C   0  0  0  0  0  0  0  0  0  0  0  0
  -22.0574  -37.0692  -23.8915 C   0  0  0  0  0  0  0  0  0  0  0  0
  -22.4253  -38.3266  -23.1099 C   0  0  0  0  0  0  0  0  0  0  0  0
  -21.8977  -39.5570  -23.8405 C   0  0  0  0  0  0  0  0  0  0  0  0
  -21.3540  -40.5462  -22.9029 N   0  0  0  0  0  0  0  0  0  0  0  0
  -21.8087  -40.1853  -21.5531 C   0  0  0  0  0  0  0  0  0  0  0  0
  -21.9309  -41.8670  -23.1777 C   0  0  0  0  0  0  0  0  0  0  0  0
  -19.8874  -40.5874  -22.9849 C   0  0  0  0  0  0  0  0  0  0  0  0
  -20.6302  -38.0960  -27.0084 C   0  0  0  0  0  0  0  0  0  0  0  0
  -21.3189  -37.9340  -28.3625 C   0  0  0  0  0  0  0  0  0  0  0  0
  -21.3157  -39.2467  -29.1278 C   0  0  0  0  0  0  0  0  0  0  0  0
  -20.8603  -40.2987  -28.1217 C   0  0  0  0  0  0  0  0  0  0  0  0
  -21.2858  -41.6958  -28.5513 C   0  0  0  0  0  0  0  0  0  0  0  0
  -20.8358  -42.6726  -27.5549 N   0  0  0  0  0  0  0  0  0  0  0  0
  -19.9912  -42.0033  -26.5611 C   0  0  0  0  0  0  0  0  0  0  0  0
  -20.1925  -43.8511  -28.1477 C   0  0  0  0  0  0  0  0  0  0  0  0
  -22.0460  -43.1241  -26.8517 C   0  0  0  0  0  0  0  0  0  0  0  0
  6  5  1  0  0  0
  6  7  1  0  0  0
  6  8  1  0  0  0
  6  9  1  0  0  0
  5  4  1  0  0  0
  4  3  1  0  0  0
  3  2  1  0  0  0
  2  1  1  0  0  0
  1 10  1  0  0  0
 10 11  1  0  0  0
 11 12  1  0  0  0
 12 13  1  0  0  0
 13 14  1  0  0  0
 14 15  1  0  0  0
 15 16  1  0  0  0
 15 17  1  0  0  0
 15 18  1  0  0  0
M  CHG 1   6   1
M  CHG 1  15   1
M  END
> <minimizedAffinity>
-5.18933

$$$$
6EP4_DME_A_601


 18 17  0  0  0  0  0  0  0  0999 V2000
  -18.5834  -44.9905  -21.9642 C   0  0  0  0  0  0  0  0  0  0  0  0
  -19.7504  -44.0753  -22.3432 C   0  0  0  0  0  0  0  0  0  0  0  0
  -20.3628  -43.3655  -21.1557 C   0  0  0  0  0  0  0  0  0  0  0  0
  -20.6695  -41.9303  -21.5725 C   0  0  0  0  0  0  0  0  0  0  0  0
  -20.6169  -41.8156  -23.0924 C   0  0  0  0  0  0  0  0  0  0  0  0
  -21.9217  -41.4386  -23.6479 N   0  0  0  0  0  0  0  0  0  0  0  0
  -21.6837  -40.5612  -24.8021 C   0  0  0  0  0  0  0  0  0  0  0  0
  -22.6004  -42.6246  -24.1822 C   0  0  0  0  0  0  0  0  0  0  0  0
  -22.7477  -40.7767  -22.6285 C   0  0  0  0  0  0  0  0  0  0  0  0
  -18.4065  -45.8068  -23.2317 C   0  0  0  0  0  0  0  0  0  0  0  0
  -19.4556  -45.2983  -24.2191 C   0  0  0  0  0  0  0  0  0  0  0  0
  -19.3116  -45.9937  -25.5623 C   0  0  0  0  0  0  0  0  0  0  0  0
  -18.8033  -44.9204  -26.5194 C   0  0  0  0  0  0  0  0  0  0  0  0
  -19.1305  -43.5240  -26.0089 C   0  0  0  0  0  0  0  0  0  0  0  0
  -17.9385  -42.6759  -26.1050 N   0  0  0  0  0  0  0  0  0  0  0  0
  -17.0658  -43.1784  -27.1702 C   0  0  0  0  0  0  0  0  0  0  0  0
  -17.2387  -42.5122  -24.8254 C   0  0  0  0  0  0  0  0  0  0  0  0
  -18.4144  -41.3516  -26.5326 C   0  0  0  0  0  0  0  0  0  0  0  0
  6  5  1  0  0  0
  6  7  1  0  0  0
  6  8  1  0  0  0
  6  9  1  0  0  0
  5  4  1  0  0  0
  4  3  1  0  0  0
  3  2  1  0  0  0
  2  1  1  0  0  0
  1 10  1  0  0  0
 10 11  1  0  0  0
 11 12  1  0  0  0
 12 13  1  0  0  0
 13 14  1  0  0  0
 14 15  1  0  0  0
 15 16  1  0  0  0
 15 17  1  0  0  0
 15 18  1  0  0  0
M  CHG 1   6   1
M  CHG 1  15   1
M  END
> <minimizedAffinity>
-5.13366

$$$$
6EP4_DME_A_601


 18 17  0  0  0  0  0  0  0  0999 V2000
  -20.3890  -40.7361  -21.8880 C   0  0  0  0  0  0  0  0  0  0  0  0
  -20.9417  -41.7013  -22.9397 C   0  0  0  0  0  0  0  0  0  0  0  0
  -19.9896  -41.9385  -24.0915 C   0  0  0  0  0  0  0  0  0  0  0  0
  -18.6460  -41.3146  -23.7270 C   0  0  0  0  0  0  0  0  0  0  0  0
  -17.5218  -42.2930  -24.0512 C   0  0  0  0  0  0  0  0  0  0  0  0
  -16.3402  -41.5986  -24.5754 N   0  0  0  0  0  0  0  0  0  0  0  0
  -15.2141  -41.8830  -23.6755 C   0  0  0  0  0  0  0  0  0  0  0  0
  -15.9632  -42.1634  -25.8761 C   0  0  0  0  0  0  0  0  0  0  0  0
  -16.5925  -40.1550  -24.6840 C   0  0  0  0  0  0  0  0  0  0  0  0
  -21.6318  -39.9543  -21.5026 C   0  0  0  0  0  0  0  0  0  0  0  0
  -22.3387  -39.6009  -22.8102 C   0  0  0  0  0  0  0  0  0  0  0  0
  -22.4344  -38.0940  -22.9795 C   0  0  0  0  0  0  0  0  0  0  0  0
  -21.3993  -37.7414  -24.0428 C   0  0  0  0  0  0  0  0  0  0  0  0
  -21.5052  -38.6674  -25.2466 C   0  0  0  0  0  0  0  0  0  0  0  0
  -20.4985  -38.2910  -26.2438 N   0  0  0  0  0  0  0  0  0  0  0  0
  -19.3262  -37.7290  -25.5666 C   0  0  0  0  0  0  0  0  0  0  0  0
  -21.0242  -37.4124  -27.2953 C   0  0  0  0  0  0  0  0  0  0  0  0
  -20.0646  -39.5451  -26.8777 C   0  0  0  0  0  0  0  0  0  0  0  0
  6  5  1  0  0  0
  6  7  1  0  0  0
  6  8  1  0  0  0
  6  9  1  0  0  0
  5  4  1  0  0  0
  4  3  1  0  0  0
  3  2  1  0  0  0
  2  1  1  0  0  0
  1 10  1  0  0  0
 10 11  1  0  0  0
 11 12  1  0  0  0
 12 13  1  0  0  0
 13 14  1  0  0  0
 14 15  1  0  0  0
 15 16  1  0  0  0
 15 17  1  0  0  0
 15 18  1  0  0  0
M  CHG 1   6   1
M  CHG 1  15   1
M  END
> <minimizedAffinity>
-5.07916

$$$$
6EP4_DME_A_601


 18 17  0  0  0  0  0  0  0  0999 V2000
  -20.8615  -36.9729  -25.9526 C   0  0  0  0  0  0  0  0  0  0  0  0
  -21.5781  -38.0224  -25.0993 C   0  0  0  0  0  0  0  0  0  0  0  0
  -22.0770  -37.4788  -23.7784 C   0  0  0  0  0  0  0  0  0  0  0  0
  -22.1350  -38.6357  -22.7856 C   0  0  0  0  0  0  0  0  0  0  0  0
  -22.2880  -39.9520  -23.5405 C   0  0  0  0  0  0  0  0  0  0  0  0
  -22.3818  -41.0910  -22.6202 N   0  0  0  0  0  0  0  0  0  0  0  0
  -22.2597  -42.3221  -23.4129 C   0  0  0  0  0  0  0  0  0  0  0  0
  -21.2351  -41.0912  -21.7048 C   0  0  0  0  0  0  0  0  0  0  0  0
  -23.6476  -41.0528  -21.8748 C   0  0  0  0  0  0  0  0  0  0  0  0
  -19.4354  -37.0823  -25.4440 C   0  0  0  0  0  0  0  0  0  0  0  0
  -19.0964  -38.5720  -25.4353 C   0  0  0  0  0  0  0  0  0  0  0  0
  -18.0586  -38.8811  -24.3695 C   0  0  0  0  0  0  0  0  0  0  0  0
  -18.3900  -40.2870  -23.8798 C   0  0  0  0  0  0  0  0  0  0  0  0
  -19.0682  -41.1067  -24.9688 C   0  0  0  0  0  0  0  0  0  0  0  0
  -18.2730  -42.3071  -25.2448 N   0  0  0  0  0  0  0  0  0  0  0  0
  -17.8179  -42.8931  -23.9806 C   0  0  0  0  0  0  0  0  0  0  0  0
  -17.1758  -42.0710  -26.1905 C   0  0  0  0  0  0  0  0  0  0  0  0
  -19.1961  -43.2753  -25.8560 C   0  0  0  0  0  0  0  0  0  0  0  0
  6  5  1  0  0  0
  6  7  1  0  0  0
  6  8  1  0  0  0
  6  9  1  0  0  0
  5  4  1  0  0  0
  4  3  1  0  0  0
  3  2  1  0  0  0
  2  1  1  0  0  0
  1 10  1  0  0  0
 10 11  1  0  0  0
 11 12  1  0  0  0
 12 13  1  0  0  0
 13 14  1  0  0  0
 14 15  1  0  0  0
 15 16  1  0  0  0
 15 17  1  0  0  0
 15 18  1  0  0  0
M  CHG 1   6   1
M  CHG 1  15   1
M  END
> <minimizedAffinity>
-5.06950

$$$$
6EP4_DME_A_601


 18 17  0  0  0  0  0  0  0  0999 V2000
  -21.6545  -37.0584  -25.0717 C   0  0  0  0  0  0  0  0  0  0  0  0
  -21.4804  -37.4616  -23.6054 C   0  0  0  0  0  0  0  0  0  0  0  0
  -22.5454  -38.4200  -23.1191 C   0  0  0  0  0  0  0  0  0  0  0  0
  -21.8460  -39.6496  -22.5476 C   0  0  0  0  0  0  0  0  0  0  0  0
  -22.2829  -40.8917  -23.3171 C   0  0  0  0  0  0  0  0  0  0  0  0
  -22.8656  -41.8994  -22.4237 N   0  0  0  0  0  0  0  0  0  0  0  0
  -23.5900  -42.8722  -23.2530 C   0  0  0  0  0  0  0  0  0  0  0  0
  -21.7989  -42.6576  -21.7602 C   0  0  0  0  0  0  0  0  0  0  0  0
  -23.7514  -41.2671  -21.4362 C   0  0  0  0  0  0  0  0  0  0  0  0
  -20.2373  -37.1914  -25.5993 C   0  0  0  0  0  0  0  0  0  0  0  0
  -20.0469  -38.6663  -25.9494 C   0  0  0  0  0  0  0  0  0  0  0  0
  -21.2048  -39.1725  -26.7932 C   0  0  0  0  0  0  0  0  0  0  0  0
  -20.7769  -40.5541  -27.2773 C   0  0  0  0  0  0  0  0  0  0  0  0
  -19.9654  -41.2852  -26.2167 C   0  0  0  0  0  0  0  0  0  0  0  0
  -20.3341  -42.7042  -26.2101 N   0  0  0  0  0  0  0  0  0  0  0  0
  -21.7517  -42.8425  -26.5566 C   0  0  0  0  0  0  0  0  0  0  0  0
  -19.9842  -43.3883  -24.9597 C   0  0  0  0  0  0  0  0  0  0  0  0
  -19.5662  -43.3294  -27.2975 C   0  0  0  0  0  0  0  0  0  0  0  0
  6  5  1  0  0  0
  6  7  1  0  0  0
  6  8  1  0  0  0
  6  9  1  0  0  0
  5  4  1  0  0  0
  4  3  1  0  0  0
  3  2  1  0  0  0
  2  1  1  0  0  0
  1 10  1  0  0  0
 10 11  1  0  0  0
 11 12  1  0  0  0
 12 13  1  0  0  0
 13 14  1  0  0  0
 14 15  1  0  0  0
 15 16  1  0  0  0
 15 17  1  0  0  0
 15 18  1  0  0  0
M  CHG 1   6   1
M  CHG 1  15   1
M  END
> <minimizedAffinity>
-5.05734

$$$$
6EP4_DME_A_601


 18 17  0  0  0  0  0  0  0  0999 V2000
  -20.3311  -37.0861  -26.1311 C   0  0  0  0  0  0  0  0  0  0  0  0
  -19.8563  -38.5259  -26.3427 C   0  0  0  0  0  0  0  0  0  0  0  0
  -20.4111  -39.1590  -27.6000 C   0  0  0  0  0  0  0  0  0  0  0  0
  -20.9772  -40.5258  -27.2278 C   0  0  0  0  0  0  0  0  0  0  0  0
  -19.8799  -41.3831  -26.6056 C   0  0  0  0  0  0  0  0  0  0  0  0
  -20.2832  -42.7912  -26.5184 N   0  0  0  0  0  0  0  0  0  0  0  0
  -20.0648  -43.2378  -25.1358 C   0  0  0  0  0  0  0  0  0  0  0  0
  -21.7262  -42.9146  -26.7537 C   0  0  0  0  0  0  0  0  0  0  0  0
  -19.5244  -43.6084  -27.4754 C   0  0  0  0  0  0  0  0  0  0  0  0
  -21.5598  -37.2902  -25.2633 C   0  0  0  0  0  0  0  0  0  0  0  0
  -21.1088  -38.1366  -24.0740 C   0  0  0  0  0  0  0  0  0  0  0  0
  -22.2989  -38.8083  -23.4099 C   0  0  0  0  0  0  0  0  0  0  0  0
  -22.1511  -40.2933  -23.7248 C   0  0  0  0  0  0  0  0  0  0  0  0
  -21.7211  -41.0797  -22.4942 C   0  0  0  0  0  0  0  0  0  0  0  0
  -22.7269  -42.1024  -22.1907 N   0  0  0  0  0  0  0  0  0  0  0  0
  -22.1367  -43.1260  -21.3232 C   0  0  0  0  0  0  0  0  0  0  0  0
  -23.3593  -42.6671  -23.3887 C   0  0  0  0  0  0  0  0  0  0  0  0
  -23.7702  -41.4268  -21.4047 C   0  0  0  0  0  0  0  0  0  0  0  0
  6  5  1  0  0  0
  6  7  1  0  0  0
  6  8  1  0  0  0
  6  9  1  0  0  0
  5  4  1  0  0  0
  4  3  1  0  0  0
  3  2  1  0  0  0
  2  1  1  0  0  0
  1 10  1  0  0  0
 10 11  1  0  0  0
 11 12  1  0  0  0
 12 13  1  0  0  0
 13 14  1  0  0  0
 14 15  1  0  0  0
 15 16  1  0  0  0
 15 17  1  0  0  0
 15 18  1  0  0  0
M  CHG 1   6   1
M  CHG 1  15   1
M  END
> <minimizedAffinity>
-5.04603

$$$$
