3HB4_E2B_X_700


 34 38  0  0  0  0  0  0  0  0999 V2000
   10.9556    9.0383  -11.4439 C   0  0  0  0  0  0  0  0  0  0  0  0
   11.0566   10.4817  -11.0078 C   0  0  0  0  0  0  0  0  0  0  0  0
   11.7718    8.1815  -10.4536 C   0  0  0  0  0  0  0  0  0  0  0  0
   11.2877    8.8592  -12.9438 C   0  0  0  0  0  0  0  0  0  0  0  0
   11.4894    8.3786   -8.9421 C   0  0  0  0  0  0  0  0  0  0  0  0
   10.2795   11.3484  -11.9434 C   0  0  0  0  0  0  0  0  0  0  0  0
   11.6778    9.8559   -8.5631 C   0  0  0  0  0  0  0  0  0  0  0  0
   11.6140    6.6806  -10.5810 C   0  0  0  0  0  0  0  0  0  0  0  0
    9.8522   10.8739  -13.3095 C   0  0  0  0  0  0  0  0  0  0  0  0
   10.7825   10.7260   -9.4717 C   0  0  0  0  0  0  0  0  0  0  0  0
   12.4440    6.1685   -9.4121 C   0  0  0  0  0  0  0  0  0  0  0  0
   12.5039    7.3659   -8.4340 C   0  0  0  0  0  0  0  0  0  0  0  0
   10.0436    7.8959   -8.5580 C   0  0  0  0  0  0  0  0  0  0  0  0
    9.9614   12.6554  -11.5421 C   0  0  0  0  0  0  0  0  0  0  0  0
   10.1671    9.4442  -13.8181 C   0  0  0  0  0  0  0  0  0  0  0  0
    8.8671   13.1178  -13.6785 C   0  0  0  0  0  0  0  0  0  0  0  0
    9.1470   11.8010  -14.1246 C   0  0  0  0  0  0  0  0  0  0  0  0
    9.2907   13.5289  -12.3965 C   0  0  0  0  0  0  0  0  0  0  0  0
    8.1708   14.0227  -14.4880 O   0  0  0  0  0  0  0  0  0  0  0  0
   12.3120    6.9841   -7.0653 O   0  0  0  0  0  0  0  0  0  0  0  0
    7.8837   13.7630  -15.3413 H   0  0  0  0  0  0  0  0  0  0  0  0
   11.4402    6.5710   -6.9640 H   0  0  0  0  0  0  0  0  0  0  0  0
   11.7877    4.9401   -8.8058 C   0  0  0  0  0  0  0  0  0  0  0  0
   12.5173    0.7483   -9.5713 C   0  0  0  0  0  0  0  0  0  0  0  0
   11.2638    1.3172   -9.9780 C   0  0  0  0  0  0  0  0  0  0  0  0
   13.5619    1.4761   -8.9282 C   0  0  0  0  0  0  0  0  0  0  0  0
   11.1147    2.6758   -9.6430 C   0  0  0  0  0  0  0  0  0  0  0  0
   13.3281    2.8295   -8.6445 C   0  0  0  0  0  0  0  0  0  0  0  0
   12.0916    3.4358   -8.9536 C   0  0  0  0  0  0  0  0  0  0  0  0
    8.8635    1.1242  -10.8877 N   0  0  0  0  0  0  0  0  0  0  0  0
   10.0959    0.5951  -10.7361 C   0  0  0  0  0  0  0  0  0  0  0  0
   10.2858   -0.5528  -11.2078 O   0  0  0  0  0  0  0  0  0  0  0  0
    8.6664    2.0218  -10.5344 H   0  0  0  0  0  0  0  0  0  0  0  0
    8.1618    0.6127  -11.3514 H   0  0  0  0  0  0  0  0  0  0  0  0
 30 31  1  0  0  0
  1  2  1  0  0  0
  1  3  1  0  0  0
  1  4  1  0  0  0
  2  6  1  0  0  0
  2 10  1  0  0  0
  3  5  1  0  0  0
  3  8  1  0  0  0
  4 15  1  0  0  0
  5  7  1  0  0  0
  5 12  1  0  0  0
  5 13  1  0  0  0
  6  9  2  0  0  0
  6 14  1  0  0  0
  7 10  1  0  0  0
  8 11  1  0  0  0
 31 25  1  0  0  0
 31 32  2  0  0  0
 24 25  2  0  0  0
 24 26  1  0  0  0
  9 15  1  0  0  0
  9 17  1  0  0  0
 11 12  1  0  0  0
 11 23  1  0  0  0
 12 20  1  0  0  0
 25 27  1  0  0  0
 14 18  2  0  0  0
 26 28  2  0  0  0
 23 29  1  0  0  0
 27 29  2  0  0  0
 28 29  1  0  0  0
 16 17  2  0  0  0
 16 18  1  0  0  0
 16 19  1  0  0  0
 30 33  1  0  0  0
 30 34  1  0  0  0
 19 21  1  0  0  0
 20 22  1  0  0  0
M  END
> <minimizedAffinity>
-13.98070

$$$$
3HB4_E2B_X_700


 34 38  0  0  0  0  0  0  0  0999 V2000
   11.2646    8.5156  -11.1124 C   0  0  0  0  0  0  0  0  0  0  0  0
   11.0719    9.8500  -10.4296 C   0  0  0  0  0  0  0  0  0  0  0  0
   12.0097    7.5821  -10.1355 C   0  0  0  0  0  0  0  0  0  0  0  0
   11.8801    8.6674  -12.5230 C   0  0  0  0  0  0  0  0  0  0  0  0
   11.4377    7.4512   -8.7007 C   0  0  0  0  0  0  0  0  0  0  0  0
   10.3536   10.7872  -11.3441 C   0  0  0  0  0  0  0  0  0  0  0  0
   11.3353    8.8396   -8.0498 C   0  0  0  0  0  0  0  0  0  0  0  0
   12.1008    6.1257  -10.5413 C   0  0  0  0  0  0  0  0  0  0  0  0
   10.2503   10.5393  -12.8280 C   0  0  0  0  0  0  0  0  0  0  0  0
   10.4967    9.7614   -8.9614 C   0  0  0  0  0  0  0  0  0  0  0  0
   12.7767    5.4955   -9.3317 C   0  0  0  0  0  0  0  0  0  0  0  0
   12.4844    6.4810   -8.1753 C   0  0  0  0  0  0  0  0  0  0  0  0
   10.0343    6.7434   -8.7018 C   0  0  0  0  0  0  0  0  0  0  0  0
    9.7796   11.9479  -10.8023 C   0  0  0  0  0  0  0  0  0  0  0  0
   10.8584    9.2792  -13.4946 C   0  0  0  0  0  0  0  0  0  0  0  0
    9.0254   12.6862  -13.0072 C   0  0  0  0  0  0  0  0  0  0  0  0
    9.5716   11.5202  -13.6016 C   0  0  0  0  0  0  0  0  0  0  0  0
    9.1493   12.8880  -11.6158 C   0  0  0  0  0  0  0  0  0  0  0  0
    8.3577   13.6453  -13.7773 O   0  0  0  0  0  0  0  0  0  0  0  0
   12.1114    5.8237   -6.9569 O   0  0  0  0  0  0  0  0  0  0  0  0
    8.2681   13.5241  -14.7021 H   0  0  0  0  0  0  0  0  0  0  0  0
   11.3064    5.3029   -7.1038 H   0  0  0  0  0  0  0  0  0  0  0  0
   12.2124    4.1070   -9.0842 C   0  0  0  0  0  0  0  0  0  0  0  0
   13.8869    0.2417   -8.1123 C   0  0  0  0  0  0  0  0  0  0  0  0
   13.5769    1.1491   -7.0441 C   0  0  0  0  0  0  0  0  0  0  0  0
   13.6741    0.5215   -9.4946 C   0  0  0  0  0  0  0  0  0  0  0  0
   13.0774    2.3923   -7.4741 C   0  0  0  0  0  0  0  0  0  0  0  0
   13.1610    1.7832   -9.8283 C   0  0  0  0  0  0  0  0  0  0  0  0
   12.8992    2.7497   -8.8334 C   0  0  0  0  0  0  0  0  0  0  0  0
   13.2202    1.7023   -4.5555 N   0  0  0  0  0  0  0  0  0  0  0  0
   13.7313    0.8902   -5.5048 C   0  0  0  0  0  0  0  0  0  0  0  0
   14.3900   -0.1034   -5.1113 O   0  0  0  0  0  0  0  0  0  0  0  0
   12.6963    2.4943   -4.8152 H   0  0  0  0  0  0  0  0  0  0  0  0
   13.3714    1.5026   -3.6034 H   0  0  0  0  0  0  0  0  0  0  0  0
 30 31  1  0  0  0
  1  2  1  0  0  0
  1  3  1  0  0  0
  1  4  1  0  0  0
  2  6  1  0  0  0
  2 10  1  0  0  0
  3  5  1  0  0  0
  3  8  1  0  0  0
  4 15  1  0  0  0
  5  7  1  0  0  0
  5 12  1  0  0  0
  5 13  1  0  0  0
  6  9  2  0  0  0
  6 14  1  0  0  0
  7 10  1  0  0  0
  8 11  1  0  0  0
 31 25  1  0  0  0
 31 32  2  0  0  0
 24 25  2  0  0  0
 24 26  1  0  0  0
  9 15  1  0  0  0
  9 17  1  0  0  0
 11 12  1  0  0  0
 11 23  1  0  0  0
 12 20  1  0  0  0
 25 27  1  0  0  0
 14 18  2  0  0  0
 26 28  2  0  0  0
 23 29  1  0  0  0
 27 29  2  0  0  0
 28 29  1  0  0  0
 16 17  2  0  0  0
 16 18  1  0  0  0
 16 19  1  0  0  0
 30 33  1  0  0  0
 30 34  1  0  0  0
 19 21  1  0  0  0
 20 22  1  0  0  0
M  END
> <minimizedAffinity>
-13.45772

$$$$
3HB4_E2B_X_700


 34 38  0  0  0  0  0  0  0  0999 V2000
   13.0189    5.2867   -8.0729 C   0  0  0  0  0  0  0  0  0  0  0  0
   13.2248    3.8068   -8.2997 C   0  0  0  0  0  0  0  0  0  0  0  0
   12.7460    5.9465   -9.4408 C   0  0  0  0  0  0  0  0  0  0  0  0
   14.1521    5.9083   -7.2236 C   0  0  0  0  0  0  0  0  0  0  0  0
   11.6466    5.3115  -10.3302 C   0  0  0  0  0  0  0  0  0  0  0  0
   13.4943    3.1281   -6.9970 C   0  0  0  0  0  0  0  0  0  0  0  0
   11.9612    3.8266  -10.5707 C   0  0  0  0  0  0  0  0  0  0  0  0
   12.2886    7.3900   -9.4071 C   0  0  0  0  0  0  0  0  0  0  0  0
   13.9099    3.8916   -5.7648 C   0  0  0  0  0  0  0  0  0  0  0  0
   12.1291    3.1212   -9.2074 C   0  0  0  0  0  0  0  0  0  0  0  0
   12.0108    7.6748  -10.8764 C   0  0  0  0  0  0  0  0  0  0  0  0
   11.7767    6.2772  -11.4978 C   0  0  0  0  0  0  0  0  0  0  0  0
   10.2213    5.4708   -9.6868 C   0  0  0  0  0  0  0  0  0  0  0  0
   13.3800    1.7306   -6.9303 C   0  0  0  0  0  0  0  0  0  0  0  0
   14.0549    5.4347   -5.7646 C   0  0  0  0  0  0  0  0  0  0  0  0
   14.0607    1.7188   -4.5826 C   0  0  0  0  0  0  0  0  0  0  0  0
   14.1728    3.1326   -4.5918 C   0  0  0  0  0  0  0  0  0  0  0  0
   13.6774    1.0379   -5.7579 C   0  0  0  0  0  0  0  0  0  0  0  0
   14.3202    0.9806   -3.4222 O   0  0  0  0  0  0  0  0  0  0  0  0
   10.6694    6.2448  -12.4081 O   0  0  0  0  0  0  0  0  0  0  0  0
   14.5756    1.4198   -2.6348 H   0  0  0  0  0  0  0  0  0  0  0  0
    9.8575    6.4924  -11.9386 H   0  0  0  0  0  0  0  0  0  0  0  0
   10.8076    8.5923  -11.0107 C   0  0  0  0  0  0  0  0  0  0  0  0
    9.7612   11.5661  -13.9689 C   0  0  0  0  0  0  0  0  0  0  0  0
    9.5729   11.8765  -12.5802 C   0  0  0  0  0  0  0  0  0  0  0  0
   10.2832   10.3310  -14.4551 C   0  0  0  0  0  0  0  0  0  0  0  0
    9.9050   10.8242  -11.7069 C   0  0  0  0  0  0  0  0  0  0  0  0
   10.5978    9.3442  -13.5096 C   0  0  0  0  0  0  0  0  0  0  0  0
   10.3722    9.5562  -12.1324 C   0  0  0  0  0  0  0  0  0  0  0  0
    9.2307   14.4277  -12.5642 N   0  0  0  0  0  0  0  0  0  0  0  0
    9.0583   13.2274  -11.9715 C   0  0  0  0  0  0  0  0  0  0  0  0
    8.4801   13.2192  -10.8572 O   0  0  0  0  0  0  0  0  0  0  0  0
    9.6789   14.4849  -13.4389 H   0  0  0  0  0  0  0  0  0  0  0  0
    8.9083   15.2460  -12.1218 H   0  0  0  0  0  0  0  0  0  0  0  0
 30 31  1  0  0  0
  1  2  1  0  0  0
  1  3  1  0  0  0
  1  4  1  0  0  0
  2  6  1  0  0  0
  2 10  1  0  0  0
  3  5  1  0  0  0
  3  8  1  0  0  0
  4 15  1  0  0  0
  5  7  1  0  0  0
  5 12  1  0  0  0
  5 13  1  0  0  0
  6  9  2  0  0  0
  6 14  1  0  0  0
  7 10  1  0  0  0
  8 11  1  0  0  0
 31 25  1  0  0  0
 31 32  2  0  0  0
 24 25  2  0  0  0
 24 26  1  0  0  0
  9 15  1  0  0  0
  9 17  1  0  0  0
 11 12  1  0  0  0
 11 23  1  0  0  0
 12 20  1  0  0  0
 25 27  1  0  0  0
 14 18  2  0  0  0
 26 28  2  0  0  0
 23 29  1  0  0  0
 27 29  2  0  0  0
 28 29  1  0  0  0
 16 17  2  0  0  0
 16 18  1  0  0  0
 16 19  1  0  0  0
 30 33  1  0  0  0
 30 34  1  0  0  0
 19 21  1  0  0  0
 20 22  1  0  0  0
M  END
> <minimizedAffinity>
-12.50806

$$$$
3HB4_E2B_X_700


 34 38  0  0  0  0  0  0  0  0999 V2000
   12.6431    3.3068   -8.8946 C   0  0  0  0  0  0  0  0  0  0  0  0
   12.9326    2.5864   -7.5980 C   0  0  0  0  0  0  0  0  0  0  0  0
   12.1569    4.7306   -8.5521 C   0  0  0  0  0  0  0  0  0  0  0  0
   11.7343    2.4766   -9.8309 C   0  0  0  0  0  0  0  0  0  0  0  0
   13.0276    5.5643   -7.5775 C   0  0  0  0  0  0  0  0  0  0  0  0
   13.4059    1.1992   -7.8848 C   0  0  0  0  0  0  0  0  0  0  0  0
   13.2206    4.7960   -6.2606 C   0  0  0  0  0  0  0  0  0  0  0  0
   12.0300    5.6914   -9.7160 C   0  0  0  0  0  0  0  0  0  0  0  0
   13.1965    0.5405   -9.2250 C   0  0  0  0  0  0  0  0  0  0  0  0
   13.8123    3.4045   -6.5726 C   0  0  0  0  0  0  0  0  0  0  0  0
   11.6511    6.9917   -9.0211 C   0  0  0  0  0  0  0  0  0  0  0  0
   12.1514    6.8073   -7.5687 C   0  0  0  0  0  0  0  0  0  0  0  0
   14.4212    5.9214   -8.2110 C   0  0  0  0  0  0  0  0  0  0  0  0
   14.0434    0.4809   -6.8610 C   0  0  0  0  0  0  0  0  0  0  0  0
   12.5023    1.2735  -10.4010 C   0  0  0  0  0  0  0  0  0  0  0  0
   14.2813   -1.4843   -8.2951 C   0  0  0  0  0  0  0  0  0  0  0  0
   13.6599   -0.7959   -9.3680 C   0  0  0  0  0  0  0  0  0  0  0  0
   14.4522   -0.8378   -7.0522 C   0  0  0  0  0  0  0  0  0  0  0  0
   14.7354   -2.7995   -8.4464 O   0  0  0  0  0  0  0  0  0  0  0  0
   12.7992    7.9742   -7.0446 O   0  0  0  0  0  0  0  0  0  0  0  0
   14.6284   -3.2408   -9.2661 H   0  0  0  0  0  0  0  0  0  0  0  0
   13.5711    8.1886   -7.5915 H   0  0  0  0  0  0  0  0  0  0  0  0
   12.3019    8.1686   -9.7274 C   0  0  0  0  0  0  0  0  0  0  0  0
   10.3958   11.1555  -12.2041 C   0  0  0  0  0  0  0  0  0  0  0  0
   10.7468    9.8932  -12.7902 C   0  0  0  0  0  0  0  0  0  0  0  0
   10.6263   11.5026  -10.8400 C   0  0  0  0  0  0  0  0  0  0  0  0
   11.3992    9.0124  -11.9077 C   0  0  0  0  0  0  0  0  0  0  0  0
   11.2724   10.5563  -10.0315 C   0  0  0  0  0  0  0  0  0  0  0  0
   11.7077    9.3220  -10.5601 C   0  0  0  0  0  0  0  0  0  0  0  0
    9.9625   10.2229  -15.2197 N   0  0  0  0  0  0  0  0  0  0  0  0
   10.4754    9.4224  -14.2616 C   0  0  0  0  0  0  0  0  0  0  0  0
   10.7106    8.2308  -14.5794 O   0  0  0  0  0  0  0  0  0  0  0  0
    9.7614   11.1653  -15.0182 H   0  0  0  0  0  0  0  0  0  0  0  0
    9.7894    9.8643  -16.1201 H   0  0  0  0  0  0  0  0  0  0  0  0
 30 31  1  0  0  0
  1  2  1  0  0  0
  1  3  1  0  0  0
  1  4  1  0  0  0
  2  6  1  0  0  0
  2 10  1  0  0  0
  3  5  1  0  0  0
  3  8  1  0  0  0
  4 15  1  0  0  0
  5  7  1  0  0  0
  5 12  1  0  0  0
  5 13  1  0  0  0
  6  9  2  0  0  0
  6 14  1  0  0  0
  7 10  1  0  0  0
  8 11  1  0  0  0
 31 25  1  0  0  0
 31 32  2  0  0  0
 24 25  2  0  0  0
 24 26  1  0  0  0
  9 15  1  0  0  0
  9 17  1  0  0  0
 11 12  1  0  0  0
 11 23  1  0  0  0
 12 20  1  0  0  0
 25 27  1  0  0  0
 14 18  2  0  0  0
 26 28  2  0  0  0
 23 29  1  0  0  0
 27 29  2  0  0  0
 28 29  1  0  0  0
 16 17  2  0  0  0
 16 18  1  0  0  0
 16 19  1  0  0  0
 30 33  1  0  0  0
 30 34  1  0  0  0
 19 21  1  0  0  0
 20 22  1  0  0  0
M  END
> <minimizedAffinity>
-12.39529

$$$$
3HB4_E2B_X_700


 34 38  0  0  0  0  0  0  0  0999 V2000
   13.0528    4.9671   -7.6522 C   0  0  0  0  0  0  0  0  0  0  0  0
   13.3211    3.5500   -8.1037 C   0  0  0  0  0  0  0  0  0  0  0  0
   12.8179    5.8325   -8.9080 C   0  0  0  0  0  0  0  0  0  0  0  0
   14.1242    5.4738   -6.6586 C   0  0  0  0  0  0  0  0  0  0  0  0
   11.7825    5.3199   -9.9415 C   0  0  0  0  0  0  0  0  0  0  0  0
   13.5562    2.6764   -6.9154 C   0  0  0  0  0  0  0  0  0  0  0  0
   12.1602    3.9032  -10.4019 C   0  0  0  0  0  0  0  0  0  0  0  0
   12.3084    7.2380   -8.6652 C   0  0  0  0  0  0  0  0  0  0  0  0
   13.8890    3.2410   -5.5572 C   0  0  0  0  0  0  0  0  0  0  0  0
   12.2921    2.9907   -9.1633 C   0  0  0  0  0  0  0  0  0  0  0  0
   12.0864    7.7498  -10.0815 C   0  0  0  0  0  0  0  0  0  0  0  0
   11.9301    6.4658  -10.9305 C   0  0  0  0  0  0  0  0  0  0  0  0
   10.3252    5.3328   -9.3527 C   0  0  0  0  0  0  0  0  0  0  0  0
   13.4888    1.2841   -7.0803 C   0  0  0  0  0  0  0  0  0  0  0  0
   13.9788    4.7669   -5.3015 C   0  0  0  0  0  0  0  0  0  0  0  0
   14.0640    0.9101   -4.7341 C   0  0  0  0  0  0  0  0  0  0  0  0
   14.1261    2.3091   -4.5101 C   0  0  0  0  0  0  0  0  0  0  0  0
   13.7580    0.4187   -6.0213 C   0  0  0  0  0  0  0  0  0  0  0  0
   14.2977    0.0007   -3.6961 O   0  0  0  0  0  0  0  0  0  0  0  0
   10.8664    6.5508  -11.8882 O   0  0  0  0  0  0  0  0  0  0  0  0
   14.5018    0.3130   -2.8367 H   0  0  0  0  0  0  0  0  0  0  0  0
   10.0261    6.6961  -11.4260 H   0  0  0  0  0  0  0  0  0  0  0  0
   10.8586    8.6430  -10.1261 C   0  0  0  0  0  0  0  0  0  0  0  0
    9.7152   12.0379  -12.5463 C   0  0  0  0  0  0  0  0  0  0  0  0
    9.8555   10.7558  -13.1763 C   0  0  0  0  0  0  0  0  0  0  0  0
    9.9217   12.2795  -11.1558 C   0  0  0  0  0  0  0  0  0  0  0  0
   10.2715    9.7313  -12.3060 C   0  0  0  0  0  0  0  0  0  0  0  0
   10.3237   11.1948  -10.3630 C   0  0  0  0  0  0  0  0  0  0  0  0
   10.5484    9.9217  -10.9297 C   0  0  0  0  0  0  0  0  0  0  0  0
    8.3738   10.4608  -15.2605 N   0  0  0  0  0  0  0  0  0  0  0  0
    9.5921   10.4051  -14.6822 C   0  0  0  0  0  0  0  0  0  0  0  0
   10.5469   10.0179  -15.3997 O   0  0  0  0  0  0  0  0  0  0  0  0
    7.5941   10.7584  -14.7381 H   0  0  0  0  0  0  0  0  0  0  0  0
    8.2648   10.2039  -16.2046 H   0  0  0  0  0  0  0  0  0  0  0  0
 30 31  1  0  0  0
  1  2  1  0  0  0
  1  3  1  0  0  0
  1  4  1  0  0  0
  2  6  1  0  0  0
  2 10  1  0  0  0
  3  5  1  0  0  0
  3  8  1  0  0  0
  4 15  1  0  0  0
  5  7  1  0  0  0
  5 12  1  0  0  0
  5 13  1  0  0  0
  6  9  2  0  0  0
  6 14  1  0  0  0
  7 10  1  0  0  0
  8 11  1  0  0  0
 31 25  1  0  0  0
 31 32  2  0  0  0
 24 25  2  0  0  0
 24 26  1  0  0  0
  9 15  1  0  0  0
  9 17  1  0  0  0
 11 12  1  0  0  0
 11 23  1  0  0  0
 12 20  1  0  0  0
 25 27  1  0  0  0
 14 18  2  0  0  0
 26 28  2  0  0  0
 23 29  1  0  0  0
 27 29  2  0  0  0
 28 29  1  0  0  0
 16 17  2  0  0  0
 16 18  1  0  0  0
 16 19  1  0  0  0
 30 33  1  0  0  0
 30 34  1  0  0  0
 19 21  1  0  0  0
 20 22  1  0  0  0
M  END
> <minimizedAffinity>
-12.32358

$$$$
3HB4_E2B_X_700


 34 38  0  0  0  0  0  0  0  0999 V2000
   11.8227    4.2578   -9.5076 C   0  0  0  0  0  0  0  0  0  0  0  0
   12.3400    3.6580   -8.2206 C   0  0  0  0  0  0  0  0  0  0  0  0
   11.3343    5.6899   -9.2052 C   0  0  0  0  0  0  0  0  0  0  0  0
   10.8168    3.3246  -10.2212 C   0  0  0  0  0  0  0  0  0  0  0  0
   12.3085    6.6286   -8.4482 C   0  0  0  0  0  0  0  0  0  0  0  0
   12.8228    2.2667   -8.4690 C   0  0  0  0  0  0  0  0  0  0  0  0
   12.7356    5.9799   -7.1222 C   0  0  0  0  0  0  0  0  0  0  0  0
   10.9877    6.5452  -10.4061 C   0  0  0  0  0  0  0  0  0  0  0  0
   12.4373    1.4917   -9.7038 C   0  0  0  0  0  0  0  0  0  0  0  0
   13.3315    4.5856   -7.4138 C   0  0  0  0  0  0  0  0  0  0  0  0
   10.6650    7.8872   -9.7640 C   0  0  0  0  0  0  0  0  0  0  0  0
   11.3913    7.8408   -8.3986 C   0  0  0  0  0  0  0  0  0  0  0  0
   13.5706    6.9734   -9.3194 C   0  0  0  0  0  0  0  0  0  0  0  0
   13.6412    1.6566   -7.5054 C   0  0  0  0  0  0  0  0  0  0  0  0
   11.5387    2.1018  -10.8094 C   0  0  0  0  0  0  0  0  0  0  0  0
   13.7392   -0.4140   -8.8011 C   0  0  0  0  0  0  0  0  0  0  0  0
   12.9302    0.1627   -9.8131 C   0  0  0  0  0  0  0  0  0  0  0  0
   14.0721    0.3395   -7.6549 C   0  0  0  0  0  0  0  0  0  0  0  0
   14.2208   -1.7229   -8.9187 O   0  0  0  0  0  0  0  0  0  0  0  0
   12.0614    9.0667   -8.0761 O   0  0  0  0  0  0  0  0  0  0  0  0
   14.0075   -2.2344   -9.6742 H   0  0  0  0  0  0  0  0  0  0  0  0
   12.7294    9.2578   -8.7529 H   0  0  0  0  0  0  0  0  0  0  0  0
   11.1474    9.0198  -10.6538 C   0  0  0  0  0  0  0  0  0  0  0  0
    9.8605   10.8190  -14.3682 C   0  0  0  0  0  0  0  0  0  0  0  0
    9.5527   11.4850  -13.1345 C   0  0  0  0  0  0  0  0  0  0  0  0
   10.5777    9.5898  -14.4633 C   0  0  0  0  0  0  0  0  0  0  0  0
    9.9801   10.7925  -11.9865 C   0  0  0  0  0  0  0  0  0  0  0  0
   10.9745    8.9774  -13.2657 C   0  0  0  0  0  0  0  0  0  0  0  0
   10.6443    9.5414  -12.0146 C   0  0  0  0  0  0  0  0  0  0  0  0
    8.4129   13.3409  -11.7624 N   0  0  0  0  0  0  0  0  0  0  0  0
    8.8197   12.8602  -12.9562 C   0  0  0  0  0  0  0  0  0  0  0  0
    8.5579   13.5535  -13.9695 O   0  0  0  0  0  0  0  0  0  0  0  0
    8.5953   12.8328  -10.9391 H   0  0  0  0  0  0  0  0  0  0  0  0
    7.9340   14.1997  -11.7149 H   0  0  0  0  0  0  0  0  0  0  0  0
 30 31  1  0  0  0
  1  2  1  0  0  0
  1  3  1  0  0  0
  1  4  1  0  0  0
  2  6  1  0  0  0
  2 10  1  0  0  0
  3  5  1  0  0  0
  3  8  1  0  0  0
  4 15  1  0  0  0
  5  7  1  0  0  0
  5 12  1  0  0  0
  5 13  1  0  0  0
  6  9  2  0  0  0
  6 14  1  0  0  0
  7 10  1  0  0  0
  8 11  1  0  0  0
 31 25  1  0  0  0
 31 32  2  0  0  0
 24 25  2  0  0  0
 24 26  1  0  0  0
  9 15  1  0  0  0
  9 17  1  0  0  0
 11 12  1  0  0  0
 11 23  1  0  0  0
 12 20  1  0  0  0
 25 27  1  0  0  0
 14 18  2  0  0  0
 26 28  2  0  0  0
 23 29  1  0  0  0
 27 29  2  0  0  0
 28 29  1  0  0  0
 16 17  2  0  0  0
 16 18  1  0  0  0
 16 19  1  0  0  0
 30 33  1  0  0  0
 30 34  1  0  0  0
 19 21  1  0  0  0
 20 22  1  0  0  0
M  END
> <minimizedAffinity>
-12.08833

$$$$
3HB4_E2B_X_700


 34 38  0  0  0  0  0  0  0  0999 V2000
   12.8434    5.7535   -8.3393 C   0  0  0  0  0  0  0  0  0  0  0  0
   13.2898    4.3370   -8.6188 C   0  0  0  0  0  0  0  0  0  0  0  0
   12.6522    6.4702   -9.6924 C   0  0  0  0  0  0  0  0  0  0  0  0
   13.7574    6.4591   -7.3105 C   0  0  0  0  0  0  0  0  0  0  0  0
   11.7784    5.7588  -10.7569 C   0  0  0  0  0  0  0  0  0  0  0  0
   13.4886    3.6059   -7.3318 C   0  0  0  0  0  0  0  0  0  0  0  0
   12.3340    4.3533  -11.0355 C   0  0  0  0  0  0  0  0  0  0  0  0
   11.9887    7.8307   -9.6400 C   0  0  0  0  0  0  0  0  0  0  0  0
   13.6295    4.3248   -6.0137 C   0  0  0  0  0  0  0  0  0  0  0  0
   12.4294    3.5775   -9.7039 C   0  0  0  0  0  0  0  0  0  0  0  0
   11.8602    8.1839  -11.1151 C   0  0  0  0  0  0  0  0  0  0  0  0
   11.9127    6.8180  -11.8399 C   0  0  0  0  0  0  0  0  0  0  0  0
   10.2754    5.6725  -10.3050 C   0  0  0  0  0  0  0  0  0  0  0  0
   13.5718    2.2050   -7.3599 C   0  0  0  0  0  0  0  0  0  0  0  0
   13.5467    5.8688   -5.9071 C   0  0  0  0  0  0  0  0  0  0  0  0
   13.9448    2.1108   -4.9458 C   0  0  0  0  0  0  0  0  0  0  0  0
   13.8499    3.5233   -4.8604 C   0  0  0  0  0  0  0  0  0  0  0  0
   13.8165    1.4737   -6.1988 C   0  0  0  0  0  0  0  0  0  0  0  0
   14.1606    1.3303   -3.8043 O   0  0  0  0  0  0  0  0  0  0  0  0
   10.9460    6.7023  -12.8925 O   0  0  0  0  0  0  0  0  0  0  0  0
   14.2476    1.7401   -2.9661 H   0  0  0  0  0  0  0  0  0  0  0  0
   10.0539    6.8004  -12.5244 H   0  0  0  0  0  0  0  0  0  0  0  0
   10.5628    8.9353  -11.3596 C   0  0  0  0  0  0  0  0  0  0  0  0
    9.0580   12.9065  -10.5506 C   0  0  0  0  0  0  0  0  0  0  0  0
    9.4061   12.5607  -11.8996 C   0  0  0  0  0  0  0  0  0  0  0  0
    9.1665   12.0206   -9.4380 C   0  0  0  0  0  0  0  0  0  0  0  0
    9.9243   11.2603  -12.0431 C   0  0  0  0  0  0  0  0  0  0  0  0
    9.6828   10.7391   -9.6788 C   0  0  0  0  0  0  0  0  0  0  0  0
   10.1103   10.3562  -10.9683 C   0  0  0  0  0  0  0  0  0  0  0  0
    8.4205   14.5123  -13.2583 N   0  0  0  0  0  0  0  0  0  0  0  0
    9.2619   13.4600  -13.1765 C   0  0  0  0  0  0  0  0  0  0  0  0
    9.9324   13.1848  -14.2016 O   0  0  0  0  0  0  0  0  0  0  0  0
    7.8736   14.7669  -12.4803 H   0  0  0  0  0  0  0  0  0  0  0  0
    8.3538   15.0253  -14.0960 H   0  0  0  0  0  0  0  0  0  0  0  0
 30 31  1  0  0  0
  1  2  1  0  0  0
  1  3  1  0  0  0
  1  4  1  0  0  0
  2  6  1  0  0  0
  2 10  1  0  0  0
  3  5  1  0  0  0
  3  8  1  0  0  0
  4 15  1  0  0  0
  5  7  1  0  0  0
  5 12  1  0  0  0
  5 13  1  0  0  0
  6  9  2  0  0  0
  6 14  1  0  0  0
  7 10  1  0  0  0
  8 11  1  0  0  0
 31 25  1  0  0  0
 31 32  2  0  0  0
 24 25  2  0  0  0
 24 26  1  0  0  0
  9 15  1  0  0  0
  9 17  1  0  0  0
 11 12  1  0  0  0
 11 23  1  0  0  0
 12 20  1  0  0  0
 25 27  1  0  0  0
 14 18  2  0  0  0
 26 28  2  0  0  0
 23 29  1  0  0  0
 27 29  2  0  0  0
 28 29  1  0  0  0
 16 17  2  0  0  0
 16 18  1  0  0  0
 16 19  1  0  0  0
 30 33  1  0  0  0
 30 34  1  0  0  0
 19 21  1  0  0  0
 20 22  1  0  0  0
M  END
> <minimizedAffinity>
-11.28522

$$$$
3HB4_E2B_X_700


 34 38  0  0  0  0  0  0  0  0999 V2000
   11.7851    4.6219   -9.2646 C   0  0  0  0  0  0  0  0  0  0  0  0
   12.3157    3.7980   -8.1141 C   0  0  0  0  0  0  0  0  0  0  0  0
   11.3904    6.0094   -8.7168 C   0  0  0  0  0  0  0  0  0  0  0  0
   10.7018    3.8670  -10.0698 C   0  0  0  0  0  0  0  0  0  0  0  0
   12.4440    6.7644   -7.8665 C   0  0  0  0  0  0  0  0  0  0  0  0
   12.7091    2.4423   -8.6019 C   0  0  0  0  0  0  0  0  0  0  0  0
   12.8833    5.8905   -6.6811 C   0  0  0  0  0  0  0  0  0  0  0  0
   11.0479    7.0628   -9.7497 C   0  0  0  0  0  0  0  0  0  0  0  0
   12.2341    1.8960   -9.9248 C   0  0  0  0  0  0  0  0  0  0  0  0
   13.3878    4.5332   -7.2172 C   0  0  0  0  0  0  0  0  0  0  0  0
   10.8261    8.2985   -8.8889 C   0  0  0  0  0  0  0  0  0  0  0  0
   11.5995    7.9971   -7.5831 C   0  0  0  0  0  0  0  0  0  0  0  0
   13.6899    7.1812   -8.7294 C   0  0  0  0  0  0  0  0  0  0  0  0
   13.5273    1.6452   -7.7860 C   0  0  0  0  0  0  0  0  0  0  0  0
   11.3306    2.7200  -10.8770 C   0  0  0  0  0  0  0  0  0  0  0  0
   13.4589   -0.1925   -9.3965 C   0  0  0  0  0  0  0  0  0  0  0  0
   12.6464    0.5790  -10.2659 C   0  0  0  0  0  0  0  0  0  0  0  0
   13.8769    0.3494   -8.1621 C   0  0  0  0  0  0  0  0  0  0  0  0
   13.8608   -1.4879   -9.7422 O   0  0  0  0  0  0  0  0  0  0  0  0
   12.3496    9.1202   -7.1017 O   0  0  0  0  0  0  0  0  0  0  0  0
   13.5906   -1.8601  -10.5585 H   0  0  0  0  0  0  0  0  0  0  0  0
   13.0015    9.3840   -7.7698 H   0  0  0  0  0  0  0  0  0  0  0  0
   11.3381    9.5340   -9.6093 C   0  0  0  0  0  0  0  0  0  0  0  0
    9.4237   11.7323  -12.8018 C   0  0  0  0  0  0  0  0  0  0  0  0
   10.2113   10.5787  -13.1324 C   0  0  0  0  0  0  0  0  0  0  0  0
    9.2157   12.2127  -11.4750 C   0  0  0  0  0  0  0  0  0  0  0  0
   10.8227    9.9644  -12.0238 C   0  0  0  0  0  0  0  0  0  0  0  0
    9.8558   11.5292  -10.4312 C   0  0  0  0  0  0  0  0  0  0  0  0
   10.7011   10.4290  -10.6910 C   0  0  0  0  0  0  0  0  0  0  0  0
    9.5238   10.0135  -15.5478 N   0  0  0  0  0  0  0  0  0  0  0  0
   10.4383    9.9617  -14.5565 C   0  0  0  0  0  0  0  0  0  0  0  0
   11.5093    9.3533  -14.7996 O   0  0  0  0  0  0  0  0  0  0  0  0
    8.6684   10.4795  -15.4046 H   0  0  0  0  0  0  0  0  0  0  0  0
    9.7120    9.5853  -16.4141 H   0  0  0  0  0  0  0  0  0  0  0  0
 30 31  1  0  0  0
  1  2  1  0  0  0
  1  3  1  0  0  0
  1  4  1  0  0  0
  2  6  1  0  0  0
  2 10  1  0  0  0
  3  5  1  0  0  0
  3  8  1  0  0  0
  4 15  1  0  0  0
  5  7  1  0  0  0
  5 12  1  0  0  0
  5 13  1  0  0  0
  6  9  2  0  0  0
  6 14  1  0  0  0
  7 10  1  0  0  0
  8 11  1  0  0  0
 31 25  1  0  0  0
 31 32  2  0  0  0
 24 25  2  0  0  0
 24 26  1  0  0  0
  9 15  1  0  0  0
  9 17  1  0  0  0
 11 12  1  0  0  0
 11 23  1  0  0  0
 12 20  1  0  0  0
 25 27  1  0  0  0
 14 18  2  0  0  0
 26 28  2  0  0  0
 23 29  1  0  0  0
 27 29  2  0  0  0
 28 29  1  0  0  0
 16 17  2  0  0  0
 16 18  1  0  0  0
 16 19  1  0  0  0
 30 33  1  0  0  0
 30 34  1  0  0  0
 19 21  1  0  0  0
 20 22  1  0  0  0
M  END
> <minimizedAffinity>
-11.19295

$$$$
