4DAF_0J4_A_301


 23 24  0  0  0  0  0  0  0  0999 V2000
  -14.1598   27.7091    4.2660 O   0  0  0  0  0  0  0  0  0  0  0  0
  -14.4958   26.3405    4.3797 C   0  0  0  0  0  0  0  0  0  0  0  0
  -15.3938   25.8146    3.5313 N   0  0  0  0  0  0  0  0  0  0  0  0
  -15.7183   24.5203    3.5522 C   0  0  0  0  0  0  0  0  0  0  0  0
  -16.6725   23.9951    2.6220 N   0  0  0  0  0  0  0  0  0  0  0  0
  -15.1671   23.7037    4.4584 N   0  0  0  0  0  0  0  0  0  0  0  0
  -14.2650   24.1521    5.3477 C   0  0  0  0  0  0  0  0  0  0  0  0
  -13.9001   25.4952    5.3311 C   0  0  0  0  0  0  0  0  0  0  0  0
  -12.9354   25.9050    6.3089 C   0  0  0  0  0  0  0  0  0  0  0  0
  -12.5238   27.2350    6.4188 O   0  0  0  0  0  0  0  0  0  0  0  0
  -13.7398   23.3054    6.2048 N   0  0  0  0  0  0  0  0  0  0  0  0
  -12.8476   23.6772    7.1074 N   0  0  0  0  0  0  0  0  0  0  0  0
  -12.4315   24.9380    7.1879 C   0  0  0  0  0  0  0  0  0  0  0  0
  -15.8272   26.4033    2.8719 H   0  0  0  0  0  0  0  0  0  0  0  0
  -17.0837   24.5873    1.9515 H   0  0  0  0  0  0  0  0  0  0  0  0
  -16.9171   23.0420    2.6531 H   0  0  0  0  0  0  0  0  0  0  0  0
  -14.0202   22.3622    6.1739 H   0  0  0  0  0  0  0  0  0  0  0  0
  -11.4097   25.3290    8.2699 C   0  0  0  0  0  0  0  0  0  0  0  0
  -11.8111   24.7123    9.5979 C   0  0  0  0  0  0  0  0  0  0  0  0
   -9.9934   24.9143    8.0540 C   0  0  0  0  0  0  0  0  0  0  0  0
   -9.7202   23.9975    7.2413 O   0  0  0  0  0  0  0  0  0  0  0  0
   -9.1110   25.3422    8.7956 O   0  0  0  0  0  0  0  0  0  0  0  0
  -10.3845   23.6635    6.6712 H   0  0  0  0  0  0  0  0  0  0  0  0
  5  4  1  0  0  0
  3  4  1  0  0  0
  3  2  1  0  0  0
  4  6  2  0  0  0
  1  2  2  0  0  0
  2  8  1  0  0  0
  6  7  1  0  0  0
  8  7  2  0  0  0
  8  9  1  0  0  0
  7 11  1  0  0  0
  9 10  2  0  0  0
  9 13  1  0  0  0
 11 12  1  0  0  0
 12 13  2  0  0  0
 13 18  1  0  0  0
 19 18  1  0  0  0
 18 20  1  0  0  0
 22 20  2  0  0  0
 20 21  1  0  0  0
  3 14  1  0  0  0
  5 15  1  0  0  0
  5 16  1  0  0  0
 11 17  1  0  0  0
 21 23  1  0  0  0
M  END
> <minimizedAffinity>
-7.11543

$$$$
4DAF_0J4_A_301


 23 24  0  0  0  0  0  0  0  0999 V2000
  -14.0741   27.6727    4.2283 O   0  0  0  0  0  0  0  0  0  0  0  0
  -14.3813   26.2981    4.3497 C   0  0  0  0  0  0  0  0  0  0  0  0
  -15.1564   25.7164    3.4204 N   0  0  0  0  0  0  0  0  0  0  0  0
  -15.4434   24.4134    3.4484 C   0  0  0  0  0  0  0  0  0  0  0  0
  -16.2646   23.8280    2.4313 N   0  0  0  0  0  0  0  0  0  0  0  0
  -14.9803   23.6444    4.4414 N   0  0  0  0  0  0  0  0  0  0  0  0
  -14.2037   24.1501    5.4144 C   0  0  0  0  0  0  0  0  0  0  0  0
  -13.8786   25.5032    5.3938 C   0  0  0  0  0  0  0  0  0  0  0  0
  -13.0493   25.9752    6.4633 C   0  0  0  0  0  0  0  0  0  0  0  0
  -12.6924   27.3209    6.5741 O   0  0  0  0  0  0  0  0  0  0  0  0
  -13.7597   23.3485    6.3566 N   0  0  0  0  0  0  0  0  0  0  0  0
  -12.9922   23.7778    7.3444 N   0  0  0  0  0  0  0  0  0  0  0  0
  -12.6255   25.0536    7.4290 C   0  0  0  0  0  0  0  0  0  0  0  0
  -15.5253   26.2694    2.6942 H   0  0  0  0  0  0  0  0  0  0  0  0
  -16.6103   24.3849    1.6967 H   0  0  0  0  0  0  0  0  0  0  0  0
  -16.4834   22.8688    2.4669 H   0  0  0  0  0  0  0  0  0  0  0  0
  -14.0069   22.3960    6.3261 H   0  0  0  0  0  0  0  0  0  0  0  0
  -11.7513   25.5119    8.6094 C   0  0  0  0  0  0  0  0  0  0  0  0
  -10.4411   26.0732    8.0867 C   0  0  0  0  0  0  0  0  0  0  0  0
  -12.3070   26.5711    9.5005 C   0  0  0  0  0  0  0  0  0  0  0  0
  -13.5488   26.7197    9.6072 O   0  0  0  0  0  0  0  0  0  0  0  0
  -11.5570   27.4121    9.9922 O   0  0  0  0  0  0  0  0  0  0  0  0
  -14.1301   26.0852    9.2365 H   0  0  0  0  0  0  0  0  0  0  0  0
  5  4  1  0  0  0
  3  4  1  0  0  0
  3  2  1  0  0  0
  4  6  2  0  0  0
  1  2  2  0  0  0
  2  8  1  0  0  0
  6  7  1  0  0  0
  8  7  2  0  0  0
  8  9  1  0  0  0
  7 11  1  0  0  0
  9 10  2  0  0  0
  9 13  1  0  0  0
 11 12  1  0  0  0
 12 13  2  0  0  0
 13 18  1  0  0  0
 19 18  1  0  0  0
 18 20  1  0  0  0
 22 20  2  0  0  0
 20 21  1  0  0  0
  3 14  1  0  0  0
  5 15  1  0  0  0
  5 16  1  0  0  0
 11 17  1  0  0  0
 21 23  1  0  0  0
M  END
> <minimizedAffinity>
-6.84099

$$$$
4DAF_0J4_A_301


 23 24  0  0  0  0  0  0  0  0999 V2000
  -14.7312   23.4553    4.5627 O   0  0  0  0  0  0  0  0  0  0  0  0
  -14.3932   24.8273    4.6090 C   0  0  0  0  0  0  0  0  0  0  0  0
  -14.8768   25.6525    3.6667 N   0  0  0  0  0  0  0  0  0  0  0  0
  -14.6373   26.9652    3.6805 C   0  0  0  0  0  0  0  0  0  0  0  0
  -15.1815   27.8141    2.6632 N   0  0  0  0  0  0  0  0  0  0  0  0
  -13.8679   27.4980    4.6376 N   0  0  0  0  0  0  0  0  0  0  0  0
  -13.3395   26.7404    5.6135 C   0  0  0  0  0  0  0  0  0  0  0  0
  -13.5917   25.3717    5.6268 C   0  0  0  0  0  0  0  0  0  0  0  0
  -12.9947   24.6246    6.6945 C   0  0  0  0  0  0  0  0  0  0  0  0
  -13.1399   23.2388    6.7890 O   0  0  0  0  0  0  0  0  0  0  0  0
  -12.6060   27.3155    6.5401 N   0  0  0  0  0  0  0  0  0  0  0  0
  -12.0548   26.6317    7.5289 N   0  0  0  0  0  0  0  0  0  0  0  0
  -12.2227   25.3166    7.6361 C   0  0  0  0  0  0  0  0  0  0  0  0
  -15.4264   25.2766    2.9414 H   0  0  0  0  0  0  0  0  0  0  0  0
  -15.7486   27.4321    1.9548 H   0  0  0  0  0  0  0  0  0  0  0  0
  -14.9886   28.7794    2.6724 H   0  0  0  0  0  0  0  0  0  0  0  0
  -12.4620   28.2884    6.4967 H   0  0  0  0  0  0  0  0  0  0  0  0
  -11.5423   24.5595    8.7901 C   0  0  0  0  0  0  0  0  0  0  0  0
  -10.3307   25.3394    9.2682 C   0  0  0  0  0  0  0  0  0  0  0  0
  -12.3560   24.3047   10.0139 C   0  0  0  0  0  0  0  0  0  0  0  0
  -13.3318   23.5163    9.9712 O   0  0  0  0  0  0  0  0  0  0  0  0
  -12.1856   24.9958   11.0164 O   0  0  0  0  0  0  0  0  0  0  0  0
  -13.4717   22.9847    9.2124 H   0  0  0  0  0  0  0  0  0  0  0  0
  5  4  1  0  0  0
  3  4  1  0  0  0
  3  2  1  0  0  0
  4  6  2  0  0  0
  1  2  2  0  0  0
  2  8  1  0  0  0
  6  7  1  0  0  0
  8  7  2  0  0  0
  8  9  1  0  0  0
  7 11  1  0  0  0
  9 10  2  0  0  0
  9 13  1  0  0  0
 11 12  1  0  0  0
 12 13  2  0  0  0
 13 18  1  0  0  0
 19 18  1  0  0  0
 18 20  1  0  0  0
 22 20  2  0  0  0
 20 21  1  0  0  0
  3 14  1  0  0  0
  5 15  1  0  0  0
  5 16  1  0  0  0
 11 17  1  0  0  0
 21 23  1  0  0  0
M  END
> <minimizedAffinity>
-5.81176

$$$$
4DAF_0J4_A_301


 23 24  0  0  0  0  0  0  0  0999 V2000
  -12.7529   29.4748    9.0505 O   0  0  0  0  0  0  0  0  0  0  0  0
  -12.8573   28.4295    9.9966 C   0  0  0  0  0  0  0  0  0  0  0  0
  -13.0429   28.7345   11.2910 N   0  0  0  0  0  0  0  0  0  0  0  0
  -13.1991   27.7963   12.2270 C   0  0  0  0  0  0  0  0  0  0  0  0
  -13.4069   28.1629   13.5960 N   0  0  0  0  0  0  0  0  0  0  0  0
  -13.1432   26.5005   11.8958 N   0  0  0  0  0  0  0  0  0  0  0  0
  -12.9538   26.1108   10.6239 C   0  0  0  0  0  0  0  0  0  0  0  0
  -12.8060   27.0739    9.6300 C   0  0  0  0  0  0  0  0  0  0  0  0
  -12.6047   26.5874    8.2968 C   0  0  0  0  0  0  0  0  0  0  0  0
  -12.4005   27.4569    7.2231 O   0  0  0  0  0  0  0  0  0  0  0  0
  -12.9252   24.8259   10.3487 N   0  0  0  0  0  0  0  0  0  0  0  0
  -12.7423   24.3713    9.1203 N   0  0  0  0  0  0  0  0  0  0  0  0
  -12.5820   25.2018    8.0938 C   0  0  0  0  0  0  0  0  0  0  0  0
  -13.0645   29.6818   11.5583 H   0  0  0  0  0  0  0  0  0  0  0  0
  -13.4495   29.1131   13.8501 H   0  0  0  0  0  0  0  0  0  0  0  0
  -13.5070   27.4647   14.2828 H   0  0  0  0  0  0  0  0  0  0  0  0
  -13.0439   24.1798   11.0820 H   0  0  0  0  0  0  0  0  0  0  0  0
  -12.3484   24.6268    6.6857 C   0  0  0  0  0  0  0  0  0  0  0  0
  -11.5516   23.3384    6.7862 C   0  0  0  0  0  0  0  0  0  0  0  0
  -13.5549   24.2831    5.8791 C   0  0  0  0  0  0  0  0  0  0  0  0
  -14.3495   23.3966    6.2769 O   0  0  0  0  0  0  0  0  0  0  0  0
  -13.6808   24.7367    4.7434 O   0  0  0  0  0  0  0  0  0  0  0  0
  -14.2633   23.0434    7.1405 H   0  0  0  0  0  0  0  0  0  0  0  0
  5  4  1  0  0  0
  3  4  1  0  0  0
  3  2  1  0  0  0
  4  6  2  0  0  0
  1  2  2  0  0  0
  2  8  1  0  0  0
  6  7  1  0  0  0
  8  7  2  0  0  0
  8  9  1  0  0  0
  7 11  1  0  0  0
  9 10  2  0  0  0
  9 13  1  0  0  0
 11 12  1  0  0  0
 12 13  2  0  0  0
 13 18  1  0  0  0
 19 18  1  0  0  0
 18 20  1  0  0  0
 22 20  2  0  0  0
 20 21  1  0  0  0
  3 14  1  0  0  0
  5 15  1  0  0  0
  5 16  1  0  0  0
 11 17  1  0  0  0
 21 23  1  0  0  0
M  END
> <minimizedAffinity>
-5.64241

$$$$
4DAF_0J4_A_301


 23 24  0  0  0  0  0  0  0  0999 V2000
   -9.5906   29.9818    8.5747 O   0  0  0  0  0  0  0  0  0  0  0  0
  -10.7827   29.8724    9.3269 C   0  0  0  0  0  0  0  0  0  0  0  0
  -11.1483   30.8882   10.1251 N   0  0  0  0  0  0  0  0  0  0  0  0
  -12.2856   30.8699   10.8230 C   0  0  0  0  0  0  0  0  0  0  0  0
  -12.6459   31.9791   11.6546 N   0  0  0  0  0  0  0  0  0  0  0  0
  -13.0919   29.8030   10.7663 N   0  0  0  0  0  0  0  0  0  0  0  0
  -12.7956   28.7418    9.9971 C   0  0  0  0  0  0  0  0  0  0  0  0
  -11.6226   28.7486    9.2480 C   0  0  0  0  0  0  0  0  0  0  0  0
  -11.3684   27.5835    8.4526 C   0  0  0  0  0  0  0  0  0  0  0  0
  -10.2035   27.4555    7.6928 O   0  0  0  0  0  0  0  0  0  0  0  0
  -13.6301   27.7270    9.9625 N   0  0  0  0  0  0  0  0  0  0  0  0
  -13.4020   26.6507    9.2286 N   0  0  0  0  0  0  0  0  0  0  0  0
  -12.3082   26.5455    8.4791 C   0  0  0  0  0  0  0  0  0  0  0  0
  -10.5578   31.6726   10.1979 H   0  0  0  0  0  0  0  0  0  0  0  0
  -12.0598   32.7687   11.7033 H   0  0  0  0  0  0  0  0  0  0  0  0
  -13.4797   31.9520   12.1773 H   0  0  0  0  0  0  0  0  0  0  0  0
  -14.4530   27.7695   10.5013 H   0  0  0  0  0  0  0  0  0  0  0  0
  -12.0736   25.2640    7.6602 C   0  0  0  0  0  0  0  0  0  0  0  0
  -11.9703   24.0724    8.5951 C   0  0  0  0  0  0  0  0  0  0  0  0
  -13.1155   24.8920    6.6599 C   0  0  0  0  0  0  0  0  0  0  0  0
  -13.6371   25.7726    5.9333 O   0  0  0  0  0  0  0  0  0  0  0  0
  -13.5922   23.7587    6.6661 O   0  0  0  0  0  0  0  0  0  0  0  0
  -13.2824   26.6398    5.9203 H   0  0  0  0  0  0  0  0  0  0  0  0
  5  4  1  0  0  0
  3  4  1  0  0  0
  3  2  1  0  0  0
  4  6  2  0  0  0
  1  2  2  0  0  0
  2  8  1  0  0  0
  6  7  1  0  0  0
  8  7  2  0  0  0
  8  9  1  0  0  0
  7 11  1  0  0  0
  9 10  2  0  0  0
  9 13  1  0  0  0
 11 12  1  0  0  0
 12 13  2  0  0  0
 13 18  1  0  0  0
 19 18  1  0  0  0
 18 20  1  0  0  0
 22 20  2  0  0  0
 20 21  1  0  0  0
  3 14  1  0  0  0
  5 15  1  0  0  0
  5 16  1  0  0  0
 11 17  1  0  0  0
 21 23  1  0  0  0
M  END
> <minimizedAffinity>
-5.56152

$$$$
4DAF_0J4_A_301


 23 24  0  0  0  0  0  0  0  0999 V2000
  -11.9028   22.7209    8.6185 O   0  0  0  0  0  0  0  0  0  0  0  0
  -11.9407   24.0948    8.9495 C   0  0  0  0  0  0  0  0  0  0  0  0
  -11.4855   24.4918   10.1486 N   0  0  0  0  0  0  0  0  0  0  0  0
  -11.4469   25.7775   10.5042 C   0  0  0  0  0  0  0  0  0  0  0  0
  -10.9427   26.1615   11.7887 N   0  0  0  0  0  0  0  0  0  0  0  0
  -11.8985   26.7200    9.6679 N   0  0  0  0  0  0  0  0  0  0  0  0
  -12.3767   26.4060    8.4520 C   0  0  0  0  0  0  0  0  0  0  0  0
  -12.4094   25.0723    8.0554 C   0  0  0  0  0  0  0  0  0  0  0  0
  -12.9342   24.8096    6.7476 C   0  0  0  0  0  0  0  0  0  0  0  0
  -13.0579   23.5083    6.2561 O   0  0  0  0  0  0  0  0  0  0  0  0
  -12.7910   27.3709    7.6615 N   0  0  0  0  0  0  0  0  0  0  0  0
  -13.2737   27.1348    6.4531 N   0  0  0  0  0  0  0  0  0  0  0  0
  -13.3590   25.8970    5.9737 C   0  0  0  0  0  0  0  0  0  0  0  0
  -11.1697   23.8119   10.7868 H   0  0  0  0  0  0  0  0  0  0  0  0
  -10.6082   25.4761   12.4113 H   0  0  0  0  0  0  0  0  0  0  0  0
  -10.9307   27.1109   12.0491 H   0  0  0  0  0  0  0  0  0  0  0  0
  -12.7403   28.3011    7.9798 H   0  0  0  0  0  0  0  0  0  0  0  0
  -13.9497   25.6686    4.5713 C   0  0  0  0  0  0  0  0  0  0  0  0
  -15.0452   24.6200    4.6433 C   0  0  0  0  0  0  0  0  0  0  0  0
  -14.5707   26.8423    3.8921 C   0  0  0  0  0  0  0  0  0  0  0  0
  -13.9231   27.9089    3.7553 O   0  0  0  0  0  0  0  0  0  0  0  0
  -15.7705   26.8296    3.6242 O   0  0  0  0  0  0  0  0  0  0  0  0
  -13.0082   27.9306    3.9564 H   0  0  0  0  0  0  0  0  0  0  0  0
  5  4  1  0  0  0
  3  4  1  0  0  0
  3  2  1  0  0  0
  4  6  2  0  0  0
  1  2  2  0  0  0
  2  8  1  0  0  0
  6  7  1  0  0  0
  8  7  2  0  0  0
  8  9  1  0  0  0
  7 11  1  0  0  0
  9 10  2  0  0  0
  9 13  1  0  0  0
 11 12  1  0  0  0
 12 13  2  0  0  0
 13 18  1  0  0  0
 19 18  1  0  0  0
 18 20  1  0  0  0
 22 20  2  0  0  0
 20 21  1  0  0  0
  3 14  1  0  0  0
  5 15  1  0  0  0
  5 16  1  0  0  0
 11 17  1  0  0  0
 21 23  1  0  0  0
M  END
> <minimizedAffinity>
-5.48437

$$$$
4DAF_0J4_A_301


 23 24  0  0  0  0  0  0  0  0999 V2000
  -11.7915   28.0945    8.2505 O   0  0  0  0  0  0  0  0  0  0  0  0
  -11.8271   26.7026    8.4959 C   0  0  0  0  0  0  0  0  0  0  0  0
  -11.2988   26.2252    9.6342 N   0  0  0  0  0  0  0  0  0  0  0  0
  -11.3437   24.9294    9.9499 C   0  0  0  0  0  0  0  0  0  0  0  0
  -10.7787   24.4611   11.1800 N   0  0  0  0  0  0  0  0  0  0  0  0
  -11.9018   24.0513    9.1077 N   0  0  0  0  0  0  0  0  0  0  0  0
  -12.4470   24.4462    7.9448 C   0  0  0  0  0  0  0  0  0  0  0  0
  -12.4258   25.7957    7.6049 C   0  0  0  0  0  0  0  0  0  0  0  0
  -13.0225   26.1456    6.3495 C   0  0  0  0  0  0  0  0  0  0  0  0
  -13.0232   27.4611    5.8804 O   0  0  0  0  0  0  0  0  0  0  0  0
  -12.9988   23.5465    7.1617 N   0  0  0  0  0  0  0  0  0  0  0  0
  -13.5531   23.8637    6.0036 N   0  0  0  0  0  0  0  0  0  0  0  0
  -13.5828   25.1224    5.5745 C   0  0  0  0  0  0  0  0  0  0  0  0
  -10.8638   26.8519   10.2565 H   0  0  0  0  0  0  0  0  0  0  0  0
  -10.3659   25.0987   11.8064 H   0  0  0  0  0  0  0  0  0  0  0  0
  -10.8033   23.5016   11.3992 H   0  0  0  0  0  0  0  0  0  0  0  0
  -12.9996   22.6042    7.4469 H   0  0  0  0  0  0  0  0  0  0  0  0
  -14.2173   25.4406    4.2092 C   0  0  0  0  0  0  0  0  0  0  0  0
  -15.3260   24.4456    3.9171 C   0  0  0  0  0  0  0  0  0  0  0  0
  -14.8397   26.7857    4.0419 C   0  0  0  0  0  0  0  0  0  0  0  0
  -15.6772   27.2030    4.8785 O   0  0  0  0  0  0  0  0  0  0  0  0
  -14.6705   27.4122    2.9976 O   0  0  0  0  0  0  0  0  0  0  0  0
  -15.8146   26.7339    5.6778 H   0  0  0  0  0  0  0  0  0  0  0  0
  5  4  1  0  0  0
  3  4  1  0  0  0
  3  2  1  0  0  0
  4  6  2  0  0  0
  1  2  2  0  0  0
  2  8  1  0  0  0
  6  7  1  0  0  0
  8  7  2  0  0  0
  8  9  1  0  0  0
  7 11  1  0  0  0
  9 10  2  0  0  0
  9 13  1  0  0  0
 11 12  1  0  0  0
 12 13  2  0  0  0
 13 18  1  0  0  0
 19 18  1  0  0  0
 18 20  1  0  0  0
 22 20  2  0  0  0
 20 21  1  0  0  0
  3 14  1  0  0  0
  5 15  1  0  0  0
  5 16  1  0  0  0
 11 17  1  0  0  0
 21 23  1  0  0  0
M  END
> <minimizedAffinity>
-5.47896

$$$$
4DAF_0J4_A_301


 23 24  0  0  0  0  0  0  0  0999 V2000
  -13.4966   28.5006    8.0666 O   0  0  0  0  0  0  0  0  0  0  0  0
  -13.1560   28.8577    9.3914 C   0  0  0  0  0  0  0  0  0  0  0  0
  -12.9754   30.1533    9.6940 N   0  0  0  0  0  0  0  0  0  0  0  0
  -12.7016   30.5621   10.9345 C   0  0  0  0  0  0  0  0  0  0  0  0
  -12.5276   31.9550   11.2190 N   0  0  0  0  0  0  0  0  0  0  0  0
  -12.5680   29.6687   11.9224 N   0  0  0  0  0  0  0  0  0  0  0  0
  -12.7262   28.3527   11.7022 C   0  0  0  0  0  0  0  0  0  0  0  0
  -13.0290   27.9074   10.4188 C   0  0  0  0  0  0  0  0  0  0  0  0
  -13.1812   26.4915   10.2555 C   0  0  0  0  0  0  0  0  0  0  0  0
  -13.4423   25.9222    9.0071 O   0  0  0  0  0  0  0  0  0  0  0  0
  -12.6024   27.5184   12.7102 N   0  0  0  0  0  0  0  0  0  0  0  0
  -12.7442   26.2115   12.5661 N   0  0  0  0  0  0  0  0  0  0  0  0
  -13.0266   25.6744   11.3824 C   0  0  0  0  0  0  0  0  0  0  0  0
  -13.0472   30.8240    8.9769 H   0  0  0  0  0  0  0  0  0  0  0  0
  -12.6238   32.6202   10.4996 H   0  0  0  0  0  0  0  0  0  0  0  0
  -12.3119   32.2474   12.1340 H   0  0  0  0  0  0  0  0  0  0  0  0
  -12.3971   27.8788   13.6031 H   0  0  0  0  0  0  0  0  0  0  0  0
  -13.1589   24.1464   11.2581 C   0  0  0  0  0  0  0  0  0  0  0  0
  -12.0102   23.4734   11.9878 C   0  0  0  0  0  0  0  0  0  0  0  0
  -14.3963   23.5206   11.8075 C   0  0  0  0  0  0  0  0  0  0  0  0
  -14.6809   23.6449   13.0237 O   0  0  0  0  0  0  0  0  0  0  0  0
  -15.0445   22.7376   11.1160 O   0  0  0  0  0  0  0  0  0  0  0  0
  -14.1938   24.2386   13.5606 H   0  0  0  0  0  0  0  0  0  0  0  0
  5  4  1  0  0  0
  3  4  1  0  0  0
  3  2  1  0  0  0
  4  6  2  0  0  0
  1  2  2  0  0  0
  2  8  1  0  0  0
  6  7  1  0  0  0
  8  7  2  0  0  0
  8  9  1  0  0  0
  7 11  1  0  0  0
  9 10  2  0  0  0
  9 13  1  0  0  0
 11 12  1  0  0  0
 12 13  2  0  0  0
 13 18  1  0  0  0
 19 18  1  0  0  0
 18 20  1  0  0  0
 22 20  2  0  0  0
 20 21  1  0  0  0
  3 14  1  0  0  0
  5 15  1  0  0  0
  5 16  1  0  0  0
 11 17  1  0  0  0
 21 23  1  0  0  0
M  END
> <minimizedAffinity>
-5.41371

$$$$
4DAF_0J4_A_301


 23 24  0  0  0  0  0  0  0  0999 V2000
  -14.5831   29.1431    8.2316 O   0  0  0  0  0  0  0  0  0  0  0  0
  -13.4220   29.3544    9.0099 C   0  0  0  0  0  0  0  0  0  0  0  0
  -13.3249   30.4700    9.7508 N   0  0  0  0  0  0  0  0  0  0  0  0
  -12.2793   30.7068   10.5454 C   0  0  0  0  0  0  0  0  0  0  0  0
  -12.2186   31.9039   11.3295 N   0  0  0  0  0  0  0  0  0  0  0  0
  -11.2663   29.8335   10.6014 N   0  0  0  0  0  0  0  0  0  0  0  0
  -11.2824   28.6961    9.8862 C   0  0  0  0  0  0  0  0  0  0  0  0
  -12.3719   28.4223    9.0645 C   0  0  0  0  0  0  0  0  0  0  0  0
  -12.3214   27.1932    8.3287 C   0  0  0  0  0  0  0  0  0  0  0  0
  -13.3349   26.8303    7.4390 O   0  0  0  0  0  0  0  0  0  0  0  0
  -10.2711   27.8632    9.9909 N   0  0  0  0  0  0  0  0  0  0  0  0
  -10.2202   26.7267    9.3164 N   0  0  0  0  0  0  0  0  0  0  0  0
  -11.2029   26.3669    8.4954 C   0  0  0  0  0  0  0  0  0  0  0  0
  -14.0491   31.1354    9.7063 H   0  0  0  0  0  0  0  0  0  0  0  0
  -12.9583   32.5527   11.2954 H   0  0  0  0  0  0  0  0  0  0  0  0
  -11.4372   32.0780   11.9024 H   0  0  0  0  0  0  0  0  0  0  0  0
   -9.5260   28.0931   10.5919 H   0  0  0  0  0  0  0  0  0  0  0  0
  -11.0890   25.0467    7.7132 C   0  0  0  0  0  0  0  0  0  0  0  0
   -9.7259   24.4245    7.9576 C   0  0  0  0  0  0  0  0  0  0  0  0
  -12.0755   23.9750    8.0341 C   0  0  0  0  0  0  0  0  0  0  0  0
  -13.1619   23.9083    7.4090 O   0  0  0  0  0  0  0  0  0  0  0  0
  -11.9082   23.2667    9.0250 O   0  0  0  0  0  0  0  0  0  0  0  0
  -13.3007   24.4433    6.6524 H   0  0  0  0  0  0  0  0  0  0  0  0
  5  4  1  0  0  0
  3  4  1  0  0  0
  3  2  1  0  0  0
  4  6  2  0  0  0
  1  2  2  0  0  0
  2  8  1  0  0  0
  6  7  1  0  0  0
  8  7  2  0  0  0
  8  9  1  0  0  0
  7 11  1  0  0  0
  9 10  2  0  0  0
  9 13  1  0  0  0
 11 12  1  0  0  0
 12 13  2  0  0  0
 13 18  1  0  0  0
 19 18  1  0  0  0
 18 20  1  0  0  0
 22 20  2  0  0  0
 20 21  1  0  0  0
  3 14  1  0  0  0
  5 15  1  0  0  0
  5 16  1  0  0  0
 11 17  1  0  0  0
 21 23  1  0  0  0
M  END
> <minimizedAffinity>
-5.30982

$$$$
4DAF_0J4_A_301


 23 24  0  0  0  0  0  0  0  0999 V2000
  -13.6998   25.4706    6.1011 O   0  0  0  0  0  0  0  0  0  0  0  0
  -12.8329   24.9353    7.0811 C   0  0  0  0  0  0  0  0  0  0  0  0
  -12.5210   23.6301    7.0362 N   0  0  0  0  0  0  0  0  0  0  0  0
  -11.6704   23.0724    7.9001 C   0  0  0  0  0  0  0  0  0  0  0  0
  -11.3542   21.6782    7.8115 N   0  0  0  0  0  0  0  0  0  0  0  0
  -11.1191   23.8099    8.8717 N   0  0  0  0  0  0  0  0  0  0  0  0
  -11.3842   25.1219    8.9905 C   0  0  0  0  0  0  0  0  0  0  0  0
  -12.2552   25.7263    8.0888 C   0  0  0  0  0  0  0  0  0  0  0  0
  -12.4946   27.1271    8.2761 C   0  0  0  0  0  0  0  0  0  0  0  0
  -13.3823   27.8335    7.4617 O   0  0  0  0  0  0  0  0  0  0  0  0
  -10.8025   25.8051    9.9509 N   0  0  0  0  0  0  0  0  0  0  0  0
  -11.0175   27.0981   10.1269 N   0  0  0  0  0  0  0  0  0  0  0  0
  -11.8374   27.7763    9.3288 C   0  0  0  0  0  0  0  0  0  0  0  0
  -12.9334   23.0658    6.3429 H   0  0  0  0  0  0  0  0  0  0  0  0
  -11.7544   21.1269    7.1007 H   0  0  0  0  0  0  0  0  0  0  0  0
  -10.7367   21.2712    8.4614 H   0  0  0  0  0  0  0  0  0  0  0  0
  -10.1858   25.3384   10.5600 H   0  0  0  0  0  0  0  0  0  0  0  0
  -12.0752   29.2745    9.5867 C   0  0  0  0  0  0  0  0  0  0  0  0
  -12.6974   29.4639   10.9585 C   0  0  0  0  0  0  0  0  0  0  0  0
  -10.8819   30.1690    9.5674 C   0  0  0  0  0  0  0  0  0  0  0  0
   -9.7633   29.7229    9.2138 O   0  0  0  0  0  0  0  0  0  0  0  0
  -10.9511   31.2917   10.0639 O   0  0  0  0  0  0  0  0  0  0  0  0
   -9.6983   28.8686    8.8343 H   0  0  0  0  0  0  0  0  0  0  0  0
  5  4  1  0  0  0
  3  4  1  0  0  0
  3  2  1  0  0  0
  4  6  2  0  0  0
  1  2  2  0  0  0
  2  8  1  0  0  0
  6  7  1  0  0  0
  8  7  2  0  0  0
  8  9  1  0  0  0
  7 11  1  0  0  0
  9 10  2  0  0  0
  9 13  1  0  0  0
 11 12  1  0  0  0
 12 13  2  0  0  0
 13 18  1  0  0  0
 19 18  1  0  0  0
 18 20  1  0  0  0
 22 20  2  0  0  0
 20 21  1  0  0  0
  3 14  1  0  0  0
  5 15  1  0  0  0
  5 16  1  0  0  0
 11 17  1  0  0  0
 21 23  1  0  0  0
M  END
> <minimizedAffinity>
-5.02167

$$$$
