2XC0_8NC_A_1246


 40 43  0  0  0  0  0  0  0  0999 V2000
    9.0798   66.5969    1.9063 C   0  0  0  0  0  0  0  0  0  0  0  0
    9.6664   67.0017    3.2926 C   0  0  0  0  0  0  0  0  0  0  0  0
    9.0136   68.9492    2.0778 N   0  0  0  0  0  0  0  0  0  0  0  0
    8.2352   67.8308    1.5276 C   0  0  0  0  0  0  0  0  0  0  0  0
    9.7680   68.5247    3.2541 C   0  0  0  0  0  0  0  0  0  0  0  0
    8.2954   70.4244    2.1649 S   0  0  0  0  0  0  0  0  0  0  0  0
    9.1309   71.2025    1.3156 O   0  0  0  0  0  0  0  0  0  0  0  0
    8.2313   70.6607    3.5681 O   0  0  0  0  0  0  0  0  0  0  0  0
    6.6495   70.1291    1.4681 C   0  0  0  0  0  0  0  0  0  0  0  0
    8.2487   65.3341    1.9980 C   0  0  0  0  0  0  0  0  0  0  0  0
    8.7902   64.2711    2.6011 N   0  0  0  0  0  0  0  0  0  0  0  0
    7.1125   65.2825    1.5614 O   0  0  0  0  0  0  0  0  0  0  0  0
    9.7024   64.3877    2.9524 H   0  0  0  0  0  0  0  0  0  0  0  0
    7.2561   60.3819    2.9638 C   0  0  0  0  0  0  0  0  0  0  0  0
    8.1401   60.7281    1.9657 C   0  0  0  0  0  0  0  0  0  0  0  0
    8.2041   62.9980    2.7928 C   0  0  0  0  0  0  0  0  0  0  0  0
    8.6004   62.0298    1.8955 C   0  0  0  0  0  0  0  0  0  0  0  0
    6.8319   61.3505    3.8720 C   0  0  0  0  0  0  0  0  0  0  0  0
    7.3245   62.6637    3.8118 C   0  0  0  0  0  0  0  0  0  0  0  0
    9.4784   62.3918    0.9354 F   0  0  0  0  0  0  0  0  0  0  0  0
    6.7816   59.0635    2.9985 N   0  0  0  0  0  0  0  0  0  0  0  0
    5.6775   58.7504    2.2971 C   0  0  0  0  0  0  0  0  0  0  0  0
    7.4442   58.1078    3.7157 C   0  0  0  0  0  0  0  0  0  0  0  0
    5.1736   57.4355    2.3272 C   0  0  0  0  0  0  0  0  0  0  0  0
    5.0916   59.6214    1.6656 O   0  0  0  0  0  0  0  0  0  0  0  0
    6.9704   56.8500    3.7827 C   0  0  0  0  0  0  0  0  0  0  0  0
    5.8063   56.4994    3.0813 C   0  0  0  0  0  0  0  0  0  0  0  0
   11.0180   66.3652    3.4394 C   0  0  0  0  0  0  0  0  0  0  0  0
   11.5664   66.2473    4.6458 N   0  0  0  0  0  0  0  0  0  0  0  0
   11.6120   65.9623    2.4682 O   0  0  0  0  0  0  0  0  0  0  0  0
   11.1008   66.6352    5.4216 H   0  0  0  0  0  0  0  0  0  0  0  0
   14.6337   64.2660    4.0925 C   0  0  0  0  0  0  0  0  0  0  0  0
   13.4579   64.9480    3.7973 C   0  0  0  0  0  0  0  0  0  0  0  0
   12.7794   65.5917    4.8448 C   0  0  0  0  0  0  0  0  0  0  0  0
   15.0811   64.1993    5.4076 C   0  0  0  0  0  0  0  0  0  0  0  0
   14.3880   64.8192    6.4355 C   0  0  0  0  0  0  0  0  0  0  0  0
   15.3493   63.6367    3.1150 F   0  0  0  0  0  0  0  0  0  0  0  0
   13.2234   65.5053    6.1487 C   0  0  0  0  0  0  0  0  0  0  0  0
   16.2261   63.5195    5.7151 O   0  0  0  0  0  0  0  0  0  0  0  0
   16.1627   62.6185    6.8110 C   0  0  0  0  0  0  0  0  0  0  0  0
  6  3  1  0  0  0
  6  7  2  0  0  0
  6  8  2  0  0  0
  6  9  1  0  0  0
  1  2  1  0  0  0
  1 10  1  0  0  0
  1  4  1  0  0  0
  2 28  1  0  0  0
  2  5  1  0  0  0
  3  4  1  0  0  0
  3  5  1  0  0  0
 10 11  1  0  0  0
 10 12  2  0  0  0
 21 22  1  0  0  0
 21 14  1  0  0  0
 21 23  1  0  0  0
 28 29  1  0  0  0
 28 30  2  0  0  0
 22 24  1  0  0  0
 22 25  2  0  0  0
 14 15  1  0  0  0
 14 18  2  0  0  0
 11 16  1  0  0  0
 15 17  2  0  0  0
 29 34  1  0  0  0
 16 17  1  0  0  0
 16 19  2  0  0  0
 17 20  1  0  0  0
 32 33  2  0  0  0
 32 35  1  0  0  0
 32 37  1  0  0  0
 33 34  1  0  0  0
 23 26  2  0  0  0
 34 38  2  0  0  0
 24 27  2  0  0  0
 35 36  2  0  0  0
 35 39  1  0  0  0
 18 19  1  0  0  0
 26 27  1  0  0  0
 36 38  1  0  0  0
 39 40  1  0  0  0
 11 13  1  0  0  0
 29 31  1  0  0  0
M  END
> <minimizedAffinity>
-11.96092

$$$$
2XC0_8NC_A_1246


 40 43  0  0  0  0  0  0  0  0999 V2000
    8.8632   67.1770    1.8571 C   0  0  0  0  0  0  0  0  0  0  0  0
    9.1047   67.3337    3.3891 C   0  0  0  0  0  0  0  0  0  0  0  0
    8.1188   69.3196    2.5067 N   0  0  0  0  0  0  0  0  0  0  0  0
    7.7724   68.2320    1.5811 C   0  0  0  0  0  0  0  0  0  0  0  0
    8.7816   68.7938    3.6972 C   0  0  0  0  0  0  0  0  0  0  0  0
    7.0126   70.5093    2.7530 S   0  0  0  0  0  0  0  0  0  0  0  0
    7.0871   70.6849    4.1632 O   0  0  0  0  0  0  0  0  0  0  0  0
    5.8445   69.9872    2.1271 O   0  0  0  0  0  0  0  0  0  0  0  0
    7.6911   71.9089    1.8244 C   0  0  0  0  0  0  0  0  0  0  0  0
    8.4135   65.7749    1.5025 C   0  0  0  0  0  0  0  0  0  0  0  0
    8.0950   64.9480    2.5034 N   0  0  0  0  0  0  0  0  0  0  0  0
    8.3176   65.4069    0.3451 O   0  0  0  0  0  0  0  0  0  0  0  0
    8.1718   65.3161    3.4133 H   0  0  0  0  0  0  0  0  0  0  0  0
    6.5135   61.0707    2.2273 C   0  0  0  0  0  0  0  0  0  0  0  0
    5.7314   62.1570    2.5523 C   0  0  0  0  0  0  0  0  0  0  0  0
    7.6606   63.6053    2.4065 C   0  0  0  0  0  0  0  0  0  0  0  0
    6.3163   63.4068    2.6369 C   0  0  0  0  0  0  0  0  0  0  0  0
    7.8781   61.2488    2.0052 C   0  0  0  0  0  0  0  0  0  0  0  0
    8.4604   62.5247    2.0655 C   0  0  0  0  0  0  0  0  0  0  0  0
    5.5693   64.4902    2.9399 F   0  0  0  0  0  0  0  0  0  0  0  0
    5.9043   59.8095    2.1747 N   0  0  0  0  0  0  0  0  0  0  0  0
    6.5135   58.7671    2.7674 C   0  0  0  0  0  0  0  0  0  0  0  0
    4.6998   59.6480    1.5504 C   0  0  0  0  0  0  0  0  0  0  0  0
    5.9276   57.4873    2.7164 C   0  0  0  0  0  0  0  0  0  0  0  0
    7.5968   58.9283    3.3162 O   0  0  0  0  0  0  0  0  0  0  0  0
    4.1302   58.4317    1.4644 C   0  0  0  0  0  0  0  0  0  0  0  0
    4.7546   57.3204    2.0519 C   0  0  0  0  0  0  0  0  0  0  0  0
   10.5438   67.0177    3.6767 C   0  0  0  0  0  0  0  0  0  0  0  0
   10.8554   65.9297    4.3761 N   0  0  0  0  0  0  0  0  0  0  0  0
   11.4204   67.7473    3.2796 O   0  0  0  0  0  0  0  0  0  0  0  0
   10.1301   65.3770    4.7472 H   0  0  0  0  0  0  0  0  0  0  0  0
   14.2470   64.5402    3.9218 C   0  0  0  0  0  0  0  0  0  0  0  0
   12.9557   64.9444    3.5992 C   0  0  0  0  0  0  0  0  0  0  0  0
   12.1766   65.5484    4.5992 C   0  0  0  0  0  0  0  0  0  0  0  0
   14.7155   64.6997    5.2216 C   0  0  0  0  0  0  0  0  0  0  0  0
   13.9265   65.2757    6.2049 C   0  0  0  0  0  0  0  0  0  0  0  0
   15.0606   63.9647    2.9889 F   0  0  0  0  0  0  0  0  0  0  0  0
   12.6455   65.6869    5.8898 C   0  0  0  0  0  0  0  0  0  0  0  0
   15.9762   64.2929    5.5573 O   0  0  0  0  0  0  0  0  0  0  0  0
   16.0796   63.2350    6.4990 C   0  0  0  0  0  0  0  0  0  0  0  0
  6  3  1  0  0  0
  6  7  2  0  0  0
  6  8  2  0  0  0
  6  9  1  0  0  0
  1  2  1  0  0  0
  1 10  1  0  0  0
  1  4  1  0  0  0
  2 28  1  0  0  0
  2  5  1  0  0  0
  3  4  1  0  0  0
  3  5  1  0  0  0
 10 11  1  0  0  0
 10 12  2  0  0  0
 21 22  1  0  0  0
 21 14  1  0  0  0
 21 23  1  0  0  0
 28 29  1  0  0  0
 28 30  2  0  0  0
 22 24  1  0  0  0
 22 25  2  0  0  0
 14 15  1  0  0  0
 14 18  2  0  0  0
 11 16  1  0  0  0
 15 17  2  0  0  0
 29 34  1  0  0  0
 16 17  1  0  0  0
 16 19  2  0  0  0
 17 20  1  0  0  0
 32 33  2  0  0  0
 32 35  1  0  0  0
 32 37  1  0  0  0
 33 34  1  0  0  0
 23 26  2  0  0  0
 34 38  2  0  0  0
 24 27  2  0  0  0
 35 36  2  0  0  0
 35 39  1  0  0  0
 18 19  1  0  0  0
 26 27  1  0  0  0
 36 38  1  0  0  0
 39 40  1  0  0  0
 11 13  1  0  0  0
 29 31  1  0  0  0
M  END
> <minimizedAffinity>
-10.19605

$$$$
2XC0_8NC_A_1246


 40 43  0  0  0  0  0  0  0  0999 V2000
    9.1193   66.2440    2.1327 C   0  0  0  0  0  0  0  0  0  0  0  0
    9.6916   66.6450    3.5260 C   0  0  0  0  0  0  0  0  0  0  0  0
    9.4596   68.5787    2.1470 N   0  0  0  0  0  0  0  0  0  0  0  0
    8.5274   67.5727    1.6195 C   0  0  0  0  0  0  0  0  0  0  0  0
   10.0621   68.1206    3.3961 C   0  0  0  0  0  0  0  0  0  0  0  0
    9.0090   70.1578    2.0904 S   0  0  0  0  0  0  0  0  0  0  0  0
    8.1839   70.1808    0.9312 O   0  0  0  0  0  0  0  0  0  0  0  0
   10.2572   70.8427    2.1313 O   0  0  0  0  0  0  0  0  0  0  0  0
    8.0806   70.3823    3.6296 C   0  0  0  0  0  0  0  0  0  0  0  0
    8.0748   65.1535    2.2501 C   0  0  0  0  0  0  0  0  0  0  0  0
    7.7693   64.4586    1.1497 N   0  0  0  0  0  0  0  0  0  0  0  0
    7.5396   64.8915    3.3126 O   0  0  0  0  0  0  0  0  0  0  0  0
    8.2557   64.7053    0.3301 H   0  0  0  0  0  0  0  0  0  0  0  0
    5.2088   61.1479    0.8433 C   0  0  0  0  0  0  0  0  0  0  0  0
    6.5787   61.0101    0.8862 C   0  0  0  0  0  0  0  0  0  0  0  0
    6.8280   63.4099    1.0267 C   0  0  0  0  0  0  0  0  0  0  0  0
    7.3669   62.1423    0.9773 C   0  0  0  0  0  0  0  0  0  0  0  0
    4.6453   62.4225    0.8771 C   0  0  0  0  0  0  0  0  0  0  0  0
    5.4503   63.5663    0.9975 C   0  0  0  0  0  0  0  0  0  0  0  0
    8.7117   62.0341    1.0352 F   0  0  0  0  0  0  0  0  0  0  0  0
    4.4312   59.9881    0.7229 N   0  0  0  0  0  0  0  0  0  0  0  0
    3.6659   59.8281   -0.3716 C   0  0  0  0  0  0  0  0  0  0  0  0
    4.4685   59.0258    1.6922 C   0  0  0  0  0  0  0  0  0  0  0  0
    2.8654   58.6774   -0.5089 C   0  0  0  0  0  0  0  0  0  0  0  0
    3.6387   60.7043   -1.2272 O   0  0  0  0  0  0  0  0  0  0  0  0
    3.6944   57.9289    1.5988 C   0  0  0  0  0  0  0  0  0  0  0  0
    2.8668   57.7461    0.4801 C   0  0  0  0  0  0  0  0  0  0  0  0
   10.8999   65.7985    3.8036 C   0  0  0  0  0  0  0  0  0  0  0  0
   11.9726   66.3425    4.3722 N   0  0  0  0  0  0  0  0  0  0  0  0
   10.9049   64.6268    3.5109 O   0  0  0  0  0  0  0  0  0  0  0  0
   11.9796   67.3110    4.5489 H   0  0  0  0  0  0  0  0  0  0  0  0
   14.9192   64.1220    4.2099 C   0  0  0  0  0  0  0  0  0  0  0  0
   13.8585   64.9058    3.7680 C   0  0  0  0  0  0  0  0  0  0  0  0
   13.0863   65.5837    4.7252 C   0  0  0  0  0  0  0  0  0  0  0  0
   15.1604   63.9924    5.5734 C   0  0  0  0  0  0  0  0  0  0  0  0
   14.3747   64.6482    6.5083 C   0  0  0  0  0  0  0  0  0  0  0  0
   15.7189   63.4539    3.3279 F   0  0  0  0  0  0  0  0  0  0  0  0
   13.3241   65.4350    6.0765 C   0  0  0  0  0  0  0  0  0  0  0  0
   16.1891   63.2131    6.0230 O   0  0  0  0  0  0  0  0  0  0  0  0
   16.3938   63.1685    7.4276 C   0  0  0  0  0  0  0  0  0  0  0  0
  6  3  1  0  0  0
  6  7  2  0  0  0
  6  8  2  0  0  0
  6  9  1  0  0  0
  1  2  1  0  0  0
  1 10  1  0  0  0
  1  4  1  0  0  0
  2 28  1  0  0  0
  2  5  1  0  0  0
  3  4  1  0  0  0
  3  5  1  0  0  0
 10 11  1  0  0  0
 10 12  2  0  0  0
 21 22  1  0  0  0
 21 14  1  0  0  0
 21 23  1  0  0  0
 28 29  1  0  0  0
 28 30  2  0  0  0
 22 24  1  0  0  0
 22 25  2  0  0  0
 14 15  1  0  0  0
 14 18  2  0  0  0
 11 16  1  0  0  0
 15 17  2  0  0  0
 29 34  1  0  0  0
 16 17  1  0  0  0
 16 19  2  0  0  0
 17 20  1  0  0  0
 32 33  2  0  0  0
 32 35  1  0  0  0
 32 37  1  0  0  0
 33 34  1  0  0  0
 23 26  2  0  0  0
 34 38  2  0  0  0
 24 27  2  0  0  0
 35 36  2  0  0  0
 35 39  1  0  0  0
 18 19  1  0  0  0
 26 27  1  0  0  0
 36 38  1  0  0  0
 39 40  1  0  0  0
 11 13  1  0  0  0
 29 31  1  0  0  0
M  END
> <minimizedAffinity>
-9.59509

$$$$
2XC0_8NC_A_1246


 40 43  0  0  0  0  0  0  0  0999 V2000
    8.9746   64.0915    1.1675 C   0  0  0  0  0  0  0  0  0  0  0  0
   10.1272   65.1348    1.2803 C   0  0  0  0  0  0  0  0  0  0  0  0
   10.0225   64.2648   -0.9393 N   0  0  0  0  0  0  0  0  0  0  0  0
    8.6913   64.0690   -0.3485 C   0  0  0  0  0  0  0  0  0  0  0  0
   10.8718   65.0528   -0.0502 C   0  0  0  0  0  0  0  0  0  0  0  0
   10.1148   64.6200   -2.5409 S   0  0  0  0  0  0  0  0  0  0  0  0
   10.1780   63.3222   -3.1209 O   0  0  0  0  0  0  0  0  0  0  0  0
   11.2185   65.5184   -2.6006 O   0  0  0  0  0  0  0  0  0  0  0  0
    8.5503   65.4716   -2.8704 C   0  0  0  0  0  0  0  0  0  0  0  0
    7.7629   64.5074    1.9754 C   0  0  0  0  0  0  0  0  0  0  0  0
    7.3883   65.7897    1.9263 N   0  0  0  0  0  0  0  0  0  0  0  0
    7.1266   63.7045    2.6345 O   0  0  0  0  0  0  0  0  0  0  0  0
    7.9316   66.3804    1.3561 H   0  0  0  0  0  0  0  0  0  0  0  0
    4.3694   67.7024    4.1260 C   0  0  0  0  0  0  0  0  0  0  0  0
    5.6547   67.5775    4.6054 C   0  0  0  0  0  0  0  0  0  0  0  0
    6.3015   66.3961    2.5988 C   0  0  0  0  0  0  0  0  0  0  0  0
    6.6005   66.9268    3.8351 C   0  0  0  0  0  0  0  0  0  0  0  0
    4.0437   67.1591    2.8843 C   0  0  0  0  0  0  0  0  0  0  0  0
    5.0155   66.5240    2.0951 C   0  0  0  0  0  0  0  0  0  0  0  0
    7.8710   66.8033    4.2756 F   0  0  0  0  0  0  0  0  0  0  0  0
    3.4207   68.3413    4.9363 N   0  0  0  0  0  0  0  0  0  0  0  0
    3.2319   69.6657    4.7969 C   0  0  0  0  0  0  0  0  0  0  0  0
    2.6845   67.6247    5.8369 C   0  0  0  0  0  0  0  0  0  0  0  0
    2.2940   70.3324    5.6091 C   0  0  0  0  0  0  0  0  0  0  0  0
    3.9060   70.2939    3.9898 O   0  0  0  0  0  0  0  0  0  0  0  0
    1.8003   68.2403    6.6433 C   0  0  0  0  0  0  0  0  0  0  0  0
    1.5994   69.6254    6.5382 C   0  0  0  0  0  0  0  0  0  0  0  0
   11.0109   64.7426    2.4286 C   0  0  0  0  0  0  0  0  0  0  0  0
   12.1387   65.4114    2.6543 N   0  0  0  0  0  0  0  0  0  0  0  0
   10.7056   63.8212    3.1472 O   0  0  0  0  0  0  0  0  0  0  0  0
   12.4076   66.1193    2.0252 H   0  0  0  0  0  0  0  0  0  0  0  0
   13.5605   65.3798    6.0627 C   0  0  0  0  0  0  0  0  0  0  0  0
   12.6666   65.6485    5.0314 C   0  0  0  0  0  0  0  0  0  0  0  0
   12.9507   65.1406    3.7534 C   0  0  0  0  0  0  0  0  0  0  0  0
   14.7225   64.6624    5.7992 C   0  0  0  0  0  0  0  0  0  0  0  0
   15.0019   64.1877    4.5273 C   0  0  0  0  0  0  0  0  0  0  0  0
   13.3308   65.8289    7.3312 F   0  0  0  0  0  0  0  0  0  0  0  0
   14.1147   64.4440    3.4995 C   0  0  0  0  0  0  0  0  0  0  0  0
   15.6177   64.4043    6.7990 O   0  0  0  0  0  0  0  0  0  0  0  0
   16.0387   63.0566    6.9512 C   0  0  0  0  0  0  0  0  0  0  0  0
  6  3  1  0  0  0
  6  7  2  0  0  0
  6  8  2  0  0  0
  6  9  1  0  0  0
  1  2  1  0  0  0
  1 10  1  0  0  0
  1  4  1  0  0  0
  2 28  1  0  0  0
  2  5  1  0  0  0
  3  4  1  0  0  0
  3  5  1  0  0  0
 10 11  1  0  0  0
 10 12  2  0  0  0
 21 22  1  0  0  0
 21 14  1  0  0  0
 21 23  1  0  0  0
 28 29  1  0  0  0
 28 30  2  0  0  0
 22 24  1  0  0  0
 22 25  2  0  0  0
 14 15  1  0  0  0
 14 18  2  0  0  0
 11 16  1  0  0  0
 15 17  2  0  0  0
 29 34  1  0  0  0
 16 17  1  0  0  0
 16 19  2  0  0  0
 17 20  1  0  0  0
 32 33  2  0  0  0
 32 35  1  0  0  0
 32 37  1  0  0  0
 33 34  1  0  0  0
 23 26  2  0  0  0
 34 38  2  0  0  0
 24 27  2  0  0  0
 35 36  2  0  0  0
 35 39  1  0  0  0
 18 19  1  0  0  0
 26 27  1  0  0  0
 36 38  1  0  0  0
 39 40  1  0  0  0
 11 13  1  0  0  0
 29 31  1  0  0  0
M  END
> <minimizedAffinity>
-9.24430

$$$$
