5OUH_L0B_A_306


 26 28  0  0  0  0  0  0  0  0999 V2000
   40.2801  -15.3181   -0.7667 C   0  0  0  0  0  0  0  0  0  0  0  0
   41.2165  -16.5245   -0.8221 C   0  0  0  0  0  0  0  0  0  0  0  0
   40.6349  -17.6779   -0.2844 C   0  0  0  0  0  0  0  0  0  0  0  0
   39.4008  -17.9427   -0.9247 C   0  0  0  0  0  0  0  0  0  0  0  0
   38.4435  -16.8103   -0.6081 C   0  0  0  0  0  0  0  0  0  0  0  0
   38.9496  -15.6057   -1.0934 N   0  0  0  0  0  0  0  0  0  0  0  0
   38.8507  -15.6386   -2.2974 C   0  0  0  0  0  0  0  0  0  0  0  0
   40.7198  -14.3677   -1.8703 C   0  0  0  0  0  0  0  0  0  0  0  0
   41.8344  -13.4487   -1.4447 C   0  0  0  0  0  0  0  0  0  0  0  0
   42.3320  -13.8970   -0.2423 O   0  0  0  0  0  0  0  0  0  0  0  0
   41.6210  -13.9096    0.4174 H   0  0  0  0  0  0  0  0  0  0  0  0
   40.2797   -9.4547   -1.0635 C   0  0  0  0  0  0  0  0  0  0  0  0
   40.0150  -10.4108   -0.0850 C   0  0  0  0  0  0  0  0  0  0  0  0
   40.5087  -11.6992   -0.1972 C   0  0  0  0  0  0  0  0  0  0  0  0
   41.2695  -12.0351   -1.2952 C   0  0  0  0  0  0  0  0  0  0  0  0
   41.5271  -11.0832   -2.2542 C   0  0  0  0  0  0  0  0  0  0  0  0
   41.0312   -9.7761   -2.1394 C   0  0  0  0  0  0  0  0  0  0  0  0
   37.1277  -17.0663   -1.3371 C   0  0  0  0  0  0  0  0  0  0  0  0
   36.6103  -18.8589    0.1237 O   0  0  0  0  0  0  0  0  0  0  0  0
   36.1860  -17.8723   -0.4492 C   0  0  0  0  0  0  0  0  0  0  0  0
   33.7164  -18.2125   -0.8236 C   0  0  0  0  0  0  0  0  0  0  0  0
   34.7282  -17.4476   -0.2863 C   0  0  0  0  0  0  0  0  0  0  0  0
   34.4132  -16.2792    0.3908 C   0  0  0  0  0  0  0  0  0  0  0  0
   33.1245  -15.8868    0.5272 C   0  0  0  0  0  0  0  0  0  0  0  0
   32.0929  -16.6642   -0.0209 C   0  0  0  0  0  0  0  0  0  0  0  0
   32.4080  -17.8136   -0.6867 C   0  0  0  0  0  0  0  0  0  0  0  0
 19 20  2  0  0  0
 20 22  1  0  0  0
 20 18  1  0  0  0
 22 23  2  0  0  0
 22 21  1  0  0  0
 23 24  1  0  0  0
 24 25  2  0  0  0
 25 26  1  0  0  0
 26 21  2  0  0  0
 18  5  1  0  0  0
  5  4  1  0  0  0
  5  6  1  0  0  0
  4  3  1  0  0  0
  3  2  1  0  0  0
  2  1  1  0  0  0
  1  6  1  0  0  0
  1  8  1  0  0  0
  6  7  1  0  0  0
  8  9  1  0  0  0
  9 10  1  0  0  0
  9 15  1  0  0  0
 15 16  2  0  0  0
 15 14  1  0  0  0
 16 17  1  0  0  0
 17 12  2  0  0  0
 12 13  1  0  0  0
 13 14  2  0  0  0
 10 11  1  0  0  0
M  END
> <minimizedAffinity>
-10.09178

$$$$
5OUH_L0B_A_306


 26 28  0  0  0  0  0  0  0  0999 V2000
   38.5538  -17.6939   -0.7714 C   0  0  0  0  0  0  0  0  0  0  0  0
   39.6217  -17.9042    0.3014 C   0  0  0  0  0  0  0  0  0  0  0  0
   40.8528  -17.3411   -0.0523 C   0  0  0  0  0  0  0  0  0  0  0  0
   40.6876  -15.9709   -0.3657 C   0  0  0  0  0  0  0  0  0  0  0  0
   39.8135  -15.8632   -1.5998 C   0  0  0  0  0  0  0  0  0  0  0  0
   38.5601  -16.4186   -1.3487 N   0  0  0  0  0  0  0  0  0  0  0  0
   37.9782  -15.6614   -0.6081 C   0  0  0  0  0  0  0  0  0  0  0  0
   37.2054  -17.7600   -0.0699 C   0  0  0  0  0  0  0  0  0  0  0  0
   36.1607  -18.4894   -0.8727 C   0  0  0  0  0  0  0  0  0  0  0  0
   36.4774  -18.3716   -2.2070 O   0  0  0  0  0  0  0  0  0  0  0  0
   36.5097  -17.4331   -2.4500 H   0  0  0  0  0  0  0  0  0  0  0  0
   32.3506  -16.6733   -0.0360 C   0  0  0  0  0  0  0  0  0  0  0  0
   32.4245  -17.8390   -0.7960 C   0  0  0  0  0  0  0  0  0  0  0  0
   33.6445  -18.4318   -1.0727 C   0  0  0  0  0  0  0  0  0  0  0  0
   34.7980  -17.8549   -0.5892 C   0  0  0  0  0  0  0  0  0  0  0  0
   34.7140  -16.7056    0.1620 C   0  0  0  0  0  0  0  0  0  0  0  0
   33.4781  -16.1065    0.4469 C   0  0  0  0  0  0  0  0  0  0  0  0
   39.5914  -14.3862   -1.9122 C   0  0  0  0  0  0  0  0  0  0  0  0
   41.9533  -14.2224   -2.0102 O   0  0  0  0  0  0  0  0  0  0  0  0
   40.9100  -13.6268   -1.8145 C   0  0  0  0  0  0  0  0  0  0  0  0
   40.5193  -11.7105   -0.2239 C   0  0  0  0  0  0  0  0  0  0  0  0
   40.9189  -12.1390   -1.4706 C   0  0  0  0  0  0  0  0  0  0  0  0
   41.3146  -11.2063   -2.4173 C   0  0  0  0  0  0  0  0  0  0  0  0
   41.3114   -9.8838   -2.1264 C   0  0  0  0  0  0  0  0  0  0  0  0
   40.9032   -9.4459   -0.8574 C   0  0  0  0  0  0  0  0  0  0  0  0
   40.5144  -10.3679    0.0712 C   0  0  0  0  0  0  0  0  0  0  0  0
 19 20  2  0  0  0
 20 22  1  0  0  0
 20 18  1  0  0  0
 22 23  2  0  0  0
 22 21  1  0  0  0
 23 24  1  0  0  0
 24 25  2  0  0  0
 25 26  1  0  0  0
 26 21  2  0  0  0
 18  5  1  0  0  0
  5  4  1  0  0  0
  5  6  1  0  0  0
  4  3  1  0  0  0
  3  2  1  0  0  0
  2  1  1  0  0  0
  1  6  1  0  0  0
  1  8  1  0  0  0
  6  7  1  0  0  0
  8  9  1  0  0  0
  9 10  1  0  0  0
  9 15  1  0  0  0
 15 16  2  0  0  0
 15 14  1  0  0  0
 16 17  1  0  0  0
 17 12  2  0  0  0
 12 13  1  0  0  0
 13 14  2  0  0  0
 10 11  1  0  0  0
M  END
> <minimizedAffinity>
-9.92537

$$$$
5OUH_L0B_A_306


 26 28  0  0  0  0  0  0  0  0999 V2000
   40.5191  -15.3427   -0.6719 C   0  0  0  0  0  0  0  0  0  0  0  0
   41.2458  -16.6444   -1.0078 C   0  0  0  0  0  0  0  0  0  0  0  0
   40.6426  -17.7609   -0.4184 C   0  0  0  0  0  0  0  0  0  0  0  0
   39.2741  -17.8177   -0.7748 C   0  0  0  0  0  0  0  0  0  0  0  0
   38.5741  -16.6093   -0.1846 C   0  0  0  0  0  0  0  0  0  0  0  0
   39.1228  -15.4376   -0.7029 N   0  0  0  0  0  0  0  0  0  0  0  0
   38.7599  -15.3541   -1.8526 C   0  0  0  0  0  0  0  0  0  0  0  0
   40.8337  -14.3609   -1.7907 C   0  0  0  0  0  0  0  0  0  0  0  0
   41.9361  -13.3985   -1.4350 C   0  0  0  0  0  0  0  0  0  0  0  0
   42.4844  -13.7901   -0.2348 O   0  0  0  0  0  0  0  0  0  0  0  0
   41.7957  -13.7973    0.4482 H   0  0  0  0  0  0  0  0  0  0  0  0
   40.2202   -9.4702   -1.0624 C   0  0  0  0  0  0  0  0  0  0  0  0
   41.0103   -9.7931   -2.1639 C   0  0  0  0  0  0  0  0  0  0  0  0
   41.5687  -11.0531   -2.2942 C   0  0  0  0  0  0  0  0  0  0  0  0
   41.3382  -11.9955   -1.3166 C   0  0  0  0  0  0  0  0  0  0  0  0
   40.5548  -11.6676   -0.2345 C   0  0  0  0  0  0  0  0  0  0  0  0
   39.9848  -10.3926   -0.1036 C   0  0  0  0  0  0  0  0  0  0  0  0
   37.1085  -16.6399   -0.6081 C   0  0  0  0  0  0  0  0  0  0  0  0
   36.6248  -18.8189    0.1874 O   0  0  0  0  0  0  0  0  0  0  0  0
   36.6440  -18.0818   -0.7810 C   0  0  0  0  0  0  0  0  0  0  0  0
   35.1416  -19.4505   -2.2725 C   0  0  0  0  0  0  0  0  0  0  0  0
   36.2134  -18.5935   -2.1540 C   0  0  0  0  0  0  0  0  0  0  0  0
   36.9091  -18.2109   -3.2909 C   0  0  0  0  0  0  0  0  0  0  0  0
   36.5440  -18.6713   -4.5108 C   0  0  0  0  0  0  0  0  0  0  0  0
   35.4533  -19.5457   -4.6328 C   0  0  0  0  0  0  0  0  0  0  0  0
   34.7716  -19.9194   -3.5107 C   0  0  0  0  0  0  0  0  0  0  0  0
 19 20  2  0  0  0
 20 22  1  0  0  0
 20 18  1  0  0  0
 22 23  2  0  0  0
 22 21  1  0  0  0
 23 24  1  0  0  0
 24 25  2  0  0  0
 25 26  1  0  0  0
 26 21  2  0  0  0
 18  5  1  0  0  0
  5  4  1  0  0  0
  5  6  1  0  0  0
  4  3  1  0  0  0
  3  2  1  0  0  0
  2  1  1  0  0  0
  1  6  1  0  0  0
  1  8  1  0  0  0
  6  7  1  0  0  0
  8  9  1  0  0  0
  9 10  1  0  0  0
  9 15  1  0  0  0
 15 16  2  0  0  0
 15 14  1  0  0  0
 16 17  1  0  0  0
 17 12  2  0  0  0
 12 13  1  0  0  0
 13 14  2  0  0  0
 10 11  1  0  0  0
M  END
> <minimizedAffinity>
-9.63371

$$$$
5OUH_L0B_A_306


 26 28  0  0  0  0  0  0  0  0999 V2000
   39.7786  -15.8349   -1.5436 C   0  0  0  0  0  0  0  0  0  0  0  0
   39.0326  -15.4357   -2.8162 C   0  0  0  0  0  0  0  0  0  0  0  0
   38.2628  -16.4825   -3.3353 C   0  0  0  0  0  0  0  0  0  0  0  0
   37.3811  -16.9745   -2.3435 C   0  0  0  0  0  0  0  0  0  0  0  0
   38.2067  -17.5823   -1.2266 C   0  0  0  0  0  0  0  0  0  0  0  0
   39.0265  -16.6112   -0.6541 N   0  0  0  0  0  0  0  0  0  0  0  0
   38.3119  -15.8753   -0.0152 C   0  0  0  0  0  0  0  0  0  0  0  0
   40.0390  -14.5540   -0.7652 C   0  0  0  0  0  0  0  0  0  0  0  0
   41.2329  -13.7898   -1.2737 C   0  0  0  0  0  0  0  0  0  0  0  0
   42.3074  -14.0712   -0.4609 O   0  0  0  0  0  0  0  0  0  0  0  0
   42.0970  -13.8196    0.4519 H   0  0  0  0  0  0  0  0  0  0  0  0
   40.3632   -9.5766   -1.1890 C   0  0  0  0  0  0  0  0  0  0  0  0
   39.7771  -10.4364   -0.2622 C   0  0  0  0  0  0  0  0  0  0  0  0
   40.0483  -11.7938   -0.2802 C   0  0  0  0  0  0  0  0  0  0  0  0
   40.9085  -12.2955   -1.2318 C   0  0  0  0  0  0  0  0  0  0  0  0
   41.4837  -11.4380   -2.1406 C   0  0  0  0  0  0  0  0  0  0  0  0
   41.2133  -10.0617   -2.1205 C   0  0  0  0  0  0  0  0  0  0  0  0
   37.2620  -18.0692   -0.1317 C   0  0  0  0  0  0  0  0  0  0  0  0
   35.9159  -19.4617   -1.4969 O   0  0  0  0  0  0  0  0  0  0  0  0
   35.9352  -18.5070   -0.7422 C   0  0  0  0  0  0  0  0  0  0  0  0
   33.4307  -18.2355   -0.8368 C   0  0  0  0  0  0  0  0  0  0  0  0
   34.6490  -17.7523   -0.4129 C   0  0  0  0  0  0  0  0  0  0  0  0
   34.7000  -16.5655    0.3024 C   0  0  0  0  0  0  0  0  0  0  0  0
   33.5662  -15.8816    0.5861 C   0  0  0  0  0  0  0  0  0  0  0  0
   32.3247  -16.3719    0.1536 C   0  0  0  0  0  0  0  0  0  0  0  0
   32.2797  -17.5407   -0.5504 C   0  0  0  0  0  0  0  0  0  0  0  0
 19 20  2  0  0  0
 20 22  1  0  0  0
 20 18  1  0  0  0
 22 23  2  0  0  0
 22 21  1  0  0  0
 23 24  1  0  0  0
 24 25  2  0  0  0
 25 26  1  0  0  0
 26 21  2  0  0  0
 18  5  1  0  0  0
  5  4  1  0  0  0
  5  6  1  0  0  0
  4  3  1  0  0  0
  3  2  1  0  0  0
  2  1  1  0  0  0
  1  6  1  0  0  0
  1  8  1  0  0  0
  6  7  1  0  0  0
  8  9  1  0  0  0
  9 10  1  0  0  0
  9 15  1  0  0  0
 15 16  2  0  0  0
 15 14  1  0  0  0
 16 17  1  0  0  0
 17 12  2  0  0  0
 12 13  1  0  0  0
 13 14  2  0  0  0
 10 11  1  0  0  0
M  END
> <minimizedAffinity>
-9.55962

$$$$
5OUH_L0B_A_306


 26 28  0  0  0  0  0  0  0  0999 V2000
   36.3916  -17.1335   -0.9108 C   0  0  0  0  0  0  0  0  0  0  0  0
   36.9585  -18.1245   -1.9266 C   0  0  0  0  0  0  0  0  0  0  0  0
   37.9816  -17.5685   -2.7023 C   0  0  0  0  0  0  0  0  0  0  0  0
   38.9930  -17.0402   -1.8650 C   0  0  0  0  0  0  0  0  0  0  0  0
   38.4054  -15.8908   -1.0697 C   0  0  0  0  0  0  0  0  0  0  0  0
   37.3575  -16.3470   -0.2719 N   0  0  0  0  0  0  0  0  0  0  0  0
   37.8482  -16.9961    0.6216 C   0  0  0  0  0  0  0  0  0  0  0  0
   35.7963  -17.9558    0.2224 C   0  0  0  0  0  0  0  0  0  0  0  0
   34.2918  -18.0086    0.1824 C   0  0  0  0  0  0  0  0  0  0  0  0
   33.8875  -17.8922   -1.1281 O   0  0  0  0  0  0  0  0  0  0  0  0
   34.2156  -17.0562   -1.4947 H   0  0  0  0  0  0  0  0  0  0  0  0
   32.7470  -14.7809    2.5722 C   0  0  0  0  0  0  0  0  0  0  0  0
   32.6601  -14.7335    1.1822 C   0  0  0  0  0  0  0  0  0  0  0  0
   33.1545  -15.7652    0.4028 C   0  0  0  0  0  0  0  0  0  0  0  0
   33.7416  -16.8499    1.0159 C   0  0  0  0  0  0  0  0  0  0  0  0
   33.8202  -16.8882    2.3887 C   0  0  0  0  0  0  0  0  0  0  0  0
   33.3156  -15.8455    3.1797 C   0  0  0  0  0  0  0  0  0  0  0  0
   39.4784  -15.3503   -0.1290 C   0  0  0  0  0  0  0  0  0  0  0  0
   41.4505  -15.3515   -1.4426 O   0  0  0  0  0  0  0  0  0  0  0  0
   40.5821  -14.6693   -0.9308 C   0  0  0  0  0  0  0  0  0  0  0  0
   41.3421  -12.5590   -2.0813 C   0  0  0  0  0  0  0  0  0  0  0  0
   40.5980  -13.1500   -1.0841 C   0  0  0  0  0  0  0  0  0  0  0  0
   39.8751  -12.3528   -0.2096 C   0  0  0  0  0  0  0  0  0  0  0  0
   39.8951  -11.0041   -0.3285 C   0  0  0  0  0  0  0  0  0  0  0  0
   40.6539  -10.4006   -1.3429 C   0  0  0  0  0  0  0  0  0  0  0  0
   41.3639  -11.1897   -2.2013 C   0  0  0  0  0  0  0  0  0  0  0  0
 19 20  2  0  0  0
 20 22  1  0  0  0
 20 18  1  0  0  0
 22 23  2  0  0  0
 22 21  1  0  0  0
 23 24  1  0  0  0
 24 25  2  0  0  0
 25 26  1  0  0  0
 26 21  2  0  0  0
 18  5  1  0  0  0
  5  4  1  0  0  0
  5  6  1  0  0  0
  4  3  1  0  0  0
  3  2  1  0  0  0
  2  1  1  0  0  0
  1  6  1  0  0  0
  1  8  1  0  0  0
  6  7  1  0  0  0
  8  9  1  0  0  0
  9 10  1  0  0  0
  9 15  1  0  0  0
 15 16  2  0  0  0
 15 14  1  0  0  0
 16 17  1  0  0  0
 17 12  2  0  0  0
 12 13  1  0  0  0
 13 14  2  0  0  0
 10 11  1  0  0  0
M  END
> <minimizedAffinity>
-9.35479

$$$$
5OUH_L0B_A_306


 26 28  0  0  0  0  0  0  0  0999 V2000
   40.2973  -15.3157   -0.7651 C   0  0  0  0  0  0  0  0  0  0  0  0
   41.1742  -16.5657   -0.8275 C   0  0  0  0  0  0  0  0  0  0  0  0
   40.5459  -17.6876   -0.2757 C   0  0  0  0  0  0  0  0  0  0  0  0
   39.2915  -17.8959   -0.8971 C   0  0  0  0  0  0  0  0  0  0  0  0
   38.3941  -16.7176   -0.5729 C   0  0  0  0  0  0  0  0  0  0  0  0
   38.9501  -15.5408   -1.0716 N   0  0  0  0  0  0  0  0  0  0  0  0
   38.8325  -15.5744   -2.2739 C   0  0  0  0  0  0  0  0  0  0  0  0
   40.7661  -14.3925   -1.8798 C   0  0  0  0  0  0  0  0  0  0  0  0
   41.8860  -13.4798   -1.4547 C   0  0  0  0  0  0  0  0  0  0  0  0
   42.3610  -13.9125   -0.2375 O   0  0  0  0  0  0  0  0  0  0  0  0
   41.6407  -13.9043    0.4121 H   0  0  0  0  0  0  0  0  0  0  0  0
   40.3081   -9.4936   -1.0874 C   0  0  0  0  0  0  0  0  0  0  0  0
   41.0607   -9.8540   -2.2034 C   0  0  0  0  0  0  0  0  0  0  0  0
   41.5746  -11.1330   -2.3322 C   0  0  0  0  0  0  0  0  0  0  0  0
   41.3370  -12.0568   -1.3385 C   0  0  0  0  0  0  0  0  0  0  0  0
   40.5908  -11.6917   -0.2422 C   0  0  0  0  0  0  0  0  0  0  0  0
   40.0658  -10.3974   -0.1127 C   0  0  0  0  0  0  0  0  0  0  0  0
   37.0572  -16.9137   -1.2820 C   0  0  0  0  0  0  0  0  0  0  0  0
   35.7156  -17.0695    0.6650 O   0  0  0  0  0  0  0  0  0  0  0  0
   36.0741  -17.6236   -0.3577 C   0  0  0  0  0  0  0  0  0  0  0  0
   35.3277  -19.3608   -2.0251 C   0  0  0  0  0  0  0  0  0  0  0  0
   35.5511  -19.0143   -0.7108 C   0  0  0  0  0  0  0  0  0  0  0  0
   35.2820  -19.9339    0.2916 C   0  0  0  0  0  0  0  0  0  0  0  0
   34.8039  -21.1641   -0.0108 C   0  0  0  0  0  0  0  0  0  0  0  0
   34.5744  -21.5178   -1.3491 C   0  0  0  0  0  0  0  0  0  0  0  0
   34.8407  -20.6090   -2.3324 C   0  0  0  0  0  0  0  0  0  0  0  0
 19 20  2  0  0  0
 20 22  1  0  0  0
 20 18  1  0  0  0
 22 23  2  0  0  0
 22 21  1  0  0  0
 23 24  1  0  0  0
 24 25  2  0  0  0
 25 26  1  0  0  0
 26 21  2  0  0  0
 18  5  1  0  0  0
  5  4  1  0  0  0
  5  6  1  0  0  0
  4  3  1  0  0  0
  3  2  1  0  0  0
  2  1  1  0  0  0
  1  6  1  0  0  0
  1  8  1  0  0  0
  6  7  1  0  0  0
  8  9  1  0  0  0
  9 10  1  0  0  0
  9 15  1  0  0  0
 15 16  2  0  0  0
 15 14  1  0  0  0
 16 17  1  0  0  0
 17 12  2  0  0  0
 12 13  1  0  0  0
 13 14  2  0  0  0
 10 11  1  0  0  0
M  END
> <minimizedAffinity>
-9.22629

$$$$
5OUH_L0B_A_306


 26 28  0  0  0  0  0  0  0  0999 V2000
   35.8492  -18.4209   -0.1128 C   0  0  0  0  0  0  0  0  0  0  0  0
   35.6035  -18.8393   -1.5619 C   0  0  0  0  0  0  0  0  0  0  0  0
   34.3312  -19.3901   -1.7509 C   0  0  0  0  0  0  0  0  0  0  0  0
   33.3400  -18.4913   -1.2897 C   0  0  0  0  0  0  0  0  0  0  0  0
   33.5014  -18.3269    0.2088 C   0  0  0  0  0  0  0  0  0  0  0  0
   34.7567  -17.7958    0.4998 N   0  0  0  0  0  0  0  0  0  0  0  0
   34.7394  -16.6366    0.1584 C   0  0  0  0  0  0  0  0  0  0  0  0
   36.9112  -17.3319   -0.1426 C   0  0  0  0  0  0  0  0  0  0  0  0
   38.3033  -17.8739   -0.3331 C   0  0  0  0  0  0  0  0  0  0  0  0
   38.6713  -18.5394    0.8141 O   0  0  0  0  0  0  0  0  0  0  0  0
   38.6362  -17.9292    1.5673 H   0  0  0  0  0  0  0  0  0  0  0  0
   41.0098  -14.6111   -1.0707 C   0  0  0  0  0  0  0  0  0  0  0  0
   39.6643  -14.3649   -0.8046 C   0  0  0  0  0  0  0  0  0  0  0  0
   38.7838  -15.4064   -0.5669 C   0  0  0  0  0  0  0  0  0  0  0  0
   39.2501  -16.7020   -0.5978 C   0  0  0  0  0  0  0  0  0  0  0  0
   40.5805  -16.9342   -0.8590 C   0  0  0  0  0  0  0  0  0  0  0  0
   41.4746  -15.8796   -1.0955 C   0  0  0  0  0  0  0  0  0  0  0  0
   32.4666  -17.3202    0.7029 C   0  0  0  0  0  0  0  0  0  0  0  0
   31.8719  -18.8502    2.4118 O   0  0  0  0  0  0  0  0  0  0  0  0
   32.0212  -17.6789    2.1163 C   0  0  0  0  0  0  0  0  0  0  0  0
   32.8141  -15.9631    3.7842 C   0  0  0  0  0  0  0  0  0  0  0  0
   31.7617  -16.5803    3.1448 C   0  0  0  0  0  0  0  0  0  0  0  0
   30.4626  -16.2067    3.4542 C   0  0  0  0  0  0  0  0  0  0  0  0
   30.2224  -15.2441    4.3757 C   0  0  0  0  0  0  0  0  0  0  0  0
   31.2935  -14.6157    5.0290 C   0  0  0  0  0  0  0  0  0  0  0  0
   32.5706  -14.9869    4.7210 C   0  0  0  0  0  0  0  0  0  0  0  0
 19 20  2  0  0  0
 20 22  1  0  0  0
 20 18  1  0  0  0
 22 23  2  0  0  0
 22 21  1  0  0  0
 23 24  1  0  0  0
 24 25  2  0  0  0
 25 26  1  0  0  0
 26 21  2  0  0  0
 18  5  1  0  0  0
  5  4  1  0  0  0
  5  6  1  0  0  0
  4  3  1  0  0  0
  3  2  1  0  0  0
  2  1  1  0  0  0
  1  6  1  0  0  0
  1  8  1  0  0  0
  6  7  1  0  0  0
  8  9  1  0  0  0
  9 10  1  0  0  0
  9 15  1  0  0  0
 15 16  2  0  0  0
 15 14  1  0  0  0
 16 17  1  0  0  0
 17 12  2  0  0  0
 12 13  1  0  0  0
 13 14  2  0  0  0
 10 11  1  0  0  0
M  END
> <minimizedAffinity>
-8.93574

$$$$
5OUH_L0B_A_306


 26 28  0  0  0  0  0  0  0  0999 V2000
   32.6569  -18.2868   -0.0227 C   0  0  0  0  0  0  0  0  0  0  0  0
   33.0573  -19.4272    0.9125 C   0  0  0  0  0  0  0  0  0  0  0  0
   34.2155  -20.0865    0.4861 C   0  0  0  0  0  0  0  0  0  0  0  0
   35.2679  -19.1561    0.3138 C   0  0  0  0  0  0  0  0  0  0  0  0
   34.8926  -18.2102   -0.8101 C   0  0  0  0  0  0  0  0  0  0  0  0
   33.7301  -17.5146   -0.4825 N   0  0  0  0  0  0  0  0  0  0  0  0
   34.0236  -16.7183    0.3778 C   0  0  0  0  0  0  0  0  0  0  0  0
   31.8407  -17.3047    0.8043 C   0  0  0  0  0  0  0  0  0  0  0  0
   31.4335  -17.8605    2.1434 C   0  0  0  0  0  0  0  0  0  0  0  0
   30.1718  -18.3977    2.0256 O   0  0  0  0  0  0  0  0  0  0  0  0
   29.5537  -17.7101    1.7323 H   0  0  0  0  0  0  0  0  0  0  0  0
   31.4913  -14.6695    5.0295 C   0  0  0  0  0  0  0  0  0  0  0  0
   30.2868  -15.0958    4.4735 C   0  0  0  0  0  0  0  0  0  0  0  0
   30.2557  -16.1205    3.5432 C   0  0  0  0  0  0  0  0  0  0  0  0
   31.4357  -16.7214    3.1644 C   0  0  0  0  0  0  0  0  0  0  0  0
   32.6191  -16.2950    3.7211 C   0  0  0  0  0  0  0  0  0  0  0  0
   32.6514  -15.2598    4.6671 C   0  0  0  0  0  0  0  0  0  0  0  0
   36.0021  -17.1744   -0.9663 C   0  0  0  0  0  0  0  0  0  0  0  0
   37.0164  -18.2859   -2.7968 O   0  0  0  0  0  0  0  0  0  0  0  0
   37.1900  -17.7868   -1.7003 C   0  0  0  0  0  0  0  0  0  0  0  0
   39.6800  -17.4064   -1.8020 C   0  0  0  0  0  0  0  0  0  0  0  0
   38.5779  -17.7770   -1.0633 C   0  0  0  0  0  0  0  0  0  0  0  0
   38.7409  -18.1568    0.2603 C   0  0  0  0  0  0  0  0  0  0  0  0
   39.9697  -18.1657    0.8293 C   0  0  0  0  0  0  0  0  0  0  0  0
   41.0933  -17.7899    0.0775 C   0  0  0  0  0  0  0  0  0  0  0  0
   40.9277  -17.4168   -1.2252 C   0  0  0  0  0  0  0  0  0  0  0  0
 19 20  2  0  0  0
 20 22  1  0  0  0
 20 18  1  0  0  0
 22 23  2  0  0  0
 22 21  1  0  0  0
 23 24  1  0  0  0
 24 25  2  0  0  0
 25 26  1  0  0  0
 26 21  2  0  0  0
 18  5  1  0  0  0
  5  4  1  0  0  0
  5  6  1  0  0  0
  4  3  1  0  0  0
  3  2  1  0  0  0
  2  1  1  0  0  0
  1  6  1  0  0  0
  1  8  1  0  0  0
  6  7  1  0  0  0
  8  9  1  0  0  0
  9 10  1  0  0  0
  9 15  1  0  0  0
 15 16  2  0  0  0
 15 14  1  0  0  0
 16 17  1  0  0  0
 17 12  2  0  0  0
 12 13  1  0  0  0
 13 14  2  0  0  0
 10 11  1  0  0  0
M  END
> <minimizedAffinity>
-8.89448

$$$$
5OUH_L0B_A_306


 26 28  0  0  0  0  0  0  0  0999 V2000
   34.6604  -18.0890   -0.8442 C   0  0  0  0  0  0  0  0  0  0  0  0
   34.7323  -16.8508    0.0486 C   0  0  0  0  0  0  0  0  0  0  0  0
   33.5130  -16.5728    0.6762 C   0  0  0  0  0  0  0  0  0  0  0  0
   33.0651  -17.7092    1.3912 C   0  0  0  0  0  0  0  0  0  0  0  0
   32.7760  -18.8176    0.3980 C   0  0  0  0  0  0  0  0  0  0  0  0
   33.9375  -19.1545   -0.2950 N   0  0  0  0  0  0  0  0  0  0  0  0
   34.6545  -19.7433    0.4794 C   0  0  0  0  0  0  0  0  0  0  0  0
   36.0754  -18.6374   -0.9520 C   0  0  0  0  0  0  0  0  0  0  0  0
   36.9890  -17.7517   -1.7575 C   0  0  0  0  0  0  0  0  0  0  0  0
   37.0453  -18.2400   -3.0431 O   0  0  0  0  0  0  0  0  0  0  0  0
   37.3715  -19.1534   -3.0280 H   0  0  0  0  0  0  0  0  0  0  0  0
   40.8721  -17.8190    0.0950 C   0  0  0  0  0  0  0  0  0  0  0  0
   40.7259  -17.3843   -1.2209 C   0  0  0  0  0  0  0  0  0  0  0  0
   39.4821  -17.3593   -1.8279 C   0  0  0  0  0  0  0  0  0  0  0  0
   38.3778  -17.7735   -1.1166 C   0  0  0  0  0  0  0  0  0  0  0  0
   38.5324  -18.1985    0.1825 C   0  0  0  0  0  0  0  0  0  0  0  0
   39.7916  -18.2200    0.8002 C   0  0  0  0  0  0  0  0  0  0  0  0
   32.3406  -20.0608    1.1681 C   0  0  0  0  0  0  0  0  0  0  0  0
   30.4382  -20.6926   -0.0954 O   0  0  0  0  0  0  0  0  0  0  0  0
   30.8457  -20.2955    0.9805 C   0  0  0  0  0  0  0  0  0  0  0  0
   29.5848  -21.0225    3.0388 C   0  0  0  0  0  0  0  0  0  0  0  0
   29.8739  -20.0301    2.1283 C   0  0  0  0  0  0  0  0  0  0  0  0
   29.2628  -18.7917    2.2530 C   0  0  0  0  0  0  0  0  0  0  0  0
   28.3883  -18.5519    3.2586 C   0  0  0  0  0  0  0  0  0  0  0  0
   28.0917  -19.5624    4.1859 C   0  0  0  0  0  0  0  0  0  0  0  0
   28.6959  -20.7799    4.0590 C   0  0  0  0  0  0  0  0  0  0  0  0
 19 20  2  0  0  0
 20 22  1  0  0  0
 20 18  1  0  0  0
 22 23  2  0  0  0
 22 21  1  0  0  0
 23 24  1  0  0  0
 24 25  2  0  0  0
 25 26  1  0  0  0
 26 21  2  0  0  0
 18  5  1  0  0  0
  5  4  1  0  0  0
  5  6  1  0  0  0
  4  3  1  0  0  0
  3  2  1  0  0  0
  2  1  1  0  0  0
  1  6  1  0  0  0
  1  8  1  0  0  0
  6  7  1  0  0  0
  8  9  1  0  0  0
  9 10  1  0  0  0
  9 15  1  0  0  0
 15 16  2  0  0  0
 15 14  1  0  0  0
 16 17  1  0  0  0
 17 12  2  0  0  0
 12 13  1  0  0  0
 13 14  2  0  0  0
 10 11  1  0  0  0
M  END
> <minimizedAffinity>
-8.82478

$$$$
5OUH_L0B_A_306


 26 28  0  0  0  0  0  0  0  0999 V2000
   37.0560  -17.9052   -0.6215 C   0  0  0  0  0  0  0  0  0  0  0  0
   36.8230  -18.0950   -2.1199 C   0  0  0  0  0  0  0  0  0  0  0  0
   35.8080  -19.0194   -2.3902 C   0  0  0  0  0  0  0  0  0  0  0  0
   34.6198  -18.6456   -1.7183 C   0  0  0  0  0  0  0  0  0  0  0  0
   34.8672  -18.7277   -0.2247 C   0  0  0  0  0  0  0  0  0  0  0  0
   35.8837  -17.8470    0.1413 N   0  0  0  0  0  0  0  0  0  0  0  0
   35.4310  -16.7294    0.0609 C   0  0  0  0  0  0  0  0  0  0  0  0
   37.6661  -16.5231   -0.4419 C   0  0  0  0  0  0  0  0  0  0  0  0
   39.0871  -16.5681    0.0547 C   0  0  0  0  0  0  0  0  0  0  0  0
   39.0647  -16.6920    1.4253 O   0  0  0  0  0  0  0  0  0  0  0  0
   38.5859  -15.9413    1.8100 H   0  0  0  0  0  0  0  0  0  0  0  0
   41.1035  -12.9437   -1.0908 C   0  0  0  0  0  0  0  0  0  0  0  0
   39.7866  -12.9048   -0.6369 C   0  0  0  0  0  0  0  0  0  0  0  0
   39.1271  -14.0642   -0.2667 C   0  0  0  0  0  0  0  0  0  0  0  0
   39.7867  -15.2703   -0.3529 C   0  0  0  0  0  0  0  0  0  0  0  0
   41.0873  -15.2976   -0.7998 C   0  0  0  0  0  0  0  0  0  0  0  0
   41.7581  -14.1229   -1.1709 C   0  0  0  0  0  0  0  0  0  0  0  0
   33.6044  -18.2775    0.5040 C   0  0  0  0  0  0  0  0  0  0  0  0
   33.4831  -20.4974    1.3238 O   0  0  0  0  0  0  0  0  0  0  0  0
   32.8585  -19.4880    1.0545 C   0  0  0  0  0  0  0  0  0  0  0  0
   30.4959  -19.9600    0.3126 C   0  0  0  0  0  0  0  0  0  0  0  0
   31.3462  -19.4336    1.2599 C   0  0  0  0  0  0  0  0  0  0  0  0
   30.8172  -18.8389    2.3954 C   0  0  0  0  0  0  0  0  0  0  0  0
   29.4772  -18.7725    2.5789 C   0  0  0  0  0  0  0  0  0  0  0  0
   28.6099  -19.3070    1.6141 C   0  0  0  0  0  0  0  0  0  0  0  0
   29.1355  -19.8914    0.4979 C   0  0  0  0  0  0  0  0  0  0  0  0
 19 20  2  0  0  0
 20 22  1  0  0  0
 20 18  1  0  0  0
 22 23  2  0  0  0
 22 21  1  0  0  0
 23 24  1  0  0  0
 24 25  2  0  0  0
 25 26  1  0  0  0
 26 21  2  0  0  0
 18  5  1  0  0  0
  5  4  1  0  0  0
  5  6  1  0  0  0
  4  3  1  0  0  0
  3  2  1  0  0  0
  2  1  1  0  0  0
  1  6  1  0  0  0
  1  8  1  0  0  0
  6  7  1  0  0  0
  8  9  1  0  0  0
  9 10  1  0  0  0
  9 15  1  0  0  0
 15 16  2  0  0  0
 15 14  1  0  0  0
 16 17  1  0  0  0
 17 12  2  0  0  0
 12 13  1  0  0  0
 13 14  2  0  0  0
 10 11  1  0  0  0
M  END
> <minimizedAffinity>
-8.37995

$$$$
