3LXK_MI1_A_1125


 24 26  0  0  0  0  0  0  0  0999 V2000
    0.7571   15.6871    5.6708 C   0  0  0  0  0  0  0  0  0  0  0  0
    1.7759   16.8027    5.8123 C   0  0  0  0  0  0  0  0  0  0  0  0
    2.7251   15.7505    7.8005 C   0  0  0  0  0  0  0  0  0  0  0  0
    1.6543   14.6802    7.7747 C   0  0  0  0  0  0  0  0  0  0  0  0
    0.3971   15.1418    7.0595 C   0  0  0  0  0  0  0  0  0  0  0  0
    2.9570   16.2857    6.4871 N   0  0  0  0  0  0  0  0  0  0  0  0
    4.2801   16.6302    4.6768 O   0  0  0  0  0  0  0  0  0  0  0  0
    4.1551   16.2249    5.8188 C   0  0  0  0  0  0  0  0  0  0  0  0
   -0.3170   16.1598    7.9483 C   0  0  0  0  0  0  0  0  0  0  0  0
   -0.5218   16.1336    5.1069 N   0  0  0  0  0  0  0  0  0  0  0  0
   -0.7369   17.5147    4.7596 C   0  0  0  0  0  0  0  0  0  0  0  0
   -1.2739   15.2361    4.3177 C   0  0  0  0  0  0  0  0  0  0  0  0
   -1.1328   13.8457    4.2602 C   0  0  0  0  0  0  0  0  0  0  0  0
   -0.2800   12.8417    4.8191 C   0  0  0  0  0  0  0  0  0  0  0  0
   -0.6785   11.6187    4.3447 C   0  0  0  0  0  0  0  0  0  0  0  0
   -1.7501   11.8294    3.5350 N   0  0  0  0  0  0  0  0  0  0  0  0
   -2.0287   13.1578    3.4676 C   0  0  0  0  0  0  0  0  0  0  0  0
   -3.0228   13.6502    2.7314 N   0  0  0  0  0  0  0  0  0  0  0  0
   -3.0482   14.9752    2.8669 C   0  0  0  0  0  0  0  0  0  0  0  0
   -2.2687   15.7801    3.5953 N   0  0  0  0  0  0  0  0  0  0  0  0
   -2.2508   11.1232    3.0662 H   0  0  0  0  0  0  0  0  0  0  0  0
    5.3140   15.6498    6.5904 C   0  0  0  0  0  0  0  0  0  0  0  0
    6.4302   15.3330    5.7221 C   0  0  0  0  0  0  0  0  0  0  0  0
    7.3560   15.1209    5.0593 N   0  0  0  0  0  0  0  0  0  0  0  0
  2  1  1  0  0  0
  1  5  1  0  0  0
  1 10  1  0  0  0
  6  2  1  0  0  0
  6  3  1  0  0  0
  3  4  1  0  0  0
  4  5  1  0  0  0
  9  5  1  0  0  0
  8  6  1  0  0  0
  7  8  2  0  0  0
 22  8  1  0  0  0
 23 22  1  0  0  0
 24 23  3  0  0  0
 11 10  1  0  0  0
 10 12  1  0  0  0
 12 20  2  0  0  0
 12 13  1  0  0  0
 13 14  1  0  0  0
 13 17  2  0  0  0
 14 15  2  0  0  0
 15 16  1  0  0  0
 17 16  1  0  0  0
 17 18  1  0  0  0
 19 18  2  0  0  0
 20 19  1  0  0  0
 16 21  1  0  0  0
M  END
> <minimizedAffinity>
-9.05551

$$$$
3LXK_MI1_A_1125


 24 26  0  0  0  0  0  0  0  0999 V2000
    0.9706   16.5737    5.9063 C   0  0  0  0  0  0  0  0  0  0  0  0
    1.4172   17.3128    7.1539 C   0  0  0  0  0  0  0  0  0  0  0  0
    3.7425   17.2623    6.4112 C   0  0  0  0  0  0  0  0  0  0  0  0
    3.3661   16.4187    5.2114 C   0  0  0  0  0  0  0  0  0  0  0  0
    2.0886   15.6310    5.4405 C   0  0  0  0  0  0  0  0  0  0  0  0
    2.6316   18.0577    6.8567 N   0  0  0  0  0  0  0  0  0  0  0  0
    1.6255   20.0594    7.2140 O   0  0  0  0  0  0  0  0  0  0  0  0
    2.6192   19.4303    6.8961 C   0  0  0  0  0  0  0  0  0  0  0  0
    2.3877   14.5042    6.4290 C   0  0  0  0  0  0  0  0  0  0  0  0
   -0.1831   15.6953    6.1306 N   0  0  0  0  0  0  0  0  0  0  0  0
   -0.9991   15.8302    7.3097 C   0  0  0  0  0  0  0  0  0  0  0  0
   -0.8913   15.1954    5.0160 C   0  0  0  0  0  0  0  0  0  0  0  0
   -0.9997   13.8585    4.6194 C   0  0  0  0  0  0  0  0  0  0  0  0
   -0.4938   12.5851    5.0318 C   0  0  0  0  0  0  0  0  0  0  0  0
   -0.9943   11.6248    4.1909 C   0  0  0  0  0  0  0  0  0  0  0  0
   -1.7995   12.2535    3.2939 N   0  0  0  0  0  0  0  0  0  0  0  0
   -1.8062   13.5915    3.5320 C   0  0  0  0  0  0  0  0  0  0  0  0
   -2.5019   14.4526    2.7923 N   0  0  0  0  0  0  0  0  0  0  0  0
   -2.3123   15.6834    3.2656 C   0  0  0  0  0  0  0  0  0  0  0  0
   -1.5812   16.1025    4.3029 N   0  0  0  0  0  0  0  0  0  0  0  0
   -2.3038   11.8053    2.5769 H   0  0  0  0  0  0  0  0  0  0  0  0
    3.9156   20.1134    6.5468 C   0  0  0  0  0  0  0  0  0  0  0  0
    4.5540   20.6800    7.7179 C   0  0  0  0  0  0  0  0  0  0  0  0
    5.0084   21.1426    8.6776 N   0  0  0  0  0  0  0  0  0  0  0  0
  2  1  1  0  0  0
  1  5  1  0  0  0
  1 10  1  0  0  0
  6  2  1  0  0  0
  6  3  1  0  0  0
  3  4  1  0  0  0
  4  5  1  0  0  0
  9  5  1  0  0  0
  8  6  1  0  0  0
  7  8  2  0  0  0
 22  8  1  0  0  0
 23 22  1  0  0  0
 24 23  3  0  0  0
 11 10  1  0  0  0
 10 12  1  0  0  0
 12 20  2  0  0  0
 12 13  1  0  0  0
 13 14  1  0  0  0
 13 17  2  0  0  0
 14 15  2  0  0  0
 15 16  1  0  0  0
 17 16  1  0  0  0
 17 18  1  0  0  0
 19 18  2  0  0  0
 20 19  1  0  0  0
 16 21  1  0  0  0
M  END
> <minimizedAffinity>
-8.52776

$$$$
3LXK_MI1_A_1125


 24 26  0  0  0  0  0  0  0  0999 V2000
    1.9329   15.3074    5.5551 C   0  0  0  0  0  0  0  0  0  0  0  0
    2.8875   16.4774    5.4052 C   0  0  0  0  0  0  0  0  0  0  0  0
    3.4411   16.3938    7.7817 C   0  0  0  0  0  0  0  0  0  0  0  0
    2.4121   15.3061    8.0077 C   0  0  0  0  0  0  0  0  0  0  0  0
    1.3142   15.3266    6.9594 C   0  0  0  0  0  0  0  0  0  0  0  0
    3.9197   16.3832    6.4266 N   0  0  0  0  0  0  0  0  0  0  0  0
    5.5687   16.1032    4.8940 O   0  0  0  0  0  0  0  0  0  0  0  0
    5.2268   16.1745    6.0611 C   0  0  0  0  0  0  0  0  0  0  0  0
    0.4240   16.5422    7.2172 C   0  0  0  0  0  0  0  0  0  0  0  0
    0.7840   15.3719    4.6447 N   0  0  0  0  0  0  0  0  0  0  0  0
    0.7616   16.3010    3.5443 C   0  0  0  0  0  0  0  0  0  0  0  0
    0.0358   14.1996    4.4006 C   0  0  0  0  0  0  0  0  0  0  0  0
   -1.2235   14.1163    3.7977 C   0  0  0  0  0  0  0  0  0  0  0  0
   -2.2148   15.0108    3.2831 C   0  0  0  0  0  0  0  0  0  0  0  0
   -3.2676   14.2695    2.8122 C   0  0  0  0  0  0  0  0  0  0  0  0
   -2.9548   12.9597    2.9991 N   0  0  0  0  0  0  0  0  0  0  0  0
   -1.7384   12.8521    3.5956 C   0  0  0  0  0  0  0  0  0  0  0  0
   -1.1900   11.6803    3.9098 N   0  0  0  0  0  0  0  0  0  0  0  0
   -0.0040   11.8945    4.4776 C   0  0  0  0  0  0  0  0  0  0  0  0
    0.6333   13.0415    4.7310 N   0  0  0  0  0  0  0  0  0  0  0  0
   -3.5256   12.2005    2.7402 H   0  0  0  0  0  0  0  0  0  0  0  0
    6.2190   16.0635    7.1892 C   0  0  0  0  0  0  0  0  0  0  0  0
    7.2673   15.1094    6.8876 C   0  0  0  0  0  0  0  0  0  0  0  0
    8.1443   14.3825    6.6780 N   0  0  0  0  0  0  0  0  0  0  0  0
  2  1  1  0  0  0
  1  5  1  0  0  0
  1 10  1  0  0  0
  6  2  1  0  0  0
  6  3  1  0  0  0
  3  4  1  0  0  0
  4  5  1  0  0  0
  9  5  1  0  0  0
  8  6  1  0  0  0
  7  8  2  0  0  0
 22  8  1  0  0  0
 23 22  1  0  0  0
 24 23  3  0  0  0
 11 10  1  0  0  0
 10 12  1  0  0  0
 12 20  2  0  0  0
 12 13  1  0  0  0
 13 14  1  0  0  0
 13 17  2  0  0  0
 14 15  2  0  0  0
 15 16  1  0  0  0
 17 16  1  0  0  0
 17 18  1  0  0  0
 19 18  2  0  0  0
 20 19  1  0  0  0
 16 21  1  0  0  0
M  END
> <minimizedAffinity>
-8.51639

$$$$
3LXK_MI1_A_1125


 24 26  0  0  0  0  0  0  0  0999 V2000
    1.0487   16.4637    5.8760 C   0  0  0  0  0  0  0  0  0  0  0  0
    1.5274   17.1176    7.1588 C   0  0  0  0  0  0  0  0  0  0  0  0
    3.8237   17.1743    6.3312 C   0  0  0  0  0  0  0  0  0  0  0  0
    3.4189   16.4143    5.0855 C   0  0  0  0  0  0  0  0  0  0  0  0
    2.1665   15.5835    5.3005 C   0  0  0  0  0  0  0  0  0  0  0  0
    2.7149   17.9094    6.8750 N   0  0  0  0  0  0  0  0  0  0  0  0
    1.6842   19.8559    7.4181 O   0  0  0  0  0  0  0  0  0  0  0  0
    2.6772   19.2746    7.0181 C   0  0  0  0  0  0  0  0  0  0  0  0
    2.5245   14.3930    6.1900 C   0  0  0  0  0  0  0  0  0  0  0  0
   -0.0784   15.5456    6.0749 N   0  0  0  0  0  0  0  0  0  0  0  0
   -0.7192   15.4261    7.3593 C   0  0  0  0  0  0  0  0  0  0  0  0
   -0.9444   15.2781    4.9922 C   0  0  0  0  0  0  0  0  0  0  0  0
   -1.6565   16.2134    4.2343 C   0  0  0  0  0  0  0  0  0  0  0  0
   -1.8679   17.6286    4.2213 C   0  0  0  0  0  0  0  0  0  0  0  0
   -2.7102   17.9334    3.1833 C   0  0  0  0  0  0  0  0  0  0  0  0
   -3.0078   16.7681    2.5493 N   0  0  0  0  0  0  0  0  0  0  0  0
   -2.3916   15.7290    3.1718 C   0  0  0  0  0  0  0  0  0  0  0  0
   -2.5216   14.4667    2.7686 N   0  0  0  0  0  0  0  0  0  0  0  0
   -1.8044   13.6794    3.5689 C   0  0  0  0  0  0  0  0  0  0  0  0
   -1.0393   13.9898    4.6197 N   0  0  0  0  0  0  0  0  0  0  0  0
   -3.5850   16.6887    1.7558 H   0  0  0  0  0  0  0  0  0  0  0  0
    3.9460   20.0105    6.6748 C   0  0  0  0  0  0  0  0  0  0  0  0
    4.5929   20.5420    7.8577 C   0  0  0  0  0  0  0  0  0  0  0  0
    5.0541   20.9757    8.8276 N   0  0  0  0  0  0  0  0  0  0  0  0
  2  1  1  0  0  0
  1  5  1  0  0  0
  1 10  1  0  0  0
  6  2  1  0  0  0
  6  3  1  0  0  0
  3  4  1  0  0  0
  4  5  1  0  0  0
  9  5  1  0  0  0
  8  6  1  0  0  0
  7  8  2  0  0  0
 22  8  1  0  0  0
 23 22  1  0  0  0
 24 23  3  0  0  0
 11 10  1  0  0  0
 10 12  1  0  0  0
 12 20  2  0  0  0
 12 13  1  0  0  0
 13 14  1  0  0  0
 13 17  2  0  0  0
 14 15  2  0  0  0
 15 16  1  0  0  0
 17 16  1  0  0  0
 17 18  1  0  0  0
 19 18  2  0  0  0
 20 19  1  0  0  0
 16 21  1  0  0  0
M  END
> <minimizedAffinity>
-8.28860

$$$$
3LXK_MI1_A_1125


 24 26  0  0  0  0  0  0  0  0999 V2000
    1.5237   16.3207    6.0714 C   0  0  0  0  0  0  0  0  0  0  0  0
    1.4107   15.1295    5.1383 C   0  0  0  0  0  0  0  0  0  0  0  0
   -0.6864   14.4459    6.1853 C   0  0  0  0  0  0  0  0  0  0  0  0
   -0.5581   15.5469    7.2170 C   0  0  0  0  0  0  0  0  0  0  0  0
    0.8835   15.9765    7.4230 C   0  0  0  0  0  0  0  0  0  0  0  0
    0.0062   14.7862    4.9729 N   0  0  0  0  0  0  0  0  0  0  0  0
    0.0304   15.2791    2.7587 O   0  0  0  0  0  0  0  0  0  0  0  0
   -0.5900   14.9179    3.7429 C   0  0  0  0  0  0  0  0  0  0  0  0
    1.6139   14.8668    8.1790 C   0  0  0  0  0  0  0  0  0  0  0  0
    2.9093   16.6752    6.3991 N   0  0  0  0  0  0  0  0  0  0  0  0
    4.0147   16.0532    5.7166 C   0  0  0  0  0  0  0  0  0  0  0  0
    3.1949   17.9835    6.8470 C   0  0  0  0  0  0  0  0  0  0  0  0
    4.2092   18.3670    7.7304 C   0  0  0  0  0  0  0  0  0  0  0  0
    5.2269   17.7376    8.5151 C   0  0  0  0  0  0  0  0  0  0  0  0
    5.9169   18.7090    9.1932 C   0  0  0  0  0  0  0  0  0  0  0  0
    5.3777   19.9068    8.8423 N   0  0  0  0  0  0  0  0  0  0  0  0
    4.3493   19.7179    7.9742 C   0  0  0  0  0  0  0  0  0  0  0  0
    3.6305   20.7226    7.4776 N   0  0  0  0  0  0  0  0  0  0  0  0
    2.7012   20.2291    6.6606 C   0  0  0  0  0  0  0  0  0  0  0  0
    2.4452   18.9640    6.3141 N   0  0  0  0  0  0  0  0  0  0  0  0
    5.6869   20.7824    9.1692 H   0  0  0  0  0  0  0  0  0  0  0  0
   -2.0530   14.5649    3.6762 C   0  0  0  0  0  0  0  0  0  0  0  0
   -2.8369   15.6398    3.1016 C   0  0  0  0  0  0  0  0  0  0  0  0
   -3.4184   16.5377    2.6578 N   0  0  0  0  0  0  0  0  0  0  0  0
  2  1  1  0  0  0
  1  5  1  0  0  0
  1 10  1  0  0  0
  6  2  1  0  0  0
  6  3  1  0  0  0
  3  4  1  0  0  0
  4  5  1  0  0  0
  9  5  1  0  0  0
  8  6  1  0  0  0
  7  8  2  0  0  0
 22  8  1  0  0  0
 23 22  1  0  0  0
 24 23  3  0  0  0
 11 10  1  0  0  0
 10 12  1  0  0  0
 12 20  2  0  0  0
 12 13  1  0  0  0
 13 14  1  0  0  0
 13 17  2  0  0  0
 14 15  2  0  0  0
 15 16  1  0  0  0
 17 16  1  0  0  0
 17 18  1  0  0  0
 19 18  2  0  0  0
 20 19  1  0  0  0
 16 21  1  0  0  0
M  END
> <minimizedAffinity>
-7.77034

$$$$
3LXK_MI1_A_1125


 24 26  0  0  0  0  0  0  0  0999 V2000
    1.1640   16.1716    5.9925 C   0  0  0  0  0  0  0  0  0  0  0  0
    1.9836   16.0880    7.2669 C   0  0  0  0  0  0  0  0  0  0  0  0
    3.4627   14.4238    6.2650 C   0  0  0  0  0  0  0  0  0  0  0  0
    2.6073   14.3802    5.0163 C   0  0  0  0  0  0  0  0  0  0  0  0
    1.1761   14.8100    5.2845 C   0  0  0  0  0  0  0  0  0  0  0  0
    3.3431   15.6906    6.9331 N   0  0  0  0  0  0  0  0  0  0  0  0
    4.2155   17.6549    7.6592 O   0  0  0  0  0  0  0  0  0  0  0  0
    4.3832   16.5602    7.1516 C   0  0  0  0  0  0  0  0  0  0  0  0
    0.4812   13.7036    6.0779 C   0  0  0  0  0  0  0  0  0  0  0  0
   -0.2566   16.4512    6.2302 N   0  0  0  0  0  0  0  0  0  0  0  0
   -0.7462   16.7252    7.5568 C   0  0  0  0  0  0  0  0  0  0  0  0
   -1.0106   17.0810    5.2160 C   0  0  0  0  0  0  0  0  0  0  0  0
   -1.7916   16.4562    4.2383 C   0  0  0  0  0  0  0  0  0  0  0  0
   -2.1054   15.1234    3.8228 C   0  0  0  0  0  0  0  0  0  0  0  0
   -2.9642   15.1908    2.7562 C   0  0  0  0  0  0  0  0  0  0  0  0
   -3.2043   16.5067    2.5136 N   0  0  0  0  0  0  0  0  0  0  0  0
   -2.5030   17.2766    3.3868 C   0  0  0  0  0  0  0  0  0  0  0  0
   -2.5404   18.6073    3.3666 N   0  0  0  0  0  0  0  0  0  0  0  0
   -1.7571   19.0783    4.3358 C   0  0  0  0  0  0  0  0  0  0  0  0
   -1.0206   18.4252    5.2397 N   0  0  0  0  0  0  0  0  0  0  0  0
   -3.7990   16.8515    1.8088 H   0  0  0  0  0  0  0  0  0  0  0  0
    5.7499   16.0705    6.7493 C   0  0  0  0  0  0  0  0  0  0  0  0
    6.6038   15.8617    7.9014 C   0  0  0  0  0  0  0  0  0  0  0  0
    7.3150   15.6504    8.7908 N   0  0  0  0  0  0  0  0  0  0  0  0
  2  1  1  0  0  0
  1  5  1  0  0  0
  1 10  1  0  0  0
  6  2  1  0  0  0
  6  3  1  0  0  0
  3  4  1  0  0  0
  4  5  1  0  0  0
  9  5  1  0  0  0
  8  6  1  0  0  0
  7  8  2  0  0  0
 22  8  1  0  0  0
 23 22  1  0  0  0
 24 23  3  0  0  0
 11 10  1  0  0  0
 10 12  1  0  0  0
 12 20  2  0  0  0
 12 13  1  0  0  0
 13 14  1  0  0  0
 13 17  2  0  0  0
 14 15  2  0  0  0
 15 16  1  0  0  0
 17 16  1  0  0  0
 17 18  1  0  0  0
 19 18  2  0  0  0
 20 19  1  0  0  0
 16 21  1  0  0  0
M  END
> <minimizedAffinity>
-7.70859

$$$$
3LXK_MI1_A_1125


 24 26  0  0  0  0  0  0  0  0999 V2000
    1.3880   15.7516    5.8436 C   0  0  0  0  0  0  0  0  0  0  0  0
    2.3905   16.8723    6.0468 C   0  0  0  0  0  0  0  0  0  0  0  0
    3.2417   15.8099    8.0736 C   0  0  0  0  0  0  0  0  0  0  0  0
    2.1809   14.7330    7.9834 C   0  0  0  0  0  0  0  0  0  0  0  0
    0.9597   15.1925    7.2072 C   0  0  0  0  0  0  0  0  0  0  0  0
    3.5382   16.3573    6.7783 N   0  0  0  0  0  0  0  0  0  0  0  0
    4.9516   16.7250    5.0423 O   0  0  0  0  0  0  0  0  0  0  0  0
    4.7699   16.3095    6.1731 C   0  0  0  0  0  0  0  0  0  0  0  0
    0.1934   16.1987    8.0655 C   0  0  0  0  0  0  0  0  0  0  0  0
    0.1373   16.1945    5.2171 N   0  0  0  0  0  0  0  0  0  0  0  0
    0.0102   17.5224    4.6739 C   0  0  0  0  0  0  0  0  0  0  0  0
   -0.6763   15.2437    4.5630 C   0  0  0  0  0  0  0  0  0  0  0  0
   -1.8383   15.4962    3.8265 C   0  0  0  0  0  0  0  0  0  0  0  0
   -2.6558   16.6204    3.4866 C   0  0  0  0  0  0  0  0  0  0  0  0
   -3.6959   16.1827    2.7079 C   0  0  0  0  0  0  0  0  0  0  0  0
   -3.5392   14.8426    2.5410 N   0  0  0  0  0  0  0  0  0  0  0  0
   -2.4368   14.4157    3.2115 C   0  0  0  0  0  0  0  0  0  0  0  0
   -2.0533   13.1409    3.2317 N   0  0  0  0  0  0  0  0  0  0  0  0
   -0.9460   13.0324    3.9646 C   0  0  0  0  0  0  0  0  0  0  0  0
   -0.2454   13.9711    4.6080 N   0  0  0  0  0  0  0  0  0  0  0  0
   -4.1366   14.2659    2.0121 H   0  0  0  0  0  0  0  0  0  0  0  0
    5.8908   15.7354    6.9996 C   0  0  0  0  0  0  0  0  0  0  0  0
    6.9411   15.1840    6.1671 C   0  0  0  0  0  0  0  0  0  0  0  0
    7.8172   14.7428    5.5512 N   0  0  0  0  0  0  0  0  0  0  0  0
  2  1  1  0  0  0
  1  5  1  0  0  0
  1 10  1  0  0  0
  6  2  1  0  0  0
  6  3  1  0  0  0
  3  4  1  0  0  0
  4  5  1  0  0  0
  9  5  1  0  0  0
  8  6  1  0  0  0
  7  8  2  0  0  0
 22  8  1  0  0  0
 23 22  1  0  0  0
 24 23  3  0  0  0
 11 10  1  0  0  0
 10 12  1  0  0  0
 12 20  2  0  0  0
 12 13  1  0  0  0
 13 14  1  0  0  0
 13 17  2  0  0  0
 14 15  2  0  0  0
 15 16  1  0  0  0
 17 16  1  0  0  0
 17 18  1  0  0  0
 19 18  2  0  0  0
 20 19  1  0  0  0
 16 21  1  0  0  0
M  END
> <minimizedAffinity>
-7.64279

$$$$
3LXK_MI1_A_1125


 24 26  0  0  0  0  0  0  0  0999 V2000
    1.5628   16.1483    6.2055 C   0  0  0  0  0  0  0  0  0  0  0  0
    1.4443   14.9787    5.2461 C   0  0  0  0  0  0  0  0  0  0  0  0
   -0.6970   14.3302    6.2237 C   0  0  0  0  0  0  0  0  0  0  0  0
   -0.5681   15.4072    7.2802 C   0  0  0  0  0  0  0  0  0  0  0  0
    0.8779   15.7948    7.5326 C   0  0  0  0  0  0  0  0  0  0  0  0
    0.0364   14.6756    5.0370 N   0  0  0  0  0  0  0  0  0  0  0  0
    0.1326   15.2104    2.8344 O   0  0  0  0  0  0  0  0  0  0  0  0
   -0.5230   14.8466    3.7946 C   0  0  0  0  0  0  0  0  0  0  0  0
    1.5591   14.6520    8.2852 C   0  0  0  0  0  0  0  0  0  0  0  0
    2.9478   16.4599    6.5766 N   0  0  0  0  0  0  0  0  0  0  0  0
    4.0550   15.8402    5.8951 C   0  0  0  0  0  0  0  0  0  0  0  0
    3.2505   17.7439    7.0801 C   0  0  0  0  0  0  0  0  0  0  0  0
    2.5295   18.9229    6.8646 C   0  0  0  0  0  0  0  0  0  0  0  0
    1.3821   19.3440    6.1205 C   0  0  0  0  0  0  0  0  0  0  0  0
    1.1890   20.6836    6.3392 C   0  0  0  0  0  0  0  0  0  0  0  0
    2.1571   21.0958    7.2000 N   0  0  0  0  0  0  0  0  0  0  0  0
    2.9721   20.0555    7.5168 C   0  0  0  0  0  0  0  0  0  0  0  0
    4.0168   20.1798    8.3329 N   0  0  0  0  0  0  0  0  0  0  0  0
    4.6183   18.9970    8.4512 C   0  0  0  0  0  0  0  0  0  0  0  0
    4.3115   17.8177    7.9024 N   0  0  0  0  0  0  0  0  0  0  0  0
    2.2537   22.0134    7.5435 H   0  0  0  0  0  0  0  0  0  0  0  0
   -1.9922   14.5334    3.6824 C   0  0  0  0  0  0  0  0  0  0  0  0
   -2.7337   15.6419    3.1154 C   0  0  0  0  0  0  0  0  0  0  0  0
   -3.2739   16.5601    2.6610 N   0  0  0  0  0  0  0  0  0  0  0  0
  2  1  1  0  0  0
  1  5  1  0  0  0
  1 10  1  0  0  0
  6  2  1  0  0  0
  6  3  1  0  0  0
  3  4  1  0  0  0
  4  5  1  0  0  0
  9  5  1  0  0  0
  8  6  1  0  0  0
  7  8  2  0  0  0
 22  8  1  0  0  0
 23 22  1  0  0  0
 24 23  3  0  0  0
 11 10  1  0  0  0
 10 12  1  0  0  0
 12 20  2  0  0  0
 12 13  1  0  0  0
 13 14  1  0  0  0
 13 17  2  0  0  0
 14 15  2  0  0  0
 15 16  1  0  0  0
 17 16  1  0  0  0
 17 18  1  0  0  0
 19 18  2  0  0  0
 20 19  1  0  0  0
 16 21  1  0  0  0
M  END
> <minimizedAffinity>
-7.57289

$$$$
3LXK_MI1_A_1125


 24 26  0  0  0  0  0  0  0  0999 V2000
   -0.0534   15.5302    6.1918 C   0  0  0  0  0  0  0  0  0  0  0  0
    0.0963   16.4253    4.9757 C   0  0  0  0  0  0  0  0  0  0  0  0
   -1.0051   14.7690    3.5597 C   0  0  0  0  0  0  0  0  0  0  0  0
   -1.0697   13.7904    4.7134 C   0  0  0  0  0  0  0  0  0  0  0  0
    0.0004   14.0595    5.7562 C   0  0  0  0  0  0  0  0  0  0  0  0
   -0.9692   16.1263    4.0307 N   0  0  0  0  0  0  0  0  0  0  0  0
   -1.8779   18.1956    4.2281 O   0  0  0  0  0  0  0  0  0  0  0  0
   -1.9168   17.0781    3.7445 C   0  0  0  0  0  0  0  0  0  0  0  0
    1.3528   13.6438    5.1776 C   0  0  0  0  0  0  0  0  0  0  0  0
    1.0430   15.6695    7.1568 N   0  0  0  0  0  0  0  0  0  0  0  0
    1.3068   14.6430    8.1321 C   0  0  0  0  0  0  0  0  0  0  0  0
    2.1955   16.3957    6.7852 C   0  0  0  0  0  0  0  0  0  0  0  0
    2.3520   17.7856    6.7922 C   0  0  0  0  0  0  0  0  0  0  0  0
    1.5553   18.9417    7.0683 C   0  0  0  0  0  0  0  0  0  0  0  0
    2.3285   20.0582    6.8804 C   0  0  0  0  0  0  0  0  0  0  0  0
    3.5689   19.6343    6.5199 N   0  0  0  0  0  0  0  0  0  0  0  0
    3.5964   18.2771    6.4545 C   0  0  0  0  0  0  0  0  0  0  0  0
    4.6855   17.5933    6.1098 N   0  0  0  0  0  0  0  0  0  0  0  0
    4.4067   16.2908    6.1365 C   0  0  0  0  0  0  0  0  0  0  0  0
    3.2702   15.6611    6.4493 N   0  0  0  0  0  0  0  0  0  0  0  0
    4.3349   20.2240    6.3336 H   0  0  0  0  0  0  0  0  0  0  0  0
   -2.9951   16.6672    2.7762 C   0  0  0  0  0  0  0  0  0  0  0  0
   -3.8267   17.7906    2.3934 C   0  0  0  0  0  0  0  0  0  0  0  0
   -4.5333   18.6483    2.0670 N   0  0  0  0  0  0  0  0  0  0  0  0
  2  1  1  0  0  0
  1  5  1  0  0  0
  1 10  1  0  0  0
  6  2  1  0  0  0
  6  3  1  0  0  0
  3  4  1  0  0  0
  4  5  1  0  0  0
  9  5  1  0  0  0
  8  6  1  0  0  0
  7  8  2  0  0  0
 22  8  1  0  0  0
 23 22  1  0  0  0
 24 23  3  0  0  0
 11 10  1  0  0  0
 10 12  1  0  0  0
 12 20  2  0  0  0
 12 13  1  0  0  0
 13 14  1  0  0  0
 13 17  2  0  0  0
 14 15  2  0  0  0
 15 16  1  0  0  0
 17 16  1  0  0  0
 17 18  1  0  0  0
 19 18  2  0  0  0
 20 19  1  0  0  0
 16 21  1  0  0  0
M  END
> <minimizedAffinity>
-7.40815

$$$$
3LXK_MI1_A_1125


 24 26  0  0  0  0  0  0  0  0999 V2000
    0.9800   15.5617    5.3548 C   0  0  0  0  0  0  0  0  0  0  0  0
    1.9849   16.6268    5.7522 C   0  0  0  0  0  0  0  0  0  0  0  0
    2.5591   15.3976    7.7822 C   0  0  0  0  0  0  0  0  0  0  0  0
    1.4843   14.3709    7.4932 C   0  0  0  0  0  0  0  0  0  0  0  0
    0.3775   14.9284    6.6162 C   0  0  0  0  0  0  0  0  0  0  0  0
    3.0225   16.0197    6.5724 N   0  0  0  0  0  0  0  0  0  0  0  0
    4.6410   16.4496    5.0420 O   0  0  0  0  0  0  0  0  0  0  0  0
    4.3149   15.9659    6.1115 C   0  0  0  0  0  0  0  0  0  0  0  0
   -0.4539   15.9028    7.4504 C   0  0  0  0  0  0  0  0  0  0  0  0
   -0.1743   16.0937    4.6216 N   0  0  0  0  0  0  0  0  0  0  0  0
   -0.0990   17.3593    3.9382 C   0  0  0  0  0  0  0  0  0  0  0  0
   -1.0843   15.1921    4.0277 C   0  0  0  0  0  0  0  0  0  0  0  0
   -0.9683   13.7996    3.9650 C   0  0  0  0  0  0  0  0  0  0  0  0
   -0.0222   12.7956    4.3449 C   0  0  0  0  0  0  0  0  0  0  0  0
   -0.5216   11.5696    3.9880 C   0  0  0  0  0  0  0  0  0  0  0  0
   -1.7406   11.7789    3.4237 N   0  0  0  0  0  0  0  0  0  0  0  0
   -2.0182   13.1090    3.3950 C   0  0  0  0  0  0  0  0  0  0  0  0
   -3.1439   13.6003    2.8811 N   0  0  0  0  0  0  0  0  0  0  0  0
   -3.1306   14.9274    2.9963 C   0  0  0  0  0  0  0  0  0  0  0  0
   -2.2074   15.7352    3.5266 N   0  0  0  0  0  0  0  0  0  0  0  0
   -2.3351   11.0708    3.0855 H   0  0  0  0  0  0  0  0  0  0  0  0
    5.3128   15.2945    7.0185 C   0  0  0  0  0  0  0  0  0  0  0  0
    6.0853   16.2613    7.7726 C   0  0  0  0  0  0  0  0  0  0  0  0
    6.7049   17.0691    8.3248 N   0  0  0  0  0  0  0  0  0  0  0  0
  2  1  1  0  0  0
  1  5  1  0  0  0
  1 10  1  0  0  0
  6  2  1  0  0  0
  6  3  1  0  0  0
  3  4  1  0  0  0
  4  5  1  0  0  0
  9  5  1  0  0  0
  8  6  1  0  0  0
  7  8  2  0  0  0
 22  8  1  0  0  0
 23 22  1  0  0  0
 24 23  3  0  0  0
 11 10  1  0  0  0
 10 12  1  0  0  0
 12 20  2  0  0  0
 12 13  1  0  0  0
 13 14  1  0  0  0
 13 17  2  0  0  0
 14 15  2  0  0  0
 15 16  1  0  0  0
 17 16  1  0  0  0
 17 18  1  0  0  0
 19 18  2  0  0  0
 20 19  1  0  0  0
 16 21  1  0  0  0
M  END
> <minimizedAffinity>
-7.10156

$$$$
