4FXQ_G9L_A_501


 27 30  0  0  0  0  0  0  0  0999 V2000
  -36.3264  -73.7376    0.9440 N   0  0  0  0  0  0  0  0  0  0  0  0
  -36.9713  -73.1777    5.0541 N   0  0  0  0  0  0  0  0  0  0  0  0
  -35.7427  -72.5492   -0.8994 O   0  0  0  0  0  0  0  0  0  0  0  0
  -36.9434  -73.8505    7.2870 O   0  0  0  0  0  0  0  0  0  0  0  0
  -35.4575  -78.7457    6.9041 F   0  0  0  0  0  0  0  0  0  0  0  0
  -35.4730  -78.0456    4.6591 C   0  0  0  0  0  0  0  0  0  0  0  0
  -35.7004  -77.0421    3.7419 C   0  0  0  0  0  0  0  0  0  0  0  0
  -36.0927  -76.5238    6.4999 C   0  0  0  0  0  0  0  0  0  0  0  0
  -37.0460  -72.3010    2.7525 C   0  0  0  0  0  0  0  0  0  0  0  0
  -37.2389  -72.7158    1.3513 C   0  0  0  0  0  0  0  0  0  0  0  0
  -36.1729  -74.8945    1.7839 C   0  0  0  0  0  0  0  0  0  0  0  0
  -35.5570  -73.5587   -0.2535 C   0  0  0  0  0  0  0  0  0  0  0  0
  -35.6806  -77.7901    6.0287 C   0  0  0  0  0  0  0  0  0  0  0  0
  -36.7809  -73.3984    3.7184 C   0  0  0  0  0  0  0  0  0  0  0  0
  -36.3742  -74.6556    3.2642 C   0  0  0  0  0  0  0  0  0  0  0  0
  -36.7415  -74.1588    5.9833 C   0  0  0  0  0  0  0  0  0  0  0  0
  -36.1354  -75.7558    4.2147 C   0  0  0  0  0  0  0  0  0  0  0  0
  -36.3221  -75.5039    5.5661 C   0  0  0  0  0  0  0  0  0  0  0  0
  -37.2808  -72.2931    5.3558 H   0  0  0  0  0  0  0  0  0  0  0  0
  -34.5686  -74.5944   -0.7239 C   0  0  0  0  0  0  0  0  0  0  0  0
  -33.8898  -74.3028   -2.0612 C   0  0  0  0  0  0  0  0  0  0  0  0
  -33.2031  -75.4052   -2.6841 N   0  0  0  0  0  0  0  0  0  0  0  0
  -31.7599  -77.3218   -3.3645 C   0  0  0  0  0  0  0  0  0  0  0  0
  -32.1738  -77.0058   -1.8178 C   0  0  0  0  0  0  0  0  0  0  0  0
  -32.3685  -76.2091   -4.3999 C   0  0  0  0  0  0  0  0  0  0  0  0
  -32.9679  -76.7265   -1.7539 C   0  0  0  0  0  0  0  0  0  0  0  0
  -32.3455  -75.4359   -4.0648 C   0  0  0  0  0  0  0  0  0  0  0  0
 27 22  1  0  0  0
 22 26  1  0  0  0
 22 21  1  0  0  0
 12  1  1  0  0  0
  1 10  1  0  0  0
  1 11  1  0  0  0
 14  2  1  0  0  0
  2 16  1  0  0  0
  3 12  2  0  0  0
 16  4  2  0  0  0
 13  5  1  0  0  0
  7  6  2  0  0  0
  6 13  1  0  0  0
  7 17  1  0  0  0
 18  8  1  0  0  0
 13  8  2  0  0  0
 25 23  1  0  0  0
 23 24  1  0  0  0
 24 26  1  0  0  0
 25 27  1  0  0  0
 21 20  1  0  0  0
 20 12  1  0  0  0
 10  9  1  0  0  0
  9 14  1  0  0  0
 11 15  1  0  0  0
 15 14  2  0  0  0
 15 17  1  0  0  0
 18 16  1  0  0  0
 17 18  2  0  0  0
  2 19  1  0  0  0
M  END
> <minimizedAffinity>
-10.21249

$$$$
4FXQ_G9L_A_501


 27 30  0  0  0  0  0  0  0  0999 V2000
  -36.1324  -73.7690    0.6423 N   0  0  0  0  0  0  0  0  0  0  0  0
  -36.9912  -73.1436    4.7036 N   0  0  0  0  0  0  0  0  0  0  0  0
  -35.4593  -72.6086   -1.1885 O   0  0  0  0  0  0  0  0  0  0  0  0
  -37.0758  -73.7787    6.9460 O   0  0  0  0  0  0  0  0  0  0  0  0
  -35.5508  -78.6719    6.7235 F   0  0  0  0  0  0  0  0  0  0  0  0
  -35.4534  -78.0096    4.4692 C   0  0  0  0  0  0  0  0  0  0  0  0
  -35.6375  -77.0228    3.5245 C   0  0  0  0  0  0  0  0  0  0  0  0
  -36.1740  -76.4604    6.2494 C   0  0  0  0  0  0  0  0  0  0  0  0
  -36.9506  -72.3061    2.3865 C   0  0  0  0  0  0  0  0  0  0  0  0
  -37.0691  -72.7453    0.9845 C   0  0  0  0  0  0  0  0  0  0  0  0
  -36.0174  -74.9108    1.5085 C   0  0  0  0  0  0  0  0  0  0  0  0
  -35.3028  -73.6062   -0.5168 C   0  0  0  0  0  0  0  0  0  0  0  0
  -35.7326  -77.7322    5.8217 C   0  0  0  0  0  0  0  0  0  0  0  0
  -36.7311  -73.3857    3.3834 C   0  0  0  0  0  0  0  0  0  0  0  0
  -36.2959  -74.6482    2.9722 C   0  0  0  0  0  0  0  0  0  0  0  0
  -36.8054  -74.1078    5.6599 C   0  0  0  0  0  0  0  0  0  0  0  0
  -36.1018  -75.7311    3.9523 C   0  0  0  0  0  0  0  0  0  0  0  0
  -36.3591  -75.4575    5.2878 C   0  0  0  0  0  0  0  0  0  0  0  0
  -37.3196  -72.2557    4.9737 H   0  0  0  0  0  0  0  0  0  0  0  0
  -34.2870  -74.6445   -0.9179 C   0  0  0  0  0  0  0  0  0  0  0  0
  -33.0816  -74.1244   -1.6994 C   0  0  0  0  0  0  0  0  0  0  0  0
  -31.7866  -74.5586   -1.2419 N   0  0  0  0  0  0  0  0  0  0  0  0
  -29.3899  -74.9110   -0.6495 C   0  0  0  0  0  0  0  0  0  0  0  0
  -30.0812  -73.4388   -0.7844 C   0  0  0  0  0  0  0  0  0  0  0  0
  -30.4450  -76.1154   -0.9910 C   0  0  0  0  0  0  0  0  0  0  0  0
  -30.8725  -73.4331   -0.4907 C   0  0  0  0  0  0  0  0  0  0  0  0
  -30.9561  -75.9021   -1.6265 C   0  0  0  0  0  0  0  0  0  0  0  0
 27 22  1  0  0  0
 22 26  1  0  0  0
 22 21  1  0  0  0
 12  1  1  0  0  0
  1 10  1  0  0  0
  1 11  1  0  0  0
 14  2  1  0  0  0
  2 16  1  0  0  0
  3 12  2  0  0  0
 16  4  2  0  0  0
 13  5  1  0  0  0
  7  6  2  0  0  0
  6 13  1  0  0  0
  7 17  1  0  0  0
 18  8  1  0  0  0
 13  8  2  0  0  0
 25 23  1  0  0  0
 23 24  1  0  0  0
 24 26  1  0  0  0
 25 27  1  0  0  0
 21 20  1  0  0  0
 20 12  1  0  0  0
 10  9  1  0  0  0
  9 14  1  0  0  0
 11 15  1  0  0  0
 15 14  2  0  0  0
 15 17  1  0  0  0
 18 16  1  0  0  0
 17 18  2  0  0  0
  2 19  1  0  0  0
M  END
> <minimizedAffinity>
-9.86006

$$$$
4FXQ_G9L_A_501


 27 30  0  0  0  0  0  0  0  0999 V2000
  -36.2961  -73.0044   -0.1329 N   0  0  0  0  0  0  0  0  0  0  0  0
  -36.9485  -72.8417    4.0109 N   0  0  0  0  0  0  0  0  0  0  0  0
  -35.7123  -71.6438   -1.8531 O   0  0  0  0  0  0  0  0  0  0  0  0
  -36.9225  -73.7250    6.1691 O   0  0  0  0  0  0  0  0  0  0  0  0
  -35.4245  -78.5579    5.3222 F   0  0  0  0  0  0  0  0  0  0  0  0
  -35.4383  -77.6462    3.1546 C   0  0  0  0  0  0  0  0  0  0  0  0
  -35.6667  -76.5601    2.3371 C   0  0  0  0  0  0  0  0  0  0  0  0
  -36.0644  -76.3089    5.1314 C   0  0  0  0  0  0  0  0  0  0  0  0
  -37.0218  -71.7490    1.8035 C   0  0  0  0  0  0  0  0  0  0  0  0
  -37.2116  -72.0283    0.3687 C   0  0  0  0  0  0  0  0  0  0  0  0
  -36.1411  -74.2360    0.5927 C   0  0  0  0  0  0  0  0  0  0  0  0
  -35.5252  -72.7101   -1.3064 C   0  0  0  0  0  0  0  0  0  0  0  0
  -35.6486  -77.5233    4.5419 C   0  0  0  0  0  0  0  0  0  0  0  0
  -36.7556  -72.9332    2.6605 C   0  0  0  0  0  0  0  0  0  0  0  0
  -36.3452  -74.1403    2.0888 C   0  0  0  0  0  0  0  0  0  0  0  0
  -36.7179  -73.9067    4.8423 C   0  0  0  0  0  0  0  0  0  0  0  0
  -36.1053  -75.3259    2.9301 C   0  0  0  0  0  0  0  0  0  0  0  0
  -36.2946  -75.2048    4.2991 C   0  0  0  0  0  0  0  0  0  0  0  0
  -37.2606  -71.9907    4.3952 H   0  0  0  0  0  0  0  0  0  0  0  0
  -34.5337  -73.6939   -1.8720 C   0  0  0  0  0  0  0  0  0  0  0  0
  -33.2203  -73.8268   -1.1029 C   0  0  0  0  0  0  0  0  0  0  0  0
  -32.5221  -75.0791   -1.2405 N   0  0  0  0  0  0  0  0  0  0  0  0
  -31.0830  -77.0290   -1.8289 C   0  0  0  0  0  0  0  0  0  0  0  0
  -30.6162  -75.4750   -2.0039 C   0  0  0  0  0  0  0  0  0  0  0  0
  -32.6156  -77.1472   -1.2652 C   0  0  0  0  0  0  0  0  0  0  0  0
  -30.8971  -74.9878   -1.3744 C   0  0  0  0  0  0  0  0  0  0  0  0
  -33.1101  -76.5517   -1.5989 C   0  0  0  0  0  0  0  0  0  0  0  0
 27 22  1  0  0  0
 22 26  1  0  0  0
 22 21  1  0  0  0
 12  1  1  0  0  0
  1 10  1  0  0  0
  1 11  1  0  0  0
 14  2  1  0  0  0
  2 16  1  0  0  0
  3 12  2  0  0  0
 16  4  2  0  0  0
 13  5  1  0  0  0
  7  6  2  0  0  0
  6 13  1  0  0  0
  7 17  1  0  0  0
 18  8  1  0  0  0
 13  8  2  0  0  0
 25 23  1  0  0  0
 23 24  1  0  0  0
 24 26  1  0  0  0
 25 27  1  0  0  0
 21 20  1  0  0  0
 20 12  1  0  0  0
 10  9  1  0  0  0
  9 14  1  0  0  0
 11 15  1  0  0  0
 15 14  2  0  0  0
 15 17  1  0  0  0
 18 16  1  0  0  0
 17 18  2  0  0  0
  2 19  1  0  0  0
M  END
> <minimizedAffinity>
-9.55398

$$$$
4FXQ_G9L_A_501


 27 30  0  0  0  0  0  0  0  0999 V2000
  -36.1798  -73.3192    0.2277 N   0  0  0  0  0  0  0  0  0  0  0  0
  -36.9860  -73.1511    4.3441 N   0  0  0  0  0  0  0  0  0  0  0  0
  -35.5864  -71.9501   -1.4824 O   0  0  0  0  0  0  0  0  0  0  0  0
  -37.0041  -74.0170    6.5095 O   0  0  0  0  0  0  0  0  0  0  0  0
  -35.2961  -78.7957    5.7581 F   0  0  0  0  0  0  0  0  0  0  0  0
  -35.2665  -77.9010    3.5836 C   0  0  0  0  0  0  0  0  0  0  0  0
  -35.5061  -76.8304    2.7492 C   0  0  0  0  0  0  0  0  0  0  0  0
  -36.0128  -76.5740    5.5253 C   0  0  0  0  0  0  0  0  0  0  0  0
  -37.0211  -72.0781    2.1261 C   0  0  0  0  0  0  0  0  0  0  0  0
  -37.1488  -72.3749    0.6880 C   0  0  0  0  0  0  0  0  0  0  0  0
  -36.0048  -74.5387    0.9690 C   0  0  0  0  0  0  0  0  0  0  0  0
  -35.3790  -73.0045   -0.9203 C   0  0  0  0  0  0  0  0  0  0  0  0
  -35.5308  -77.7761    4.9614 C   0  0  0  0  0  0  0  0  0  0  0  0
  -36.7415  -73.2451    3.0022 C   0  0  0  0  0  0  0  0  0  0  0  0
  -36.2658  -74.4399    2.4559 C   0  0  0  0  0  0  0  0  0  0  0  0
  -36.7454  -74.2005    5.1923 C   0  0  0  0  0  0  0  0  0  0  0  0
  -36.0118  -75.6094    3.3154 C   0  0  0  0  0  0  0  0  0  0  0  0
  -36.2545  -75.4856    4.6757 C   0  0  0  0  0  0  0  0  0  0  0  0
  -37.3433  -72.3097    4.7097 H   0  0  0  0  0  0  0  0  0  0  0  0
  -34.3316  -73.9541   -1.4417 C   0  0  0  0  0  0  0  0  0  0  0  0
  -33.4946  -73.4394   -2.6116 C   0  0  0  0  0  0  0  0  0  0  0  0
  -32.2945  -74.1768   -2.9131 N   0  0  0  0  0  0  0  0  0  0  0  0
  -30.4555  -75.5987   -3.8162 C   0  0  0  0  0  0  0  0  0  0  0  0
  -31.5519  -74.8353   -4.7534 C   0  0  0  0  0  0  0  0  0  0  0  0
  -30.7367  -75.3525   -2.2221 C   0  0  0  0  0  0  0  0  0  0  0  0
  -31.7515  -74.0734   -4.4497 C   0  0  0  0  0  0  0  0  0  0  0  0
  -31.5630  -75.3480   -2.0553 C   0  0  0  0  0  0  0  0  0  0  0  0
 27 22  1  0  0  0
 22 26  1  0  0  0
 22 21  1  0  0  0
 12  1  1  0  0  0
  1 10  1  0  0  0
  1 11  1  0  0  0
 14  2  1  0  0  0
  2 16  1  0  0  0
  3 12  2  0  0  0
 16  4  2  0  0  0
 13  5  1  0  0  0
  7  6  2  0  0  0
  6 13  1  0  0  0
  7 17  1  0  0  0
 18  8  1  0  0  0
 13  8  2  0  0  0
 25 23  1  0  0  0
 23 24  1  0  0  0
 24 26  1  0  0  0
 25 27  1  0  0  0
 21 20  1  0  0  0
 20 12  1  0  0  0
 10  9  1  0  0  0
  9 14  1  0  0  0
 11 15  1  0  0  0
 15 14  2  0  0  0
 15 17  1  0  0  0
 18 16  1  0  0  0
 17 18  2  0  0  0
  2 19  1  0  0  0
M  END
> <minimizedAffinity>
-8.79361

$$$$
4FXQ_G9L_A_501


 27 30  0  0  0  0  0  0  0  0999 V2000
  -36.1882  -72.5482    0.5450 N   0  0  0  0  0  0  0  0  0  0  0  0
  -36.6810  -74.9409    3.9588 N   0  0  0  0  0  0  0  0  0  0  0  0
  -35.9080  -70.3683   -0.0215 O   0  0  0  0  0  0  0  0  0  0  0  0
  -36.4192  -76.9007    5.1957 O   0  0  0  0  0  0  0  0  0  0  0  0
  -34.1905  -80.0199    1.7867 F   0  0  0  0  0  0  0  0  0  0  0  0
  -34.4452  -78.0301    0.5595 C   0  0  0  0  0  0  0  0  0  0  0  0
  -34.8824  -76.7236    0.5153 C   0  0  0  0  0  0  0  0  0  0  0  0
  -35.1962  -78.2178    2.9024 C   0  0  0  0  0  0  0  0  0  0  0  0
  -37.0256  -72.7932    2.8012 C   0  0  0  0  0  0  0  0  0  0  0  0
  -37.2284  -72.2075    1.4639 C   0  0  0  0  0  0  0  0  0  0  0  0
  -35.8036  -73.9285    0.4255 C   0  0  0  0  0  0  0  0  0  0  0  0
  -35.5264  -71.5074   -0.1877 C   0  0  0  0  0  0  0  0  0  0  0  0
  -34.6134  -78.7755    1.7428 C   0  0  0  0  0  0  0  0  0  0  0  0
  -36.5335  -74.1949    2.8227 C   0  0  0  0  0  0  0  0  0  0  0  0
  -35.9565  -74.7579    1.6815 C   0  0  0  0  0  0  0  0  0  0  0  0
  -36.2445  -76.2385    4.0268 C   0  0  0  0  0  0  0  0  0  0  0  0
  -35.4908  -76.1558    1.6878 C   0  0  0  0  0  0  0  0  0  0  0  0
  -35.6387  -76.8886    2.8564 C   0  0  0  0  0  0  0  0  0  0  0  0
  -37.1110  -74.5366    4.7468 H   0  0  0  0  0  0  0  0  0  0  0  0
  -34.4127  -71.8049   -1.1584 C   0  0  0  0  0  0  0  0  0  0  0  0
  -33.0670  -72.1661   -0.5318 C   0  0  0  0  0  0  0  0  0  0  0  0
  -32.4692  -73.4019   -0.9677 N   0  0  0  0  0  0  0  0  0  0  0  0
  -31.0910  -75.2641   -1.8910 C   0  0  0  0  0  0  0  0  0  0  0  0
  -30.4626  -73.8682   -1.3252 C   0  0  0  0  0  0  0  0  0  0  0  0
  -32.7266  -75.2721   -1.8180 C   0  0  0  0  0  0  0  0  0  0  0  0
  -30.8787  -73.5863   -0.6470 C   0  0  0  0  0  0  0  0  0  0  0  0
  -33.0440  -74.5139   -2.0050 C   0  0  0  0  0  0  0  0  0  0  0  0
 27 22  1  0  0  0
 22 26  1  0  0  0
 22 21  1  0  0  0
 12  1  1  0  0  0
  1 10  1  0  0  0
  1 11  1  0  0  0
 14  2  1  0  0  0
  2 16  1  0  0  0
  3 12  2  0  0  0
 16  4  2  0  0  0
 13  5  1  0  0  0
  7  6  2  0  0  0
  6 13  1  0  0  0
  7 17  1  0  0  0
 18  8  1  0  0  0
 13  8  2  0  0  0
 25 23  1  0  0  0
 23 24  1  0  0  0
 24 26  1  0  0  0
 25 27  1  0  0  0
 21 20  1  0  0  0
 20 12  1  0  0  0
 10  9  1  0  0  0
  9 14  1  0  0  0
 11 15  1  0  0  0
 15 14  2  0  0  0
 15 17  1  0  0  0
 18 16  1  0  0  0
 17 18  2  0  0  0
  2 19  1  0  0  0
M  END
> <minimizedAffinity>
-8.38820

$$$$
4FXQ_G9L_A_501


 27 30  0  0  0  0  0  0  0  0999 V2000
  -36.0303  -70.6894   -0.2363 N   0  0  0  0  0  0  0  0  0  0  0  0
  -35.1507  -74.7896   -0.0428 N   0  0  0  0  0  0  0  0  0  0  0  0
  -36.5582  -69.0974   -1.7653 O   0  0  0  0  0  0  0  0  0  0  0  0
  -35.1564  -76.8844    0.9822 O   0  0  0  0  0  0  0  0  0  0  0  0
  -37.1889  -75.8179    5.5702 F   0  0  0  0  0  0  0  0  0  0  0  0
  -37.1930  -73.7163    4.5151 C   0  0  0  0  0  0  0  0  0  0  0  0
  -36.8960  -72.9584    3.4027 C   0  0  0  0  0  0  0  0  0  0  0  0
  -36.3302  -75.7348    3.3886 C   0  0  0  0  0  0  0  0  0  0  0  0
  -35.0791  -72.6566   -1.2744 C   0  0  0  0  0  0  0  0  0  0  0  0
  -34.9938  -71.1981   -1.0786 C   0  0  0  0  0  0  0  0  0  0  0  0
  -36.2742  -71.3422    1.0214 C   0  0  0  0  0  0  0  0  0  0  0  0
  -36.8262  -69.5844   -0.6875 C   0  0  0  0  0  0  0  0  0  0  0  0
  -36.8995  -75.0939    4.5112 C   0  0  0  0  0  0  0  0  0  0  0  0
  -35.4218  -73.4497   -0.0657 C   0  0  0  0  0  0  0  0  0  0  0  0
  -35.9841  -72.8267    1.0514 C   0  0  0  0  0  0  0  0  0  0  0  0
  -35.4472  -75.5629    1.0494 C   0  0  0  0  0  0  0  0  0  0  0  0
  -36.3017  -73.6027    2.2630 C   0  0  0  0  0  0  0  0  0  0  0  0
  -36.0302  -74.9631    2.2575 C   0  0  0  0  0  0  0  0  0  0  0  0
  -34.7328  -75.2089   -0.8294 H   0  0  0  0  0  0  0  0  0  0  0  0
  -37.9423  -69.0159    0.1504 C   0  0  0  0  0  0  0  0  0  0  0  0
  -39.3544  -69.4348   -0.2553 C   0  0  0  0  0  0  0  0  0  0  0  0
  -39.4535  -70.4891   -1.2316 N   0  0  0  0  0  0  0  0  0  0  0  0
  -40.0827  -72.1977   -2.9358 C   0  0  0  0  0  0  0  0  0  0  0  0
  -40.8284  -70.7540   -2.7844 C   0  0  0  0  0  0  0  0  0  0  0  0
  -38.9096  -72.4008   -1.8117 C   0  0  0  0  0  0  0  0  0  0  0  0
  -40.2859  -70.1367   -2.5916 C   0  0  0  0  0  0  0  0  0  0  0  0
  -39.1397  -72.0759   -1.0687 C   0  0  0  0  0  0  0  0  0  0  0  0
 27 22  1  0  0  0
 22 26  1  0  0  0
 22 21  1  0  0  0
 12  1  1  0  0  0
  1 10  1  0  0  0
  1 11  1  0  0  0
 14  2  1  0  0  0
  2 16  1  0  0  0
  3 12  2  0  0  0
 16  4  2  0  0  0
 13  5  1  0  0  0
  7  6  2  0  0  0
  6 13  1  0  0  0
  7 17  1  0  0  0
 18  8  1  0  0  0
 13  8  2  0  0  0
 25 23  1  0  0  0
 23 24  1  0  0  0
 24 26  1  0  0  0
 25 27  1  0  0  0
 21 20  1  0  0  0
 20 12  1  0  0  0
 10  9  1  0  0  0
  9 14  1  0  0  0
 11 15  1  0  0  0
 15 14  2  0  0  0
 15 17  1  0  0  0
 18 16  1  0  0  0
 17 18  2  0  0  0
  2 19  1  0  0  0
M  END
> <minimizedAffinity>
-8.28406

$$$$
4FXQ_G9L_A_501


 27 30  0  0  0  0  0  0  0  0999 V2000
  -36.4598  -73.9821    1.5868 N   0  0  0  0  0  0  0  0  0  0  0  0
  -34.1916  -77.1985    0.1264 N   0  0  0  0  0  0  0  0  0  0  0  0
  -37.2593  -73.1716    3.5501 O   0  0  0  0  0  0  0  0  0  0  0  0
  -32.6773  -78.1950   -1.3410 O   0  0  0  0  0  0  0  0  0  0  0  0
  -31.8242  -74.4233   -4.7121 F   0  0  0  0  0  0  0  0  0  0  0  0
  -33.3374  -73.4276   -3.2125 C   0  0  0  0  0  0  0  0  0  0  0  0
  -34.1206  -73.5405   -2.0839 C   0  0  0  0  0  0  0  0  0  0  0  0
  -32.5687  -75.7551   -2.9301 C   0  0  0  0  0  0  0  0  0  0  0  0
  -35.7868  -76.2981    1.7744 C   0  0  0  0  0  0  0  0  0  0  0  0
  -36.8668  -75.3076    1.9329 C   0  0  0  0  0  0  0  0  0  0  0  0
  -35.7830  -73.7775    0.3347 C   0  0  0  0  0  0  0  0  0  0  0  0
  -36.6885  -72.9103    2.5126 C   0  0  0  0  0  0  0  0  0  0  0  0
  -32.5762  -74.5334   -3.6389 C   0  0  0  0  0  0  0  0  0  0  0  0
  -34.9429  -76.1424    0.5615 C   0  0  0  0  0  0  0  0  0  0  0  0
  -34.9431  -74.9392   -0.1487 C   0  0  0  0  0  0  0  0  0  0  0  0
  -33.3986  -77.1039   -0.9876 C   0  0  0  0  0  0  0  0  0  0  0  0
  -34.1290  -74.7870   -1.3674 C   0  0  0  0  0  0  0  0  0  0  0  0
  -33.3645  -75.8680   -1.7817 C   0  0  0  0  0  0  0  0  0  0  0  0
  -34.2208  -78.0469    0.6249 H   0  0  0  0  0  0  0  0  0  0  0  0
  -36.2671  -71.4957    2.2088 C   0  0  0  0  0  0  0  0  0  0  0  0
  -37.3185  -70.6242    1.5238 C   0  0  0  0  0  0  0  0  0  0  0  0
  -37.3889  -70.7158    0.0880 N   0  0  0  0  0  0  0  0  0  0  0  0
  -37.6184  -71.3276   -2.3187 C   0  0  0  0  0  0  0  0  0  0  0  0
  -38.4689  -72.0371   -1.1201 C   0  0  0  0  0  0  0  0  0  0  0  0
  -36.5737  -70.2048   -1.7453 C   0  0  0  0  0  0  0  0  0  0  0  0
  -38.6936  -71.4850   -0.5224 C   0  0  0  0  0  0  0  0  0  0  0  0
  -36.2270  -70.4539   -1.0184 C   0  0  0  0  0  0  0  0  0  0  0  0
 27 22  1  0  0  0
 22 26  1  0  0  0
 22 21  1  0  0  0
 12  1  1  0  0  0
  1 10  1  0  0  0
  1 11  1  0  0  0
 14  2  1  0  0  0
  2 16  1  0  0  0
  3 12  2  0  0  0
 16  4  2  0  0  0
 13  5  1  0  0  0
  7  6  2  0  0  0
  6 13  1  0  0  0
  7 17  1  0  0  0
 18  8  1  0  0  0
 13  8  2  0  0  0
 25 23  1  0  0  0
 23 24  1  0  0  0
 24 26  1  0  0  0
 25 27  1  0  0  0
 21 20  1  0  0  0
 20 12  1  0  0  0
 10  9  1  0  0  0
  9 14  1  0  0  0
 11 15  1  0  0  0
 15 14  2  0  0  0
 15 17  1  0  0  0
 18 16  1  0  0  0
 17 18  2  0  0  0
  2 19  1  0  0  0
M  END
> <minimizedAffinity>
-7.74337

$$$$
4FXQ_G9L_A_501


 27 30  0  0  0  0  0  0  0  0999 V2000
  -36.7011  -72.7951    1.7420 N   0  0  0  0  0  0  0  0  0  0  0  0
  -36.4435  -75.5879    4.8656 N   0  0  0  0  0  0  0  0  0  0  0  0
  -36.6774  -70.5493    1.4148 O   0  0  0  0  0  0  0  0  0  0  0  0
  -35.8384  -77.6409    5.7918 O   0  0  0  0  0  0  0  0  0  0  0  0
  -33.9908  -80.1444    1.7129 F   0  0  0  0  0  0  0  0  0  0  0  0
  -34.5896  -78.0621    0.7988 C   0  0  0  0  0  0  0  0  0  0  0  0
  -35.1210  -76.8043    0.9871 C   0  0  0  0  0  0  0  0  0  0  0  0
  -34.9235  -78.5772    3.1886 C   0  0  0  0  0  0  0  0  0  0  0  0
  -37.1304  -73.3652    4.0534 C   0  0  0  0  0  0  0  0  0  0  0  0
  -37.5952  -72.6554    2.8482 C   0  0  0  0  0  0  0  0  0  0  0  0
  -36.2434  -74.1125    1.3924 C   0  0  0  0  0  0  0  0  0  0  0  0
  -36.2477  -71.6231    1.0500 C   0  0  0  0  0  0  0  0  0  0  0  0
  -34.5037  -78.9467    1.8915 C   0  0  0  0  0  0  0  0  0  0  0  0
  -36.5419  -74.7097    3.8223 C   0  0  0  0  0  0  0  0  0  0  0  0
  -36.1244  -75.0871    2.5435 C   0  0  0  0  0  0  0  0  0  0  0  0
  -35.9093  -76.8395    4.7017 C   0  0  0  0  0  0  0  0  0  0  0  0
  -35.5645  -76.4285    2.3022 C   0  0  0  0  0  0  0  0  0  0  0  0
  -35.4622  -77.2972    3.3789 C   0  0  0  0  0  0  0  0  0  0  0  0
  -36.7640  -75.3148    5.7555 H   0  0  0  0  0  0  0  0  0  0  0  0
  -35.2931  -71.7076   -0.1130 C   0  0  0  0  0  0  0  0  0  0  0  0
  -35.8801  -72.2546   -1.4132 C   0  0  0  0  0  0  0  0  0  0  0  0
  -36.8138  -71.4015   -2.1025 N   0  0  0  0  0  0  0  0  0  0  0  0
  -38.2371  -70.1049   -3.6876 C   0  0  0  0  0  0  0  0  0  0  0  0
  -37.6506  -71.5936   -4.0089 C   0  0  0  0  0  0  0  0  0  0  0  0
  -37.7433  -69.5556   -2.2264 C   0  0  0  0  0  0  0  0  0  0  0  0
  -37.6512  -72.0880   -3.3247 C   0  0  0  0  0  0  0  0  0  0  0  0
  -36.9466  -69.7816   -2.0689 C   0  0  0  0  0  0  0  0  0  0  0  0
 27 22  1  0  0  0
 22 26  1  0  0  0
 22 21  1  0  0  0
 12  1  1  0  0  0
  1 10  1  0  0  0
  1 11  1  0  0  0
 14  2  1  0  0  0
  2 16  1  0  0  0
  3 12  2  0  0  0
 16  4  2  0  0  0
 13  5  1  0  0  0
  7  6  2  0  0  0
  6 13  1  0  0  0
  7 17  1  0  0  0
 18  8  1  0  0  0
 13  8  2  0  0  0
 25 23  1  0  0  0
 23 24  1  0  0  0
 24 26  1  0  0  0
 25 27  1  0  0  0
 21 20  1  0  0  0
 20 12  1  0  0  0
 10  9  1  0  0  0
  9 14  1  0  0  0
 11 15  1  0  0  0
 15 14  2  0  0  0
 15 17  1  0  0  0
 18 16  1  0  0  0
 17 18  2  0  0  0
  2 19  1  0  0  0
M  END
> <minimizedAffinity>
-7.74115

$$$$
4FXQ_G9L_A_501


 27 30  0  0  0  0  0  0  0  0999 V2000
  -35.7073  -76.5221    1.8632 N   0  0  0  0  0  0  0  0  0  0  0  0
  -32.8450  -78.1708   -0.7275 N   0  0  0  0  0  0  0  0  0  0  0  0
  -36.3620  -76.6474    4.0327 O   0  0  0  0  0  0  0  0  0  0  0  0
  -31.3779  -78.1041   -2.5392 O   0  0  0  0  0  0  0  0  0  0  0  0
  -32.3436  -73.4711   -4.5192 F   0  0  0  0  0  0  0  0  0  0  0  0
  -33.8038  -73.5475   -2.6775 C   0  0  0  0  0  0  0  0  0  0  0  0
  -34.3026  -74.2486   -1.6007 C   0  0  0  0  0  0  0  0  0  0  0  0
  -32.3130  -75.4333   -3.2338 C   0  0  0  0  0  0  0  0  0  0  0  0
  -34.3262  -78.4038    1.2279 C   0  0  0  0  0  0  0  0  0  0  0  0
  -35.6151  -77.9457    1.7769 C   0  0  0  0  0  0  0  0  0  0  0  0
  -35.3581  -75.7410    0.7077 C   0  0  0  0  0  0  0  0  0  0  0  0
  -36.0917  -75.9148    3.1048 C   0  0  0  0  0  0  0  0  0  0  0  0
  -32.8239  -74.1427   -3.4957 C   0  0  0  0  0  0  0  0  0  0  0  0
  -33.7988  -77.6190    0.0819 C   0  0  0  0  0  0  0  0  0  0  0  0
  -34.2972  -76.3420   -0.1881 C   0  0  0  0  0  0  0  0  0  0  0  0
  -32.3288  -77.4869   -1.7973 C   0  0  0  0  0  0  0  0  0  0  0  0
  -33.7976  -75.5691   -1.3387 C   0  0  0  0  0  0  0  0  0  0  0  0
  -32.8201  -76.1444   -2.1375 C   0  0  0  0  0  0  0  0  0  0  0  0
  -32.5213  -79.0810   -0.5374 H   0  0  0  0  0  0  0  0  0  0  0  0
  -36.1908  -74.4191    3.2595 C   0  0  0  0  0  0  0  0  0  0  0  0
  -37.4200  -73.7680    2.6277 C   0  0  0  0  0  0  0  0  0  0  0  0
  -37.1771  -72.6244    1.7862 N   0  0  0  0  0  0  0  0  0  0  0  0
  -36.6423  -70.9659    0.0022 C   0  0  0  0  0  0  0  0  0  0  0  0
  -37.2403  -72.4546   -0.2968 C   0  0  0  0  0  0  0  0  0  0  0  0
  -36.3985  -70.7149    1.6017 C   0  0  0  0  0  0  0  0  0  0  0  0
  -37.8086  -72.6891    0.2817 C   0  0  0  0  0  0  0  0  0  0  0  0
  -36.1118  -71.4118    1.9795 C   0  0  0  0  0  0  0  0  0  0  0  0
 27 22  1  0  0  0
 22 26  1  0  0  0
 22 21  1  0  0  0
 12  1  1  0  0  0
  1 10  1  0  0  0
  1 11  1  0  0  0
 14  2  1  0  0  0
  2 16  1  0  0  0
  3 12  2  0  0  0
 16  4  2  0  0  0
 13  5  1  0  0  0
  7  6  2  0  0  0
  6 13  1  0  0  0
  7 17  1  0  0  0
 18  8  1  0  0  0
 13  8  2  0  0  0
 25 23  1  0  0  0
 23 24  1  0  0  0
 24 26  1  0  0  0
 25 27  1  0  0  0
 21 20  1  0  0  0
 20 12  1  0  0  0
 10  9  1  0  0  0
  9 14  1  0  0  0
 11 15  1  0  0  0
 15 14  2  0  0  0
 15 17  1  0  0  0
 18 16  1  0  0  0
 17 18  2  0  0  0
  2 19  1  0  0  0
M  END
> <minimizedAffinity>
-7.54881

$$$$
4FXQ_G9L_A_501


 27 30  0  0  0  0  0  0  0  0999 V2000
  -37.1594  -71.9710    1.3646 N   0  0  0  0  0  0  0  0  0  0  0  0
  -38.7913  -69.9660   -1.9430 N   0  0  0  0  0  0  0  0  0  0  0  0
  -37.8281  -73.0041    3.2716 O   0  0  0  0  0  0  0  0  0  0  0  0
  -38.8449  -69.3293   -4.1859 O   0  0  0  0  0  0  0  0  0  0  0  0
  -34.4725  -71.3371   -5.9660 F   0  0  0  0  0  0  0  0  0  0  0  0
  -34.4432  -71.9867   -3.7061 C   0  0  0  0  0  0  0  0  0  0  0  0
  -35.0544  -71.9730   -2.4707 C   0  0  0  0  0  0  0  0  0  0  0  0
  -36.2904  -70.6515   -4.6512 C   0  0  0  0  0  0  0  0  0  0  0  0
  -38.8972  -70.5610    0.4458 C   0  0  0  0  0  0  0  0  0  0  0  0
  -38.0484  -70.8788    1.6082 C   0  0  0  0  0  0  0  0  0  0  0  0
  -36.3670  -71.9557    0.1649 C   0  0  0  0  0  0  0  0  0  0  0  0
  -37.1209  -73.0678    2.2885 C   0  0  0  0  0  0  0  0  0  0  0  0
  -35.0526  -71.3186   -4.7860 C   0  0  0  0  0  0  0  0  0  0  0  0
  -38.2209  -70.6034   -0.8764 C   0  0  0  0  0  0  0  0  0  0  0  0
  -36.9957  -71.2590   -1.0218 C   0  0  0  0  0  0  0  0  0  0  0  0
  -38.2050  -69.9758   -3.1819 C   0  0  0  0  0  0  0  0  0  0  0  0
  -36.3067  -71.2820   -2.3240 C   0  0  0  0  0  0  0  0  0  0  0  0
  -36.9115  -70.6399   -3.3947 C   0  0  0  0  0  0  0  0  0  0  0  0
  -39.6433  -69.4887   -1.8182 H   0  0  0  0  0  0  0  0  0  0  0  0
  -36.2153  -74.2533    2.0756 C   0  0  0  0  0  0  0  0  0  0  0  0
  -36.7331  -75.5869    2.6118 C   0  0  0  0  0  0  0  0  0  0  0  0
  -36.2677  -75.9754    3.9184 N   0  0  0  0  0  0  0  0  0  0  0  0
  -35.6084  -77.0793    6.0552 C   0  0  0  0  0  0  0  0  0  0  0  0
  -35.6100  -77.8360    4.6093 C   0  0  0  0  0  0  0  0  0  0  0  0
  -36.1304  -75.5321    5.9361 C   0  0  0  0  0  0  0  0  0  0  0  0
  -35.3542  -77.3273    3.9861 C   0  0  0  0  0  0  0  0  0  0  0  0
  -36.7610  -75.4648    5.3808 C   0  0  0  0  0  0  0  0  0  0  0  0
 27 22  1  0  0  0
 22 26  1  0  0  0
 22 21  1  0  0  0
 12  1  1  0  0  0
  1 10  1  0  0  0
  1 11  1  0  0  0
 14  2  1  0  0  0
  2 16  1  0  0  0
  3 12  2  0  0  0
 16  4  2  0  0  0
 13  5  1  0  0  0
  7  6  2  0  0  0
  6 13  1  0  0  0
  7 17  1  0  0  0
 18  8  1  0  0  0
 13  8  2  0  0  0
 25 23  1  0  0  0
 23 24  1  0  0  0
 24 26  1  0  0  0
 25 27  1  0  0  0
 21 20  1  0  0  0
 20 12  1  0  0  0
 10  9  1  0  0  0
  9 14  1  0  0  0
 11 15  1  0  0  0
 15 14  2  0  0  0
 15 17  1  0  0  0
 18 16  1  0  0  0
 17 18  2  0  0  0
  2 19  1  0  0  0
M  END
> <minimizedAffinity>
-7.44493

$$$$
