2CTC_HFA_A_309


 14 14  0  0  0  0  0  0  0  0999 V2000
   -2.8978   30.9332   -8.1364 O   0  0  0  0  0  0  0  0  0  0  0  0
   -2.2200   30.3106   -8.9277 C   0  0  0  0  0  0  0  0  0  0  0  0
   -3.1681   30.3480   -7.4115 H   0  0  0  0  0  0  0  0  0  0  0  0
   -1.0540   29.5708   -8.2845 C   0  0  0  0  0  0  0  0  0  0  0  0
   -0.9850   28.4405   -8.8170 O   0  0  0  0  0  0  0  0  0  0  0  0
   -0.2851   30.0687   -7.4312 O   0  0  0  0  0  0  0  0  0  0  0  0
   -0.4433   30.9330   -7.1057 H   0  0  0  0  0  0  0  0  0  0  0  0
   -1.7492   31.1680  -10.1106 C   0  0  0  0  0  0  0  0  0  0  0  0
   -1.9750   30.3998  -11.3717 C   0  0  0  0  0  0  0  0  0  0  0  0
   -3.2769   29.9043  -11.6223 C   0  0  0  0  0  0  0  0  0  0  0  0
   -1.0087   30.0616  -12.3393 C   0  0  0  0  0  0  0  0  0  0  0  0
   -3.5746   29.1360  -12.7630 C   0  0  0  0  0  0  0  0  0  0  0  0
   -1.2851   29.3290  -13.4937 C   0  0  0  0  0  0  0  0  0  0  0  0
   -2.5865   28.8472  -13.7118 C   0  0  0  0  0  0  0  0  0  0  0  0
  1  2  1  0  0  0
  2  4  1  0  0  0
  2  8  1  0  0  0
  4  5  2  0  0  0
  4  6  1  0  0  0
  8  9  1  0  0  0
  9 10  2  0  0  0
  9 11  1  0  0  0
 10 12  1  0  0  0
 11 13  2  0  0  0
 12 14  2  0  0  0
 13 14  1  0  0  0
  1  3  1  0  0  0
  6  7  1  0  0  0
M  END
> <minimizedAffinity>
-6.91511

$$$$
2CTC_HFA_A_309


 14 14  0  0  0  0  0  0  0  0999 V2000
   -2.9120   31.0526   -8.2758 O   0  0  0  0  0  0  0  0  0  0  0  0
   -2.3023   30.3310   -9.0379 C   0  0  0  0  0  0  0  0  0  0  0  0
   -3.2314   30.5313   -7.5228 H   0  0  0  0  0  0  0  0  0  0  0  0
   -1.2073   29.5149   -8.3628 C   0  0  0  0  0  0  0  0  0  0  0  0
   -1.3378   28.3277   -8.7360 O   0  0  0  0  0  0  0  0  0  0  0  0
   -0.3147   29.9988   -7.6304 O   0  0  0  0  0  0  0  0  0  0  0  0
   -0.3252   30.9118   -7.4200 H   0  0  0  0  0  0  0  0  0  0  0  0
   -1.7607   31.0819  -10.2622 C   0  0  0  0  0  0  0  0  0  0  0  0
   -2.0145   30.2513  -11.4776 C   0  0  0  0  0  0  0  0  0  0  0  0
   -0.9463   30.0624  -12.3866 C   0  0  0  0  0  0  0  0  0  0  0  0
   -3.2359   29.6610  -11.8574 C   0  0  0  0  0  0  0  0  0  0  0  0
   -1.1027   29.3298  -13.5778 C   0  0  0  0  0  0  0  0  0  0  0  0
   -3.4084   28.9038  -13.0161 C   0  0  0  0  0  0  0  0  0  0  0  0
   -2.3297   28.7382  -13.9007 C   0  0  0  0  0  0  0  0  0  0  0  0
  1  2  1  0  0  0
  2  4  1  0  0  0
  2  8  1  0  0  0
  4  5  2  0  0  0
  4  6  1  0  0  0
  8  9  1  0  0  0
  9 10  2  0  0  0
  9 11  1  0  0  0
 10 12  1  0  0  0
 11 13  2  0  0  0
 12 14  2  0  0  0
 13 14  1  0  0  0
  1  3  1  0  0  0
  6  7  1  0  0  0
M  END
> <minimizedAffinity>
-6.76214

$$$$
2CTC_HFA_A_309


 14 14  0  0  0  0  0  0  0  0999 V2000
   -2.1188   27.9206  -14.8063 O   0  0  0  0  0  0  0  0  0  0  0  0
   -2.5646   28.0319  -13.6828 C   0  0  0  0  0  0  0  0  0  0  0  0
   -1.6018   27.1023  -14.8694 H   0  0  0  0  0  0  0  0  0  0  0  0
   -3.3234   26.8017  -13.2017 C   0  0  0  0  0  0  0  0  0  0  0  0
   -3.4162   26.0138  -14.1694 O   0  0  0  0  0  0  0  0  0  0  0  0
   -3.7041   26.6222  -12.0226 O   0  0  0  0  0  0  0  0  0  0  0  0
   -3.5774   27.2942  -11.3820 H   0  0  0  0  0  0  0  0  0  0  0  0
   -3.3991   29.3068  -13.4980 C   0  0  0  0  0  0  0  0  0  0  0  0
   -2.9524   29.9878  -12.2458 C   0  0  0  0  0  0  0  0  0  0  0  0
   -1.5610   30.1176  -12.0216 C   0  0  0  0  0  0  0  0  0  0  0  0
   -3.7742   30.4838  -11.2147 C   0  0  0  0  0  0  0  0  0  0  0  0
   -1.0469   30.7078  -10.8522 C   0  0  0  0  0  0  0  0  0  0  0  0
   -3.2903   31.1014  -10.0614 C   0  0  0  0  0  0  0  0  0  0  0  0
   -1.9035   31.2112   -9.8659 C   0  0  0  0  0  0  0  0  0  0  0  0
  1  2  1  0  0  0
  2  4  1  0  0  0
  2  8  1  0  0  0
  4  5  2  0  0  0
  4  6  1  0  0  0
  8  9  1  0  0  0
  9 10  2  0  0  0
  9 11  1  0  0  0
 10 12  1  0  0  0
 11 13  2  0  0  0
 12 14  2  0  0  0
 13 14  1  0  0  0
  1  3  1  0  0  0
  6  7  1  0  0  0
M  END
> <minimizedAffinity>
-6.68835

$$$$
2CTC_HFA_A_309


 14 14  0  0  0  0  0  0  0  0999 V2000
   -3.7234   28.8776   -9.2672 O   0  0  0  0  0  0  0  0  0  0  0  0
   -2.6992   29.4760   -9.5242 C   0  0  0  0  0  0  0  0  0  0  0  0
   -3.5449   28.2075   -8.5889 H   0  0  0  0  0  0  0  0  0  0  0  0
   -1.9937   30.0360   -8.2956 C   0  0  0  0  0  0  0  0  0  0  0  0
   -0.7878   30.1912   -8.5915 O   0  0  0  0  0  0  0  0  0  0  0  0
   -2.5699   30.3390   -7.2263 O   0  0  0  0  0  0  0  0  0  0  0  0
   -3.4861   30.1713   -7.1240 H   0  0  0  0  0  0  0  0  0  0  0  0
   -2.8960   30.5592  -10.5937 C   0  0  0  0  0  0  0  0  0  0  0  0
   -2.4519   30.0110  -11.9104 C   0  0  0  0  0  0  0  0  0  0  0  0
   -3.3029   29.0896  -12.5661 C   0  0  0  0  0  0  0  0  0  0  0  0
   -1.2335   30.2733  -12.5670 C   0  0  0  0  0  0  0  0  0  0  0  0
   -2.9501   28.4902  -13.7893 C   0  0  0  0  0  0  0  0  0  0  0  0
   -0.8745   29.7171  -13.7948 C   0  0  0  0  0  0  0  0  0  0  0  0
   -1.7390   28.8022  -14.4186 C   0  0  0  0  0  0  0  0  0  0  0  0
  1  2  1  0  0  0
  2  4  1  0  0  0
  2  8  1  0  0  0
  4  5  2  0  0  0
  4  6  1  0  0  0
  8  9  1  0  0  0
  9 10  2  0  0  0
  9 11  1  0  0  0
 10 12  1  0  0  0
 11 13  2  0  0  0
 12 14  2  0  0  0
 13 14  1  0  0  0
  1  3  1  0  0  0
  6  7  1  0  0  0
M  END
> <minimizedAffinity>
-6.52430

$$$$
2CTC_HFA_A_309


 14 14  0  0  0  0  0  0  0  0999 V2000
   -0.4914   29.7237   -6.8041 O   0  0  0  0  0  0  0  0  0  0  0  0
   -1.6891   29.6793   -6.9962 C   0  0  0  0  0  0  0  0  0  0  0  0
   -0.3041   30.3272   -6.0682 H   0  0  0  0  0  0  0  0  0  0  0  0
   -2.4982   29.3700   -5.7430 C   0  0  0  0  0  0  0  0  0  0  0  0
   -1.8426   29.7822   -4.7600 O   0  0  0  0  0  0  0  0  0  0  0  0
   -3.6411   28.8592   -5.7476 O   0  0  0  0  0  0  0  0  0  0  0  0
   -4.0296   28.5875   -6.5558 H   0  0  0  0  0  0  0  0  0  0  0  0
   -2.0718   28.7420   -8.1499 C   0  0  0  0  0  0  0  0  0  0  0  0
   -2.4893   29.5745   -9.3178 C   0  0  0  0  0  0  0  0  0  0  0  0
   -3.4583   29.0403  -10.2003 C   0  0  0  0  0  0  0  0  0  0  0  0
   -1.9826   30.8384   -9.6783 C   0  0  0  0  0  0  0  0  0  0  0  0
   -3.8828   29.7341  -11.3486 C   0  0  0  0  0  0  0  0  0  0  0  0
   -2.4098   31.5602  -10.7930 C   0  0  0  0  0  0  0  0  0  0  0  0
   -3.3700   31.0009  -11.6523 C   0  0  0  0  0  0  0  0  0  0  0  0
  1  2  1  0  0  0
  2  4  1  0  0  0
  2  8  1  0  0  0
  4  5  2  0  0  0
  4  6  1  0  0  0
  8  9  1  0  0  0
  9 10  2  0  0  0
  9 11  1  0  0  0
 10 12  1  0  0  0
 11 13  2  0  0  0
 12 14  2  0  0  0
 13 14  1  0  0  0
  1  3  1  0  0  0
  6  7  1  0  0  0
M  END
> <minimizedAffinity>
-6.51970

$$$$
2CTC_HFA_A_309


 14 14  0  0  0  0  0  0  0  0999 V2000
   -3.5970   27.6040  -11.8749 O   0  0  0  0  0  0  0  0  0  0  0  0
   -3.6825   28.1393  -12.9609 C   0  0  0  0  0  0  0  0  0  0  0  0
   -3.5681   26.6413  -11.9903 H   0  0  0  0  0  0  0  0  0  0  0  0
   -2.6197   27.6834  -13.9525 C   0  0  0  0  0  0  0  0  0  0  0  0
   -2.6053   26.4322  -13.9407 O   0  0  0  0  0  0  0  0  0  0  0  0
   -1.9541   28.4548  -14.6798 O   0  0  0  0  0  0  0  0  0  0  0  0
   -2.0537   29.3825  -14.5935 H   0  0  0  0  0  0  0  0  0  0  0  0
   -3.7338   29.6705  -12.8665 C   0  0  0  0  0  0  0  0  0  0  0  0
   -2.9471   30.0979  -11.6708 C   0  0  0  0  0  0  0  0  0  0  0  0
   -1.5440   30.2215  -11.8097 C   0  0  0  0  0  0  0  0  0  0  0  0
   -3.4457   30.3507  -10.3778 C   0  0  0  0  0  0  0  0  0  0  0  0
   -0.7172   30.5788  -10.7287 C   0  0  0  0  0  0  0  0  0  0  0  0
   -2.6515   30.7372   -9.2982 C   0  0  0  0  0  0  0  0  0  0  0  0
   -1.2612   30.8469   -9.4669 C   0  0  0  0  0  0  0  0  0  0  0  0
  1  2  1  0  0  0
  2  4  1  0  0  0
  2  8  1  0  0  0
  4  5  2  0  0  0
  4  6  1  0  0  0
  8  9  1  0  0  0
  9 10  2  0  0  0
  9 11  1  0  0  0
 10 12  1  0  0  0
 11 13  2  0  0  0
 12 14  2  0  0  0
 13 14  1  0  0  0
  1  3  1  0  0  0
  6  7  1  0  0  0
M  END
> <minimizedAffinity>
-6.05384

$$$$
2CTC_HFA_A_309


 14 14  0  0  0  0  0  0  0  0999 V2000
   -1.9389   28.0121  -13.5215 O   0  0  0  0  0  0  0  0  0  0  0  0
   -1.6466   29.1354  -13.8764 C   0  0  0  0  0  0  0  0  0  0  0  0
   -2.5537   27.6205  -14.1615 H   0  0  0  0  0  0  0  0  0  0  0  0
   -1.1487   29.2121  -15.3141 C   0  0  0  0  0  0  0  0  0  0  0  0
   -0.2124   30.0417  -15.3449 O   0  0  0  0  0  0  0  0  0  0  0  0
   -1.5801   28.5019  -16.2504 O   0  0  0  0  0  0  0  0  0  0  0  0
   -2.2935   27.9131  -16.1014 H   0  0  0  0  0  0  0  0  0  0  0  0
   -0.6726   29.8284  -12.9135 C   0  0  0  0  0  0  0  0  0  0  0  0
   -1.4386   30.2933  -11.7183 C   0  0  0  0  0  0  0  0  0  0  0  0
   -0.8527   30.1108  -10.4430 C   0  0  0  0  0  0  0  0  0  0  0  0
   -2.7279   30.8609  -11.7097 C   0  0  0  0  0  0  0  0  0  0  0  0
   -1.5166   30.4802   -9.2585 C   0  0  0  0  0  0  0  0  0  0  0  0
   -3.3938   31.2645  -10.5524 C   0  0  0  0  0  0  0  0  0  0  0  0
   -2.7874   31.0660   -9.3008 C   0  0  0  0  0  0  0  0  0  0  0  0
  1  2  1  0  0  0
  2  4  1  0  0  0
  2  8  1  0  0  0
  4  5  2  0  0  0
  4  6  1  0  0  0
  8  9  1  0  0  0
  9 10  2  0  0  0
  9 11  1  0  0  0
 10 12  1  0  0  0
 11 13  2  0  0  0
 12 14  2  0  0  0
 13 14  1  0  0  0
  1  3  1  0  0  0
  6  7  1  0  0  0
M  END
> <minimizedAffinity>
-5.92727

$$$$
2CTC_HFA_A_309


 14 14  0  0  0  0  0  0  0  0999 V2000
    0.2311   30.5241  -14.9388 O   0  0  0  0  0  0  0  0  0  0  0  0
   -0.1355   30.2961  -13.8044 C   0  0  0  0  0  0  0  0  0  0  0  0
    1.1200   30.9118  -14.9196 H   0  0  0  0  0  0  0  0  0  0  0  0
    0.8607   29.4778  -12.9929 C   0  0  0  0  0  0  0  0  0  0  0  0
    2.0006   29.7038  -13.4570 O   0  0  0  0  0  0  0  0  0  0  0  0
    0.5575   28.7750  -12.0023 O   0  0  0  0  0  0  0  0  0  0  0  0
   -0.3404   28.6819  -11.7512 H   0  0  0  0  0  0  0  0  0  0  0  0
   -1.5396   29.6786  -13.7463 C   0  0  0  0  0  0  0  0  0  0  0  0
   -2.2140   30.1522  -12.5005 C   0  0  0  0  0  0  0  0  0  0  0  0
   -3.4146   29.5114  -12.1117 C   0  0  0  0  0  0  0  0  0  0  0  0
   -1.8104   31.2199  -11.6751 C   0  0  0  0  0  0  0  0  0  0  0  0
   -4.1408   29.9158  -10.9763 C   0  0  0  0  0  0  0  0  0  0  0  0
   -2.4949   31.6194  -10.5272 C   0  0  0  0  0  0  0  0  0  0  0  0
   -3.6862   30.9662  -10.1701 C   0  0  0  0  0  0  0  0  0  0  0  0
  1  2  1  0  0  0
  2  4  1  0  0  0
  2  8  1  0  0  0
  4  5  2  0  0  0
  4  6  1  0  0  0
  8  9  1  0  0  0
  9 10  2  0  0  0
  9 11  1  0  0  0
 10 12  1  0  0  0
 11 13  2  0  0  0
 12 14  2  0  0  0
 13 14  1  0  0  0
  1  3  1  0  0  0
  6  7  1  0  0  0
M  END
> <minimizedAffinity>
-5.56655

$$$$
2CTC_HFA_A_309


 14 14  0  0  0  0  0  0  0  0999 V2000
   -2.0572   27.4596  -13.5184 O   0  0  0  0  0  0  0  0  0  0  0  0
   -2.1546   28.6195  -13.8628 C   0  0  0  0  0  0  0  0  0  0  0  0
   -1.2277   27.0898  -13.8590 H   0  0  0  0  0  0  0  0  0  0  0  0
   -0.9335   29.4635  -13.5202 C   0  0  0  0  0  0  0  0  0  0  0  0
   -0.3407   28.9013  -12.5725 O   0  0  0  0  0  0  0  0  0  0  0  0
   -0.5845   30.4890  -14.1477 O   0  0  0  0  0  0  0  0  0  0  0  0
   -1.1183   30.8162  -14.8447 H   0  0  0  0  0  0  0  0  0  0  0  0
   -3.4458   29.2816  -13.3624 C   0  0  0  0  0  0  0  0  0  0  0  0
   -3.2516   29.6800  -11.9358 C   0  0  0  0  0  0  0  0  0  0  0  0
   -2.9198   31.0286  -11.6632 C   0  0  0  0  0  0  0  0  0  0  0  0
   -3.3139   28.8384  -10.8079 C   0  0  0  0  0  0  0  0  0  0  0  0
   -2.6784   31.4862  -10.3546 C   0  0  0  0  0  0  0  0  0  0  0  0
   -3.1103   29.2741   -9.4985 C   0  0  0  0  0  0  0  0  0  0  0  0
   -2.7780   30.6181   -9.2608 C   0  0  0  0  0  0  0  0  0  0  0  0
  1  2  1  0  0  0
  2  4  1  0  0  0
  2  8  1  0  0  0
  4  5  2  0  0  0
  4  6  1  0  0  0
  8  9  1  0  0  0
  9 10  2  0  0  0
  9 11  1  0  0  0
 10 12  1  0  0  0
 11 13  2  0  0  0
 12 14  2  0  0  0
 13 14  1  0  0  0
  1  3  1  0  0  0
  6  7  1  0  0  0
M  END
> <minimizedAffinity>
-5.45654

$$$$
2CTC_HFA_A_309


 14 14  0  0  0  0  0  0  0  0999 V2000
   -2.1262   31.8957  -10.2233 O   0  0  0  0  0  0  0  0  0  0  0  0
   -2.3200   30.9037  -10.8953 C   0  0  0  0  0  0  0  0  0  0  0  0
   -2.9755   32.3131  -10.0106 H   0  0  0  0  0  0  0  0  0  0  0  0
   -3.3289   29.9392  -10.2848 C   0  0  0  0  0  0  0  0  0  0  0  0
   -2.6867   29.0800   -9.6405 O   0  0  0  0  0  0  0  0  0  0  0  0
   -4.5712   30.0636  -10.3773 O   0  0  0  0  0  0  0  0  0  0  0  0
   -4.9356   30.7541  -10.8952 H   0  0  0  0  0  0  0  0  0  0  0  0
   -1.0208   30.1807  -11.2766 C   0  0  0  0  0  0  0  0  0  0  0  0
   -1.0641   29.8673  -12.7364 C   0  0  0  0  0  0  0  0  0  0  0  0
   -2.0328   28.9390  -13.1869 C   0  0  0  0  0  0  0  0  0  0  0  0
   -0.2004   30.3630  -13.7328 C   0  0  0  0  0  0  0  0  0  0  0  0
   -2.1221   28.5517  -14.5368 C   0  0  0  0  0  0  0  0  0  0  0  0
   -0.2886   30.0195  -15.0818 C   0  0  0  0  0  0  0  0  0  0  0  0
   -1.2584   29.0918  -15.4971 C   0  0  0  0  0  0  0  0  0  0  0  0
  1  2  1  0  0  0
  2  4  1  0  0  0
  2  8  1  0  0  0
  4  5  2  0  0  0
  4  6  1  0  0  0
  8  9  1  0  0  0
  9 10  2  0  0  0
  9 11  1  0  0  0
 10 12  1  0  0  0
 11 13  2  0  0  0
 12 14  2  0  0  0
 13 14  1  0  0  0
  1  3  1  0  0  0
  6  7  1  0  0  0
M  END
> <minimizedAffinity>
-4.80731

$$$$
