4ZX1_5L3_A_304


 33 34  0  0  0  0  0  0  0  0999 V2000
   -0.0467    7.6552   81.5877 C   0  0  0  0  0  0  0  0  0  0  0  0
   -1.3753    6.9084   79.6356 C   0  0  0  0  0  0  0  0  0  0  0  0
   -0.1430    9.0575   81.0559 C   0  0  0  0  0  0  0  0  0  0  0  0
   -1.0792    9.2878   79.9448 C   0  0  0  0  0  0  0  0  0  0  0  0
   -1.7397   10.6151   80.1223 O   0  0  0  0  0  0  0  0  0  0  0  0
   -2.0854    8.2464   79.5842 C   0  0  0  0  0  0  0  0  0  0  0  0
   -2.5520    8.3601   78.2270 O   0  0  0  0  0  0  0  0  0  0  0  0
   -1.0969    6.8218   81.1104 O   0  0  0  0  0  0  0  0  0  0  0  0
   -2.3088   10.5906   80.9074 H   0  0  0  0  0  0  0  0  0  0  0  0
   -1.8029    8.2631   77.6184 H   0  0  0  0  0  0  0  0  0  0  0  0
   -0.2184    6.8287   78.7733 C   0  0  0  0  0  0  0  0  0  0  0  0
   -0.4966    6.6305   77.3860 O   0  0  0  0  0  0  0  0  0  0  0  0
   -0.9386    5.7757   77.2637 H   0  0  0  0  0  0  0  0  0  0  0  0
   -0.3279    7.4512   83.3461 S   0  0  0  0  0  0  0  0  0  0  0  0
    0.9412    7.9818   83.8339 O   0  0  0  0  0  0  0  0  0  0  0  0
   -1.2938    8.3837   83.9211 O   0  0  0  0  0  0  0  0  0  0  0  0
   -0.5702    6.1160   83.5452 N   0  0  0  0  0  0  0  0  0  0  0  0
   -1.7726    5.7032   84.2162 C   0  0  0  0  0  0  0  0  0  0  0  0
   -1.9030    4.1885   84.3010 C   0  0  0  0  0  0  0  0  0  0  0  0
    0.6270    5.2990   83.6603 C   0  0  0  0  0  0  0  0  0  0  0  0
    0.5409    4.1348   84.6248 C   0  0  0  0  0  0  0  0  0  0  0  0
   -0.6813    3.4249   84.4313 C   0  0  0  0  0  0  0  0  0  0  0  0
   -0.7446    2.8072   85.7736 O   0  0  0  0  0  0  0  0  0  0  0  0
   -0.6103    1.3635   86.0920 S   0  0  0  0  0  0  0  0  0  0  0  0
   -0.3748    0.3829   85.0834 O   0  0  0  0  0  0  0  0  0  0  0  0
    0.7715    1.3899   86.3363 O   0  0  0  0  0  0  0  0  0  0  0  0
   -1.0927    0.9521   87.4602 N   0  0  0  0  0  0  0  0  0  0  0  0
   -2.1104    0.8841   87.4556 H   0  0  0  0  0  0  0  0  0  0  0  0
   -0.8015    1.6478   88.1468 H   0  0  0  0  0  0  0  0  0  0  0  0
   -0.4162    9.9824   82.1990 O   0  0  0  0  0  0  0  0  0  0  0  0
    0.6457   11.4596   83.8873 C   0  0  0  0  0  0  0  0  0  0  0  0
    0.3079   11.1389   82.4714 C   0  0  0  0  0  0  0  0  0  0  0  0
    0.6269   11.8833   81.5884 O   0  0  0  0  0  0  0  0  0  0  0  0
  1  3  1  0  0  0
  1  8  1  0  0  0
  1 14  1  0  0  0
 30 32  1  0  0  0
 30  3  1  0  0  0
  2  6  1  0  0  0
  2 11  1  0  0  0
  2  8  1  0  0  0
 31 32  1  0  0  0
 32 33  2  0  0  0
  3  4  1  0  0  0
  4  5  1  0  0  0
  4  6  1  0  0  0
  6  7  1  0  0  0
 11 12  1  0  0  0
 14 15  2  0  0  0
 14 16  2  0  0  0
 14 17  1  0  0  0
 17 18  1  0  0  0
 17 20  1  0  0  0
 18 19  1  0  0  0
 19 22  1  0  0  0
 20 21  1  0  0  0
 21 22  1  0  0  0
 22 23  1  0  0  0
 23 24  1  0  0  0
 24 25  2  0  0  0
 24 26  2  0  0  0
 24 27  1  0  0  0
  5  9  1  0  0  0
  7 10  1  0  0  0
 12 13  1  0  0  0
 27 28  1  0  0  0
 27 29  1  0  0  0
M  END
> <minimizedAffinity>
-7.41517

$$$$
4ZX1_5L3_A_304


 33 34  0  0  0  0  0  0  0  0999 V2000
    1.2628    6.2977   81.2060 C   0  0  0  0  0  0  0  0  0  0  0  0
   -0.5436    5.9601   79.5458 C   0  0  0  0  0  0  0  0  0  0  0  0
    0.5942    7.5846   81.6002 C   0  0  0  0  0  0  0  0  0  0  0  0
   -0.7554    7.8267   81.0674 C   0  0  0  0  0  0  0  0  0  0  0  0
   -1.5855    8.4981   82.1112 O   0  0  0  0  0  0  0  0  0  0  0  0
   -1.5186    6.7163   80.4259 C   0  0  0  0  0  0  0  0  0  0  0  0
   -2.5392    7.1821   79.5237 O   0  0  0  0  0  0  0  0  0  0  0  0
    0.3584    5.3812   80.5999 O   0  0  0  0  0  0  0  0  0  0  0  0
   -1.7313    7.8874   82.8506 H   0  0  0  0  0  0  0  0  0  0  0  0
   -2.1306    7.7016   78.8137 H   0  0  0  0  0  0  0  0  0  0  0  0
    0.1034    6.7841   78.5503 C   0  0  0  0  0  0  0  0  0  0  0  0
   -0.5981    6.9208   77.3132 O   0  0  0  0  0  0  0  0  0  0  0  0
   -0.6724    6.0531   76.8860 H   0  0  0  0  0  0  0  0  0  0  0  0
    1.8334    5.2552   82.5478 S   0  0  0  0  0  0  0  0  0  0  0  0
    2.5282    4.2430   81.7584 O   0  0  0  0  0  0  0  0  0  0  0  0
    2.9180    5.8246   83.3432 O   0  0  0  0  0  0  0  0  0  0  0  0
    0.7125    4.8599   83.2321 N   0  0  0  0  0  0  0  0  0  0  0  0
    0.6545    5.0252   84.6589 C   0  0  0  0  0  0  0  0  0  0  0  0
   -0.6805    4.5845   85.2436 C   0  0  0  0  0  0  0  0  0  0  0  0
   -0.0156    3.7653   82.6110 C   0  0  0  0  0  0  0  0  0  0  0  0
   -0.6649    2.7816   83.5615 C   0  0  0  0  0  0  0  0  0  0  0  0
   -1.3545    3.4799   84.5969 C   0  0  0  0  0  0  0  0  0  0  0  0
   -1.3503    2.3819   85.5876 O   0  0  0  0  0  0  0  0  0  0  0  0
   -0.2105    1.4896   85.9167 S   0  0  0  0  0  0  0  0  0  0  0  0
    1.0383    1.9953   86.3848 O   0  0  0  0  0  0  0  0  0  0  0  0
   -0.5765    1.2622   87.2524 O   0  0  0  0  0  0  0  0  0  0  0  0
   -0.3156    0.0801   85.3911 N   0  0  0  0  0  0  0  0  0  0  0  0
   -0.0741    0.0679   84.4002 H   0  0  0  0  0  0  0  0  0  0  0  0
   -1.2703   -0.2578   85.5126 H   0  0  0  0  0  0  0  0  0  0  0  0
    0.6194    7.6969   83.0914 O   0  0  0  0  0  0  0  0  0  0  0  0
    2.2529    8.7273   84.6503 C   0  0  0  0  0  0  0  0  0  0  0  0
    1.0373    8.8233   83.7930 C   0  0  0  0  0  0  0  0  0  0  0  0
    0.4140    9.8451   83.7373 O   0  0  0  0  0  0  0  0  0  0  0  0
  1  3  1  0  0  0
  1  8  1  0  0  0
  1 14  1  0  0  0
 30 32  1  0  0  0
 30  3  1  0  0  0
  2  6  1  0  0  0
  2 11  1  0  0  0
  2  8  1  0  0  0
 31 32  1  0  0  0
 32 33  2  0  0  0
  3  4  1  0  0  0
  4  5  1  0  0  0
  4  6  1  0  0  0
  6  7  1  0  0  0
 11 12  1  0  0  0
 14 15  2  0  0  0
 14 16  2  0  0  0
 14 17  1  0  0  0
 17 18  1  0  0  0
 17 20  1  0  0  0
 18 19  1  0  0  0
 19 22  1  0  0  0
 20 21  1  0  0  0
 21 22  1  0  0  0
 22 23  1  0  0  0
 23 24  1  0  0  0
 24 25  2  0  0  0
 24 26  2  0  0  0
 24 27  1  0  0  0
  5  9  1  0  0  0
  7 10  1  0  0  0
 12 13  1  0  0  0
 27 28  1  0  0  0
 27 29  1  0  0  0
M  END
> <minimizedAffinity>
-7.26899

$$$$
4ZX1_5L3_A_304


 33 34  0  0  0  0  0  0  0  0999 V2000
   -0.3090    7.9473   82.2402 C   0  0  0  0  0  0  0  0  0  0  0  0
    0.3313    9.2925   84.2186 C   0  0  0  0  0  0  0  0  0  0  0  0
    1.1537    7.7171   81.9834 C   0  0  0  0  0  0  0  0  0  0  0  0
    2.0898    8.1211   83.0438 C   0  0  0  0  0  0  0  0  0  0  0  0
    3.1995    7.1258   83.1289 O   0  0  0  0  0  0  0  0  0  0  0  0
    1.5806    8.4551   84.4062 C   0  0  0  0  0  0  0  0  0  0  0  0
    2.4775    9.2995   85.1514 O   0  0  0  0  0  0  0  0  0  0  0  0
   -0.5762    8.2652   83.6014 O   0  0  0  0  0  0  0  0  0  0  0  0
    2.8485    6.2758   83.4373 H   0  0  0  0  0  0  0  0  0  0  0  0
    2.6045   10.1354   84.6760 H   0  0  0  0  0  0  0  0  0  0  0  0
    0.5439   10.4906   83.4391 C   0  0  0  0  0  0  0  0  0  0  0  0
    0.9010   11.6556   84.1852 O   0  0  0  0  0  0  0  0  0  0  0  0
    0.1747   11.8918   84.7832 H   0  0  0  0  0  0  0  0  0  0  0  0
   -1.3770    6.5157   82.0902 S   0  0  0  0  0  0  0  0  0  0  0  0
   -2.6417    7.1468   82.4545 O   0  0  0  0  0  0  0  0  0  0  0  0
   -1.6307    6.0857   80.7176 O   0  0  0  0  0  0  0  0  0  0  0  0
   -0.8758    5.5694   82.9471 N   0  0  0  0  0  0  0  0  0  0  0  0
   -0.7308    4.2107   82.5009 C   0  0  0  0  0  0  0  0  0  0  0  0
   -0.1103    3.3113   83.5614 C   0  0  0  0  0  0  0  0  0  0  0  0
   -1.1358    5.8344   84.3529 C   0  0  0  0  0  0  0  0  0  0  0  0
   -1.3869    4.6173   85.2181 C   0  0  0  0  0  0  0  0  0  0  0  0
   -0.4151    3.6095   84.9437 C   0  0  0  0  0  0  0  0  0  0  0  0
   -1.2077    2.4590   85.4290 O   0  0  0  0  0  0  0  0  0  0  0  0
   -0.6821    1.2303   86.0752 S   0  0  0  0  0  0  0  0  0  0  0  0
   -0.1459    0.1458   85.3197 O   0  0  0  0  0  0  0  0  0  0  0  0
    0.6271    1.7023   86.2565 O   0  0  0  0  0  0  0  0  0  0  0  0
   -1.0741    1.0363   87.5183 N   0  0  0  0  0  0  0  0  0  0  0  0
   -2.0305    0.6851   87.5665 H   0  0  0  0  0  0  0  0  0  0  0  0
   -1.0141    1.9281   88.0097 H   0  0  0  0  0  0  0  0  0  0  0  0
    1.3501    6.2848   81.6002 O   0  0  0  0  0  0  0  0  0  0  0  0
    1.3305    4.9250   79.5239 C   0  0  0  0  0  0  0  0  0  0  0  0
    2.0225    5.8560   80.4600 C   0  0  0  0  0  0  0  0  0  0  0  0
    3.1503    6.2009   80.2486 O   0  0  0  0  0  0  0  0  0  0  0  0
  1  3  1  0  0  0
  1  8  1  0  0  0
  1 14  1  0  0  0
 30 32  1  0  0  0
 30  3  1  0  0  0
  2  6  1  0  0  0
  2 11  1  0  0  0
  2  8  1  0  0  0
 31 32  1  0  0  0
 32 33  2  0  0  0
  3  4  1  0  0  0
  4  5  1  0  0  0
  4  6  1  0  0  0
  6  7  1  0  0  0
 11 12  1  0  0  0
 14 15  2  0  0  0
 14 16  2  0  0  0
 14 17  1  0  0  0
 17 18  1  0  0  0
 17 20  1  0  0  0
 18 19  1  0  0  0
 19 22  1  0  0  0
 20 21  1  0  0  0
 21 22  1  0  0  0
 22 23  1  0  0  0
 23 24  1  0  0  0
 24 25  2  0  0  0
 24 26  2  0  0  0
 24 27  1  0  0  0
  5  9  1  0  0  0
  7 10  1  0  0  0
 12 13  1  0  0  0
 27 28  1  0  0  0
 27 29  1  0  0  0
M  END
> <minimizedAffinity>
-7.12564

$$$$
4ZX1_5L3_A_304


 33 34  0  0  0  0  0  0  0  0999 V2000
   -0.8289    6.9827   81.3146 C   0  0  0  0  0  0  0  0  0  0  0  0
   -1.2113    8.3240   79.2680 C   0  0  0  0  0  0  0  0  0  0  0  0
    0.5171    7.6400   81.4358 C   0  0  0  0  0  0  0  0  0  0  0  0
    0.7811    8.7890   80.5559 C   0  0  0  0  0  0  0  0  0  0  0  0
    1.5752    9.8102   81.3016 O   0  0  0  0  0  0  0  0  0  0  0  0
   -0.3390    9.4372   79.8128 C   0  0  0  0  0  0  0  0  0  0  0  0
    0.1015   10.1592   78.6477 O   0  0  0  0  0  0  0  0  0  0  0  0
   -1.7461    7.7629   80.5560 O   0  0  0  0  0  0  0  0  0  0  0  0
    1.0346   10.1814   82.0164 H   0  0  0  0  0  0  0  0  0  0  0  0
    0.5407    9.5483   78.0356 H   0  0  0  0  0  0  0  0  0  0  0  0
   -0.5038    7.3893   78.4228 C   0  0  0  0  0  0  0  0  0  0  0  0
   -1.0776    7.1690   77.1330 O   0  0  0  0  0  0  0  0  0  0  0  0
   -1.9574    6.7732   77.2338 H   0  0  0  0  0  0  0  0  0  0  0  0
   -1.7856    6.8464   82.8242 S   0  0  0  0  0  0  0  0  0  0  0  0
   -1.6032    8.2061   83.3225 O   0  0  0  0  0  0  0  0  0  0  0  0
   -3.2311    6.7816   82.6259 O   0  0  0  0  0  0  0  0  0  0  0  0
   -1.2191    5.8290   83.5488 N   0  0  0  0  0  0  0  0  0  0  0  0
   -0.9733    4.5594   82.9210 C   0  0  0  0  0  0  0  0  0  0  0  0
   -0.2920    3.5687   83.8552 C   0  0  0  0  0  0  0  0  0  0  0  0
   -1.5024    5.8768   84.9740 C   0  0  0  0  0  0  0  0  0  0  0  0
   -1.6665    4.5364   85.6592 C   0  0  0  0  0  0  0  0  0  0  0  0
   -0.6225    3.6493   85.2612 C   0  0  0  0  0  0  0  0  0  0  0  0
   -1.3301    2.3884   85.5721 O   0  0  0  0  0  0  0  0  0  0  0  0
   -0.7334    1.1547   86.1427 S   0  0  0  0  0  0  0  0  0  0  0  0
   -0.1656    0.1365   85.3210 O   0  0  0  0  0  0  0  0  0  0  0  0
    0.5565    1.6783   86.3206 O   0  0  0  0  0  0  0  0  0  0  0  0
   -1.0821    0.8695   87.5818 N   0  0  0  0  0  0  0  0  0  0  0  0
   -2.0199    0.4715   87.6319 H   0  0  0  0  0  0  0  0  0  0  0  0
   -1.0519    1.7370   88.1174 H   0  0  0  0  0  0  0  0  0  0  0  0
    0.7489    7.9889   82.8716 O   0  0  0  0  0  0  0  0  0  0  0  0
    2.2585    6.3188   83.9166 C   0  0  0  0  0  0  0  0  0  0  0  0
    1.9246    7.7292   83.5689 C   0  0  0  0  0  0  0  0  0  0  0  0
    2.6415    8.6249   83.9145 O   0  0  0  0  0  0  0  0  0  0  0  0
  1  3  1  0  0  0
  1  8  1  0  0  0
  1 14  1  0  0  0
 30 32  1  0  0  0
 30  3  1  0  0  0
  2  6  1  0  0  0
  2 11  1  0  0  0
  2  8  1  0  0  0
 31 32  1  0  0  0
 32 33  2  0  0  0
  3  4  1  0  0  0
  4  5  1  0  0  0
  4  6  1  0  0  0
  6  7  1  0  0  0
 11 12  1  0  0  0
 14 15  2  0  0  0
 14 16  2  0  0  0
 14 17  1  0  0  0
 17 18  1  0  0  0
 17 20  1  0  0  0
 18 19  1  0  0  0
 19 22  1  0  0  0
 20 21  1  0  0  0
 21 22  1  0  0  0
 22 23  1  0  0  0
 23 24  1  0  0  0
 24 25  2  0  0  0
 24 26  2  0  0  0
 24 27  1  0  0  0
  5  9  1  0  0  0
  7 10  1  0  0  0
 12 13  1  0  0  0
 27 28  1  0  0  0
 27 29  1  0  0  0
M  END
> <minimizedAffinity>
-7.06034

$$$$
4ZX1_5L3_A_304


 33 34  0  0  0  0  0  0  0  0999 V2000
   -0.6354    8.4815   83.2146 C   0  0  0  0  0  0  0  0  0  0  0  0
    1.5918    8.8170   84.2444 C   0  0  0  0  0  0  0  0  0  0  0  0
    0.0490    8.3891   81.8799 C   0  0  0  0  0  0  0  0  0  0  0  0
    1.5163    8.2848   81.8874 C   0  0  0  0  0  0  0  0  0  0  0  0
    1.9511    7.3546   80.8033 O   0  0  0  0  0  0  0  0  0  0  0  0
    2.2401    7.9835   83.1572 C   0  0  0  0  0  0  0  0  0  0  0  0
    3.6139    8.4134   83.1380 O   0  0  0  0  0  0  0  0  0  0  0  0
    0.2374    8.1665   84.2936 O   0  0  0  0  0  0  0  0  0  0  0  0
    1.6510    6.4554   81.0091 H   0  0  0  0  0  0  0  0  0  0  0  0
    3.6505    9.3734   83.0038 H   0  0  0  0  0  0  0  0  0  0  0  0
    1.5963   10.2362   83.9721 C   0  0  0  0  0  0  0  0  0  0  0  0
    2.8599   10.8872   84.1166 O   0  0  0  0  0  0  0  0  0  0  0  0
    3.1517   10.8254   85.0396 H   0  0  0  0  0  0  0  0  0  0  0  0
   -1.9078    7.2621   83.5413 S   0  0  0  0  0  0  0  0  0  0  0  0
   -2.7317    8.0451   84.4568 O   0  0  0  0  0  0  0  0  0  0  0  0
   -2.8237    7.0237   82.4288 O   0  0  0  0  0  0  0  0  0  0  0  0
   -1.2663    6.1637   84.0543 N   0  0  0  0  0  0  0  0  0  0  0  0
   -0.8670    5.0981   83.1761 C   0  0  0  0  0  0  0  0  0  0  0  0
   -0.1220    3.9887   83.9059 C   0  0  0  0  0  0  0  0  0  0  0  0
   -1.6060    5.8604   85.4351 C   0  0  0  0  0  0  0  0  0  0  0  0
   -1.6556    4.3903   85.7945 C   0  0  0  0  0  0  0  0  0  0  0  0
   -0.5112    3.7172   85.2724 C   0  0  0  0  0  0  0  0  0  0  0  0
   -1.0953    2.3587   85.2528 O   0  0  0  0  0  0  0  0  0  0  0  0
   -0.6180    1.1777   86.0150 S   0  0  0  0  0  0  0  0  0  0  0  0
   -0.0777    0.0261   85.3698 O   0  0  0  0  0  0  0  0  0  0  0  0
    0.6933    1.6400   86.2058 O   0  0  0  0  0  0  0  0  0  0  0  0
   -1.0646    1.1086   87.4537 N   0  0  0  0  0  0  0  0  0  0  0  0
   -2.0291    0.7792   87.4948 H   0  0  0  0  0  0  0  0  0  0  0  0
   -1.0039    2.0362   87.8734 H   0  0  0  0  0  0  0  0  0  0  0  0
   -0.5724    7.2726   81.1025 O   0  0  0  0  0  0  0  0  0  0  0  0
   -1.1934    8.7594   79.2146 C   0  0  0  0  0  0  0  0  0  0  0  0
   -1.2015    7.4209   79.8703 C   0  0  0  0  0  0  0  0  0  0  0  0
   -1.7695    6.4984   79.3584 O   0  0  0  0  0  0  0  0  0  0  0  0
  1  3  1  0  0  0
  1  8  1  0  0  0
  1 14  1  0  0  0
 30 32  1  0  0  0
 30  3  1  0  0  0
  2  6  1  0  0  0
  2 11  1  0  0  0
  2  8  1  0  0  0
 31 32  1  0  0  0
 32 33  2  0  0  0
  3  4  1  0  0  0
  4  5  1  0  0  0
  4  6  1  0  0  0
  6  7  1  0  0  0
 11 12  1  0  0  0
 14 15  2  0  0  0
 14 16  2  0  0  0
 14 17  1  0  0  0
 17 18  1  0  0  0
 17 20  1  0  0  0
 18 19  1  0  0  0
 19 22  1  0  0  0
 20 21  1  0  0  0
 21 22  1  0  0  0
 22 23  1  0  0  0
 23 24  1  0  0  0
 24 25  2  0  0  0
 24 26  2  0  0  0
 24 27  1  0  0  0
  5  9  1  0  0  0
  7 10  1  0  0  0
 12 13  1  0  0  0
 27 28  1  0  0  0
 27 29  1  0  0  0
M  END
> <minimizedAffinity>
-7.04902

$$$$
4ZX1_5L3_A_304


 33 34  0  0  0  0  0  0  0  0999 V2000
    0.0949    6.9051   81.4533 C   0  0  0  0  0  0  0  0  0  0  0  0
    1.0697    4.8200   80.5393 C   0  0  0  0  0  0  0  0  0  0  0  0
   -0.0018    7.4203   80.0448 C   0  0  0  0  0  0  0  0  0  0  0  0
    0.2424    6.4548   78.9621 C   0  0  0  0  0  0  0  0  0  0  0  0
   -0.6888    6.7367   77.8295 O   0  0  0  0  0  0  0  0  0  0  0  0
    0.2813    4.9924   79.2563 C   0  0  0  0  0  0  0  0  0  0  0  0
    1.0152    4.2393   78.2730 O   0  0  0  0  0  0  0  0  0  0  0  0
    0.1315    5.4835   81.5084 O   0  0  0  0  0  0  0  0  0  0  0  0
   -1.6000    6.5528   78.1067 H   0  0  0  0  0  0  0  0  0  0  0  0
    1.9322    4.5539   78.2431 H   0  0  0  0  0  0  0  0  0  0  0  0
    2.4046    5.3705   80.4819 C   0  0  0  0  0  0  0  0  0  0  0  0
    3.3760    4.5626   79.8147 O   0  0  0  0  0  0  0  0  0  0  0  0
    3.4879    3.7279   80.2961 H   0  0  0  0  0  0  0  0  0  0  0  0
   -1.3376    7.1718   82.4970 S   0  0  0  0  0  0  0  0  0  0  0  0
   -1.1105    8.5756   82.8261 O   0  0  0  0  0  0  0  0  0  0  0  0
   -2.6107    7.2242   81.7831 O   0  0  0  0  0  0  0  0  0  0  0  0
   -1.2441    6.2624   83.5195 N   0  0  0  0  0  0  0  0  0  0  0  0
    0.0453    5.9318   84.0621 C   0  0  0  0  0  0  0  0  0  0  0  0
   -0.0442    4.9503   85.2227 C   0  0  0  0  0  0  0  0  0  0  0  0
   -2.3010    5.2641   83.5338 C   0  0  0  0  0  0  0  0  0  0  0  0
   -1.8947    3.8799   83.9939 C   0  0  0  0  0  0  0  0  0  0  0  0
   -1.1045    3.9673   85.1785 C   0  0  0  0  0  0  0  0  0  0  0  0
   -0.4249    2.6614   85.0377 O   0  0  0  0  0  0  0  0  0  0  0  0
   -0.5227    1.5068   85.9657 S   0  0  0  0  0  0  0  0  0  0  0  0
   -0.4206    0.1583   85.5124 O   0  0  0  0  0  0  0  0  0  0  0  0
    0.8409    1.4602   86.2943 O   0  0  0  0  0  0  0  0  0  0  0  0
   -1.0920    1.8141   87.3278 N   0  0  0  0  0  0  0  0  0  0  0  0
   -2.1077    1.8836   87.2640 H   0  0  0  0  0  0  0  0  0  0  0  0
   -0.7112    2.6986   87.6639 H   0  0  0  0  0  0  0  0  0  0  0  0
   -1.3214    8.1041   79.8776 O   0  0  0  0  0  0  0  0  0  0  0  0
   -0.5386   10.4578   79.9647 C   0  0  0  0  0  0  0  0  0  0  0  0
   -1.4826    9.4211   79.4587 C   0  0  0  0  0  0  0  0  0  0  0  0
   -2.3838    9.7255   78.7303 O   0  0  0  0  0  0  0  0  0  0  0  0
  1  3  1  0  0  0
  1  8  1  0  0  0
  1 14  1  0  0  0
 30 32  1  0  0  0
 30  3  1  0  0  0
  2  6  1  0  0  0
  2 11  1  0  0  0
  2  8  1  0  0  0
 31 32  1  0  0  0
 32 33  2  0  0  0
  3  4  1  0  0  0
  4  5  1  0  0  0
  4  6  1  0  0  0
  6  7  1  0  0  0
 11 12  1  0  0  0
 14 15  2  0  0  0
 14 16  2  0  0  0
 14 17  1  0  0  0
 17 18  1  0  0  0
 17 20  1  0  0  0
 18 19  1  0  0  0
 19 22  1  0  0  0
 20 21  1  0  0  0
 21 22  1  0  0  0
 22 23  1  0  0  0
 23 24  1  0  0  0
 24 25  2  0  0  0
 24 26  2  0  0  0
 24 27  1  0  0  0
  5  9  1  0  0  0
  7 10  1  0  0  0
 12 13  1  0  0  0
 27 28  1  0  0  0
 27 29  1  0  0  0
M  END
> <minimizedAffinity>
-7.02774

$$$$
4ZX1_5L3_A_304


 33 34  0  0  0  0  0  0  0  0999 V2000
    1.7645    7.0903   83.8736 C   0  0  0  0  0  0  0  0  0  0  0  0
    3.4768    8.8620   83.6225 C   0  0  0  0  0  0  0  0  0  0  0  0
    0.7298    8.0990   83.4608 C   0  0  0  0  0  0  0  0  0  0  0  0
    1.2203    9.3784   82.9254 C   0  0  0  0  0  0  0  0  0  0  0  0
    0.3283    9.8231   81.8136 O   0  0  0  0  0  0  0  0  0  0  0  0
    2.6537    9.5291   82.5388 C   0  0  0  0  0  0  0  0  0  0  0  0
    3.0953   10.8993   82.5364 O   0  0  0  0  0  0  0  0  0  0  0  0
    3.0670    7.4310   83.4122 O   0  0  0  0  0  0  0  0  0  0  0  0
    0.4113    9.2092   81.0672 H   0  0  0  0  0  0  0  0  0  0  0  0
    2.9936   11.2734   83.4256 H   0  0  0  0  0  0  0  0  0  0  0  0
    3.2404    9.3940   84.9452 C   0  0  0  0  0  0  0  0  0  0  0  0
    4.0013   10.5538   85.2877 O   0  0  0  0  0  0  0  0  0  0  0  0
    4.9455   10.3318   85.2905 H   0  0  0  0  0  0  0  0  0  0  0  0
    1.6361    5.4676   83.1234 S   0  0  0  0  0  0  0  0  0  0  0  0
    1.6485    5.8729   81.7213 O   0  0  0  0  0  0  0  0  0  0  0  0
    2.8450    4.6538   83.2202 O   0  0  0  0  0  0  0  0  0  0  0  0
    0.4803    4.9098   83.6072 N   0  0  0  0  0  0  0  0  0  0  0  0
    0.2494    4.8687   85.0255 C   0  0  0  0  0  0  0  0  0  0  0  0
   -1.1036    4.2665   85.3792 C   0  0  0  0  0  0  0  0  0  0  0  0
   -0.0841    3.8697   82.7625 C   0  0  0  0  0  0  0  0  0  0  0  0
   -0.7559    2.7229   83.4880 C   0  0  0  0  0  0  0  0  0  0  0  0
   -1.6108    3.2235   84.5146 C   0  0  0  0  0  0  0  0  0  0  0  0
   -1.6307    1.9994   85.3443 O   0  0  0  0  0  0  0  0  0  0  0  0
   -0.7632    1.7066   86.5128 S   0  0  0  0  0  0  0  0  0  0  0  0
   -1.1518    2.0304   87.8464 O   0  0  0  0  0  0  0  0  0  0  0  0
   -1.2370    0.4037   86.7309 O   0  0  0  0  0  0  0  0  0  0  0  0
    0.6763    1.3927   86.1912 N   0  0  0  0  0  0  0  0  0  0  0  0
    1.1790    2.2596   86.0009 H   0  0  0  0  0  0  0  0  0  0  0  0
    0.7173    0.7887   85.3703 H   0  0  0  0  0  0  0  0  0  0  0  0
   -0.2242    7.4424   82.5145 O   0  0  0  0  0  0  0  0  0  0  0  0
   -2.2000    7.9895   83.9134 C   0  0  0  0  0  0  0  0  0  0  0  0
   -1.5916    7.3098   82.7345 C   0  0  0  0  0  0  0  0  0  0  0  0
   -2.2654    6.6345   82.0096 O   0  0  0  0  0  0  0  0  0  0  0  0
  1  3  1  0  0  0
  1  8  1  0  0  0
  1 14  1  0  0  0
 30 32  1  0  0  0
 30  3  1  0  0  0
  2  6  1  0  0  0
  2 11  1  0  0  0
  2  8  1  0  0  0
 31 32  1  0  0  0
 32 33  2  0  0  0
  3  4  1  0  0  0
  4  5  1  0  0  0
  4  6  1  0  0  0
  6  7  1  0  0  0
 11 12  1  0  0  0
 14 15  2  0  0  0
 14 16  2  0  0  0
 14 17  1  0  0  0
 17 18  1  0  0  0
 17 20  1  0  0  0
 18 19  1  0  0  0
 19 22  1  0  0  0
 20 21  1  0  0  0
 21 22  1  0  0  0
 22 23  1  0  0  0
 23 24  1  0  0  0
 24 25  2  0  0  0
 24 26  2  0  0  0
 24 27  1  0  0  0
  5  9  1  0  0  0
  7 10  1  0  0  0
 12 13  1  0  0  0
 27 28  1  0  0  0
 27 29  1  0  0  0
M  END
> <minimizedAffinity>
-7.00844

$$$$
4ZX1_5L3_A_304


 33 34  0  0  0  0  0  0  0  0999 V2000
    1.4091    6.5855   81.7664 C   0  0  0  0  0  0  0  0  0  0  0  0
    2.0477    4.6370   80.3775 C   0  0  0  0  0  0  0  0  0  0  0  0
    0.5089    7.0273   80.6471 C   0  0  0  0  0  0  0  0  0  0  0  0
    0.2830    6.0694   79.5538 C   0  0  0  0  0  0  0  0  0  0  0  0
   -1.1353    6.1661   79.0973 O   0  0  0  0  0  0  0  0  0  0  0  0
    0.6855    4.6413   79.7130 C   0  0  0  0  0  0  0  0  0  0  0  0
    0.8905    3.9704   78.4559 O   0  0  0  0  0  0  0  0  0  0  0  0
    1.6774    5.1884   81.7261 O   0  0  0  0  0  0  0  0  0  0  0  0
   -1.7241    5.8585   79.8041 H   0  0  0  0  0  0  0  0  0  0  0  0
    1.5956    4.4173   77.9620 H   0  0  0  0  0  0  0  0  0  0  0  0
    3.0532    5.3786   79.6513 C   0  0  0  0  0  0  0  0  0  0  0  0
    4.1719    4.6157   79.1954 O   0  0  0  0  0  0  0  0  0  0  0  0
    4.6515    4.2575   79.9586 H   0  0  0  0  0  0  0  0  0  0  0  0
    0.7230    6.6736   83.4200 S   0  0  0  0  0  0  0  0  0  0  0  0
    1.9460    6.9980   84.1475 O   0  0  0  0  0  0  0  0  0  0  0  0
   -0.1076    7.8480   83.6734 O   0  0  0  0  0  0  0  0  0  0  0  0
    0.1499    5.4519   83.6650 N   0  0  0  0  0  0  0  0  0  0  0  0
   -1.2770    5.3039   83.5730 C   0  0  0  0  0  0  0  0  0  0  0  0
   -1.7325    3.8725   83.8222 C   0  0  0  0  0  0  0  0  0  0  0  0
    0.8956    4.6133   84.5894 C   0  0  0  0  0  0  0  0  0  0  0  0
    0.0641    3.7406   85.5059 C   0  0  0  0  0  0  0  0  0  0  0  0
   -0.9646    3.0876   84.7639 C   0  0  0  0  0  0  0  0  0  0  0  0
   -1.8752    2.8367   85.9019 O   0  0  0  0  0  0  0  0  0  0  0  0
   -1.6601    1.8774   87.0142 S   0  0  0  0  0  0  0  0  0  0  0  0
   -1.5742    2.2992   88.3740 O   0  0  0  0  0  0  0  0  0  0  0  0
   -3.0164    1.5874   87.2289 O   0  0  0  0  0  0  0  0  0  0  0  0
   -1.1787    0.5075   86.6071 N   0  0  0  0  0  0  0  0  0  0  0  0
   -0.1788    0.5436   86.4089 H   0  0  0  0  0  0  0  0  0  0  0  0
   -1.6802    0.2052   85.7720 H   0  0  0  0  0  0  0  0  0  0  0  0
   -0.7835    7.4991   81.2337 O   0  0  0  0  0  0  0  0  0  0  0  0
   -1.1728    9.9441   81.4093 C   0  0  0  0  0  0  0  0  0  0  0  0
   -1.4861    8.6196   80.8015 C   0  0  0  0  0  0  0  0  0  0  0  0
   -2.3518    8.5194   79.9792 O   0  0  0  0  0  0  0  0  0  0  0  0
  1  3  1  0  0  0
  1  8  1  0  0  0
  1 14  1  0  0  0
 30 32  1  0  0  0
 30  3  1  0  0  0
  2  6  1  0  0  0
  2 11  1  0  0  0
  2  8  1  0  0  0
 31 32  1  0  0  0
 32 33  2  0  0  0
  3  4  1  0  0  0
  4  5  1  0  0  0
  4  6  1  0  0  0
  6  7  1  0  0  0
 11 12  1  0  0  0
 14 15  2  0  0  0
 14 16  2  0  0  0
 14 17  1  0  0  0
 17 18  1  0  0  0
 17 20  1  0  0  0
 18 19  1  0  0  0
 19 22  1  0  0  0
 20 21  1  0  0  0
 21 22  1  0  0  0
 22 23  1  0  0  0
 23 24  1  0  0  0
 24 25  2  0  0  0
 24 26  2  0  0  0
 24 27  1  0  0  0
  5  9  1  0  0  0
  7 10  1  0  0  0
 12 13  1  0  0  0
 27 28  1  0  0  0
 27 29  1  0  0  0
M  END
> <minimizedAffinity>
-6.98270

$$$$
4ZX1_5L3_A_304


 33 34  0  0  0  0  0  0  0  0999 V2000
   -1.4250    7.2289   81.1940 C   0  0  0  0  0  0  0  0  0  0  0  0
   -2.0000    9.1232   79.7058 C   0  0  0  0  0  0  0  0  0  0  0  0
   -0.5578    6.6890   80.0918 C   0  0  0  0  0  0  0  0  0  0  0  0
   -0.3063    7.5750   78.9448 C   0  0  0  0  0  0  0  0  0  0  0  0
    1.1011    7.3940   78.4800 O   0  0  0  0  0  0  0  0  0  0  0  0
   -0.6475    9.0253   79.0288 C   0  0  0  0  0  0  0  0  0  0  0  0
   -0.8403    9.6341   77.7385 O   0  0  0  0  0  0  0  0  0  0  0  0
   -1.6360    8.6316   81.0790 O   0  0  0  0  0  0  0  0  0  0  0  0
    1.7108    7.7152   79.1627 H   0  0  0  0  0  0  0  0  0  0  0  0
   -1.5694    9.1906   77.2774 H   0  0  0  0  0  0  0  0  0  0  0  0
   -3.0442    8.3855   79.0320 C   0  0  0  0  0  0  0  0  0  0  0  0
   -3.7052    9.0812   77.9735 O   0  0  0  0  0  0  0  0  0  0  0  0
   -4.1621    9.8577   78.3328 H   0  0  0  0  0  0  0  0  0  0  0  0
   -0.7226    7.2031   82.8428 S   0  0  0  0  0  0  0  0  0  0  0  0
    0.4656    8.0113   82.5874 O   0  0  0  0  0  0  0  0  0  0  0  0
   -1.4410    8.0120   83.8241 O   0  0  0  0  0  0  0  0  0  0  0  0
   -0.5298    5.8825   83.1589 N   0  0  0  0  0  0  0  0  0  0  0  0
   -1.6435    4.9741   83.1308 C   0  0  0  0  0  0  0  0  0  0  0  0
   -1.2374    3.5428   83.4546 C   0  0  0  0  0  0  0  0  0  0  0  0
    0.5649    5.6402   84.0846 C   0  0  0  0  0  0  0  0  0  0  0  0
    0.3587    4.5072   85.0678 C   0  0  0  0  0  0  0  0  0  0  0  0
   -0.1533    3.3584   84.3945 C   0  0  0  0  0  0  0  0  0  0  0  0
   -0.7635    2.7140   85.5775 O   0  0  0  0  0  0  0  0  0  0  0  0
   -0.5987    1.3007   86.0006 S   0  0  0  0  0  0  0  0  0  0  0  0
   -0.2963    0.2611   85.0720 O   0  0  0  0  0  0  0  0  0  0  0  0
    0.7715    1.3881   86.2916 O   0  0  0  0  0  0  0  0  0  0  0  0
   -1.1201    0.9688   87.3760 N   0  0  0  0  0  0  0  0  0  0  0  0
   -2.1344    0.8680   87.3400 H   0  0  0  0  0  0  0  0  0  0  0  0
   -0.8757    1.7191   88.0224 H   0  0  0  0  0  0  0  0  0  0  0  0
    0.7212    6.1964   80.6904 O   0  0  0  0  0  0  0  0  0  0  0  0
    2.3457    4.4242   81.3074 C   0  0  0  0  0  0  0  0  0  0  0  0
    1.3281    4.9851   80.3738 C   0  0  0  0  0  0  0  0  0  0  0  0
    1.0636    4.4167   79.3526 O   0  0  0  0  0  0  0  0  0  0  0  0
  1  3  1  0  0  0
  1  8  1  0  0  0
  1 14  1  0  0  0
 30 32  1  0  0  0
 30  3  1  0  0  0
  2  6  1  0  0  0
  2 11  1  0  0  0
  2  8  1  0  0  0
 31 32  1  0  0  0
 32 33  2  0  0  0
  3  4  1  0  0  0
  4  5  1  0  0  0
  4  6  1  0  0  0
  6  7  1  0  0  0
 11 12  1  0  0  0
 14 15  2  0  0  0
 14 16  2  0  0  0
 14 17  1  0  0  0
 17 18  1  0  0  0
 17 20  1  0  0  0
 18 19  1  0  0  0
 19 22  1  0  0  0
 20 21  1  0  0  0
 21 22  1  0  0  0
 22 23  1  0  0  0
 23 24  1  0  0  0
 24 25  2  0  0  0
 24 26  2  0  0  0
 24 27  1  0  0  0
  5  9  1  0  0  0
  7 10  1  0  0  0
 12 13  1  0  0  0
 27 28  1  0  0  0
 27 29  1  0  0  0
M  END
> <minimizedAffinity>
-6.92582

$$$$
4ZX1_5L3_A_304


 33 34  0  0  0  0  0  0  0  0999 V2000
    1.4517    5.3725   80.8994 C   0  0  0  0  0  0  0  0  0  0  0  0
    2.6649    5.5080   78.7445 C   0  0  0  0  0  0  0  0  0  0  0  0
    1.6361    6.8572   81.0414 C   0  0  0  0  0  0  0  0  0  0  0  0
    2.1339    7.5842   79.8634 C   0  0  0  0  0  0  0  0  0  0  0  0
    1.4526    8.9100   79.7767 O   0  0  0  0  0  0  0  0  0  0  0  0
    2.1583    6.9198   78.5274 C   0  0  0  0  0  0  0  0  0  0  0  0
    3.1067    7.5125   77.6209 O   0  0  0  0  0  0  0  0  0  0  0  0
    1.5228    4.9453   79.5438 O   0  0  0  0  0  0  0  0  0  0  0  0
    0.5100    8.7775   79.5896 H   0  0  0  0  0  0  0  0  0  0  0  0
    3.9988    7.4437   77.9956 H   0  0  0  0  0  0  0  0  0  0  0  0
    3.9632    5.4449   79.3760 C   0  0  0  0  0  0  0  0  0  0  0  0
    5.0730    5.7681   78.5363 O   0  0  0  0  0  0  0  0  0  0  0  0
    5.1321    5.1217   77.8155 H   0  0  0  0  0  0  0  0  0  0  0  0
   -0.1760    4.7328   81.2916 S   0  0  0  0  0  0  0  0  0  0  0  0
   -0.9770    5.7065   80.5564 O   0  0  0  0  0  0  0  0  0  0  0  0
   -0.5175    3.4818   80.6196 O   0  0  0  0  0  0  0  0  0  0  0  0
   -0.2740    4.7413   82.6596 N   0  0  0  0  0  0  0  0  0  0  0  0
    0.8713    4.3973   83.4573 C   0  0  0  0  0  0  0  0  0  0  0  0
    0.5981    4.5124   84.9508 C   0  0  0  0  0  0  0  0  0  0  0  0
   -1.6071    4.4613   83.1679 C   0  0  0  0  0  0  0  0  0  0  0  0
   -1.6685    3.6746   84.4603 C   0  0  0  0  0  0  0  0  0  0  0  0
   -0.7409    4.2064   85.4047 C   0  0  0  0  0  0  0  0  0  0  0  0
   -0.6073    2.9874   86.2313 O   0  0  0  0  0  0  0  0  0  0  0  0
   -0.5302    1.5883   85.7411 S   0  0  0  0  0  0  0  0  0  0  0  0
    0.0457    1.2573   84.4789 O   0  0  0  0  0  0  0  0  0  0  0  0
    0.7019    1.2851   86.3407 O   0  0  0  0  0  0  0  0  0  0  0  0
   -1.4053    0.5966   86.4654 N   0  0  0  0  0  0  0  0  0  0  0  0
   -2.3665    0.6875   86.1364 H   0  0  0  0  0  0  0  0  0  0  0  0
   -1.3702    0.7810   87.4680 H   0  0  0  0  0  0  0  0  0  0  0  0
    0.3593    7.4492   81.5474 O   0  0  0  0  0  0  0  0  0  0  0  0
   -0.6459    9.4014   82.7045 C   0  0  0  0  0  0  0  0  0  0  0  0
    0.2437    8.2055   82.7096 C   0  0  0  0  0  0  0  0  0  0  0  0
    0.8730    7.9221   83.6891 O   0  0  0  0  0  0  0  0  0  0  0  0
  1  3  1  0  0  0
  1  8  1  0  0  0
  1 14  1  0  0  0
 30 32  1  0  0  0
 30  3  1  0  0  0
  2  6  1  0  0  0
  2 11  1  0  0  0
  2  8  1  0  0  0
 31 32  1  0  0  0
 32 33  2  0  0  0
  3  4  1  0  0  0
  4  5  1  0  0  0
  4  6  1  0  0  0
  6  7  1  0  0  0
 11 12  1  0  0  0
 14 15  2  0  0  0
 14 16  2  0  0  0
 14 17  1  0  0  0
 17 18  1  0  0  0
 17 20  1  0  0  0
 18 19  1  0  0  0
 19 22  1  0  0  0
 20 21  1  0  0  0
 21 22  1  0  0  0
 22 23  1  0  0  0
 23 24  1  0  0  0
 24 25  2  0  0  0
 24 26  2  0  0  0
 24 27  1  0  0  0
  5  9  1  0  0  0
  7 10  1  0  0  0
 12 13  1  0  0  0
 27 28  1  0  0  0
 27 29  1  0  0  0
M  END
> <minimizedAffinity>
-6.81540

$$$$
