6G9I_CXX_B_707


 22 24  0  0  0  0  0  0  0  0999 V2000
  -47.0612   13.5413   -6.1287 C   0  0  0  0  0  0  0  0  0  0  0  0
  -46.9460   13.7866   -7.4936 C   0  0  0  0  0  0  0  0  0  0  0  0
  -47.3268   12.8078   -8.3993 C   0  0  0  0  0  0  0  0  0  0  0  0
  -47.8227   11.5993   -7.9256 C   0  0  0  0  0  0  0  0  0  0  0  0
  -48.4875    9.9833   -6.1771 C   0  0  0  0  0  0  0  0  0  0  0  0
  -48.1278    9.5262   -4.7702 C   0  0  0  0  0  0  0  0  0  0  0  0
  -50.9175   10.4161   -2.3542 C   0  0  0  0  0  0  0  0  0  0  0  0
  -50.6340   11.7574   -2.1174 C   0  0  0  0  0  0  0  0  0  0  0  0
  -49.5425   12.3530   -2.7419 C   0  0  0  0  0  0  0  0  0  0  0  0
  -48.7369   11.6126   -3.6053 C   0  0  0  0  0  0  0  0  0  0  0  0
  -47.9354   11.3445   -6.5589 C   0  0  0  0  0  0  0  0  0  0  0  0
  -47.5566   12.3316   -5.6446 C   0  0  0  0  0  0  0  0  0  0  0  0
  -50.1092    9.6773   -3.2128 C   0  0  0  0  0  0  0  0  0  0  0  0
  -49.0208   10.2854   -3.8285 C   0  0  0  0  0  0  0  0  0  0  0  0
  -47.6303   12.1970   -4.2436 N   0  0  0  0  0  0  0  0  0  0  0  0
  -46.3059   15.3605   -8.0821 Cl  0  0  0  0  0  0  0  0  0  0  0  0
  -46.5371   12.7346   -3.4420 C   0  0  0  0  0  0  0  0  0  0  0  0
  -45.6139   11.5719   -3.0892 C   0  0  0  0  0  0  0  0  0  0  0  0
  -45.5513   11.3914   -1.5776 C   0  0  0  0  0  0  0  0  0  0  0  0
  -45.6828    9.7908    0.1953 C   0  0  0  0  0  0  0  0  0  0  0  0
  -45.3695    9.0511   -2.0701 C   0  0  0  0  0  0  0  0  0  0  0  0
  -46.0233   10.0496   -1.2112 N   0  0  0  0  0  0  0  0  0  0  0  0
  1 12  2  0  0  0
  1  2  1  0  0  0
  2 16  1  0  0  0
  2  3  2  0  0  0
  3  4  1  0  0  0
  4 11  2  0  0  0
  5 11  1  0  0  0
  5  6  1  0  0  0
  6 14  1  0  0  0
  7  8  2  0  0  0
  7 13  1  0  0  0
  8  9  1  0  0  0
  9 10  2  0  0  0
 10 15  1  0  0  0
 10 14  1  0  0  0
 11 12  1  0  0  0
 12 15  1  0  0  0
 19 22  1  0  0  0
 19 18  1  0  0  0
 20 22  1  0  0  0
 13 14  2  0  0  0
 17 18  1  0  0  0
 17 15  1  0  0  0
 21 22  1  0  0  0
M  END
> <minimizedAffinity>
-7.35618

$$$$
6G9I_CXX_B_707


 22 24  0  0  0  0  0  0  0  0999 V2000
  -47.1654   13.4113   -5.8296 C   0  0  0  0  0  0  0  0  0  0  0  0
  -46.9802   13.7348   -7.1703 C   0  0  0  0  0  0  0  0  0  0  0  0
  -47.2735   12.7956   -8.1477 C   0  0  0  0  0  0  0  0  0  0  0  0
  -47.7531   11.5476   -7.7691 C   0  0  0  0  0  0  0  0  0  0  0  0
  -48.4606    9.8176   -6.1514 C   0  0  0  0  0  0  0  0  0  0  0  0
  -48.1669    9.2955   -4.7517 C   0  0  0  0  0  0  0  0  0  0  0  0
  -51.1211    9.9616   -2.4625 C   0  0  0  0  0  0  0  0  0  0  0  0
  -50.8991   11.2963   -2.1385 C   0  0  0  0  0  0  0  0  0  0  0  0
  -49.7949   11.9599   -2.6644 C   0  0  0  0  0  0  0  0  0  0  0  0
  -48.9153   11.2942   -3.5163 C   0  0  0  0  0  0  0  0  0  0  0  0
  -47.9355   11.2146   -6.4269 C   0  0  0  0  0  0  0  0  0  0  0  0
  -47.6451   12.1617   -5.4407 C   0  0  0  0  0  0  0  0  0  0  0  0
  -50.2390    9.2974   -3.3093 C   0  0  0  0  0  0  0  0  0  0  0  0
  -49.1389    9.9729   -3.8260 C   0  0  0  0  0  0  0  0  0  0  0  0
  -47.7948   11.9480   -4.0556 N   0  0  0  0  0  0  0  0  0  0  0  0
  -46.3629   15.3584   -7.6355 Cl  0  0  0  0  0  0  0  0  0  0  0  0
  -46.7693   12.4754   -3.1630 C   0  0  0  0  0  0  0  0  0  0  0  0
  -45.6397   11.4508   -3.1083 C   0  0  0  0  0  0  0  0  0  0  0  0
  -44.3116   12.1476   -2.8398 C   0  0  0  0  0  0  0  0  0  0  0  0
  -43.5282   13.1711   -4.8550 C   0  0  0  0  0  0  0  0  0  0  0  0
  -43.5227   14.4121   -2.7965 C   0  0  0  0  0  0  0  0  0  0  0  0
  -44.2431   13.4071   -3.5923 N   0  0  0  0  0  0  0  0  0  0  0  0
  1 12  2  0  0  0
  1  2  1  0  0  0
  2 16  1  0  0  0
  2  3  2  0  0  0
  3  4  1  0  0  0
  4 11  2  0  0  0
  5 11  1  0  0  0
  5  6  1  0  0  0
  6 14  1  0  0  0
  7  8  2  0  0  0
  7 13  1  0  0  0
  8  9  1  0  0  0
  9 10  2  0  0  0
 10 15  1  0  0  0
 10 14  1  0  0  0
 11 12  1  0  0  0
 12 15  1  0  0  0
 19 22  1  0  0  0
 19 18  1  0  0  0
 20 22  1  0  0  0
 13 14  2  0  0  0
 17 18  1  0  0  0
 17 15  1  0  0  0
 21 22  1  0  0  0
M  END
> <minimizedAffinity>
-7.16416

$$$$
6G9I_CXX_B_707


 22 24  0  0  0  0  0  0  0  0999 V2000
  -45.1780   12.5537   -4.3070 C   0  0  0  0  0  0  0  0  0  0  0  0
  -44.1999   12.9465   -3.3984 C   0  0  0  0  0  0  0  0  0  0  0  0
  -44.5382   13.1315   -2.0662 C   0  0  0  0  0  0  0  0  0  0  0  0
  -45.8499   12.9156   -1.6617 C   0  0  0  0  0  0  0  0  0  0  0  0
  -48.2282   12.3303   -1.9958 C   0  0  0  0  0  0  0  0  0  0  0  0
  -49.3524   12.4254   -3.0181 C   0  0  0  0  0  0  0  0  0  0  0  0
  -50.2757    8.9626   -4.2704 C   0  0  0  0  0  0  0  0  0  0  0  0
  -49.2757    8.7561   -5.2153 C   0  0  0  0  0  0  0  0  0  0  0  0
  -48.3186    9.7422   -5.4343 C   0  0  0  0  0  0  0  0  0  0  0  0
  -48.3564   10.9314   -4.7084 C   0  0  0  0  0  0  0  0  0  0  0  0
  -46.8365   12.5276   -2.5682 C   0  0  0  0  0  0  0  0  0  0  0  0
  -46.4963   12.3358   -3.9103 C   0  0  0  0  0  0  0  0  0  0  0  0
  -50.3145   10.1526   -3.5501 C   0  0  0  0  0  0  0  0  0  0  0  0
  -49.3525   11.1297   -3.7809 C   0  0  0  0  0  0  0  0  0  0  0  0
  -47.3991   11.9383   -4.9170 N   0  0  0  0  0  0  0  0  0  0  0  0
  -42.5081   13.2150   -3.9453 Cl  0  0  0  0  0  0  0  0  0  0  0  0
  -47.2878   12.5662   -6.2284 C   0  0  0  0  0  0  0  0  0  0  0  0
  -47.9638   13.9315   -6.1406 C   0  0  0  0  0  0  0  0  0  0  0  0
  -47.3197   14.9004   -7.1244 C   0  0  0  0  0  0  0  0  0  0  0  0
  -45.2006   15.7468   -6.4066 C   0  0  0  0  0  0  0  0  0  0  0  0
  -45.4124   14.7138   -8.5665 C   0  0  0  0  0  0  0  0  0  0  0  0
  -45.8680   14.6815   -7.1688 N   0  0  0  0  0  0  0  0  0  0  0  0
  1 12  2  0  0  0
  1  2  1  0  0  0
  2 16  1  0  0  0
  2  3  2  0  0  0
  3  4  1  0  0  0
  4 11  2  0  0  0
  5 11  1  0  0  0
  5  6  1  0  0  0
  6 14  1  0  0  0
  7  8  2  0  0  0
  7 13  1  0  0  0
  8  9  1  0  0  0
  9 10  2  0  0  0
 10 15  1  0  0  0
 10 14  1  0  0  0
 11 12  1  0  0  0
 12 15  1  0  0  0
 19 22  1  0  0  0
 19 18  1  0  0  0
 20 22  1  0  0  0
 13 14  2  0  0  0
 17 18  1  0  0  0
 17 15  1  0  0  0
 21 22  1  0  0  0
M  END
> <minimizedAffinity>
-6.34929

$$$$
6G9I_CXX_B_707


 22 24  0  0  0  0  0  0  0  0999 V2000
  -45.8769   12.6165   -3.6306 C   0  0  0  0  0  0  0  0  0  0  0  0
  -45.3761   13.7531   -4.2582 C   0  0  0  0  0  0  0  0  0  0  0  0
  -45.7628   14.0436   -5.5579 C   0  0  0  0  0  0  0  0  0  0  0  0
  -46.6495   13.1948   -6.2092 C   0  0  0  0  0  0  0  0  0  0  0  0
  -48.1067   11.2084   -6.4129 C   0  0  0  0  0  0  0  0  0  0  0  0
  -48.2270    9.7601   -5.9593 C   0  0  0  0  0  0  0  0  0  0  0  0
  -51.1969    9.3635   -3.6284 C   0  0  0  0  0  0  0  0  0  0  0  0
  -50.6473    9.8152   -2.4328 C   0  0  0  0  0  0  0  0  0  0  0  0
  -49.3225   10.2394   -2.3989 C   0  0  0  0  0  0  0  0  0  0  0  0
  -48.5478   10.2172   -3.5574 C   0  0  0  0  0  0  0  0  0  0  0  0
  -47.1507   12.0507   -5.5883 C   0  0  0  0  0  0  0  0  0  0  0  0
  -46.7660   11.7590   -4.2765 C   0  0  0  0  0  0  0  0  0  0  0  0
  -50.4205    9.3376   -4.7828 C   0  0  0  0  0  0  0  0  0  0  0  0
  -49.0976    9.7629   -4.7335 C   0  0  0  0  0  0  0  0  0  0  0  0
  -47.2084   10.6407   -3.5416 N   0  0  0  0  0  0  0  0  0  0  0  0
  -44.2336   14.8388   -3.3927 Cl  0  0  0  0  0  0  0  0  0  0  0  0
  -46.2420    9.9432   -2.7012 C   0  0  0  0  0  0  0  0  0  0  0  0
  -46.4130   10.4652   -1.2776 C   0  0  0  0  0  0  0  0  0  0  0  0
  -45.4304    9.7715   -0.3424 C   0  0  0  0  0  0  0  0  0  0  0  0
  -44.5341   11.9735   -0.0782 C   0  0  0  0  0  0  0  0  0  0  0  0
  -43.6978   10.1666    1.2682 C   0  0  0  0  0  0  0  0  0  0  0  0
  -44.8931   10.7348    0.6274 N   0  0  0  0  0  0  0  0  0  0  0  0
  1 12  2  0  0  0
  1  2  1  0  0  0
  2 16  1  0  0  0
  2  3  2  0  0  0
  3  4  1  0  0  0
  4 11  2  0  0  0
  5 11  1  0  0  0
  5  6  1  0  0  0
  6 14  1  0  0  0
  7  8  2  0  0  0
  7 13  1  0  0  0
  8  9  1  0  0  0
  9 10  2  0  0  0
 10 15  1  0  0  0
 10 14  1  0  0  0
 11 12  1  0  0  0
 12 15  1  0  0  0
 19 22  1  0  0  0
 19 18  1  0  0  0
 20 22  1  0  0  0
 13 14  2  0  0  0
 17 18  1  0  0  0
 17 15  1  0  0  0
 21 22  1  0  0  0
M  END
> <minimizedAffinity>
-6.23356

$$$$
6G9I_CXX_B_707


 22 24  0  0  0  0  0  0  0  0999 V2000
  -49.4146   11.6569   -2.3369 C   0  0  0  0  0  0  0  0  0  0  0  0
  -50.7917   11.7471   -2.1577 C   0  0  0  0  0  0  0  0  0  0  0  0
  -51.6166   10.7674   -2.6896 C   0  0  0  0  0  0  0  0  0  0  0  0
  -51.0507    9.7085   -3.3891 C   0  0  0  0  0  0  0  0  0  0  0  0
  -49.1859    8.4110   -4.3636 C   0  0  0  0  0  0  0  0  0  0  0  0
  -47.8111    8.5804   -4.9954 C   0  0  0  0  0  0  0  0  0  0  0  0
  -45.1399    7.1330   -2.7192 C   0  0  0  0  0  0  0  0  0  0  0  0
  -44.9815    8.1768   -1.8131 C   0  0  0  0  0  0  0  0  0  0  0  0
  -45.7405    9.3345   -1.9540 C   0  0  0  0  0  0  0  0  0  0  0  0
  -46.6599    9.4494   -2.9953 C   0  0  0  0  0  0  0  0  0  0  0  0
  -49.6718    9.6149   -3.5776 C   0  0  0  0  0  0  0  0  0  0  0  0
  -48.8384   10.5988   -3.0378 C   0  0  0  0  0  0  0  0  0  0  0  0
  -46.0548    7.2516   -3.7609 C   0  0  0  0  0  0  0  0  0  0  0  0
  -46.8051    8.4150   -3.8903 C   0  0  0  0  0  0  0  0  0  0  0  0
  -47.4338   10.6111   -3.1537 N   0  0  0  0  0  0  0  0  0  0  0  0
  -51.4998   13.1247   -1.2444 Cl  0  0  0  0  0  0  0  0  0  0  0  0
  -46.7741   11.8892   -3.3940 C   0  0  0  0  0  0  0  0  0  0  0  0
  -46.7489   12.1142   -4.9031 C   0  0  0  0  0  0  0  0  0  0  0  0
  -46.0281   13.4167   -5.2276 C   0  0  0  0  0  0  0  0  0  0  0  0
  -46.9537   13.3618   -7.4327 C   0  0  0  0  0  0  0  0  0  0  0  0
  -46.0655   15.4149   -6.5536 C   0  0  0  0  0  0  0  0  0  0  0  0
  -46.7926   14.1805   -6.2224 N   0  0  0  0  0  0  0  0  0  0  0  0
  1 12  2  0  0  0
  1  2  1  0  0  0
  2 16  1  0  0  0
  2  3  2  0  0  0
  3  4  1  0  0  0
  4 11  2  0  0  0
  5 11  1  0  0  0
  5  6  1  0  0  0
  6 14  1  0  0  0
  7  8  2  0  0  0
  7 13  1  0  0  0
  8  9  1  0  0  0
  9 10  2  0  0  0
 10 15  1  0  0  0
 10 14  1  0  0  0
 11 12  1  0  0  0
 12 15  1  0  0  0
 19 22  1  0  0  0
 19 18  1  0  0  0
 20 22  1  0  0  0
 13 14  2  0  0  0
 17 18  1  0  0  0
 17 15  1  0  0  0
 21 22  1  0  0  0
M  END
> <minimizedAffinity>
-6.20361

$$$$
6G9I_CXX_B_707


 22 24  0  0  0  0  0  0  0  0999 V2000
  -47.3695   11.8558   -5.1697 C   0  0  0  0  0  0  0  0  0  0  0  0
  -46.9053   13.0406   -5.7329 C   0  0  0  0  0  0  0  0  0  0  0  0
  -45.8183   13.6883   -5.1654 C   0  0  0  0  0  0  0  0  0  0  0  0
  -45.2080   13.1377   -4.0450 C   0  0  0  0  0  0  0  0  0  0  0  0
  -44.9176   11.4642   -2.2489 C   0  0  0  0  0  0  0  0  0  0  0  0
  -45.7073   10.5180   -1.3550 C   0  0  0  0  0  0  0  0  0  0  0  0
  -44.9264    6.9138   -2.2555 C   0  0  0  0  0  0  0  0  0  0  0  0
  -45.7496    6.7418   -3.3638 C   0  0  0  0  0  0  0  0  0  0  0  0
  -46.5468    7.7949   -3.8016 C   0  0  0  0  0  0  0  0  0  0  0  0
  -46.5198    9.0198   -3.1372 C   0  0  0  0  0  0  0  0  0  0  0  0
  -45.6716   11.9536   -3.4718 C   0  0  0  0  0  0  0  0  0  0  0  0
  -46.7641   11.2968   -4.0454 C   0  0  0  0  0  0  0  0  0  0  0  0
  -44.9044    8.1360   -1.5906 C   0  0  0  0  0  0  0  0  0  0  0  0
  -45.7078    9.1788   -2.0385 C   0  0  0  0  0  0  0  0  0  0  0  0
  -47.3186   10.0936   -3.5645 N   0  0  0  0  0  0  0  0  0  0  0  0
  -47.7090   13.7308   -7.1859 Cl  0  0  0  0  0  0  0  0  0  0  0  0
  -48.7703    9.9557   -3.5663 C   0  0  0  0  0  0  0  0  0  0  0  0
  -49.2942   10.6177   -2.2951 C   0  0  0  0  0  0  0  0  0  0  0  0
  -50.7656   10.9777   -2.4588 C   0  0  0  0  0  0  0  0  0  0  0  0
  -49.7194   12.9727   -1.6543 C   0  0  0  0  0  0  0  0  0  0  0  0
  -52.0447   12.5686   -1.1998 C   0  0  0  0  0  0  0  0  0  0  0  0
  -50.9672   12.4070   -2.1872 N   0  0  0  0  0  0  0  0  0  0  0  0
  1 12  2  0  0  0
  1  2  1  0  0  0
  2 16  1  0  0  0
  2  3  2  0  0  0
  3  4  1  0  0  0
  4 11  2  0  0  0
  5 11  1  0  0  0
  5  6  1  0  0  0
  6 14  1  0  0  0
  7  8  2  0  0  0
  7 13  1  0  0  0
  8  9  1  0  0  0
  9 10  2  0  0  0
 10 15  1  0  0  0
 10 14  1  0  0  0
 11 12  1  0  0  0
 12 15  1  0  0  0
 19 22  1  0  0  0
 19 18  1  0  0  0
 20 22  1  0  0  0
 13 14  2  0  0  0
 17 18  1  0  0  0
 17 15  1  0  0  0
 21 22  1  0  0  0
M  END
> <minimizedAffinity>
-6.04185

$$$$
6G9I_CXX_B_707


 22 24  0  0  0  0  0  0  0  0999 V2000
  -44.1120   14.7452   -4.7780 C   0  0  0  0  0  0  0  0  0  0  0  0
  -43.6552   14.3326   -3.5300 C   0  0  0  0  0  0  0  0  0  0  0  0
  -44.3104   13.3060   -2.8666 C   0  0  0  0  0  0  0  0  0  0  0  0
  -45.4105   12.7035   -3.4645 C   0  0  0  0  0  0  0  0  0  0  0  0
  -47.0897   12.3772   -5.2491 C   0  0  0  0  0  0  0  0  0  0  0  0
  -47.8807   13.1401   -6.3027 C   0  0  0  0  0  0  0  0  0  0  0  0
  -46.7508   12.1170   -9.7794 C   0  0  0  0  0  0  0  0  0  0  0  0
  -45.6017   12.8898   -9.9138 C   0  0  0  0  0  0  0  0  0  0  0  0
  -45.2111   13.7321   -8.8774 C   0  0  0  0  0  0  0  0  0  0  0  0
  -45.9636   13.8005   -7.7062 C   0  0  0  0  0  0  0  0  0  0  0  0
  -45.8773   13.1160   -4.7125 C   0  0  0  0  0  0  0  0  0  0  0  0
  -45.2152   14.1472   -5.3849 C   0  0  0  0  0  0  0  0  0  0  0  0
  -47.5033   12.1904   -8.6113 C   0  0  0  0  0  0  0  0  0  0  0  0
  -47.1019   13.0379   -7.5847 C   0  0  0  0  0  0  0  0  0  0  0  0
  -45.5851   14.6460   -6.6501 N   0  0  0  0  0  0  0  0  0  0  0  0
  -42.2263   15.1247   -2.7790 Cl  0  0  0  0  0  0  0  0  0  0  0  0
  -45.5167   16.0861   -6.8690 C   0  0  0  0  0  0  0  0  0  0  0  0
  -44.3601   16.3483   -7.8294 C   0  0  0  0  0  0  0  0  0  0  0  0
  -44.8366   17.1879   -9.0081 C   0  0  0  0  0  0  0  0  0  0  0  0
  -42.7072   18.1043   -8.4182 C   0  0  0  0  0  0  0  0  0  0  0  0
  -44.3333   19.4711   -9.5427 C   0  0  0  0  0  0  0  0  0  0  0  0
  -43.7769   18.1150   -9.4264 N   0  0  0  0  0  0  0  0  0  0  0  0
  1 12  2  0  0  0
  1  2  1  0  0  0
  2 16  1  0  0  0
  2  3  2  0  0  0
  3  4  1  0  0  0
  4 11  2  0  0  0
  5 11  1  0  0  0
  5  6  1  0  0  0
  6 14  1  0  0  0
  7  8  2  0  0  0
  7 13  1  0  0  0
  8  9  1  0  0  0
  9 10  2  0  0  0
 10 15  1  0  0  0
 10 14  1  0  0  0
 11 12  1  0  0  0
 12 15  1  0  0  0
 19 22  1  0  0  0
 19 18  1  0  0  0
 20 22  1  0  0  0
 13 14  2  0  0  0
 17 18  1  0  0  0
 17 15  1  0  0  0
 21 22  1  0  0  0
M  END
> <minimizedAffinity>
-5.48450

$$$$
6G9I_CXX_B_707


 22 24  0  0  0  0  0  0  0  0999 V2000
  -44.6410   15.7659   -7.1820 C   0  0  0  0  0  0  0  0  0  0  0  0
  -45.5172   16.0928   -8.2125 C   0  0  0  0  0  0  0  0  0  0  0  0
  -46.7813   15.5232   -8.2424 C   0  0  0  0  0  0  0  0  0  0  0  0
  -47.1522   14.6384   -7.2372 C   0  0  0  0  0  0  0  0  0  0  0  0
  -46.8060   13.3208   -5.1745 C   0  0  0  0  0  0  0  0  0  0  0  0
  -45.7289   12.5816   -4.3926 C   0  0  0  0  0  0  0  0  0  0  0  0
  -45.0327   14.3700   -1.1172 C   0  0  0  0  0  0  0  0  0  0  0  0
  -44.1856   15.3838   -1.5531 C   0  0  0  0  0  0  0  0  0  0  0  0
  -43.8508   15.4719   -2.9009 C   0  0  0  0  0  0  0  0  0  0  0  0
  -44.3640   14.5522   -3.8137 C   0  0  0  0  0  0  0  0  0  0  0  0
  -46.2769   14.3018   -6.2046 C   0  0  0  0  0  0  0  0  0  0  0  0
  -45.0042   14.8788   -6.1701 C   0  0  0  0  0  0  0  0  0  0  0  0
  -45.5401   13.4498   -2.0294 C   0  0  0  0  0  0  0  0  0  0  0  0
  -45.1955   13.5491   -3.3728 C   0  0  0  0  0  0  0  0  0  0  0  0
  -44.0359   14.6251   -5.1778 N   0  0  0  0  0  0  0  0  0  0  0  0
  -45.0158   17.2442   -9.4994 Cl  0  0  0  0  0  0  0  0  0  0  0  0
  -42.6446   14.4884   -5.5927 C   0  0  0  0  0  0  0  0  0  0  0  0
  -42.4681   13.0759   -6.1426 C   0  0  0  0  0  0  0  0  0  0  0  0
  -41.6694   12.2267   -5.1615 C   0  0  0  0  0  0  0  0  0  0  0  0
  -40.1003   10.5004   -5.6903 C   0  0  0  0  0  0  0  0  0  0  0  0
  -39.3213   12.6239   -4.8773 C   0  0  0  0  0  0  0  0  0  0  0  0
  -40.3332   11.9518   -5.7058 N   0  0  0  0  0  0  0  0  0  0  0  0
  1 12  2  0  0  0
  1  2  1  0  0  0
  2 16  1  0  0  0
  2  3  2  0  0  0
  3  4  1  0  0  0
  4 11  2  0  0  0
  5 11  1  0  0  0
  5  6  1  0  0  0
  6 14  1  0  0  0
  7  8  2  0  0  0
  7 13  1  0  0  0
  8  9  1  0  0  0
  9 10  2  0  0  0
 10 15  1  0  0  0
 10 14  1  0  0  0
 11 12  1  0  0  0
 12 15  1  0  0  0
 19 22  1  0  0  0
 19 18  1  0  0  0
 20 22  1  0  0  0
 13 14  2  0  0  0
 17 18  1  0  0  0
 17 15  1  0  0  0
 21 22  1  0  0  0
M  END
> <minimizedAffinity>
-5.40260

$$$$
6G9I_CXX_B_707


 22 24  0  0  0  0  0  0  0  0999 V2000
  -47.2051   11.7664   -5.2607 C   0  0  0  0  0  0  0  0  0  0  0  0
  -47.3459   12.4110   -6.4860 C   0  0  0  0  0  0  0  0  0  0  0  0
  -46.6989   13.6184   -6.7023 C   0  0  0  0  0  0  0  0  0  0  0  0
  -45.9158   14.1608   -5.6907 C   0  0  0  0  0  0  0  0  0  0  0  0
  -44.8953   14.2253   -3.4402 C   0  0  0  0  0  0  0  0  0  0  0  0
  -45.1582   13.8270   -1.9945 C   0  0  0  0  0  0  0  0  0  0  0  0
  -42.7616   11.0781   -0.9403 C   0  0  0  0  0  0  0  0  0  0  0  0
  -43.3927    9.9643   -1.4850 C   0  0  0  0  0  0  0  0  0  0  0  0
  -44.5860   10.1198   -2.1837 C   0  0  0  0  0  0  0  0  0  0  0  0
  -45.1471   11.3857   -2.3427 C   0  0  0  0  0  0  0  0  0  0  0  0
  -45.7750   13.5231   -4.4582 C   0  0  0  0  0  0  0  0  0  0  0  0
  -46.4224   12.3036   -4.2400 C   0  0  0  0  0  0  0  0  0  0  0  0
  -43.3259   12.3405   -1.0960 C   0  0  0  0  0  0  0  0  0  0  0  0
  -44.5196   12.4804   -1.7951 C   0  0  0  0  0  0  0  0  0  0  0  0
  -46.3517   11.5615   -3.0439 N   0  0  0  0  0  0  0  0  0  0  0  0
  -48.3611   11.6865   -7.7813 Cl  0  0  0  0  0  0  0  0  0  0  0  0
  -47.5676   10.9178   -2.5603 C   0  0  0  0  0  0  0  0  0  0  0  0
  -48.5722   12.0207   -2.2394 C   0  0  0  0  0  0  0  0  0  0  0  0
  -49.9583   11.6289   -2.7363 C   0  0  0  0  0  0  0  0  0  0  0  0
  -50.3950   10.1045   -4.5273 C   0  0  0  0  0  0  0  0  0  0  0  0
  -50.9161    9.4812   -2.2652 C   0  0  0  0  0  0  0  0  0  0  0  0
  -49.9721   10.2122   -3.1235 N   0  0  0  0  0  0  0  0  0  0  0  0
  1 12  2  0  0  0
  1  2  1  0  0  0
  2 16  1  0  0  0
  2  3  2  0  0  0
  3  4  1  0  0  0
  4 11  2  0  0  0
  5 11  1  0  0  0
  5  6  1  0  0  0
  6 14  1  0  0  0
  7  8  2  0  0  0
  7 13  1  0  0  0
  8  9  1  0  0  0
  9 10  2  0  0  0
 10 15  1  0  0  0
 10 14  1  0  0  0
 11 12  1  0  0  0
 12 15  1  0  0  0
 19 22  1  0  0  0
 19 18  1  0  0  0
 20 22  1  0  0  0
 13 14  2  0  0  0
 17 18  1  0  0  0
 17 15  1  0  0  0
 21 22  1  0  0  0
M  END
> <minimizedAffinity>
-5.25642

$$$$
6G9I_CXX_B_707


 22 24  0  0  0  0  0  0  0  0999 V2000
  -44.8103   15.5233   -7.3346 C   0  0  0  0  0  0  0  0  0  0  0  0
  -45.6384   16.0006   -8.3460 C   0  0  0  0  0  0  0  0  0  0  0  0
  -46.9604   15.5852   -8.4011 C   0  0  0  0  0  0  0  0  0  0  0  0
  -47.4360   14.7019   -7.4396 C   0  0  0  0  0  0  0  0  0  0  0  0
  -47.2540   13.2536   -5.4446 C   0  0  0  0  0  0  0  0  0  0  0  0
  -46.2738   12.3559   -4.7021 C   0  0  0  0  0  0  0  0  0  0  0  0
  -45.3848   13.8881   -1.3446 C   0  0  0  0  0  0  0  0  0  0  0  0
  -44.4232   14.8159   -1.7321 C   0  0  0  0  0  0  0  0  0  0  0  0
  -44.0755   14.9299   -3.0746 C   0  0  0  0  0  0  0  0  0  0  0  0
  -44.6896   14.1223   -4.0304 C   0  0  0  0  0  0  0  0  0  0  0  0
  -46.6099   14.2150   -6.4265 C   0  0  0  0  0  0  0  0  0  0  0  0
  -45.2785   14.6364   -6.3666 C   0  0  0  0  0  0  0  0  0  0  0  0
  -45.9932   13.0794   -2.2996 C   0  0  0  0  0  0  0  0  0  0  0  0
  -45.6345   13.2033   -3.6373 C   0  0  0  0  0  0  0  0  0  0  0  0
  -44.3503   14.2229   -5.3900 N   0  0  0  0  0  0  0  0  0  0  0  0
  -45.0009   17.1468   -9.5760 Cl  0  0  0  0  0  0  0  0  0  0  0  0
  -42.9831   13.9445   -5.8140 C   0  0  0  0  0  0  0  0  0  0  0  0
  -42.1432   15.1760   -5.4872 C   0  0  0  0  0  0  0  0  0  0  0  0
  -40.8828   15.1939   -6.3430 C   0  0  0  0  0  0  0  0  0  0  0  0
  -41.7280   17.4232   -6.5389 C   0  0  0  0  0  0  0  0  0  0  0  0
  -41.2826   16.1293   -8.5150 C   0  0  0  0  0  0  0  0  0  0  0  0
  -40.8366   16.4235   -7.1450 N   0  0  0  0  0  0  0  0  0  0  0  0
  1 12  2  0  0  0
  1  2  1  0  0  0
  2 16  1  0  0  0
  2  3  2  0  0  0
  3  4  1  0  0  0
  4 11  2  0  0  0
  5 11  1  0  0  0
  5  6  1  0  0  0
  6 14  1  0  0  0
  7  8  2  0  0  0
  7 13  1  0  0  0
  8  9  1  0  0  0
  9 10  2  0  0  0
 10 15  1  0  0  0
 10 14  1  0  0  0
 11 12  1  0  0  0
 12 15  1  0  0  0
 19 22  1  0  0  0
 19 18  1  0  0  0
 20 22  1  0  0  0
 13 14  2  0  0  0
 17 18  1  0  0  0
 17 15  1  0  0  0
 21 22  1  0  0  0
M  END
> <minimizedAffinity>
-4.96944

$$$$
