5L9I_SNW_A_401


 29 29  0  0  0  0  0  0  0  0999 V2000
   12.9638   47.8997   -0.7477 C   0  0  0  0  0  0  0  0  0  0  0  0
   10.1788   47.7552   -1.8622 O   0  0  0  0  0  0  0  0  0  0  0  0
   10.9705   46.5904   -1.6604 C   0  0  0  0  0  0  0  0  0  0  0  0
   10.5575   45.4585   -2.4639 C   0  0  0  0  0  0  0  0  0  0  0  0
    9.2467   44.9011   -2.1072 O   0  0  0  0  0  0  0  0  0  0  0  0
   11.4718   44.3874   -2.5920 C   0  0  0  0  0  0  0  0  0  0  0  0
   11.4778   43.6502   -1.3788 O   0  0  0  0  0  0  0  0  0  0  0  0
   12.9134   44.7999   -2.7487 C   0  0  0  0  0  0  0  0  0  0  0  0
   13.2526   45.8254   -1.8472 O   0  0  0  0  0  0  0  0  0  0  0  0
   12.4408   46.9482   -1.8360 C   0  0  0  0  0  0  0  0  0  0  0  0
   12.5225   47.5301   -3.0222 O   0  0  0  0  0  0  0  0  0  0  0  0
    9.2414   47.5322   -1.7513 H   0  0  0  0  0  0  0  0  0  0  0  0
    9.3042   44.4683   -1.2410 H   0  0  0  0  0  0  0  0  0  0  0  0
   11.7866   44.2191   -0.6564 H   0  0  0  0  0  0  0  0  0  0  0  0
   12.1910   46.9240   -3.7032 H   0  0  0  0  0  0  0  0  0  0  0  0
   12.5740   49.3054   -0.8026 N   0  0  0  0  0  0  0  0  0  0  0  0
   11.6218   49.3513   -1.1651 H   0  0  0  0  0  0  0  0  0  0  0  0
   12.6043   50.0224    0.4565 C   0  0  0  0  0  0  0  0  0  0  0  0
   11.2105   50.1940    1.0161 C   0  0  0  0  0  0  0  0  0  0  0  0
   11.0211   51.0565    1.8840 O   0  0  0  0  0  0  0  0  0  0  0  0
   10.2718   49.4980    0.5909 O   0  0  0  0  0  0  0  0  0  0  0  0
   10.4300   48.8490   -0.0661 H   0  0  0  0  0  0  0  0  0  0  0  0
   13.3302   51.3469    0.3799 C   0  0  0  0  0  0  0  0  0  0  0  0
   12.5754   52.5359   -0.1071 C   0  0  0  0  0  0  0  0  0  0  0  0
   13.3463   53.6405   -0.6916 C   0  0  0  0  0  0  0  0  0  0  0  0
   13.5102   54.6290   -0.1067 O   0  0  0  0  0  0  0  0  0  0  0  0
   13.8835   53.4918   -1.9530 N   0  0  0  0  0  0  0  0  0  0  0  0
   13.7456   52.6539   -2.4512 H   0  0  0  0  0  0  0  0  0  0  0  0
   14.4048   54.2236   -2.3554 H   0  0  0  0  0  0  0  0  0  0  0  0
  8  6  1  0  0  0
  8  9  1  0  0  0
  6  4  1  0  0  0
  6  7  1  0  0  0
  4  5  1  0  0  0
  4  3  1  0  0  0
 11 10  1  0  0  0
  9 10  1  0  0  0
 27 25  1  0  0  0
 10  3  1  0  0  0
 10  1  1  0  0  0
  3  2  1  0  0  0
 25 24  1  0  0  0
 25 26  2  0  0  0
 24 23  1  0  0  0
 20 19  2  0  0  0
 16  1  1  0  0  0
 16 18  1  0  0  0
 19 18  1  0  0  0
 19 21  1  0  0  0
 18 23  1  0  0  0
  2 12  1  0  0  0
  5 13  1  0  0  0
  7 14  1  0  0  0
 11 15  1  0  0  0
 16 17  1  0  0  0
 27 28  1  0  0  0
 27 29  1  0  0  0
 21 22  1  0  0  0
M  END
> <minimizedAffinity>
-10.21977

$$$$
5L9I_SNW_A_401


 29 29  0  0  0  0  0  0  0  0999 V2000
   14.0007   46.4081   -1.3967 C   0  0  0  0  0  0  0  0  0  0  0  0
   12.6821   47.1230   -3.9984 O   0  0  0  0  0  0  0  0  0  0  0  0
   12.1082   46.1842   -3.0964 C   0  0  0  0  0  0  0  0  0  0  0  0
   11.1711   45.2735   -3.7208 C   0  0  0  0  0  0  0  0  0  0  0  0
    9.9352   45.9031   -4.2027 O   0  0  0  0  0  0  0  0  0  0  0  0
   10.8201   44.1096   -2.9985 C   0  0  0  0  0  0  0  0  0  0  0  0
    9.9249   44.4751   -1.9591 O   0  0  0  0  0  0  0  0  0  0  0  0
   11.9585   43.4573   -2.2558 C   0  0  0  0  0  0  0  0  0  0  0  0
   12.7458   44.4119   -1.5863 O   0  0  0  0  0  0  0  0  0  0  0  0
   13.2221   45.4743   -2.3376 C   0  0  0  0  0  0  0  0  0  0  0  0
   14.0314   44.9933   -3.2682 O   0  0  0  0  0  0  0  0  0  0  0  0
   11.9762   47.5778   -4.4841 H   0  0  0  0  0  0  0  0  0  0  0  0
    9.4000   46.1867   -3.4450 H   0  0  0  0  0  0  0  0  0  0  0  0
   10.3705   45.0812   -1.3468 H   0  0  0  0  0  0  0  0  0  0  0  0
   13.5333   44.4055   -3.8575 H   0  0  0  0  0  0  0  0  0  0  0  0
   13.7419   47.8430   -1.4652 N   0  0  0  0  0  0  0  0  0  0  0  0
   13.3001   48.0379   -2.3637 H   0  0  0  0  0  0  0  0  0  0  0  0
   12.8902   48.3850   -0.4254 C   0  0  0  0  0  0  0  0  0  0  0  0
   11.4557   48.4778   -0.8934 C   0  0  0  0  0  0  0  0  0  0  0  0
   10.5697   47.9638   -0.1977 O   0  0  0  0  0  0  0  0  0  0  0  0
   11.1743   49.0818   -1.9433 O   0  0  0  0  0  0  0  0  0  0  0  0
   11.8553   49.4658   -2.4598 H   0  0  0  0  0  0  0  0  0  0  0  0
   13.3739   49.7090    0.1223 C   0  0  0  0  0  0  0  0  0  0  0  0
   12.3668   50.6390    0.7068 C   0  0  0  0  0  0  0  0  0  0  0  0
   12.4925   52.0671    0.3897 C   0  0  0  0  0  0  0  0  0  0  0  0
   12.0736   52.8770    1.1071 O   0  0  0  0  0  0  0  0  0  0  0  0
   13.1225   52.4436   -0.7779 N   0  0  0  0  0  0  0  0  0  0  0  0
   13.4787   51.7581   -1.3882 H   0  0  0  0  0  0  0  0  0  0  0  0
   13.2160   53.3979   -1.0012 H   0  0  0  0  0  0  0  0  0  0  0  0
  8  6  1  0  0  0
  8  9  1  0  0  0
  6  4  1  0  0  0
  6  7  1  0  0  0
  4  5  1  0  0  0
  4  3  1  0  0  0
 11 10  1  0  0  0
  9 10  1  0  0  0
 27 25  1  0  0  0
 10  3  1  0  0  0
 10  1  1  0  0  0
  3  2  1  0  0  0
 25 24  1  0  0  0
 25 26  2  0  0  0
 24 23  1  0  0  0
 20 19  2  0  0  0
 16  1  1  0  0  0
 16 18  1  0  0  0
 19 18  1  0  0  0
 19 21  1  0  0  0
 18 23  1  0  0  0
  2 12  1  0  0  0
  5 13  1  0  0  0
  7 14  1  0  0  0
 11 15  1  0  0  0
 16 17  1  0  0  0
 27 28  1  0  0  0
 27 29  1  0  0  0
 21 22  1  0  0  0
M  END
> <minimizedAffinity>
-9.99646

$$$$
5L9I_SNW_A_401


 29 29  0  0  0  0  0  0  0  0999 V2000
   13.3491   48.1481   -0.7131 C   0  0  0  0  0  0  0  0  0  0  0  0
   13.7115   46.6653   -3.2993 O   0  0  0  0  0  0  0  0  0  0  0  0
   12.4306   46.8418   -2.7056 C   0  0  0  0  0  0  0  0  0  0  0  0
   11.4474   45.8719   -3.1415 C   0  0  0  0  0  0  0  0  0  0  0  0
   11.0567   45.9887   -4.5522 O   0  0  0  0  0  0  0  0  0  0  0  0
   10.2706   45.7499   -2.3670 C   0  0  0  0  0  0  0  0  0  0  0  0
    9.4347   46.8654   -2.6356 O   0  0  0  0  0  0  0  0  0  0  0  0
   10.4816   45.8316   -0.8765 C   0  0  0  0  0  0  0  0  0  0  0  0
   11.3619   46.8766   -0.5412 O   0  0  0  0  0  0  0  0  0  0  0  0
   12.5852   46.9027   -1.1914 C   0  0  0  0  0  0  0  0  0  0  0  0
   13.2530   45.8085   -0.8611 O   0  0  0  0  0  0  0  0  0  0  0  0
   13.6181   46.6259   -4.2640 H   0  0  0  0  0  0  0  0  0  0  0  0
   10.5443   46.8024   -4.6795 H   0  0  0  0  0  0  0  0  0  0  0  0
    9.8855   47.6801   -2.3639 H   0  0  0  0  0  0  0  0  0  0  0  0
   12.7651   45.0275   -1.1660 H   0  0  0  0  0  0  0  0  0  0  0  0
   12.6746   49.4418   -0.7589 N   0  0  0  0  0  0  0  0  0  0  0  0
   11.7099   49.2807   -1.0482 H   0  0  0  0  0  0  0  0  0  0  0  0
   12.6464   50.1876    0.4835 C   0  0  0  0  0  0  0  0  0  0  0  0
   11.2352   50.3063    1.0124 C   0  0  0  0  0  0  0  0  0  0  0  0
   10.9693   51.2304    1.7924 O   0  0  0  0  0  0  0  0  0  0  0  0
   10.3571   49.5048    0.6476 O   0  0  0  0  0  0  0  0  0  0  0  0
   10.5730   48.8103    0.0568 H   0  0  0  0  0  0  0  0  0  0  0  0
   13.3115   51.5425    0.3897 C   0  0  0  0  0  0  0  0  0  0  0  0
   12.8289   52.4928   -0.6519 C   0  0  0  0  0  0  0  0  0  0  0  0
   13.4574   53.8185   -0.7091 C   0  0  0  0  0  0  0  0  0  0  0  0
   13.8299   54.2594   -1.7156 O   0  0  0  0  0  0  0  0  0  0  0  0
   13.5999   54.5458    0.4539 N   0  0  0  0  0  0  0  0  0  0  0  0
   13.2845   54.1736    1.3090 H   0  0  0  0  0  0  0  0  0  0  0  0
   14.0170   55.4373    0.4290 H   0  0  0  0  0  0  0  0  0  0  0  0
  8  6  1  0  0  0
  8  9  1  0  0  0
  6  4  1  0  0  0
  6  7  1  0  0  0
  4  5  1  0  0  0
  4  3  1  0  0  0
 11 10  1  0  0  0
  9 10  1  0  0  0
 27 25  1  0  0  0
 10  3  1  0  0  0
 10  1  1  0  0  0
  3  2  1  0  0  0
 25 24  1  0  0  0
 25 26  2  0  0  0
 24 23  1  0  0  0
 20 19  2  0  0  0
 16  1  1  0  0  0
 16 18  1  0  0  0
 19 18  1  0  0  0
 19 21  1  0  0  0
 18 23  1  0  0  0
  2 12  1  0  0  0
  5 13  1  0  0  0
  7 14  1  0  0  0
 11 15  1  0  0  0
 16 17  1  0  0  0
 27 28  1  0  0  0
 27 29  1  0  0  0
 21 22  1  0  0  0
M  END
> <minimizedAffinity>
-9.70895

$$$$
5L9I_SNW_A_401


 29 29  0  0  0  0  0  0  0  0999 V2000
   12.4312   47.4390   -2.0957 C   0  0  0  0  0  0  0  0  0  0  0  0
   13.2554   45.0852   -3.7687 O   0  0  0  0  0  0  0  0  0  0  0  0
   11.8894   45.4410   -3.5906 C   0  0  0  0  0  0  0  0  0  0  0  0
   10.9668   44.3510   -3.8321 C   0  0  0  0  0  0  0  0  0  0  0  0
   10.9000   43.9045   -5.2293 O   0  0  0  0  0  0  0  0  0  0  0  0
    9.6447   44.5040   -3.3546 C   0  0  0  0  0  0  0  0  0  0  0  0
    8.9570   45.4061   -4.2080 O   0  0  0  0  0  0  0  0  0  0  0  0
    9.5313   45.1594   -2.0016 C   0  0  0  0  0  0  0  0  0  0  0  0
   10.3800   46.2770   -1.9021 O   0  0  0  0  0  0  0  0  0  0  0  0
   11.7146   46.0847   -2.2211 C   0  0  0  0  0  0  0  0  0  0  0  0
   12.2263   45.2212   -1.3580 O   0  0  0  0  0  0  0  0  0  0  0  0
   13.3716   44.6747   -4.6399 H   0  0  0  0  0  0  0  0  0  0  0  0
   10.4784   44.5917   -5.7686 H   0  0  0  0  0  0  0  0  0  0  0  0
    9.3872   46.2749   -4.1740 H   0  0  0  0  0  0  0  0  0  0  0  0
   11.7694   44.3698   -1.4430 H   0  0  0  0  0  0  0  0  0  0  0  0
   13.1650   47.7301   -0.8679 N   0  0  0  0  0  0  0  0  0  0  0  0
   14.1002   48.0418   -1.1296 H   0  0  0  0  0  0  0  0  0  0  0  0
   12.5855   48.7413   -0.0064 C   0  0  0  0  0  0  0  0  0  0  0  0
   11.1480   49.0167   -0.3848 C   0  0  0  0  0  0  0  0  0  0  0  0
   10.2760   48.9260    0.4895 O   0  0  0  0  0  0  0  0  0  0  0  0
   10.8565   49.3525   -1.5462 O   0  0  0  0  0  0  0  0  0  0  0  0
   11.5270   49.4170   -2.1975 H   0  0  0  0  0  0  0  0  0  0  0  0
   13.3910   50.0199    0.0507 C   0  0  0  0  0  0  0  0  0  0  0  0
   12.8399   51.1647    0.8294 C   0  0  0  0  0  0  0  0  0  0  0  0
   13.1553   52.5210    0.3636 C   0  0  0  0  0  0  0  0  0  0  0  0
   13.3871   53.3720    1.1173 O   0  0  0  0  0  0  0  0  0  0  0  0
   13.1781   52.7783   -0.9910 N   0  0  0  0  0  0  0  0  0  0  0  0
   12.9817   52.0576   -1.6323 H   0  0  0  0  0  0  0  0  0  0  0  0
   13.3909   53.6826   -1.3168 H   0  0  0  0  0  0  0  0  0  0  0  0
  8  6  1  0  0  0
  8  9  1  0  0  0
  6  4  1  0  0  0
  6  7  1  0  0  0
  4  5  1  0  0  0
  4  3  1  0  0  0
 11 10  1  0  0  0
  9 10  1  0  0  0
 27 25  1  0  0  0
 10  3  1  0  0  0
 10  1  1  0  0  0
  3  2  1  0  0  0
 25 24  1  0  0  0
 25 26  2  0  0  0
 24 23  1  0  0  0
 20 19  2  0  0  0
 16  1  1  0  0  0
 16 18  1  0  0  0
 19 18  1  0  0  0
 19 21  1  0  0  0
 18 23  1  0  0  0
  2 12  1  0  0  0
  5 13  1  0  0  0
  7 14  1  0  0  0
 11 15  1  0  0  0
 16 17  1  0  0  0
 27 28  1  0  0  0
 27 29  1  0  0  0
 21 22  1  0  0  0
M  END
> <minimizedAffinity>
-8.78537

$$$$
5L9I_SNW_A_401


 29 29  0  0  0  0  0  0  0  0999 V2000
   10.7086   47.1119   -0.7548 C   0  0  0  0  0  0  0  0  0  0  0  0
   10.8502   44.1492   -0.2847 O   0  0  0  0  0  0  0  0  0  0  0  0
   11.4299   44.7580   -1.4326 C   0  0  0  0  0  0  0  0  0  0  0  0
   11.6249   43.8458   -2.5405 C   0  0  0  0  0  0  0  0  0  0  0  0
   12.6349   42.8061   -2.3061 O   0  0  0  0  0  0  0  0  0  0  0  0
   11.8646   44.4143   -3.8128 C   0  0  0  0  0  0  0  0  0  0  0  0
   13.1985   44.8986   -3.8478 O   0  0  0  0  0  0  0  0  0  0  0  0
   11.0467   45.6423   -4.1226 C   0  0  0  0  0  0  0  0  0  0  0  0
   11.0105   46.5226   -3.0258 O   0  0  0  0  0  0  0  0  0  0  0  0
   10.6207   45.9934   -1.8059 C   0  0  0  0  0  0  0  0  0  0  0  0
    9.3698   45.5750   -1.9169 O   0  0  0  0  0  0  0  0  0  0  0  0
   11.3624   43.3616   -0.0430 H   0  0  0  0  0  0  0  0  0  0  0  0
   13.5157   43.2115   -2.2774 H   0  0  0  0  0  0  0  0  0  0  0  0
   13.3058   45.5986   -3.1850 H   0  0  0  0  0  0  0  0  0  0  0  0
    9.3224   44.8700   -2.5814 H   0  0  0  0  0  0  0  0  0  0  0  0
   10.9189   48.4829   -1.2096 N   0  0  0  0  0  0  0  0  0  0  0  0
   10.2194   49.0722   -0.7581 H   0  0  0  0  0  0  0  0  0  0  0  0
   12.2231   49.0509   -0.9323 C   0  0  0  0  0  0  0  0  0  0  0  0
   13.3067   48.0034   -1.0503 C   0  0  0  0  0  0  0  0  0  0  0  0
   13.9477   47.6955   -0.0367 O   0  0  0  0  0  0  0  0  0  0  0  0
   13.5277   47.4468   -2.1401 O   0  0  0  0  0  0  0  0  0  0  0  0
   13.0347   47.6901   -2.8989 H   0  0  0  0  0  0  0  0  0  0  0  0
   12.2988   49.7694    0.3962 C   0  0  0  0  0  0  0  0  0  0  0  0
   13.2451   50.9134    0.5247 C   0  0  0  0  0  0  0  0  0  0  0  0
   12.7214   52.2627    0.2777 C   0  0  0  0  0  0  0  0  0  0  0  0
   11.9568   52.7481    1.0029 O   0  0  0  0  0  0  0  0  0  0  0  0
   13.1522   52.9584   -0.8324 N   0  0  0  0  0  0  0  0  0  0  0  0
   13.8010   52.5484   -1.4490 H   0  0  0  0  0  0  0  0  0  0  0  0
   12.8111   53.8650   -1.0082 H   0  0  0  0  0  0  0  0  0  0  0  0
  8  6  1  0  0  0
  8  9  1  0  0  0
  6  4  1  0  0  0
  6  7  1  0  0  0
  4  5  1  0  0  0
  4  3  1  0  0  0
 11 10  1  0  0  0
  9 10  1  0  0  0
 27 25  1  0  0  0
 10  3  1  0  0  0
 10  1  1  0  0  0
  3  2  1  0  0  0
 25 24  1  0  0  0
 25 26  2  0  0  0
 24 23  1  0  0  0
 20 19  2  0  0  0
 16  1  1  0  0  0
 16 18  1  0  0  0
 19 18  1  0  0  0
 19 21  1  0  0  0
 18 23  1  0  0  0
  2 12  1  0  0  0
  5 13  1  0  0  0
  7 14  1  0  0  0
 11 15  1  0  0  0
 16 17  1  0  0  0
 27 28  1  0  0  0
 27 29  1  0  0  0
 21 22  1  0  0  0
M  END
> <minimizedAffinity>
-8.27913

$$$$
5L9I_SNW_A_401


 29 29  0  0  0  0  0  0  0  0999 V2000
   10.7315   46.5583   -1.2337 C   0  0  0  0  0  0  0  0  0  0  0  0
   11.9149   43.7982   -1.2181 O   0  0  0  0  0  0  0  0  0  0  0  0
   11.2733   44.3359   -2.3685 C   0  0  0  0  0  0  0  0  0  0  0  0
   10.8051   43.3295   -3.2988 C   0  0  0  0  0  0  0  0  0  0  0  0
   11.8705   42.5747   -3.9706 O   0  0  0  0  0  0  0  0  0  0  0  0
    9.8697   43.7375   -4.2775 C   0  0  0  0  0  0  0  0  0  0  0  0
   10.5534   44.4824   -5.2739 O   0  0  0  0  0  0  0  0  0  0  0  0
    8.8208   44.7035   -3.7880 C   0  0  0  0  0  0  0  0  0  0  0  0
    9.3879   45.7111   -2.9865 O   0  0  0  0  0  0  0  0  0  0  0  0
   10.1810   45.3013   -1.9268 C   0  0  0  0  0  0  0  0  0  0  0  0
    9.4243   44.6156   -1.0844 O   0  0  0  0  0  0  0  0  0  0  0  0
   12.6117   43.1825   -1.4945 H   0  0  0  0  0  0  0  0  0  0  0  0
   12.3387   43.1570   -4.5891 H   0  0  0  0  0  0  0  0  0  0  0  0
   10.9343   45.2810   -4.8763 H   0  0  0  0  0  0  0  0  0  0  0  0
    9.0809   43.8247   -1.5286 H   0  0  0  0  0  0  0  0  0  0  0  0
   11.3883   47.5749   -2.0496 N   0  0  0  0  0  0  0  0  0  0  0  0
   10.8544   48.4395   -1.9605 H   0  0  0  0  0  0  0  0  0  0  0  0
   12.7667   47.8679   -1.7112 C   0  0  0  0  0  0  0  0  0  0  0  0
   13.6694   46.7073   -2.0623 C   0  0  0  0  0  0  0  0  0  0  0  0
   14.1968   46.0662   -1.1437 O   0  0  0  0  0  0  0  0  0  0  0  0
   13.8543   46.3912   -3.2507 O   0  0  0  0  0  0  0  0  0  0  0  0
   13.4487   46.8857   -3.9356 H   0  0  0  0  0  0  0  0  0  0  0  0
   12.9578   48.2942   -0.2728 C   0  0  0  0  0  0  0  0  0  0  0  0
   12.7976   49.7378    0.0606 C   0  0  0  0  0  0  0  0  0  0  0  0
   11.5198   50.1653    0.6439 C   0  0  0  0  0  0  0  0  0  0  0  0
   10.5512   49.5490    0.4760 O   0  0  0  0  0  0  0  0  0  0  0  0
   11.4791   51.3150    1.4045 N   0  0  0  0  0  0  0  0  0  0  0  0
   12.2998   51.8394    1.5482 H   0  0  0  0  0  0  0  0  0  0  0  0
   10.6293   51.6113    1.8037 H   0  0  0  0  0  0  0  0  0  0  0  0
  8  6  1  0  0  0
  8  9  1  0  0  0
  6  4  1  0  0  0
  6  7  1  0  0  0
  4  5  1  0  0  0
  4  3  1  0  0  0
 11 10  1  0  0  0
  9 10  1  0  0  0
 27 25  1  0  0  0
 10  3  1  0  0  0
 10  1  1  0  0  0
  3  2  1  0  0  0
 25 24  1  0  0  0
 25 26  2  0  0  0
 24 23  1  0  0  0
 20 19  2  0  0  0
 16  1  1  0  0  0
 16 18  1  0  0  0
 19 18  1  0  0  0
 19 21  1  0  0  0
 18 23  1  0  0  0
  2 12  1  0  0  0
  5 13  1  0  0  0
  7 14  1  0  0  0
 11 15  1  0  0  0
 16 17  1  0  0  0
 27 28  1  0  0  0
 27 29  1  0  0  0
 21 22  1  0  0  0
M  END
> <minimizedAffinity>
-8.26206

$$$$
5L9I_SNW_A_401


 29 29  0  0  0  0  0  0  0  0999 V2000
   10.3631   46.6580   -0.6532 C   0  0  0  0  0  0  0  0  0  0  0  0
   11.0406   43.7413   -0.4234 O   0  0  0  0  0  0  0  0  0  0  0  0
   11.3706   44.5022   -1.5794 C   0  0  0  0  0  0  0  0  0  0  0  0
   11.5763   43.6990   -2.7669 C   0  0  0  0  0  0  0  0  0  0  0  0
   12.7629   42.8351   -2.7229 O   0  0  0  0  0  0  0  0  0  0  0  0
   11.5650   44.3692   -4.0120 C   0  0  0  0  0  0  0  0  0  0  0  0
   12.7882   45.0748   -4.1570 O   0  0  0  0  0  0  0  0  0  0  0  0
   10.5268   45.4552   -4.1378 C   0  0  0  0  0  0  0  0  0  0  0  0
   10.4806   46.2547   -2.9811 O   0  0  0  0  0  0  0  0  0  0  0  0
   10.3322   45.6005   -1.7687 C   0  0  0  0  0  0  0  0  0  0  0  0
    9.1618   44.9820   -1.7725 O   0  0  0  0  0  0  0  0  0  0  0  0
   11.6994   43.0404   -0.2988 H   0  0  0  0  0  0  0  0  0  0  0  0
   13.5629   43.3824   -2.7610 H   0  0  0  0  0  0  0  0  0  0  0  0
   12.8594   45.7453   -3.4597 H   0  0  0  0  0  0  0  0  0  0  0  0
    9.1500   44.3168   -2.4785 H   0  0  0  0  0  0  0  0  0  0  0  0
   10.8582   47.9940   -0.9707 N   0  0  0  0  0  0  0  0  0  0  0  0
   10.0593   48.6281   -0.9830 H   0  0  0  0  0  0  0  0  0  0  0  0
   11.8434   48.5395   -0.0585 C   0  0  0  0  0  0  0  0  0  0  0  0
   11.5665   49.9975    0.2297 C   0  0  0  0  0  0  0  0  0  0  0  0
   12.1198   50.8564   -0.4697 O   0  0  0  0  0  0  0  0  0  0  0  0
   10.7781   50.3211    1.1352 O   0  0  0  0  0  0  0  0  0  0  0  0
   10.3667   49.6601    1.6566 H   0  0  0  0  0  0  0  0  0  0  0  0
   13.2699   48.3334   -0.5165 C   0  0  0  0  0  0  0  0  0  0  0  0
   13.5328   47.2979   -1.5555 C   0  0  0  0  0  0  0  0  0  0  0  0
   14.5233   46.2589   -1.2472 C   0  0  0  0  0  0  0  0  0  0  0  0
   15.0470   46.2216   -0.2126 O   0  0  0  0  0  0  0  0  0  0  0  0
   14.8275   45.3146   -2.2053 N   0  0  0  0  0  0  0  0  0  0  0  0
   14.3844   45.3444   -3.0839 H   0  0  0  0  0  0  0  0  0  0  0  0
   15.4878   44.6108   -2.0105 H   0  0  0  0  0  0  0  0  0  0  0  0
  8  6  1  0  0  0
  8  9  1  0  0  0
  6  4  1  0  0  0
  6  7  1  0  0  0
  4  5  1  0  0  0
  4  3  1  0  0  0
 11 10  1  0  0  0
  9 10  1  0  0  0
 27 25  1  0  0  0
 10  3  1  0  0  0
 10  1  1  0  0  0
  3  2  1  0  0  0
 25 24  1  0  0  0
 25 26  2  0  0  0
 24 23  1  0  0  0
 20 19  2  0  0  0
 16  1  1  0  0  0
 16 18  1  0  0  0
 19 18  1  0  0  0
 19 21  1  0  0  0
 18 23  1  0  0  0
  2 12  1  0  0  0
  5 13  1  0  0  0
  7 14  1  0  0  0
 11 15  1  0  0  0
 16 17  1  0  0  0
 27 28  1  0  0  0
 27 29  1  0  0  0
 21 22  1  0  0  0
M  END
> <minimizedAffinity>
-8.09191

$$$$
5L9I_SNW_A_401


 29 29  0  0  0  0  0  0  0  0999 V2000
   14.3104   45.7010   -2.8562 C   0  0  0  0  0  0  0  0  0  0  0  0
   13.0564   48.0483   -1.4647 O   0  0  0  0  0  0  0  0  0  0  0  0
   12.3571   46.8240   -1.6547 C   0  0  0  0  0  0  0  0  0  0  0  0
   10.9164   46.9602   -1.5951 C   0  0  0  0  0  0  0  0  0  0  0  0
   10.3898   47.3140   -0.2708 O   0  0  0  0  0  0  0  0  0  0  0  0
   10.1433   45.8920   -2.1058 C   0  0  0  0  0  0  0  0  0  0  0  0
   10.1798   44.8214   -1.1742 O   0  0  0  0  0  0  0  0  0  0  0  0
   10.6820   45.2662   -3.3672 C   0  0  0  0  0  0  0  0  0  0  0  0
   12.0723   45.0671   -3.2857 O   0  0  0  0  0  0  0  0  0  0  0  0
   12.8461   46.1622   -2.9367 C   0  0  0  0  0  0  0  0  0  0  0  0
   12.7129   47.0809   -3.8804 O   0  0  0  0  0  0  0  0  0  0  0  0
   12.7482   48.4736   -0.6492 H   0  0  0  0  0  0  0  0  0  0  0  0
   10.5035   46.5638    0.3334 H   0  0  0  0  0  0  0  0  0  0  0  0
   11.0926   44.5076   -1.0779 H   0  0  0  0  0  0  0  0  0  0  0  0
   11.7871   47.3667   -3.9250 H   0  0  0  0  0  0  0  0  0  0  0  0
   14.6366   44.3373   -3.2621 N   0  0  0  0  0  0  0  0  0  0  0  0
   14.8179   44.3454   -4.2658 H   0  0  0  0  0  0  0  0  0  0  0  0
   15.7830   43.7374   -2.6091 C   0  0  0  0  0  0  0  0  0  0  0  0
   17.0733   44.2001   -3.2466 C   0  0  0  0  0  0  0  0  0  0  0  0
   17.3740   43.7613   -4.3646 O   0  0  0  0  0  0  0  0  0  0  0  0
   17.8013   45.0248   -2.6665 O   0  0  0  0  0  0  0  0  0  0  0  0
   17.5610   45.3482   -1.8205 H   0  0  0  0  0  0  0  0  0  0  0  0
   15.7172   42.2282   -2.5399 C   0  0  0  0  0  0  0  0  0  0  0  0
   14.5477   41.6053   -1.8580 C   0  0  0  0  0  0  0  0  0  0  0  0
   13.2865   41.5233   -2.6054 C   0  0  0  0  0  0  0  0  0  0  0  0
   13.1606   40.7754   -3.4834 O   0  0  0  0  0  0  0  0  0  0  0  0
   12.2398   42.3480   -2.2503 N   0  0  0  0  0  0  0  0  0  0  0  0
   12.3444   42.9834   -1.5057 H   0  0  0  0  0  0  0  0  0  0  0  0
   11.3878   42.3012   -2.7415 H   0  0  0  0  0  0  0  0  0  0  0  0
  8  6  1  0  0  0
  8  9  1  0  0  0
  6  4  1  0  0  0
  6  7  1  0  0  0
  4  5  1  0  0  0
  4  3  1  0  0  0
 11 10  1  0  0  0
  9 10  1  0  0  0
 27 25  1  0  0  0
 10  3  1  0  0  0
 10  1  1  0  0  0
  3  2  1  0  0  0
 25 24  1  0  0  0
 25 26  2  0  0  0
 24 23  1  0  0  0
 20 19  2  0  0  0
 16  1  1  0  0  0
 16 18  1  0  0  0
 19 18  1  0  0  0
 19 21  1  0  0  0
 18 23  1  0  0  0
  2 12  1  0  0  0
  5 13  1  0  0  0
  7 14  1  0  0  0
 11 15  1  0  0  0
 16 17  1  0  0  0
 27 28  1  0  0  0
 27 29  1  0  0  0
 21 22  1  0  0  0
M  END
> <minimizedAffinity>
-8.08232

$$$$
5L9I_SNW_A_401


 29 29  0  0  0  0  0  0  0  0999 V2000
   12.3720   46.5061   -3.0214 C   0  0  0  0  0  0  0  0  0  0  0  0
   10.2294   46.5779   -0.9183 O   0  0  0  0  0  0  0  0  0  0  0  0
   11.1513   47.6478   -1.0909 C   0  0  0  0  0  0  0  0  0  0  0  0
   11.2993   48.4847    0.0818 C   0  0  0  0  0  0  0  0  0  0  0  0
   10.1080   49.2710    0.4263 O   0  0  0  0  0  0  0  0  0  0  0  0
   12.4221   49.3431    0.1272 C   0  0  0  0  0  0  0  0  0  0  0  0
   12.1904   50.4376   -0.7466 O   0  0  0  0  0  0  0  0  0  0  0  0
   13.6992   48.7447   -0.4055 C   0  0  0  0  0  0  0  0  0  0  0  0
   13.4753   48.0483   -1.6073 O   0  0  0  0  0  0  0  0  0  0  0  0
   12.4734   47.0912   -1.6033 C   0  0  0  0  0  0  0  0  0  0  0  0
   12.8118   46.1412   -0.7458 O   0  0  0  0  0  0  0  0  0  0  0  0
    9.3856   46.9277   -0.5920 H   0  0  0  0  0  0  0  0  0  0  0  0
    9.9698   49.9590   -0.2433 H   0  0  0  0  0  0  0  0  0  0  0  0
   12.1022   50.1122   -1.6561 H   0  0  0  0  0  0  0  0  0  0  0  0
   12.8737   46.5178    0.1460 H   0  0  0  0  0  0  0  0  0  0  0  0
   11.0882   46.5697   -3.7131 N   0  0  0  0  0  0  0  0  0  0  0  0
   11.2482   46.9865   -4.6303 H   0  0  0  0  0  0  0  0  0  0  0  0
   10.4112   45.3040   -3.9132 C   0  0  0  0  0  0  0  0  0  0  0  0
    8.9251   45.4401   -3.6716 C   0  0  0  0  0  0  0  0  0  0  0  0
    8.4444   46.5749   -3.5529 O   0  0  0  0  0  0  0  0  0  0  0  0
    8.2011   44.4303   -3.6200 O   0  0  0  0  0  0  0  0  0  0  0  0
    8.5789   43.5778   -3.7115 H   0  0  0  0  0  0  0  0  0  0  0  0
   10.9964   44.1710   -3.1001 C   0  0  0  0  0  0  0  0  0  0  0  0
   11.3275   42.8988   -3.8020 C   0  0  0  0  0  0  0  0  0  0  0  0
   12.3179   42.0131   -3.1771 C   0  0  0  0  0  0  0  0  0  0  0  0
   13.0206   42.4006   -2.3392 O   0  0  0  0  0  0  0  0  0  0  0  0
   12.4054   40.7017   -3.5950 N   0  0  0  0  0  0  0  0  0  0  0  0
   11.8101   40.3708   -4.3059 H   0  0  0  0  0  0  0  0  0  0  0  0
   13.0632   40.0965   -3.1824 H   0  0  0  0  0  0  0  0  0  0  0  0
  8  6  1  0  0  0
  8  9  1  0  0  0
  6  4  1  0  0  0
  6  7  1  0  0  0
  4  5  1  0  0  0
  4  3  1  0  0  0
 11 10  1  0  0  0
  9 10  1  0  0  0
 27 25  1  0  0  0
 10  3  1  0  0  0
 10  1  1  0  0  0
  3  2  1  0  0  0
 25 24  1  0  0  0
 25 26  2  0  0  0
 24 23  1  0  0  0
 20 19  2  0  0  0
 16  1  1  0  0  0
 16 18  1  0  0  0
 19 18  1  0  0  0
 19 21  1  0  0  0
 18 23  1  0  0  0
  2 12  1  0  0  0
  5 13  1  0  0  0
  7 14  1  0  0  0
 11 15  1  0  0  0
 16 17  1  0  0  0
 27 28  1  0  0  0
 27 29  1  0  0  0
 21 22  1  0  0  0
M  END
> <minimizedAffinity>
-7.90086

$$$$
5L9I_SNW_A_401


 29 29  0  0  0  0  0  0  0  0999 V2000
   12.2517   46.8366   -3.0027 C   0  0  0  0  0  0  0  0  0  0  0  0
   10.1731   46.8017   -0.8355 O   0  0  0  0  0  0  0  0  0  0  0  0
   11.0759   47.8896   -0.9955 C   0  0  0  0  0  0  0  0  0  0  0  0
   11.2489   48.6846    0.2026 C   0  0  0  0  0  0  0  0  0  0  0  0
   10.0589   49.4414    0.6116 O   0  0  0  0  0  0  0  0  0  0  0  0
   12.3618   49.5559    0.2465 C   0  0  0  0  0  0  0  0  0  0  0  0
   12.0901   50.6787   -0.5785 O   0  0  0  0  0  0  0  0  0  0  0  0
   13.6296   48.9950   -0.3460 C   0  0  0  0  0  0  0  0  0  0  0  0
   13.3780   48.3404   -1.5656 O   0  0  0  0  0  0  0  0  0  0  0  0
   12.3887   47.3703   -1.5675 C   0  0  0  0  0  0  0  0  0  0  0  0
   12.7648   46.3940   -0.7564 O   0  0  0  0  0  0  0  0  0  0  0  0
    9.3352   47.1277   -0.4713 H   0  0  0  0  0  0  0  0  0  0  0  0
    9.8920   50.1517   -0.0275 H   0  0  0  0  0  0  0  0  0  0  0  0
   11.9784   50.3859   -1.4965 H   0  0  0  0  0  0  0  0  0  0  0  0
   12.8490   46.7382    0.1465 H   0  0  0  0  0  0  0  0  0  0  0  0
   12.8398   45.5401   -3.3251 N   0  0  0  0  0  0  0  0  0  0  0  0
   13.6437   45.4011   -2.7128 H   0  0  0  0  0  0  0  0  0  0  0  0
   11.9668   44.3926   -3.1782 C   0  0  0  0  0  0  0  0  0  0  0  0
   12.7438   43.1736   -2.7357 C   0  0  0  0  0  0  0  0  0  0  0  0
   12.1169   42.1709   -2.3689 O   0  0  0  0  0  0  0  0  0  0  0  0
   13.9870   43.1747   -2.7664 O   0  0  0  0  0  0  0  0  0  0  0  0
   14.4481   43.9409   -3.0462 H   0  0  0  0  0  0  0  0  0  0  0  0
   11.1433   44.0985   -4.4121 C   0  0  0  0  0  0  0  0  0  0  0  0
    9.6820   43.8606   -4.2427 C   0  0  0  0  0  0  0  0  0  0  0  0
    8.9147   44.8490   -3.4745 C   0  0  0  0  0  0  0  0  0  0  0  0
    8.9784   44.8850   -2.3166 O   0  0  0  0  0  0  0  0  0  0  0  0
    8.1121   45.7469   -4.1464 N   0  0  0  0  0  0  0  0  0  0  0  0
    8.0566   45.7181   -5.1289 H   0  0  0  0  0  0  0  0  0  0  0  0
    7.5945   46.4166   -3.6435 H   0  0  0  0  0  0  0  0  0  0  0  0
  8  6  1  0  0  0
  8  9  1  0  0  0
  6  4  1  0  0  0
  6  7  1  0  0  0
  4  5  1  0  0  0
  4  3  1  0  0  0
 11 10  1  0  0  0
  9 10  1  0  0  0
 27 25  1  0  0  0
 10  3  1  0  0  0
 10  1  1  0  0  0
  3  2  1  0  0  0
 25 24  1  0  0  0
 25 26  2  0  0  0
 24 23  1  0  0  0
 20 19  2  0  0  0
 16  1  1  0  0  0
 16 18  1  0  0  0
 19 18  1  0  0  0
 19 21  1  0  0  0
 18 23  1  0  0  0
  2 12  1  0  0  0
  5 13  1  0  0  0
  7 14  1  0  0  0
 11 15  1  0  0  0
 16 17  1  0  0  0
 27 28  1  0  0  0
 27 29  1  0  0  0
 21 22  1  0  0  0
M  END
> <minimizedAffinity>
-7.78080

$$$$
