2XP7_4F8_A_1164


 20 21  0  0  0  0  0  0  0  0999 V2000
  -41.2140   17.6090   13.7432 N   0  0  0  0  0  0  0  0  0  0  0  0
  -42.2815   18.3427   14.0799 C   0  0  0  0  0  0  0  0  0  0  0  0
  -42.0866   18.8317   15.3888 C   0  0  0  0  0  0  0  0  0  0  0  0
  -40.3597   17.6272   14.8025 C   0  0  0  0  0  0  0  0  0  0  0  0
  -40.8875   18.4014   15.7917 N   0  0  0  0  0  0  0  0  0  0  0  0
  -40.4595   18.6079   16.6539 H   0  0  0  0  0  0  0  0  0  0  0  0
  -39.0877   17.0493   14.8894 C   0  0  0  0  0  0  0  0  0  0  0  0
  -38.5335   16.7285   16.1389 C   0  0  0  0  0  0  0  0  0  0  0  0
  -37.2822   16.1140   16.2438 C   0  0  0  0  0  0  0  0  0  0  0  0
  -36.5706   15.7718   15.0867 C   0  0  0  0  0  0  0  0  0  0  0  0
  -37.1434   16.0695   13.8505 C   0  0  0  0  0  0  0  0  0  0  0  0
  -38.3944   16.6939   13.7488 C   0  0  0  0  0  0  0  0  0  0  0  0
  -43.0103   19.7382   16.2516 C   0  0  0  0  0  0  0  0  0  0  0  0
  -44.0613   19.2878   16.7070 O   0  0  0  0  0  0  0  0  0  0  0  0
  -42.7734   20.9444   16.4084 O   0  0  0  0  0  0  0  0  0  0  0  0
  -41.9808   21.3138   16.0719 H   0  0  0  0  0  0  0  0  0  0  0  0
  -43.3661   18.7280   11.9595 O   0  0  0  0  0  0  0  0  0  0  0  0
  -44.6633   18.6058   13.6544 O   0  0  0  0  0  0  0  0  0  0  0  0
  -43.5161   18.5625   13.1774 C   0  0  0  0  0  0  0  0  0  0  0  0
  -44.7933   18.4826   14.5742 H   0  0  0  0  0  0  0  0  0  0  0  0
  1  2  1  0  0  0
  1  4  2  0  0  0
  2  3  2  0  0  0
  2 19  1  0  0  0
  3 13  1  0  0  0
  3  5  1  0  0  0
 13 14  2  0  0  0
 13 15  1  0  0  0
  7  8  1  0  0  0
  7 12  2  0  0  0
  7  4  1  0  0  0
  8  9  2  0  0  0
  9 10  1  0  0  0
 10 11  2  0  0  0
 11 12  1  0  0  0
  4  5  1  0  0  0
 17 19  2  0  0  0
 18 19  1  0  0  0
 15 16  1  0  0  0
 18 20  1  0  0  0
  5  6  1  0  0  0
M  END
> <minimizedAffinity>
-7.32624

$$$$
2XP7_4F8_A_1164


 20 21  0  0  0  0  0  0  0  0999 V2000
  -41.0399   18.4806   15.9674 N   0  0  0  0  0  0  0  0  0  0  0  0
  -42.2352   18.8540   15.4951 C   0  0  0  0  0  0  0  0  0  0  0  0
  -42.3357   18.4221   14.1558 C   0  0  0  0  0  0  0  0  0  0  0  0
  -40.3933   17.8285   14.9630 C   0  0  0  0  0  0  0  0  0  0  0  0
  -41.2044   17.7711   13.8697 N   0  0  0  0  0  0  0  0  0  0  0  0
  -40.9934   17.3269   13.0168 H   0  0  0  0  0  0  0  0  0  0  0  0
  -39.1398   17.2073   15.0103 C   0  0  0  0  0  0  0  0  0  0  0  0
  -38.5916   16.7987   16.2367 C   0  0  0  0  0  0  0  0  0  0  0  0
  -37.3599   16.1405   16.3000 C   0  0  0  0  0  0  0  0  0  0  0  0
  -36.6634   15.8428   15.1216 C   0  0  0  0  0  0  0  0  0  0  0  0
  -37.2308   16.2281   13.9073 C   0  0  0  0  0  0  0  0  0  0  0  0
  -38.4619   16.8959   13.8477 C   0  0  0  0  0  0  0  0  0  0  0  0
  -43.5120   18.5860   13.1514 C   0  0  0  0  0  0  0  0  0  0  0  0
  -43.2788   18.7818   11.9589 O   0  0  0  0  0  0  0  0  0  0  0  0
  -44.6899   18.6336   13.5333 O   0  0  0  0  0  0  0  0  0  0  0  0
  -44.8961   18.4884   14.4358 H   0  0  0  0  0  0  0  0  0  0  0  0
  -44.3973   19.1580   16.5219 O   0  0  0  0  0  0  0  0  0  0  0  0
  -43.0474   20.8063   16.7003 O   0  0  0  0  0  0  0  0  0  0  0  0
  -43.2854   19.6546   16.2971 C   0  0  0  0  0  0  0  0  0  0  0  0
  -42.2108   21.1959   16.5380 H   0  0  0  0  0  0  0  0  0  0  0  0
  1  2  1  0  0  0
  1  4  2  0  0  0
  2  3  2  0  0  0
  2 19  1  0  0  0
  3 13  1  0  0  0
  3  5  1  0  0  0
 13 14  2  0  0  0
 13 15  1  0  0  0
  7  8  1  0  0  0
  7 12  2  0  0  0
  7  4  1  0  0  0
  8  9  2  0  0  0
  9 10  1  0  0  0
 10 11  2  0  0  0
 11 12  1  0  0  0
  4  5  1  0  0  0
 17 19  2  0  0  0
 18 19  1  0  0  0
 15 16  1  0  0  0
 18 20  1  0  0  0
  5  6  1  0  0  0
M  END
> <minimizedAffinity>
-7.00869

$$$$
2XP7_4F8_A_1164


 20 21  0  0  0  0  0  0  0  0999 V2000
  -41.3016   17.4259   14.2159 N   0  0  0  0  0  0  0  0  0  0  0  0
  -42.3679   17.9697   14.8145 C   0  0  0  0  0  0  0  0  0  0  0  0
  -42.1134   18.0300   16.2009 C   0  0  0  0  0  0  0  0  0  0  0  0
  -40.3903   17.1466   15.1873 C   0  0  0  0  0  0  0  0  0  0  0  0
  -40.8826   17.5467   16.3931 N   0  0  0  0  0  0  0  0  0  0  0  0
  -40.4128   17.4897   17.2564 H   0  0  0  0  0  0  0  0  0  0  0  0
  -39.1004   16.6260   15.0302 C   0  0  0  0  0  0  0  0  0  0  0  0
  -38.5939   16.3485   13.7504 C   0  0  0  0  0  0  0  0  0  0  0  0
  -37.2939   15.8666   13.5711 C   0  0  0  0  0  0  0  0  0  0  0  0
  -36.4546   15.6865   14.6781 C   0  0  0  0  0  0  0  0  0  0  0  0
  -36.9588   15.9923   15.9420 C   0  0  0  0  0  0  0  0  0  0  0  0
  -38.2659   16.4669   16.1193 C   0  0  0  0  0  0  0  0  0  0  0  0
  -43.0115   18.5783   17.3464 C   0  0  0  0  0  0  0  0  0  0  0  0
  -42.5527   19.3865   18.1533 O   0  0  0  0  0  0  0  0  0  0  0  0
  -44.1551   18.1420   17.5403 O   0  0  0  0  0  0  0  0  0  0  0  0
  -44.5290   17.5255   16.9419 H   0  0  0  0  0  0  0  0  0  0  0  0
  -43.8508   18.0554   12.9133 O   0  0  0  0  0  0  0  0  0  0  0  0
  -44.4954   19.1389   14.6399 O   0  0  0  0  0  0  0  0  0  0  0  0
  -43.6564   18.4090   14.0839 C   0  0  0  0  0  0  0  0  0  0  0  0
  -44.3626   19.4149   15.5254 H   0  0  0  0  0  0  0  0  0  0  0  0
  1  2  1  0  0  0
  1  4  2  0  0  0
  2  3  2  0  0  0
  2 19  1  0  0  0
  3 13  1  0  0  0
  3  5  1  0  0  0
 13 14  2  0  0  0
 13 15  1  0  0  0
  7  8  1  0  0  0
  7 12  2  0  0  0
  7  4  1  0  0  0
  8  9  2  0  0  0
  9 10  1  0  0  0
 10 11  2  0  0  0
 11 12  1  0  0  0
  4  5  1  0  0  0
 17 19  2  0  0  0
 18 19  1  0  0  0
 15 16  1  0  0  0
 18 20  1  0  0  0
  5  6  1  0  0  0
M  END
> <minimizedAffinity>
-6.34224

$$$$
2XP7_4F8_A_1164


 20 21  0  0  0  0  0  0  0  0999 V2000
  -41.4867   17.1763   14.7107 N   0  0  0  0  0  0  0  0  0  0  0  0
  -42.4847   18.0639   14.7962 C   0  0  0  0  0  0  0  0  0  0  0  0
  -42.4927   18.5951   16.1032 C   0  0  0  0  0  0  0  0  0  0  0  0
  -40.8723   17.1394   15.9244 C   0  0  0  0  0  0  0  0  0  0  0  0
  -41.4745   18.0315   16.7598 N   0  0  0  0  0  0  0  0  0  0  0  0
  -41.2061   18.2270   17.6866 H   0  0  0  0  0  0  0  0  0  0  0  0
  -39.7403   16.4023   16.2915 C   0  0  0  0  0  0  0  0  0  0  0  0
  -39.8698   15.2184   17.0350 C   0  0  0  0  0  0  0  0  0  0  0  0
  -38.7545   14.4475   17.3760 C   0  0  0  0  0  0  0  0  0  0  0  0
  -37.4787   14.8315   16.9432 C   0  0  0  0  0  0  0  0  0  0  0  0
  -37.3652   15.9940   16.1812 C   0  0  0  0  0  0  0  0  0  0  0  0
  -38.4845   16.7697   15.8484 C   0  0  0  0  0  0  0  0  0  0  0  0
  -43.4339   19.6640   16.7285 C   0  0  0  0  0  0  0  0  0  0  0  0
  -44.4061   19.3115   17.3959 O   0  0  0  0  0  0  0  0  0  0  0  0
  -43.2974   20.8714   16.4850 O   0  0  0  0  0  0  0  0  0  0  0  0
  -42.5664   21.1676   15.9792 H   0  0  0  0  0  0  0  0  0  0  0  0
  -43.0794   18.3402   12.4744 O   0  0  0  0  0  0  0  0  0  0  0  0
  -44.6346   18.7483   13.8835 O   0  0  0  0  0  0  0  0  0  0  0  0
  -43.4655   18.3960   13.6496 C   0  0  0  0  0  0  0  0  0  0  0  0
  -44.9417   18.7955   14.7675 H   0  0  0  0  0  0  0  0  0  0  0  0
  1  2  1  0  0  0
  1  4  2  0  0  0
  2  3  2  0  0  0
  2 19  1  0  0  0
  3 13  1  0  0  0
  3  5  1  0  0  0
 13 14  2  0  0  0
 13 15  1  0  0  0
  7  8  1  0  0  0
  7 12  2  0  0  0
  7  4  1  0  0  0
  8  9  2  0  0  0
  9 10  1  0  0  0
 10 11  2  0  0  0
 11 12  1  0  0  0
  4  5  1  0  0  0
 17 19  2  0  0  0
 18 19  1  0  0  0
 15 16  1  0  0  0
 18 20  1  0  0  0
  5  6  1  0  0  0
M  END
> <minimizedAffinity>
-5.99457

$$$$
2XP7_4F8_A_1164


 20 21  0  0  0  0  0  0  0  0999 V2000
  -41.1306   18.0718   15.1013 N   0  0  0  0  0  0  0  0  0  0  0  0
  -42.1583   18.2934   15.9295 C   0  0  0  0  0  0  0  0  0  0  0  0
  -41.9510   17.5380   17.1029 C   0  0  0  0  0  0  0  0  0  0  0  0
  -40.2890   17.2021   15.7238 C   0  0  0  0  0  0  0  0  0  0  0  0
  -40.7831   16.9050   16.9583 N   0  0  0  0  0  0  0  0  0  0  0  0
  -40.3540   16.3245   17.6278 H   0  0  0  0  0  0  0  0  0  0  0  0
  -39.0532   16.7284   15.2678 C   0  0  0  0  0  0  0  0  0  0  0  0
  -38.0251   16.4279   16.1757 C   0  0  0  0  0  0  0  0  0  0  0  0
  -36.7986   15.9157   15.7425 C   0  0  0  0  0  0  0  0  0  0  0  0
  -36.5887   15.6570   14.3819 C   0  0  0  0  0  0  0  0  0  0  0  0
  -37.6269   15.9326   13.4924 C   0  0  0  0  0  0  0  0  0  0  0  0
  -38.8525   16.4547   13.9289 C   0  0  0  0  0  0  0  0  0  0  0  0
  -42.8313   17.4387   18.3813 C   0  0  0  0  0  0  0  0  0  0  0  0
  -43.2329   16.3411   18.7670 O   0  0  0  0  0  0  0  0  0  0  0  0
  -43.2361   18.4507   18.9711 O   0  0  0  0  0  0  0  0  0  0  0  0
  -42.9466   19.2991   18.6984 H   0  0  0  0  0  0  0  0  0  0  0  0
  -44.1238   18.9039   14.6705 O   0  0  0  0  0  0  0  0  0  0  0  0
  -43.5841   20.2395   16.2502 O   0  0  0  0  0  0  0  0  0  0  0  0
  -43.3677   19.1986   15.6058 C   0  0  0  0  0  0  0  0  0  0  0  0
  -43.0210   20.4763   16.9608 H   0  0  0  0  0  0  0  0  0  0  0  0
  1  2  1  0  0  0
  1  4  2  0  0  0
  2  3  2  0  0  0
  2 19  1  0  0  0
  3 13  1  0  0  0
  3  5  1  0  0  0
 13 14  2  0  0  0
 13 15  1  0  0  0
  7  8  1  0  0  0
  7 12  2  0  0  0
  7  4  1  0  0  0
  8  9  2  0  0  0
  9 10  1  0  0  0
 10 11  2  0  0  0
 11 12  1  0  0  0
  4  5  1  0  0  0
 17 19  2  0  0  0
 18 19  1  0  0  0
 15 16  1  0  0  0
 18 20  1  0  0  0
  5  6  1  0  0  0
M  END
> <minimizedAffinity>
-5.87626

$$$$
2XP7_4F8_A_1164


 20 21  0  0  0  0  0  0  0  0999 V2000
  -40.8190   17.0531   16.8305 N   0  0  0  0  0  0  0  0  0  0  0  0
  -42.0550   17.5443   16.6811 C   0  0  0  0  0  0  0  0  0  0  0  0
  -42.2611   17.8130   15.3115 C   0  0  0  0  0  0  0  0  0  0  0  0
  -40.2495   17.0070   15.5953 C   0  0  0  0  0  0  0  0  0  0  0  0
  -41.1485   17.4448   14.6697 N   0  0  0  0  0  0  0  0  0  0  0  0
  -41.0034   17.4831   13.6967 H   0  0  0  0  0  0  0  0  0  0  0  0
  -38.9876   16.5093   15.2500 C   0  0  0  0  0  0  0  0  0  0  0  0
  -38.6649   16.2513   13.9081 C   0  0  0  0  0  0  0  0  0  0  0  0
  -37.3967   15.7926   13.5398 C   0  0  0  0  0  0  0  0  0  0  0  0
  -36.4053   15.6168   14.5137 C   0  0  0  0  0  0  0  0  0  0  0  0
  -36.7283   15.9032   15.8398 C   0  0  0  0  0  0  0  0  0  0  0  0
  -38.0037   16.3545   16.2071 C   0  0  0  0  0  0  0  0  0  0  0  0
  -43.5197   18.3811   14.5956 C   0  0  0  0  0  0  0  0  0  0  0  0
  -44.2025   19.2445   15.1462 O   0  0  0  0  0  0  0  0  0  0  0  0
  -43.9239   17.9109   13.5226 O   0  0  0  0  0  0  0  0  0  0  0  0
  -43.4240   17.2523   13.0818 H   0  0  0  0  0  0  0  0  0  0  0  0
  -42.8430   18.7275   18.6305 O   0  0  0  0  0  0  0  0  0  0  0  0
  -44.0342   17.0629   18.0132 O   0  0  0  0  0  0  0  0  0  0  0  0
  -43.0457   17.7967   17.8394 C   0  0  0  0  0  0  0  0  0  0  0  0
  -44.2012   16.3544   17.4233 H   0  0  0  0  0  0  0  0  0  0  0  0
  1  2  1  0  0  0
  1  4  2  0  0  0
  2  3  2  0  0  0
  2 19  1  0  0  0
  3 13  1  0  0  0
  3  5  1  0  0  0
 13 14  2  0  0  0
 13 15  1  0  0  0
  7  8  1  0  0  0
  7 12  2  0  0  0
  7  4  1  0  0  0
  8  9  2  0  0  0
  9 10  1  0  0  0
 10 11  2  0  0  0
 11 12  1  0  0  0
  4  5  1  0  0  0
 17 19  2  0  0  0
 18 19  1  0  0  0
 15 16  1  0  0  0
 18 20  1  0  0  0
  5  6  1  0  0  0
M  END
> <minimizedAffinity>
-5.78281

$$$$
2XP7_4F8_A_1164


 20 21  0  0  0  0  0  0  0  0999 V2000
  -42.5577   16.7414   15.2885 N   0  0  0  0  0  0  0  0  0  0  0  0
  -43.3370   17.6807   15.8379 C   0  0  0  0  0  0  0  0  0  0  0  0
  -42.5051   18.6530   16.4320 C   0  0  0  0  0  0  0  0  0  0  0  0
  -41.2657   17.0999   15.5217 C   0  0  0  0  0  0  0  0  0  0  0  0
  -41.2428   18.2845   16.1945 N   0  0  0  0  0  0  0  0  0  0  0  0
  -40.4361   18.7826   16.4597 H   0  0  0  0  0  0  0  0  0  0  0  0
  -40.1034   16.4547   15.0833 C   0  0  0  0  0  0  0  0  0  0  0  0
  -39.8364   15.1296   15.4630 C   0  0  0  0  0  0  0  0  0  0  0  0
  -38.7017   14.4552   15.0024 C   0  0  0  0  0  0  0  0  0  0  0  0
  -37.8226   15.0886   14.1144 C   0  0  0  0  0  0  0  0  0  0  0  0
  -38.1128   16.3949   13.7218 C   0  0  0  0  0  0  0  0  0  0  0  0
  -39.2468   17.0716   14.1924 C   0  0  0  0  0  0  0  0  0  0  0  0
  -42.8936   19.9533   17.1919 C   0  0  0  0  0  0  0  0  0  0  0  0
  -42.8821   19.9725   18.4225 O   0  0  0  0  0  0  0  0  0  0  0  0
  -43.3232   20.9506   16.5947 O   0  0  0  0  0  0  0  0  0  0  0  0
  -43.3434   20.9632   15.6580 H   0  0  0  0  0  0  0  0  0  0  0  0
  -45.4883   17.2596   14.8301 O   0  0  0  0  0  0  0  0  0  0  0  0
  -45.5347   18.0432   16.8187 O   0  0  0  0  0  0  0  0  0  0  0  0
  -44.8817   17.6518   15.8359 C   0  0  0  0  0  0  0  0  0  0  0  0
  -45.0903   18.3429   17.5872 H   0  0  0  0  0  0  0  0  0  0  0  0
  1  2  1  0  0  0
  1  4  2  0  0  0
  2  3  2  0  0  0
  2 19  1  0  0  0
  3 13  1  0  0  0
  3  5  1  0  0  0
 13 14  2  0  0  0
 13 15  1  0  0  0
  7  8  1  0  0  0
  7 12  2  0  0  0
  7  4  1  0  0  0
  8  9  2  0  0  0
  9 10  1  0  0  0
 10 11  2  0  0  0
 11 12  1  0  0  0
  4  5  1  0  0  0
 17 19  2  0  0  0
 18 19  1  0  0  0
 15 16  1  0  0  0
 18 20  1  0  0  0
  5  6  1  0  0  0
M  END
> <minimizedAffinity>
-5.43310

$$$$
2XP7_4F8_A_1164


 20 21  0  0  0  0  0  0  0  0999 V2000
  -41.4341   17.9295   17.4492 N   0  0  0  0  0  0  0  0  0  0  0  0
  -42.3059   18.6147   16.6996 C   0  0  0  0  0  0  0  0  0  0  0  0
  -42.4093   17.9750   15.4463 C   0  0  0  0  0  0  0  0  0  0  0  0
  -40.9923   16.8821   16.7010 C   0  0  0  0  0  0  0  0  0  0  0  0
  -41.6161   16.9006   15.4899 N   0  0  0  0  0  0  0  0  0  0  0  0
  -41.5022   16.2373   14.7713 H   0  0  0  0  0  0  0  0  0  0  0  0
  -40.1170   15.8602   17.0872 C   0  0  0  0  0  0  0  0  0  0  0  0
  -38.7946   15.8371   16.6160 C   0  0  0  0  0  0  0  0  0  0  0  0
  -37.8944   14.8478   17.0225 C   0  0  0  0  0  0  0  0  0  0  0  0
  -38.2941   13.8739   17.9466 C   0  0  0  0  0  0  0  0  0  0  0  0
  -39.6015   13.9232   18.4296 C   0  0  0  0  0  0  0  0  0  0  0  0
  -40.5045   14.9113   18.0133 C   0  0  0  0  0  0  0  0  0  0  0  0
  -43.2843   18.3497   14.2162 C   0  0  0  0  0  0  0  0  0  0  0  0
  -42.8515   18.1727   13.0777 O   0  0  0  0  0  0  0  0  0  0  0  0
  -44.3731   18.9271   14.3456 O   0  0  0  0  0  0  0  0  0  0  0  0
  -44.7262   19.0751   15.2008 H   0  0  0  0  0  0  0  0  0  0  0  0
  -43.3710   20.0365   18.3321 O   0  0  0  0  0  0  0  0  0  0  0  0
  -43.2988   20.8073   16.3392 O   0  0  0  0  0  0  0  0  0  0  0  0
  -43.0276   19.9044   17.1497 C   0  0  0  0  0  0  0  0  0  0  0  0
  -43.0458   20.7221   15.4411 H   0  0  0  0  0  0  0  0  0  0  0  0
  1  2  1  0  0  0
  1  4  2  0  0  0
  2  3  2  0  0  0
  2 19  1  0  0  0
  3 13  1  0  0  0
  3  5  1  0  0  0
 13 14  2  0  0  0
 13 15  1  0  0  0
  7  8  1  0  0  0
  7 12  2  0  0  0
  7  4  1  0  0  0
  8  9  2  0  0  0
  9 10  1  0  0  0
 10 11  2  0  0  0
 11 12  1  0  0  0
  4  5  1  0  0  0
 17 19  2  0  0  0
 18 19  1  0  0  0
 15 16  1  0  0  0
 18 20  1  0  0  0
  5  6  1  0  0  0
M  END
> <minimizedAffinity>
-5.31771

$$$$
2XP7_4F8_A_1164


 20 21  0  0  0  0  0  0  0  0999 V2000
  -39.9793   16.3773   16.9521 N   0  0  0  0  0  0  0  0  0  0  0  0
  -39.7789   16.7630   15.6863 C   0  0  0  0  0  0  0  0  0  0  0  0
  -38.6026   16.1418   15.2161 C   0  0  0  0  0  0  0  0  0  0  0  0
  -38.9641   15.5340   17.2841 C   0  0  0  0  0  0  0  0  0  0  0  0
  -38.1445   15.3723   16.2078 N   0  0  0  0  0  0  0  0  0  0  0  0
  -37.3521   14.7895   16.1676 H   0  0  0  0  0  0  0  0  0  0  0  0
  -38.7863   14.8353   18.4840 C   0  0  0  0  0  0  0  0  0  0  0  0
  -37.9117   13.7387   18.5483 C   0  0  0  0  0  0  0  0  0  0  0  0
  -37.6904   13.0539   19.7468 C   0  0  0  0  0  0  0  0  0  0  0  0
  -38.3184   13.4809   20.9240 C   0  0  0  0  0  0  0  0  0  0  0  0
  -39.1629   14.5885   20.8540 C   0  0  0  0  0  0  0  0  0  0  0  0
  -39.3897   15.2677   19.6488 C   0  0  0  0  0  0  0  0  0  0  0  0
  -37.9259   16.2389   13.8190 C   0  0  0  0  0  0  0  0  0  0  0  0
  -36.7158   16.0433   13.7076 O   0  0  0  0  0  0  0  0  0  0  0  0
  -38.5526   16.6166   12.8189 O   0  0  0  0  0  0  0  0  0  0  0  0
  -39.4747   16.7731   12.8753 H   0  0  0  0  0  0  0  0  0  0  0  0
  -41.1874   17.4120   13.8381 O   0  0  0  0  0  0  0  0  0  0  0  0
  -40.8907   18.9007   15.3435 O   0  0  0  0  0  0  0  0  0  0  0  0
  -40.6819   17.7521   14.9160 C   0  0  0  0  0  0  0  0  0  0  0  0
  -40.5152   19.1731   16.1576 H   0  0  0  0  0  0  0  0  0  0  0  0
  1  2  1  0  0  0
  1  4  2  0  0  0
  2  3  2  0  0  0
  2 19  1  0  0  0
  3 13  1  0  0  0
  3  5  1  0  0  0
 13 14  2  0  0  0
 13 15  1  0  0  0
  7  8  1  0  0  0
  7 12  2  0  0  0
  7  4  1  0  0  0
  8  9  2  0  0  0
  9 10  1  0  0  0
 10 11  2  0  0  0
 11 12  1  0  0  0
  4  5  1  0  0  0
 17 19  2  0  0  0
 18 19  1  0  0  0
 15 16  1  0  0  0
 18 20  1  0  0  0
  5  6  1  0  0  0
M  END
> <minimizedAffinity>
-5.11945

$$$$
2XP7_4F8_A_1164


 20 21  0  0  0  0  0  0  0  0999 V2000
  -38.0772   15.3227   16.1046 N   0  0  0  0  0  0  0  0  0  0  0  0
  -38.5493   16.1076   15.1286 C   0  0  0  0  0  0  0  0  0  0  0  0
  -39.7196   16.7405   15.5978 C   0  0  0  0  0  0  0  0  0  0  0  0
  -38.9176   15.4485   17.1676 C   0  0  0  0  0  0  0  0  0  0  0  0
  -39.9010   16.3398   16.8596 N   0  0  0  0  0  0  0  0  0  0  0  0
  -40.6206   16.6370   17.4621 H   0  0  0  0  0  0  0  0  0  0  0  0
  -38.7940   14.8637   18.4334 C   0  0  0  0  0  0  0  0  0  0  0  0
  -37.9834   13.7327   18.6209 C   0  0  0  0  0  0  0  0  0  0  0  0
  -37.8155   13.1592   19.8848 C   0  0  0  0  0  0  0  0  0  0  0  0
  -38.4327   13.7349   21.0028 C   0  0  0  0  0  0  0  0  0  0  0  0
  -39.2126   14.8747   20.8092 C   0  0  0  0  0  0  0  0  0  0  0  0
  -39.3863   15.4422   19.5392 C   0  0  0  0  0  0  0  0  0  0  0  0
  -40.6507   17.7551   14.8746 C   0  0  0  0  0  0  0  0  0  0  0  0
  -40.8690   18.8563   15.3793 O   0  0  0  0  0  0  0  0  0  0  0  0
  -41.2729   17.4477   13.8480 O   0  0  0  0  0  0  0  0  0  0  0  0
  -41.1263   16.6156   13.4428 H   0  0  0  0  0  0  0  0  0  0  0  0
  -36.7291   15.9321   13.5548 O   0  0  0  0  0  0  0  0  0  0  0  0
  -38.5671   16.6858   12.7646 O   0  0  0  0  0  0  0  0  0  0  0  0
  -37.9155   16.2424   13.7261 C   0  0  0  0  0  0  0  0  0  0  0  0
  -39.4659   16.9251   12.8782 H   0  0  0  0  0  0  0  0  0  0  0  0
  1  2  1  0  0  0
  1  4  2  0  0  0
  2  3  2  0  0  0
  2 19  1  0  0  0
  3 13  1  0  0  0
  3  5  1  0  0  0
 13 14  2  0  0  0
 13 15  1  0  0  0
  7  8  1  0  0  0
  7 12  2  0  0  0
  7  4  1  0  0  0
  8  9  2  0  0  0
  9 10  1  0  0  0
 10 11  2  0  0  0
 11 12  1  0  0  0
  4  5  1  0  0  0
 17 19  2  0  0  0
 18 19  1  0  0  0
 15 16  1  0  0  0
 18 20  1  0  0  0
  5  6  1  0  0  0
M  END
> <minimizedAffinity>
-5.06966

$$$$
