1UZ1_IFL_A_1446


 15 15  0  0  0  0  0  0  0  0999 V2000
   -1.3493   10.7514    6.7836 O   0  0  0  0  0  0  0  0  0  0  0  0
   -0.9904   10.5521    8.1461 C   0  0  0  0  0  0  0  0  0  0  0  0
   -0.1543   11.7866    8.5366 C   0  0  0  0  0  0  0  0  0  0  0  0
    1.1333   11.8258    7.9150 O   0  0  0  0  0  0  0  0  0  0  0  0
    0.1010   11.8363   10.0476 C   0  0  0  0  0  0  0  0  0  0  0  0
   -0.5979   11.0067   10.8585 N   0  0  0  0  0  0  0  0  0  0  0  0
   -1.6127   10.0296   10.4640 C   0  0  0  0  0  0  0  0  0  0  0  0
   -2.2035   10.4554    9.1062 C   0  0  0  0  0  0  0  0  0  0  0  0
    0.9137   12.6397   10.4581 O   0  0  0  0  0  0  0  0  0  0  0  0
   -0.5463   10.8025    6.2419 H   0  0  0  0  0  0  0  0  0  0  0  0
    1.6625   11.0721    8.2196 H   0  0  0  0  0  0  0  0  0  0  0  0
   -0.4009   11.0680   11.8212 H   0  0  0  0  0  0  0  0  0  0  0  0
   -3.2753    9.4707    8.6573 C   0  0  0  0  0  0  0  0  0  0  0  0
   -2.8004    8.1489    8.9081 O   0  0  0  0  0  0  0  0  0  0  0  0
   -1.9767    8.0026    8.4172 H   0  0  0  0  0  0  0  0  0  0  0  0
  1  2  1  0  0  0
  2  3  1  0  0  0
  2  8  1  0  0  0
  3  4  1  0  0  0
  3  5  1  0  0  0
  5  6  1  0  0  0
  5  9  2  0  0  0
  6  7  1  0  0  0
  7  8  1  0  0  0
  8 13  1  0  0  0
 13 14  1  0  0  0
  1 10  1  0  0  0
  4 11  1  0  0  0
  6 12  1  0  0  0
 14 15  1  0  0  0
M  END
> <minimizedAffinity>
-7.67265

$$$$
1UZ1_IFL_A_1446


 15 15  0  0  0  0  0  0  0  0999 V2000
   -3.0792    9.3370    8.2330 O   0  0  0  0  0  0  0  0  0  0  0  0
   -1.7899    9.5445    8.7984 C   0  0  0  0  0  0  0  0  0  0  0  0
   -1.2599   10.8390    8.1512 C   0  0  0  0  0  0  0  0  0  0  0  0
   -0.9337   10.6947    6.7661 O   0  0  0  0  0  0  0  0  0  0  0  0
    0.0193   11.3280    8.8408 C   0  0  0  0  0  0  0  0  0  0  0  0
    0.3819   10.7717   10.0211 N   0  0  0  0  0  0  0  0  0  0  0  0
   -0.3211    9.7222   10.7590 C   0  0  0  0  0  0  0  0  0  0  0  0
   -1.8030    9.7327   10.3369 C   0  0  0  0  0  0  0  0  0  0  0  0
    0.6484   12.2162    8.3023 O   0  0  0  0  0  0  0  0  0  0  0  0
   -2.9973    9.2274    7.2727 H   0  0  0  0  0  0  0  0  0  0  0  0
   -0.2042   10.0627    6.6698 H   0  0  0  0  0  0  0  0  0  0  0  0
    1.2114   11.1116   10.4282 H   0  0  0  0  0  0  0  0  0  0  0  0
   -2.5804    8.6601   11.0884 C   0  0  0  0  0  0  0  0  0  0  0  0
   -1.8091    8.2602   12.2202 O   0  0  0  0  0  0  0  0  0  0  0  0
   -0.9532    7.9145   11.9224 H   0  0  0  0  0  0  0  0  0  0  0  0
  1  2  1  0  0  0
  2  3  1  0  0  0
  2  8  1  0  0  0
  3  4  1  0  0  0
  3  5  1  0  0  0
  5  6  1  0  0  0
  5  9  2  0  0  0
  6  7  1  0  0  0
  7  8  1  0  0  0
  8 13  1  0  0  0
 13 14  1  0  0  0
  1 10  1  0  0  0
  4 11  1  0  0  0
  6 12  1  0  0  0
 14 15  1  0  0  0
M  END
> <minimizedAffinity>
-6.22228

$$$$
1UZ1_IFL_A_1446


 15 15  0  0  0  0  0  0  0  0999 V2000
   -0.9287    9.9691   11.7803 O   0  0  0  0  0  0  0  0  0  0  0  0
   -1.1348   10.4892   10.4718 C   0  0  0  0  0  0  0  0  0  0  0  0
    0.2221   11.0835   10.0463 C   0  0  0  0  0  0  0  0  0  0  0  0
    0.5772   12.2699   10.7620 O   0  0  0  0  0  0  0  0  0  0  0  0
    0.2267   11.4650    8.5613 C   0  0  0  0  0  0  0  0  0  0  0  0
   -0.7847   11.0341    7.7703 N   0  0  0  0  0  0  0  0  0  0  0  0
   -1.9289   10.2120    8.1641 C   0  0  0  0  0  0  0  0  0  0  0  0
   -1.5521    9.4194    9.4306 C   0  0  0  0  0  0  0  0  0  0  0  0
    1.1572   12.1280    8.1502 O   0  0  0  0  0  0  0  0  0  0  0  0
   -0.6713   10.6889   12.3774 H   0  0  0  0  0  0  0  0  0  0  0  0
   -0.0637   12.9707   10.5644 H   0  0  0  0  0  0  0  0  0  0  0  0
   -0.7455   11.3044    6.8244 H   0  0  0  0  0  0  0  0  0  0  0  0
   -2.7123    8.5382    9.8746 C   0  0  0  0  0  0  0  0  0  0  0  0
   -3.9298    9.1809    9.5000 O   0  0  0  0  0  0  0  0  0  0  0  0
   -3.9806   10.0509    9.9261 H   0  0  0  0  0  0  0  0  0  0  0  0
  1  2  1  0  0  0
  2  3  1  0  0  0
  2  8  1  0  0  0
  3  4  1  0  0  0
  3  5  1  0  0  0
  5  6  1  0  0  0
  5  9  2  0  0  0
  6  7  1  0  0  0
  7  8  1  0  0  0
  8 13  1  0  0  0
 13 14  1  0  0  0
  1 10  1  0  0  0
  4 11  1  0  0  0
  6 12  1  0  0  0
 14 15  1  0  0  0
M  END
> <minimizedAffinity>
-6.10777

$$$$
1UZ1_IFL_A_1446


 15 15  0  0  0  0  0  0  0  0999 V2000
    0.2323   11.9300   10.9321 O   0  0  0  0  0  0  0  0  0  0  0  0
   -0.3036   10.9097   10.0974 C   0  0  0  0  0  0  0  0  0  0  0  0
   -1.4555   10.2798   10.9048 C   0  0  0  0  0  0  0  0  0  0  0  0
   -1.0145    9.5134   12.0290 O   0  0  0  0  0  0  0  0  0  0  0  0
   -2.2905    9.3269   10.0413 C   0  0  0  0  0  0  0  0  0  0  0  0
   -2.1136    9.3333    8.6986 N   0  0  0  0  0  0  0  0  0  0  0  0
   -1.1927   10.1711    7.9302 C   0  0  0  0  0  0  0  0  0  0  0  0
   -0.8726   11.4332    8.7540 C   0  0  0  0  0  0  0  0  0  0  0  0
   -3.0967    8.6136   10.6032 O   0  0  0  0  0  0  0  0  0  0  0  0
    0.5688   11.5341   11.7512 H   0  0  0  0  0  0  0  0  0  0  0  0
   -0.4961    8.7543   11.7194 H   0  0  0  0  0  0  0  0  0  0  0  0
   -2.6666    8.7037    8.1817 H   0  0  0  0  0  0  0  0  0  0  0  0
    0.0780   12.3442    7.9885 C   0  0  0  0  0  0  0  0  0  0  0  0
    1.4092   11.8727    8.1922 O   0  0  0  0  0  0  0  0  0  0  0  0
    1.6151   11.8852    9.1400 H   0  0  0  0  0  0  0  0  0  0  0  0
  1  2  1  0  0  0
  2  3  1  0  0  0
  2  8  1  0  0  0
  3  4  1  0  0  0
  3  5  1  0  0  0
  5  6  1  0  0  0
  5  9  2  0  0  0
  6  7  1  0  0  0
  7  8  1  0  0  0
  8 13  1  0  0  0
 13 14  1  0  0  0
  1 10  1  0  0  0
  4 11  1  0  0  0
  6 12  1  0  0  0
 14 15  1  0  0  0
M  END
> <minimizedAffinity>
-6.02443

$$$$
1UZ1_IFL_A_1446


 15 15  0  0  0  0  0  0  0  0999 V2000
   -1.3814    9.8862   12.3898 O   0  0  0  0  0  0  0  0  0  0  0  0
   -1.2993    9.1807   11.1567 C   0  0  0  0  0  0  0  0  0  0  0  0
   -1.0753   10.2595   10.0790 C   0  0  0  0  0  0  0  0  0  0  0  0
   -2.2204   11.0851    9.8488 O   0  0  0  0  0  0  0  0  0  0  0  0
   -0.7221    9.6343    8.7242 C   0  0  0  0  0  0  0  0  0  0  0  0
   -0.4058    8.3185    8.6715 N   0  0  0  0  0  0  0  0  0  0  0  0
   -0.3500    7.3753    9.7884 C   0  0  0  0  0  0  0  0  0  0  0  0
   -0.1276    8.1680   11.0908 C   0  0  0  0  0  0  0  0  0  0  0  0
   -0.7226   10.3585    7.7495 O   0  0  0  0  0  0  0  0  0  0  0  0
   -2.1326   10.4993   12.3621 H   0  0  0  0  0  0  0  0  0  0  0  0
   -2.9445   10.5432    9.4983 H   0  0  0  0  0  0  0  0  0  0  0  0
   -0.1892    7.9563    7.7821 H   0  0  0  0  0  0  0  0  0  0  0  0
   -0.0524    7.2249   12.2843 C   0  0  0  0  0  0  0  0  0  0  0  0
    0.3631    7.9778   13.4228 O   0  0  0  0  0  0  0  0  0  0  0  0
    1.2303    8.3759   13.2483 H   0  0  0  0  0  0  0  0  0  0  0  0
  1  2  1  0  0  0
  2  3  1  0  0  0
  2  8  1  0  0  0
  3  4  1  0  0  0
  3  5  1  0  0  0
  5  6  1  0  0  0
  5  9  2  0  0  0
  6  7  1  0  0  0
  7  8  1  0  0  0
  8 13  1  0  0  0
 13 14  1  0  0  0
  1 10  1  0  0  0
  4 11  1  0  0  0
  6 12  1  0  0  0
 14 15  1  0  0  0
M  END
> <minimizedAffinity>
-5.93934

$$$$
1UZ1_IFL_A_1446


 15 15  0  0  0  0  0  0  0  0999 V2000
   -0.6968    9.3437    7.5383 O   0  0  0  0  0  0  0  0  0  0  0  0
   -1.0708    9.5282    8.8988 C   0  0  0  0  0  0  0  0  0  0  0  0
   -0.6607    8.2286    9.6186 C   0  0  0  0  0  0  0  0  0  0  0  0
   -1.4631    7.0993    9.2626 O   0  0  0  0  0  0  0  0  0  0  0  0
   -0.7765    8.3698   11.1410 C   0  0  0  0  0  0  0  0  0  0  0  0
   -0.9567    9.6018   11.6736 N   0  0  0  0  0  0  0  0  0  0  0  0
   -1.0549   10.8722   10.9546 C   0  0  0  0  0  0  0  0  0  0  0  0
   -0.3582   10.7192    9.5889 C   0  0  0  0  0  0  0  0  0  0  0  0
   -0.6812    7.3620   11.8116 O   0  0  0  0  0  0  0  0  0  0  0  0
   -1.1778    8.5859    7.1706 H   0  0  0  0  0  0  0  0  0  0  0  0
   -2.3785    7.2510    9.5453 H   0  0  0  0  0  0  0  0  0  0  0  0
   -1.0298    9.6478   12.6543 H   0  0  0  0  0  0  0  0  0  0  0  0
   -0.4259   12.0235    8.8054 C   0  0  0  0  0  0  0  0  0  0  0  0
    0.6405   12.0307    7.8574 O   0  0  0  0  0  0  0  0  0  0  0  0
    1.4880   11.9572    8.3235 H   0  0  0  0  0  0  0  0  0  0  0  0
  1  2  1  0  0  0
  2  3  1  0  0  0
  2  8  1  0  0  0
  3  4  1  0  0  0
  3  5  1  0  0  0
  5  6  1  0  0  0
  5  9  2  0  0  0
  6  7  1  0  0  0
  7  8  1  0  0  0
  8 13  1  0  0  0
 13 14  1  0  0  0
  1 10  1  0  0  0
  4 11  1  0  0  0
  6 12  1  0  0  0
 14 15  1  0  0  0
M  END
> <minimizedAffinity>
-5.83525

$$$$
1UZ1_IFL_A_1446


 15 15  0  0  0  0  0  0  0  0999 V2000
   -2.3744   11.6139    9.1632 O   0  0  0  0  0  0  0  0  0  0  0  0
   -1.7011   10.5308    9.7946 C   0  0  0  0  0  0  0  0  0  0  0  0
   -2.2673    9.2558    9.1394 C   0  0  0  0  0  0  0  0  0  0  0  0
   -3.6250    8.9828    9.4971 O   0  0  0  0  0  0  0  0  0  0  0  0
   -1.4633    8.0138    9.5419 C   0  0  0  0  0  0  0  0  0  0  0  0
   -0.2733    8.1771   10.1676 N   0  0  0  0  0  0  0  0  0  0  0  0
    0.3760    9.4396   10.5209 C   0  0  0  0  0  0  0  0  0  0  0  0
   -0.1641   10.5463    9.5948 C   0  0  0  0  0  0  0  0  0  0  0  0
   -1.9244    6.9260    9.2617 O   0  0  0  0  0  0  0  0  0  0  0  0
   -3.3276   11.5422    9.3280 H   0  0  0  0  0  0  0  0  0  0  0  0
   -3.6794    8.8071   10.4494 H   0  0  0  0  0  0  0  0  0  0  0  0
    0.2087    7.3542   10.4119 H   0  0  0  0  0  0  0  0  0  0  0  0
    0.4921   11.8819    9.9190 C   0  0  0  0  0  0  0  0  0  0  0  0
    0.0208   12.8498    8.9826 O   0  0  0  0  0  0  0  0  0  0  0  0
    0.2494   12.5677    8.0832 H   0  0  0  0  0  0  0  0  0  0  0  0
  1  2  1  0  0  0
  2  3  1  0  0  0
  2  8  1  0  0  0
  3  4  1  0  0  0
  3  5  1  0  0  0
  5  6  1  0  0  0
  5  9  2  0  0  0
  6  7  1  0  0  0
  7  8  1  0  0  0
  8 13  1  0  0  0
 13 14  1  0  0  0
  1 10  1  0  0  0
  4 11  1  0  0  0
  6 12  1  0  0  0
 14 15  1  0  0  0
M  END
> <minimizedAffinity>
-5.82721

$$$$
1UZ1_IFL_A_1446


 15 15  0  0  0  0  0  0  0  0999 V2000
    0.1079    7.5344    8.6904 O   0  0  0  0  0  0  0  0  0  0  0  0
   -0.2789    8.6211    9.5237 C   0  0  0  0  0  0  0  0  0  0  0  0
   -1.3201    9.4140    8.7097 C   0  0  0  0  0  0  0  0  0  0  0  0
   -0.7633   10.1091    7.5905 O   0  0  0  0  0  0  0  0  0  0  0  0
   -2.0127   10.4779    9.5697 C   0  0  0  0  0  0  0  0  0  0  0  0
   -1.8485   10.4438   10.9136 N   0  0  0  0  0  0  0  0  0  0  0  0
   -1.0660    9.4790   11.6863 C   0  0  0  0  0  0  0  0  0  0  0  0
   -0.9283    8.1847   10.8618 C   0  0  0  0  0  0  0  0  0  0  0  0
   -2.7015   11.3024    9.0038 O   0  0  0  0  0  0  0  0  0  0  0  0
    0.5048    7.8778    7.8746 H   0  0  0  0  0  0  0  0  0  0  0  0
   -0.1414   10.7836    7.9056 H   0  0  0  0  0  0  0  0  0  0  0  0
   -2.3071   11.1469   11.4280 H   0  0  0  0  0  0  0  0  0  0  0  0
   -0.1271    7.1432   11.6318 C   0  0  0  0  0  0  0  0  0  0  0  0
    1.2330    7.5719   11.6796 O   0  0  0  0  0  0  0  0  0  0  0  0
    1.5746    7.6649   10.7766 H   0  0  0  0  0  0  0  0  0  0  0  0
  1  2  1  0  0  0
  2  3  1  0  0  0
  2  8  1  0  0  0
  3  4  1  0  0  0
  3  5  1  0  0  0
  5  6  1  0  0  0
  5  9  2  0  0  0
  6  7  1  0  0  0
  7  8  1  0  0  0
  8 13  1  0  0  0
 13 14  1  0  0  0
  1 10  1  0  0  0
  4 11  1  0  0  0
  6 12  1  0  0  0
 14 15  1  0  0  0
M  END
> <minimizedAffinity>
-5.77532

$$$$
1UZ1_IFL_A_1446


 15 15  0  0  0  0  0  0  0  0999 V2000
   -1.3374   11.0399   11.3620 O   0  0  0  0  0  0  0  0  0  0  0  0
   -0.6871    9.8985   10.8149 C   0  0  0  0  0  0  0  0  0  0  0  0
   -1.1771    8.7031   11.6552 C   0  0  0  0  0  0  0  0  0  0  0  0
   -0.6686    8.6961   12.9920 O   0  0  0  0  0  0  0  0  0  0  0  0
   -0.7534    7.3678   11.0318 C   0  0  0  0  0  0  0  0  0  0  0  0
   -0.2614    7.3599    9.7700 N   0  0  0  0  0  0  0  0  0  0  0  0
   -0.0777    8.5090    8.8835 C   0  0  0  0  0  0  0  0  0  0  0  0
   -1.0352    9.6312    9.3283 C   0  0  0  0  0  0  0  0  0  0  0  0
   -0.8971    6.3620   11.6967 O   0  0  0  0  0  0  0  0  0  0  0  0
   -1.0758   11.1473   12.2898 H   0  0  0  0  0  0  0  0  0  0  0  0
    0.2959    8.5944   12.9705 H   0  0  0  0  0  0  0  0  0  0  0  0
    0.0022    6.4826    9.4091 H   0  0  0  0  0  0  0  0  0  0  0  0
   -0.8871   10.8491    8.4258 C   0  0  0  0  0  0  0  0  0  0  0  0
   -1.0524   10.4253    7.0734 O   0  0  0  0  0  0  0  0  0  0  0  0
   -0.3808    9.7590    6.8590 H   0  0  0  0  0  0  0  0  0  0  0  0
  1  2  1  0  0  0
  2  3  1  0  0  0
  2  8  1  0  0  0
  3  4  1  0  0  0
  3  5  1  0  0  0
  5  6  1  0  0  0
  5  9  2  0  0  0
  6  7  1  0  0  0
  7  8  1  0  0  0
  8 13  1  0  0  0
 13 14  1  0  0  0
  1 10  1  0  0  0
  4 11  1  0  0  0
  6 12  1  0  0  0
 14 15  1  0  0  0
M  END
> <minimizedAffinity>
-5.77349

$$$$
1UZ1_IFL_A_1446


 15 15  0  0  0  0  0  0  0  0999 V2000
    0.2230    7.2098    8.6172 O   0  0  0  0  0  0  0  0  0  0  0  0
    0.1238    7.8264    9.8958 C   0  0  0  0  0  0  0  0  0  0  0  0
   -0.5447    9.1920    9.6439 C   0  0  0  0  0  0  0  0  0  0  0  0
    0.2949   10.1218    8.9536 O   0  0  0  0  0  0  0  0  0  0  0  0
   -0.9427    9.8731   10.9587 C   0  0  0  0  0  0  0  0  0  0  0  0
   -0.9134    9.1530   12.1054 N   0  0  0  0  0  0  0  0  0  0  0  0
   -0.5397    7.7470   12.2594 C   0  0  0  0  0  0  0  0  0  0  0  0
   -0.7416    7.0338   10.9085 C   0  0  0  0  0  0  0  0  0  0  0  0
   -1.2892   11.0359   10.9114 O   0  0  0  0  0  0  0  0  0  0  0  0
    0.7756    7.7562    8.0367 H   0  0  0  0  0  0  0  0  0  0  0  0
    1.0664   10.3306    9.5032 H   0  0  0  0  0  0  0  0  0  0  0  0
   -1.1726    9.6290   12.9273 H   0  0  0  0  0  0  0  0  0  0  0  0
   -0.3739    5.5602   11.0219 C   0  0  0  0  0  0  0  0  0  0  0  0
   -0.7856    4.9039    9.8238 O   0  0  0  0  0  0  0  0  0  0  0  0
   -1.7434    5.0080    9.7108 H   0  0  0  0  0  0  0  0  0  0  0  0
  1  2  1  0  0  0
  2  3  1  0  0  0
  2  8  1  0  0  0
  3  4  1  0  0  0
  3  5  1  0  0  0
  5  6  1  0  0  0
  5  9  2  0  0  0
  6  7  1  0  0  0
  7  8  1  0  0  0
  8 13  1  0  0  0
 13 14  1  0  0  0
  1 10  1  0  0  0
  4 11  1  0  0  0
  6 12  1  0  0  0
 14 15  1  0  0  0
M  END
> <minimizedAffinity>
-5.59781

$$$$
