1QB9_806_A_300


 41 46  0  0  0  0  0  0  0  0999 V2000
   27.5548    3.6293   55.0853 N   0  0  0  0  0  0  0  0  0  0  0  0
   27.4582    3.9032   53.7399 C   0  0  0  0  0  0  0  0  0  0  0  0
   28.2195    2.9966   53.0076 C   0  0  0  0  0  0  0  0  0  0  0  0
   28.7947    2.1509   53.9340 C   0  0  0  0  0  0  0  0  0  0  0  0
   28.3739    2.5620   55.2162 C   0  0  0  0  0  0  0  0  0  0  0  0
   29.6575    1.0722   53.6793 C   0  0  0  0  0  0  0  0  0  0  0  0
   30.1119    0.3631   54.7986 C   0  0  0  0  0  0  0  0  0  0  0  0
   29.7122    0.7556   56.1191 C   0  0  0  0  0  0  0  0  0  0  0  0
   28.8582    1.8335   56.3370 C   0  0  0  0  0  0  0  0  0  0  0  0
   28.3362    2.9939   51.6054 C   0  0  0  0  0  0  0  0  0  0  0  0
   27.6187    3.9802   50.9020 C   0  0  0  0  0  0  0  0  0  0  0  0
   26.8390    4.9232   51.6177 C   0  0  0  0  0  0  0  0  0  0  0  0
   26.7496    4.9015   53.0285 C   0  0  0  0  0  0  0  0  0  0  0  0
   26.9110    4.4327   56.1388 C   0  0  0  0  0  0  0  0  0  0  0  0
   21.2813    1.6588   56.0400 C   0  0  0  0  0  0  0  0  0  0  0  0
   22.3943    2.3562   55.5345 C   0  0  0  0  0  0  0  0  0  0  0  0
   23.4860    2.6858   56.3844 C   0  0  0  0  0  0  0  0  0  0  0  0
   24.5942    3.4038   55.8592 C   0  0  0  0  0  0  0  0  0  0  0  0
   25.7077    3.7045   56.6988 C   0  0  0  0  0  0  0  0  0  0  0  0
   25.6726    3.2990   58.0511 C   0  0  0  0  0  0  0  0  0  0  0  0
   24.5719    2.6217   58.5844 C   0  0  0  0  0  0  0  0  0  0  0  0
   23.4695    2.2911   57.7506 C   0  0  0  0  0  0  0  0  0  0  0  0
   22.3778    1.5868   58.2890 C   0  0  0  0  0  0  0  0  0  0  0  0
   21.2975    1.2838   57.4272 C   0  0  0  0  0  0  0  0  0  0  0  0
   19.3763    0.2506   55.3713 N   0  0  0  0  0  0  0  0  0  0  0  0
   20.1733    1.2995   55.2252 C   0  0  0  0  0  0  0  0  0  0  0  0
   19.8825    2.0306   54.1431 N   0  0  0  0  0  0  0  0  0  0  0  0
   18.6353    0.1037   54.7399 H   0  0  0  0  0  0  0  0  0  0  0  0
   19.1163    1.7863   53.5753 H   0  0  0  0  0  0  0  0  0  0  0  0
   20.4348    2.8129   53.9146 H   0  0  0  0  0  0  0  0  0  0  0  0
   30.2435   -0.0154   57.1439 O   0  0  0  0  0  0  0  0  0  0  0  0
   31.1114    0.6747   58.1296 C   0  0  0  0  0  0  0  0  0  0  0  0
   32.4711   -0.0615   58.2750 C   0  0  0  0  0  0  0  0  0  0  0  0
   32.4588   -0.9807   59.5527 C   0  0  0  0  0  0  0  0  0  0  0  0
   32.3930   -0.1119   60.7148 N   0  0  0  0  0  0  0  0  0  0  0  0
   31.2765    0.8212   60.7030 C   0  0  0  0  0  0  0  0  0  0  0  0
   30.3719    0.7717   59.4676 C   0  0  0  0  0  0  0  0  0  0  0  0
   33.3027   -0.1566   61.7500 C   0  0  0  0  0  0  0  0  0  0  0  0
   32.9392   -0.5365   63.0063 N   0  0  0  0  0  0  0  0  0  0  0  0
   34.7391    0.1903   61.6370 C   0  0  0  0  0  0  0  0  0  0  0  0
   32.0062   -0.7889   63.1936 H   0  0  0  0  0  0  0  0  0  0  0  0
 25 26  2  0  0  0
 26 27  1  0  0  0
 26 15  1  0  0  0
 15 16  2  0  0  0
 15 24  1  0  0  0
 16 17  1  0  0  0
 17 18  2  0  0  0
 17 22  1  0  0  0
 18 19  1  0  0  0
 19 20  2  0  0  0
 19 14  1  0  0  0
 20 21  1  0  0  0
 21 22  2  0  0  0
 22 23  1  0  0  0
 23 24  2  0  0  0
 14  1  1  0  0  0
  1  2  1  0  0  0
  1  5  1  0  0  0
  2  3  2  0  0  0
  2 13  1  0  0  0
  3  4  1  0  0  0
  3 10  1  0  0  0
  4  5  2  0  0  0
  4  6  1  0  0  0
  5  9  1  0  0  0
  6  7  2  0  0  0
  7  8  1  0  0  0
  8  9  2  0  0  0
  8 31  1  0  0  0
 10 11  2  0  0  0
 11 12  1  0  0  0
 12 13  2  0  0  0
 31 32  1  0  0  0
 32 33  1  0  0  0
 32 37  1  0  0  0
 33 34  1  0  0  0
 34 35  1  0  0  0
 35 36  1  0  0  0
 35 38  1  0  0  0
 36 37  1  0  0  0
 38 39  2  0  0  0
 38 40  1  0  0  0
 25 28  1  0  0  0
 27 29  1  0  0  0
 27 30  1  0  0  0
 39 41  1  0  0  0
M  END
> <minimizedAffinity>
-9.23820

$$$$
1QB9_806_A_300


 41 46  0  0  0  0  0  0  0  0999 V2000
   28.3129    2.1174   56.4539 N   0  0  0  0  0  0  0  0  0  0  0  0
   29.1546    1.6248   57.4250 C   0  0  0  0  0  0  0  0  0  0  0  0
   29.9025    0.5640   56.9217 C   0  0  0  0  0  0  0  0  0  0  0  0
   29.5024    0.4081   55.6103 C   0  0  0  0  0  0  0  0  0  0  0  0
   28.5136    1.3774   55.3406 C   0  0  0  0  0  0  0  0  0  0  0  0
   29.9683   -0.5424   54.6870 C   0  0  0  0  0  0  0  0  0  0  0  0
   29.3988   -0.4966   53.4081 C   0  0  0  0  0  0  0  0  0  0  0  0
   28.3851    0.4698   53.0981 C   0  0  0  0  0  0  0  0  0  0  0  0
   27.9425    1.3961   54.0388 C   0  0  0  0  0  0  0  0  0  0  0  0
   30.8608   -0.1615   57.6532 C   0  0  0  0  0  0  0  0  0  0  0  0
   31.0763    0.2291   58.9886 C   0  0  0  0  0  0  0  0  0  0  0  0
   30.3264    1.3012   59.5344 C   0  0  0  0  0  0  0  0  0  0  0  0
   29.3654    2.0046   58.7726 C   0  0  0  0  0  0  0  0  0  0  0  0
   27.3487    3.2090   56.6746 C   0  0  0  0  0  0  0  0  0  0  0  0
   21.3285    1.5197   56.1258 C   0  0  0  0  0  0  0  0  0  0  0  0
   22.5679    2.0559   55.7298 C   0  0  0  0  0  0  0  0  0  0  0  0
   23.6623    2.0904   56.6376 C   0  0  0  0  0  0  0  0  0  0  0  0
   24.9015    2.6497   56.2242 C   0  0  0  0  0  0  0  0  0  0  0  0
   26.0126    2.6531   57.1191 C   0  0  0  0  0  0  0  0  0  0  0  0
   25.8473    2.1174   58.4152 C   0  0  0  0  0  0  0  0  0  0  0  0
   24.6222    1.5956   58.8415 C   0  0  0  0  0  0  0  0  0  0  0  0
   23.5165    1.5604   57.9493 C   0  0  0  0  0  0  0  0  0  0  0  0
   22.2953    1.0101   58.3777 C   0  0  0  0  0  0  0  0  0  0  0  0
   21.2175    1.0009   57.4614 C   0  0  0  0  0  0  0  0  0  0  0  0
   19.7859    2.3986   54.4207 N   0  0  0  0  0  0  0  0  0  0  0  0
   20.2114    1.4554   55.2491 C   0  0  0  0  0  0  0  0  0  0  0  0
   19.4296    0.3697   55.2513 N   0  0  0  0  0  0  0  0  0  0  0  0
   18.9942    2.2388   53.8577 H   0  0  0  0  0  0  0  0  0  0  0  0
   18.6547    0.3199   54.6461 H   0  0  0  0  0  0  0  0  0  0  0  0
   19.6293   -0.3794   55.8581 H   0  0  0  0  0  0  0  0  0  0  0  0
   27.8886    0.4013   51.8036 O   0  0  0  0  0  0  0  0  0  0  0  0
   28.7149    1.0047   50.7292 C   0  0  0  0  0  0  0  0  0  0  0  0
   28.6027    2.5534   50.7537 C   0  0  0  0  0  0  0  0  0  0  0  0
   27.5751    3.0423   49.6662 C   0  0  0  0  0  0  0  0  0  0  0  0
   28.1428    2.7424   48.3633 N   0  0  0  0  0  0  0  0  0  0  0  0
   28.5122    1.3473   48.1773 C   0  0  0  0  0  0  0  0  0  0  0  0
   28.2827    0.4250   49.3788 C   0  0  0  0  0  0  0  0  0  0  0  0
   28.3216    3.6881   47.3759 C   0  0  0  0  0  0  0  0  0  0  0  0
   27.2957    4.0893   46.5750 N   0  0  0  0  0  0  0  0  0  0  0  0
   29.6032    4.3652   47.0672 C   0  0  0  0  0  0  0  0  0  0  0  0
   26.3981    3.7026   46.6940 H   0  0  0  0  0  0  0  0  0  0  0  0
 25 26  2  0  0  0
 26 27  1  0  0  0
 26 15  1  0  0  0
 15 16  2  0  0  0
 15 24  1  0  0  0
 16 17  1  0  0  0
 17 18  2  0  0  0
 17 22  1  0  0  0
 18 19  1  0  0  0
 19 20  2  0  0  0
 19 14  1  0  0  0
 20 21  1  0  0  0
 21 22  2  0  0  0
 22 23  1  0  0  0
 23 24  2  0  0  0
 14  1  1  0  0  0
  1  2  1  0  0  0
  1  5  1  0  0  0
  2  3  2  0  0  0
  2 13  1  0  0  0
  3  4  1  0  0  0
  3 10  1  0  0  0
  4  5  2  0  0  0
  4  6  1  0  0  0
  5  9  1  0  0  0
  6  7  2  0  0  0
  7  8  1  0  0  0
  8  9  2  0  0  0
  8 31  1  0  0  0
 10 11  2  0  0  0
 11 12  1  0  0  0
 12 13  2  0  0  0
 31 32  1  0  0  0
 32 33  1  0  0  0
 32 37  1  0  0  0
 33 34  1  0  0  0
 34 35  1  0  0  0
 35 36  1  0  0  0
 35 38  1  0  0  0
 36 37  1  0  0  0
 38 39  2  0  0  0
 38 40  1  0  0  0
 25 28  1  0  0  0
 27 29  1  0  0  0
 27 30  1  0  0  0
 39 41  1  0  0  0
M  END
> <minimizedAffinity>
-9.23403

$$$$
1QB9_806_A_300


 41 46  0  0  0  0  0  0  0  0999 V2000
   26.9751    4.5436   54.9586 N   0  0  0  0  0  0  0  0  0  0  0  0
   26.4897    5.5363   54.1380 C   0  0  0  0  0  0  0  0  0  0  0  0
   26.7929    5.2542   52.8090 C   0  0  0  0  0  0  0  0  0  0  0  0
   27.4821    4.0589   52.8240 C   0  0  0  0  0  0  0  0  0  0  0  0
   27.5886    3.6367   54.1659 C   0  0  0  0  0  0  0  0  0  0  0  0
   28.0067    3.3664   51.7203 C   0  0  0  0  0  0  0  0  0  0  0  0
   28.6720    2.1658   51.9996 C   0  0  0  0  0  0  0  0  0  0  0  0
   28.8072    1.7075   53.3521 C   0  0  0  0  0  0  0  0  0  0  0  0
   28.2786    2.4209   54.4247 C   0  0  0  0  0  0  0  0  0  0  0  0
   26.4373    6.0640   51.7146 C   0  0  0  0  0  0  0  0  0  0  0  0
   25.7147    7.2390   51.9966 C   0  0  0  0  0  0  0  0  0  0  0  0
   25.3954    7.5595   53.3400 C   0  0  0  0  0  0  0  0  0  0  0  0
   25.7747    6.7261   54.4172 C   0  0  0  0  0  0  0  0  0  0  0  0
   26.8687    4.5626   56.4277 C   0  0  0  0  0  0  0  0  0  0  0  0
   21.3758    1.5432   56.0971 C   0  0  0  0  0  0  0  0  0  0  0  0
   22.4105    2.4050   55.6881 C   0  0  0  0  0  0  0  0  0  0  0  0
   23.5556    2.5981   56.5092 C   0  0  0  0  0  0  0  0  0  0  0  0
   24.5830    3.4841   56.0861 C   0  0  0  0  0  0  0  0  0  0  0  0
   25.7501    3.6528   56.8890 C   0  0  0  0  0  0  0  0  0  0  0  0
   25.8481    2.9473   58.1084 C   0  0  0  0  0  0  0  0  0  0  0  0
   24.8272    2.0993   58.5483 C   0  0  0  0  0  0  0  0  0  0  0  0
   23.6728    1.9010   57.7433 C   0  0  0  0  0  0  0  0  0  0  0  0
   22.6624    1.0262   58.1811 C   0  0  0  0  0  0  0  0  0  0  0  0
   21.5265    0.8625   57.3538 C   0  0  0  0  0  0  0  0  0  0  0  0
   19.5001    0.2005   55.2378 N   0  0  0  0  0  0  0  0  0  0  0  0
   20.2188    1.3123   55.3043 C   0  0  0  0  0  0  0  0  0  0  0  0
   19.7867    2.2649   54.4702 N   0  0  0  0  0  0  0  0  0  0  0  0
   18.7129    0.1577   54.6481 H   0  0  0  0  0  0  0  0  0  0  0  0
   18.9859    2.1103   53.9188 H   0  0  0  0  0  0  0  0  0  0  0  0
   20.2696    3.1206   54.4078 H   0  0  0  0  0  0  0  0  0  0  0  0
   29.5016    0.5144   53.4982 O   0  0  0  0  0  0  0  0  0  0  0  0
   29.9693   -0.1525   52.2582 C   0  0  0  0  0  0  0  0  0  0  0  0
   29.1938   -1.4768   52.0204 C   0  0  0  0  0  0  0  0  0  0  0  0
   30.0498   -2.7044   52.5082 C   0  0  0  0  0  0  0  0  0  0  0  0
   31.2076   -2.8030   51.6366 N   0  0  0  0  0  0  0  0  0  0  0  0
   31.9991   -1.5849   51.5516 C   0  0  0  0  0  0  0  0  0  0  0  0
   31.4798   -0.3882   52.3548 C   0  0  0  0  0  0  0  0  0  0  0  0
   31.5422   -3.9469   50.9433 C   0  0  0  0  0  0  0  0  0  0  0  0
   30.6665   -4.9804   50.8025 N   0  0  0  0  0  0  0  0  0  0  0  0
   32.8477   -4.1934   50.2866 C   0  0  0  0  0  0  0  0  0  0  0  0
   29.7680   -4.9220   51.2006 H   0  0  0  0  0  0  0  0  0  0  0  0
 25 26  2  0  0  0
 26 27  1  0  0  0
 26 15  1  0  0  0
 15 16  2  0  0  0
 15 24  1  0  0  0
 16 17  1  0  0  0
 17 18  2  0  0  0
 17 22  1  0  0  0
 18 19  1  0  0  0
 19 20  2  0  0  0
 19 14  1  0  0  0
 20 21  1  0  0  0
 21 22  2  0  0  0
 22 23  1  0  0  0
 23 24  2  0  0  0
 14  1  1  0  0  0
  1  2  1  0  0  0
  1  5  1  0  0  0
  2  3  2  0  0  0
  2 13  1  0  0  0
  3  4  1  0  0  0
  3 10  1  0  0  0
  4  5  2  0  0  0
  4  6  1  0  0  0
  5  9  1  0  0  0
  6  7  2  0  0  0
  7  8  1  0  0  0
  8  9  2  0  0  0
  8 31  1  0  0  0
 10 11  2  0  0  0
 11 12  1  0  0  0
 12 13  2  0  0  0
 31 32  1  0  0  0
 32 33  1  0  0  0
 32 37  1  0  0  0
 33 34  1  0  0  0
 34 35  1  0  0  0
 35 36  1  0  0  0
 35 38  1  0  0  0
 36 37  1  0  0  0
 38 39  2  0  0  0
 38 40  1  0  0  0
 25 28  1  0  0  0
 27 29  1  0  0  0
 27 30  1  0  0  0
 39 41  1  0  0  0
M  END
> <minimizedAffinity>
-9.17401

$$$$
1QB9_806_A_300


 41 46  0  0  0  0  0  0  0  0999 V2000
   28.6752    2.3736   56.0673 N   0  0  0  0  0  0  0  0  0  0  0  0
   28.9183    1.2748   55.2749 C   0  0  0  0  0  0  0  0  0  0  0  0
   30.0685    0.6174   55.7022 C   0  0  0  0  0  0  0  0  0  0  0  0
   30.5366    1.3379   56.7820 C   0  0  0  0  0  0  0  0  0  0  0  0
   29.6619    2.4250   56.9899 C   0  0  0  0  0  0  0  0  0  0  0  0
   31.6814    1.0699   57.5505 C   0  0  0  0  0  0  0  0  0  0  0  0
   31.9461    1.9582   58.6007 C   0  0  0  0  0  0  0  0  0  0  0  0
   31.0840    3.0796   58.8388 C   0  0  0  0  0  0  0  0  0  0  0  0
   29.9584    3.3190   58.0548 C   0  0  0  0  0  0  0  0  0  0  0  0
   30.5952   -0.5459   55.1113 C   0  0  0  0  0  0  0  0  0  0  0  0
   29.8937   -1.0794   54.0133 C   0  0  0  0  0  0  0  0  0  0  0  0
   28.7222   -0.4306   53.5484 C   0  0  0  0  0  0  0  0  0  0  0  0
   28.2243    0.7419   54.1618 C   0  0  0  0  0  0  0  0  0  0  0  0
   27.5635    3.3158   55.8522 C   0  0  0  0  0  0  0  0  0  0  0  0
   21.5192    1.6365   56.0628 C   0  0  0  0  0  0  0  0  0  0  0  0
   22.7041    2.1556   55.5086 C   0  0  0  0  0  0  0  0  0  0  0  0
   23.8974    2.2121   56.2805 C   0  0  0  0  0  0  0  0  0  0  0  0
   25.0800    2.7538   55.7084 C   0  0  0  0  0  0  0  0  0  0  0  0
   26.2884    2.7788   56.4664 C   0  0  0  0  0  0  0  0  0  0  0  0
   26.2757    2.2819   57.7883 C   0  0  0  0  0  0  0  0  0  0  0  0
   25.1087    1.7780   58.3704 C   0  0  0  0  0  0  0  0  0  0  0  0
   23.9060    1.7213   57.6153 C   0  0  0  0  0  0  0  0  0  0  0  0
   22.7430    1.1889   58.2000 C   0  0  0  0  0  0  0  0  0  0  0  0
   21.5652    1.1575   57.4169 C   0  0  0  0  0  0  0  0  0  0  0  0
   19.7932    2.4674   54.5169 N   0  0  0  0  0  0  0  0  0  0  0  0
   20.3070    1.5512   55.3252 C   0  0  0  0  0  0  0  0  0  0  0  0
   19.5245    0.4745   55.4598 N   0  0  0  0  0  0  0  0  0  0  0  0
   18.9403    2.2950   54.0565 H   0  0  0  0  0  0  0  0  0  0  0  0
   18.6838    0.4102   54.9514 H   0  0  0  0  0  0  0  0  0  0  0  0
   19.7892   -0.2537   56.0672 H   0  0  0  0  0  0  0  0  0  0  0  0
   31.4632    3.8942   59.8968 O   0  0  0  0  0  0  0  0  0  0  0  0
   30.6527    3.8138   61.1369 C   0  0  0  0  0  0  0  0  0  0  0  0
   29.7906    2.5222   61.1473 C   0  0  0  0  0  0  0  0  0  0  0  0
   28.3167    2.8476   60.7005 C   0  0  0  0  0  0  0  0  0  0  0  0
   27.7239    3.6851   61.7285 N   0  0  0  0  0  0  0  0  0  0  0  0
   28.4816    4.8903   62.0302 C   0  0  0  0  0  0  0  0  0  0  0  0
   29.7898    5.0739   61.2544 C   0  0  0  0  0  0  0  0  0  0  0  0
   26.5436    3.3786   62.3719 C   0  0  0  0  0  0  0  0  0  0  0  0
   26.4894    2.4442   63.3612 N   0  0  0  0  0  0  0  0  0  0  0  0
   25.2297    4.0003   62.0826 C   0  0  0  0  0  0  0  0  0  0  0  0
   27.3069    1.9683   63.6341 H   0  0  0  0  0  0  0  0  0  0  0  0
 25 26  2  0  0  0
 26 27  1  0  0  0
 26 15  1  0  0  0
 15 16  2  0  0  0
 15 24  1  0  0  0
 16 17  1  0  0  0
 17 18  2  0  0  0
 17 22  1  0  0  0
 18 19  1  0  0  0
 19 20  2  0  0  0
 19 14  1  0  0  0
 20 21  1  0  0  0
 21 22  2  0  0  0
 22 23  1  0  0  0
 23 24  2  0  0  0
 14  1  1  0  0  0
  1  2  1  0  0  0
  1  5  1  0  0  0
  2  3  2  0  0  0
  2 13  1  0  0  0
  3  4  1  0  0  0
  3 10  1  0  0  0
  4  5  2  0  0  0
  4  6  1  0  0  0
  5  9  1  0  0  0
  6  7  2  0  0  0
  7  8  1  0  0  0
  8  9  2  0  0  0
  8 31  1  0  0  0
 10 11  2  0  0  0
 11 12  1  0  0  0
 12 13  2  0  0  0
 31 32  1  0  0  0
 32 33  1  0  0  0
 32 37  1  0  0  0
 33 34  1  0  0  0
 34 35  1  0  0  0
 35 36  1  0  0  0
 35 38  1  0  0  0
 36 37  1  0  0  0
 38 39  2  0  0  0
 38 40  1  0  0  0
 25 28  1  0  0  0
 27 29  1  0  0  0
 27 30  1  0  0  0
 39 41  1  0  0  0
M  END
> <minimizedAffinity>
-8.90981

$$$$
1QB9_806_A_300


 41 46  0  0  0  0  0  0  0  0999 V2000
   28.3298    2.6120   55.4514 N   0  0  0  0  0  0  0  0  0  0  0  0
   28.3663    2.5707   54.0762 C   0  0  0  0  0  0  0  0  0  0  0  0
   29.2584    1.5921   53.6469 C   0  0  0  0  0  0  0  0  0  0  0  0
   29.7782    1.0256   54.7927 C   0  0  0  0  0  0  0  0  0  0  0  0
   29.1935    1.6742   55.9007 C   0  0  0  0  0  0  0  0  0  0  0  0
   30.7286   -0.0054   54.8752 C   0  0  0  0  0  0  0  0  0  0  0  0
   31.0990   -0.4065   56.1652 C   0  0  0  0  0  0  0  0  0  0  0  0
   30.5321    0.2343   57.3165 C   0  0  0  0  0  0  0  0  0  0  0  0
   29.5945    1.2571   57.1994 C   0  0  0  0  0  0  0  0  0  0  0  0
   29.5296    1.2876   52.3002 C   0  0  0  0  0  0  0  0  0  0  0  0
   28.8352    2.0281   51.3246 C   0  0  0  0  0  0  0  0  0  0  0  0
   27.9245    3.0368   51.7278 C   0  0  0  0  0  0  0  0  0  0  0  0
   27.6808    3.3218   53.0909 C   0  0  0  0  0  0  0  0  0  0  0  0
   27.5251    3.5719   56.2266 C   0  0  0  0  0  0  0  0  0  0  0  0
   21.5858    1.5464   56.0843 C   0  0  0  0  0  0  0  0  0  0  0  0
   22.7530    2.1805   55.6193 C   0  0  0  0  0  0  0  0  0  0  0  0
   23.9194    2.2304   56.4315 C   0  0  0  0  0  0  0  0  0  0  0  0
   25.0835    2.8886   55.9507 C   0  0  0  0  0  0  0  0  0  0  0  0
   26.2672    2.9093   56.7468 C   0  0  0  0  0  0  0  0  0  0  0  0
   26.2476    2.2904   58.0160 C   0  0  0  0  0  0  0  0  0  0  0  0
   25.0966    1.6699   58.5108 C   0  0  0  0  0  0  0  0  0  0  0  0
   23.9203    1.6176   57.7149 C   0  0  0  0  0  0  0  0  0  0  0  0
   22.7750    0.9687   58.2097 C   0  0  0  0  0  0  0  0  0  0  0  0
   21.6227    0.9455   57.3892 C   0  0  0  0  0  0  0  0  0  0  0  0
   19.8787    2.4088   54.5346 N   0  0  0  0  0  0  0  0  0  0  0  0
   20.4012    1.4636   55.3029 C   0  0  0  0  0  0  0  0  0  0  0  0
   19.6558    0.3534   55.3461 N   0  0  0  0  0  0  0  0  0  0  0  0
   19.0476    2.2348   54.0364 H   0  0  0  0  0  0  0  0  0  0  0  0
   18.8344    0.2907   54.8070 H   0  0  0  0  0  0  0  0  0  0  0  0
   19.9287   -0.4008   55.9170 H   0  0  0  0  0  0  0  0  0  0  0  0
   30.9929   -0.2414   58.5364 O   0  0  0  0  0  0  0  0  0  0  0  0
   32.4330   -0.0497   58.8371 C   0  0  0  0  0  0  0  0  0  0  0  0
   32.9447   -1.1538   59.8019 C   0  0  0  0  0  0  0  0  0  0  0  0
   32.9906   -0.6088   61.2779 C   0  0  0  0  0  0  0  0  0  0  0  0
   34.0145    0.4200   61.3316 N   0  0  0  0  0  0  0  0  0  0  0  0
   33.8412    1.4893   60.3600 C   0  0  0  0  0  0  0  0  0  0  0  0
   32.6419    1.3528   59.4167 C   0  0  0  0  0  0  0  0  0  0  0  0
   35.0666    0.3999   62.2227 C   0  0  0  0  0  0  0  0  0  0  0  0
   35.1021    1.2236   63.3067 N   0  0  0  0  0  0  0  0  0  0  0  0
   36.2511   -0.4850   62.1219 C   0  0  0  0  0  0  0  0  0  0  0  0
   34.3639    1.8539   63.4704 H   0  0  0  0  0  0  0  0  0  0  0  0
 25 26  2  0  0  0
 26 27  1  0  0  0
 26 15  1  0  0  0
 15 16  2  0  0  0
 15 24  1  0  0  0
 16 17  1  0  0  0
 17 18  2  0  0  0
 17 22  1  0  0  0
 18 19  1  0  0  0
 19 20  2  0  0  0
 19 14  1  0  0  0
 20 21  1  0  0  0
 21 22  2  0  0  0
 22 23  1  0  0  0
 23 24  2  0  0  0
 14  1  1  0  0  0
  1  2  1  0  0  0
  1  5  1  0  0  0
  2  3  2  0  0  0
  2 13  1  0  0  0
  3  4  1  0  0  0
  3 10  1  0  0  0
  4  5  2  0  0  0
  4  6  1  0  0  0
  5  9  1  0  0  0
  6  7  2  0  0  0
  7  8  1  0  0  0
  8  9  2  0  0  0
  8 31  1  0  0  0
 10 11  2  0  0  0
 11 12  1  0  0  0
 12 13  2  0  0  0
 31 32  1  0  0  0
 32 33  1  0  0  0
 32 37  1  0  0  0
 33 34  1  0  0  0
 34 35  1  0  0  0
 35 36  1  0  0  0
 35 38  1  0  0  0
 36 37  1  0  0  0
 38 39  2  0  0  0
 38 40  1  0  0  0
 25 28  1  0  0  0
 27 29  1  0  0  0
 27 30  1  0  0  0
 39 41  1  0  0  0
M  END
> <minimizedAffinity>
-8.77371

$$$$
1QB9_806_A_300


 41 46  0  0  0  0  0  0  0  0999 V2000
   27.8782    3.1646   59.5914 N   0  0  0  0  0  0  0  0  0  0  0  0
   28.3405    4.3852   60.0280 C   0  0  0  0  0  0  0  0  0  0  0  0
   29.6128    4.6291   59.5184 C   0  0  0  0  0  0  0  0  0  0  0  0
   29.9313    3.5258   58.7533 C   0  0  0  0  0  0  0  0  0  0  0  0
   28.8453    2.6275   58.8146 C   0  0  0  0  0  0  0  0  0  0  0  0
   31.1195    3.3016   58.0384 C   0  0  0  0  0  0  0  0  0  0  0  0
   31.2026    2.0928   57.3356 C   0  0  0  0  0  0  0  0  0  0  0  0
   30.1219    1.1507   57.3799 C   0  0  0  0  0  0  0  0  0  0  0  0
   28.9584    1.4023   58.1023 C   0  0  0  0  0  0  0  0  0  0  0  0
   30.3694    5.7889   59.7679 C   0  0  0  0  0  0  0  0  0  0  0  0
   29.7822    6.7714   60.5878 C   0  0  0  0  0  0  0  0  0  0  0  0
   28.4904    6.5517   61.1287 C   0  0  0  0  0  0  0  0  0  0  0  0
   27.7604    5.3706   60.8631 C   0  0  0  0  0  0  0  0  0  0  0  0
   26.5852    2.5820   59.9899 C   0  0  0  0  0  0  0  0  0  0  0  0
   21.5456    1.2408   56.4970 C   0  0  0  0  0  0  0  0  0  0  0  0
   22.5200    1.0558   57.4953 C   0  0  0  0  0  0  0  0  0  0  0  0
   23.5547    2.0140   57.6800 C   0  0  0  0  0  0  0  0  0  0  0  0
   24.5386    1.8021   58.6832 C   0  0  0  0  0  0  0  0  0  0  0  0
   25.5569    2.7783   58.8965 C   0  0  0  0  0  0  0  0  0  0  0  0
   25.5781    3.9321   58.0824 C   0  0  0  0  0  0  0  0  0  0  0  0
   24.6339    4.1325   57.0709 C   0  0  0  0  0  0  0  0  0  0  0  0
   23.5978    3.1811   56.8683 C   0  0  0  0  0  0  0  0  0  0  0  0
   22.6369    3.4032   55.8658 C   0  0  0  0  0  0  0  0  0  0  0  0
   21.6266    2.4283   55.6917 C   0  0  0  0  0  0  0  0  0  0  0  0
   20.3906   -0.9165   56.7644 N   0  0  0  0  0  0  0  0  0  0  0  0
   20.4881    0.3150   56.2840 C   0  0  0  0  0  0  0  0  0  0  0  0
   19.4744    0.6424   55.4745 N   0  0  0  0  0  0  0  0  0  0  0  0
   19.6051   -1.4689   56.5472 H   0  0  0  0  0  0  0  0  0  0  0  0
   18.7395    0.0049   55.3235 H   0  0  0  0  0  0  0  0  0  0  0  0
   19.4634    1.5207   55.0300 H   0  0  0  0  0  0  0  0  0  0  0  0
   30.3330   -0.0152   56.6566 O   0  0  0  0  0  0  0  0  0  0  0  0
   30.4796    0.1178   55.1862 C   0  0  0  0  0  0  0  0  0  0  0  0
   29.1273   -0.1531   54.4723 C   0  0  0  0  0  0  0  0  0  0  0  0
   29.0898   -1.6257   53.9175 C   0  0  0  0  0  0  0  0  0  0  0  0
   30.0810   -1.7190   52.8599 N   0  0  0  0  0  0  0  0  0  0  0  0
   31.4223   -1.3199   53.2588 C   0  0  0  0  0  0  0  0  0  0  0  0
   31.5778   -0.8348   54.7036 C   0  0  0  0  0  0  0  0  0  0  0  0
   29.7915   -2.1486   51.5822 C   0  0  0  0  0  0  0  0  0  0  0  0
   29.5293   -1.2711   50.5742 N   0  0  0  0  0  0  0  0  0  0  0  0
   29.7288   -3.5661   51.1541 C   0  0  0  0  0  0  0  0  0  0  0  0
   29.5442   -0.3023   50.7486 H   0  0  0  0  0  0  0  0  0  0  0  0
 25 26  2  0  0  0
 26 27  1  0  0  0
 26 15  1  0  0  0
 15 16  2  0  0  0
 15 24  1  0  0  0
 16 17  1  0  0  0
 17 18  2  0  0  0
 17 22  1  0  0  0
 18 19  1  0  0  0
 19 20  2  0  0  0
 19 14  1  0  0  0
 20 21  1  0  0  0
 21 22  2  0  0  0
 22 23  1  0  0  0
 23 24  2  0  0  0
 14  1  1  0  0  0
  1  2  1  0  0  0
  1  5  1  0  0  0
  2  3  2  0  0  0
  2 13  1  0  0  0
  3  4  1  0  0  0
  3 10  1  0  0  0
  4  5  2  0  0  0
  4  6  1  0  0  0
  5  9  1  0  0  0
  6  7  2  0  0  0
  7  8  1  0  0  0
  8  9  2  0  0  0
  8 31  1  0  0  0
 10 11  2  0  0  0
 11 12  1  0  0  0
 12 13  2  0  0  0
 31 32  1  0  0  0
 32 33  1  0  0  0
 32 37  1  0  0  0
 33 34  1  0  0  0
 34 35  1  0  0  0
 35 36  1  0  0  0
 35 38  1  0  0  0
 36 37  1  0  0  0
 38 39  2  0  0  0
 38 40  1  0  0  0
 25 28  1  0  0  0
 27 29  1  0  0  0
 27 30  1  0  0  0
 39 41  1  0  0  0
M  END
> <minimizedAffinity>
-8.60116

$$$$
1QB9_806_A_300


 41 46  0  0  0  0  0  0  0  0999 V2000
   28.7045    2.3052   53.4205 N   0  0  0  0  0  0  0  0  0  0  0  0
   28.3363    2.0489   52.1193 C   0  0  0  0  0  0  0  0  0  0  0  0
   28.7614    0.7790   51.7394 C   0  0  0  0  0  0  0  0  0  0  0  0
   29.4062    0.2514   52.8394 C   0  0  0  0  0  0  0  0  0  0  0  0
   29.3641    1.2141   53.8697 C   0  0  0  0  0  0  0  0  0  0  0  0
   30.0154   -1.0100   52.9433 C   0  0  0  0  0  0  0  0  0  0  0  0
   30.6098   -1.3127   54.1751 C   0  0  0  0  0  0  0  0  0  0  0  0
   30.5941   -0.3566   55.2441 C   0  0  0  0  0  0  0  0  0  0  0  0
   29.9846    0.8878   55.1065 C   0  0  0  0  0  0  0  0  0  0  0  0
   28.5437    0.2043   50.4736 C   0  0  0  0  0  0  0  0  0  0  0  0
   27.8353    0.9770   49.5336 C   0  0  0  0  0  0  0  0  0  0  0  0
   27.3941    2.2773   49.8860 C   0  0  0  0  0  0  0  0  0  0  0  0
   27.6364    2.8271   51.1657 C   0  0  0  0  0  0  0  0  0  0  0  0
   28.4526    3.5808   54.1128 C   0  0  0  0  0  0  0  0  0  0  0  0
   22.8716    2.2771   56.6723 C   0  0  0  0  0  0  0  0  0  0  0  0
   23.8147    2.4797   55.6475 C   0  0  0  0  0  0  0  0  0  0  0  0
   25.1532    2.8446   55.9606 C   0  0  0  0  0  0  0  0  0  0  0  0
   26.0872    3.0598   54.9115 C   0  0  0  0  0  0  0  0  0  0  0  0
   27.4400    3.3900   55.2218 C   0  0  0  0  0  0  0  0  0  0  0  0
   27.8177    3.5200   56.5764 C   0  0  0  0  0  0  0  0  0  0  0  0
   26.8974    3.3429   57.6138 C   0  0  0  0  0  0  0  0  0  0  0  0
   25.5541    2.9854   57.3179 C   0  0  0  0  0  0  0  0  0  0  0  0
   24.6412    2.7836   58.3685 C   0  0  0  0  0  0  0  0  0  0  0  0
   23.3121    2.4361   58.0309 C   0  0  0  0  0  0  0  0  0  0  0  0
   20.7082    1.2298   57.2035 N   0  0  0  0  0  0  0  0  0  0  0  0
   21.5266    1.9017   56.4062 C   0  0  0  0  0  0  0  0  0  0  0  0
   20.9845    2.1808   55.2154 N   0  0  0  0  0  0  0  0  0  0  0  0
   19.7911    1.0262   56.9088 H   0  0  0  0  0  0  0  0  0  0  0  0
   20.0534    1.9230   55.0258 H   0  0  0  0  0  0  0  0  0  0  0  0
   21.5166    2.6439   54.5287 H   0  0  0  0  0  0  0  0  0  0  0  0
   31.2309   -0.7690   56.4065 O   0  0  0  0  0  0  0  0  0  0  0  0
   31.4644    0.2583   57.4512 C   0  0  0  0  0  0  0  0  0  0  0  0
   32.9237    0.1850   57.9776 C   0  0  0  0  0  0  0  0  0  0  0  0
   32.9735   -0.6092   59.3356 C   0  0  0  0  0  0  0  0  0  0  0  0
   32.2707    0.1823   60.3302 N   0  0  0  0  0  0  0  0  0  0  0  0
   30.9107    0.5421   59.9579 C   0  0  0  0  0  0  0  0  0  0  0  0
   30.4439    0.0689   58.5777 C   0  0  0  0  0  0  0  0  0  0  0  0
   32.8303    0.5666   61.5303 C   0  0  0  0  0  0  0  0  0  0  0  0
   32.1069    0.5849   62.6841 N   0  0  0  0  0  0  0  0  0  0  0  0
   34.2370    0.9944   61.7157 C   0  0  0  0  0  0  0  0  0  0  0  0
   31.1591    0.3187   62.6751 H   0  0  0  0  0  0  0  0  0  0  0  0
 25 26  2  0  0  0
 26 27  1  0  0  0
 26 15  1  0  0  0
 15 16  2  0  0  0
 15 24  1  0  0  0
 16 17  1  0  0  0
 17 18  2  0  0  0
 17 22  1  0  0  0
 18 19  1  0  0  0
 19 20  2  0  0  0
 19 14  1  0  0  0
 20 21  1  0  0  0
 21 22  2  0  0  0
 22 23  1  0  0  0
 23 24  2  0  0  0
 14  1  1  0  0  0
  1  2  1  0  0  0
  1  5  1  0  0  0
  2  3  2  0  0  0
  2 13  1  0  0  0
  3  4  1  0  0  0
  3 10  1  0  0  0
  4  5  2  0  0  0
  4  6  1  0  0  0
  5  9  1  0  0  0
  6  7  2  0  0  0
  7  8  1  0  0  0
  8  9  2  0  0  0
  8 31  1  0  0  0
 10 11  2  0  0  0
 11 12  1  0  0  0
 12 13  2  0  0  0
 31 32  1  0  0  0
 32 33  1  0  0  0
 32 37  1  0  0  0
 33 34  1  0  0  0
 34 35  1  0  0  0
 35 36  1  0  0  0
 35 38  1  0  0  0
 36 37  1  0  0  0
 38 39  2  0  0  0
 38 40  1  0  0  0
 25 28  1  0  0  0
 27 29  1  0  0  0
 27 30  1  0  0  0
 39 41  1  0  0  0
M  END
> <minimizedAffinity>
-8.56092

$$$$
1QB9_806_A_300


 41 46  0  0  0  0  0  0  0  0999 V2000
   28.3111    2.1497   56.4816 N   0  0  0  0  0  0  0  0  0  0  0  0
   29.1260    1.6410   57.4672 C   0  0  0  0  0  0  0  0  0  0  0  0
   29.8727    0.5752   56.9729 C   0  0  0  0  0  0  0  0  0  0  0  0
   29.4996    0.4327   55.6521 C   0  0  0  0  0  0  0  0  0  0  0  0
   28.5277    1.4150   55.3677 C   0  0  0  0  0  0  0  0  0  0  0  0
   29.9747   -0.5168   54.7325 C   0  0  0  0  0  0  0  0  0  0  0  0
   29.4338   -0.4559   53.4418 C   0  0  0  0  0  0  0  0  0  0  0  0
   28.4379    0.5240   53.1167 C   0  0  0  0  0  0  0  0  0  0  0  0
   27.9853    1.4489   54.0540 C   0  0  0  0  0  0  0  0  0  0  0  0
   30.8067   -0.1660   57.7199 C   0  0  0  0  0  0  0  0  0  0  0  0
   30.9974    0.2131   59.0624 C   0  0  0  0  0  0  0  0  0  0  0  0
   30.2479    1.2899   59.5993 C   0  0  0  0  0  0  0  0  0  0  0  0
   29.3116    2.0093   58.8218 C   0  0  0  0  0  0  0  0  0  0  0  0
   27.3546    3.2506   56.6889 C   0  0  0  0  0  0  0  0  0  0  0  0
   21.3396    1.5374   56.1576 C   0  0  0  0  0  0  0  0  0  0  0  0
   22.5816    2.0601   55.7516 C   0  0  0  0  0  0  0  0  0  0  0  0
   23.6693    2.1281   56.6654 C   0  0  0  0  0  0  0  0  0  0  0  0
   24.9111    2.6733   56.2412 C   0  0  0  0  0  0  0  0  0  0  0  0
   26.0157    2.7098   57.1434 C   0  0  0  0  0  0  0  0  0  0  0  0
   25.8413    2.2206   58.4567 C   0  0  0  0  0  0  0  0  0  0  0  0
   24.6135    1.7134   58.8925 C   0  0  0  0  0  0  0  0  0  0  0  0
   23.5144    1.6453   57.9942 C   0  0  0  0  0  0  0  0  0  0  0  0
   22.2904    1.1096   58.4332 C   0  0  0  0  0  0  0  0  0  0  0  0
   21.2192    1.0667   57.5100 C   0  0  0  0  0  0  0  0  0  0  0  0
   19.8321    2.3371   54.3835 N   0  0  0  0  0  0  0  0  0  0  0  0
   20.2289    1.4408   55.2756 C   0  0  0  0  0  0  0  0  0  0  0  0
   19.4227    0.3751   55.3406 N   0  0  0  0  0  0  0  0  0  0  0  0
   19.0419    2.1584   53.8242 H   0  0  0  0  0  0  0  0  0  0  0  0
   18.6521    0.3030   54.7321 H   0  0  0  0  0  0  0  0  0  0  0  0
   19.6001   -0.3371   55.9967 H   0  0  0  0  0  0  0  0  0  0  0  0
   27.9691    0.4698   51.8113 O   0  0  0  0  0  0  0  0  0  0  0  0
   28.7396    1.2132   50.7842 C   0  0  0  0  0  0  0  0  0  0  0  0
   29.4312    0.2319   49.7990 C   0  0  0  0  0  0  0  0  0  0  0  0
   30.9425    0.0383   50.1944 C   0  0  0  0  0  0  0  0  0  0  0  0
   31.6170    1.3056   49.9742 N   0  0  0  0  0  0  0  0  0  0  0  0
   31.0123    2.4344   50.6653 C   0  0  0  0  0  0  0  0  0  0  0  0
   29.7525    2.1268   51.4810 C   0  0  0  0  0  0  0  0  0  0  0  0
   32.7370    1.4433   49.1817 C   0  0  0  0  0  0  0  0  0  0  0  0
   33.9929    1.4245   49.7081 N   0  0  0  0  0  0  0  0  0  0  0  0
   32.7224    1.6238   47.7108 C   0  0  0  0  0  0  0  0  0  0  0  0
   34.1185    1.3098   50.6778 H   0  0  0  0  0  0  0  0  0  0  0  0
 25 26  2  0  0  0
 26 27  1  0  0  0
 26 15  1  0  0  0
 15 16  2  0  0  0
 15 24  1  0  0  0
 16 17  1  0  0  0
 17 18  2  0  0  0
 17 22  1  0  0  0
 18 19  1  0  0  0
 19 20  2  0  0  0
 19 14  1  0  0  0
 20 21  1  0  0  0
 21 22  2  0  0  0
 22 23  1  0  0  0
 23 24  2  0  0  0
 14  1  1  0  0  0
  1  2  1  0  0  0
  1  5  1  0  0  0
  2  3  2  0  0  0
  2 13  1  0  0  0
  3  4  1  0  0  0
  3 10  1  0  0  0
  4  5  2  0  0  0
  4  6  1  0  0  0
  5  9  1  0  0  0
  6  7  2  0  0  0
  7  8  1  0  0  0
  8  9  2  0  0  0
  8 31  1  0  0  0
 10 11  2  0  0  0
 11 12  1  0  0  0
 12 13  2  0  0  0
 31 32  1  0  0  0
 32 33  1  0  0  0
 32 37  1  0  0  0
 33 34  1  0  0  0
 34 35  1  0  0  0
 35 36  1  0  0  0
 35 38  1  0  0  0
 36 37  1  0  0  0
 38 39  2  0  0  0
 38 40  1  0  0  0
 25 28  1  0  0  0
 27 29  1  0  0  0
 27 30  1  0  0  0
 39 41  1  0  0  0
M  END
> <minimizedAffinity>
-8.55882

$$$$
1QB9_806_A_300


 41 46  0  0  0  0  0  0  0  0999 V2000
   26.2678    2.4295   56.8618 N   0  0  0  0  0  0  0  0  0  0  0  0
   24.9251    2.1871   57.0426 C   0  0  0  0  0  0  0  0  0  0  0  0
   24.1837    2.8115   56.0435 C   0  0  0  0  0  0  0  0  0  0  0  0
   25.1016    3.4513   55.2357 C   0  0  0  0  0  0  0  0  0  0  0  0
   26.3874    3.2061   55.7619 C   0  0  0  0  0  0  0  0  0  0  0  0
   24.8352    4.2248   54.0940 C   0  0  0  0  0  0  0  0  0  0  0  0
   25.9471    4.7744   53.4431 C   0  0  0  0  0  0  0  0  0  0  0  0
   27.2698    4.5537   53.9523 C   0  0  0  0  0  0  0  0  0  0  0  0
   27.4989    3.7844   55.0901 C   0  0  0  0  0  0  0  0  0  0  0  0
   22.7820    2.7605   55.9326 C   0  0  0  0  0  0  0  0  0  0  0  0
   22.0903    2.0128   56.9046 C   0  0  0  0  0  0  0  0  0  0  0  0
   22.8145    1.3699   57.9399 C   0  0  0  0  0  0  0  0  0  0  0  0
   24.2235    1.4478   58.0255 C   0  0  0  0  0  0  0  0  0  0  0  0
   27.3218    1.9547   57.7748 C   0  0  0  0  0  0  0  0  0  0  0  0
   29.9056   -1.4640   53.1885 C   0  0  0  0  0  0  0  0  0  0  0  0
   28.8782   -0.8541   53.9321 C   0  0  0  0  0  0  0  0  0  0  0  0
   29.1821   -0.1007   55.0996 C   0  0  0  0  0  0  0  0  0  0  0  0
   28.1296    0.4949   55.8459 C   0  0  0  0  0  0  0  0  0  0  0  0
   28.4324    1.2820   56.9967 C   0  0  0  0  0  0  0  0  0  0  0  0
   29.7818    1.4327   57.3851 C   0  0  0  0  0  0  0  0  0  0  0  0
   30.8209    0.8226   56.6761 C   0  0  0  0  0  0  0  0  0  0  0  0
   30.5338    0.0603   55.5115 C   0  0  0  0  0  0  0  0  0  0  0  0
   31.5872   -0.5284   54.7893 C   0  0  0  0  0  0  0  0  0  0  0  0
   31.2580   -1.2853   53.6403 C   0  0  0  0  0  0  0  0  0  0  0  0
   29.4672   -1.7500   50.7832 N   0  0  0  0  0  0  0  0  0  0  0  0
   29.6491   -2.2168   52.0103 C   0  0  0  0  0  0  0  0  0  0  0  0
   29.5110   -3.5451   52.0903 N   0  0  0  0  0  0  0  0  0  0  0  0
   29.2954   -2.3725   50.0401 H   0  0  0  0  0  0  0  0  0  0  0  0
   29.3333   -4.0714   51.2775 H   0  0  0  0  0  0  0  0  0  0  0  0
   29.5870   -3.9963   52.9620 H   0  0  0  0  0  0  0  0  0  0  0  0
   28.2842    5.1652   53.2286 O   0  0  0  0  0  0  0  0  0  0  0  0
   28.9658    4.3475   52.1951 C   0  0  0  0  0  0  0  0  0  0  0  0
   28.3925    4.6551   50.7849 C   0  0  0  0  0  0  0  0  0  0  0  0
   27.3458    3.5549   50.3707 C   0  0  0  0  0  0  0  0  0  0  0  0
   28.0686    2.3065   50.2017 N   0  0  0  0  0  0  0  0  0  0  0  0
   28.8518    1.9059   51.3609 C   0  0  0  0  0  0  0  0  0  0  0  0
   28.8246    2.8653   52.5549 C   0  0  0  0  0  0  0  0  0  0  0  0
   28.0253    1.5528   49.0479 C   0  0  0  0  0  0  0  0  0  0  0  0
   27.9993    0.1916   49.0827 N   0  0  0  0  0  0  0  0  0  0  0  0
   28.0030    2.1028   47.6719 C   0  0  0  0  0  0  0  0  0  0  0  0
   28.0108   -0.2790   49.9473 H   0  0  0  0  0  0  0  0  0  0  0  0
 25 26  2  0  0  0
 26 27  1  0  0  0
 26 15  1  0  0  0
 15 16  2  0  0  0
 15 24  1  0  0  0
 16 17  1  0  0  0
 17 18  2  0  0  0
 17 22  1  0  0  0
 18 19  1  0  0  0
 19 20  2  0  0  0
 19 14  1  0  0  0
 20 21  1  0  0  0
 21 22  2  0  0  0
 22 23  1  0  0  0
 23 24  2  0  0  0
 14  1  1  0  0  0
  1  2  1  0  0  0
  1  5  1  0  0  0
  2  3  2  0  0  0
  2 13  1  0  0  0
  3  4  1  0  0  0
  3 10  1  0  0  0
  4  5  2  0  0  0
  4  6  1  0  0  0
  5  9  1  0  0  0
  6  7  2  0  0  0
  7  8  1  0  0  0
  8  9  2  0  0  0
  8 31  1  0  0  0
 10 11  2  0  0  0
 11 12  1  0  0  0
 12 13  2  0  0  0
 31 32  1  0  0  0
 32 33  1  0  0  0
 32 37  1  0  0  0
 33 34  1  0  0  0
 34 35  1  0  0  0
 35 36  1  0  0  0
 35 38  1  0  0  0
 36 37  1  0  0  0
 38 39  2  0  0  0
 38 40  1  0  0  0
 25 28  1  0  0  0
 27 29  1  0  0  0
 27 30  1  0  0  0
 39 41  1  0  0  0
M  END
> <minimizedAffinity>
-8.42775

$$$$
1QB9_806_A_300


 41 46  0  0  0  0  0  0  0  0999 V2000
   24.8657    2.4878   57.7732 N   0  0  0  0  0  0  0  0  0  0  0  0
   23.6108    1.9942   57.4978 C   0  0  0  0  0  0  0  0  0  0  0  0
   23.0377    2.6966   56.4414 C   0  0  0  0  0  0  0  0  0  0  0  0
   23.9698    3.6428   56.0669 C   0  0  0  0  0  0  0  0  0  0  0  0
   25.0941    3.5001   56.9070 C   0  0  0  0  0  0  0  0  0  0  0  0
   23.8472    4.5982   55.0446 C   0  0  0  0  0  0  0  0  0  0  0  0
   24.9404    5.4544   54.8607 C   0  0  0  0  0  0  0  0  0  0  0  0
   26.0984    5.3451   55.7001 C   0  0  0  0  0  0  0  0  0  0  0  0
   26.1860    4.3885   56.7082 C   0  0  0  0  0  0  0  0  0  0  0  0
   21.7614    2.4426   55.9064 C   0  0  0  0  0  0  0  0  0  0  0  0
   21.0226    1.3930   56.4851 C   0  0  0  0  0  0  0  0  0  0  0  0
   21.5742    0.6619   57.5672 C   0  0  0  0  0  0  0  0  0  0  0  0
   22.8580    0.9486   58.0851 C   0  0  0  0  0  0  0  0  0  0  0  0
   25.7218    1.9998   58.8681 C   0  0  0  0  0  0  0  0  0  0  0  0
   30.0055   -0.3478   54.9266 C   0  0  0  0  0  0  0  0  0  0  0  0
   28.7227   -0.0581   55.4276 C   0  0  0  0  0  0  0  0  0  0  0  0
   28.5691    0.6550   56.6485 C   0  0  0  0  0  0  0  0  0  0  0  0
   27.2657    0.9248   57.1462 C   0  0  0  0  0  0  0  0  0  0  0  0
   27.1063    1.6716   58.3513 C   0  0  0  0  0  0  0  0  0  0  0  0
   28.2584    2.1090   59.0411 C   0  0  0  0  0  0  0  0  0  0  0  0
   29.5447    1.8192   58.5764 C   0  0  0  0  0  0  0  0  0  0  0  0
   29.7158    1.1011   57.3619 C   0  0  0  0  0  0  0  0  0  0  0  0
   31.0132    0.8364   56.8881 C   0  0  0  0  0  0  0  0  0  0  0  0
   31.1399    0.1125   55.6792 C   0  0  0  0  0  0  0  0  0  0  0  0
   29.3487   -1.1755   52.7033 N   0  0  0  0  0  0  0  0  0  0  0  0
   30.2062   -1.0484   53.7060 C   0  0  0  0  0  0  0  0  0  0  0  0
   31.3459   -1.7205   53.5080 N   0  0  0  0  0  0  0  0  0  0  0  0
   29.6012   -1.6885   51.9018 H   0  0  0  0  0  0  0  0  0  0  0  0
   31.4900   -2.2074   52.6645 H   0  0  0  0  0  0  0  0  0  0  0  0
   32.0404   -1.7283   54.2057 H   0  0  0  0  0  0  0  0  0  0  0  0
   27.1055    6.2612   55.4289 O   0  0  0  0  0  0  0  0  0  0  0  0
   28.3121    5.7534   54.7309 C   0  0  0  0  0  0  0  0  0  0  0  0
   28.0081    5.4866   53.2315 C   0  0  0  0  0  0  0  0  0  0  0  0
   27.7359    3.9543   52.9953 C   0  0  0  0  0  0  0  0  0  0  0  0
   28.9800    3.2468   53.2425 N   0  0  0  0  0  0  0  0  0  0  0  0
   29.5649    3.5020   54.5502 C   0  0  0  0  0  0  0  0  0  0  0  0
   28.8097    4.4918   55.4430 C   0  0  0  0  0  0  0  0  0  0  0  0
   29.5686    2.4007   52.3265 C   0  0  0  0  0  0  0  0  0  0  0  0
   28.8263    1.6376   51.4771 N   0  0  0  0  0  0  0  0  0  0  0  0
   31.0288    2.2166   52.1529 C   0  0  0  0  0  0  0  0  0  0  0  0
   27.8433    1.6820   51.5070 H   0  0  0  0  0  0  0  0  0  0  0  0
 25 26  2  0  0  0
 26 27  1  0  0  0
 26 15  1  0  0  0
 15 16  2  0  0  0
 15 24  1  0  0  0
 16 17  1  0  0  0
 17 18  2  0  0  0
 17 22  1  0  0  0
 18 19  1  0  0  0
 19 20  2  0  0  0
 19 14  1  0  0  0
 20 21  1  0  0  0
 21 22  2  0  0  0
 22 23  1  0  0  0
 23 24  2  0  0  0
 14  1  1  0  0  0
  1  2  1  0  0  0
  1  5  1  0  0  0
  2  3  2  0  0  0
  2 13  1  0  0  0
  3  4  1  0  0  0
  3 10  1  0  0  0
  4  5  2  0  0  0
  4  6  1  0  0  0
  5  9  1  0  0  0
  6  7  2  0  0  0
  7  8  1  0  0  0
  8  9  2  0  0  0
  8 31  1  0  0  0
 10 11  2  0  0  0
 11 12  1  0  0  0
 12 13  2  0  0  0
 31 32  1  0  0  0
 32 33  1  0  0  0
 32 37  1  0  0  0
 33 34  1  0  0  0
 34 35  1  0  0  0
 35 36  1  0  0  0
 35 38  1  0  0  0
 36 37  1  0  0  0
 38 39  2  0  0  0
 38 40  1  0  0  0
 25 28  1  0  0  0
 27 29  1  0  0  0
 27 30  1  0  0  0
 39 41  1  0  0  0
M  END
> <minimizedAffinity>
-8.30406

$$$$
