4AJ4_VAB_A_1333


 23 24  0  0  0  0  0  0  0  0999 V2000
   21.9511   -6.5249   -0.3231 C   0  0  0  0  0  0  0  0  0  0  0  0
   20.8184   -6.3371    0.4572 C   0  0  0  0  0  0  0  0  0  0  0  0
   19.4175   -7.1224   -1.3571 C   0  0  0  0  0  0  0  0  0  0  0  0
   21.8327   -7.0145   -1.6245 C   0  0  0  0  0  0  0  0  0  0  0  0
   19.5513   -6.6268   -0.0464 C   0  0  0  0  0  0  0  0  0  0  0  0
   20.5594   -7.3099   -2.1165 C   0  0  0  0  0  0  0  0  0  0  0  0
   22.4233   -7.6964   -3.6255 C   0  0  0  0  0  0  0  0  0  0  0  0
   22.8794   -7.2513   -2.5110 N   0  0  0  0  0  0  0  0  0  0  0  0
   20.6876   -7.8938   -3.7461 S   0  0  0  0  0  0  0  0  0  0  0  0
   17.3434   -7.2514    0.9410 C   0  0  0  0  0  0  0  0  0  0  0  0
   18.4144   -6.4161    0.7933 N   0  0  0  0  0  0  0  0  0  0  0  0
   17.3841   -8.4646    0.6670 O   0  0  0  0  0  0  0  0  0  0  0  0
   18.4015   -5.5839    1.3190 H   0  0  0  0  0  0  0  0  0  0  0  0
   16.1036   -6.5930    1.4580 C   0  0  0  0  0  0  0  0  0  0  0  0
   15.2781   -7.5409    2.3305 C   0  0  0  0  0  0  0  0  0  0  0  0
   15.9770   -8.0788    3.5423 C   0  0  0  0  0  0  0  0  0  0  0  0
   16.2611   -7.3998    4.5255 O   0  0  0  0  0  0  0  0  0  0  0  0
   16.2760   -9.3470    3.4400 O   0  0  0  0  0  0  0  0  0  0  0  0
   16.0381   -9.8237    2.6692 H   0  0  0  0  0  0  0  0  0  0  0  0
   23.4688   -8.1160   -4.9582 S   0  0  0  0  0  0  0  0  0  0  0  0
   24.9924   -7.1265   -4.6995 C   0  0  0  0  0  0  0  0  0  0  0  0
   24.8609   -4.6881   -4.5079 C   0  0  0  0  0  0  0  0  0  0  0  0
   24.9171   -5.7254   -5.2398 C   0  0  0  0  0  0  0  0  0  0  0  0
  1  2  1  0  0  0
  1  4  2  0  0  0
  2  5  2  0  0  0
  3  5  1  0  0  0
  3  6  2  0  0  0
  4  6  1  0  0  0
  4  8  1  0  0  0
  5 11  1  0  0  0
  6  9  1  0  0  0
  7  8  2  0  0  0
  7  9  1  0  0  0
  7 20  1  0  0  0
 22 23  2  0  0  0
 23 21  1  0  0  0
 10 14  1  0  0  0
 10 11  1  0  0  0
 10 12  2  0  0  0
 16 15  1  0  0  0
 16 17  2  0  0  0
 16 18  1  0  0  0
 21 20  1  0  0  0
 14 15  1  0  0  0
 11 13  1  0  0  0
 18 19  1  0  0  0
M  END
> <minimizedAffinity>
-6.21173

$$$$
4AJ4_VAB_A_1333


 23 24  0  0  0  0  0  0  0  0999 V2000
   22.6778   -6.6473   -0.4390 C   0  0  0  0  0  0  0  0  0  0  0  0
   21.4311   -6.3485    0.0934 C   0  0  0  0  0  0  0  0  0  0  0  0
   20.3690   -6.9954   -1.9860 C   0  0  0  0  0  0  0  0  0  0  0  0
   22.7859   -7.1248   -1.7458 C   0  0  0  0  0  0  0  0  0  0  0  0
   20.2745   -6.5134   -0.6668 C   0  0  0  0  0  0  0  0  0  0  0  0
   21.6203   -7.2949   -2.4961 C   0  0  0  0  0  0  0  0  0  0  0  0
   23.7111   -7.8642   -3.5939 C   0  0  0  0  0  0  0  0  0  0  0  0
   23.9664   -7.4642   -2.4008 N   0  0  0  0  0  0  0  0  0  0  0  0
   22.0276   -7.8909   -4.0747 S   0  0  0  0  0  0  0  0  0  0  0  0
   17.9508   -7.0339    0.0879 C   0  0  0  0  0  0  0  0  0  0  0  0
   19.0135   -6.1913   -0.0767 N   0  0  0  0  0  0  0  0  0  0  0  0
   18.0608   -8.2734    0.0981 O   0  0  0  0  0  0  0  0  0  0  0  0
   18.8989   -5.2675    0.2440 H   0  0  0  0  0  0  0  0  0  0  0  0
   16.6305   -6.3503    0.2526 C   0  0  0  0  0  0  0  0  0  0  0  0
   15.6956   -7.1342    1.1760 C   0  0  0  0  0  0  0  0  0  0  0  0
   16.1900   -7.3373    2.5762 C   0  0  0  0  0  0  0  0  0  0  0  0
   16.3177   -6.4304    3.3945 O   0  0  0  0  0  0  0  0  0  0  0  0
   16.4945   -8.5815    2.8361 O   0  0  0  0  0  0  0  0  0  0  0  0
   16.3796   -9.2391    2.1786 H   0  0  0  0  0  0  0  0  0  0  0  0
   24.9655   -8.3860   -4.6890 S   0  0  0  0  0  0  0  0  0  0  0  0
   25.6696   -6.8389   -5.3805 C   0  0  0  0  0  0  0  0  0  0  0  0
   25.0451   -4.5498   -4.7725 C   0  0  0  0  0  0  0  0  0  0  0  0
   24.7422   -5.6571   -5.3174 C   0  0  0  0  0  0  0  0  0  0  0  0
  1  2  1  0  0  0
  1  4  2  0  0  0
  2  5  2  0  0  0
  3  5  1  0  0  0
  3  6  2  0  0  0
  4  6  1  0  0  0
  4  8  1  0  0  0
  5 11  1  0  0  0
  6  9  1  0  0  0
  7  8  2  0  0  0
  7  9  1  0  0  0
  7 20  1  0  0  0
 22 23  2  0  0  0
 23 21  1  0  0  0
 10 14  1  0  0  0
 10 11  1  0  0  0
 10 12  2  0  0  0
 16 15  1  0  0  0
 16 17  2  0  0  0
 16 18  1  0  0  0
 21 20  1  0  0  0
 14 15  1  0  0  0
 11 13  1  0  0  0
 18 19  1  0  0  0
M  END
> <minimizedAffinity>
-6.10735

$$$$
4AJ4_VAB_A_1333


 23 24  0  0  0  0  0  0  0  0999 V2000
   15.7960   -7.3275   -0.4225 C   0  0  0  0  0  0  0  0  0  0  0  0
   17.0742   -6.8969   -0.7510 C   0  0  0  0  0  0  0  0  0  0  0  0
   17.7785   -7.1768    1.5504 C   0  0  0  0  0  0  0  0  0  0  0  0
   15.4941   -7.6896    0.8909 C   0  0  0  0  0  0  0  0  0  0  0  0
   18.0690   -6.8136    0.2218 C   0  0  0  0  0  0  0  0  0  0  0  0
   16.5003   -7.6109    1.8563 C   0  0  0  0  0  0  0  0  0  0  0  0
   14.3250   -8.3806    2.6154 C   0  0  0  0  0  0  0  0  0  0  0  0
   14.2613   -8.1385    1.3561 N   0  0  0  0  0  0  0  0  0  0  0  0
   15.8693   -8.1086    3.3948 S   0  0  0  0  0  0  0  0  0  0  0  0
   20.4587   -7.1450   -0.4259 C   0  0  0  0  0  0  0  0  0  0  0  0
   19.3694   -6.3633   -0.1632 N   0  0  0  0  0  0  0  0  0  0  0  0
   20.3744   -8.3475   -0.7352 O   0  0  0  0  0  0  0  0  0  0  0  0
   19.4931   -5.3903   -0.2478 H   0  0  0  0  0  0  0  0  0  0  0  0
   21.7746   -6.4432   -0.3093 C   0  0  0  0  0  0  0  0  0  0  0  0
   21.8399   -5.5612    0.9393 C   0  0  0  0  0  0  0  0  0  0  0  0
   23.0730   -4.7200    1.0736 C   0  0  0  0  0  0  0  0  0  0  0  0
   23.1523   -3.7342    1.8019 O   0  0  0  0  0  0  0  0  0  0  0  0
   24.0568   -5.1295    0.3169 O   0  0  0  0  0  0  0  0  0  0  0  0
   23.9487   -5.8881   -0.2224 H   0  0  0  0  0  0  0  0  0  0  0  0
   12.9569   -8.9783    3.5187 S   0  0  0  0  0  0  0  0  0  0  0  0
   13.5933   -9.2635    5.2161 C   0  0  0  0  0  0  0  0  0  0  0  0
   14.9131  -11.3267    5.2462 C   0  0  0  0  0  0  0  0  0  0  0  0
   13.8440  -10.7088    5.5461 C   0  0  0  0  0  0  0  0  0  0  0  0
  1  2  1  0  0  0
  1  4  2  0  0  0
  2  5  2  0  0  0
  3  5  1  0  0  0
  3  6  2  0  0  0
  4  6  1  0  0  0
  4  8  1  0  0  0
  5 11  1  0  0  0
  6  9  1  0  0  0
  7  8  2  0  0  0
  7  9  1  0  0  0
  7 20  1  0  0  0
 22 23  2  0  0  0
 23 21  1  0  0  0
 10 14  1  0  0  0
 10 11  1  0  0  0
 10 12  2  0  0  0
 16 15  1  0  0  0
 16 17  2  0  0  0
 16 18  1  0  0  0
 21 20  1  0  0  0
 14 15  1  0  0  0
 11 13  1  0  0  0
 18 19  1  0  0  0
M  END
> <minimizedAffinity>
-6.10733

$$$$
4AJ4_VAB_A_1333


 23 24  0  0  0  0  0  0  0  0999 V2000
   22.5953   -6.6661   -0.4048 C   0  0  0  0  0  0  0  0  0  0  0  0
   21.3336   -6.3651    0.0898 C   0  0  0  0  0  0  0  0  0  0  0  0
   20.3314   -7.0328   -2.0127 C   0  0  0  0  0  0  0  0  0  0  0  0
   22.7409   -7.1551   -1.7036 C   0  0  0  0  0  0  0  0  0  0  0  0
   20.1991   -6.5392   -0.7011 C   0  0  0  0  0  0  0  0  0  0  0  0
   21.5971   -7.3343   -2.4847 C   0  0  0  0  0  0  0  0  0  0  0  0
   23.7189   -7.9091   -3.5183 C   0  0  0  0  0  0  0  0  0  0  0  0
   23.9399   -7.4979   -2.3222 N   0  0  0  0  0  0  0  0  0  0  0  0
   22.0496   -7.9435   -4.0459 S   0  0  0  0  0  0  0  0  0  0  0  0
   17.8752   -7.0710    0.0450 C   0  0  0  0  0  0  0  0  0  0  0  0
   18.9215   -6.2143   -0.1495 N   0  0  0  0  0  0  0  0  0  0  0  0
   18.0126   -8.3053    0.1258 O   0  0  0  0  0  0  0  0  0  0  0  0
   18.7809   -5.2773    0.1176 H   0  0  0  0  0  0  0  0  0  0  0  0
   16.5374   -6.4102    0.1509 C   0  0  0  0  0  0  0  0  0  0  0  0
   15.6402   -7.1041    1.1780 C   0  0  0  0  0  0  0  0  0  0  0  0
   16.1775   -7.1561    2.5761 C   0  0  0  0  0  0  0  0  0  0  0  0
   16.2782   -6.1741    3.3069 O   0  0  0  0  0  0  0  0  0  0  0  0
   16.5512   -8.3555    2.9366 O   0  0  0  0  0  0  0  0  0  0  0  0
   16.4543   -9.0744    2.3435 H   0  0  0  0  0  0  0  0  0  0  0  0
   25.0044   -8.4381   -4.5731 S   0  0  0  0  0  0  0  0  0  0  0  0
   24.1858   -9.4941   -5.8310 C   0  0  0  0  0  0  0  0  0  0  0  0
   23.7056  -11.8732   -6.1613 C   0  0  0  0  0  0  0  0  0  0  0  0
   24.4420  -10.9660   -5.6618 C   0  0  0  0  0  0  0  0  0  0  0  0
  1  2  1  0  0  0
  1  4  2  0  0  0
  2  5  2  0  0  0
  3  5  1  0  0  0
  3  6  2  0  0  0
  4  6  1  0  0  0
  4  8  1  0  0  0
  5 11  1  0  0  0
  6  9  1  0  0  0
  7  8  2  0  0  0
  7  9  1  0  0  0
  7 20  1  0  0  0
 22 23  2  0  0  0
 23 21  1  0  0  0
 10 14  1  0  0  0
 10 11  1  0  0  0
 10 12  2  0  0  0
 16 15  1  0  0  0
 16 17  2  0  0  0
 16 18  1  0  0  0
 21 20  1  0  0  0
 14 15  1  0  0  0
 11 13  1  0  0  0
 18 19  1  0  0  0
M  END
> <minimizedAffinity>
-6.04857

$$$$
4AJ4_VAB_A_1333


 23 24  0  0  0  0  0  0  0  0999 V2000
   18.1254   -8.7750   -1.1992 C   0  0  0  0  0  0  0  0  0  0  0  0
   16.9767   -8.6471   -0.4302 C   0  0  0  0  0  0  0  0  0  0  0  0
   18.0579   -6.9629    0.9355 C   0  0  0  0  0  0  0  0  0  0  0  0
   19.2500   -7.9998   -0.9139 C   0  0  0  0  0  0  0  0  0  0  0  0
   16.9310   -7.7519    0.6372 C   0  0  0  0  0  0  0  0  0  0  0  0
   19.1910   -7.0996    0.1523 C   0  0  0  0  0  0  0  0  0  0  0  0
   21.2840   -7.1908   -1.0771 C   0  0  0  0  0  0  0  0  0  0  0  0
   20.4603   -8.0248   -1.6011 N   0  0  0  0  0  0  0  0  0  0  0  0
   20.7085   -6.2693    0.2961 S   0  0  0  0  0  0  0  0  0  0  0  0
   15.4279   -8.3458    2.5420 C   0  0  0  0  0  0  0  0  0  0  0  0
   15.7273   -7.6559    1.4014 N   0  0  0  0  0  0  0  0  0  0  0  0
   16.2940   -8.8578    3.2744 O   0  0  0  0  0  0  0  0  0  0  0  0
   15.0439   -7.0283    1.0723 H   0  0  0  0  0  0  0  0  0  0  0  0
   13.9668   -8.4452    2.8472 C   0  0  0  0  0  0  0  0  0  0  0  0
   13.6578   -9.6265    3.7694 C   0  0  0  0  0  0  0  0  0  0  0  0
   13.2899   -9.2691    5.1776 C   0  0  0  0  0  0  0  0  0  0  0  0
   12.1448   -9.3192    5.6188 O   0  0  0  0  0  0  0  0  0  0  0  0
   14.3127   -8.8753    5.8896 O   0  0  0  0  0  0  0  0  0  0  0  0
   15.1685   -8.8541    5.5085 H   0  0  0  0  0  0  0  0  0  0  0  0
   22.8944   -6.9533   -1.7059 S   0  0  0  0  0  0  0  0  0  0  0  0
   22.7249   -7.1150   -3.5260 C   0  0  0  0  0  0  0  0  0  0  0  0
   24.7956   -8.1887   -4.2737 C   0  0  0  0  0  0  0  0  0  0  0  0
   23.5344   -8.2320   -4.1239 C   0  0  0  0  0  0  0  0  0  0  0  0
  1  2  1  0  0  0
  1  4  2  0  0  0
  2  5  2  0  0  0
  3  5  1  0  0  0
  3  6  2  0  0  0
  4  6  1  0  0  0
  4  8  1  0  0  0
  5 11  1  0  0  0
  6  9  1  0  0  0
  7  8  2  0  0  0
  7  9  1  0  0  0
  7 20  1  0  0  0
 22 23  2  0  0  0
 23 21  1  0  0  0
 10 14  1  0  0  0
 10 11  1  0  0  0
 10 12  2  0  0  0
 16 15  1  0  0  0
 16 17  2  0  0  0
 16 18  1  0  0  0
 21 20  1  0  0  0
 14 15  1  0  0  0
 11 13  1  0  0  0
 18 19  1  0  0  0
M  END
> <minimizedAffinity>
-6.04455

$$$$
4AJ4_VAB_A_1333


 23 24  0  0  0  0  0  0  0  0999 V2000
   19.1983   -8.3546   -2.1510 C   0  0  0  0  0  0  0  0  0  0  0  0
   18.0037   -8.2898   -1.4469 C   0  0  0  0  0  0  0  0  0  0  0  0
   19.0960   -7.0508    0.3259 C   0  0  0  0  0  0  0  0  0  0  0  0
   20.3523   -7.7684   -1.6294 C   0  0  0  0  0  0  0  0  0  0  0  0
   17.9398   -7.6474   -0.2115 C   0  0  0  0  0  0  0  0  0  0  0  0
   20.2756   -7.1196   -0.3950 C   0  0  0  0  0  0  0  0  0  0  0  0
   22.4492   -7.1371   -1.4793 C   0  0  0  0  0  0  0  0  0  0  0  0
   21.6094   -7.7567   -2.2272 N   0  0  0  0  0  0  0  0  0  0  0  0
   21.8358   -6.4859    0.0259 S   0  0  0  0  0  0  0  0  0  0  0  0
   15.9601   -6.4923    0.7819 C   0  0  0  0  0  0  0  0  0  0  0  0
   16.6884   -7.6074    0.4774 N   0  0  0  0  0  0  0  0  0  0  0  0
   16.0884   -5.4108    0.1798 O   0  0  0  0  0  0  0  0  0  0  0  0
   16.3127   -8.4719    0.7617 H   0  0  0  0  0  0  0  0  0  0  0  0
   14.9896   -6.6673    1.9066 C   0  0  0  0  0  0  0  0  0  0  0  0
   14.9684   -8.1085    2.4203 C   0  0  0  0  0  0  0  0  0  0  0  0
   15.8410   -8.3854    3.6069 C   0  0  0  0  0  0  0  0  0  0  0  0
   16.1126   -7.5504    4.4657 O   0  0  0  0  0  0  0  0  0  0  0  0
   16.3057   -9.6068    3.6267 O   0  0  0  0  0  0  0  0  0  0  0  0
   16.0700  -10.2088    2.9484 H   0  0  0  0  0  0  0  0  0  0  0  0
   24.1193   -6.9203   -1.9364 S   0  0  0  0  0  0  0  0  0  0  0  0
   24.4662   -8.2691   -3.1313 C   0  0  0  0  0  0  0  0  0  0  0  0
   25.0765   -6.6550   -4.8696 C   0  0  0  0  0  0  0  0  0  0  0  0
   24.6415   -7.8057   -4.5508 C   0  0  0  0  0  0  0  0  0  0  0  0
  1  2  1  0  0  0
  1  4  2  0  0  0
  2  5  2  0  0  0
  3  5  1  0  0  0
  3  6  2  0  0  0
  4  6  1  0  0  0
  4  8  1  0  0  0
  5 11  1  0  0  0
  6  9  1  0  0  0
  7  8  2  0  0  0
  7  9  1  0  0  0
  7 20  1  0  0  0
 22 23  2  0  0  0
 23 21  1  0  0  0
 10 14  1  0  0  0
 10 11  1  0  0  0
 10 12  2  0  0  0
 16 15  1  0  0  0
 16 17  2  0  0  0
 16 18  1  0  0  0
 21 20  1  0  0  0
 14 15  1  0  0  0
 11 13  1  0  0  0
 18 19  1  0  0  0
M  END
> <minimizedAffinity>
-5.95496

$$$$
4AJ4_VAB_A_1333


 23 24  0  0  0  0  0  0  0  0999 V2000
   19.0988   -7.5040   -2.3274 C   0  0  0  0  0  0  0  0  0  0  0  0
   18.0714   -7.1509   -1.4632 C   0  0  0  0  0  0  0  0  0  0  0  0
   19.6877   -6.4186    0.1866 C   0  0  0  0  0  0  0  0  0  0  0  0
   20.4288   -7.3173   -1.9487 C   0  0  0  0  0  0  0  0  0  0  0  0
   18.3506   -6.6134   -0.2078 C   0  0  0  0  0  0  0  0  0  0  0  0
   20.6977   -6.7699   -0.6922 C   0  0  0  0  0  0  0  0  0  0  0  0
   22.6207   -7.3315   -2.0661 C   0  0  0  0  0  0  0  0  0  0  0  0
   21.5510   -7.6235   -2.7133 N   0  0  0  0  0  0  0  0  0  0  0  0
   22.4145   -6.6474   -0.4674 S   0  0  0  0  0  0  0  0  0  0  0  0
   16.5534   -7.1141    1.4534 C   0  0  0  0  0  0  0  0  0  0  0  0
   17.2602   -6.2664    0.6482 N   0  0  0  0  0  0  0  0  0  0  0  0
   16.9947   -8.2120    1.8390 O   0  0  0  0  0  0  0  0  0  0  0  0
   16.9907   -5.3195    0.6588 H   0  0  0  0  0  0  0  0  0  0  0  0
   15.1940   -6.6228    1.8384 C   0  0  0  0  0  0  0  0  0  0  0  0
   14.6067   -5.6873    0.7795 C   0  0  0  0  0  0  0  0  0  0  0  0
   14.1899   -4.3342    1.2710 C   0  0  0  0  0  0  0  0  0  0  0  0
   13.2324   -3.7090    0.8230 O   0  0  0  0  0  0  0  0  0  0  0  0
   14.9650   -3.8720    2.2165 O   0  0  0  0  0  0  0  0  0  0  0  0
   15.6843   -4.3865    2.5260 H   0  0  0  0  0  0  0  0  0  0  0  0
   24.2119   -7.5719   -2.7409 S   0  0  0  0  0  0  0  0  0  0  0  0
   24.3867   -6.2735   -4.0258 C   0  0  0  0  0  0  0  0  0  0  0  0
   26.0805   -5.7976   -5.7300 C   0  0  0  0  0  0  0  0  0  0  0  0
   25.3249   -6.6345   -5.1438 C   0  0  0  0  0  0  0  0  0  0  0  0
  1  2  1  0  0  0
  1  4  2  0  0  0
  2  5  2  0  0  0
  3  5  1  0  0  0
  3  6  2  0  0  0
  4  6  1  0  0  0
  4  8  1  0  0  0
  5 11  1  0  0  0
  6  9  1  0  0  0
  7  8  2  0  0  0
  7  9  1  0  0  0
  7 20  1  0  0  0
 22 23  2  0  0  0
 23 21  1  0  0  0
 10 14  1  0  0  0
 10 11  1  0  0  0
 10 12  2  0  0  0
 16 15  1  0  0  0
 16 17  2  0  0  0
 16 18  1  0  0  0
 21 20  1  0  0  0
 14 15  1  0  0  0
 11 13  1  0  0  0
 18 19  1  0  0  0
M  END
> <minimizedAffinity>
-5.83920

$$$$
4AJ4_VAB_A_1333


 23 24  0  0  0  0  0  0  0  0999 V2000
   19.1607   -8.4566   -1.4937 C   0  0  0  0  0  0  0  0  0  0  0  0
   17.9401   -8.2566   -0.8635 C   0  0  0  0  0  0  0  0  0  0  0  0
   18.9236   -6.5384    0.5334 C   0  0  0  0  0  0  0  0  0  0  0  0
   20.2737   -7.7013   -1.1222 C   0  0  0  0  0  0  0  0  0  0  0  0
   17.8092   -7.3081    0.1494 C   0  0  0  0  0  0  0  0  0  0  0  0
   20.1299   -6.7474   -0.1123 C   0  0  0  0  0  0  0  0  0  0  0  0
   22.3401   -6.9615   -1.0969 C   0  0  0  0  0  0  0  0  0  0  0  0
   21.5502   -7.7963   -1.6693 N   0  0  0  0  0  0  0  0  0  0  0  0
   21.6505   -5.9557    0.1596 S   0  0  0  0  0  0  0  0  0  0  0  0
   16.0336   -7.8594    1.8178 C   0  0  0  0  0  0  0  0  0  0  0  0
   16.5334   -7.1385    0.7703 N   0  0  0  0  0  0  0  0  0  0  0  0
   16.7524   -8.4941    2.6111 O   0  0  0  0  0  0  0  0  0  0  0  0
   15.9554   -6.4297    0.4061 H   0  0  0  0  0  0  0  0  0  0  0  0
   14.5430   -7.8331    1.9402 C   0  0  0  0  0  0  0  0  0  0  0  0
   14.0185   -9.0172    2.7552 C   0  0  0  0  0  0  0  0  0  0  0  0
   12.6033   -8.8971    3.2337 C   0  0  0  0  0  0  0  0  0  0  0  0
   12.2869   -8.8079    4.4170 O   0  0  0  0  0  0  0  0  0  0  0  0
   11.7306   -8.9185    2.2610 O   0  0  0  0  0  0  0  0  0  0  0  0
   12.0207   -8.9879    1.3727 H   0  0  0  0  0  0  0  0  0  0  0  0
   24.0168   -6.8031   -1.5540 S   0  0  0  0  0  0  0  0  0  0  0  0
   24.2782   -8.0691   -2.8564 C   0  0  0  0  0  0  0  0  0  0  0  0
   24.8435   -6.3513   -4.5084 C   0  0  0  0  0  0  0  0  0  0  0  0
   24.3897   -7.5092   -4.2473 C   0  0  0  0  0  0  0  0  0  0  0  0
  1  2  1  0  0  0
  1  4  2  0  0  0
  2  5  2  0  0  0
  3  5  1  0  0  0
  3  6  2  0  0  0
  4  6  1  0  0  0
  4  8  1  0  0  0
  5 11  1  0  0  0
  6  9  1  0  0  0
  7  8  2  0  0  0
  7  9  1  0  0  0
  7 20  1  0  0  0
 22 23  2  0  0  0
 23 21  1  0  0  0
 10 14  1  0  0  0
 10 11  1  0  0  0
 10 12  2  0  0  0
 16 15  1  0  0  0
 16 17  2  0  0  0
 16 18  1  0  0  0
 21 20  1  0  0  0
 14 15  1  0  0  0
 11 13  1  0  0  0
 18 19  1  0  0  0
M  END
> <minimizedAffinity>
-5.70142

$$$$
4AJ4_VAB_A_1333


 23 24  0  0  0  0  0  0  0  0999 V2000
   20.7239   -5.9394    0.5878 C   0  0  0  0  0  0  0  0  0  0  0  0
   21.9085   -6.2247   -0.0773 C   0  0  0  0  0  0  0  0  0  0  0  0
   20.7952   -7.9584   -1.3522 C   0  0  0  0  0  0  0  0  0  0  0  0
   19.5633   -6.6551    0.2909 C   0  0  0  0  0  0  0  0  0  0  0  0
   21.9587   -7.2295   -1.0421 C   0  0  0  0  0  0  0  0  0  0  0  0
   19.6222   -7.6538   -0.6836 C   0  0  0  0  0  0  0  0  0  0  0  0
   17.4664   -7.2982    0.3779 C   0  0  0  0  0  0  0  0  0  0  0  0
   18.3137   -6.4725    0.8766 N   0  0  0  0  0  0  0  0  0  0  0  0
   18.0590   -8.3880   -0.8580 S   0  0  0  0  0  0  0  0  0  0  0  0
   23.4787   -7.2978   -3.0233 C   0  0  0  0  0  0  0  0  0  0  0  0
   23.2010   -7.4885   -1.6993 N   0  0  0  0  0  0  0  0  0  0  0  0
   22.8258   -6.5282   -3.7513 O   0  0  0  0  0  0  0  0  0  0  0  0
   23.9314   -7.8403   -1.1408 H   0  0  0  0  0  0  0  0  0  0  0  0
   24.6349   -8.0936   -3.5405 C   0  0  0  0  0  0  0  0  0  0  0  0
   24.2493   -8.9272   -4.7643 C   0  0  0  0  0  0  0  0  0  0  0  0
   25.2840   -9.9046   -5.2336 C   0  0  0  0  0  0  0  0  0  0  0  0
   26.4565   -9.6086   -5.4485 O   0  0  0  0  0  0  0  0  0  0  0  0
   24.8070  -11.1080   -5.4137 O   0  0  0  0  0  0  0  0  0  0  0  0
   23.9044  -11.2856   -5.2359 H   0  0  0  0  0  0  0  0  0  0  0  0
   15.7940   -7.3298    0.8752 S   0  0  0  0  0  0  0  0  0  0  0  0
   15.7835   -8.2624    2.4556 C   0  0  0  0  0  0  0  0  0  0  0  0
   13.8553   -9.6458    3.0621 C   0  0  0  0  0  0  0  0  0  0  0  0
   14.4110   -8.5038    3.0201 C   0  0  0  0  0  0  0  0  0  0  0  0
  1  2  1  0  0  0
  1  4  2  0  0  0
  2  5  2  0  0  0
  3  5  1  0  0  0
  3  6  2  0  0  0
  4  6  1  0  0  0
  4  8  1  0  0  0
  5 11  1  0  0  0
  6  9  1  0  0  0
  7  8  2  0  0  0
  7  9  1  0  0  0
  7 20  1  0  0  0
 22 23  2  0  0  0
 23 21  1  0  0  0
 10 14  1  0  0  0
 10 11  1  0  0  0
 10 12  2  0  0  0
 16 15  1  0  0  0
 16 17  2  0  0  0
 16 18  1  0  0  0
 21 20  1  0  0  0
 14 15  1  0  0  0
 11 13  1  0  0  0
 18 19  1  0  0  0
M  END
> <minimizedAffinity>
-5.54836

$$$$
4AJ4_VAB_A_1333


 23 24  0  0  0  0  0  0  0  0999 V2000
   20.4040   -5.9696    0.6576 C   0  0  0  0  0  0  0  0  0  0  0  0
   21.6269   -6.2363    0.0572 C   0  0  0  0  0  0  0  0  0  0  0  0
   20.6119   -7.9911   -1.2700 C   0  0  0  0  0  0  0  0  0  0  0  0
   19.2729   -6.7053    0.3016 C   0  0  0  0  0  0  0  0  0  0  0  0
   21.7450   -7.2420   -0.9007 C   0  0  0  0  0  0  0  0  0  0  0  0
   19.4001   -7.7048   -0.6655 C   0  0  0  0  0  0  0  0  0  0  0  0
   17.1853   -7.3833    0.2790 C   0  0  0  0  0  0  0  0  0  0  0  0
   17.9911   -6.5425    0.8195 N   0  0  0  0  0  0  0  0  0  0  0  0
   17.8608   -8.4655   -0.9205 S   0  0  0  0  0  0  0  0  0  0  0  0
   23.3080   -7.5491   -2.8250 C   0  0  0  0  0  0  0  0  0  0  0  0
   23.0246   -7.4815   -1.4902 N   0  0  0  0  0  0  0  0  0  0  0  0
   22.5836   -7.0421   -3.7007 O   0  0  0  0  0  0  0  0  0  0  0  0
   23.7791   -7.6110   -0.8712 H   0  0  0  0  0  0  0  0  0  0  0  0
   24.5641   -8.2887   -3.1608 C   0  0  0  0  0  0  0  0  0  0  0  0
   24.9702   -8.0855   -4.6220 C   0  0  0  0  0  0  0  0  0  0  0  0
   25.7093   -9.2264   -5.2529 C   0  0  0  0  0  0  0  0  0  0  0  0
   26.7151   -9.0907   -5.9445 O   0  0  0  0  0  0  0  0  0  0  0  0
   25.1613  -10.3879   -5.0102 O   0  0  0  0  0  0  0  0  0  0  0  0
   24.3934  -10.4412   -4.4759 H   0  0  0  0  0  0  0  0  0  0  0  0
   15.4897   -7.4420    0.6869 S   0  0  0  0  0  0  0  0  0  0  0  0
   15.0853   -5.7569    1.2907 C   0  0  0  0  0  0  0  0  0  0  0  0
   14.9478   -3.6057    0.1275 C   0  0  0  0  0  0  0  0  0  0  0  0
   14.5903   -4.8214    0.2229 C   0  0  0  0  0  0  0  0  0  0  0  0
  1  2  1  0  0  0
  1  4  2  0  0  0
  2  5  2  0  0  0
  3  5  1  0  0  0
  3  6  2  0  0  0
  4  6  1  0  0  0
  4  8  1  0  0  0
  5 11  1  0  0  0
  6  9  1  0  0  0
  7  8  2  0  0  0
  7  9  1  0  0  0
  7 20  1  0  0  0
 22 23  2  0  0  0
 23 21  1  0  0  0
 10 14  1  0  0  0
 10 11  1  0  0  0
 10 12  2  0  0  0
 16 15  1  0  0  0
 16 17  2  0  0  0
 16 18  1  0  0  0
 21 20  1  0  0  0
 14 15  1  0  0  0
 11 13  1  0  0  0
 18 19  1  0  0  0
M  END
> <minimizedAffinity>
-5.49573

$$$$
