2Q89_6CS_A_501


 14 14  0  0  0  0  0  0  0  0999 V2000
   17.0248   22.2457   32.3285 C   0  0  0  0  0  0  0  0  0  0  0  0
   18.1902   21.9121   31.4796 N   0  0  0  0  0  0  0  0  0  0  0  0
   19.2687   21.1600   31.9810 C   0  0  0  0  0  0  0  0  0  0  0  0
   20.4442   20.8341   31.0769 C   0  0  0  0  0  0  0  0  0  0  0  0
   19.2970   20.7123   33.3096 N   0  0  0  0  0  0  0  0  0  0  0  0
   18.1782   20.9994   34.2252 C   0  0  0  0  0  0  0  0  0  0  0  0
   17.4243   22.2728   33.8239 C   0  0  0  0  0  0  0  0  0  0  0  0
   16.2568   22.3007   34.6339 O   0  0  0  0  0  0  0  0  0  0  0  0
   20.0727   20.2005   33.6343 H   0  0  0  0  0  0  0  0  0  0  0  0
   15.7331   21.5000   34.4740 H   0  0  0  0  0  0  0  0  0  0  0  0
   15.6355   24.1752   32.6615 O   0  0  0  0  0  0  0  0  0  0  0  0
   16.3673   23.5719   31.8537 C   0  0  0  0  0  0  0  0  0  0  0  0
   16.5989   23.9476   30.6818 O   0  0  0  0  0  0  0  0  0  0  0  0
   17.1616   23.4408   30.1300 H   0  0  0  0  0  0  0  0  0  0  0  0
 11 12  2  0  0  0
 12 13  1  0  0  0
 12  1  1  0  0  0
  1  2  1  0  0  0
  1  7  1  0  0  0
  2  3  2  0  0  0
  3  4  1  0  0  0
  3  5  1  0  0  0
  5  6  1  0  0  0
  6  7  1  0  0  0
  7  8  1  0  0  0
 13 14  1  0  0  0
  5  9  1  0  0  0
  8 10  1  0  0  0
M  END
> <minimizedAffinity>
-7.89676

$$$$
