5C2A_4Y2_A_803


 21 23  0  0  0  0  0  0  0  0999 V2000
    4.1848   12.4455   45.4139 C   0  0  0  0  0  0  0  0  0  0  0  0
    3.2676   13.1112   47.6963 C   0  0  0  0  0  0  0  0  0  0  0  0
    3.1790   14.5288   45.6558 C   0  0  0  0  0  0  0  0  0  0  0  0
    3.3911   14.8281   44.3838 N   0  0  0  0  0  0  0  0  0  0  0  0
    4.0071   13.9090   43.6336 C   0  0  0  0  0  0  0  0  0  0  0  0
    4.4025   12.7232   44.1160 N   0  0  0  0  0  0  0  0  0  0  0  0
    3.5583   13.3511   46.2476 C   0  0  0  0  0  0  0  0  0  0  0  0
    2.3768   15.7814   46.5242 Cl  0  0  0  0  0  0  0  0  0  0  0  0
    3.9092   13.2369   41.1428 C   0  0  0  0  0  0  0  0  0  0  0  0
    4.2497   14.2310   42.2158 C   0  0  0  0  0  0  0  0  0  0  0  0
    3.1064   14.4896   41.2719 C   0  0  0  0  0  0  0  0  0  0  0  0
    4.5967   11.2198   45.9821 N   0  0  0  0  0  0  0  0  0  0  0  0
    3.9932   10.4547   46.1224 H   0  0  0  0  0  0  0  0  0  0  0  0
    5.9996   11.2078   46.3361 C   0  0  0  0  0  0  0  0  0  0  0  0
    8.0843    9.1514   43.8001 C   0  0  0  0  0  0  0  0  0  0  0  0
    7.9623   11.1918   44.6806 C   0  0  0  0  0  0  0  0  0  0  0  0
    6.9130   10.6021   45.3452 C   0  0  0  0  0  0  0  0  0  0  0  0
    8.5877    8.0421   42.9649 C   0  0  0  0  0  0  0  0  0  0  0  0
    6.7514    8.9567   44.8587 S   0  0  0  0  0  0  0  0  0  0  0  0
    8.6053   10.3511   43.8145 N   0  0  0  0  0  0  0  0  0  0  0  0
    8.4542   12.5863   44.7936 C   0  0  0  0  0  0  0  0  0  0  0  0
  9 11  1  0  0  0
  9 10  1  0  0  0
 11 10  1  0  0  0
 10  5  1  0  0  0
 21 16  1  0  0  0
  5  6  2  0  0  0
  5  4  1  0  0  0
 20 16  1  0  0  0
 20 15  2  0  0  0
 16 17  2  0  0  0
  6  1  1  0  0  0
  4  3  2  0  0  0
 15 18  1  0  0  0
 15 19  1  0  0  0
 17 14  1  0  0  0
 17 19  1  0  0  0
 14 12  1  0  0  0
  1 12  1  0  0  0
  1  7  2  0  0  0
  3  7  1  0  0  0
  3  8  1  0  0  0
  7  2  1  0  0  0
 12 13  1  0  0  0
M  END
> <minimizedAffinity>
-7.54474

$$$$
5C2A_4Y2_A_803


 21 23  0  0  0  0  0  0  0  0999 V2000
    5.7730   11.9869   44.7929 C   0  0  0  0  0  0  0  0  0  0  0  0
    5.5891   10.8515   47.0668 C   0  0  0  0  0  0  0  0  0  0  0  0
    4.0222   12.5786   46.2050 C   0  0  0  0  0  0  0  0  0  0  0  0
    3.5508   13.4508   45.3277 N   0  0  0  0  0  0  0  0  0  0  0  0
    4.2124   13.5753   44.1729 C   0  0  0  0  0  0  0  0  0  0  0  0
    5.3073   12.8599   43.8819 N   0  0  0  0  0  0  0  0  0  0  0  0
    5.1419   11.8113   46.0088 C   0  0  0  0  0  0  0  0  0  0  0  0
    3.0909   12.4989   47.6518 Cl  0  0  0  0  0  0  0  0  0  0  0  0
    4.5952   15.0788   42.1094 C   0  0  0  0  0  0  0  0  0  0  0  0
    3.6978   14.5438   43.1882 C   0  0  0  0  0  0  0  0  0  0  0  0
    3.4817   14.1500   41.7519 C   0  0  0  0  0  0  0  0  0  0  0  0
    6.9335   11.2197   44.5490 N   0  0  0  0  0  0  0  0  0  0  0  0
    7.8080   11.4098   44.9594 H   0  0  0  0  0  0  0  0  0  0  0  0
    6.7010   10.1247   43.6322 C   0  0  0  0  0  0  0  0  0  0  0  0
    9.0406    7.0678   44.0662 C   0  0  0  0  0  0  0  0  0  0  0  0
    7.0382    7.8104   44.6924 C   0  0  0  0  0  0  0  0  0  0  0  0
    7.4348    8.8741   43.9168 C   0  0  0  0  0  0  0  0  0  0  0  0
   10.1947    6.1528   43.9547 C   0  0  0  0  0  0  0  0  0  0  0  0
    9.0041    8.5827   43.2668 S   0  0  0  0  0  0  0  0  0  0  0  0
    7.9633    6.8056   44.7602 N   0  0  0  0  0  0  0  0  0  0  0  0
    5.7669    7.6396   45.4368 C   0  0  0  0  0  0  0  0  0  0  0  0
  9 11  1  0  0  0
  9 10  1  0  0  0
 11 10  1  0  0  0
 10  5  1  0  0  0
 21 16  1  0  0  0
  5  6  2  0  0  0
  5  4  1  0  0  0
 20 16  1  0  0  0
 20 15  2  0  0  0
 16 17  2  0  0  0
  6  1  1  0  0  0
  4  3  2  0  0  0
 15 18  1  0  0  0
 15 19  1  0  0  0
 17 14  1  0  0  0
 17 19  1  0  0  0
 14 12  1  0  0  0
  1 12  1  0  0  0
  1  7  2  0  0  0
  3  7  1  0  0  0
  3  8  1  0  0  0
  7  2  1  0  0  0
 12 13  1  0  0  0
M  END
> <minimizedAffinity>
-7.11724

$$$$
5C2A_4Y2_A_803


 21 23  0  0  0  0  0  0  0  0999 V2000
    5.1501   11.3129   43.6952 C   0  0  0  0  0  0  0  0  0  0  0  0
    4.8458   11.9095   41.2365 C   0  0  0  0  0  0  0  0  0  0  0  0
    3.9659   13.2377   43.1451 C   0  0  0  0  0  0  0  0  0  0  0  0
    3.7500   13.5223   44.4199 N   0  0  0  0  0  0  0  0  0  0  0  0
    4.2516   12.6798   45.3283 C   0  0  0  0  0  0  0  0  0  0  0  0
    4.9518   11.5865   44.9970 N   0  0  0  0  0  0  0  0  0  0  0  0
    4.6556   12.1374   42.7037 C   0  0  0  0  0  0  0  0  0  0  0  0
    3.2794   14.3907   42.0654 Cl  0  0  0  0  0  0  0  0  0  0  0  0
    2.9042   13.9095   47.1553 C   0  0  0  0  0  0  0  0  0  0  0  0
    4.0171   12.9855   46.7510 C   0  0  0  0  0  0  0  0  0  0  0  0
    2.8071   12.4528   47.4701 C   0  0  0  0  0  0  0  0  0  0  0  0
    5.8640   10.1648   43.2863 N   0  0  0  0  0  0  0  0  0  0  0  0
    5.4472    9.3985   42.8298 H   0  0  0  0  0  0  0  0  0  0  0  0
    7.2726   10.2341   43.6094 C   0  0  0  0  0  0  0  0  0  0  0  0
    9.2150    6.9697   44.3691 C   0  0  0  0  0  0  0  0  0  0  0  0
    7.6382    8.2801   45.2348 C   0  0  0  0  0  0  0  0  0  0  0  0
    7.8929    8.9773   44.0775 C   0  0  0  0  0  0  0  0  0  0  0  0
   10.1429    5.8261   44.2552 C   0  0  0  0  0  0  0  0  0  0  0  0
    9.1139    8.1791   43.1598 S   0  0  0  0  0  0  0  0  0  0  0  0
    8.3985    7.1520   45.3745 N   0  0  0  0  0  0  0  0  0  0  0  0
    6.6680    8.6049   46.3084 C   0  0  0  0  0  0  0  0  0  0  0  0
  9 11  1  0  0  0
  9 10  1  0  0  0
 11 10  1  0  0  0
 10  5  1  0  0  0
 21 16  1  0  0  0
  5  6  2  0  0  0
  5  4  1  0  0  0
 20 16  1  0  0  0
 20 15  2  0  0  0
 16 17  2  0  0  0
  6  1  1  0  0  0
  4  3  2  0  0  0
 15 18  1  0  0  0
 15 19  1  0  0  0
 17 14  1  0  0  0
 17 19  1  0  0  0
 14 12  1  0  0  0
  1 12  1  0  0  0
  1  7  2  0  0  0
  3  7  1  0  0  0
  3  8  1  0  0  0
  7  2  1  0  0  0
 12 13  1  0  0  0
M  END
> <minimizedAffinity>
-7.10790

$$$$
5C2A_4Y2_A_803


 21 23  0  0  0  0  0  0  0  0999 V2000
    8.6105    8.2363   42.9336 C   0  0  0  0  0  0  0  0  0  0  0  0
    7.9741    5.7738   43.0924 C   0  0  0  0  0  0  0  0  0  0  0  0
   10.1115    6.6365   42.1607 C   0  0  0  0  0  0  0  0  0  0  0  0
   10.9867    7.5646   41.8066 N   0  0  0  0  0  0  0  0  0  0  0  0
   10.6510    8.8390   42.0303 C   0  0  0  0  0  0  0  0  0  0  0  0
    9.4878    9.1965   42.5911 N   0  0  0  0  0  0  0  0  0  0  0  0
    8.8902    6.8997   42.7263 C   0  0  0  0  0  0  0  0  0  0  0  0
   10.6494    5.0339   41.8305 Cl  0  0  0  0  0  0  0  0  0  0  0  0
   11.8567   11.0663   42.5309 C   0  0  0  0  0  0  0  0  0  0  0  0
   11.6168    9.8817   41.6395 C   0  0  0  0  0  0  0  0  0  0  0  0
   12.9265   10.0375   42.3644 C   0  0  0  0  0  0  0  0  0  0  0  0
    7.3612    8.5545   43.5106 N   0  0  0  0  0  0  0  0  0  0  0  0
    6.4971    8.3144   43.1046 H   0  0  0  0  0  0  0  0  0  0  0  0
    7.4860    9.2706   44.7616 C   0  0  0  0  0  0  0  0  0  0  0  0
    5.2086   12.3950   45.0031 C   0  0  0  0  0  0  0  0  0  0  0  0
    7.3527   11.8347   44.7972 C   0  0  0  0  0  0  0  0  0  0  0  0
    6.7988   10.5768   44.8322 C   0  0  0  0  0  0  0  0  0  0  0  0
    4.0188   13.2631   45.1144 C   0  0  0  0  0  0  0  0  0  0  0  0
    5.0861   10.6862   44.9900 S   0  0  0  0  0  0  0  0  0  0  0  0
    6.4332   12.8421   44.8963 N   0  0  0  0  0  0  0  0  0  0  0  0
    8.7829   12.2056   44.6704 C   0  0  0  0  0  0  0  0  0  0  0  0
  9 11  1  0  0  0
  9 10  1  0  0  0
 11 10  1  0  0  0
 10  5  1  0  0  0
 21 16  1  0  0  0
  5  6  2  0  0  0
  5  4  1  0  0  0
 20 16  1  0  0  0
 20 15  2  0  0  0
 16 17  2  0  0  0
  6  1  1  0  0  0
  4  3  2  0  0  0
 15 18  1  0  0  0
 15 19  1  0  0  0
 17 14  1  0  0  0
 17 19  1  0  0  0
 14 12  1  0  0  0
  1 12  1  0  0  0
  1  7  2  0  0  0
  3  7  1  0  0  0
  3  8  1  0  0  0
  7  2  1  0  0  0
 12 13  1  0  0  0
M  END
> <minimizedAffinity>
-6.92133

$$$$
5C2A_4Y2_A_803


 21 23  0  0  0  0  0  0  0  0999 V2000
    7.2429   10.0447   44.5806 C   0  0  0  0  0  0  0  0  0  0  0  0
    6.2296    8.6798   46.4792 C   0  0  0  0  0  0  0  0  0  0  0  0
    7.9761    7.8621   44.9100 C   0  0  0  0  0  0  0  0  0  0  0  0
    8.8184    7.9444   43.8920 N   0  0  0  0  0  0  0  0  0  0  0  0
    8.8600    9.1019   43.2246 C   0  0  0  0  0  0  0  0  0  0  0  0
    8.0981   10.1553   43.5485 N   0  0  0  0  0  0  0  0  0  0  0  0
    7.1444    8.8763   45.3107 C   0  0  0  0  0  0  0  0  0  0  0  0
    8.0094    6.3306   45.6975 Cl  0  0  0  0  0  0  0  0  0  0  0  0
   10.3714    7.9673   41.4656 C   0  0  0  0  0  0  0  0  0  0  0  0
    9.7933    9.2056   42.0885 C   0  0  0  0  0  0  0  0  0  0  0  0
    9.3804    8.7848   40.7038 C   0  0  0  0  0  0  0  0  0  0  0  0
    6.4016   11.1153   44.9557 N   0  0  0  0  0  0  0  0  0  0  0  0
    6.5360   11.6545   45.7684 H   0  0  0  0  0  0  0  0  0  0  0  0
    5.3211   11.3358   44.0189 C   0  0  0  0  0  0  0  0  0  0  0  0
    3.2296   14.3888   45.1639 C   0  0  0  0  0  0  0  0  0  0  0  0
    4.0042   13.4243   43.3138 C   0  0  0  0  0  0  0  0  0  0  0  0
    4.5031   12.5453   44.2458 C   0  0  0  0  0  0  0  0  0  0  0  0
    2.5137   15.3663   46.0087 C   0  0  0  0  0  0  0  0  0  0  0  0
    4.0511   13.0424   45.8328 S   0  0  0  0  0  0  0  0  0  0  0  0
    3.2902   14.4555   43.8590 N   0  0  0  0  0  0  0  0  0  0  0  0
    4.1505   13.3805   41.8386 C   0  0  0  0  0  0  0  0  0  0  0  0
  9 11  1  0  0  0
  9 10  1  0  0  0
 11 10  1  0  0  0
 10  5  1  0  0  0
 21 16  1  0  0  0
  5  6  2  0  0  0
  5  4  1  0  0  0
 20 16  1  0  0  0
 20 15  2  0  0  0
 16 17  2  0  0  0
  6  1  1  0  0  0
  4  3  2  0  0  0
 15 18  1  0  0  0
 15 19  1  0  0  0
 17 14  1  0  0  0
 17 19  1  0  0  0
 14 12  1  0  0  0
  1 12  1  0  0  0
  1  7  2  0  0  0
  3  7  1  0  0  0
  3  8  1  0  0  0
  7  2  1  0  0  0
 12 13  1  0  0  0
M  END
> <minimizedAffinity>
-6.90479

$$$$
5C2A_4Y2_A_803


 21 23  0  0  0  0  0  0  0  0999 V2000
    6.9859    9.4866   43.7632 C   0  0  0  0  0  0  0  0  0  0  0  0
    7.7779    7.6017   45.2845 C   0  0  0  0  0  0  0  0  0  0  0  0
    6.8885    9.7874   46.0675 C   0  0  0  0  0  0  0  0  0  0  0  0
    6.3895   11.0061   45.9319 N   0  0  0  0  0  0  0  0  0  0  0  0
    6.1911   11.4507   44.6870 C   0  0  0  0  0  0  0  0  0  0  0  0
    6.4707   10.7183   43.6004 N   0  0  0  0  0  0  0  0  0  0  0  0
    7.2214    8.9662   45.0207 C   0  0  0  0  0  0  0  0  0  0  0  0
    7.0981    9.3178   47.7114 Cl  0  0  0  0  0  0  0  0  0  0  0  0
    4.7404   13.1245   43.3606 C   0  0  0  0  0  0  0  0  0  0  0  0
    5.6368   12.8066   44.5229 C   0  0  0  0  0  0  0  0  0  0  0  0
    4.1727   13.0782   44.7413 C   0  0  0  0  0  0  0  0  0  0  0  0
    7.3179    8.6767   42.6548 N   0  0  0  0  0  0  0  0  0  0  0  0
    6.8031    7.8808   42.3885 H   0  0  0  0  0  0  0  0  0  0  0  0
    8.4946    9.1405   41.9521 C   0  0  0  0  0  0  0  0  0  0  0  0
   11.3217    6.5106   42.2644 C   0  0  0  0  0  0  0  0  0  0  0  0
   11.0094    8.7141   42.2474 C   0  0  0  0  0  0  0  0  0  0  0  0
    9.7055    8.3058   42.0942 C   0  0  0  0  0  0  0  0  0  0  0  0
   12.0438    5.2248   42.3465 C   0  0  0  0  0  0  0  0  0  0  0  0
    9.6209    6.5846   42.0720 S   0  0  0  0  0  0  0  0  0  0  0  0
   11.9007    7.6811   42.3402 N   0  0  0  0  0  0  0  0  0  0  0  0
   11.5363   10.0985   42.3189 C   0  0  0  0  0  0  0  0  0  0  0  0
  9 11  1  0  0  0
  9 10  1  0  0  0
 11 10  1  0  0  0
 10  5  1  0  0  0
 21 16  1  0  0  0
  5  6  2  0  0  0
  5  4  1  0  0  0
 20 16  1  0  0  0
 20 15  2  0  0  0
 16 17  2  0  0  0
  6  1  1  0  0  0
  4  3  2  0  0  0
 15 18  1  0  0  0
 15 19  1  0  0  0
 17 14  1  0  0  0
 17 19  1  0  0  0
 14 12  1  0  0  0
  1 12  1  0  0  0
  1  7  2  0  0  0
  3  7  1  0  0  0
  3  8  1  0  0  0
  7  2  1  0  0  0
 12 13  1  0  0  0
M  END
> <minimizedAffinity>
-6.90321

$$$$
5C2A_4Y2_A_803


 21 23  0  0  0  0  0  0  0  0999 V2000
    6.7504   10.7485   45.2417 C   0  0  0  0  0  0  0  0  0  0  0  0
    6.4495    9.7066   47.5478 C   0  0  0  0  0  0  0  0  0  0  0  0
    5.1159   11.6062   46.6568 C   0  0  0  0  0  0  0  0  0  0  0  0
    4.7529   12.5112   45.7613 N   0  0  0  0  0  0  0  0  0  0  0  0
    5.4080   12.5160   44.5962 C   0  0  0  0  0  0  0  0  0  0  0  0
    6.3926   11.6526   44.3125 N   0  0  0  0  0  0  0  0  0  0  0  0
    6.1195   10.6905   46.4690 C   0  0  0  0  0  0  0  0  0  0  0  0
    4.2038   11.6894   48.1155 Cl  0  0  0  0  0  0  0  0  0  0  0  0
    4.3045   13.0986   42.3361 C   0  0  0  0  0  0  0  0  0  0  0  0
    5.0136   13.5195   43.5913 C   0  0  0  0  0  0  0  0  0  0  0  0
    3.5673   13.8761   43.3766 C   0  0  0  0  0  0  0  0  0  0  0  0
    7.7938    9.8262   45.0059 N   0  0  0  0  0  0  0  0  0  0  0  0
    8.6833    9.8921   45.4227 H   0  0  0  0  0  0  0  0  0  0  0  0
    7.4169    8.7741   44.0869 C   0  0  0  0  0  0  0  0  0  0  0  0
   10.3731    6.5216   42.9944 C   0  0  0  0  0  0  0  0  0  0  0  0
    9.0126    8.0909   42.1947 C   0  0  0  0  0  0  0  0  0  0  0  0
    8.5294    8.0145   43.4796 C   0  0  0  0  0  0  0  0  0  0  0  0
   11.4657    5.5279   43.0123 C   0  0  0  0  0  0  0  0  0  0  0  0
    9.4163    6.8421   44.3790 S   0  0  0  0  0  0  0  0  0  0  0  0
   10.0521    7.2373   41.9477 N   0  0  0  0  0  0  0  0  0  0  0  0
    8.5476    8.9623   41.0884 C   0  0  0  0  0  0  0  0  0  0  0  0
  9 11  1  0  0  0
  9 10  1  0  0  0
 11 10  1  0  0  0
 10  5  1  0  0  0
 21 16  1  0  0  0
  5  6  2  0  0  0
  5  4  1  0  0  0
 20 16  1  0  0  0
 20 15  2  0  0  0
 16 17  2  0  0  0
  6  1  1  0  0  0
  4  3  2  0  0  0
 15 18  1  0  0  0
 15 19  1  0  0  0
 17 14  1  0  0  0
 17 19  1  0  0  0
 14 12  1  0  0  0
  1 12  1  0  0  0
  1  7  2  0  0  0
  3  7  1  0  0  0
  3  8  1  0  0  0
  7  2  1  0  0  0
 12 13  1  0  0  0
M  END
> <minimizedAffinity>
-6.81003

$$$$
5C2A_4Y2_A_803


 21 23  0  0  0  0  0  0  0  0999 V2000
    8.6773    5.8015   42.5604 C   0  0  0  0  0  0  0  0  0  0  0  0
   10.4024    6.2256   44.3875 C   0  0  0  0  0  0  0  0  0  0  0  0
   10.9231    5.4136   42.0961 C   0  0  0  0  0  0  0  0  0  0  0  0
   10.6469    5.0302   40.8595 N   0  0  0  0  0  0  0  0  0  0  0  0
    9.3630    5.0426   40.4875 C   0  0  0  0  0  0  0  0  0  0  0  0
    8.3731    5.4253   41.3055 N   0  0  0  0  0  0  0  0  0  0  0  0
    9.9822    5.8078   43.0128 C   0  0  0  0  0  0  0  0  0  0  0  0
   12.6050    5.3618   42.4641 Cl  0  0  0  0  0  0  0  0  0  0  0  0
    7.9349    5.2854   38.3505 C   0  0  0  0  0  0  0  0  0  0  0  0
    9.0426    4.6170   39.1132 C   0  0  0  0  0  0  0  0  0  0  0  0
    9.3532    5.5001   37.9348 C   0  0  0  0  0  0  0  0  0  0  0  0
    7.6739    6.1964   43.4726 N   0  0  0  0  0  0  0  0  0  0  0  0
    7.4791    5.7157   44.3094 H   0  0  0  0  0  0  0  0  0  0  0  0
    6.9626    7.3823   43.0470 C   0  0  0  0  0  0  0  0  0  0  0  0
    8.0426   10.7787   44.5650 C   0  0  0  0  0  0  0  0  0  0  0  0
    6.7997    8.9943   45.0390 C   0  0  0  0  0  0  0  0  0  0  0  0
    7.2581    8.6200   43.7980 C   0  0  0  0  0  0  0  0  0  0  0  0
    8.6852   12.0955   44.7510 C   0  0  0  0  0  0  0  0  0  0  0  0
    8.2857    9.8428   43.1507 S   0  0  0  0  0  0  0  0  0  0  0  0
    7.2571   10.2168   45.4472 N   0  0  0  0  0  0  0  0  0  0  0  0
    5.8971    8.2479   45.9487 C   0  0  0  0  0  0  0  0  0  0  0  0
  9 11  1  0  0  0
  9 10  1  0  0  0
 11 10  1  0  0  0
 10  5  1  0  0  0
 21 16  1  0  0  0
  5  6  2  0  0  0
  5  4  1  0  0  0
 20 16  1  0  0  0
 20 15  2  0  0  0
 16 17  2  0  0  0
  6  1  1  0  0  0
  4  3  2  0  0  0
 15 18  1  0  0  0
 15 19  1  0  0  0
 17 14  1  0  0  0
 17 19  1  0  0  0
 14 12  1  0  0  0
  1 12  1  0  0  0
  1  7  2  0  0  0
  3  7  1  0  0  0
  3  8  1  0  0  0
  7  2  1  0  0  0
 12 13  1  0  0  0
M  END
> <minimizedAffinity>
-6.79892

$$$$
5C2A_4Y2_A_803


 21 23  0  0  0  0  0  0  0  0999 V2000
    4.1880   12.7250   44.9309 C   0  0  0  0  0  0  0  0  0  0  0  0
    4.7947   11.9340   42.5856 C   0  0  0  0  0  0  0  0  0  0  0  0
    3.5897   14.0442   43.1111 C   0  0  0  0  0  0  0  0  0  0  0  0
    3.0284   14.9504   43.8962 N   0  0  0  0  0  0  0  0  0  0  0  0
    3.0606   14.7231   45.2131 C   0  0  0  0  0  0  0  0  0  0  0  0
    3.6326   13.6365   45.7492 N   0  0  0  0  0  0  0  0  0  0  0  0
    4.1860   12.8936   43.5601 C   0  0  0  0  0  0  0  0  0  0  0  0
    3.4932   14.4412   41.4379 Cl  0  0  0  0  0  0  0  0  0  0  0  0
    2.8691   15.8430   47.5314 C   0  0  0  0  0  0  0  0  0  0  0  0
    2.4381   15.7243   46.0977 C   0  0  0  0  0  0  0  0  0  0  0  0
    3.2060   16.9311   46.5655 C   0  0  0  0  0  0  0  0  0  0  0  0
    4.7882   11.5514   45.4380 N   0  0  0  0  0  0  0  0  0  0  0  0
    4.2772   10.7723   45.7560 H   0  0  0  0  0  0  0  0  0  0  0  0
    6.2337   11.6153   45.4405 C   0  0  0  0  0  0  0  0  0  0  0  0
    8.1889    8.4383   44.3966 C   0  0  0  0  0  0  0  0  0  0  0  0
    7.1405    9.3203   46.1504 C   0  0  0  0  0  0  0  0  0  0  0  0
    6.9396   10.3325   45.2419 C   0  0  0  0  0  0  0  0  0  0  0  0
    8.9490    7.4521   43.6020 C   0  0  0  0  0  0  0  0  0  0  0  0
    7.6613    9.9260   43.7306 S   0  0  0  0  0  0  0  0  0  0  0  0
    7.8488    8.2641   45.6475 N   0  0  0  0  0  0  0  0  0  0  0  0
    6.6925    9.2506   47.5624 C   0  0  0  0  0  0  0  0  0  0  0  0
  9 11  1  0  0  0
  9 10  1  0  0  0
 11 10  1  0  0  0
 10  5  1  0  0  0
 21 16  1  0  0  0
  5  6  2  0  0  0
  5  4  1  0  0  0
 20 16  1  0  0  0
 20 15  2  0  0  0
 16 17  2  0  0  0
  6  1  1  0  0  0
  4  3  2  0  0  0
 15 18  1  0  0  0
 15 19  1  0  0  0
 17 14  1  0  0  0
 17 19  1  0  0  0
 14 12  1  0  0  0
  1 12  1  0  0  0
  1  7  2  0  0  0
  3  7  1  0  0  0
  3  8  1  0  0  0
  7  2  1  0  0  0
 12 13  1  0  0  0
M  END
> <minimizedAffinity>
-6.79422

$$$$
5C2A_4Y2_A_803


 21 23  0  0  0  0  0  0  0  0999 V2000
    6.8023   10.6085   43.6315 C   0  0  0  0  0  0  0  0  0  0  0  0
    6.3055    8.5990   42.1453 C   0  0  0  0  0  0  0  0  0  0  0  0
    8.5807    9.4315   42.7032 C   0  0  0  0  0  0  0  0  0  0  0  0
    9.4666   10.2334   43.2732 N   0  0  0  0  0  0  0  0  0  0  0  0
    8.9932   11.2280   44.0306 C   0  0  0  0  0  0  0  0  0  0  0  0
    7.6836   11.4304   44.2288 N   0  0  0  0  0  0  0  0  0  0  0  0
    7.2216    9.5637   42.8314 C   0  0  0  0  0  0  0  0  0  0  0  0
    9.3014    8.1865   41.7561 Cl  0  0  0  0  0  0  0  0  0  0  0  0
   11.0426   12.7878   43.8519 C   0  0  0  0  0  0  0  0  0  0  0  0
    9.9696   12.1282   44.6698 C   0  0  0  0  0  0  0  0  0  0  0  0
    9.9354   13.6122   44.4220 C   0  0  0  0  0  0  0  0  0  0  0  0
    5.4098   10.7851   43.7887 N   0  0  0  0  0  0  0  0  0  0  0  0
    4.8664   10.2787   44.4348 H   0  0  0  0  0  0  0  0  0  0  0  0
    4.8667   11.7891   42.8996 C   0  0  0  0  0  0  0  0  0  0  0  0
    3.2323   14.5364   45.0877 C   0  0  0  0  0  0  0  0  0  0  0  0
    3.5757   14.0082   42.9532 C   0  0  0  0  0  0  0  0  0  0  0  0
    4.1863   12.9293   43.5480 C   0  0  0  0  0  0  0  0  0  0  0  0
    2.7551   15.3070   46.2539 C   0  0  0  0  0  0  0  0  0  0  0  0
    4.0785   13.0571   45.2632 S   0  0  0  0  0  0  0  0  0  0  0  0
    3.0466   14.8998   43.8450 N   0  0  0  0  0  0  0  0  0  0  0  0
    3.4344   14.3015   41.5064 C   0  0  0  0  0  0  0  0  0  0  0  0
  9 11  1  0  0  0
  9 10  1  0  0  0
 11 10  1  0  0  0
 10  5  1  0  0  0
 21 16  1  0  0  0
  5  6  2  0  0  0
  5  4  1  0  0  0
 20 16  1  0  0  0
 20 15  2  0  0  0
 16 17  2  0  0  0
  6  1  1  0  0  0
  4  3  2  0  0  0
 15 18  1  0  0  0
 15 19  1  0  0  0
 17 14  1  0  0  0
 17 19  1  0  0  0
 14 12  1  0  0  0
  1 12  1  0  0  0
  1  7  2  0  0  0
  3  7  1  0  0  0
  3  8  1  0  0  0
  7  2  1  0  0  0
 12 13  1  0  0  0
M  END
> <minimizedAffinity>
-6.76950

$$$$
