3B2Q_ATP_A_461


 39 41  0  0  0  0  0  0  0  0999 V2000
  -24.9749  -10.1189   23.7946 C   0  0  0  0  0  0  0  0  0  0  0  0
  -24.4731  -11.2628   23.0960 O   0  0  0  0  0  0  0  0  0  0  0  0
  -24.6481   -8.8858   22.9637 C   0  0  0  0  0  0  0  0  0  0  0  0
  -23.7899   -8.0192   23.7143 O   0  0  0  0  0  0  0  0  0  0  0  0
  -23.9138   -9.3849   21.7328 C   0  0  0  0  0  0  0  0  0  0  0  0
  -22.5926   -8.8312   21.7080 O   0  0  0  0  0  0  0  0  0  0  0  0
  -23.8267  -10.8984   21.8732 C   0  0  0  0  0  0  0  0  0  0  0  0
  -22.9830   -8.4977   23.9610 H   0  0  0  0  0  0  0  0  0  0  0  0
  -22.1226   -9.0798   22.5193 H   0  0  0  0  0  0  0  0  0  0  0  0
  -24.5256  -11.5429   20.7321 N   0  0  0  0  0  0  0  0  0  0  0  0
  -25.3842  -10.9354   19.8914 C   0  0  0  0  0  0  0  0  0  0  0  0
  -25.8500  -11.8022   18.9564 N   0  0  0  0  0  0  0  0  0  0  0  0
  -25.2813  -12.9979   19.1947 C   0  0  0  0  0  0  0  0  0  0  0  0
  -25.3353  -14.3483   18.5852 C   0  0  0  0  0  0  0  0  0  0  0  0
  -26.1124  -14.5977   17.5034 N   0  0  0  0  0  0  0  0  0  0  0  0
  -24.5830  -15.3216   19.1453 N   0  0  0  0  0  0  0  0  0  0  0  0
  -23.8074  -15.0863   20.2192 C   0  0  0  0  0  0  0  0  0  0  0  0
  -23.7099  -13.8882   20.8231 N   0  0  0  0  0  0  0  0  0  0  0  0
  -24.4098  -12.8219   20.3667 C   0  0  0  0  0  0  0  0  0  0  0  0
  -26.6536  -13.8759   17.1092 H   0  0  0  0  0  0  0  0  0  0  0  0
  -26.1357  -15.5006   17.1117 H   0  0  0  0  0  0  0  0  0  0  0  0
  -26.4795  -10.2631   23.9905 C   0  0  0  0  0  0  0  0  0  0  0  0
  -26.7495  -10.6266   25.3437 O   0  0  0  0  0  0  0  0  0  0  0  0
  -27.6105   -9.6539   26.2948 P   0  0  0  0  0  0  0  0  0  0  0  0
  -26.8358   -8.3719   26.4845 O   0  0  0  0  0  0  0  0  0  0  0  0
  -29.0252   -9.6083   25.7680 O   0  0  0  0  0  0  0  0  0  0  0  0
  -29.5606   -9.0259   26.3292 H   0  0  0  0  0  0  0  0  0  0  0  0
  -27.6194  -10.4484   27.6950 O   0  0  0  0  0  0  0  0  0  0  0  0
  -28.7844  -11.5091   28.0251 P   0  0  0  0  0  0  0  0  0  0  0  0
  -28.3878  -12.2766   29.2638 O   0  0  0  0  0  0  0  0  0  0  0  0
  -29.1210  -12.2518   26.7550 O   0  0  0  0  0  0  0  0  0  0  0  0
  -29.8228  -12.8971   26.9341 H   0  0  0  0  0  0  0  0  0  0  0  0
  -30.0293  -10.5599   28.3988 O   0  0  0  0  0  0  0  0  0  0  0  0
  -31.5406  -11.0710   28.1825 P   0  0  0  0  0  0  0  0  0  0  0  0
  -31.8262  -10.7583   26.7336 O   0  0  0  0  0  0  0  0  0  0  0  0
  -32.3457  -10.2569   29.1670 O   0  0  0  0  0  0  0  0  0  0  0  0
  -31.4742  -12.5461   28.5010 O   0  0  0  0  0  0  0  0  0  0  0  0
  -33.2813  -10.5045   29.1027 H   0  0  0  0  0  0  0  0  0  0  0  0
  -32.3543  -12.9397   28.3949 H   0  0  0  0  0  0  0  0  0  0  0  0
 34 35  2  0  0  0
 34 36  1  0  0  0
 34 37  1  0  0  0
 34 33  1  0  0  0
 29 30  2  0  0  0
 29 31  1  0  0  0
 29 33  1  0  0  0
 29 28  1  0  0  0
 24 25  2  0  0  0
 24 26  1  0  0  0
 24 28  1  0  0  0
 24 23  1  0  0  0
 23 22  1  0  0  0
 22  1  1  0  0  0
  1  2  1  0  0  0
  1  3  1  0  0  0
  2  7  1  0  0  0
  3  4  1  0  0  0
  3  5  1  0  0  0
  5  6  1  0  0  0
  5  7  1  0  0  0
  7 10  1  0  0  0
 10 11  1  0  0  0
 10 19  1  0  0  0
 11 12  2  0  0  0
 12 13  1  0  0  0
 13 14  1  0  0  0
 13 19  2  0  0  0
 14 15  1  0  0  0
 14 16  2  0  0  0
 16 17  1  0  0  0
 17 18  2  0  0  0
 18 19  1  0  0  0
 36 38  1  0  0  0
 37 39  1  0  0  0
 31 32  1  0  0  0
 26 27  1  0  0  0
  4  8  1  0  0  0
  6  9  1  0  0  0
 15 20  1  0  0  0
 15 21  1  0  0  0
M  END
> <minimizedAffinity>
-8.62343

$$$$
3B2Q_ATP_A_461


 39 41  0  0  0  0  0  0  0  0999 V2000
  -25.7532   -9.5951   23.1307 C   0  0  0  0  0  0  0  0  0  0  0  0
  -27.0207   -9.4152   23.7706 O   0  0  0  0  0  0  0  0  0  0  0  0
  -24.6833   -9.0167   24.0464 C   0  0  0  0  0  0  0  0  0  0  0  0
  -24.0128   -7.9430   23.3769 O   0  0  0  0  0  0  0  0  0  0  0  0
  -25.4116   -8.4788   25.2645 C   0  0  0  0  0  0  0  0  0  0  0  0
  -25.1985   -7.0654   25.3623 O   0  0  0  0  0  0  0  0  0  0  0  0
  -26.8909   -8.7537   25.0321 C   0  0  0  0  0  0  0  0  0  0  0  0
  -24.6595   -7.2655   23.1243 H   0  0  0  0  0  0  0  0  0  0  0  0
  -25.5101   -6.6345   24.5511 H   0  0  0  0  0  0  0  0  0  0  0  0
  -27.4061   -9.6364   26.1098 N   0  0  0  0  0  0  0  0  0  0  0  0
  -26.6628  -10.2291   27.0634 C   0  0  0  0  0  0  0  0  0  0  0  0
  -27.4360  -10.9710   27.8965 N   0  0  0  0  0  0  0  0  0  0  0  0
  -28.7087  -10.8573   27.4752 C   0  0  0  0  0  0  0  0  0  0  0  0
  -30.0275  -11.3826   27.9024 C   0  0  0  0  0  0  0  0  0  0  0  0
  -30.1409  -12.1999   28.9774 N   0  0  0  0  0  0  0  0  0  0  0  0
  -31.1125  -11.0183   27.1834 N   0  0  0  0  0  0  0  0  0  0  0  0
  -31.0128  -10.2074   26.1144 C   0  0  0  0  0  0  0  0  0  0  0  0
  -29.8509   -9.6948   25.6704 N   0  0  0  0  0  0  0  0  0  0  0  0
  -28.6834   -9.9772   26.2967 C   0  0  0  0  0  0  0  0  0  0  0  0
  -29.3392  -12.4544   29.4890 H   0  0  0  0  0  0  0  0  0  0  0  0
  -31.0250  -12.5391   29.2468 H   0  0  0  0  0  0  0  0  0  0  0  0
  -25.5159  -11.0800   22.8824 C   0  0  0  0  0  0  0  0  0  0  0  0
  -25.8135  -11.3875   21.5211 O   0  0  0  0  0  0  0  0  0  0  0  0
  -24.6273  -11.6405   20.4624 P   0  0  0  0  0  0  0  0  0  0  0  0
  -23.8224  -10.3689   20.3421 O   0  0  0  0  0  0  0  0  0  0  0  0
  -23.9399  -12.9360   20.8233 O   0  0  0  0  0  0  0  0  0  0  0  0
  -23.2204  -13.1061   20.1953 H   0  0  0  0  0  0  0  0  0  0  0  0
  -25.4279  -11.8620   19.0833 O   0  0  0  0  0  0  0  0  0  0  0  0
  -25.9751  -13.3215   18.6815 P   0  0  0  0  0  0  0  0  0  0  0  0
  -26.7563  -13.1959   17.3951 O   0  0  0  0  0  0  0  0  0  0  0  0
  -26.6230  -13.9350   19.8988 O   0  0  0  0  0  0  0  0  0  0  0  0
  -26.9597  -14.8170   19.6760 H   0  0  0  0  0  0  0  0  0  0  0  0
  -24.6200  -14.1320   18.3696 O   0  0  0  0  0  0  0  0  0  0  0  0
  -24.5612  -15.7298   18.5588 P   0  0  0  0  0  0  0  0  0  0  0  0
  -24.3668  -15.9129   20.0445 O   0  0  0  0  0  0  0  0  0  0  0  0
  -23.3808  -16.1538   17.7180 O   0  0  0  0  0  0  0  0  0  0  0  0
  -25.8980  -16.2061   18.0412 O   0  0  0  0  0  0  0  0  0  0  0  0
  -23.2717  -17.1159   17.7756 H   0  0  0  0  0  0  0  0  0  0  0  0
  -25.9493  -17.1716   18.1188 H   0  0  0  0  0  0  0  0  0  0  0  0
 34 35  2  0  0  0
 34 36  1  0  0  0
 34 37  1  0  0  0
 34 33  1  0  0  0
 29 30  2  0  0  0
 29 31  1  0  0  0
 29 33  1  0  0  0
 29 28  1  0  0  0
 24 25  2  0  0  0
 24 26  1  0  0  0
 24 28  1  0  0  0
 24 23  1  0  0  0
 23 22  1  0  0  0
 22  1  1  0  0  0
  1  2  1  0  0  0
  1  3  1  0  0  0
  2  7  1  0  0  0
  3  4  1  0  0  0
  3  5  1  0  0  0
  5  6  1  0  0  0
  5  7  1  0  0  0
  7 10  1  0  0  0
 10 11  1  0  0  0
 10 19  1  0  0  0
 11 12  2  0  0  0
 12 13  1  0  0  0
 13 14  1  0  0  0
 13 19  2  0  0  0
 14 15  1  0  0  0
 14 16  2  0  0  0
 16 17  1  0  0  0
 17 18  2  0  0  0
 18 19  1  0  0  0
 36 38  1  0  0  0
 37 39  1  0  0  0
 31 32  1  0  0  0
 26 27  1  0  0  0
  4  8  1  0  0  0
  6  9  1  0  0  0
 15 20  1  0  0  0
 15 21  1  0  0  0
M  END
> <minimizedAffinity>
-8.51002

$$$$
3B2Q_ATP_A_461


 39 41  0  0  0  0  0  0  0  0999 V2000
  -24.5184  -10.9804   22.0506 C   0  0  0  0  0  0  0  0  0  0  0  0
  -24.0946  -12.2997   21.6926 O   0  0  0  0  0  0  0  0  0  0  0  0
  -24.9232  -10.2588   20.7726 C   0  0  0  0  0  0  0  0  0  0  0  0
  -24.0822   -9.1152   20.5842 O   0  0  0  0  0  0  0  0  0  0  0  0
  -24.7010  -11.2439   19.6395 C   0  0  0  0  0  0  0  0  0  0  0  0
  -23.7199  -10.7193   18.7367 O   0  0  0  0  0  0  0  0  0  0  0  0
  -24.1697  -12.5182   20.2811 C   0  0  0  0  0  0  0  0  0  0  0  0
  -23.1552   -9.3982   20.5465 H   0  0  0  0  0  0  0  0  0  0  0  0
  -22.8952  -10.5497   19.2183 H   0  0  0  0  0  0  0  0  0  0  0  0
  -25.1028  -13.6396   20.0023 N   0  0  0  0  0  0  0  0  0  0  0  0
  -26.3556  -13.7578   20.4817 C   0  0  0  0  0  0  0  0  0  0  0  0
  -26.9436  -14.8985   20.0395 N   0  0  0  0  0  0  0  0  0  0  0  0
  -26.0539  -15.5343   19.2558 C   0  0  0  0  0  0  0  0  0  0  0  0
  -26.0270  -16.7914   18.4705 C   0  0  0  0  0  0  0  0  0  0  0  0
  -27.1004  -17.6178   18.4347 N   0  0  0  0  0  0  0  0  0  0  0  0
  -24.8957  -17.0847   17.7915 N   0  0  0  0  0  0  0  0  0  0  0  0
  -23.8236  -16.2722   17.8191 C   0  0  0  0  0  0  0  0  0  0  0  0
  -23.7773  -15.1183   18.5091 N   0  0  0  0  0  0  0  0  0  0  0  0
  -24.8420  -14.7007   19.2352 C   0  0  0  0  0  0  0  0  0  0  0  0
  -27.9159  -17.3874   18.9358 H   0  0  0  0  0  0  0  0  0  0  0  0
  -27.0648  -18.4485   17.9076 H   0  0  0  0  0  0  0  0  0  0  0  0
  -25.6890  -11.0691   23.0226 C   0  0  0  0  0  0  0  0  0  0  0  0
  -26.0164   -9.7620   23.4924 O   0  0  0  0  0  0  0  0  0  0  0  0
  -25.4863   -9.2520   24.9244 P   0  0  0  0  0  0  0  0  0  0  0  0
  -24.0025   -9.5201   25.0017 O   0  0  0  0  0  0  0  0  0  0  0  0
  -26.0123   -7.8548   25.1530 O   0  0  0  0  0  0  0  0  0  0  0  0
  -25.7029   -7.5294   26.0128 H   0  0  0  0  0  0  0  0  0  0  0  0
  -26.2314  -10.2450   25.9495 O   0  0  0  0  0  0  0  0  0  0  0  0
  -27.6185   -9.8132   26.6427 P   0  0  0  0  0  0  0  0  0  0  0  0
  -28.6619   -9.6658   25.5607 O   0  0  0  0  0  0  0  0  0  0  0  0
  -27.3403   -8.6647   27.5815 O   0  0  0  0  0  0  0  0  0  0  0  0
  -28.1662   -8.3898   28.0098 H   0  0  0  0  0  0  0  0  0  0  0  0
  -27.9889  -11.1072   27.5252 O   0  0  0  0  0  0  0  0  0  0  0  0
  -29.4904  -11.3272   28.0631 P   0  0  0  0  0  0  0  0  0  0  0  0
  -30.0647  -12.3611   27.1250 O   0  0  0  0  0  0  0  0  0  0  0  0
  -30.1230   -9.9609   27.9489 O   0  0  0  0  0  0  0  0  0  0  0  0
  -29.3007  -11.8094   29.4820 O   0  0  0  0  0  0  0  0  0  0  0  0
  -31.0419  -10.0033   28.2565 H   0  0  0  0  0  0  0  0  0  0  0  0
  -30.1672  -11.9691   29.8878 H   0  0  0  0  0  0  0  0  0  0  0  0
 34 35  2  0  0  0
 34 36  1  0  0  0
 34 37  1  0  0  0
 34 33  1  0  0  0
 29 30  2  0  0  0
 29 31  1  0  0  0
 29 33  1  0  0  0
 29 28  1  0  0  0
 24 25  2  0  0  0
 24 26  1  0  0  0
 24 28  1  0  0  0
 24 23  1  0  0  0
 23 22  1  0  0  0
 22  1  1  0  0  0
  1  2  1  0  0  0
  1  3  1  0  0  0
  2  7  1  0  0  0
  3  4  1  0  0  0
  3  5  1  0  0  0
  5  6  1  0  0  0
  5  7  1  0  0  0
  7 10  1  0  0  0
 10 11  1  0  0  0
 10 19  1  0  0  0
 11 12  2  0  0  0
 12 13  1  0  0  0
 13 14  1  0  0  0
 13 19  2  0  0  0
 14 15  1  0  0  0
 14 16  2  0  0  0
 16 17  1  0  0  0
 17 18  2  0  0  0
 18 19  1  0  0  0
 36 38  1  0  0  0
 37 39  1  0  0  0
 31 32  1  0  0  0
 26 27  1  0  0  0
  4  8  1  0  0  0
  6  9  1  0  0  0
 15 20  1  0  0  0
 15 21  1  0  0  0
M  END
> <minimizedAffinity>
-8.28906

$$$$
3B2Q_ATP_A_461


 39 41  0  0  0  0  0  0  0  0999 V2000
  -26.0149   -9.8422   25.4648 C   0  0  0  0  0  0  0  0  0  0  0  0
  -24.8025  -10.1832   24.7849 O   0  0  0  0  0  0  0  0  0  0  0  0
  -26.1801   -8.3306   25.3919 C   0  0  0  0  0  0  0  0  0  0  0  0
  -26.1791   -7.7868   26.7167 O   0  0  0  0  0  0  0  0  0  0  0  0
  -24.9772   -7.8077   24.6283 C   0  0  0  0  0  0  0  0  0  0  0  0
  -24.2190   -6.9332   25.4728 O   0  0  0  0  0  0  0  0  0  0  0  0
  -24.1355   -9.0258   24.2736 C   0  0  0  0  0  0  0  0  0  0  0  0
  -25.3524   -8.0263   27.1640 H   0  0  0  0  0  0  0  0  0  0  0  0
  -23.9446   -7.4119   26.2706 H   0  0  0  0  0  0  0  0  0  0  0  0
  -24.0175   -9.1337   22.7970 N   0  0  0  0  0  0  0  0  0  0  0  0
  -23.6557   -8.1409   21.9624 C   0  0  0  0  0  0  0  0  0  0  0  0
  -23.6455   -8.5644   20.6729 N   0  0  0  0  0  0  0  0  0  0  0  0
  -24.0079   -9.8600   20.6700 C   0  0  0  0  0  0  0  0  0  0  0  0
  -24.2007  -10.9143   19.6457 C   0  0  0  0  0  0  0  0  0  0  0  0
  -23.9969  -10.6585   18.3306 N   0  0  0  0  0  0  0  0  0  0  0  0
  -24.5863  -12.1389   20.0684 N   0  0  0  0  0  0  0  0  0  0  0  0
  -24.7916  -12.4050   21.3712 C   0  0  0  0  0  0  0  0  0  0  0  0
  -24.6365  -11.4988   22.3532 N   0  0  0  0  0  0  0  0  0  0  0  0
  -24.2528  -10.2302   22.0725 C   0  0  0  0  0  0  0  0  0  0  0  0
  -23.7161   -9.7602   18.0416 H   0  0  0  0  0  0  0  0  0  0  0  0
  -24.1295  -11.3709   17.6643 H   0  0  0  0  0  0  0  0  0  0  0  0
  -27.1875  -10.5530   24.7995 C   0  0  0  0  0  0  0  0  0  0  0  0
  -27.9773  -11.2011   25.7957 O   0  0  0  0  0  0  0  0  0  0  0  0
  -29.1336  -10.3951   26.5737 P   0  0  0  0  0  0  0  0  0  0  0  0
  -28.4857   -9.5701   27.6596 O   0  0  0  0  0  0  0  0  0  0  0  0
  -30.0176   -9.7279   25.5469 O   0  0  0  0  0  0  0  0  0  0  0  0
  -30.7221   -9.2361   25.9973 H   0  0  0  0  0  0  0  0  0  0  0  0
  -29.9758  -11.5756   27.2731 O   0  0  0  0  0  0  0  0  0  0  0  0
  -31.4043  -11.2700   27.9493 P   0  0  0  0  0  0  0  0  0  0  0  0
  -32.4492  -11.2521   26.8590 O   0  0  0  0  0  0  0  0  0  0  0  0
  -31.2495  -10.0789   28.8631 O   0  0  0  0  0  0  0  0  0  0  0  0
  -32.1019   -9.8790   29.2808 H   0  0  0  0  0  0  0  0  0  0  0  0
  -31.6495  -12.5748   28.8592 O   0  0  0  0  0  0  0  0  0  0  0  0
  -30.4075  -13.3470   29.5324 P   0  0  0  0  0  0  0  0  0  0  0  0
  -31.0056  -14.0018   30.7540 O   0  0  0  0  0  0  0  0  0  0  0  0
  -29.4159  -12.2493   29.8352 O   0  0  0  0  0  0  0  0  0  0  0  0
  -29.9586  -14.3145   28.4627 O   0  0  0  0  0  0  0  0  0  0  0  0
  -28.6261  -12.6319   30.2484 H   0  0  0  0  0  0  0  0  0  0  0  0
  -29.2030  -14.8285   28.7881 H   0  0  0  0  0  0  0  0  0  0  0  0
 34 35  2  0  0  0
 34 36  1  0  0  0
 34 37  1  0  0  0
 34 33  1  0  0  0
 29 30  2  0  0  0
 29 31  1  0  0  0
 29 33  1  0  0  0
 29 28  1  0  0  0
 24 25  2  0  0  0
 24 26  1  0  0  0
 24 28  1  0  0  0
 24 23  1  0  0  0
 23 22  1  0  0  0
 22  1  1  0  0  0
  1  2  1  0  0  0
  1  3  1  0  0  0
  2  7  1  0  0  0
  3  4  1  0  0  0
  3  5  1  0  0  0
  5  6  1  0  0  0
  5  7  1  0  0  0
  7 10  1  0  0  0
 10 11  1  0  0  0
 10 19  1  0  0  0
 11 12  2  0  0  0
 12 13  1  0  0  0
 13 14  1  0  0  0
 13 19  2  0  0  0
 14 15  1  0  0  0
 14 16  2  0  0  0
 16 17  1  0  0  0
 17 18  2  0  0  0
 18 19  1  0  0  0
 36 38  1  0  0  0
 37 39  1  0  0  0
 31 32  1  0  0  0
 26 27  1  0  0  0
  4  8  1  0  0  0
  6  9  1  0  0  0
 15 20  1  0  0  0
 15 21  1  0  0  0
M  END
> <minimizedAffinity>
-8.12078

$$$$
3B2Q_ATP_A_461


 39 41  0  0  0  0  0  0  0  0999 V2000
  -24.3065   -9.2225   20.9655 C   0  0  0  0  0  0  0  0  0  0  0  0
  -25.6333   -9.1105   21.4905 O   0  0  0  0  0  0  0  0  0  0  0  0
  -23.3402   -8.7298   22.0338 C   0  0  0  0  0  0  0  0  0  0  0  0
  -22.6221   -7.5938   21.5394 O   0  0  0  0  0  0  0  0  0  0  0  0
  -24.1924   -8.3147   23.2191 C   0  0  0  0  0  0  0  0  0  0  0  0
  -24.0097   -6.9162   23.4716 O   0  0  0  0  0  0  0  0  0  0  0  0
  -25.6376   -8.5726   22.8157 C   0  0  0  0  0  0  0  0  0  0  0  0
  -23.2501   -6.8981   21.2893 H   0  0  0  0  0  0  0  0  0  0  0  0
  -24.2459   -6.4108   22.6780 H   0  0  0  0  0  0  0  0  0  0  0  0
  -26.2440   -9.5570   23.7480 N   0  0  0  0  0  0  0  0  0  0  0  0
  -26.4999  -10.8494   23.4697 C   0  0  0  0  0  0  0  0  0  0  0  0
  -27.0571  -11.4788   24.5354 N   0  0  0  0  0  0  0  0  0  0  0  0
  -27.1649  -10.5761   25.5271 C   0  0  0  0  0  0  0  0  0  0  0  0
  -27.6665  -10.5748   26.9222 C   0  0  0  0  0  0  0  0  0  0  0  0
  -28.1773  -11.6974   27.4836 N   0  0  0  0  0  0  0  0  0  0  0  0
  -27.5965   -9.4161   27.6146 N   0  0  0  0  0  0  0  0  0  0  0  0
  -27.0914   -8.2952   27.0682 C   0  0  0  0  0  0  0  0  0  0  0  0
  -26.6195   -8.2233   25.8105 N   0  0  0  0  0  0  0  0  0  0  0  0
  -26.6283   -9.3107   25.0027 C   0  0  0  0  0  0  0  0  0  0  0  0
  -28.2201  -12.5322   26.9636 H   0  0  0  0  0  0  0  0  0  0  0  0
  -28.5057  -11.6781   28.4116 H   0  0  0  0  0  0  0  0  0  0  0  0
  -24.0251  -10.6756   20.6020 C   0  0  0  0  0  0  0  0  0  0  0  0
  -24.7352  -11.0134   19.4113 O   0  0  0  0  0  0  0  0  0  0  0  0
  -25.5073  -12.4211   19.2920 P   0  0  0  0  0  0  0  0  0  0  0  0
  -25.9464  -12.8378   20.6752 O   0  0  0  0  0  0  0  0  0  0  0  0
  -26.5238  -12.3101   18.1804 O   0  0  0  0  0  0  0  0  0  0  0  0
  -27.0004  -13.1504   18.0930 H   0  0  0  0  0  0  0  0  0  0  0  0
  -24.3418  -13.4221   18.8110 O   0  0  0  0  0  0  0  0  0  0  0  0
  -24.7067  -14.8214   18.1040 P   0  0  0  0  0  0  0  0  0  0  0  0
  -23.4189  -15.4879   17.6820 O   0  0  0  0  0  0  0  0  0  0  0  0
  -25.7917  -14.5677   17.0859 O   0  0  0  0  0  0  0  0  0  0  0  0
  -26.0257  -15.4011   16.6482 H   0  0  0  0  0  0  0  0  0  0  0  0
  -25.3403  -15.6727   19.3141 O   0  0  0  0  0  0  0  0  0  0  0  0
  -24.4160  -16.6525   20.1959 P   0  0  0  0  0  0  0  0  0  0  0  0
  -25.3266  -17.1044   21.3119 O   0  0  0  0  0  0  0  0  0  0  0  0
  -23.2724  -15.7727   20.6412 O   0  0  0  0  0  0  0  0  0  0  0  0
  -24.0219  -17.7458   19.2310 O   0  0  0  0  0  0  0  0  0  0  0  0
  -22.6590  -16.2906   21.1856 H   0  0  0  0  0  0  0  0  0  0  0  0
  -23.4557  -18.3893   19.6852 H   0  0  0  0  0  0  0  0  0  0  0  0
 34 35  2  0  0  0
 34 36  1  0  0  0
 34 37  1  0  0  0
 34 33  1  0  0  0
 29 30  2  0  0  0
 29 31  1  0  0  0
 29 33  1  0  0  0
 29 28  1  0  0  0
 24 25  2  0  0  0
 24 26  1  0  0  0
 24 28  1  0  0  0
 24 23  1  0  0  0
 23 22  1  0  0  0
 22  1  1  0  0  0
  1  2  1  0  0  0
  1  3  1  0  0  0
  2  7  1  0  0  0
  3  4  1  0  0  0
  3  5  1  0  0  0
  5  6  1  0  0  0
  5  7  1  0  0  0
  7 10  1  0  0  0
 10 11  1  0  0  0
 10 19  1  0  0  0
 11 12  2  0  0  0
 12 13  1  0  0  0
 13 14  1  0  0  0
 13 19  2  0  0  0
 14 15  1  0  0  0
 14 16  2  0  0  0
 16 17  1  0  0  0
 17 18  2  0  0  0
 18 19  1  0  0  0
 36 38  1  0  0  0
 37 39  1  0  0  0
 31 32  1  0  0  0
 26 27  1  0  0  0
  4  8  1  0  0  0
  6  9  1  0  0  0
 15 20  1  0  0  0
 15 21  1  0  0  0
M  END
> <minimizedAffinity>
-8.07868

$$$$
3B2Q_ATP_A_461


 39 41  0  0  0  0  0  0  0  0999 V2000
  -26.6650   -9.2849   24.5444 C   0  0  0  0  0  0  0  0  0  0  0  0
  -28.0822   -9.3468   24.7342 O   0  0  0  0  0  0  0  0  0  0  0  0
  -26.0091   -9.3292   25.9176 C   0  0  0  0  0  0  0  0  0  0  0  0
  -25.2678   -8.1226   26.1307 O   0  0  0  0  0  0  0  0  0  0  0  0
  -27.1400   -9.4144   26.9263 C   0  0  0  0  0  0  0  0  0  0  0  0
  -27.1097   -8.2609   27.7757 O   0  0  0  0  0  0  0  0  0  0  0  0
  -28.4311   -9.4162   26.1196 C   0  0  0  0  0  0  0  0  0  0  0  0
  -25.8619   -7.3599   26.0521 H   0  0  0  0  0  0  0  0  0  0  0  0
  -27.1843   -7.4591   27.2349 H   0  0  0  0  0  0  0  0  0  0  0  0
  -29.1765  -10.6742   26.3804 N   0  0  0  0  0  0  0  0  0  0  0  0
  -28.8666  -11.8884   25.8876 C   0  0  0  0  0  0  0  0  0  0  0  0
  -29.7463  -12.8295   26.3151 N   0  0  0  0  0  0  0  0  0  0  0  0
  -30.6464  -12.2134   27.1027 C   0  0  0  0  0  0  0  0  0  0  0  0
  -31.8431  -12.6182   27.8785 C   0  0  0  0  0  0  0  0  0  0  0  0
  -32.2626  -13.9067   27.8972 N   0  0  0  0  0  0  0  0  0  0  0  0
  -32.5009  -11.6585   28.5664 N   0  0  0  0  0  0  0  0  0  0  0  0
  -32.0941  -10.3761   28.5558 C   0  0  0  0  0  0  0  0  0  0  0  0
  -31.0196   -9.9380   27.8752 N   0  0  0  0  0  0  0  0  0  0  0  0
  -30.2668  -10.7927   27.1418 C   0  0  0  0  0  0  0  0  0  0  0  0
  -31.7705  -14.5920   27.3898 H   0  0  0  0  0  0  0  0  0  0  0  0
  -33.0594  -14.1574   28.4181 H   0  0  0  0  0  0  0  0  0  0  0  0
  -26.2156  -10.4612   23.6858 C   0  0  0  0  0  0  0  0  0  0  0  0
  -25.8109   -9.9855   22.4028 O   0  0  0  0  0  0  0  0  0  0  0  0
  -24.7866  -10.8392   21.5006 P   0  0  0  0  0  0  0  0  0  0  0  0
  -24.3148   -9.9634   20.3647 O   0  0  0  0  0  0  0  0  0  0  0  0
  -23.7792  -11.4913   22.4176 O   0  0  0  0  0  0  0  0  0  0  0  0
  -23.1520  -12.0113   21.8913 H   0  0  0  0  0  0  0  0  0  0  0  0
  -25.7314  -11.9906   20.8895 O   0  0  0  0  0  0  0  0  0  0  0  0
  -25.1617  -13.0147   19.7859 P   0  0  0  0  0  0  0  0  0  0  0  0
  -24.2744  -14.0172   20.4848 O   0  0  0  0  0  0  0  0  0  0  0  0
  -24.6223  -12.2102   18.6284 O   0  0  0  0  0  0  0  0  0  0  0  0
  -24.2737  -12.8113   17.9516 H   0  0  0  0  0  0  0  0  0  0  0  0
  -26.4909  -13.7771   19.2936 O   0  0  0  0  0  0  0  0  0  0  0  0
  -26.9015  -13.7816   17.7368 P   0  0  0  0  0  0  0  0  0  0  0  0
  -27.1285  -12.3240   17.4166 O   0  0  0  0  0  0  0  0  0  0  0  0
  -28.1483  -14.6322   17.6906 O   0  0  0  0  0  0  0  0  0  0  0  0
  -25.7044  -14.3927   17.0474 O   0  0  0  0  0  0  0  0  0  0  0  0
  -28.4675  -14.6886   16.7763 H   0  0  0  0  0  0  0  0  0  0  0  0
  -25.8679  -14.4345   16.0922 H   0  0  0  0  0  0  0  0  0  0  0  0
 34 35  2  0  0  0
 34 36  1  0  0  0
 34 37  1  0  0  0
 34 33  1  0  0  0
 29 30  2  0  0  0
 29 31  1  0  0  0
 29 33  1  0  0  0
 29 28  1  0  0  0
 24 25  2  0  0  0
 24 26  1  0  0  0
 24 28  1  0  0  0
 24 23  1  0  0  0
 23 22  1  0  0  0
 22  1  1  0  0  0
  1  2  1  0  0  0
  1  3  1  0  0  0
  2  7  1  0  0  0
  3  4  1  0  0  0
  3  5  1  0  0  0
  5  6  1  0  0  0
  5  7  1  0  0  0
  7 10  1  0  0  0
 10 11  1  0  0  0
 10 19  1  0  0  0
 11 12  2  0  0  0
 12 13  1  0  0  0
 13 14  1  0  0  0
 13 19  2  0  0  0
 14 15  1  0  0  0
 14 16  2  0  0  0
 16 17  1  0  0  0
 17 18  2  0  0  0
 18 19  1  0  0  0
 36 38  1  0  0  0
 37 39  1  0  0  0
 31 32  1  0  0  0
 26 27  1  0  0  0
  4  8  1  0  0  0
  6  9  1  0  0  0
 15 20  1  0  0  0
 15 21  1  0  0  0
M  END
> <minimizedAffinity>
-7.94167

$$$$
3B2Q_ATP_A_461


 39 41  0  0  0  0  0  0  0  0999 V2000
  -25.3745  -10.4343   21.0661 C   0  0  0  0  0  0  0  0  0  0  0  0
  -26.0858   -9.3771   21.7179 O   0  0  0  0  0  0  0  0  0  0  0  0
  -23.9007  -10.0540   21.0358 C   0  0  0  0  0  0  0  0  0  0  0  0
  -23.4638   -9.9481   19.6762 O   0  0  0  0  0  0  0  0  0  0  0  0
  -23.7976   -8.6976   21.7088 C   0  0  0  0  0  0  0  0  0  0  0  0
  -23.2945   -7.7372   20.7721 O   0  0  0  0  0  0  0  0  0  0  0  0
  -25.2141   -8.3152   22.1155 C   0  0  0  0  0  0  0  0  0  0  0  0
  -24.0039   -9.2885   19.2134 H   0  0  0  0  0  0  0  0  0  0  0  0
  -23.8810   -7.7001   20.0004 H   0  0  0  0  0  0  0  0  0  0  0  0
  -25.2780   -8.1475   23.5899 N   0  0  0  0  0  0  0  0  0  0  0  0
  -24.4361   -7.4055   24.3341 C   0  0  0  0  0  0  0  0  0  0  0  0
  -24.7660   -7.4617   25.6495 N   0  0  0  0  0  0  0  0  0  0  0  0
  -25.8455   -8.2567   25.7619 C   0  0  0  0  0  0  0  0  0  0  0  0
  -26.7057   -8.7421   26.8675 C   0  0  0  0  0  0  0  0  0  0  0  0
  -26.4695   -8.3764   28.1508 N   0  0  0  0  0  0  0  0  0  0  0  0
  -27.7334   -9.5613   26.5516 N   0  0  0  0  0  0  0  0  0  0  0  0
  -27.9781   -9.9313   25.2814 C   0  0  0  0  0  0  0  0  0  0  0  0
  -27.2403   -9.5305   24.2304 N   0  0  0  0  0  0  0  0  0  0  0  0
  -26.1785   -8.7068   24.4015 C   0  0  0  0  0  0  0  0  0  0  0  0
  -25.7160   -7.7788   28.3616 H   0  0  0  0  0  0  0  0  0  0  0  0
  -27.0513   -8.7083   28.8723 H   0  0  0  0  0  0  0  0  0  0  0  0
  -25.5877  -11.7361   21.8295 C   0  0  0  0  0  0  0  0  0  0  0  0
  -24.9723  -12.8097   21.1189 O   0  0  0  0  0  0  0  0  0  0  0  0
  -25.5719  -13.3067   19.7099 P   0  0  0  0  0  0  0  0  0  0  0  0
  -27.0400  -13.6039   19.8998 O   0  0  0  0  0  0  0  0  0  0  0  0
  -25.1321  -12.3357   18.6400 O   0  0  0  0  0  0  0  0  0  0  0  0
  -25.4843  -12.6189   17.7817 H   0  0  0  0  0  0  0  0  0  0  0  0
  -24.8027  -14.7009   19.4723 O   0  0  0  0  0  0  0  0  0  0  0  0
  -24.6543  -15.3098   17.9897 P   0  0  0  0  0  0  0  0  0  0  0  0
  -23.1922  -15.2837   17.6121 O   0  0  0  0  0  0  0  0  0  0  0  0
  -25.6735  -14.6410   17.0998 O   0  0  0  0  0  0  0  0  0  0  0  0
  -25.5994  -14.9956   16.2000 H   0  0  0  0  0  0  0  0  0  0  0  0
  -25.0934  -16.8448   18.1937 O   0  0  0  0  0  0  0  0  0  0  0  0
  -26.4544  -17.2089   18.9730 P   0  0  0  0  0  0  0  0  0  0  0  0
  -26.7367  -18.6345   18.5648 O   0  0  0  0  0  0  0  0  0  0  0  0
  -27.4527  -16.2018   18.4542 O   0  0  0  0  0  0  0  0  0  0  0  0
  -26.0956  -17.0367   20.4302 O   0  0  0  0  0  0  0  0  0  0  0  0
  -28.3126  -16.3513   18.8776 H   0  0  0  0  0  0  0  0  0  0  0  0
  -26.8689  -17.2388   20.9797 H   0  0  0  0  0  0  0  0  0  0  0  0
 34 35  2  0  0  0
 34 36  1  0  0  0
 34 37  1  0  0  0
 34 33  1  0  0  0
 29 30  2  0  0  0
 29 31  1  0  0  0
 29 33  1  0  0  0
 29 28  1  0  0  0
 24 25  2  0  0  0
 24 26  1  0  0  0
 24 28  1  0  0  0
 24 23  1  0  0  0
 23 22  1  0  0  0
 22  1  1  0  0  0
  1  2  1  0  0  0
  1  3  1  0  0  0
  2  7  1  0  0  0
  3  4  1  0  0  0
  3  5  1  0  0  0
  5  6  1  0  0  0
  5  7  1  0  0  0
  7 10  1  0  0  0
 10 11  1  0  0  0
 10 19  1  0  0  0
 11 12  2  0  0  0
 12 13  1  0  0  0
 13 14  1  0  0  0
 13 19  2  0  0  0
 14 15  1  0  0  0
 14 16  2  0  0  0
 16 17  1  0  0  0
 17 18  2  0  0  0
 18 19  1  0  0  0
 36 38  1  0  0  0
 37 39  1  0  0  0
 31 32  1  0  0  0
 26 27  1  0  0  0
  4  8  1  0  0  0
  6  9  1  0  0  0
 15 20  1  0  0  0
 15 21  1  0  0  0
M  END
> <minimizedAffinity>
-7.77144

$$$$
3B2Q_ATP_A_461


 39 41  0  0  0  0  0  0  0  0999 V2000
  -28.0546  -10.3425   26.8801 C   0  0  0  0  0  0  0  0  0  0  0  0
  -29.4765  -10.4468   26.7540 O   0  0  0  0  0  0  0  0  0  0  0  0
  -27.5941  -11.4155   27.8570 C   0  0  0  0  0  0  0  0  0  0  0  0
  -26.9770  -10.7949   28.9905 O   0  0  0  0  0  0  0  0  0  0  0  0
  -28.8449  -12.1520   28.3004 C   0  0  0  0  0  0  0  0  0  0  0  0
  -29.0147  -11.9955   29.7144 O   0  0  0  0  0  0  0  0  0  0  0  0
  -30.0083  -11.4913   27.5737 C   0  0  0  0  0  0  0  0  0  0  0  0
  -27.6072  -10.1884   29.4099 H   0  0  0  0  0  0  0  0  0  0  0  0
  -29.0705  -11.0516   29.9309 H   0  0  0  0  0  0  0  0  0  0  0  0
  -30.6913  -12.4942   26.7172 N   0  0  0  0  0  0  0  0  0  0  0  0
  -31.1339  -12.2859   25.4627 C   0  0  0  0  0  0  0  0  0  0  0  0
  -31.7131  -13.4039   24.9557 N   0  0  0  0  0  0  0  0  0  0  0  0
  -31.6446  -14.3588   25.9010 C   0  0  0  0  0  0  0  0  0  0  0  0
  -32.0659  -15.7749   26.0230 C   0  0  0  0  0  0  0  0  0  0  0  0
  -32.6929  -16.4093   25.0028 N   0  0  0  0  0  0  0  0  0  0  0  0
  -31.8030  -16.4113   27.1862 N   0  0  0  0  0  0  0  0  0  0  0  0
  -31.1811  -15.7923   28.2061 C   0  0  0  0  0  0  0  0  0  0  0  0
  -30.7719  -14.5114   28.1656 N   0  0  0  0  0  0  0  0  0  0  0  0
  -30.9709  -13.7538   27.0604 C   0  0  0  0  0  0  0  0  0  0  0  0
  -32.8758  -15.9294   24.1629 H   0  0  0  0  0  0  0  0  0  0  0  0
  -32.9654  -17.3502   25.1015 H   0  0  0  0  0  0  0  0  0  0  0  0
  -27.4080  -10.5336   25.5133 C   0  0  0  0  0  0  0  0  0  0  0  0
  -27.2267   -9.2620   24.8916 O   0  0  0  0  0  0  0  0  0  0  0  0
  -25.7488   -8.7247   24.5463 P   0  0  0  0  0  0  0  0  0  0  0  0
  -25.5822   -7.3629   25.1767 O   0  0  0  0  0  0  0  0  0  0  0  0
  -24.7614   -9.8245   24.8567 O   0  0  0  0  0  0  0  0  0  0  0  0
  -23.8632   -9.5190   24.6547 H   0  0  0  0  0  0  0  0  0  0  0  0
  -25.8075   -8.5360   22.9486 O   0  0  0  0  0  0  0  0  0  0  0  0
  -24.4520   -8.3852   22.0934 P   0  0  0  0  0  0  0  0  0  0  0  0
  -23.4904   -7.5258   22.8793 O   0  0  0  0  0  0  0  0  0  0  0  0
  -24.8239   -8.0011   20.6820 O   0  0  0  0  0  0  0  0  0  0  0  0
  -24.0185   -7.9053   20.1501 H   0  0  0  0  0  0  0  0  0  0  0  0
  -23.8799   -9.8894   22.0721 O   0  0  0  0  0  0  0  0  0  0  0  0
  -24.3728  -10.9357   20.9521 P   0  0  0  0  0  0  0  0  0  0  0  0
  -23.9125  -12.2740   21.4773 O   0  0  0  0  0  0  0  0  0  0  0  0
  -23.6693  -10.4831   19.6950 O   0  0  0  0  0  0  0  0  0  0  0  0
  -25.8727  -10.7586   20.9249 O   0  0  0  0  0  0  0  0  0  0  0  0
  -23.9133  -11.0669   18.9599 H   0  0  0  0  0  0  0  0  0  0  0  0
  -26.2573  -11.3595   20.2678 H   0  0  0  0  0  0  0  0  0  0  0  0
 34 35  2  0  0  0
 34 36  1  0  0  0
 34 37  1  0  0  0
 34 33  1  0  0  0
 29 30  2  0  0  0
 29 31  1  0  0  0
 29 33  1  0  0  0
 29 28  1  0  0  0
 24 25  2  0  0  0
 24 26  1  0  0  0
 24 28  1  0  0  0
 24 23  1  0  0  0
 23 22  1  0  0  0
 22  1  1  0  0  0
  1  2  1  0  0  0
  1  3  1  0  0  0
  2  7  1  0  0  0
  3  4  1  0  0  0
  3  5  1  0  0  0
  5  6  1  0  0  0
  5  7  1  0  0  0
  7 10  1  0  0  0
 10 11  1  0  0  0
 10 19  1  0  0  0
 11 12  2  0  0  0
 12 13  1  0  0  0
 13 14  1  0  0  0
 13 19  2  0  0  0
 14 15  1  0  0  0
 14 16  2  0  0  0
 16 17  1  0  0  0
 17 18  2  0  0  0
 18 19  1  0  0  0
 36 38  1  0  0  0
 37 39  1  0  0  0
 31 32  1  0  0  0
 26 27  1  0  0  0
  4  8  1  0  0  0
  6  9  1  0  0  0
 15 20  1  0  0  0
 15 21  1  0  0  0
M  END
> <minimizedAffinity>
-7.67081

$$$$
3B2Q_ATP_A_461


 39 41  0  0  0  0  0  0  0  0999 V2000
  -25.7229   -8.6750   25.0510 C   0  0  0  0  0  0  0  0  0  0  0  0
  -24.9781   -9.8290   24.6487 O   0  0  0  0  0  0  0  0  0  0  0  0
  -25.5907   -7.6295   23.9523 C   0  0  0  0  0  0  0  0  0  0  0  0
  -24.9523   -6.4614   24.4804 O   0  0  0  0  0  0  0  0  0  0  0  0
  -24.7111   -8.2475   22.8809 C   0  0  0  0  0  0  0  0  0  0  0  0
  -23.5185   -7.4671   22.7338 O   0  0  0  0  0  0  0  0  0  0  0  0
  -24.3479   -9.6397   23.3787 C   0  0  0  0  0  0  0  0  0  0  0  0
  -24.0840   -6.7020   24.8396 H   0  0  0  0  0  0  0  0  0  0  0  0
  -23.0539   -7.4233   23.5842 H   0  0  0  0  0  0  0  0  0  0  0  0
  -24.8512  -10.6558   22.4194 N   0  0  0  0  0  0  0  0  0  0  0  0
  -25.7227  -11.6421   22.7038 C   0  0  0  0  0  0  0  0  0  0  0  0
  -25.9783  -12.4009   21.6078 N   0  0  0  0  0  0  0  0  0  0  0  0
  -25.2578  -11.8963   20.5898 C   0  0  0  0  0  0  0  0  0  0  0  0
  -25.0611  -12.2183   19.1562 C   0  0  0  0  0  0  0  0  0  0  0  0
  -25.7055  -13.2607   18.5778 N   0  0  0  0  0  0  0  0  0  0  0  0
  -24.2175  -11.4366   18.4460 N   0  0  0  0  0  0  0  0  0  0  0  0
  -23.5722  -10.3989   19.0089 C   0  0  0  0  0  0  0  0  0  0  0  0
  -23.7022  -10.0496   20.3014 N   0  0  0  0  0  0  0  0  0  0  0  0
  -24.5160  -10.7466   21.1303 C   0  0  0  0  0  0  0  0  0  0  0  0
  -26.3163  -13.8190   19.1112 H   0  0  0  0  0  0  0  0  0  0  0  0
  -25.5630  -13.4598   17.6242 H   0  0  0  0  0  0  0  0  0  0  0  0
  -27.1816   -9.0612   25.2654 C   0  0  0  0  0  0  0  0  0  0  0  0
  -27.2479  -10.3628   25.8464 O   0  0  0  0  0  0  0  0  0  0  0  0
  -28.1076  -10.6180   27.1835 P   0  0  0  0  0  0  0  0  0  0  0  0
  -27.5743  -11.8590   27.8583 O   0  0  0  0  0  0  0  0  0  0  0  0
  -28.1870   -9.3189   27.9496 O   0  0  0  0  0  0  0  0  0  0  0  0
  -28.7024   -9.4527   28.7604 H   0  0  0  0  0  0  0  0  0  0  0  0
  -29.5716  -10.9508   26.6023 O   0  0  0  0  0  0  0  0  0  0  0  0
  -30.7902  -11.2842   27.5998 P   0  0  0  0  0  0  0  0  0  0  0  0
  -31.8616  -10.2380   27.4034 O   0  0  0  0  0  0  0  0  0  0  0  0
  -30.2210  -11.5295   28.9759 O   0  0  0  0  0  0  0  0  0  0  0  0
  -30.9418  -11.7325   29.5925 H   0  0  0  0  0  0  0  0  0  0  0  0
  -31.3424  -12.6829   27.0261 O   0  0  0  0  0  0  0  0  0  0  0  0
  -31.4441  -12.9323   25.4388 P   0  0  0  0  0  0  0  0  0  0  0  0
  -32.2920  -14.1756   25.3198 O   0  0  0  0  0  0  0  0  0  0  0  0
  -30.0090  -13.1118   25.0048 O   0  0  0  0  0  0  0  0  0  0  0  0
  -32.1010  -11.6769   24.9154 O   0  0  0  0  0  0  0  0  0  0  0  0
  -29.9778  -13.2691   24.0481 H   0  0  0  0  0  0  0  0  0  0  0  0
  -32.2026  -11.7423   23.9530 H   0  0  0  0  0  0  0  0  0  0  0  0
 34 35  2  0  0  0
 34 36  1  0  0  0
 34 37  1  0  0  0
 34 33  1  0  0  0
 29 30  2  0  0  0
 29 31  1  0  0  0
 29 33  1  0  0  0
 29 28  1  0  0  0
 24 25  2  0  0  0
 24 26  1  0  0  0
 24 28  1  0  0  0
 24 23  1  0  0  0
 23 22  1  0  0  0
 22  1  1  0  0  0
  1  2  1  0  0  0
  1  3  1  0  0  0
  2  7  1  0  0  0
  3  4  1  0  0  0
  3  5  1  0  0  0
  5  6  1  0  0  0
  5  7  1  0  0  0
  7 10  1  0  0  0
 10 11  1  0  0  0
 10 19  1  0  0  0
 11 12  2  0  0  0
 12 13  1  0  0  0
 13 14  1  0  0  0
 13 19  2  0  0  0
 14 15  1  0  0  0
 14 16  2  0  0  0
 16 17  1  0  0  0
 17 18  2  0  0  0
 18 19  1  0  0  0
 36 38  1  0  0  0
 37 39  1  0  0  0
 31 32  1  0  0  0
 26 27  1  0  0  0
  4  8  1  0  0  0
  6  9  1  0  0  0
 15 20  1  0  0  0
 15 21  1  0  0  0
M  END
> <minimizedAffinity>
-7.56899

$$$$
3B2Q_ATP_A_461


 39 41  0  0  0  0  0  0  0  0999 V2000
  -27.4887  -10.5437   26.3296 C   0  0  0  0  0  0  0  0  0  0  0  0
  -26.2156  -10.9307   25.8026 O   0  0  0  0  0  0  0  0  0  0  0  0
  -27.7423   -9.0994   25.9201 C   0  0  0  0  0  0  0  0  0  0  0  0
  -27.8619   -8.2858   27.0925 O   0  0  0  0  0  0  0  0  0  0  0  0
  -26.5267   -8.6639   25.1225 C   0  0  0  0  0  0  0  0  0  0  0  0
  -25.8813   -7.5746   25.7929 O   0  0  0  0  0  0  0  0  0  0  0  0
  -25.5896   -9.8633   25.0854 C   0  0  0  0  0  0  0  0  0  0  0  0
  -27.0531   -8.3614   27.6225 H   0  0  0  0  0  0  0  0  0  0  0  0
  -25.6305   -7.8492   26.6888 H   0  0  0  0  0  0  0  0  0  0  0  0
  -25.3687  -10.2760   23.6759 N   0  0  0  0  0  0  0  0  0  0  0  0
  -25.8757  -11.3776   23.0904 C   0  0  0  0  0  0  0  0  0  0  0  0
  -25.4848  -11.4668   21.7936 N   0  0  0  0  0  0  0  0  0  0  0  0
  -24.7079  -10.4003   21.5312 C   0  0  0  0  0  0  0  0  0  0  0  0
  -23.9673   -9.8796   20.3572 C   0  0  0  0  0  0  0  0  0  0  0  0
  -23.9817  -10.5371   19.1723 N   0  0  0  0  0  0  0  0  0  0  0  0
  -23.2776   -8.7271   20.5092 N   0  0  0  0  0  0  0  0  0  0  0  0
  -23.2558   -8.0653   21.6804 C   0  0  0  0  0  0  0  0  0  0  0  0
  -23.9029   -8.4785   22.7850 N   0  0  0  0  0  0  0  0  0  0  0  0
  -24.6339   -9.6189   22.7754 C   0  0  0  0  0  0  0  0  0  0  0  0
  -24.4898  -11.3753   19.0806 H   0  0  0  0  0  0  0  0  0  0  0  0
  -23.4841  -10.1765   18.4032 H   0  0  0  0  0  0  0  0  0  0  0  0
  -28.5689  -11.4662   25.7771 C   0  0  0  0  0  0  0  0  0  0  0  0
  -29.8246  -11.1345   26.3681 O   0  0  0  0  0  0  0  0  0  0  0  0
  -31.1985  -11.6721   25.7236 P   0  0  0  0  0  0  0  0  0  0  0  0
  -31.9007  -10.5069   25.0687 O   0  0  0  0  0  0  0  0  0  0  0  0
  -30.8901  -12.9137   24.9208 O   0  0  0  0  0  0  0  0  0  0  0  0
  -31.7073  -13.2532   24.5236 H   0  0  0  0  0  0  0  0  0  0  0  0
  -32.0483  -12.1081   27.0196 O   0  0  0  0  0  0  0  0  0  0  0  0
  -31.9715  -13.6161   27.5775 P   0  0  0  0  0  0  0  0  0  0  0  0
  -32.3720  -14.5534   26.4631 O   0  0  0  0  0  0  0  0  0  0  0  0
  -32.6952  -13.6677   28.9010 O   0  0  0  0  0  0  0  0  0  0  0  0
  -32.6597  -14.5706   29.2539 H   0  0  0  0  0  0  0  0  0  0  0  0
  -30.3980  -13.8090   27.8557 O   0  0  0  0  0  0  0  0  0  0  0  0
  -29.7181  -13.1828   29.1738 P   0  0  0  0  0  0  0  0  0  0  0  0
  -28.2406  -13.2035   28.8655 O   0  0  0  0  0  0  0  0  0  0  0  0
  -30.1377  -14.1196   30.2812 O   0  0  0  0  0  0  0  0  0  0  0  0
  -30.3163  -11.7989   29.2683 O   0  0  0  0  0  0  0  0  0  0  0  0
  -29.7663  -13.8123   31.1229 H   0  0  0  0  0  0  0  0  0  0  0  0
  -29.9568  -11.3437   30.0458 H   0  0  0  0  0  0  0  0  0  0  0  0
 34 35  2  0  0  0
 34 36  1  0  0  0
 34 37  1  0  0  0
 34 33  1  0  0  0
 29 30  2  0  0  0
 29 31  1  0  0  0
 29 33  1  0  0  0
 29 28  1  0  0  0
 24 25  2  0  0  0
 24 26  1  0  0  0
 24 28  1  0  0  0
 24 23  1  0  0  0
 23 22  1  0  0  0
 22  1  1  0  0  0
  1  2  1  0  0  0
  1  3  1  0  0  0
  2  7  1  0  0  0
  3  4  1  0  0  0
  3  5  1  0  0  0
  5  6  1  0  0  0
  5  7  1  0  0  0
  7 10  1  0  0  0
 10 11  1  0  0  0
 10 19  1  0  0  0
 11 12  2  0  0  0
 12 13  1  0  0  0
 13 14  1  0  0  0
 13 19  2  0  0  0
 14 15  1  0  0  0
 14 16  2  0  0  0
 16 17  1  0  0  0
 17 18  2  0  0  0
 18 19  1  0  0  0
 36 38  1  0  0  0
 37 39  1  0  0  0
 31 32  1  0  0  0
 26 27  1  0  0  0
  4  8  1  0  0  0
  6  9  1  0  0  0
 15 20  1  0  0  0
 15 21  1  0  0  0
M  END
> <minimizedAffinity>
-7.50835

$$$$
