2FQX_GMP_A_400


 26 28  0  0  0  0  0  0  0  0999 V2000
   33.8116   61.1840   10.3734 N   0  0  0  0  0  0  0  0  0  0  0  0
   33.4853   62.4394   10.6800 C   0  0  0  0  0  0  0  0  0  0  0  0
   34.0162   63.2644    9.7804 N   0  0  0  0  0  0  0  0  0  0  0  0
   34.6865   62.5361    8.8904 C   0  0  0  0  0  0  0  0  0  0  0  0
   35.4075   62.8244    7.7365 C   0  0  0  0  0  0  0  0  0  0  0  0
   35.5990   63.9830    7.3617 O   0  0  0  0  0  0  0  0  0  0  0  0
   35.9525   61.7682    7.0018 N   0  0  0  0  0  0  0  0  0  0  0  0
   35.7766   60.4458    7.4339 C   0  0  0  0  0  0  0  0  0  0  0  0
   36.2975   59.4424    6.7359 N   0  0  0  0  0  0  0  0  0  0  0  0
   35.0828   60.2055    8.5532 N   0  0  0  0  0  0  0  0  0  0  0  0
   34.5482   61.2063    9.2697 C   0  0  0  0  0  0  0  0  0  0  0  0
   36.4610   61.9528    6.1793 H   0  0  0  0  0  0  0  0  0  0  0  0
   36.8065   59.6269    5.9136 H   0  0  0  0  0  0  0  0  0  0  0  0
   36.1745   58.5145    7.0409 H   0  0  0  0  0  0  0  0  0  0  0  0
   32.0910   60.0597   13.0050 C   0  0  0  0  0  0  0  0  0  0  0  0
   32.0650   60.1611   11.5717 O   0  0  0  0  0  0  0  0  0  0  0  0
   33.5332   60.4038   13.3795 C   0  0  0  0  0  0  0  0  0  0  0  0
   33.8599   59.8378   14.6538 O   0  0  0  0  0  0  0  0  0  0  0  0
   34.2778   59.6383   12.2883 C   0  0  0  0  0  0  0  0  0  0  0  0
   34.2362   58.2296   12.5387 O   0  0  0  0  0  0  0  0  0  0  0  0
   33.3985   59.9443   11.0730 C   0  0  0  0  0  0  0  0  0  0  0  0
   33.6819   58.8844   14.6394 H   0  0  0  0  0  0  0  0  0  0  0  0
   33.3134   57.9442   12.6279 H   0  0  0  0  0  0  0  0  0  0  0  0
   31.4576   62.4116   13.3496 O   0  0  0  0  0  0  0  0  0  0  0  0
   31.0853   61.0516   13.6021 C   0  0  0  0  0  0  0  0  0  0  0  0
   30.7985   63.0054   13.7419 H   0  0  0  0  0  0  0  0  0  0  0  0
 24 25  1  0  0  0
 25 15  1  0  0  0
 15 16  1  0  0  0
 15 17  1  0  0  0
 16 21  1  0  0  0
 17 18  1  0  0  0
 17 19  1  0  0  0
 19 20  1  0  0  0
 19 21  1  0  0  0
 21  1  1  0  0  0
  1  2  1  0  0  0
  1 11  1  0  0  0
  2  3  2  0  0  0
  3  4  1  0  0  0
  4  5  1  0  0  0
  4 11  2  0  0  0
  5  6  2  0  0  0
  5  7  1  0  0  0
  7  8  1  0  0  0
  8  9  1  0  0  0
  8 10  2  0  0  0
 10 11  1  0  0  0
 24 26  1  0  0  0
 18 22  1  0  0  0
 20 23  1  0  0  0
  7 12  1  0  0  0
  9 13  1  0  0  0
  9 14  1  0  0  0
M  END
> <minimizedAffinity>
-10.08785

$$$$
2FQX_GMP_A_400


 26 28  0  0  0  0  0  0  0  0999 V2000
   35.0748   58.8750    9.4300 N   0  0  0  0  0  0  0  0  0  0  0  0
   34.3273   58.5915   10.4965 C   0  0  0  0  0  0  0  0  0  0  0  0
   33.7629   59.7092   10.9482 N   0  0  0  0  0  0  0  0  0  0  0  0
   34.1485   60.7163   10.1679 C   0  0  0  0  0  0  0  0  0  0  0  0
   33.8737   62.0790   10.1246 C   0  0  0  0  0  0  0  0  0  0  0  0
   33.1714   62.6283   10.9758 O   0  0  0  0  0  0  0  0  0  0  0  0
   34.4364   62.8470    9.1019 N   0  0  0  0  0  0  0  0  0  0  0  0
   35.2683   62.2457    8.1465 C   0  0  0  0  0  0  0  0  0  0  0  0
   35.8049   62.9775    7.1760 N   0  0  0  0  0  0  0  0  0  0  0  0
   35.5169   60.9326    8.2229 N   0  0  0  0  0  0  0  0  0  0  0  0
   34.9822   60.1778    9.1951 C   0  0  0  0  0  0  0  0  0  0  0  0
   34.2485   63.8121    9.0519 H   0  0  0  0  0  0  0  0  0  0  0  0
   35.6176   63.9427    7.1263 H   0  0  0  0  0  0  0  0  0  0  0  0
   36.3899   62.5544    6.5066 H   0  0  0  0  0  0  0  0  0  0  0  0
   34.7878   56.7774    6.8478 C   0  0  0  0  0  0  0  0  0  0  0  0
   35.3317   58.0475    7.2433 O   0  0  0  0  0  0  0  0  0  0  0  0
   34.4172   56.1005    8.1681 C   0  0  0  0  0  0  0  0  0  0  0  0
   34.3803   54.6788    7.9997 O   0  0  0  0  0  0  0  0  0  0  0  0
   35.6385   56.4718    9.0057 C   0  0  0  0  0  0  0  0  0  0  0  0
   36.7827   55.7148    8.5972 O   0  0  0  0  0  0  0  0  0  0  0  0
   35.8420   57.9296    8.5848 C   0  0  0  0  0  0  0  0  0  0  0  0
   35.2256   54.3745    7.6340 H   0  0  0  0  0  0  0  0  0  0  0  0
   36.9321   55.8419    7.6473 H   0  0  0  0  0  0  0  0  0  0  0  0
   32.4703   56.1538    6.3078 O   0  0  0  0  0  0  0  0  0  0  0  0
   33.5650   57.0061    5.9511 C   0  0  0  0  0  0  0  0  0  0  0  0
   31.7193   56.3287    5.7194 H   0  0  0  0  0  0  0  0  0  0  0  0
 24 25  1  0  0  0
 25 15  1  0  0  0
 15 16  1  0  0  0
 15 17  1  0  0  0
 16 21  1  0  0  0
 17 18  1  0  0  0
 17 19  1  0  0  0
 19 20  1  0  0  0
 19 21  1  0  0  0
 21  1  1  0  0  0
  1  2  1  0  0  0
  1 11  1  0  0  0
  2  3  2  0  0  0
  3  4  1  0  0  0
  4  5  1  0  0  0
  4 11  2  0  0  0
  5  6  2  0  0  0
  5  7  1  0  0  0
  7  8  1  0  0  0
  8  9  1  0  0  0
  8 10  2  0  0  0
 10 11  1  0  0  0
 24 26  1  0  0  0
 18 22  1  0  0  0
 20 23  1  0  0  0
  7 12  1  0  0  0
  9 13  1  0  0  0
  9 14  1  0  0  0
M  END
> <minimizedAffinity>
-8.30318

$$$$
2FQX_GMP_A_400


 26 28  0  0  0  0  0  0  0  0999 V2000
   34.9568   59.0715   10.2061 N   0  0  0  0  0  0  0  0  0  0  0  0
   34.2804   58.6760   11.2844 C   0  0  0  0  0  0  0  0  0  0  0  0
   33.5675   59.6965   11.7556 N   0  0  0  0  0  0  0  0  0  0  0  0
   33.7856   60.7532   10.9760 C   0  0  0  0  0  0  0  0  0  0  0  0
   33.3132   62.0611   10.9488 C   0  0  0  0  0  0  0  0  0  0  0  0
   32.5552   62.4971   11.8176 O   0  0  0  0  0  0  0  0  0  0  0  0
   33.7367   62.9085    9.9216 N   0  0  0  0  0  0  0  0  0  0  0  0
   34.6284   62.4406    8.9458 C   0  0  0  0  0  0  0  0  0  0  0  0
   35.0324   63.2480    7.9711 N   0  0  0  0  0  0  0  0  0  0  0  0
   35.0682   61.1778    9.0071 N   0  0  0  0  0  0  0  0  0  0  0  0
   34.6695   60.3478    9.9833 C   0  0  0  0  0  0  0  0  0  0  0  0
   33.4083   63.8358    9.8829 H   0  0  0  0  0  0  0  0  0  0  0  0
   34.7046   64.1755    7.9326 H   0  0  0  0  0  0  0  0  0  0  0  0
   35.6596   62.9188    7.2873 H   0  0  0  0  0  0  0  0  0  0  0  0
   35.5737   58.2919    7.0183 C   0  0  0  0  0  0  0  0  0  0  0  0
   36.0900   59.0187    8.1456 O   0  0  0  0  0  0  0  0  0  0  0  0
   34.4748   57.4096    7.6122 C   0  0  0  0  0  0  0  0  0  0  0  0
   34.2461   56.2737    6.7705 O   0  0  0  0  0  0  0  0  0  0  0  0
   35.1695   56.9501    8.8918 C   0  0  0  0  0  0  0  0  0  0  0  0
   36.1909   55.9913    8.5979 O   0  0  0  0  0  0  0  0  0  0  0  0
   35.8372   58.2532    9.3389 C   0  0  0  0  0  0  0  0  0  0  0  0
   35.0826   55.8041    6.6268 H   0  0  0  0  0  0  0  0  0  0  0  0
   36.8113   56.3669    7.9537 H   0  0  0  0  0  0  0  0  0  0  0  0
   35.5300   60.6073    6.1887 O   0  0  0  0  0  0  0  0  0  0  0  0
   35.0253   59.2825    5.9840 C   0  0  0  0  0  0  0  0  0  0  0  0
   35.1608   61.2014    5.5167 H   0  0  0  0  0  0  0  0  0  0  0  0
 24 25  1  0  0  0
 25 15  1  0  0  0
 15 16  1  0  0  0
 15 17  1  0  0  0
 16 21  1  0  0  0
 17 18  1  0  0  0
 17 19  1  0  0  0
 19 20  1  0  0  0
 19 21  1  0  0  0
 21  1  1  0  0  0
  1  2  1  0  0  0
  1 11  1  0  0  0
  2  3  2  0  0  0
  3  4  1  0  0  0
  4  5  1  0  0  0
  4 11  2  0  0  0
  5  6  2  0  0  0
  5  7  1  0  0  0
  7  8  1  0  0  0
  8  9  1  0  0  0
  8 10  2  0  0  0
 10 11  1  0  0  0
 24 26  1  0  0  0
 18 22  1  0  0  0
 20 23  1  0  0  0
  7 12  1  0  0  0
  9 13  1  0  0  0
  9 14  1  0  0  0
M  END
> <minimizedAffinity>
-7.50550

$$$$
