3W5N_RAM_A_1202


 15 15  0  0  0  0  0  0  0  0999 V2000
   25.5661    2.5148   29.0163 C   0  0  0  0  0  0  0  0  0  0  0  0
   25.3219    3.7553   28.1386 C   0  0  0  0  0  0  0  0  0  0  0  0
   25.3986    5.0672   28.9540 C   0  0  0  0  0  0  0  0  0  0  0  0
   25.0186    4.9508   30.4407 C   0  0  0  0  0  0  0  0  0  0  0  0
   24.1422    3.7424   30.6138 C   0  0  0  0  0  0  0  0  0  0  0  0
   23.7179    3.6698   32.0853 C   0  0  0  0  0  0  0  0  0  0  0  0
   25.0632    1.3281   28.3927 O   0  0  0  0  0  0  0  0  0  0  0  0
   26.2436    3.7093   27.0174 O   0  0  0  0  0  0  0  0  0  0  0  0
   26.7307    5.5583   28.9996 O   0  0  0  0  0  0  0  0  0  0  0  0
   24.3098    6.1075   30.9381 O   0  0  0  0  0  0  0  0  0  0  0  0
   24.9127    2.5906   30.2762 O   0  0  0  0  0  0  0  0  0  0  0  0
   24.1009    1.3982   28.2929 H   0  0  0  0  0  0  0  0  0  0  0  0
   27.1555    3.7199   27.3478 H   0  0  0  0  0  0  0  0  0  0  0  0
   27.2911    4.9288   29.4797 H   0  0  0  0  0  0  0  0  0  0  0  0
   23.4764    6.2096   30.4524 H   0  0  0  0  0  0  0  0  0  0  0  0
  1  2  1  0  0  0
  1  7  1  0  0  0
  1 11  1  0  0  0
  2  3  1  0  0  0
  2  8  1  0  0  0
  3  4  1  0  0  0
  3  9  1  0  0  0
  4  5  1  0  0  0
  4 10  1  0  0  0
  5  6  1  0  0  0
  5 11  1  0  0  0
  7 12  1  0  0  0
  8 13  1  0  0  0
  9 14  1  0  0  0
 10 15  1  0  0  0
M  END
> <minimizedAffinity>
-8.30905

$$$$
3W5N_RAM_A_1202


 15 15  0  0  0  0  0  0  0  0999 V2000
   25.7318    3.4290   28.7927 C   0  0  0  0  0  0  0  0  0  0  0  0
   25.0349    4.7987   28.8774 C   0  0  0  0  0  0  0  0  0  0  0  0
   24.5802    5.1302   30.3179 C   0  0  0  0  0  0  0  0  0  0  0  0
   24.2540    3.9187   31.2091 C   0  0  0  0  0  0  0  0  0  0  0  0
   23.9177    2.7533   30.3219 C   0  0  0  0  0  0  0  0  0  0  0  0
   23.5339    1.5695   31.2175 C   0  0  0  0  0  0  0  0  0  0  0  0
   25.7426    2.9320   27.4500 O   0  0  0  0  0  0  0  0  0  0  0  0
   25.9176    5.7962   28.2990 O   0  0  0  0  0  0  0  0  0  0  0  0
   25.6132    5.7895   31.0363 O   0  0  0  0  0  0  0  0  0  0  0  0
   23.1419    4.1528   32.1014 O   0  0  0  0  0  0  0  0  0  0  0  0
   25.0823    2.4284   29.5653 O   0  0  0  0  0  0  0  0  0  0  0  0
   24.8312    2.7857   27.1521 H   0  0  0  0  0  0  0  0  0  0  0  0
   26.7477    5.8229   28.8001 H   0  0  0  0  0  0  0  0  0  0  0  0
   26.3681    5.1893   31.1409 H   0  0  0  0  0  0  0  0  0  0  0  0
   22.3423    4.3303   31.5818 H   0  0  0  0  0  0  0  0  0  0  0  0
  1  2  1  0  0  0
  1  7  1  0  0  0
  1 11  1  0  0  0
  2  3  1  0  0  0
  2  8  1  0  0  0
  3  4  1  0  0  0
  3  9  1  0  0  0
  4  5  1  0  0  0
  4 10  1  0  0  0
  5  6  1  0  0  0
  5 11  1  0  0  0
  7 12  1  0  0  0
  8 13  1  0  0  0
  9 14  1  0  0  0
 10 15  1  0  0  0
M  END
> <minimizedAffinity>
-7.04623

$$$$
3W5N_RAM_A_1202


 15 15  0  0  0  0  0  0  0  0999 V2000
   24.0461    4.1332   31.1299 C   0  0  0  0  0  0  0  0  0  0  0  0
   25.3252    4.8718   30.6975 C   0  0  0  0  0  0  0  0  0  0  0  0
   25.5645    4.7739   29.1728 C   0  0  0  0  0  0  0  0  0  0  0  0
   24.9990    3.5165   28.4890 C   0  0  0  0  0  0  0  0  0  0  0  0
   24.8482    2.4392   29.5257 C   0  0  0  0  0  0  0  0  0  0  0  0
   24.3437    1.1724   28.8248 C   0  0  0  0  0  0  0  0  0  0  0  0
   24.0624    3.8393   32.5311 O   0  0  0  0  0  0  0  0  0  0  0  0
   25.2536    6.2355   31.1915 O   0  0  0  0  0  0  0  0  0  0  0  0
   24.9118    5.8337   28.4883 O   0  0  0  0  0  0  0  0  0  0  0  0
   25.8439    3.0182   27.4280 O   0  0  0  0  0  0  0  0  0  0  0  0
   23.8831    2.8804   30.4787 O   0  0  0  0  0  0  0  0  0  0  0  0
   24.7967    3.2365   32.7266 H   0  0  0  0  0  0  0  0  0  0  0  0
   24.4790    6.6773   30.8099 H   0  0  0  0  0  0  0  0  0  0  0  0
   23.9521    5.7481   28.5999 H   0  0  0  0  0  0  0  0  0  0  0  0
   26.7056    2.7638   27.7934 H   0  0  0  0  0  0  0  0  0  0  0  0
  1  2  1  0  0  0
  1  7  1  0  0  0
  1 11  1  0  0  0
  2  3  1  0  0  0
  2  8  1  0  0  0
  3  4  1  0  0  0
  3  9  1  0  0  0
  4  5  1  0  0  0
  4 10  1  0  0  0
  5  6  1  0  0  0
  5 11  1  0  0  0
  7 12  1  0  0  0
  8 13  1  0  0  0
  9 14  1  0  0  0
 10 15  1  0  0  0
M  END
> <minimizedAffinity>
-6.92706

$$$$
3W5N_RAM_A_1202


 15 15  0  0  0  0  0  0  0  0999 V2000
   25.0272    1.7016   29.7858 C   0  0  0  0  0  0  0  0  0  0  0  0
   24.8876    2.0781   28.3000 C   0  0  0  0  0  0  0  0  0  0  0  0
   25.4540    3.4861   28.0026 C   0  0  0  0  0  0  0  0  0  0  0  0
   25.4064    4.4842   29.1729 C   0  0  0  0  0  0  0  0  0  0  0  0
   24.3341    4.0442   30.1293 C   0  0  0  0  0  0  0  0  0  0  0  0
   24.2516    5.0774   31.2591 C   0  0  0  0  0  0  0  0  0  0  0  0
   24.1313    0.6429   30.1415 O   0  0  0  0  0  0  0  0  0  0  0  0
   25.4921    1.0248   27.5039 O   0  0  0  0  0  0  0  0  0  0  0  0
   26.8384    3.4201   27.6916 O   0  0  0  0  0  0  0  0  0  0  0  0
   25.1216    5.8375   28.7542 O   0  0  0  0  0  0  0  0  0  0  0  0
   24.7148    2.7768   30.6613 O   0  0  0  0  0  0  0  0  0  0  0  0
   23.2157    0.9422   30.0278 H   0  0  0  0  0  0  0  0  0  0  0  0
   26.4317    0.9459   27.7318 H   0  0  0  0  0  0  0  0  0  0  0  0
   27.3296    3.1085   28.4678 H   0  0  0  0  0  0  0  0  0  0  0  0
   24.2473    5.8691   28.3353 H   0  0  0  0  0  0  0  0  0  0  0  0
  1  2  1  0  0  0
  1  7  1  0  0  0
  1 11  1  0  0  0
  2  3  1  0  0  0
  2  8  1  0  0  0
  3  4  1  0  0  0
  3  9  1  0  0  0
  4  5  1  0  0  0
  4 10  1  0  0  0
  5  6  1  0  0  0
  5 11  1  0  0  0
  7 12  1  0  0  0
  8 13  1  0  0  0
  9 14  1  0  0  0
 10 15  1  0  0  0
M  END
> <minimizedAffinity>
-6.75755

$$$$
3W5N_RAM_A_1202


 15 15  0  0  0  0  0  0  0  0999 V2000
   25.1952    4.6657   28.8260 C   0  0  0  0  0  0  0  0  0  0  0  0
   25.9348    3.3210   28.7095 C   0  0  0  0  0  0  0  0  0  0  0  0
   25.0716    2.1389   29.2087 C   0  0  0  0  0  0  0  0  0  0  0  0
   24.0330    2.4827   30.2910 C   0  0  0  0  0  0  0  0  0  0  0  0
   24.4765    3.7344   30.9944 C   0  0  0  0  0  0  0  0  0  0  0  0
   23.4695    4.0343   32.1110 C   0  0  0  0  0  0  0  0  0  0  0  0
   26.1096    5.7672   28.8011 O   0  0  0  0  0  0  0  0  0  0  0  0
   26.3958    3.1710   27.3407 O   0  0  0  0  0  0  0  0  0  0  0  0
   24.2770    1.6116   28.1559 O   0  0  0  0  0  0  0  0  0  0  0  0
   23.8693    1.4365   31.2741 O   0  0  0  0  0  0  0  0  0  0  0  0
   24.4723    4.7966   30.0427 O   0  0  0  0  0  0  0  0  0  0  0  0
   26.6958    5.7183   29.5724 H   0  0  0  0  0  0  0  0  0  0  0  0
   25.6337    3.1752   26.7406 H   0  0  0  0  0  0  0  0  0  0  0  0
   23.6414    2.2832   27.8630 H   0  0  0  0  0  0  0  0  0  0  0  0
   24.7089    1.2955   31.7390 H   0  0  0  0  0  0  0  0  0  0  0  0
  1  2  1  0  0  0
  1  7  1  0  0  0
  1 11  1  0  0  0
  2  3  1  0  0  0
  2  8  1  0  0  0
  3  4  1  0  0  0
  3  9  1  0  0  0
  4  5  1  0  0  0
  4 10  1  0  0  0
  5  6  1  0  0  0
  5 11  1  0  0  0
  7 12  1  0  0  0
  8 13  1  0  0  0
  9 14  1  0  0  0
 10 15  1  0  0  0
M  END
> <minimizedAffinity>
-6.69258

$$$$
3W5N_RAM_A_1202


 15 15  0  0  0  0  0  0  0  0999 V2000
   25.3165    3.3844   27.9248 C   0  0  0  0  0  0  0  0  0  0  0  0
   25.5594    2.0128   28.5794 C   0  0  0  0  0  0  0  0  0  0  0  0
   24.5545    1.7280   29.7200 C   0  0  0  0  0  0  0  0  0  0  0  0
   24.0046    2.9672   30.4482 C   0  0  0  0  0  0  0  0  0  0  0  0
   24.9765    4.0980   30.2618 C   0  0  0  0  0  0  0  0  0  0  0  0
   24.4519    5.3092   31.0419 C   0  0  0  0  0  0  0  0  0  0  0  0
   26.4742    3.8343   27.2126 O   0  0  0  0  0  0  0  0  0  0  0  0
   25.5605    1.0031   27.5358 O   0  0  0  0  0  0  0  0  0  0  0  0
   23.3820    1.1029   29.2179 O   0  0  0  0  0  0  0  0  0  0  0  0
   23.8126    2.7551   31.8646 O   0  0  0  0  0  0  0  0  0  0  0  0
   25.0285    4.4059   28.8701 O   0  0  0  0  0  0  0  0  0  0  0  0
   27.2071    3.9625   27.8349 H   0  0  0  0  0  0  0  0  0  0  0  0
   24.7004    1.0008   27.0872 H   0  0  0  0  0  0  0  0  0  0  0  0
   22.9209    1.7126   28.6207 H   0  0  0  0  0  0  0  0  0  0  0  0
   24.6656    2.5529   32.2798 H   0  0  0  0  0  0  0  0  0  0  0  0
  1  2  1  0  0  0
  1  7  1  0  0  0
  1 11  1  0  0  0
  2  3  1  0  0  0
  2  8  1  0  0  0
  3  4  1  0  0  0
  3  9  1  0  0  0
  4  5  1  0  0  0
  4 10  1  0  0  0
  5  6  1  0  0  0
  5 11  1  0  0  0
  7 12  1  0  0  0
  8 13  1  0  0  0
  9 14  1  0  0  0
 10 15  1  0  0  0
M  END
> <minimizedAffinity>
-6.64925

$$$$
3W5N_RAM_A_1202


 15 15  0  0  0  0  0  0  0  0999 V2000
   26.0491    3.4438   28.4989 C   0  0  0  0  0  0  0  0  0  0  0  0
   24.9519    4.4105   28.9793 C   0  0  0  0  0  0  0  0  0  0  0  0
   24.2572    3.9063   30.2657 C   0  0  0  0  0  0  0  0  0  0  0  0
   24.2305    2.3792   30.4538 C   0  0  0  0  0  0  0  0  0  0  0  0
   24.3797    1.7319   29.1059 C   0  0  0  0  0  0  0  0  0  0  0  0
   24.2896    0.2131   29.2955 C   0  0  0  0  0  0  0  0  0  0  0  0
   26.3664    3.6599   27.1195 O   0  0  0  0  0  0  0  0  0  0  0  0
   25.5353    5.7338   29.1103 O   0  0  0  0  0  0  0  0  0  0  0  0
   24.9428    4.3615   31.4235 O   0  0  0  0  0  0  0  0  0  0  0  0
   23.0084    1.9027   31.0597 O   0  0  0  0  0  0  0  0  0  0  0  0
   25.6646    2.0788   28.5932 O   0  0  0  0  0  0  0  0  0  0  0  0
   25.5868    3.4695   26.5747 H   0  0  0  0  0  0  0  0  0  0  0  0
   26.2531    5.7076   29.7622 H   0  0  0  0  0  0  0  0  0  0  0  0
   25.8313    3.9729   31.4468 H   0  0  0  0  0  0  0  0  0  0  0  0
   22.2572    2.1182   30.4850 H   0  0  0  0  0  0  0  0  0  0  0  0
  1  2  1  0  0  0
  1  7  1  0  0  0
  1 11  1  0  0  0
  2  3  1  0  0  0
  2  8  1  0  0  0
  3  4  1  0  0  0
  3  9  1  0  0  0
  4  5  1  0  0  0
  4 10  1  0  0  0
  5  6  1  0  0  0
  5 11  1  0  0  0
  7 12  1  0  0  0
  8 13  1  0  0  0
  9 14  1  0  0  0
 10 15  1  0  0  0
M  END
> <minimizedAffinity>
-6.49758

$$$$
3W5N_RAM_A_1202


 15 15  0  0  0  0  0  0  0  0999 V2000
   25.3685    2.7742   28.4120 C   0  0  0  0  0  0  0  0  0  0  0  0
   25.4511    1.2385   28.4719 C   0  0  0  0  0  0  0  0  0  0  0  0
   24.1902    0.6142   29.1140 C   0  0  0  0  0  0  0  0  0  0  0  0
   23.4571    1.4980   30.1385 C   0  0  0  0  0  0  0  0  0  0  0  0
   24.4310    2.5072   30.6783 C   0  0  0  0  0  0  0  0  0  0  0  0
   23.7093    3.3421   31.7427 C   0  0  0  0  0  0  0  0  0  0  0  0
   26.6650    3.3599   28.2509 O   0  0  0  0  0  0  0  0  0  0  0  0
   25.7322    0.7443   27.1357 O   0  0  0  0  0  0  0  0  0  0  0  0
   23.1935    0.3635   28.1334 O   0  0  0  0  0  0  0  0  0  0  0  0
   22.9101    0.7490   31.2465 O   0  0  0  0  0  0  0  0  0  0  0  0
   24.8353    3.3468   29.5986 O   0  0  0  0  0  0  0  0  0  0  0  0
   27.2118    3.1528   29.0249 H   0  0  0  0  0  0  0  0  0  0  0  0
   25.0164    1.0077   26.5363 H   0  0  0  0  0  0  0  0  0  0  0  0
   22.8943    1.2046   27.7541 H   0  0  0  0  0  0  0  0  0  0  0  0
   23.6300    0.3141   31.7296 H   0  0  0  0  0  0  0  0  0  0  0  0
  1  2  1  0  0  0
  1  7  1  0  0  0
  1 11  1  0  0  0
  2  3  1  0  0  0
  2  8  1  0  0  0
  3  4  1  0  0  0
  3  9  1  0  0  0
  4  5  1  0  0  0
  4 10  1  0  0  0
  5  6  1  0  0  0
  5 11  1  0  0  0
  7 12  1  0  0  0
  8 13  1  0  0  0
  9 14  1  0  0  0
 10 15  1  0  0  0
M  END
> <minimizedAffinity>
-5.60212

$$$$
3W5N_RAM_A_1202


 15 15  0  0  0  0  0  0  0  0999 V2000
   25.3308    1.4978   28.5504 C   0  0  0  0  0  0  0  0  0  0  0  0
   24.8889    2.9531   28.3144 C   0  0  0  0  0  0  0  0  0  0  0  0
   24.6525    3.7102   29.6421 C   0  0  0  0  0  0  0  0  0  0  0  0
   24.2225    2.8412   30.8371 C   0  0  0  0  0  0  0  0  0  0  0  0
   23.6014    1.5794   30.3078 C   0  0  0  0  0  0  0  0  0  0  0  0
   23.1200    0.7488   31.5033 C   0  0  0  0  0  0  0  0  0  0  0  0
   25.1145    0.6923   27.3866 O   0  0  0  0  0  0  0  0  0  0  0  0
   25.8612    3.5896   27.4437 O   0  0  0  0  0  0  0  0  0  0  0  0
   25.8526    4.3165   30.1002 O   0  0  0  0  0  0  0  0  0  0  0  0
   23.2673    3.4962   31.7011 O   0  0  0  0  0  0  0  0  0  0  0  0
   24.6070    0.8618   29.5952 O   0  0  0  0  0  0  0  0  0  0  0  0
   24.1650    0.6538   27.1919 H   0  0  0  0  0  0  0  0  0  0  0  0
   26.7323    3.5801   27.8703 H   0  0  0  0  0  0  0  0  0  0  0  0
   26.5017    3.6281   30.3135 H   0  0  0  0  0  0  0  0  0  0  0  0
   22.4586    3.6893   31.2014 H   0  0  0  0  0  0  0  0  0  0  0  0
  1  2  1  0  0  0
  1  7  1  0  0  0
  1 11  1  0  0  0
  2  3  1  0  0  0
  2  8  1  0  0  0
  3  4  1  0  0  0
  3  9  1  0  0  0
  4  5  1  0  0  0
  4 10  1  0  0  0
  5  6  1  0  0  0
  5 11  1  0  0  0
  7 12  1  0  0  0
  8 13  1  0  0  0
  9 14  1  0  0  0
 10 15  1  0  0  0
M  END
> <minimizedAffinity>
-5.56188

$$$$
3W5N_RAM_A_1202


 15 15  0  0  0  0  0  0  0  0999 V2000
   23.6946    2.8779   30.6142 C   0  0  0  0  0  0  0  0  0  0  0  0
   24.4312    3.8418   31.5614 C   0  0  0  0  0  0  0  0  0  0  0  0
   24.9729    5.0849   30.8178 C   0  0  0  0  0  0  0  0  0  0  0  0
   25.3153    4.8759   29.3321 C   0  0  0  0  0  0  0  0  0  0  0  0
   25.5714    3.4127   29.1049 C   0  0  0  0  0  0  0  0  0  0  0  0
   25.9723    3.2226   27.6373 C   0  0  0  0  0  0  0  0  0  0  0  0
   23.5970    1.5657   31.1787 O   0  0  0  0  0  0  0  0  0  0  0  0
   23.5448    4.1618   32.6662 O   0  0  0  0  0  0  0  0  0  0  0  0
   23.9988    6.1181   30.7814 O   0  0  0  0  0  0  0  0  0  0  0  0
   26.4805    5.6176   28.9079 O   0  0  0  0  0  0  0  0  0  0  0  0
   24.3589    2.7097   29.3690 O   0  0  0  0  0  0  0  0  0  0  0  0
   24.4865    1.1967   31.2949 H   0  0  0  0  0  0  0  0  0  0  0  0
   22.7445    4.5906   32.3249 H   0  0  0  0  0  0  0  0  0  0  0  0
   23.2352    5.8243   30.2604 H   0  0  0  0  0  0  0  0  0  0  0  0
   27.2549    5.3178   29.4093 H   0  0  0  0  0  0  0  0  0  0  0  0
  1  2  1  0  0  0
  1  7  1  0  0  0
  1 11  1  0  0  0
  2  3  1  0  0  0
  2  8  1  0  0  0
  3  4  1  0  0  0
  3  9  1  0  0  0
  4  5  1  0  0  0
  4 10  1  0  0  0
  5  6  1  0  0  0
  5 11  1  0  0  0
  7 12  1  0  0  0
  8 13  1  0  0  0
  9 14  1  0  0  0
 10 15  1  0  0  0
M  END
> <minimizedAffinity>
-5.54338

$$$$
