1GPN_HUB_A_1538


 21 24  0  0  0  0  0  0  0  0999 V2000
    4.5709   63.7263   63.3308 C   0  0  0  0  0  0  0  0  0  0  0  0
    4.9455   62.6154   62.9487 O   0  0  0  0  0  0  0  0  0  0  0  0
    4.8978   64.8599   62.5907 N   0  0  0  0  0  0  0  0  0  0  0  0
    3.7904   63.9410   64.5363 C   0  0  0  0  0  0  0  0  0  0  0  0
    3.4069   65.2072   64.8984 C   0  0  0  0  0  0  0  0  0  0  0  0
    3.7415   66.3782   64.1260 C   0  0  0  0  0  0  0  0  0  0  0  0
    4.5313   66.1708   62.9423 C   0  0  0  0  0  0  0  0  0  0  0  0
    4.9900   67.2883   62.0254 C   0  0  0  0  0  0  0  0  0  0  0  0
    4.6155   68.7568   62.5643 C   0  0  0  0  0  0  0  0  0  0  0  0
    5.6799   69.2626   63.5723 C   0  0  0  0  0  0  0  0  0  0  0  0
    0.7736   68.2718   63.0783 C   0  0  0  0  0  0  0  0  0  0  0  0
    2.1259   68.2824   62.3457 C   0  0  0  0  0  0  0  0  0  0  0  0
    3.2468   68.7596   63.2866 C   0  0  0  0  0  0  0  0  0  0  0  0
    3.2885   67.8607   64.5607 C   0  0  0  0  0  0  0  0  0  0  0  0
    1.9403   67.8466   65.2426 N   0  0  0  0  0  0  0  0  0  0  0  0
    4.3581   68.3927   65.5685 C   0  0  0  0  0  0  0  0  0  0  0  0
    5.5559   69.0957   64.9408 C   0  0  0  0  0  0  0  0  0  0  0  0
    6.5692   69.5882   65.9424 C   0  0  0  0  0  0  0  0  0  0  0  0
    0.7846   67.3703   64.3037 C   0  0  0  0  0  0  0  0  0  0  0  0
    5.4206   64.7348   61.7660 H   0  0  0  0  0  0  0  0  0  0  0  0
    1.7290   68.7912   65.5643 H   0  0  0  0  0  0  0  0  0  0  0  0
  1  2  2  0  0  0
  1  3  1  0  0  0
  1  4  1  0  0  0
  3  7  1  0  0  0
  4  5  2  0  0  0
  5  6  1  0  0  0
  6  7  2  0  0  0
  6 14  1  0  0  0
  7  8  1  0  0  0
  8  9  1  0  0  0
  9 10  1  0  0  0
  9 13  1  0  0  0
 10 17  2  0  0  0
 11 12  1  0  0  0
 11 19  1  0  0  0
 12 13  1  0  0  0
 13 14  1  0  0  0
 14 15  1  0  0  0
 14 16  1  0  0  0
 15 19  1  0  0  0
 16 17  1  0  0  0
 17 18  1  0  0  0
  3 20  1  0  0  0
 15 21  1  0  0  0
M  END
> <minimizedAffinity>
-11.16739

$$$$
1GPN_HUB_A_1538


 21 24  0  0  0  0  0  0  0  0999 V2000
    1.1288   68.7678   61.3920 C   0  0  0  0  0  0  0  0  0  0  0  0
    0.5108   69.1920   60.4130 O   0  0  0  0  0  0  0  0  0  0  0  0
    2.4261   68.2857   61.2365 N   0  0  0  0  0  0  0  0  0  0  0  0
    0.5805   68.7335   62.7362 C   0  0  0  0  0  0  0  0  0  0  0  0
    1.3286   68.2488   63.7787 C   0  0  0  0  0  0  0  0  0  0  0  0
    2.6742   67.7566   63.6151 C   0  0  0  0  0  0  0  0  0  0  0  0
    3.2128   67.7708   62.2818 C   0  0  0  0  0  0  0  0  0  0  0  0
    4.6001   67.2730   61.9248 C   0  0  0  0  0  0  0  0  0  0  0  0
    5.3820   66.6063   63.1622 C   0  0  0  0  0  0  0  0  0  0  0  0
    4.9836   65.1168   63.3285 C   0  0  0  0  0  0  0  0  0  0  0  0
    5.0928   69.5330   65.7332 C   0  0  0  0  0  0  0  0  0  0  0  0
    5.4376   68.8195   64.4151 C   0  0  0  0  0  0  0  0  0  0  0  0
    5.0559   67.3302   64.4906 C   0  0  0  0  0  0  0  0  0  0  0  0
    3.5435   67.1875   64.8449 C   0  0  0  0  0  0  0  0  0  0  0  0
    3.2290   67.9216   66.1275 N   0  0  0  0  0  0  0  0  0  0  0  0
    3.1642   65.6814   65.0196 C   0  0  0  0  0  0  0  0  0  0  0  0
    3.9733   64.7011   64.1784 C   0  0  0  0  0  0  0  0  0  0  0  0
    3.5746   63.2597   64.3677 C   0  0  0  0  0  0  0  0  0  0  0  0
    3.6138   69.4359   66.0760 C   0  0  0  0  0  0  0  0  0  0  0  0
    2.8187   68.3069   60.3339 H   0  0  0  0  0  0  0  0  0  0  0  0
    3.7452   67.4809   66.8890 H   0  0  0  0  0  0  0  0  0  0  0  0
  1  2  2  0  0  0
  1  3  1  0  0  0
  1  4  1  0  0  0
  3  7  1  0  0  0
  4  5  2  0  0  0
  5  6  1  0  0  0
  6  7  2  0  0  0
  6 14  1  0  0  0
  7  8  1  0  0  0
  8  9  1  0  0  0
  9 10  1  0  0  0
  9 13  1  0  0  0
 10 17  2  0  0  0
 11 12  1  0  0  0
 11 19  1  0  0  0
 12 13  1  0  0  0
 13 14  1  0  0  0
 14 15  1  0  0  0
 14 16  1  0  0  0
 15 19  1  0  0  0
 16 17  1  0  0  0
 17 18  1  0  0  0
  3 20  1  0  0  0
 15 21  1  0  0  0
M  END
> <minimizedAffinity>
-10.43725

$$$$
1GPN_HUB_A_1538


 21 24  0  0  0  0  0  0  0  0999 V2000
    1.5264   68.6850   61.0818 C   0  0  0  0  0  0  0  0  0  0  0  0
    0.6638   69.1210   60.3160 O   0  0  0  0  0  0  0  0  0  0  0  0
    1.2858   68.6591   62.4533 N   0  0  0  0  0  0  0  0  0  0  0  0
    2.8153   68.1834   60.6394 C   0  0  0  0  0  0  0  0  0  0  0  0
    3.7259   67.7113   61.5499 C   0  0  0  0  0  0  0  0  0  0  0  0
    3.4707   67.6796   62.9690 C   0  0  0  0  0  0  0  0  0  0  0  0
    2.2031   68.1942   63.4120 C   0  0  0  0  0  0  0  0  0  0  0  0
    1.7772   68.2562   64.8662 C   0  0  0  0  0  0  0  0  0  0  0  0
    2.9293   67.8039   65.8934 C   0  0  0  0  0  0  0  0  0  0  0  0
    3.8809   68.9865   66.2106 C   0  0  0  0  0  0  0  0  0  0  0  0
    3.7738   64.3025   64.3813 C   0  0  0  0  0  0  0  0  0  0  0  0
    2.9154   65.4303   64.9785 C   0  0  0  0  0  0  0  0  0  0  0  0
    3.7865   66.6558   65.3084 C   0  0  0  0  0  0  0  0  0  0  0  0
    4.5472   67.1255   64.0302 C   0  0  0  0  0  0  0  0  0  0  0  0
    5.3581   65.9903   63.4500 N   0  0  0  0  0  0  0  0  0  0  0  0
    5.5089   68.3091   64.3722 C   0  0  0  0  0  0  0  0  0  0  0  0
    5.0566   69.2103   65.5152 C   0  0  0  0  0  0  0  0  0  0  0  0
    6.0048   70.3442   65.8111 C   0  0  0  0  0  0  0  0  0  0  0  0
    4.4945   64.7317   63.1121 C   0  0  0  0  0  0  0  0  0  0  0  0
    0.4148   68.9884   62.7730 H   0  0  0  0  0  0  0  0  0  0  0  0
    6.0723   65.7221   64.1270 H   0  0  0  0  0  0  0  0  0  0  0  0
  1  2  2  0  0  0
  1  3  1  0  0  0
  1  4  1  0  0  0
  3  7  1  0  0  0
  4  5  2  0  0  0
  5  6  1  0  0  0
  6  7  2  0  0  0
  6 14  1  0  0  0
  7  8  1  0  0  0
  8  9  1  0  0  0
  9 10  1  0  0  0
  9 13  1  0  0  0
 10 17  2  0  0  0
 11 12  1  0  0  0
 11 19  1  0  0  0
 12 13  1  0  0  0
 13 14  1  0  0  0
 14 15  1  0  0  0
 14 16  1  0  0  0
 15 19  1  0  0  0
 16 17  1  0  0  0
 17 18  1  0  0  0
  3 20  1  0  0  0
 15 21  1  0  0  0
M  END
> <minimizedAffinity>
-10.42711

$$$$
1GPN_HUB_A_1538


 21 24  0  0  0  0  0  0  0  0999 V2000
    3.8432   63.7949   64.0761 C   0  0  0  0  0  0  0  0  0  0  0  0
    3.8655   62.5839   64.3074 O   0  0  0  0  0  0  0  0  0  0  0  0
    2.8605   64.5929   64.6567 N   0  0  0  0  0  0  0  0  0  0  0  0
    4.7983   64.4665   63.2128 C   0  0  0  0  0  0  0  0  0  0  0  0
    4.7127   65.8193   63.0032 C   0  0  0  0  0  0  0  0  0  0  0  0
    3.6976   66.6437   63.6115 C   0  0  0  0  0  0  0  0  0  0  0  0
    2.7383   65.9782   64.4510 C   0  0  0  0  0  0  0  0  0  0  0  0
    1.5943   66.6849   65.1522 C   0  0  0  0  0  0  0  0  0  0  0  0
    1.4724   68.2433   64.7732 C   0  0  0  0  0  0  0  0  0  0  0  0
    0.6697   68.4304   63.4596 C   0  0  0  0  0  0  0  0  0  0  0  0
    5.1146   69.3771   65.6146 C   0  0  0  0  0  0  0  0  0  0  0  0
    3.7261   68.7541   65.8366 C   0  0  0  0  0  0  0  0  0  0  0  0
    2.8661   68.8835   64.5665 C   0  0  0  0  0  0  0  0  0  0  0  0
    3.6041   68.2307   63.3573 C   0  0  0  0  0  0  0  0  0  0  0  0
    4.9748   68.8418   63.1815 N   0  0  0  0  0  0  0  0  0  0  0  0
    2.7861   68.4396   62.0420 C   0  0  0  0  0  0  0  0  0  0  0  0
    1.2743   68.5215   62.2178 C   0  0  0  0  0  0  0  0  0  0  0  0
    0.5189   68.7155   60.9278 C   0  0  0  0  0  0  0  0  0  0  0  0
    5.8647   68.7270   64.4617 C   0  0  0  0  0  0  0  0  0  0  0  0
    2.2074   64.1576   65.2511 H   0  0  0  0  0  0  0  0  0  0  0  0
    4.8631   69.8291   62.9509 H   0  0  0  0  0  0  0  0  0  0  0  0
  1  2  2  0  0  0
  1  3  1  0  0  0
  1  4  1  0  0  0
  3  7  1  0  0  0
  4  5  2  0  0  0
  5  6  1  0  0  0
  6  7  2  0  0  0
  6 14  1  0  0  0
  7  8  1  0  0  0
  8  9  1  0  0  0
  9 10  1  0  0  0
  9 13  1  0  0  0
 10 17  2  0  0  0
 11 12  1  0  0  0
 11 19  1  0  0  0
 12 13  1  0  0  0
 13 14  1  0  0  0
 14 15  1  0  0  0
 14 16  1  0  0  0
 15 19  1  0  0  0
 16 17  1  0  0  0
 17 18  1  0  0  0
  3 20  1  0  0  0
 15 21  1  0  0  0
M  END
> <minimizedAffinity>
-10.23863

$$$$
1GPN_HUB_A_1538


 21 24  0  0  0  0  0  0  0  0999 V2000
    5.7334   70.1303   65.6173 C   0  0  0  0  0  0  0  0  0  0  0  0
    6.5370   70.9373   66.0898 O   0  0  0  0  0  0  0  0  0  0  0  0
    5.8683   69.7113   64.2960 N   0  0  0  0  0  0  0  0  0  0  0  0
    4.6214   69.5710   66.3652 C   0  0  0  0  0  0  0  0  0  0  0  0
    3.7677   68.6752   65.7735 C   0  0  0  0  0  0  0  0  0  0  0  0
    3.9144   68.2385   64.4069 C   0  0  0  0  0  0  0  0  0  0  0  0
    5.0028   68.8058   63.6576 C   0  0  0  0  0  0  0  0  0  0  0  0
    5.2927   68.4758   62.2061 C   0  0  0  0  0  0  0  0  0  0  0  0
    4.1908   67.5173   61.5322 C   0  0  0  0  0  0  0  0  0  0  0  0
    2.9842   68.3426   61.0146 C   0  0  0  0  0  0  0  0  0  0  0  0
    4.2428   64.5913   64.1197 C   0  0  0  0  0  0  0  0  0  0  0  0
    4.7882   65.6052   63.0999 C   0  0  0  0  0  0  0  0  0  0  0  0
    3.6499   66.4809   62.5463 C   0  0  0  0  0  0  0  0  0  0  0  0
    2.9055   67.1882   63.7206 C   0  0  0  0  0  0  0  0  0  0  0  0
    2.4065   66.1707   64.7198 N   0  0  0  0  0  0  0  0  0  0  0  0
    1.6871   68.0047   63.1807 C   0  0  0  0  0  0  0  0  0  0  0  0
    1.8447   68.5594   61.7698 C   0  0  0  0  0  0  0  0  0  0  0  0
    0.6536   69.3468   61.2863 C   0  0  0  0  0  0  0  0  0  0  0  0
    3.5454   65.2653   65.2919 C   0  0  0  0  0  0  0  0  0  0  0  0
    6.6202   70.0736   63.7739 H   0  0  0  0  0  0  0  0  0  0  0  0
    1.7177   65.5749   64.2604 H   0  0  0  0  0  0  0  0  0  0  0  0
  1  2  2  0  0  0
  1  3  1  0  0  0
  1  4  1  0  0  0
  3  7  1  0  0  0
  4  5  2  0  0  0
  5  6  1  0  0  0
  6  7  2  0  0  0
  6 14  1  0  0  0
  7  8  1  0  0  0
  8  9  1  0  0  0
  9 10  1  0  0  0
  9 13  1  0  0  0
 10 17  2  0  0  0
 11 12  1  0  0  0
 11 19  1  0  0  0
 12 13  1  0  0  0
 13 14  1  0  0  0
 14 15  1  0  0  0
 14 16  1  0  0  0
 15 19  1  0  0  0
 16 17  1  0  0  0
 17 18  1  0  0  0
  3 20  1  0  0  0
 15 21  1  0  0  0
M  END
> <minimizedAffinity>
-9.99200

$$$$
1GPN_HUB_A_1538


 21 24  0  0  0  0  0  0  0  0999 V2000
    0.8457   66.8370   65.6942 C   0  0  0  0  0  0  0  0  0  0  0  0
   -0.1138   66.3617   66.3056 O   0  0  0  0  0  0  0  0  0  0  0  0
    2.1020   66.2473   65.8105 N   0  0  0  0  0  0  0  0  0  0  0  0
    0.7541   68.0054   64.8368 C   0  0  0  0  0  0  0  0  0  0  0  0
    1.8652   68.4771   64.1855 C   0  0  0  0  0  0  0  0  0  0  0  0
    3.1633   67.8598   64.3030 C   0  0  0  0  0  0  0  0  0  0  0  0
    3.2614   66.7146   65.1671 C   0  0  0  0  0  0  0  0  0  0  0  0
    4.5496   65.9563   65.4230 C   0  0  0  0  0  0  0  0  0  0  0  0
    5.8381   66.6260   64.7315 C   0  0  0  0  0  0  0  0  0  0  0  0
    6.4225   67.7501   65.6257 C   0  0  0  0  0  0  0  0  0  0  0  0
    4.5358   66.8330   61.0544 C   0  0  0  0  0  0  0  0  0  0  0  0
    4.9045   66.1955   62.4046 C   0  0  0  0  0  0  0  0  0  0  0  0
    5.4804   67.2536   63.3628 C   0  0  0  0  0  0  0  0  0  0  0  0
    4.4622   68.4226   63.5361 C   0  0  0  0  0  0  0  0  0  0  0  0
    4.0970   69.0097   62.1927 N   0  0  0  0  0  0  0  0  0  0  0  0
    5.0732   69.5496   64.4300 C   0  0  0  0  0  0  0  0  0  0  0  0
    6.0717   69.0813   65.4820 C   0  0  0  0  0  0  0  0  0  0  0  0
    6.6337   70.1943   66.3293 C   0  0  0  0  0  0  0  0  0  0  0  0
    3.5148   67.9513   61.2002 C   0  0  0  0  0  0  0  0  0  0  0  0
    2.1837   65.4497   66.3818 H   0  0  0  0  0  0  0  0  0  0  0  0
    4.9348   69.4176   61.7779 H   0  0  0  0  0  0  0  0  0  0  0  0
  1  2  2  0  0  0
  1  3  1  0  0  0
  1  4  1  0  0  0
  3  7  1  0  0  0
  4  5  2  0  0  0
  5  6  1  0  0  0
  6  7  2  0  0  0
  6 14  1  0  0  0
  7  8  1  0  0  0
  8  9  1  0  0  0
  9 10  1  0  0  0
  9 13  1  0  0  0
 10 17  2  0  0  0
 11 12  1  0  0  0
 11 19  1  0  0  0
 12 13  1  0  0  0
 13 14  1  0  0  0
 14 15  1  0  0  0
 14 16  1  0  0  0
 15 19  1  0  0  0
 16 17  1  0  0  0
 17 18  1  0  0  0
  3 20  1  0  0  0
 15 21  1  0  0  0
M  END
> <minimizedAffinity>
-9.00737

$$$$
1GPN_HUB_A_1538


 21 24  0  0  0  0  0  0  0  0999 V2000
    5.5079   69.9987   65.8021 C   0  0  0  0  0  0  0  0  0  0  0  0
    5.9815   70.8198   66.5907 O   0  0  0  0  0  0  0  0  0  0  0  0
    4.2368   69.4757   66.0271 N   0  0  0  0  0  0  0  0  0  0  0  0
    6.2053   69.5236   64.6204 C   0  0  0  0  0  0  0  0  0  0  0  0
    5.6141   68.6094   63.7862 C   0  0  0  0  0  0  0  0  0  0  0  0
    4.2949   68.0750   64.0187 C   0  0  0  0  0  0  0  0  0  0  0  0
    3.6097   68.5285   65.1989 C   0  0  0  0  0  0  0  0  0  0  0  0
    2.2278   68.0567   65.6081 C   0  0  0  0  0  0  0  0  0  0  0  0
    1.6372   66.8983   64.6613 C   0  0  0  0  0  0  0  0  0  0  0  0
    2.1515   65.5051   65.1077 C   0  0  0  0  0  0  0  0  0  0  0  0
    2.0161   68.6684   61.1997 C   0  0  0  0  0  0  0  0  0  0  0  0
    1.5739   68.4657   62.6587 C   0  0  0  0  0  0  0  0  0  0  0  0
    2.0614   67.1048   63.1873 C   0  0  0  0  0  0  0  0  0  0  0  0
    3.6103   67.0002   63.0346 C   0  0  0  0  0  0  0  0  0  0  0  0
    4.0171   67.2319   61.5980 N   0  0  0  0  0  0  0  0  0  0  0  0
    4.1077   65.5866   63.4782 C   0  0  0  0  0  0  0  0  0  0  0  0
    3.2770   64.9113   64.5631 C   0  0  0  0  0  0  0  0  0  0  0  0
    3.7909   63.5539   64.9701 C   0  0  0  0  0  0  0  0  0  0  0  0
    3.5275   68.6067   61.0375 C   0  0  0  0  0  0  0  0  0  0  0  0
    3.7444   69.7905   66.8194 H   0  0  0  0  0  0  0  0  0  0  0  0
    3.6210   66.4874   61.0242 H   0  0  0  0  0  0  0  0  0  0  0  0
  1  2  2  0  0  0
  1  3  1  0  0  0
  1  4  1  0  0  0
  3  7  1  0  0  0
  4  5  2  0  0  0
  5  6  1  0  0  0
  6  7  2  0  0  0
  6 14  1  0  0  0
  7  8  1  0  0  0
  8  9  1  0  0  0
  9 10  1  0  0  0
  9 13  1  0  0  0
 10 17  2  0  0  0
 11 12  1  0  0  0
 11 19  1  0  0  0
 12 13  1  0  0  0
 13 14  1  0  0  0
 14 15  1  0  0  0
 14 16  1  0  0  0
 15 19  1  0  0  0
 16 17  1  0  0  0
 17 18  1  0  0  0
  3 20  1  0  0  0
 15 21  1  0  0  0
M  END
> <minimizedAffinity>
-9.00379

$$$$
1GPN_HUB_A_1538


 21 24  0  0  0  0  0  0  0  0999 V2000
    1.4348   68.6169   61.2025 C   0  0  0  0  0  0  0  0  0  0  0  0
    0.7562   68.9554   60.2301 O   0  0  0  0  0  0  0  0  0  0  0  0
    0.8076   68.1731   62.3640 N   0  0  0  0  0  0  0  0  0  0  0  0
    2.8863   68.6519   61.2215 C   0  0  0  0  0  0  0  0  0  0  0  0
    3.5754   68.2577   62.3400 C   0  0  0  0  0  0  0  0  0  0  0  0
    2.9227   67.7922   63.5388 C   0  0  0  0  0  0  0  0  0  0  0  0
    1.4848   67.7754   63.5301 C   0  0  0  0  0  0  0  0  0  0  0  0
    0.6372   67.3362   64.7084 C   0  0  0  0  0  0  0  0  0  0  0  0
    1.4942   67.0026   66.0280 C   0  0  0  0  0  0  0  0  0  0  0  0
    1.7922   68.2938   66.8333 C   0  0  0  0  0  0  0  0  0  0  0  0
    3.9971   64.4165   64.5092 C   0  0  0  0  0  0  0  0  0  0  0  0
    2.6432   65.0467   64.8767 C   0  0  0  0  0  0  0  0  0  0  0  0
    2.8508   66.3502   65.6686 C   0  0  0  0  0  0  0  0  0  0  0  0
    3.7406   67.3338   64.8476 C   0  0  0  0  0  0  0  0  0  0  0  0
    5.0504   66.6783   64.4767 N   0  0  0  0  0  0  0  0  0  0  0  0
    4.0393   68.6227   65.6796 C   0  0  0  0  0  0  0  0  0  0  0  0
    2.9552   69.0268   66.6718 C   0  0  0  0  0  0  0  0  0  0  0  0
    3.2747   70.2777   67.4500 C   0  0  0  0  0  0  0  0  0  0  0  0
    4.8641   65.3485   63.6760 C   0  0  0  0  0  0  0  0  0  0  0  0
   -0.1762   68.1352   62.3689 H   0  0  0  0  0  0  0  0  0  0  0  0
    5.5647   66.4724   65.3332 H   0  0  0  0  0  0  0  0  0  0  0  0
  1  2  2  0  0  0
  1  3  1  0  0  0
  1  4  1  0  0  0
  3  7  1  0  0  0
  4  5  2  0  0  0
  5  6  1  0  0  0
  6  7  2  0  0  0
  6 14  1  0  0  0
  7  8  1  0  0  0
  8  9  1  0  0  0
  9 10  1  0  0  0
  9 13  1  0  0  0
 10 17  2  0  0  0
 11 12  1  0  0  0
 11 19  1  0  0  0
 12 13  1  0  0  0
 13 14  1  0  0  0
 14 15  1  0  0  0
 14 16  1  0  0  0
 15 19  1  0  0  0
 16 17  1  0  0  0
 17 18  1  0  0  0
  3 20  1  0  0  0
 15 21  1  0  0  0
M  END
> <minimizedAffinity>
-8.40411

$$$$
