4OWM_3F0_A_404


 14 14  0  0  0  0  0  0  0  0999 V2000
  -17.8609  -34.7159   16.3635 C   0  0  0  0  0  0  0  0  0  0  0  0
  -18.7287  -34.7251   17.4674 C   0  0  0  0  0  0  0  0  0  0  0  0
  -19.3877  -33.5342   17.8301 C   0  0  0  0  0  0  0  0  0  0  0  0
  -19.1765  -32.3595   17.0988 C   0  0  0  0  0  0  0  0  0  0  0  0
  -18.3020  -32.3387   16.0068 C   0  0  0  0  0  0  0  0  0  0  0  0
  -18.0450  -31.1438   15.1777 F   0  0  0  0  0  0  0  0  0  0  0  0
  -17.6760  -33.5141   15.6538 C   0  0  0  0  0  0  0  0  0  0  0  0
  -16.8649  -33.4443   14.5896 N   0  0  0  0  0  0  0  0  0  0  0  0
  -16.7533  -32.5913   14.1109 H   0  0  0  0  0  0  0  0  0  0  0  0
  -16.3806  -34.2460   14.2863 H   0  0  0  0  0  0  0  0  0  0  0  0
  -17.8408  -36.9315   15.8189 O   0  0  0  0  0  0  0  0  0  0  0  0
  -17.1908  -35.8712   15.9725 C   0  0  0  0  0  0  0  0  0  0  0  0
  -15.9517  -35.8714   15.7929 O   0  0  0  0  0  0  0  0  0  0  0  0
  -15.4617  -35.0809   15.9066 H   0  0  0  0  0  0  0  0  0  0  0  0
  6  5  1  0  0  0
  4  5  2  0  0  0
  4  3  1  0  0  0
  5  7  1  0  0  0
  3  2  2  0  0  0
  7  8  1  0  0  0
  7  1  2  0  0  0
  2  1  1  0  0  0
  1 12  1  0  0  0
 12 11  2  0  0  0
 12 13  1  0  0  0
 13 14  1  0  0  0
  8  9  1  0  0  0
  8 10  1  0  0  0
M  END
> <minimizedAffinity>
-6.00590

$$$$
4OWM_3F0_A_404


 14 14  0  0  0  0  0  0  0  0999 V2000
  -17.5977  -34.3807   15.9769 C   0  0  0  0  0  0  0  0  0  0  0  0
  -17.2079  -33.4545   14.9961 C   0  0  0  0  0  0  0  0  0  0  0  0
  -17.6910  -32.1336   15.0713 C   0  0  0  0  0  0  0  0  0  0  0  0
  -18.5492  -31.7537   16.1098 C   0  0  0  0  0  0  0  0  0  0  0  0
  -18.9541  -32.6745   17.0824 C   0  0  0  0  0  0  0  0  0  0  0  0
  -19.8399  -32.3417   18.2163 F   0  0  0  0  0  0  0  0  0  0  0  0
  -18.4617  -33.9589   17.0055 C   0  0  0  0  0  0  0  0  0  0  0  0
  -18.8644  -34.7951   17.9718 N   0  0  0  0  0  0  0  0  0  0  0  0
  -19.4690  -34.4747   18.6796 H   0  0  0  0  0  0  0  0  0  0  0  0
  -18.5558  -35.7300   17.9739 H   0  0  0  0  0  0  0  0  0  0  0  0
  -17.9681  -36.6307   16.0556 O   0  0  0  0  0  0  0  0  0  0  0  0
  -17.1425  -35.6952   15.9387 C   0  0  0  0  0  0  0  0  0  0  0  0
  -15.9244  -35.9549   15.8108 O   0  0  0  0  0  0  0  0  0  0  0  0
  -15.3036  -35.2586   15.7231 H   0  0  0  0  0  0  0  0  0  0  0  0
  6  5  1  0  0  0
  4  5  2  0  0  0
  4  3  1  0  0  0
  5  7  1  0  0  0
  3  2  2  0  0  0
  7  8  1  0  0  0
  7  1  2  0  0  0
  2  1  1  0  0  0
  1 12  1  0  0  0
 12 11  2  0  0  0
 12 13  1  0  0  0
 13 14  1  0  0  0
  8  9  1  0  0  0
  8 10  1  0  0  0
M  END
> <minimizedAffinity>
-5.79878

$$$$
4OWM_3F0_A_404


 14 14  0  0  0  0  0  0  0  0999 V2000
  -19.0873  -32.7523   16.9793 C   0  0  0  0  0  0  0  0  0  0  0  0
  -18.6445  -31.9626   15.9060 C   0  0  0  0  0  0  0  0  0  0  0  0
  -17.6393  -32.4639   15.0562 C   0  0  0  0  0  0  0  0  0  0  0  0
  -17.0904  -33.7314   15.2828 C   0  0  0  0  0  0  0  0  0  0  0  0
  -17.5156  -34.5181   16.3589 C   0  0  0  0  0  0  0  0  0  0  0  0
  -16.9975  -35.8706   16.6483 F   0  0  0  0  0  0  0  0  0  0  0  0
  -18.5103  -34.0219   17.1729 C   0  0  0  0  0  0  0  0  0  0  0  0
  -18.8946  -34.8228   18.1760 N   0  0  0  0  0  0  0  0  0  0  0  0
  -18.4748  -35.7061   18.2891 H   0  0  0  0  0  0  0  0  0  0  0  0
  -19.5967  -34.5278   18.8000 H   0  0  0  0  0  0  0  0  0  0  0  0
  -19.7703  -31.9843   19.0164 O   0  0  0  0  0  0  0  0  0  0  0  0
  -20.0785  -32.2939   17.8418 C   0  0  0  0  0  0  0  0  0  0  0  0
  -21.2707  -32.2064   17.4696 O   0  0  0  0  0  0  0  0  0  0  0  0
  -21.5057  -32.4368   16.5922 H   0  0  0  0  0  0  0  0  0  0  0  0
  6  5  1  0  0  0
  4  5  2  0  0  0
  4  3  1  0  0  0
  5  7  1  0  0  0
  3  2  2  0  0  0
  7  8  1  0  0  0
  7  1  2  0  0  0
  2  1  1  0  0  0
  1 12  1  0  0  0
 12 11  2  0  0  0
 12 13  1  0  0  0
 13 14  1  0  0  0
  8  9  1  0  0  0
  8 10  1  0  0  0
M  END
> <minimizedAffinity>
-5.67793

$$$$
4OWM_3F0_A_404


 14 14  0  0  0  0  0  0  0  0999 V2000
  -19.0815  -33.2064   17.2918 C   0  0  0  0  0  0  0  0  0  0  0  0
  -18.9013  -34.5216   17.7492 C   0  0  0  0  0  0  0  0  0  0  0  0
  -17.9432  -35.3401   17.1198 C   0  0  0  0  0  0  0  0  0  0  0  0
  -17.1846  -34.8463   16.0522 C   0  0  0  0  0  0  0  0  0  0  0  0
  -17.3688  -33.5418   15.5809 C   0  0  0  0  0  0  0  0  0  0  0  0
  -16.5928  -32.9466   14.4742 F   0  0  0  0  0  0  0  0  0  0  0  0
  -18.2982  -32.7472   16.2158 C   0  0  0  0  0  0  0  0  0  0  0  0
  -18.4213  -31.5013   15.7385 N   0  0  0  0  0  0  0  0  0  0  0  0
  -17.8612  -31.2053   14.9849 H   0  0  0  0  0  0  0  0  0  0  0  0
  -19.0718  -30.8819   16.1414 H   0  0  0  0  0  0  0  0  0  0  0  0
  -19.7036  -31.7419   18.9271 O   0  0  0  0  0  0  0  0  0  0  0  0
  -20.0174  -32.3655   17.8865 C   0  0  0  0  0  0  0  0  0  0  0  0
  -21.1689  -32.2398   17.4111 O   0  0  0  0  0  0  0  0  0  0  0  0
  -21.4079  -32.7042   16.6332 H   0  0  0  0  0  0  0  0  0  0  0  0
  6  5  1  0  0  0
  4  5  2  0  0  0
  4  3  1  0  0  0
  5  7  1  0  0  0
  3  2  2  0  0  0
  7  8  1  0  0  0
  7  1  2  0  0  0
  2  1  1  0  0  0
  1 12  1  0  0  0
 12 11  2  0  0  0
 12 13  1  0  0  0
 13 14  1  0  0  0
  8  9  1  0  0  0
  8 10  1  0  0  0
M  END
> <minimizedAffinity>
-5.58910

$$$$
4OWM_3F0_A_404


 14 14  0  0  0  0  0  0  0  0999 V2000
  -18.2491  -34.6512   17.3239 C   0  0  0  0  0  0  0  0  0  0  0  0
  -19.2162  -33.7249   17.7462 C   0  0  0  0  0  0  0  0  0  0  0  0
  -19.3588  -32.5142   17.0406 C   0  0  0  0  0  0  0  0  0  0  0  0
  -18.5445  -32.2410   15.9353 C   0  0  0  0  0  0  0  0  0  0  0  0
  -17.5685  -33.1523   15.5174 C   0  0  0  0  0  0  0  0  0  0  0  0
  -16.6879  -32.9416   14.3506 F   0  0  0  0  0  0  0  0  0  0  0  0
  -17.4504  -34.3390   16.2072 C   0  0  0  0  0  0  0  0  0  0  0  0
  -16.5148  -35.1845   15.7543 N   0  0  0  0  0  0  0  0  0  0  0  0
  -15.9697  -34.9418   14.9712 H   0  0  0  0  0  0  0  0  0  0  0  0
  -16.3724  -36.0483   16.2046 H   0  0  0  0  0  0  0  0  0  0  0  0
  -17.7993  -35.8450   19.2155 O   0  0  0  0  0  0  0  0  0  0  0  0
  -18.0767  -35.8588   17.9935 C   0  0  0  0  0  0  0  0  0  0  0  0
  -18.1737  -36.9523   17.3915 O   0  0  0  0  0  0  0  0  0  0  0  0
  -18.3808  -36.9674   16.4779 H   0  0  0  0  0  0  0  0  0  0  0  0
  6  5  1  0  0  0
  4  5  2  0  0  0
  4  3  1  0  0  0
  5  7  1  0  0  0
  3  2  2  0  0  0
  7  8  1  0  0  0
  7  1  2  0  0  0
  2  1  1  0  0  0
  1 12  1  0  0  0
 12 11  2  0  0  0
 12 13  1  0  0  0
 13 14  1  0  0  0
  8  9  1  0  0  0
  8 10  1  0  0  0
M  END
> <minimizedAffinity>
-5.38562

$$$$
4OWM_3F0_A_404


 14 14  0  0  0  0  0  0  0  0999 V2000
  -18.5550  -33.3866   16.8568 C   0  0  0  0  0  0  0  0  0  0  0  0
  -19.3421  -33.9366   17.8813 C   0  0  0  0  0  0  0  0  0  0  0  0
  -19.1558  -35.2864   18.2381 C   0  0  0  0  0  0  0  0  0  0  0  0
  -18.1995  -36.0660   17.5770 C   0  0  0  0  0  0  0  0  0  0  0  0
  -17.4218  -35.5294   16.5451 C   0  0  0  0  0  0  0  0  0  0  0  0
  -16.3818  -36.2843   15.8171 F   0  0  0  0  0  0  0  0  0  0  0  0
  -17.6037  -34.2038   16.2169 C   0  0  0  0  0  0  0  0  0  0  0  0
  -16.8204  -33.7346   15.2363 N   0  0  0  0  0  0  0  0  0  0  0  0
  -16.1630  -34.3272   14.8052 H   0  0  0  0  0  0  0  0  0  0  0  0
  -16.9023  -32.7972   14.9468 H   0  0  0  0  0  0  0  0  0  0  0  0
  -18.7360  -31.1677   17.3565 O   0  0  0  0  0  0  0  0  0  0  0  0
  -18.7078  -32.0573   16.4744 C   0  0  0  0  0  0  0  0  0  0  0  0
  -18.8376  -31.7412   15.2699 O   0  0  0  0  0  0  0  0  0  0  0  0
  -18.8172  -32.4030   14.6069 H   0  0  0  0  0  0  0  0  0  0  0  0
  6  5  1  0  0  0
  4  5  2  0  0  0
  4  3  1  0  0  0
  5  7  1  0  0  0
  3  2  2  0  0  0
  7  8  1  0  0  0
  7  1  2  0  0  0
  2  1  1  0  0  0
  1 12  1  0  0  0
 12 11  2  0  0  0
 12 13  1  0  0  0
 13 14  1  0  0  0
  8  9  1  0  0  0
  8 10  1  0  0  0
M  END
> <minimizedAffinity>
-5.25600

$$$$
4OWM_3F0_A_404


 14 14  0  0  0  0  0  0  0  0999 V2000
  -18.6143  -34.5680   17.5036 C   0  0  0  0  0  0  0  0  0  0  0  0
  -17.5849  -35.3267   16.9236 C   0  0  0  0  0  0  0  0  0  0  0  0
  -16.8603  -34.7853   15.8439 C   0  0  0  0  0  0  0  0  0  0  0  0
  -17.1663  -33.5090   15.3574 C   0  0  0  0  0  0  0  0  0  0  0  0
  -18.2004  -32.7529   15.9202 C   0  0  0  0  0  0  0  0  0  0  0  0
  -18.5666  -31.3936   15.4735 F   0  0  0  0  0  0  0  0  0  0  0  0
  -18.8906  -33.2883   16.9856 C   0  0  0  0  0  0  0  0  0  0  0  0
  -19.8569  -32.5157   17.5000 N   0  0  0  0  0  0  0  0  0  0  0  0
  -20.0298  -31.6246   17.1190 H   0  0  0  0  0  0  0  0  0  0  0  0
  -20.3941  -32.8393   18.2590 H   0  0  0  0  0  0  0  0  0  0  0  0
  -18.7611  -35.3819   19.6301 O   0  0  0  0  0  0  0  0  0  0  0  0
  -19.3537  -35.0665   18.5719 C   0  0  0  0  0  0  0  0  0  0  0  0
  -20.5929  -35.2229   18.4844 O   0  0  0  0  0  0  0  0  0  0  0  0
  -21.0401  -34.9884   17.6951 H   0  0  0  0  0  0  0  0  0  0  0  0
  6  5  1  0  0  0
  4  5  2  0  0  0
  4  3  1  0  0  0
  5  7  1  0  0  0
  3  2  2  0  0  0
  7  8  1  0  0  0
  7  1  2  0  0  0
  2  1  1  0  0  0
  1 12  1  0  0  0
 12 11  2  0  0  0
 12 13  1  0  0  0
 13 14  1  0  0  0
  8  9  1  0  0  0
  8 10  1  0  0  0
M  END
> <minimizedAffinity>
-5.23123

$$$$
4OWM_3F0_A_404


 14 14  0  0  0  0  0  0  0  0999 V2000
  -18.0033  -33.4833   16.4837 C   0  0  0  0  0  0  0  0  0  0  0  0
  -18.2040  -32.0985   16.6011 C   0  0  0  0  0  0  0  0  0  0  0  0
  -19.2130  -31.6235   17.4615 C   0  0  0  0  0  0  0  0  0  0  0  0
  -20.0038  -32.5225   18.1864 C   0  0  0  0  0  0  0  0  0  0  0  0
  -19.8200  -33.9041   18.0635 C   0  0  0  0  0  0  0  0  0  0  0  0
  -20.6015  -34.9106   18.8101 F   0  0  0  0  0  0  0  0  0  0  0  0
  -18.8194  -34.3544   17.2303 C   0  0  0  0  0  0  0  0  0  0  0  0
  -18.6724  -35.6846   17.1639 N   0  0  0  0  0  0  0  0  0  0  0  0
  -19.2564  -36.2715   17.6965 H   0  0  0  0  0  0  0  0  0  0  0  0
  -17.9804  -36.0749   16.5825 H   0  0  0  0  0  0  0  0  0  0  0  0
  -16.2115  -34.8412   16.0947 O   0  0  0  0  0  0  0  0  0  0  0  0
  -17.0170  -33.9933   15.6448 C   0  0  0  0  0  0  0  0  0  0  0  0
  -16.9106  -33.6040   14.4596 O   0  0  0  0  0  0  0  0  0  0  0  0
  -17.5107  -32.9701   14.1190 H   0  0  0  0  0  0  0  0  0  0  0  0
  6  5  1  0  0  0
  4  5  2  0  0  0
  4  3  1  0  0  0
  5  7  1  0  0  0
  3  2  2  0  0  0
  7  8  1  0  0  0
  7  1  2  0  0  0
  2  1  1  0  0  0
  1 12  1  0  0  0
 12 11  2  0  0  0
 12 13  1  0  0  0
 13 14  1  0  0  0
  8  9  1  0  0  0
  8 10  1  0  0  0
M  END
> <minimizedAffinity>
-4.98101

$$$$
4OWM_3F0_A_404


 14 14  0  0  0  0  0  0  0  0999 V2000
  -18.1805  -34.0882   16.6086 C   0  0  0  0  0  0  0  0  0  0  0  0
  -18.6874  -35.3214   17.0487 C   0  0  0  0  0  0  0  0  0  0  0  0
  -19.7944  -35.3350   17.9196 C   0  0  0  0  0  0  0  0  0  0  0  0
  -20.3772  -34.1337   18.3397 C   0  0  0  0  0  0  0  0  0  0  0  0
  -19.8685  -32.9005   17.9174 C   0  0  0  0  0  0  0  0  0  0  0  0
  -20.4423  -31.5953   18.3026 F   0  0  0  0  0  0  0  0  0  0  0  0
  -18.7952  -32.9023   17.0536 C   0  0  0  0  0  0  0  0  0  0  0  0
  -18.3598  -31.6964   16.6644 N   0  0  0  0  0  0  0  0  0  0  0  0
  -18.8077  -30.8825   16.9904 H   0  0  0  0  0  0  0  0  0  0  0  0
  -17.5920  -31.6242   16.0524 H   0  0  0  0  0  0  0  0  0  0  0  0
  -17.1546  -33.3110   14.7246 O   0  0  0  0  0  0  0  0  0  0  0  0
  -17.0885  -34.0314   15.7478 C   0  0  0  0  0  0  0  0  0  0  0  0
  -16.0544  -34.7019   15.9689 O   0  0  0  0  0  0  0  0  0  0  0  0
  -16.0006  -35.2419   16.7328 H   0  0  0  0  0  0  0  0  0  0  0  0
  6  5  1  0  0  0
  4  5  2  0  0  0
  4  3  1  0  0  0
  5  7  1  0  0  0
  3  2  2  0  0  0
  7  8  1  0  0  0
  7  1  2  0  0  0
  2  1  1  0  0  0
  1 12  1  0  0  0
 12 11  2  0  0  0
 12 13  1  0  0  0
 13 14  1  0  0  0
  8  9  1  0  0  0
  8 10  1  0  0  0
M  END
> <minimizedAffinity>
-4.97141

$$$$
4OWM_3F0_A_404


 14 14  0  0  0  0  0  0  0  0999 V2000
  -18.5363  -30.2920   17.4087 C   0  0  0  0  0  0  0  0  0  0  0  0
  -19.1177  -31.2570   18.2468 C   0  0  0  0  0  0  0  0  0  0  0  0
  -19.2271  -32.5847   17.7892 C   0  0  0  0  0  0  0  0  0  0  0  0
  -18.7632  -32.9330   16.5153 C   0  0  0  0  0  0  0  0  0  0  0  0
  -18.1963  -31.9741   15.6686 C   0  0  0  0  0  0  0  0  0  0  0  0
  -17.6680  -32.2711   14.3218 F   0  0  0  0  0  0  0  0  0  0  0  0
  -18.0815  -30.6828   16.1348 C   0  0  0  0  0  0  0  0  0  0  0  0
  -17.5140  -29.8086   15.2928 N   0  0  0  0  0  0  0  0  0  0  0  0
  -17.2044  -30.1079   14.4075 H   0  0  0  0  0  0  0  0  0  0  0  0
  -17.4065  -28.8670   15.5595 H   0  0  0  0  0  0  0  0  0  0  0  0
  -17.6515  -28.7011   18.7842 O   0  0  0  0  0  0  0  0  0  0  0  0
  -18.4095  -28.9696   17.8231 C   0  0  0  0  0  0  0  0  0  0  0  0
  -19.0541  -28.0521   17.2661 O   0  0  0  0  0  0  0  0  0  0  0  0
  -19.6220  -28.2482   16.5471 H   0  0  0  0  0  0  0  0  0  0  0  0
  6  5  1  0  0  0
  4  5  2  0  0  0
  4  3  1  0  0  0
  5  7  1  0  0  0
  3  2  2  0  0  0
  7  8  1  0  0  0
  7  1  2  0  0  0
  2  1  1  0  0  0
  1 12  1  0  0  0
 12 11  2  0  0  0
 12 13  1  0  0  0
 13 14  1  0  0  0
  8  9  1  0  0  0
  8 10  1  0  0  0
M  END
> <minimizedAffinity>
-4.96807

$$$$
