1F57_DCY_A_308


 11 10  0  0  0  0  0  0  0  0999 V2000
    5.4781   -7.9362   22.2935 N   0  0  0  0  0  0  0  0  0  0  0  0
    6.1739   -8.9825   21.4864 C   0  0  0  0  0  0  0  0  0  0  0  0
    5.3610   -7.0941   21.7301 H   0  0  0  0  0  0  0  0  0  0  0  0
    6.0350   -7.7179   23.1197 H   0  0  0  0  0  0  0  0  0  0  0  0
    7.5485   -8.4857   21.0177 C   0  0  0  0  0  0  0  0  0  0  0  0
    8.1880   -9.1668   20.1922 O   0  0  0  0  0  0  0  0  0  0  0  0
    7.9713   -7.4185   21.4974 O   0  0  0  0  0  0  0  0  0  0  0  0
    7.4508   -6.9440   22.1154 H   0  0  0  0  0  0  0  0  0  0  0  0
    6.3440  -10.2387   22.3389 C   0  0  0  0  0  0  0  0  0  0  0  0
    7.2372  -10.0254   23.9053 S   0  0  0  0  0  0  0  0  0  0  0  0
    8.5167   -9.6420   23.6491 H   0  0  0  0  0  0  0  0  0  0  0  0
  1  2  1  0  0  0
  2  5  1  0  0  0
  2  9  1  0  0  0
  5  6  2  0  0  0
  5  7  1  0  0  0
  9 10  1  0  0  0
  1  3  1  0  0  0
  1  4  1  0  0  0
 10 11  1  0  0  0
  7  8  1  0  0  0
M  END
> <minimizedAffinity>
-4.05295

$$$$
1F57_DCY_A_308


 11 10  0  0  0  0  0  0  0  0999 V2000
   13.8300  -11.1326   21.5682 N   0  0  0  0  0  0  0  0  0  0  0  0
   13.0608  -10.5672   22.7167 C   0  0  0  0  0  0  0  0  0  0  0  0
   14.3127  -11.9802   21.8667 H   0  0  0  0  0  0  0  0  0  0  0  0
   14.5136  -10.4474   21.2465 H   0  0  0  0  0  0  0  0  0  0  0  0
   13.9946  -10.2378   23.8895 C   0  0  0  0  0  0  0  0  0  0  0  0
   13.7223  -10.6822   25.0221 O   0  0  0  0  0  0  0  0  0  0  0  0
   14.9867   -9.5246   23.6552 O   0  0  0  0  0  0  0  0  0  0  0  0
   15.1468   -9.2159   22.7851 H   0  0  0  0  0  0  0  0  0  0  0  0
   12.3422   -9.2990   22.2594 C   0  0  0  0  0  0  0  0  0  0  0  0
   10.8029   -8.8945   23.1333 S   0  0  0  0  0  0  0  0  0  0  0  0
    9.8856   -9.8742   22.9130 H   0  0  0  0  0  0  0  0  0  0  0  0
  1  2  1  0  0  0
  2  5  1  0  0  0
  2  9  1  0  0  0
  5  6  2  0  0  0
  5  7  1  0  0  0
  9 10  1  0  0  0
  1  3  1  0  0  0
  1  4  1  0  0  0
 10 11  1  0  0  0
  7  8  1  0  0  0
M  END
> <minimizedAffinity>
-3.97959

$$$$
1F57_DCY_A_308


 11 10  0  0  0  0  0  0  0  0999 V2000
   13.7844  -11.1826   21.7000 N   0  0  0  0  0  0  0  0  0  0  0  0
   13.7619  -10.6283   23.0866 C   0  0  0  0  0  0  0  0  0  0  0  0
   14.2851  -10.5409   21.0854 H   0  0  0  0  0  0  0  0  0  0  0  0
   12.8281  -11.2982   21.3645 H   0  0  0  0  0  0  0  0  0  0  0  0
   13.0772   -9.2549   23.1142 C   0  0  0  0  0  0  0  0  0  0  0  0
   12.4242   -8.9252   24.1239 O   0  0  0  0  0  0  0  0  0  0  0  0
   13.1977   -8.5292   22.1109 O   0  0  0  0  0  0  0  0  0  0  0  0
   13.7001   -8.8241   21.3770 H   0  0  0  0  0  0  0  0  0  0  0  0
   13.0101  -11.5964   23.9984 C   0  0  0  0  0  0  0  0  0  0  0  0
   11.7284  -12.6084   23.2047 S   0  0  0  0  0  0  0  0  0  0  0  0
   10.7460  -11.8002   22.7237 H   0  0  0  0  0  0  0  0  0  0  0  0
  1  2  1  0  0  0
  2  5  1  0  0  0
  2  9  1  0  0  0
  5  6  2  0  0  0
  5  7  1  0  0  0
  9 10  1  0  0  0
  1  3  1  0  0  0
  1  4  1  0  0  0
 10 11  1  0  0  0
  7  8  1  0  0  0
M  END
> <minimizedAffinity>
-3.93983

$$$$
1F57_DCY_A_308


 11 10  0  0  0  0  0  0  0  0999 V2000
   10.4827   -8.9393   22.0954 N   0  0  0  0  0  0  0  0  0  0  0  0
    9.0489   -8.7132   22.4471 C   0  0  0  0  0  0  0  0  0  0  0  0
   10.8709   -8.0888   21.6876 H   0  0  0  0  0  0  0  0  0  0  0  0
   10.5512   -9.7016   21.4213 H   0  0  0  0  0  0  0  0  0  0  0  0
    8.2367   -8.3253   21.2038 C   0  0  0  0  0  0  0  0  0  0  0  0
    8.1819   -9.1207   20.2454 O   0  0  0  0  0  0  0  0  0  0  0  0
    7.6724   -7.2165   21.2054 O   0  0  0  0  0  0  0  0  0  0  0  0
    7.7448   -6.6551   21.9520 H   0  0  0  0  0  0  0  0  0  0  0  0
    8.4775   -9.9921   23.0567 C   0  0  0  0  0  0  0  0  0  0  0  0
    6.7416   -9.9185   23.5845 S   0  0  0  0  0  0  0  0  0  0  0  0
    6.6101   -9.0059   24.5842 H   0  0  0  0  0  0  0  0  0  0  0  0
  1  2  1  0  0  0
  2  5  1  0  0  0
  2  9  1  0  0  0
  5  6  2  0  0  0
  5  7  1  0  0  0
  9 10  1  0  0  0
  1  3  1  0  0  0
  1  4  1  0  0  0
 10 11  1  0  0  0
  7  8  1  0  0  0
M  END
> <minimizedAffinity>
-3.88656

$$$$
1F57_DCY_A_308


 11 10  0  0  0  0  0  0  0  0999 V2000
   14.7798   -9.5603   24.0444 N   0  0  0  0  0  0  0  0  0  0  0  0
   13.5935  -10.3276   23.5602 C   0  0  0  0  0  0  0  0  0  0  0  0
   14.4656   -8.7416   24.5655 H   0  0  0  0  0  0  0  0  0  0  0  0
   15.3399   -9.2609   23.2462 H   0  0  0  0  0  0  0  0  0  0  0  0
   12.7103   -9.4549   22.6578 C   0  0  0  0  0  0  0  0  0  0  0  0
   11.5066   -9.7501   22.5224 O   0  0  0  0  0  0  0  0  0  0  0  0
   13.2454   -8.4874   22.0874 O   0  0  0  0  0  0  0  0  0  0  0  0
   14.1551   -8.3082   22.2229 H   0  0  0  0  0  0  0  0  0  0  0  0
   14.0747  -11.5506   22.7816 C   0  0  0  0  0  0  0  0  0  0  0  0
   15.7714  -12.0988   23.1250 S   0  0  0  0  0  0  0  0  0  0  0  0
   16.6459  -11.1250   22.7555 H   0  0  0  0  0  0  0  0  0  0  0  0
  1  2  1  0  0  0
  2  5  1  0  0  0
  2  9  1  0  0  0
  5  6  2  0  0  0
  5  7  1  0  0  0
  9 10  1  0  0  0
  1  3  1  0  0  0
  1  4  1  0  0  0
 10 11  1  0  0  0
  7  8  1  0  0  0
M  END
> <minimizedAffinity>
-3.88644

$$$$
1F57_DCY_A_308


 11 10  0  0  0  0  0  0  0  0999 V2000
    9.9333   -8.8885   22.0873 N   0  0  0  0  0  0  0  0  0  0  0  0
   10.3902   -8.5550   23.4695 C   0  0  0  0  0  0  0  0  0  0  0  0
    8.9902   -8.5272   21.9445 H   0  0  0  0  0  0  0  0  0  0  0  0
    9.9317   -9.9011   21.9648 H   0  0  0  0  0  0  0  0  0  0  0  0
    9.4463   -9.1610   24.5173 C   0  0  0  0  0  0  0  0  0  0  0  0
    8.2148   -9.0729   24.3442 O   0  0  0  0  0  0  0  0  0  0  0  0
    9.9599   -9.7093   25.5089 O   0  0  0  0  0  0  0  0  0  0  0  0
   10.8924   -9.7491   25.5917 H   0  0  0  0  0  0  0  0  0  0  0  0
   11.8027   -9.1002   23.6729 C   0  0  0  0  0  0  0  0  0  0  0  0
   12.7305   -9.4961   22.1631 S   0  0  0  0  0  0  0  0  0  0  0  0
   12.0993  -10.4967   21.4924 H   0  0  0  0  0  0  0  0  0  0  0  0
  1  2  1  0  0  0
  2  5  1  0  0  0
  2  9  1  0  0  0
  5  6  2  0  0  0
  5  7  1  0  0  0
  9 10  1  0  0  0
  1  3  1  0  0  0
  1  4  1  0  0  0
 10 11  1  0  0  0
  7  8  1  0  0  0
M  END
> <minimizedAffinity>
-3.71124

$$$$
1F57_DCY_A_308


 11 10  0  0  0  0  0  0  0  0999 V2000
   11.3835   -9.6854   25.0235 N   0  0  0  0  0  0  0  0  0  0  0  0
   11.8145  -10.3249   23.7445 C   0  0  0  0  0  0  0  0  0  0  0  0
   10.5130   -9.1758   24.8723 H   0  0  0  0  0  0  0  0  0  0  0  0
   12.1056   -9.0385   25.3404 H   0  0  0  0  0  0  0  0  0  0  0  0
   12.0233   -9.2694   22.6499 C   0  0  0  0  0  0  0  0  0  0  0  0
   11.0688   -8.9756   21.9036 O   0  0  0  0  0  0  0  0  0  0  0  0
   13.1526   -8.7572   22.5494 O   0  0  0  0  0  0  0  0  0  0  0  0
   13.8370   -9.0129   23.1361 H   0  0  0  0  0  0  0  0  0  0  0  0
   13.1182  -11.0850   23.9818 C   0  0  0  0  0  0  0  0  0  0  0  0
   13.4906  -12.4177   22.8060 S   0  0  0  0  0  0  0  0  0  0  0  0
   12.5393  -13.3849   22.9009 H   0  0  0  0  0  0  0  0  0  0  0  0
  1  2  1  0  0  0
  2  5  1  0  0  0
  2  9  1  0  0  0
  5  6  2  0  0  0
  5  7  1  0  0  0
  9 10  1  0  0  0
  1  3  1  0  0  0
  1  4  1  0  0  0
 10 11  1  0  0  0
  7  8  1  0  0  0
M  END
> <minimizedAffinity>
-3.64939

$$$$
1F57_DCY_A_308


 11 10  0  0  0  0  0  0  0  0999 V2000
   11.9028  -11.7895   22.7448 N   0  0  0  0  0  0  0  0  0  0  0  0
   12.2079  -10.5321   23.4906 C   0  0  0  0  0  0  0  0  0  0  0  0
   12.5868  -11.9168   21.9989 H   0  0  0  0  0  0  0  0  0  0  0  0
   10.9678  -11.7274   22.3418 H   0  0  0  0  0  0  0  0  0  0  0  0
   12.1726   -9.3184   22.5517 C   0  0  0  0  0  0  0  0  0  0  0  0
   11.0935   -9.0020   22.0132 O   0  0  0  0  0  0  0  0  0  0  0  0
   13.2379   -8.7051   22.3602 O   0  0  0  0  0  0  0  0  0  0  0  0
   14.0227   -8.9838   22.7898 H   0  0  0  0  0  0  0  0  0  0  0  0
   11.1784  -10.3509   24.6046 C   0  0  0  0  0  0  0  0  0  0  0  0
    9.6373  -11.2949   24.4287 S   0  0  0  0  0  0  0  0  0  0  0  0
    8.9752  -10.8787   23.3160 H   0  0  0  0  0  0  0  0  0  0  0  0
  1  2  1  0  0  0
  2  5  1  0  0  0
  2  9  1  0  0  0
  5  6  2  0  0  0
  5  7  1  0  0  0
  9 10  1  0  0  0
  1  3  1  0  0  0
  1  4  1  0  0  0
 10 11  1  0  0  0
  7  8  1  0  0  0
M  END
> <minimizedAffinity>
-3.63338

$$$$
1F57_DCY_A_308


 11 10  0  0  0  0  0  0  0  0999 V2000
    6.5661   -9.1475   24.3409 N   0  0  0  0  0  0  0  0  0  0  0  0
    6.8910   -9.9500   23.1240 C   0  0  0  0  0  0  0  0  0  0  0  0
    5.5567   -9.0138   24.4005 H   0  0  0  0  0  0  0  0  0  0  0  0
    7.0265   -8.2392   24.2820 H   0  0  0  0  0  0  0  0  0  0  0  0
    6.3929   -9.2438   21.8555 C   0  0  0  0  0  0  0  0  0  0  0  0
    6.5456   -9.8042   20.7523 O   0  0  0  0  0  0  0  0  0  0  0  0
    5.8630   -8.1259   21.9871 O   0  0  0  0  0  0  0  0  0  0  0  0
    5.7719   -7.7481   22.8397 H   0  0  0  0  0  0  0  0  0  0  0  0
    8.4042  -10.1443   23.0443 C   0  0  0  0  0  0  0  0  0  0  0  0
    9.3852   -8.6499   22.7260 S   0  0  0  0  0  0  0  0  0  0  0  0
    9.0660   -8.1503   21.5020 H   0  0  0  0  0  0  0  0  0  0  0  0
  1  2  1  0  0  0
  2  5  1  0  0  0
  2  9  1  0  0  0
  5  6  2  0  0  0
  5  7  1  0  0  0
  9 10  1  0  0  0
  1  3  1  0  0  0
  1  4  1  0  0  0
 10 11  1  0  0  0
  7  8  1  0  0  0
M  END
> <minimizedAffinity>
-3.59893

$$$$
1F57_DCY_A_308


 11 10  0  0  0  0  0  0  0  0999 V2000
   13.0743   -8.7941   22.4389 N   0  0  0  0  0  0  0  0  0  0  0  0
   13.2620  -10.2417   22.7542 C   0  0  0  0  0  0  0  0  0  0  0  0
   13.8411   -8.4725   21.8481 H   0  0  0  0  0  0  0  0  0  0  0  0
   13.0639   -8.2559   23.3053 H   0  0  0  0  0  0  0  0  0  0  0  0
   14.5962  -10.4743   23.4765 C   0  0  0  0  0  0  0  0  0  0  0  0
   14.7254  -10.0755   24.6507 O   0  0  0  0  0  0  0  0  0  0  0  0
   15.5024  -11.0474   22.8455 O   0  0  0  0  0  0  0  0  0  0  0  0
   15.3542  -11.3280   21.9638 H   0  0  0  0  0  0  0  0  0  0  0  0
   12.1091  -10.7129   23.6387 C   0  0  0  0  0  0  0  0  0  0  0  0
   11.5733  -12.4318   23.4034 S   0  0  0  0  0  0  0  0  0  0  0  0
   11.0877  -12.5867   22.1425 H   0  0  0  0  0  0  0  0  0  0  0  0
  1  2  1  0  0  0
  2  5  1  0  0  0
  2  9  1  0  0  0
  5  6  2  0  0  0
  5  7  1  0  0  0
  9 10  1  0  0  0
  1  3  1  0  0  0
  1  4  1  0  0  0
 10 11  1  0  0  0
  7  8  1  0  0  0
M  END
> <minimizedAffinity>
-3.58583

$$$$
