5M7U_XHA_A_1001


 31 32  0  0  0  0  0  0  0  0999 V2000
  -15.9300    2.9646   37.4156 C   0  0  0  0  0  0  0  0  0  0  0  0
  -14.7912    1.9358   37.4826 C   0  0  0  0  0  0  0  0  0  0  0  0
  -13.6413    2.7293   38.1179 C   0  0  0  0  0  0  0  0  0  0  0  0
  -14.3677    3.5452   39.1855 C   0  0  0  0  0  0  0  0  0  0  0  0
  -15.6010    3.9557   38.4748 N   0  0  0  0  0  0  0  0  0  0  0  0
  -15.1473    0.7995   38.2590 O   0  0  0  0  0  0  0  0  0  0  0  0
  -12.6294    1.8960   38.6648 O   0  0  0  0  0  0  0  0  0  0  0  0
  -15.3936    1.0832   39.1533 H   0  0  0  0  0  0  0  0  0  0  0  0
  -13.0205    1.3041   39.3263 H   0  0  0  0  0  0  0  0  0  0  0  0
  -13.5639    4.7276   39.7082 C   0  0  0  0  0  0  0  0  0  0  0  0
  -12.2525    4.7725   39.1689 O   0  0  0  0  0  0  0  0  0  0  0  0
  -12.3024    4.8715   38.2052 H   0  0  0  0  0  0  0  0  0  0  0  0
  -15.5439    5.3311   37.9698 C   0  0  0  0  0  0  0  0  0  0  0  0
  -15.2726    5.4029   36.4794 C   0  0  0  0  0  0  0  0  0  0  0  0
  -13.8916    5.8925   36.1253 C   0  0  0  0  0  0  0  0  0  0  0  0
  -15.0314    9.3799   35.1447 C   0  0  0  0  0  0  0  0  0  0  0  0
  -13.8817    7.3132   35.6128 C   0  0  0  0  0  0  0  0  0  0  0  0
  -15.0412    8.0785   35.6131 C   0  0  0  0  0  0  0  0  0  0  0  0
  -13.8636    9.9505   34.6731 C   0  0  0  0  0  0  0  0  0  0  0  0
  -12.6996    9.2031   34.6723 C   0  0  0  0  0  0  0  0  0  0  0  0
  -12.7135    7.8980   35.1368 C   0  0  0  0  0  0  0  0  0  0  0  0
  -11.4293    9.8060   34.1549 C   0  0  0  0  0  0  0  0  0  0  0  0
  -10.4332    9.7265   35.0362 F   0  0  0  0  0  0  0  0  0  0  0  0
  -10.9889    9.2107   33.0481 F   0  0  0  0  0  0  0  0  0  0  0  0
  -11.5496   11.0993   33.8531 F   0  0  0  0  0  0  0  0  0  0  0  0
  -17.3316    2.3652   37.5716 C   0  0  0  0  0  0  0  0  0  0  0  0
  -19.0471    1.9644   39.2106 N   0  0  0  0  0  0  0  0  0  0  0  0
  -19.6231    1.8079   40.5332 C   0  0  0  0  0  0  0  0  0  0  0  0
  -17.7505    2.1817   39.0148 C   0  0  0  0  0  0  0  0  0  0  0  0
  -16.9344    2.2460   39.9350 O   0  0  0  0  0  0  0  0  0  0  0  0
  -19.6403    1.9073   38.4270 H   0  0  0  0  0  0  0  0  0  0  0  0
 23 22  1  0  0  0
 24 22  1  0  0  0
 22 25  1  0  0  0
 22 20  1  0  0  0
 19 20  2  0  0  0
 19 16  1  0  0  0
 20 21  1  0  0  0
 16 18  2  0  0  0
 21 17  2  0  0  0
 18 17  1  0  0  0
 17 15  1  0  0  0
 15 14  1  0  0  0
 14 13  1  0  0  0
  1  2  1  0  0  0
  1 26  1  0  0  0
  1  5  1  0  0  0
  2  3  1  0  0  0
  2  6  1  0  0  0
 13  5  1  0  0  0
 26 29  1  0  0  0
  3  7  1  0  0  0
  3  4  1  0  0  0
 11 10  1  0  0  0
  5  4  1  0  0  0
  4 10  1  0  0  0
 29 27  1  0  0  0
 29 30  2  0  0  0
 27 28  1  0  0  0
 27 31  1  0  0  0
  6  8  1  0  0  0
  7  9  1  0  0  0
 11 12  1  0  0  0
M  END
> <minimizedAffinity>
-10.23642

$$$$
5M7U_XHA_A_1001


 31 32  0  0  0  0  0  0  0  0999 V2000
  -14.7405    8.0835   33.2794 C   0  0  0  0  0  0  0  0  0  0  0  0
  -14.4621    8.7966   31.9475 C   0  0  0  0  0  0  0  0  0  0  0  0
  -13.2175    9.6397   32.2570 C   0  0  0  0  0  0  0  0  0  0  0  0
  -12.3907    8.6854   33.1165 C   0  0  0  0  0  0  0  0  0  0  0  0
  -13.4267    8.0678   33.9767 N   0  0  0  0  0  0  0  0  0  0  0  0
  -14.2321    7.8752   30.8898 O   0  0  0  0  0  0  0  0  0  0  0  0
  -12.5266   10.0565   31.0881 O   0  0  0  0  0  0  0  0  0  0  0  0
  -13.4881    7.2971   31.1206 H   0  0  0  0  0  0  0  0  0  0  0  0
  -12.2712    9.2782   30.5686 H   0  0  0  0  0  0  0  0  0  0  0  0
  -11.2912    9.3726   33.9142 C   0  0  0  0  0  0  0  0  0  0  0  0
   -9.9958    8.9217   33.5515 O   0  0  0  0  0  0  0  0  0  0  0  0
   -9.8328    9.1244   32.6171 H   0  0  0  0  0  0  0  0  0  0  0  0
  -13.4871    8.6564   35.3183 C   0  0  0  0  0  0  0  0  0  0  0  0
  -13.7336    7.6273   36.4048 C   0  0  0  0  0  0  0  0  0  0  0  0
  -12.8040    6.4417   36.3557 C   0  0  0  0  0  0  0  0  0  0  0  0
  -13.1453    4.5240   39.6159 C   0  0  0  0  0  0  0  0  0  0  0  0
  -13.1602    5.3697   37.3583 C   0  0  0  0  0  0  0  0  0  0  0  0
  -12.8180    5.5055   38.6979 C   0  0  0  0  0  0  0  0  0  0  0  0
  -13.8285    3.3888   39.2206 C   0  0  0  0  0  0  0  0  0  0  0  0
  -14.1816    3.2422   37.8912 C   0  0  0  0  0  0  0  0  0  0  0  0
  -13.8476    4.2242   36.9729 C   0  0  0  0  0  0  0  0  0  0  0  0
  -14.9136    2.0125   37.4477 C   0  0  0  0  0  0  0  0  0  0  0  0
  -14.1488    1.2010   36.7185 F   0  0  0  0  0  0  0  0  0  0  0  0
  -15.3578    1.2804   38.4676 F   0  0  0  0  0  0  0  0  0  0  0  0
  -15.9821    2.2824   36.6969 F   0  0  0  0  0  0  0  0  0  0  0  0
  -15.3558    6.6879   33.1310 C   0  0  0  0  0  0  0  0  0  0  0  0
  -16.9210    6.0078   31.4346 N   0  0  0  0  0  0  0  0  0  0  0  0
  -18.1871    5.9515   30.7280 C   0  0  0  0  0  0  0  0  0  0  0  0
  -16.7553    6.7055   32.5538 C   0  0  0  0  0  0  0  0  0  0  0  0
  -17.6647    7.3399   33.0900 O   0  0  0  0  0  0  0  0  0  0  0  0
  -16.1540    5.5093   31.0705 H   0  0  0  0  0  0  0  0  0  0  0  0
 23 22  1  0  0  0
 24 22  1  0  0  0
 22 25  1  0  0  0
 22 20  1  0  0  0
 19 20  2  0  0  0
 19 16  1  0  0  0
 20 21  1  0  0  0
 16 18  2  0  0  0
 21 17  2  0  0  0
 18 17  1  0  0  0
 17 15  1  0  0  0
 15 14  1  0  0  0
 14 13  1  0  0  0
  1  2  1  0  0  0
  1 26  1  0  0  0
  1  5  1  0  0  0
  2  3  1  0  0  0
  2  6  1  0  0  0
 13  5  1  0  0  0
 26 29  1  0  0  0
  3  7  1  0  0  0
  3  4  1  0  0  0
 11 10  1  0  0  0
  5  4  1  0  0  0
  4 10  1  0  0  0
 29 27  1  0  0  0
 29 30  2  0  0  0
 27 28  1  0  0  0
 27 31  1  0  0  0
  6  8  1  0  0  0
  7  9  1  0  0  0
 11 12  1  0  0  0
M  END
> <minimizedAffinity>
-10.13681

$$$$
5M7U_XHA_A_1001


 31 32  0  0  0  0  0  0  0  0999 V2000
  -14.6438    8.0787   33.3141 C   0  0  0  0  0  0  0  0  0  0  0  0
  -14.4315    8.8048   31.9771 C   0  0  0  0  0  0  0  0  0  0  0  0
  -13.1963    9.6754   32.2455 C   0  0  0  0  0  0  0  0  0  0  0  0
  -12.3163    8.7366   33.0684 C   0  0  0  0  0  0  0  0  0  0  0  0
  -13.3052    8.0905   33.9625 N   0  0  0  0  0  0  0  0  0  0  0  0
  -14.2192    7.8943   30.9063 O   0  0  0  0  0  0  0  0  0  0  0  0
  -12.5589   10.1141   31.0544 O   0  0  0  0  0  0  0  0  0  0  0  0
  -13.4540    7.3327   31.1062 H   0  0  0  0  0  0  0  0  0  0  0  0
  -12.3048    9.3446   30.5214 H   0  0  0  0  0  0  0  0  0  0  0  0
  -11.2044    9.4454   33.8291 C   0  0  0  0  0  0  0  0  0  0  0  0
   -9.9288    8.8771   33.5789 O   0  0  0  0  0  0  0  0  0  0  0  0
   -9.7184    8.9575   32.6354 H   0  0  0  0  0  0  0  0  0  0  0  0
  -13.3297    8.6708   35.3089 C   0  0  0  0  0  0  0  0  0  0  0  0
  -13.6097    7.6447   36.3900 C   0  0  0  0  0  0  0  0  0  0  0  0
  -12.7949    6.3822   36.2700 C   0  0  0  0  0  0  0  0  0  0  0  0
  -13.1864    4.5592   39.5784 C   0  0  0  0  0  0  0  0  0  0  0  0
  -13.1663    5.3393   37.2974 C   0  0  0  0  0  0  0  0  0  0  0  0
  -12.8451    5.5140   38.6377 C   0  0  0  0  0  0  0  0  0  0  0  0
  -13.8631    3.4125   39.2055 C   0  0  0  0  0  0  0  0  0  0  0  0
  -14.1954    3.2273   37.8755 C   0  0  0  0  0  0  0  0  0  0  0  0
  -13.8473    4.1826   36.9346 C   0  0  0  0  0  0  0  0  0  0  0  0
  -14.9200    1.9848   37.4564 C   0  0  0  0  0  0  0  0  0  0  0  0
  -16.0022    2.2495   36.7257 F   0  0  0  0  0  0  0  0  0  0  0  0
  -14.1670    1.1730   36.7165 F   0  0  0  0  0  0  0  0  0  0  0  0
  -15.3437    1.2536   38.4879 F   0  0  0  0  0  0  0  0  0  0  0  0
  -15.2314    6.6699   33.1804 C   0  0  0  0  0  0  0  0  0  0  0  0
  -17.4957    7.4646   33.0027 N   0  0  0  0  0  0  0  0  0  0  0  0
  -18.8524    7.5353   32.4930 C   0  0  0  0  0  0  0  0  0  0  0  0
  -16.5816    6.6434   32.4960 C   0  0  0  0  0  0  0  0  0  0  0  0
  -16.8059    5.8953   31.5436 O   0  0  0  0  0  0  0  0  0  0  0  0
  -17.2421    8.0483   33.7539 H   0  0  0  0  0  0  0  0  0  0  0  0
 23 22  1  0  0  0
 24 22  1  0  0  0
 22 25  1  0  0  0
 22 20  1  0  0  0
 19 20  2  0  0  0
 19 16  1  0  0  0
 20 21  1  0  0  0
 16 18  2  0  0  0
 21 17  2  0  0  0
 18 17  1  0  0  0
 17 15  1  0  0  0
 15 14  1  0  0  0
 14 13  1  0  0  0
  1  2  1  0  0  0
  1 26  1  0  0  0
  1  5  1  0  0  0
  2  3  1  0  0  0
  2  6  1  0  0  0
 13  5  1  0  0  0
 26 29  1  0  0  0
  3  7  1  0  0  0
  3  4  1  0  0  0
 11 10  1  0  0  0
  5  4  1  0  0  0
  4 10  1  0  0  0
 29 27  1  0  0  0
 29 30  2  0  0  0
 27 28  1  0  0  0
 27 31  1  0  0  0
  6  8  1  0  0  0
  7  9  1  0  0  0
 11 12  1  0  0  0
M  END
> <minimizedAffinity>
-9.94664

$$$$
5M7U_XHA_A_1001


 31 32  0  0  0  0  0  0  0  0999 V2000
  -15.3477    2.9839   37.0835 C   0  0  0  0  0  0  0  0  0  0  0  0
  -14.1742    2.0637   37.4522 C   0  0  0  0  0  0  0  0  0  0  0  0
  -13.3124    2.9466   38.3651 C   0  0  0  0  0  0  0  0  0  0  0  0
  -14.3678    3.6687   39.2004 C   0  0  0  0  0  0  0  0  0  0  0  0
  -15.4043    3.9783   38.1882 N   0  0  0  0  0  0  0  0  0  0  0  0
  -14.6122    0.8830   38.1115 O   0  0  0  0  0  0  0  0  0  0  0  0
  -12.4053    2.1990   39.1625 O   0  0  0  0  0  0  0  0  0  0  0  0
  -15.1106    1.1235   38.9082 H   0  0  0  0  0  0  0  0  0  0  0  0
  -12.8984    1.5594   39.6997 H   0  0  0  0  0  0  0  0  0  0  0  0
  -13.8457    4.9090   39.9120 C   0  0  0  0  0  0  0  0  0  0  0  0
  -12.4347    5.0296   39.8262 O   0  0  0  0  0  0  0  0  0  0  0  0
  -12.1730    5.1092   38.8956 H   0  0  0  0  0  0  0  0  0  0  0  0
  -15.3474    5.3636   37.7109 C   0  0  0  0  0  0  0  0  0  0  0  0
  -14.5442    5.5163   36.4335 C   0  0  0  0  0  0  0  0  0  0  0  0
  -13.3584    6.4391   36.5555 C   0  0  0  0  0  0  0  0  0  0  0  0
  -12.6638    9.6229   34.6054 C   0  0  0  0  0  0  0  0  0  0  0  0
  -13.5564    7.7536   35.8386 C   0  0  0  0  0  0  0  0  0  0  0  0
  -12.4818    8.4197   35.2628 C   0  0  0  0  0  0  0  0  0  0  0  0
  -13.9226   10.1852   34.5000 C   0  0  0  0  0  0  0  0  0  0  0  0
  -15.0034    9.5306   35.0628 C   0  0  0  0  0  0  0  0  0  0  0  0
  -14.8174    8.3284   35.7255 C   0  0  0  0  0  0  0  0  0  0  0  0
  -16.3714   10.1337   34.9642 C   0  0  0  0  0  0  0  0  0  0  0  0
  -16.4172   11.3724   35.4526 F   0  0  0  0  0  0  0  0  0  0  0  0
  -16.8093   10.2172   33.7094 F   0  0  0  0  0  0  0  0  0  0  0  0
  -17.2967    9.4423   35.6305 F   0  0  0  0  0  0  0  0  0  0  0  0
  -16.6775    2.2541   36.8668 C   0  0  0  0  0  0  0  0  0  0  0  0
  -17.4754    2.1261   39.1333 N   0  0  0  0  0  0  0  0  0  0  0  0
  -18.3921    2.3181   40.2415 C   0  0  0  0  0  0  0  0  0  0  0  0
  -17.7229    2.5851   37.9107 C   0  0  0  0  0  0  0  0  0  0  0  0
  -18.7357    3.2259   37.6267 O   0  0  0  0  0  0  0  0  0  0  0  0
  -16.6365    1.6363   39.2934 H   0  0  0  0  0  0  0  0  0  0  0  0
 23 22  1  0  0  0
 24 22  1  0  0  0
 22 25  1  0  0  0
 22 20  1  0  0  0
 19 20  2  0  0  0
 19 16  1  0  0  0
 20 21  1  0  0  0
 16 18  2  0  0  0
 21 17  2  0  0  0
 18 17  1  0  0  0
 17 15  1  0  0  0
 15 14  1  0  0  0
 14 13  1  0  0  0
  1  2  1  0  0  0
  1 26  1  0  0  0
  1  5  1  0  0  0
  2  3  1  0  0  0
  2  6  1  0  0  0
 13  5  1  0  0  0
 26 29  1  0  0  0
  3  7  1  0  0  0
  3  4  1  0  0  0
 11 10  1  0  0  0
  5  4  1  0  0  0
  4 10  1  0  0  0
 29 27  1  0  0  0
 29 30  2  0  0  0
 27 28  1  0  0  0
 27 31  1  0  0  0
  6  8  1  0  0  0
  7  9  1  0  0  0
 11 12  1  0  0  0
M  END
> <minimizedAffinity>
-9.63473

$$$$
5M7U_XHA_A_1001


 31 32  0  0  0  0  0  0  0  0999 V2000
  -15.7293    2.9270   37.2966 C   0  0  0  0  0  0  0  0  0  0  0  0
  -14.8110    2.0184   38.1278 C   0  0  0  0  0  0  0  0  0  0  0  0
  -13.6512    2.9490   38.5080 C   0  0  0  0  0  0  0  0  0  0  0  0
  -14.3788    4.2551   38.8205 C   0  0  0  0  0  0  0  0  0  0  0  0
  -15.3985    4.3054   37.7470 N   0  0  0  0  0  0  0  0  0  0  0  0
  -15.4738    1.4980   39.2726 O   0  0  0  0  0  0  0  0  0  0  0  0
  -12.8955    2.4697   39.6110 O   0  0  0  0  0  0  0  0  0  0  0  0
  -15.8007    2.2306   39.8179 H   0  0  0  0  0  0  0  0  0  0  0  0
  -13.4801    2.3495   40.3756 H   0  0  0  0  0  0  0  0  0  0  0  0
  -13.4708    5.4770   38.8325 C   0  0  0  0  0  0  0  0  0  0  0  0
  -12.1755    5.1947   38.3274 O   0  0  0  0  0  0  0  0  0  0  0  0
  -12.2444    4.9057   37.4040 H   0  0  0  0  0  0  0  0  0  0  0  0
  -15.0263    5.1922   36.6403 C   0  0  0  0  0  0  0  0  0  0  0  0
  -16.0259    6.3108   36.4171 C   0  0  0  0  0  0  0  0  0  0  0  0
  -15.4578    7.6943   36.6055 C   0  0  0  0  0  0  0  0  0  0  0  0
  -12.2627    8.6750   34.8022 C   0  0  0  0  0  0  0  0  0  0  0  0
  -14.4898    8.0890   35.5154 C   0  0  0  0  0  0  0  0  0  0  0  0
  -13.1490    8.3145   35.8010 C   0  0  0  0  0  0  0  0  0  0  0  0
  -12.6913    8.8106   33.4947 C   0  0  0  0  0  0  0  0  0  0  0  0
  -14.0222    8.5833   33.1937 C   0  0  0  0  0  0  0  0  0  0  0  0
  -14.9089    8.2278   34.1969 C   0  0  0  0  0  0  0  0  0  0  0  0
  -14.5019    8.7362   31.7825 C   0  0  0  0  0  0  0  0  0  0  0  0
  -14.5609    7.5723   31.1368 F   0  0  0  0  0  0  0  0  0  0  0  0
  -15.7236    9.2606   31.7068 F   0  0  0  0  0  0  0  0  0  0  0  0
  -13.7178    9.5247   31.0465 F   0  0  0  0  0  0  0  0  0  0  0  0
  -17.2210    2.5988   37.4204 C   0  0  0  0  0  0  0  0  0  0  0  0
  -18.6738    1.8759   39.1972 N   0  0  0  0  0  0  0  0  0  0  0  0
  -19.3224    1.9157   40.4945 C   0  0  0  0  0  0  0  0  0  0  0  0
  -17.7595    2.7661   38.8254 C   0  0  0  0  0  0  0  0  0  0  0  0
  -17.3755    3.6794   39.5573 O   0  0  0  0  0  0  0  0  0  0  0  0
  -18.9209    1.1610   38.5670 H   0  0  0  0  0  0  0  0  0  0  0  0
 23 22  1  0  0  0
 24 22  1  0  0  0
 22 25  1  0  0  0
 22 20  1  0  0  0
 19 20  2  0  0  0
 19 16  1  0  0  0
 20 21  1  0  0  0
 16 18  2  0  0  0
 21 17  2  0  0  0
 18 17  1  0  0  0
 17 15  1  0  0  0
 15 14  1  0  0  0
 14 13  1  0  0  0
  1  2  1  0  0  0
  1 26  1  0  0  0
  1  5  1  0  0  0
  2  3  1  0  0  0
  2  6  1  0  0  0
 13  5  1  0  0  0
 26 29  1  0  0  0
  3  7  1  0  0  0
  3  4  1  0  0  0
 11 10  1  0  0  0
  5  4  1  0  0  0
  4 10  1  0  0  0
 29 27  1  0  0  0
 29 30  2  0  0  0
 27 28  1  0  0  0
 27 31  1  0  0  0
  6  8  1  0  0  0
  7  9  1  0  0  0
 11 12  1  0  0  0
M  END
> <minimizedAffinity>
-9.45605

$$$$
5M7U_XHA_A_1001


 31 32  0  0  0  0  0  0  0  0999 V2000
  -14.1235    8.7932   33.8813 C   0  0  0  0  0  0  0  0  0  0  0  0
  -15.3640    8.4025   33.0638 C   0  0  0  0  0  0  0  0  0  0  0  0
  -16.2541    7.6975   34.0964 C   0  0  0  0  0  0  0  0  0  0  0  0
  -16.0593    8.5699   35.3349 C   0  0  0  0  0  0  0  0  0  0  0  0
  -14.6063    8.8549   35.2868 N   0  0  0  0  0  0  0  0  0  0  0  0
  -16.0039    9.5371   32.4947 O   0  0  0  0  0  0  0  0  0  0  0  0
  -17.6141    7.6199   33.6939 O   0  0  0  0  0  0  0  0  0  0  0  0
  -16.2501   10.1567   33.1993 H   0  0  0  0  0  0  0  0  0  0  0  0
  -17.9536    8.5133   33.5277 H   0  0  0  0  0  0  0  0  0  0  0  0
  -16.4887    7.8999   36.6326 C   0  0  0  0  0  0  0  0  0  0  0  0
  -17.0731    6.6252   36.4169 O   0  0  0  0  0  0  0  0  0  0  0  0
  -16.4234    6.0380   35.9999 H   0  0  0  0  0  0  0  0  0  0  0  0
  -13.8236    8.0110   36.1953 C   0  0  0  0  0  0  0  0  0  0  0  0
  -12.7923    7.1642   35.4746 C   0  0  0  0  0  0  0  0  0  0  0  0
  -13.0506    5.6809   35.5468 C   0  0  0  0  0  0  0  0  0  0  0  0
  -12.8810    5.0858   39.2937 C   0  0  0  0  0  0  0  0  0  0  0  0
  -13.3897    5.2073   36.9403 C   0  0  0  0  0  0  0  0  0  0  0  0
  -12.5695    5.5188   38.0175 C   0  0  0  0  0  0  0  0  0  0  0  0
  -14.0216    4.3396   39.5261 C   0  0  0  0  0  0  0  0  0  0  0  0
  -14.8514    4.0268   38.4645 C   0  0  0  0  0  0  0  0  0  0  0  0
  -14.5341    4.4570   37.1865 C   0  0  0  0  0  0  0  0  0  0  0  0
  -16.0855    3.2107   38.7009 C   0  0  0  0  0  0  0  0  0  0  0  0
  -16.6388    2.7855   37.5660 F   0  0  0  0  0  0  0  0  0  0  0  0
  -15.8509    2.1191   39.4267 F   0  0  0  0  0  0  0  0  0  0  0  0
  -17.0405    3.8818   39.3457 F   0  0  0  0  0  0  0  0  0  0  0  0
  -13.4490   10.0905   33.4229 C   0  0  0  0  0  0  0  0  0  0  0  0
  -13.5285   10.8303   31.1345 N   0  0  0  0  0  0  0  0  0  0  0  0
  -13.1774   10.8652   29.7271 C   0  0  0  0  0  0  0  0  0  0  0  0
  -12.9241   10.0272   32.0042 C   0  0  0  0  0  0  0  0  0  0  0  0
  -12.0070    9.2672   31.6906 O   0  0  0  0  0  0  0  0  0  0  0  0
  -14.2430   11.4253   31.4582 H   0  0  0  0  0  0  0  0  0  0  0  0
 23 22  1  0  0  0
 24 22  1  0  0  0
 22 25  1  0  0  0
 22 20  1  0  0  0
 19 20  2  0  0  0
 19 16  1  0  0  0
 20 21  1  0  0  0
 16 18  2  0  0  0
 21 17  2  0  0  0
 18 17  1  0  0  0
 17 15  1  0  0  0
 15 14  1  0  0  0
 14 13  1  0  0  0
  1  2  1  0  0  0
  1 26  1  0  0  0
  1  5  1  0  0  0
  2  3  1  0  0  0
  2  6  1  0  0  0
 13  5  1  0  0  0
 26 29  1  0  0  0
  3  7  1  0  0  0
  3  4  1  0  0  0
 11 10  1  0  0  0
  5  4  1  0  0  0
  4 10  1  0  0  0
 29 27  1  0  0  0
 29 30  2  0  0  0
 27 28  1  0  0  0
 27 31  1  0  0  0
  6  8  1  0  0  0
  7  9  1  0  0  0
 11 12  1  0  0  0
M  END
> <minimizedAffinity>
-9.20643

$$$$
5M7U_XHA_A_1001


 31 32  0  0  0  0  0  0  0  0999 V2000
  -13.8483    8.3033   33.2467 C   0  0  0  0  0  0  0  0  0  0  0  0
  -14.6923    7.6889   32.1197 C   0  0  0  0  0  0  0  0  0  0  0  0
  -16.1273    8.0630   32.5151 C   0  0  0  0  0  0  0  0  0  0  0  0
  -15.9564    9.4934   33.0227 C   0  0  0  0  0  0  0  0  0  0  0  0
  -14.6931    9.3999   33.7909 N   0  0  0  0  0  0  0  0  0  0  0  0
  -14.3374    8.2106   30.8458 O   0  0  0  0  0  0  0  0  0  0  0  0
  -17.0409    7.9757   31.4311 O   0  0  0  0  0  0  0  0  0  0  0  0
  -14.4398    9.1752   30.8515 H   0  0  0  0  0  0  0  0  0  0  0  0
  -16.7421    8.5508   30.7093 H   0  0  0  0  0  0  0  0  0  0  0  0
  -17.1245    9.9916   33.8621 C   0  0  0  0  0  0  0  0  0  0  0  0
  -18.3811    9.6602   33.2931 O   0  0  0  0  0  0  0  0  0  0  0  0
  -18.4668    8.6955   33.2380 H   0  0  0  0  0  0  0  0  0  0  0  0
  -14.9057    9.2907   35.2376 C   0  0  0  0  0  0  0  0  0  0  0  0
  -14.2929    8.0372   35.8322 C   0  0  0  0  0  0  0  0  0  0  0  0
  -15.2787    7.1431   36.5400 C   0  0  0  0  0  0  0  0  0  0  0  0
  -12.9151    5.1127   38.7111 C   0  0  0  0  0  0  0  0  0  0  0  0
  -14.6213    5.9807   37.2457 C   0  0  0  0  0  0  0  0  0  0  0  0
  -13.5162    6.1773   38.0643 C   0  0  0  0  0  0  0  0  0  0  0  0
  -13.4074    3.8292   38.5631 C   0  0  0  0  0  0  0  0  0  0  0  0
  -14.5110    3.6184   37.7562 C   0  0  0  0  0  0  0  0  0  0  0  0
  -15.1076    4.6857   37.1051 C   0  0  0  0  0  0  0  0  0  0  0  0
  -15.0486    2.2311   37.5794 C   0  0  0  0  0  0  0  0  0  0  0  0
  -14.1097    1.3673   37.1955 F   0  0  0  0  0  0  0  0  0  0  0  0
  -15.5699    1.7332   38.6991 F   0  0  0  0  0  0  0  0  0  0  0  0
  -16.0127    2.1572   36.6612 F   0  0  0  0  0  0  0  0  0  0  0  0
  -12.4598    8.7796   32.8070 C   0  0  0  0  0  0  0  0  0  0  0  0
  -12.8625   10.7968   31.5585 N   0  0  0  0  0  0  0  0  0  0  0  0
  -12.8081   12.2143   31.2532 C   0  0  0  0  0  0  0  0  0  0  0  0
  -12.3537   10.2839   32.6742 C   0  0  0  0  0  0  0  0  0  0  0  0
  -11.8166   10.9706   33.5443 O   0  0  0  0  0  0  0  0  0  0  0  0
  -13.2936   10.1907   30.9135 H   0  0  0  0  0  0  0  0  0  0  0  0
 23 22  1  0  0  0
 24 22  1  0  0  0
 22 25  1  0  0  0
 22 20  1  0  0  0
 19 20  2  0  0  0
 19 16  1  0  0  0
 20 21  1  0  0  0
 16 18  2  0  0  0
 21 17  2  0  0  0
 18 17  1  0  0  0
 17 15  1  0  0  0
 15 14  1  0  0  0
 14 13  1  0  0  0
  1  2  1  0  0  0
  1 26  1  0  0  0
  1  5  1  0  0  0
  2  3  1  0  0  0
  2  6  1  0  0  0
 13  5  1  0  0  0
 26 29  1  0  0  0
  3  7  1  0  0  0
  3  4  1  0  0  0
 11 10  1  0  0  0
  5  4  1  0  0  0
  4 10  1  0  0  0
 29 27  1  0  0  0
 29 30  2  0  0  0
 27 28  1  0  0  0
 27 31  1  0  0  0
  6  8  1  0  0  0
  7  9  1  0  0  0
 11 12  1  0  0  0
M  END
> <minimizedAffinity>
-8.73952

$$$$
5M7U_XHA_A_1001


 31 32  0  0  0  0  0  0  0  0999 V2000
  -14.6867    8.4253   32.2090 C   0  0  0  0  0  0  0  0  0  0  0  0
  -16.0212    8.5526   31.4590 C   0  0  0  0  0  0  0  0  0  0  0  0
  -17.0238    7.8955   32.4174 C   0  0  0  0  0  0  0  0  0  0  0  0
  -16.5445    8.4006   33.7768 C   0  0  0  0  0  0  0  0  0  0  0  0
  -15.0724    8.3052   33.6405 N   0  0  0  0  0  0  0  0  0  0  0  0
  -16.3517    9.9087   31.1896 O   0  0  0  0  0  0  0  0  0  0  0  0
  -18.3697    8.2592   32.1454 O   0  0  0  0  0  0  0  0  0  0  0  0
  -16.3886   10.4041   32.0227 H   0  0  0  0  0  0  0  0  0  0  0  0
  -18.4596    9.2239   32.1919 H   0  0  0  0  0  0  0  0  0  0  0  0
  -17.0832    7.6007   34.9547 C   0  0  0  0  0  0  0  0  0  0  0  0
  -18.2703    8.1612   35.4929 O   0  0  0  0  0  0  0  0  0  0  0  0
  -18.9636    8.1627   34.8145 H   0  0  0  0  0  0  0  0  0  0  0  0
  -14.5106    7.1133   34.2837 C   0  0  0  0  0  0  0  0  0  0  0  0
  -13.8773    7.4106   35.6293 C   0  0  0  0  0  0  0  0  0  0  0  0
  -12.7529    6.4786   36.0028 C   0  0  0  0  0  0  0  0  0  0  0  0
  -13.1406    4.9727   39.4675 C   0  0  0  0  0  0  0  0  0  0  0  0
  -13.1167    5.5329   37.1228 C   0  0  0  0  0  0  0  0  0  0  0  0
  -12.8063    5.8386   38.4420 C   0  0  0  0  0  0  0  0  0  0  0  0
  -13.7994    3.7865   39.2019 C   0  0  0  0  0  0  0  0  0  0  0  0
  -14.1207    3.4712   37.8939 C   0  0  0  0  0  0  0  0  0  0  0  0
  -13.7797    4.3376   36.8682 C   0  0  0  0  0  0  0  0  0  0  0  0
  -14.8258    2.1843   37.5912 C   0  0  0  0  0  0  0  0  0  0  0  0
  -15.8709    2.3554   36.7826 F   0  0  0  0  0  0  0  0  0  0  0  0
  -14.0388    1.2936   36.9906 F   0  0  0  0  0  0  0  0  0  0  0  0
  -15.3002    1.5793   38.6807 F   0  0  0  0  0  0  0  0  0  0  0  0
  -13.7047    9.5724   31.9481 C   0  0  0  0  0  0  0  0  0  0  0  0
  -12.1663    9.8085   33.7833 N   0  0  0  0  0  0  0  0  0  0  0  0
  -10.9043    9.7079   34.4922 C   0  0  0  0  0  0  0  0  0  0  0  0
  -12.3352    9.3410   32.5506 C   0  0  0  0  0  0  0  0  0  0  0  0
  -11.4440    8.7683   31.9222 O   0  0  0  0  0  0  0  0  0  0  0  0
  -12.9281   10.2403   34.2334 H   0  0  0  0  0  0  0  0  0  0  0  0
 23 22  1  0  0  0
 24 22  1  0  0  0
 22 25  1  0  0  0
 22 20  1  0  0  0
 19 20  2  0  0  0
 19 16  1  0  0  0
 20 21  1  0  0  0
 16 18  2  0  0  0
 21 17  2  0  0  0
 18 17  1  0  0  0
 17 15  1  0  0  0
 15 14  1  0  0  0
 14 13  1  0  0  0
  1  2  1  0  0  0
  1 26  1  0  0  0
  1  5  1  0  0  0
  2  3  1  0  0  0
  2  6  1  0  0  0
 13  5  1  0  0  0
 26 29  1  0  0  0
  3  7  1  0  0  0
  3  4  1  0  0  0
 11 10  1  0  0  0
  5  4  1  0  0  0
  4 10  1  0  0  0
 29 27  1  0  0  0
 29 30  2  0  0  0
 27 28  1  0  0  0
 27 31  1  0  0  0
  6  8  1  0  0  0
  7  9  1  0  0  0
 11 12  1  0  0  0
M  END
> <minimizedAffinity>
-8.69144

$$$$
5M7U_XHA_A_1001


 31 32  0  0  0  0  0  0  0  0999 V2000
  -15.8535    7.4355   33.5014 C   0  0  0  0  0  0  0  0  0  0  0  0
  -17.3734    7.3838   33.2845 C   0  0  0  0  0  0  0  0  0  0  0  0
  -17.9139    8.3108   34.3818 C   0  0  0  0  0  0  0  0  0  0  0  0
  -16.9005    9.4535   34.3625 C   0  0  0  0  0  0  0  0  0  0  0  0
  -15.6193    8.7278   34.1996 N   0  0  0  0  0  0  0  0  0  0  0  0
  -17.7396    7.8270   31.9844 O   0  0  0  0  0  0  0  0  0  0  0  0
  -19.2392    8.7545   34.1286 O   0  0  0  0  0  0  0  0  0  0  0  0
  -17.4135    8.7301   31.8468 H   0  0  0  0  0  0  0  0  0  0  0  0
  -19.2695    9.2109   33.2732 H   0  0  0  0  0  0  0  0  0  0  0  0
  -16.9330   10.3252   35.6102 C   0  0  0  0  0  0  0  0  0  0  0  0
  -18.1028   11.1246   35.6826 O   0  0  0  0  0  0  0  0  0  0  0  0
  -18.8843   10.5513   35.7207 H   0  0  0  0  0  0  0  0  0  0  0  0
  -14.8829    8.5700   35.4578 C   0  0  0  0  0  0  0  0  0  0  0  0
  -14.6355    7.1182   35.8199 C   0  0  0  0  0  0  0  0  0  0  0  0
  -13.3498    6.8784   36.5693 C   0  0  0  0  0  0  0  0  0  0  0  0
  -12.8873    4.6251   39.5911 C   0  0  0  0  0  0  0  0  0  0  0  0
  -13.4170    5.6837   37.4909 C   0  0  0  0  0  0  0  0  0  0  0  0
  -12.8246    5.7191   38.7470 C   0  0  0  0  0  0  0  0  0  0  0  0
  -13.5492    3.4742   39.2052 C   0  0  0  0  0  0  0  0  0  0  0  0
  -14.1494    3.4260   37.9599 C   0  0  0  0  0  0  0  0  0  0  0  0
  -14.0803    4.5211   37.1143 C   0  0  0  0  0  0  0  0  0  0  0  0
  -14.8616    2.1815   37.5254 C   0  0  0  0  0  0  0  0  0  0  0  0
  -15.9081    2.4416   36.7430 F   0  0  0  0  0  0  0  0  0  0  0  0
  -14.0806    1.3556   36.8317 F   0  0  0  0  0  0  0  0  0  0  0  0
  -15.3358    1.4671   38.5467 F   0  0  0  0  0  0  0  0  0  0  0  0
  -15.0281    7.2905   32.2185 C   0  0  0  0  0  0  0  0  0  0  0  0
  -15.1286    9.5099   31.2942 N   0  0  0  0  0  0  0  0  0  0  0  0
  -14.6240   10.7799   30.8066 C   0  0  0  0  0  0  0  0  0  0  0  0
  -14.3361    8.5704   31.8001 C   0  0  0  0  0  0  0  0  0  0  0  0
  -13.1178    8.7105   31.9147 O   0  0  0  0  0  0  0  0  0  0  0  0
  -16.0968    9.3372   31.2485 H   0  0  0  0  0  0  0  0  0  0  0  0
 23 22  1  0  0  0
 24 22  1  0  0  0
 22 25  1  0  0  0
 22 20  1  0  0  0
 19 20  2  0  0  0
 19 16  1  0  0  0
 20 21  1  0  0  0
 16 18  2  0  0  0
 21 17  2  0  0  0
 18 17  1  0  0  0
 17 15  1  0  0  0
 15 14  1  0  0  0
 14 13  1  0  0  0
  1  2  1  0  0  0
  1 26  1  0  0  0
  1  5  1  0  0  0
  2  3  1  0  0  0
  2  6  1  0  0  0
 13  5  1  0  0  0
 26 29  1  0  0  0
  3  7  1  0  0  0
  3  4  1  0  0  0
 11 10  1  0  0  0
  5  4  1  0  0  0
  4 10  1  0  0  0
 29 27  1  0  0  0
 29 30  2  0  0  0
 27 28  1  0  0  0
 27 31  1  0  0  0
  6  8  1  0  0  0
  7  9  1  0  0  0
 11 12  1  0  0  0
M  END
> <minimizedAffinity>
-8.65437

$$$$
5M7U_XHA_A_1001


 31 32  0  0  0  0  0  0  0  0999 V2000
  -13.8478    6.8232   36.4282 C   0  0  0  0  0  0  0  0  0  0  0  0
  -12.8375    6.0037   37.2453 C   0  0  0  0  0  0  0  0  0  0  0  0
  -13.7339    5.1475   38.1503 C   0  0  0  0  0  0  0  0  0  0  0  0
  -14.8639    4.7541   37.2008 C   0  0  0  0  0  0  0  0  0  0  0  0
  -15.0958    6.0144   36.4575 N   0  0  0  0  0  0  0  0  0  0  0  0
  -12.0037    5.2074   36.4139 O   0  0  0  0  0  0  0  0  0  0  0  0
  -13.0596    4.0200   38.6903 O   0  0  0  0  0  0  0  0  0  0  0  0
  -12.5534    4.6174   35.8748 H   0  0  0  0  0  0  0  0  0  0  0  0
  -12.7115    3.4747   37.9675 H   0  0  0  0  0  0  0  0  0  0  0  0
  -16.1122    4.2454   37.9082 C   0  0  0  0  0  0  0  0  0  0  0  0
  -15.8389    3.7745   39.2183 O   0  0  0  0  0  0  0  0  0  0  0  0
  -15.4881    4.5012   39.7565 H   0  0  0  0  0  0  0  0  0  0  0  0
  -16.2522    6.7693   36.9505 C   0  0  0  0  0  0  0  0  0  0  0  0
  -16.4828    8.0611   36.1901 C   0  0  0  0  0  0  0  0  0  0  0  0
  -17.3539    7.9126   34.9689 C   0  0  0  0  0  0  0  0  0  0  0  0
  -15.6934    6.4695   31.8733 C   0  0  0  0  0  0  0  0  0  0  0  0
  -16.5614    7.7978   33.6883 C   0  0  0  0  0  0  0  0  0  0  0  0
  -16.4183    6.5740   33.0466 C   0  0  0  0  0  0  0  0  0  0  0  0
  -15.1018    7.5844   31.3087 C   0  0  0  0  0  0  0  0  0  0  0  0
  -15.2406    8.8111   31.9327 C   0  0  0  0  0  0  0  0  0  0  0  0
  -15.9625    8.9118   33.1107 C   0  0  0  0  0  0  0  0  0  0  0  0
  -14.5964   10.0255   31.3367 C   0  0  0  0  0  0  0  0  0  0  0  0
  -14.2111    9.8297   30.0765 F   0  0  0  0  0  0  0  0  0  0  0  0
  -15.4082   11.0809   31.3127 F   0  0  0  0  0  0  0  0  0  0  0  0
  -13.5059   10.4161   31.9973 F   0  0  0  0  0  0  0  0  0  0  0  0
  -13.3851    7.1581   35.0063 C   0  0  0  0  0  0  0  0  0  0  0  0
  -11.5097    8.5521   34.4324 N   0  0  0  0  0  0  0  0  0  0  0  0
  -10.7481    9.7794   34.2940 C   0  0  0  0  0  0  0  0  0  0  0  0
  -12.7593    8.5312   34.8848 C   0  0  0  0  0  0  0  0  0  0  0  0
  -13.3756    9.5497   35.2010 O   0  0  0  0  0  0  0  0  0  0  0  0
  -11.0837    7.7008   34.1812 H   0  0  0  0  0  0  0  0  0  0  0  0
 23 22  1  0  0  0
 24 22  1  0  0  0
 22 25  1  0  0  0
 22 20  1  0  0  0
 19 20  2  0  0  0
 19 16  1  0  0  0
 20 21  1  0  0  0
 16 18  2  0  0  0
 21 17  2  0  0  0
 18 17  1  0  0  0
 17 15  1  0  0  0
 15 14  1  0  0  0
 14 13  1  0  0  0
  1  2  1  0  0  0
  1 26  1  0  0  0
  1  5  1  0  0  0
  2  3  1  0  0  0
  2  6  1  0  0  0
 13  5  1  0  0  0
 26 29  1  0  0  0
  3  7  1  0  0  0
  3  4  1  0  0  0
 11 10  1  0  0  0
  5  4  1  0  0  0
  4 10  1  0  0  0
 29 27  1  0  0  0
 29 30  2  0  0  0
 27 28  1  0  0  0
 27 31  1  0  0  0
  6  8  1  0  0  0
  7  9  1  0  0  0
 11 12  1  0  0  0
M  END
> <minimizedAffinity>
-8.52574

$$$$
