6DAI_G2V_A_503


 18 21  0  0  0  0  0  0  0  0999 V2000
   -8.3556   24.2670    2.9605 C   0  0  0  0  0  0  0  0  0  0  0  0
   -7.5949   25.3007    3.8314 C   0  0  0  0  0  0  0  0  0  0  0  0
   -7.5747   26.5618    3.0775 N   0  0  0  0  0  0  0  0  0  0  0  0
   -9.0130   25.0679    1.8673 C   0  0  0  0  0  0  0  0  0  0  0  0
   -8.5661   26.4102    1.9491 C   0  0  0  0  0  0  0  0  0  0  0  0
   -9.0666   27.4841    0.9457 C   0  0  0  0  0  0  0  0  0  0  0  0
  -10.0405   27.0857   -0.1348 C   0  0  0  0  0  0  0  0  0  0  0  0
  -10.5127   25.6719   -0.2130 C   0  0  0  0  0  0  0  0  0  0  0  0
  -10.0413   24.6378    0.7786 C   0  0  0  0  0  0  0  0  0  0  0  0
   -6.5331   27.5728    3.1278 C   0  0  0  0  0  0  0  0  0  0  0  0
  -11.5329   25.2875   -1.2721 C   0  0  0  0  0  0  0  0  0  0  0  0
  -12.2180   26.1810   -2.0988 C   0  0  0  0  0  0  0  0  0  0  0  0
  -13.0432   25.4675   -2.8553 N   0  0  0  0  0  0  0  0  0  0  0  0
  -14.0720   25.5841   -3.9417 C   0  0  0  0  0  0  0  0  0  0  0  0
  -14.6052   24.2126   -4.2401 C   0  0  0  0  0  0  0  0  0  0  0  0
  -13.8668   23.2804   -3.3566 C   0  0  0  0  0  0  0  0  0  0  0  0
  -12.9100   24.1236   -2.4989 C   0  0  0  0  0  0  0  0  0  0  0  0
  -11.9677   24.0329   -1.5306 N   0  0  0  0  0  0  0  0  0  0  0  0
 15 14  1  0  0  0
 15 16  1  0  0  0
 14 13  1  0  0  0
 16 17  1  0  0  0
 13 17  1  0  0  0
 13 12  1  0  0  0
 17 18  2  0  0  0
 12 11  2  0  0  0
 18 11  1  0  0  0
 11  8  1  0  0  0
  7  8  2  0  0  0
  7  6  1  0  0  0
  8  9  1  0  0  0
  6  5  2  0  0  0
  9  4  2  0  0  0
  5  4  1  0  0  0
  5  3  1  0  0  0
  4  1  1  0  0  0
 10  3  1  0  0  0
  3  2  1  0  0  0
  1  2  1  0  0  0
M  END
> <minimizedAffinity>
-7.63305

$$$$
6DAI_G2V_A_503


 18 21  0  0  0  0  0  0  0  0999 V2000
   -4.4730   24.6208    6.4876 C   0  0  0  0  0  0  0  0  0  0  0  0
   -3.8824   25.5533    7.5773 C   0  0  0  0  0  0  0  0  0  0  0  0
   -4.1493   26.9333    7.1488 N   0  0  0  0  0  0  0  0  0  0  0  0
   -5.3322   25.5057    5.6232 C   0  0  0  0  0  0  0  0  0  0  0  0
   -5.1518   26.8533    6.0229 C   0  0  0  0  0  0  0  0  0  0  0  0
   -5.9057   28.0084    5.3103 C   0  0  0  0  0  0  0  0  0  0  0  0
   -6.8404   27.6859    4.1714 C   0  0  0  0  0  0  0  0  0  0  0  0
   -7.0315   26.2645    3.7581 C   0  0  0  0  0  0  0  0  0  0  0  0
   -6.3145   25.1441    4.4690 C   0  0  0  0  0  0  0  0  0  0  0  0
   -3.3236   28.0935    7.4347 C   0  0  0  0  0  0  0  0  0  0  0  0
   -8.0131   25.9409    2.6436 C   0  0  0  0  0  0  0  0  0  0  0  0
   -9.0386   24.9954    2.7169 C   0  0  0  0  0  0  0  0  0  0  0  0
   -9.6463   24.9780    1.5366 N   0  0  0  0  0  0  0  0  0  0  0  0
  -10.7652   24.3272    0.7771 C   0  0  0  0  0  0  0  0  0  0  0  0
  -10.7716   24.8748   -0.6210 C   0  0  0  0  0  0  0  0  0  0  0  0
   -9.6805   25.8752   -0.6785 C   0  0  0  0  0  0  0  0  0  0  0  0
   -8.9984   25.8884    0.6987 C   0  0  0  0  0  0  0  0  0  0  0  0
   -8.0032   26.4785    1.4024 N   0  0  0  0  0  0  0  0  0  0  0  0
 15 14  1  0  0  0
 15 16  1  0  0  0
 14 13  1  0  0  0
 16 17  1  0  0  0
 13 17  1  0  0  0
 13 12  1  0  0  0
 17 18  2  0  0  0
 12 11  2  0  0  0
 18 11  1  0  0  0
 11  8  1  0  0  0
  7  8  2  0  0  0
  7  6  1  0  0  0
  8  9  1  0  0  0
  6  5  2  0  0  0
  9  4  2  0  0  0
  5  4  1  0  0  0
  5  3  1  0  0  0
  4  1  1  0  0  0
 10  3  1  0  0  0
  3  2  1  0  0  0
  1  2  1  0  0  0
M  END
> <minimizedAffinity>
-6.08617

$$$$
6DAI_G2V_A_503


 18 21  0  0  0  0  0  0  0  0999 V2000
   -9.3944   24.2719    2.8033 C   0  0  0  0  0  0  0  0  0  0  0  0
   -8.0758   25.0512    2.5588 C   0  0  0  0  0  0  0  0  0  0  0  0
   -8.3886   26.4786    2.7129 N   0  0  0  0  0  0  0  0  0  0  0  0
  -10.3504   25.2743    3.3948 C   0  0  0  0  0  0  0  0  0  0  0  0
   -9.7529   26.5586    3.3542 C   0  0  0  0  0  0  0  0  0  0  0  0
  -10.5013   27.8082    3.8916 C   0  0  0  0  0  0  0  0  0  0  0  0
  -11.8888   27.6477    4.4606 C   0  0  0  0  0  0  0  0  0  0  0  0
  -12.5114   26.2919    4.5067 C   0  0  0  0  0  0  0  0  0  0  0  0
  -11.7708   25.0778    4.0046 C   0  0  0  0  0  0  0  0  0  0  0  0
   -7.7398   27.5770    2.0186 C   0  0  0  0  0  0  0  0  0  0  0  0
  -13.8891   26.1284    5.1277 C   0  0  0  0  0  0  0  0  0  0  0  0
  -14.1704   26.1651    6.4954 C   0  0  0  0  0  0  0  0  0  0  0  0
  -15.4718   25.9444    6.6381 N   0  0  0  0  0  0  0  0  0  0  0  0
  -16.5587   25.8236    7.6659 C   0  0  0  0  0  0  0  0  0  0  0  0
  -17.8453   25.5038    6.9611 C   0  0  0  0  0  0  0  0  0  0  0  0
  -17.5276   25.4709    5.5145 C   0  0  0  0  0  0  0  0  0  0  0  0
  -16.0213   25.7399    5.3704 C   0  0  0  0  0  0  0  0  0  0  0  0
  -15.0328   25.8681    4.4538 N   0  0  0  0  0  0  0  0  0  0  0  0
 15 14  1  0  0  0
 15 16  1  0  0  0
 14 13  1  0  0  0
 16 17  1  0  0  0
 13 17  1  0  0  0
 13 12  1  0  0  0
 17 18  2  0  0  0
 12 11  2  0  0  0
 18 11  1  0  0  0
 11  8  1  0  0  0
  7  8  2  0  0  0
  7  6  1  0  0  0
  8  9  1  0  0  0
  6  5  2  0  0  0
  9  4  2  0  0  0
  5  4  1  0  0  0
  5  3  1  0  0  0
  4  1  1  0  0  0
 10  3  1  0  0  0
  3  2  1  0  0  0
  1  2  1  0  0  0
M  END
> <minimizedAffinity>
-5.71634

$$$$
6DAI_G2V_A_503


 18 21  0  0  0  0  0  0  0  0999 V2000
   -8.9711   27.9414    0.8712 C   0  0  0  0  0  0  0  0  0  0  0  0
  -10.1572   27.2084    0.1916 C   0  0  0  0  0  0  0  0  0  0  0  0
  -10.0841   25.8010    0.6075 N   0  0  0  0  0  0  0  0  0  0  0  0
   -8.4414   26.9797    1.9023 C   0  0  0  0  0  0  0  0  0  0  0  0
   -9.1050   25.7363    1.7547 C   0  0  0  0  0  0  0  0  0  0  0  0
   -8.7690   24.5340    2.6776 C   0  0  0  0  0  0  0  0  0  0  0  0
   -7.7146   24.6959    3.7439 C   0  0  0  0  0  0  0  0  0  0  0  0
   -7.0229   26.0094    3.8992 C   0  0  0  0  0  0  0  0  0  0  0  0
   -7.3697   27.1811    3.0152 C   0  0  0  0  0  0  0  0  0  0  0  0
  -10.5143   24.6542   -0.1732 C   0  0  0  0  0  0  0  0  0  0  0  0
   -5.9979   26.1820    5.0083 C   0  0  0  0  0  0  0  0  0  0  0  0
   -5.3948   27.3879    5.3731 C   0  0  0  0  0  0  0  0  0  0  0  0
   -4.5348   27.1214    6.3488 N   0  0  0  0  0  0  0  0  0  0  0  0
   -3.5378   27.7592    7.2716 C   0  0  0  0  0  0  0  0  0  0  0  0
   -2.9130   26.6836    8.1124 C   0  0  0  0  0  0  0  0  0  0  0  0
   -3.5654   25.4149    7.7130 C   0  0  0  0  0  0  0  0  0  0  0  0
   -4.5641   25.7465    6.5928 C   0  0  0  0  0  0  0  0  0  0  0  0
   -5.4788   25.1881    5.7650 N   0  0  0  0  0  0  0  0  0  0  0  0
 15 14  1  0  0  0
 15 16  1  0  0  0
 14 13  1  0  0  0
 16 17  1  0  0  0
 13 17  1  0  0  0
 13 12  1  0  0  0
 17 18  2  0  0  0
 12 11  2  0  0  0
 18 11  1  0  0  0
 11  8  1  0  0  0
  7  8  2  0  0  0
  7  6  1  0  0  0
  8  9  1  0  0  0
  6  5  2  0  0  0
  9  4  2  0  0  0
  5  4  1  0  0  0
  5  3  1  0  0  0
  4  1  1  0  0  0
 10  3  1  0  0  0
  3  2  1  0  0  0
  1  2  1  0  0  0
M  END
> <minimizedAffinity>
-5.66250

$$$$
6DAI_G2V_A_503


 18 21  0  0  0  0  0  0  0  0999 V2000
   -7.2477   30.6802    4.9061 C   0  0  0  0  0  0  0  0  0  0  0  0
   -6.0006   30.6870    5.8283 C   0  0  0  0  0  0  0  0  0  0  0  0
   -5.5031   29.3055    5.8840 N   0  0  0  0  0  0  0  0  0  0  0  0
   -7.2331   29.3397    4.2195 C   0  0  0  0  0  0  0  0  0  0  0  0
   -6.2031   28.5461    4.7828 C   0  0  0  0  0  0  0  0  0  0  0  0
   -5.9415   27.0997    4.2831 C   0  0  0  0  0  0  0  0  0  0  0  0
   -6.8039   26.5331    3.1830 C   0  0  0  0  0  0  0  0  0  0  0  0
   -7.8835   27.3751    2.5888 C   0  0  0  0  0  0  0  0  0  0  0  0
   -8.1183   28.7878    3.0621 C   0  0  0  0  0  0  0  0  0  0  0  0
   -4.8216   28.6855    7.0067 C   0  0  0  0  0  0  0  0  0  0  0  0
   -8.7160   26.8171    1.4460 C   0  0  0  0  0  0  0  0  0  0  0  0
   -9.7523   27.4905    0.7950 C   0  0  0  0  0  0  0  0  0  0  0  0
  -10.2554   26.6613   -0.1116 N   0  0  0  0  0  0  0  0  0  0  0  0
  -11.3021   26.5513   -1.1815 C   0  0  0  0  0  0  0  0  0  0  0  0
  -11.2442   25.1679   -1.7621 C   0  0  0  0  0  0  0  0  0  0  0  0
  -10.1403   24.4711   -1.0616 C   0  0  0  0  0  0  0  0  0  0  0  0
   -9.5645   25.4504   -0.0265 C   0  0  0  0  0  0  0  0  0  0  0  0
   -8.6140   25.5707    0.9305 N   0  0  0  0  0  0  0  0  0  0  0  0
 15 14  1  0  0  0
 15 16  1  0  0  0
 14 13  1  0  0  0
 16 17  1  0  0  0
 13 17  1  0  0  0
 13 12  1  0  0  0
 17 18  2  0  0  0
 12 11  2  0  0  0
 18 11  1  0  0  0
 11  8  1  0  0  0
  7  8  2  0  0  0
  7  6  1  0  0  0
  8  9  1  0  0  0
  6  5  2  0  0  0
  9  4  2  0  0  0
  5  4  1  0  0  0
  5  3  1  0  0  0
  4  1  1  0  0  0
 10  3  1  0  0  0
  3  2  1  0  0  0
  1  2  1  0  0  0
M  END
> <minimizedAffinity>
-5.62933

$$$$
6DAI_G2V_A_503


 18 21  0  0  0  0  0  0  0  0999 V2000
  -14.3653   28.4292    5.6915 C   0  0  0  0  0  0  0  0  0  0  0  0
  -15.3917   27.4529    6.3233 C   0  0  0  0  0  0  0  0  0  0  0  0
  -15.0816   26.1133    5.8053 N   0  0  0  0  0  0  0  0  0  0  0  0
  -13.3076   27.5548    5.0707 C   0  0  0  0  0  0  0  0  0  0  0  0
  -13.7229   26.2025    5.1532 C   0  0  0  0  0  0  0  0  0  0  0  0
  -12.8396   25.0569    4.5893 C   0  0  0  0  0  0  0  0  0  0  0  0
  -11.5211   25.3950    3.9396 C   0  0  0  0  0  0  0  0  0  0  0  0
  -11.0855   26.8204    3.8605 C   0  0  0  0  0  0  0  0  0  0  0  0
  -11.9367   27.9272    4.4307 C   0  0  0  0  0  0  0  0  0  0  0  0
  -16.0350   25.0415    5.5777 C   0  0  0  0  0  0  0  0  0  0  0  0
   -9.7330   27.1505    3.2506 C   0  0  0  0  0  0  0  0  0  0  0  0
   -9.3141   28.4211    2.8490 C   0  0  0  0  0  0  0  0  0  0  0  0
   -8.0975   28.2925    2.3334 N   0  0  0  0  0  0  0  0  0  0  0  0
   -6.9740   29.0690    1.7113 C   0  0  0  0  0  0  0  0  0  0  0  0
   -5.8814   28.1085    1.3397 C   0  0  0  0  0  0  0  0  0  0  0  0
   -6.3424   26.7693    1.7743 C   0  0  0  0  0  0  0  0  0  0  0  0
   -7.7452   26.9416    2.3780 C   0  0  0  0  0  0  0  0  0  0  0  0
   -8.7608   26.2573    2.9560 N   0  0  0  0  0  0  0  0  0  0  0  0
 15 14  1  0  0  0
 15 16  1  0  0  0
 14 13  1  0  0  0
 16 17  1  0  0  0
 13 17  1  0  0  0
 13 12  1  0  0  0
 17 18  2  0  0  0
 12 11  2  0  0  0
 18 11  1  0  0  0
 11  8  1  0  0  0
  7  8  2  0  0  0
  7  6  1  0  0  0
  8  9  1  0  0  0
  6  5  2  0  0  0
  9  4  2  0  0  0
  5  4  1  0  0  0
  5  3  1  0  0  0
  4  1  1  0  0  0
 10  3  1  0  0  0
  3  2  1  0  0  0
  1  2  1  0  0  0
M  END
> <minimizedAffinity>
-5.60793

$$$$
6DAI_G2V_A_503


 18 21  0  0  0  0  0  0  0  0999 V2000
  -15.3406   28.2117    4.4705 C   0  0  0  0  0  0  0  0  0  0  0  0
  -16.7724   27.6197    4.3981 C   0  0  0  0  0  0  0  0  0  0  0  0
  -16.6269   26.1804    4.1405 N   0  0  0  0  0  0  0  0  0  0  0  0
  -14.4182   27.0242    4.5577 C   0  0  0  0  0  0  0  0  0  0  0  0
  -15.1757   25.8399    4.3800 C   0  0  0  0  0  0  0  0  0  0  0  0
  -14.4990   24.4430    4.4129 C   0  0  0  0  0  0  0  0  0  0  0  0
  -13.0097   24.3510    4.6330 C   0  0  0  0  0  0  0  0  0  0  0  0
  -12.2171   25.6010    4.8256 C   0  0  0  0  0  0  0  0  0  0  0  0
  -12.8832   26.9542    4.8160 C   0  0  0  0  0  0  0  0  0  0  0  0
  -17.5577   25.3441    3.4031 C   0  0  0  0  0  0  0  0  0  0  0  0
  -10.7252   25.4996    5.0978 C   0  0  0  0  0  0  0  0  0  0  0  0
  -10.1269   25.5477    6.3591 C   0  0  0  0  0  0  0  0  0  0  0  0
   -8.8142   25.4669    6.1781 N   0  0  0  0  0  0  0  0  0  0  0  0
   -7.5053   25.4380    6.9118 C   0  0  0  0  0  0  0  0  0  0  0  0
   -6.3965   25.3633    5.9023 C   0  0  0  0  0  0  0  0  0  0  0  0
   -7.0495   25.3115    4.5735 C   0  0  0  0  0  0  0  0  0  0  0  0
   -8.5666   25.3942    4.8054 C   0  0  0  0  0  0  0  0  0  0  0  0
   -9.7562   25.4047    4.1586 N   0  0  0  0  0  0  0  0  0  0  0  0
 15 14  1  0  0  0
 15 16  1  0  0  0
 14 13  1  0  0  0
 16 17  1  0  0  0
 13 17  1  0  0  0
 13 12  1  0  0  0
 17 18  2  0  0  0
 12 11  2  0  0  0
 18 11  1  0  0  0
 11  8  1  0  0  0
  7  8  2  0  0  0
  7  6  1  0  0  0
  8  9  1  0  0  0
  6  5  2  0  0  0
  9  4  2  0  0  0
  5  4  1  0  0  0
  5  3  1  0  0  0
  4  1  1  0  0  0
 10  3  1  0  0  0
  3  2  1  0  0  0
  1  2  1  0  0  0
M  END
> <minimizedAffinity>
-5.50677

$$$$
6DAI_G2V_A_503


 18 21  0  0  0  0  0  0  0  0999 V2000
  -13.1081   26.3365   -3.2085 C   0  0  0  0  0  0  0  0  0  0  0  0
  -13.9831   25.0940   -3.5193 C   0  0  0  0  0  0  0  0  0  0  0  0
  -13.3534   23.9493   -2.8466 N   0  0  0  0  0  0  0  0  0  0  0  0
  -12.1745   25.9061   -2.1077 C   0  0  0  0  0  0  0  0  0  0  0  0
  -12.3322   24.5148   -1.8893 C   0  0  0  0  0  0  0  0  0  0  0  0
  -11.4958   23.7727   -0.8122 C   0  0  0  0  0  0  0  0  0  0  0  0
  -10.4968   24.5491    0.0088 C   0  0  0  0  0  0  0  0  0  0  0  0
  -10.3387   26.0154   -0.2211 C   0  0  0  0  0  0  0  0  0  0  0  0
  -11.1705   26.7358   -1.2526 C   0  0  0  0  0  0  0  0  0  0  0  0
  -13.3832   22.5690   -3.2975 C   0  0  0  0  0  0  0  0  0  0  0  0
   -9.3674   26.8020    0.6439 C   0  0  0  0  0  0  0  0  0  0  0  0
   -8.2265   26.2814    1.2592 C   0  0  0  0  0  0  0  0  0  0  0  0
   -7.6677   27.2649    1.9542 N   0  0  0  0  0  0  0  0  0  0  0  0
   -6.5044   27.5885    2.8455 C   0  0  0  0  0  0  0  0  0  0  0  0
   -6.6227   29.0210    3.2795 C   0  0  0  0  0  0  0  0  0  0  0  0
   -7.8351   29.5553    2.6167 C   0  0  0  0  0  0  0  0  0  0  0  0
   -8.4595   28.4064    1.8092 C   0  0  0  0  0  0  0  0  0  0  0  0
   -9.4945   28.1034    0.9903 N   0  0  0  0  0  0  0  0  0  0  0  0
 15 14  1  0  0  0
 15 16  1  0  0  0
 14 13  1  0  0  0
 16 17  1  0  0  0
 13 17  1  0  0  0
 13 12  1  0  0  0
 17 18  2  0  0  0
 12 11  2  0  0  0
 18 11  1  0  0  0
 11  8  1  0  0  0
  7  8  2  0  0  0
  7  6  1  0  0  0
  8  9  1  0  0  0
  6  5  2  0  0  0
  9  4  2  0  0  0
  5  4  1  0  0  0
  5  3  1  0  0  0
  4  1  1  0  0  0
 10  3  1  0  0  0
  3  2  1  0  0  0
  1  2  1  0  0  0
M  END
> <minimizedAffinity>
-5.49278

$$$$
6DAI_G2V_A_503


 18 21  0  0  0  0  0  0  0  0999 V2000
  -13.8625   24.2533    4.8958 C   0  0  0  0  0  0  0  0  0  0  0  0
  -15.2308   24.7258    5.4530 C   0  0  0  0  0  0  0  0  0  0  0  0
  -15.0802   26.1435    5.8089 N   0  0  0  0  0  0  0  0  0  0  0  0
  -13.0653   25.5105    4.6669 C   0  0  0  0  0  0  0  0  0  0  0  0
  -13.7870   26.6133    5.1876 C   0  0  0  0  0  0  0  0  0  0  0  0
  -13.2168   28.0550    5.1057 C   0  0  0  0  0  0  0  0  0  0  0  0
  -11.8701   28.2793    4.4647 C   0  0  0  0  0  0  0  0  0  0  0  0
  -11.1166   27.1152    3.9124 C   0  0  0  0  0  0  0  0  0  0  0  0
  -11.6856   25.7197    3.9738 C   0  0  0  0  0  0  0  0  0  0  0  0
  -15.7813   26.8378    6.8747 C   0  0  0  0  0  0  0  0  0  0  0  0
   -9.7835   27.3536    3.2224 C   0  0  0  0  0  0  0  0  0  0  0  0
   -8.8064   26.3826    2.9907 C   0  0  0  0  0  0  0  0  0  0  0  0
   -7.7794   26.9862    2.4046 N   0  0  0  0  0  0  0  0  0  0  0  0
   -6.4114   26.7396    1.8389 C   0  0  0  0  0  0  0  0  0  0  0  0
   -5.8503   28.0492    1.3650 C   0  0  0  0  0  0  0  0  0  0  0  0
   -6.8996   29.0642    1.6169 C   0  0  0  0  0  0  0  0  0  0  0  0
   -8.0824   28.3443    2.2838 C   0  0  0  0  0  0  0  0  0  0  0  0
   -9.3246   28.5478    2.7830 N   0  0  0  0  0  0  0  0  0  0  0  0
 15 14  1  0  0  0
 15 16  1  0  0  0
 14 13  1  0  0  0
 16 17  1  0  0  0
 13 17  1  0  0  0
 13 12  1  0  0  0
 17 18  2  0  0  0
 12 11  2  0  0  0
 18 11  1  0  0  0
 11  8  1  0  0  0
  7  8  2  0  0  0
  7  6  1  0  0  0
  8  9  1  0  0  0
  6  5  2  0  0  0
  9  4  2  0  0  0
  5  4  1  0  0  0
  5  3  1  0  0  0
  4  1  1  0  0  0
 10  3  1  0  0  0
  3  2  1  0  0  0
  1  2  1  0  0  0
M  END
> <minimizedAffinity>
-5.48068

$$$$
6DAI_G2V_A_503


 18 21  0  0  0  0  0  0  0  0999 V2000
  -13.8589   24.7806    5.3807 C   0  0  0  0  0  0  0  0  0  0  0  0
  -15.4040   24.6436    5.3875 C   0  0  0  0  0  0  0  0  0  0  0  0
  -15.9534   26.0064    5.3902 N   0  0  0  0  0  0  0  0  0  0  0  0
  -13.5847   26.2280    5.0670 C   0  0  0  0  0  0  0  0  0  0  0  0
  -14.8118   26.9367    5.0583 C   0  0  0  0  0  0  0  0  0  0  0  0
  -14.8547   28.4614    4.7685 C   0  0  0  0  0  0  0  0  0  0  0  0
  -13.5658   29.1962    4.4973 C   0  0  0  0  0  0  0  0  0  0  0  0
  -12.2766   28.4440    4.5017 C   0  0  0  0  0  0  0  0  0  0  0  0
  -12.2430   26.9586    4.7608 C   0  0  0  0  0  0  0  0  0  0  0  0
  -17.2053   26.4235    5.9970 C   0  0  0  0  0  0  0  0  0  0  0  0
  -10.9867   29.1799    4.1776 C   0  0  0  0  0  0  0  0  0  0  0  0
  -10.0264   29.5799    5.1098 C   0  0  0  0  0  0  0  0  0  0  0  0
   -9.0737   30.2232    4.4456 N   0  0  0  0  0  0  0  0  0  0  0  0
   -7.7629   30.9323    4.6223 C   0  0  0  0  0  0  0  0  0  0  0  0
   -7.3175   31.4475    3.2841 C   0  0  0  0  0  0  0  0  0  0  0  0
   -8.3457   31.0127    2.3103 C   0  0  0  0  0  0  0  0  0  0  0  0
   -9.4318   30.2609    3.0961 C   0  0  0  0  0  0  0  0  0  0  0  0
  -10.6068   29.6038    2.9505 N   0  0  0  0  0  0  0  0  0  0  0  0
 15 14  1  0  0  0
 15 16  1  0  0  0
 14 13  1  0  0  0
 16 17  1  0  0  0
 13 17  1  0  0  0
 13 12  1  0  0  0
 17 18  2  0  0  0
 12 11  2  0  0  0
 18 11  1  0  0  0
 11  8  1  0  0  0
  7  8  2  0  0  0
  7  6  1  0  0  0
  8  9  1  0  0  0
  6  5  2  0  0  0
  9  4  2  0  0  0
  5  4  1  0  0  0
  5  3  1  0  0  0
  4  1  1  0  0  0
 10  3  1  0  0  0
  3  2  1  0  0  0
  1  2  1  0  0  0
M  END
> <minimizedAffinity>
-5.36669

$$$$
