4ZX4_4TL_A_1101


 30 31  0  0  0  0  0  0  0  0999 V2000
   14.0126  120.5261  131.4189 C   0  0  0  0  0  0  0  0  0  0  0  0
   12.9772  121.0289  130.4060 C   0  0  0  0  0  0  0  0  0  0  0  0
   13.3330  121.3677  129.2798 O   0  0  0  0  0  0  0  0  0  0  0  0
   11.7897  121.2460  130.9353 N   0  0  0  0  0  0  0  0  0  0  0  0
   10.7664  121.7242  130.1249 O   0  0  0  0  0  0  0  0  0  0  0  0
   11.6297  121.0720  131.8910 H   0  0  0  0  0  0  0  0  0  0  0  0
   11.0968  121.8380  129.2200 H   0  0  0  0  0  0  0  0  0  0  0  0
   13.5763  120.5398  132.7434 C   0  0  0  0  0  0  0  0  0  0  0  0
   13.2095  121.7891  133.2216 C   0  0  0  0  0  0  0  0  0  0  0  0
   12.8221  121.9488  134.5421 C   0  0  0  0  0  0  0  0  0  0  0  0
   13.6015  119.4351  133.5883 C   0  0  0  0  0  0  0  0  0  0  0  0
   13.2018  119.5795  134.9145 C   0  0  0  0  0  0  0  0  0  0  0  0
   12.7925  120.8261  135.3867 C   0  0  0  0  0  0  0  0  0  0  0  0
   12.4925  121.0353  136.7384 C   0  0  0  0  0  0  0  0  0  0  0  0
   11.4226  120.4791  137.4314 C   0  0  0  0  0  0  0  0  0  0  0  0
   11.2991  120.7880  138.8016 C   0  0  0  0  0  0  0  0  0  0  0  0
   10.2696  120.2790  139.4532 F   0  0  0  0  0  0  0  0  0  0  0  0
   12.2409  121.6016  139.4640 C   0  0  0  0  0  0  0  0  0  0  0  0
   12.1783  121.9347  140.8069 F   0  0  0  0  0  0  0  0  0  0  0  0
   13.3050  122.1314  138.7814 C   0  0  0  0  0  0  0  0  0  0  0  0
   14.1972  122.8843  139.5022 F   0  0  0  0  0  0  0  0  0  0  0  0
   13.4272  121.8594  137.4147 C   0  0  0  0  0  0  0  0  0  0  0  0
   15.8701  119.1253  130.6217 C   0  0  0  0  0  0  0  0  0  0  0  0
   16.7272  119.8399  131.1186 O   0  0  0  0  0  0  0  0  0  0  0  0
   14.5425  119.2865  130.8139 N   0  0  0  0  0  0  0  0  0  0  0  0
   13.9214  118.5704  130.5480 H   0  0  0  0  0  0  0  0  0  0  0  0
   17.8046  118.1383  129.3025 C   0  0  0  0  0  0  0  0  0  0  0  0
   16.3208  118.0140  129.6447 C   0  0  0  0  0  0  0  0  0  0  0  0
   15.9869  116.6073  130.1307 C   0  0  0  0  0  0  0  0  0  0  0  0
   15.5499  118.3379  128.3461 C   0  0  0  0  0  0  0  0  0  0  0  0
 30 28  1  0  0  0
  5  4  1  0  0  0
  4  2  1  0  0  0
 28 27  1  0  0  0
 28 29  1  0  0  0
 28 23  1  0  0  0
  3  2  2  0  0  0
  2  1  1  0  0  0
 23 25  1  0  0  0
 23 24  2  0  0  0
 25  1  1  0  0  0
  1  8  1  0  0  0
  8  9  2  0  0  0
  8 11  1  0  0  0
  9 10  1  0  0  0
 11 12  2  0  0  0
 10 13  2  0  0  0
 12 13  1  0  0  0
 13 14  1  0  0  0
 14 15  2  0  0  0
 14 22  1  0  0  0
 15 16  1  0  0  0
 22 20  2  0  0  0
 16 17  1  0  0  0
 16 18  2  0  0  0
 20 18  1  0  0  0
 20 21  1  0  0  0
 18 19  1  0  0  0
 25 26  1  0  0  0
  4  6  1  0  0  0
  5  7  1  0  0  0
M  END
> <minimizedAffinity>
-12.03661

$$$$
4ZX4_4TL_A_1101


 30 31  0  0  0  0  0  0  0  0999 V2000
   17.7997  116.7671  126.7050 C   0  0  0  0  0  0  0  0  0  0  0  0
   17.1193  116.9795  125.3475 C   0  0  0  0  0  0  0  0  0  0  0  0
   17.4800  117.8986  124.6160 O   0  0  0  0  0  0  0  0  0  0  0  0
   16.0353  116.2474  125.1850 N   0  0  0  0  0  0  0  0  0  0  0  0
   15.3133  116.3628  124.0026 O   0  0  0  0  0  0  0  0  0  0  0  0
   15.7412  115.6275  125.8910 H   0  0  0  0  0  0  0  0  0  0  0  0
   15.7419  117.0131  123.4243 H   0  0  0  0  0  0  0  0  0  0  0  0
   17.0278  117.1485  127.8020 C   0  0  0  0  0  0  0  0  0  0  0  0
   16.6399  118.4802  127.8048 C   0  0  0  0  0  0  0  0  0  0  0  0
   15.9268  119.0009  128.8724 C   0  0  0  0  0  0  0  0  0  0  0  0
   16.7449  116.3239  128.8859 C   0  0  0  0  0  0  0  0  0  0  0  0
   16.0174  116.8315  129.9594 C   0  0  0  0  0  0  0  0  0  0  0  0
   15.5900  118.1588  129.9457 C   0  0  0  0  0  0  0  0  0  0  0  0
   14.9562  118.7360  131.0529 C   0  0  0  0  0  0  0  0  0  0  0  0
   14.3607  119.9923  131.0880 C   0  0  0  0  0  0  0  0  0  0  0  0
   13.7466  120.3919  132.2928 C   0  0  0  0  0  0  0  0  0  0  0  0
   13.2025  121.5943  132.3327 F   0  0  0  0  0  0  0  0  0  0  0  0
   13.7006  119.5418  133.4167 C   0  0  0  0  0  0  0  0  0  0  0  0
   13.1072  119.8735  134.6233 F   0  0  0  0  0  0  0  0  0  0  0  0
   14.2715  118.2964  133.3710 C   0  0  0  0  0  0  0  0  0  0  0  0
   14.1557  117.5147  134.4926 F   0  0  0  0  0  0  0  0  0  0  0  0
   14.9109  117.8948  132.1934 C   0  0  0  0  0  0  0  0  0  0  0  0
   19.4586  115.1573  125.8655 C   0  0  0  0  0  0  0  0  0  0  0  0
   20.1835  116.0246  125.4026 O   0  0  0  0  0  0  0  0  0  0  0  0
   18.3654  115.4047  126.6200 N   0  0  0  0  0  0  0  0  0  0  0  0
   17.9412  114.6694  127.1185 H   0  0  0  0  0  0  0  0  0  0  0  0
   20.3535  113.5632  124.1007 C   0  0  0  0  0  0  0  0  0  0  0  0
   19.7574  113.6838  125.5022 C   0  0  0  0  0  0  0  0  0  0  0  0
   20.6284  112.9701  126.5310 C   0  0  0  0  0  0  0  0  0  0  0  0
   18.3570  113.0361  125.4326 C   0  0  0  0  0  0  0  0  0  0  0  0
 30 28  1  0  0  0
  5  4  1  0  0  0
  4  2  1  0  0  0
 28 27  1  0  0  0
 28 29  1  0  0  0
 28 23  1  0  0  0
  3  2  2  0  0  0
  2  1  1  0  0  0
 23 25  1  0  0  0
 23 24  2  0  0  0
 25  1  1  0  0  0
  1  8  1  0  0  0
  8  9  2  0  0  0
  8 11  1  0  0  0
  9 10  1  0  0  0
 11 12  2  0  0  0
 10 13  2  0  0  0
 12 13  1  0  0  0
 13 14  1  0  0  0
 14 15  2  0  0  0
 14 22  1  0  0  0
 15 16  1  0  0  0
 22 20  2  0  0  0
 16 17  1  0  0  0
 16 18  2  0  0  0
 20 18  1  0  0  0
 20 21  1  0  0  0
 18 19  1  0  0  0
 25 26  1  0  0  0
  4  6  1  0  0  0
  5  7  1  0  0  0
M  END
> <minimizedAffinity>
-9.85223

$$$$
4ZX4_4TL_A_1101


 30 31  0  0  0  0  0  0  0  0999 V2000
   17.7385  116.7621  126.8129 C   0  0  0  0  0  0  0  0  0  0  0  0
   17.1266  116.9305  125.4171 C   0  0  0  0  0  0  0  0  0  0  0  0
   17.5885  117.7622  124.6395 O   0  0  0  0  0  0  0  0  0  0  0  0
   15.9916  116.2786  125.2610 N   0  0  0  0  0  0  0  0  0  0  0  0
   15.3241  116.3665  124.0447 O   0  0  0  0  0  0  0  0  0  0  0  0
   15.6219  115.7371  125.9953 H   0  0  0  0  0  0  0  0  0  0  0  0
   15.8257  116.9366  123.4411 H   0  0  0  0  0  0  0  0  0  0  0  0
   17.0806  117.4689  127.8191 C   0  0  0  0  0  0  0  0  0  0  0  0
   16.6381  116.6928  128.8802 C   0  0  0  0  0  0  0  0  0  0  0  0
   15.9112  117.2641  129.9119 C   0  0  0  0  0  0  0  0  0  0  0  0
   16.7687  118.8227  127.7506 C   0  0  0  0  0  0  0  0  0  0  0  0
   16.0500  119.4120  128.7877 C   0  0  0  0  0  0  0  0  0  0  0  0
   15.6400  118.6425  129.8760 C   0  0  0  0  0  0  0  0  0  0  0  0
   14.8206  119.1719  130.8806 C   0  0  0  0  0  0  0  0  0  0  0  0
   14.7734  118.7449  132.2033 C   0  0  0  0  0  0  0  0  0  0  0  0
   13.8991  119.4216  133.0784 C   0  0  0  0  0  0  0  0  0  0  0  0
   13.8371  119.0002  134.3282 F   0  0  0  0  0  0  0  0  0  0  0  0
   13.1223  120.5164  132.6472 C   0  0  0  0  0  0  0  0  0  0  0  0
   12.2521  121.2249  133.4590 F   0  0  0  0  0  0  0  0  0  0  0  0
   13.1870  120.9464  131.3472 C   0  0  0  0  0  0  0  0  0  0  0  0
   12.4277  122.0390  131.0122 F   0  0  0  0  0  0  0  0  0  0  0  0
   14.0272  120.2683  130.4579 C   0  0  0  0  0  0  0  0  0  0  0  0
   19.0166  114.7168  126.3319 C   0  0  0  0  0  0  0  0  0  0  0  0
   19.9604  115.3247  125.8504 O   0  0  0  0  0  0  0  0  0  0  0  0
   17.9639  115.3073  126.9391 N   0  0  0  0  0  0  0  0  0  0  0  0
   17.3402  114.7623  127.4714 H   0  0  0  0  0  0  0  0  0  0  0  0
   20.2069  112.6642  125.4228 C   0  0  0  0  0  0  0  0  0  0  0  0
   18.9769  113.1793  126.1684 C   0  0  0  0  0  0  0  0  0  0  0  0
   18.7830  112.4342  127.4851 C   0  0  0  0  0  0  0  0  0  0  0  0
   17.7735  112.9452  125.2289 C   0  0  0  0  0  0  0  0  0  0  0  0
 30 28  1  0  0  0
  5  4  1  0  0  0
  4  2  1  0  0  0
 28 27  1  0  0  0
 28 29  1  0  0  0
 28 23  1  0  0  0
  3  2  2  0  0  0
  2  1  1  0  0  0
 23 25  1  0  0  0
 23 24  2  0  0  0
 25  1  1  0  0  0
  1  8  1  0  0  0
  8  9  2  0  0  0
  8 11  1  0  0  0
  9 10  1  0  0  0
 11 12  2  0  0  0
 10 13  2  0  0  0
 12 13  1  0  0  0
 13 14  1  0  0  0
 14 15  2  0  0  0
 14 22  1  0  0  0
 15 16  1  0  0  0
 22 20  2  0  0  0
 16 17  1  0  0  0
 16 18  2  0  0  0
 20 18  1  0  0  0
 20 21  1  0  0  0
 18 19  1  0  0  0
 25 26  1  0  0  0
  4  6  1  0  0  0
  5  7  1  0  0  0
M  END
> <minimizedAffinity>
-9.84501

$$$$
4ZX4_4TL_A_1101


 30 31  0  0  0  0  0  0  0  0999 V2000
   16.8331  116.6777  129.9896 C   0  0  0  0  0  0  0  0  0  0  0  0
   18.3217  116.7742  130.3440 C   0  0  0  0  0  0  0  0  0  0  0  0
   18.8788  117.8692  130.3655 O   0  0  0  0  0  0  0  0  0  0  0  0
   18.9248  115.6032  130.3943 N   0  0  0  0  0  0  0  0  0  0  0  0
   20.2832  115.5552  130.6859 O   0  0  0  0  0  0  0  0  0  0  0  0
   18.4204  114.7743  130.2278 H   0  0  0  0  0  0  0  0  0  0  0  0
   20.6171  116.4560  130.8203 H   0  0  0  0  0  0  0  0  0  0  0  0
   15.9821  117.2976  130.9041 C   0  0  0  0  0  0  0  0  0  0  0  0
   15.6808  118.6200  130.6135 C   0  0  0  0  0  0  0  0  0  0  0  0
   14.8999  119.3681  131.4794 C   0  0  0  0  0  0  0  0  0  0  0  0
   15.5417  116.7119  132.0864 C   0  0  0  0  0  0  0  0  0  0  0  0
   14.7450  117.4490  132.9591 C   0  0  0  0  0  0  0  0  0  0  0  0
   14.4059  118.7656  132.6488 C   0  0  0  0  0  0  0  0  0  0  0  0
   13.7034  119.5735  133.5515 C   0  0  0  0  0  0  0  0  0  0  0  0
   13.2270  120.8552  133.2980 C   0  0  0  0  0  0  0  0  0  0  0  0
   12.5161  121.5045  134.3282 C   0  0  0  0  0  0  0  0  0  0  0  0
   12.0849  122.7306  134.0953 F   0  0  0  0  0  0  0  0  0  0  0  0
   12.2606  120.8725  135.5624 C   0  0  0  0  0  0  0  0  0  0  0  0
   11.5637  121.4541  136.6084 F   0  0  0  0  0  0  0  0  0  0  0  0
   12.7150  119.6014  135.8004 C   0  0  0  0  0  0  0  0  0  0  0  0
   12.3970  119.0409  137.0117 F   0  0  0  0  0  0  0  0  0  0  0  0
   13.4474  118.9530  134.8004 C   0  0  0  0  0  0  0  0  0  0  0  0
   17.0357  116.0948  127.6090 C   0  0  0  0  0  0  0  0  0  0  0  0
   17.1003  114.8945  127.8266 O   0  0  0  0  0  0  0  0  0  0  0  0
   16.7767  117.0247  128.5544 N   0  0  0  0  0  0  0  0  0  0  0  0
   16.5479  117.9433  128.2841 H   0  0  0  0  0  0  0  0  0  0  0  0
   17.3759  118.1232  126.1169 C   0  0  0  0  0  0  0  0  0  0  0  0
   17.3494  116.5969  126.1801 C   0  0  0  0  0  0  0  0  0  0  0  0
   18.6265  116.0024  125.5950 C   0  0  0  0  0  0  0  0  0  0  0  0
   16.1178  116.1526  125.3607 C   0  0  0  0  0  0  0  0  0  0  0  0
 30 28  1  0  0  0
  5  4  1  0  0  0
  4  2  1  0  0  0
 28 27  1  0  0  0
 28 29  1  0  0  0
 28 23  1  0  0  0
  3  2  2  0  0  0
  2  1  1  0  0  0
 23 25  1  0  0  0
 23 24  2  0  0  0
 25  1  1  0  0  0
  1  8  1  0  0  0
  8  9  2  0  0  0
  8 11  1  0  0  0
  9 10  1  0  0  0
 11 12  2  0  0  0
 10 13  2  0  0  0
 12 13  1  0  0  0
 13 14  1  0  0  0
 14 15  2  0  0  0
 14 22  1  0  0  0
 15 16  1  0  0  0
 22 20  2  0  0  0
 16 17  1  0  0  0
 16 18  2  0  0  0
 20 18  1  0  0  0
 20 21  1  0  0  0
 18 19  1  0  0  0
 25 26  1  0  0  0
  4  6  1  0  0  0
  5  7  1  0  0  0
M  END
> <minimizedAffinity>
-9.82415

$$$$
4ZX4_4TL_A_1101


 30 31  0  0  0  0  0  0  0  0999 V2000
   16.3670  115.5216  129.9923 C   0  0  0  0  0  0  0  0  0  0  0  0
   17.7541  115.0161  130.4060 C   0  0  0  0  0  0  0  0  0  0  0  0
   17.8688  113.9352  130.9791 O   0  0  0  0  0  0  0  0  0  0  0  0
   18.7014  115.9239  130.2795 N   0  0  0  0  0  0  0  0  0  0  0  0
   20.0031  115.5967  130.6417 O   0  0  0  0  0  0  0  0  0  0  0  0
   18.4901  116.8210  129.9333 H   0  0  0  0  0  0  0  0  0  0  0  0
   20.0298  114.6805  130.9589 H   0  0  0  0  0  0  0  0  0  0  0  0
   15.8353  116.4982  130.8339 C   0  0  0  0  0  0  0  0  0  0  0  0
   15.2696  116.0121  132.0034 C   0  0  0  0  0  0  0  0  0  0  0  0
   14.6474  116.8734  132.8924 C   0  0  0  0  0  0  0  0  0  0  0  0
   15.7528  117.8491  130.5129 C   0  0  0  0  0  0  0  0  0  0  0  0
   15.1415  118.7274  131.4042 C   0  0  0  0  0  0  0  0  0  0  0  0
   14.6090  118.2474  132.6003 C   0  0  0  0  0  0  0  0  0  0  0  0
   13.8886  119.0782  133.4673 C   0  0  0  0  0  0  0  0  0  0  0  0
   13.5409  118.7801  134.7804 C   0  0  0  0  0  0  0  0  0  0  0  0
   12.8330  119.7588  135.5080 C   0  0  0  0  0  0  0  0  0  0  0  0
   12.4823  119.4657  136.7468 F   0  0  0  0  0  0  0  0  0  0  0  0
   12.5151  121.0121  134.9459 C   0  0  0  0  0  0  0  0  0  0  0  0
   11.8294  122.0152  135.6106 F   0  0  0  0  0  0  0  0  0  0  0  0
   12.8774  121.3090  133.6576 C   0  0  0  0  0  0  0  0  0  0  0  0
   12.5632  122.5612  133.1932 F   0  0  0  0  0  0  0  0  0  0  0  0
   13.5545  120.3389  132.9112 C   0  0  0  0  0  0  0  0  0  0  0  0
   16.2094  114.7834  127.6516 C   0  0  0  0  0  0  0  0  0  0  0  0
   15.6381  113.7417  127.9355 O   0  0  0  0  0  0  0  0  0  0  0  0
   16.4856  115.7638  128.5394 N   0  0  0  0  0  0  0  0  0  0  0  0
   16.7690  116.6490  128.2148 H   0  0  0  0  0  0  0  0  0  0  0  0
   16.5663  113.6810  125.3903 C   0  0  0  0  0  0  0  0  0  0  0  0
   16.7246  114.9641  126.2045 C   0  0  0  0  0  0  0  0  0  0  0  0
   16.0981  116.1521  125.4816 C   0  0  0  0  0  0  0  0  0  0  0  0
   18.2439  115.1764  126.3840 C   0  0  0  0  0  0  0  0  0  0  0  0
 30 28  1  0  0  0
  5  4  1  0  0  0
  4  2  1  0  0  0
 28 27  1  0  0  0
 28 29  1  0  0  0
 28 23  1  0  0  0
  3  2  2  0  0  0
  2  1  1  0  0  0
 23 25  1  0  0  0
 23 24  2  0  0  0
 25  1  1  0  0  0
  1  8  1  0  0  0
  8  9  2  0  0  0
  8 11  1  0  0  0
  9 10  1  0  0  0
 11 12  2  0  0  0
 10 13  2  0  0  0
 12 13  1  0  0  0
 13 14  1  0  0  0
 14 15  2  0  0  0
 14 22  1  0  0  0
 15 16  1  0  0  0
 22 20  2  0  0  0
 16 17  1  0  0  0
 16 18  2  0  0  0
 20 18  1  0  0  0
 20 21  1  0  0  0
 18 19  1  0  0  0
 25 26  1  0  0  0
  4  6  1  0  0  0
  5  7  1  0  0  0
M  END
> <minimizedAffinity>
-9.74713

$$$$
4ZX4_4TL_A_1101


 30 31  0  0  0  0  0  0  0  0999 V2000
   16.9211  117.4025  129.4370 C   0  0  0  0  0  0  0  0  0  0  0  0
   17.5369  118.5563  128.6369 C   0  0  0  0  0  0  0  0  0  0  0  0
   18.6356  119.0064  128.9534 O   0  0  0  0  0  0  0  0  0  0  0  0
   16.6992  119.1045  127.7794 N   0  0  0  0  0  0  0  0  0  0  0  0
   17.1298  120.1764  127.0059 O   0  0  0  0  0  0  0  0  0  0  0  0
   15.7816  118.7598  127.6881 H   0  0  0  0  0  0  0  0  0  0  0  0
   18.0523  120.3824  127.2237 H   0  0  0  0  0  0  0  0  0  0  0  0
   16.0563  117.8044  130.4546 C   0  0  0  0  0  0  0  0  0  0  0  0
   15.8184  119.1698  130.5095 C   0  0  0  0  0  0  0  0  0  0  0  0
   15.0306  119.7046  131.5158 C   0  0  0  0  0  0  0  0  0  0  0  0
   15.5441  116.9543  131.4291 C   0  0  0  0  0  0  0  0  0  0  0  0
   14.7399  117.4775  132.4385 C   0  0  0  0  0  0  0  0  0  0  0  0
   14.4648  118.8442  132.4718 C   0  0  0  0  0  0  0  0  0  0  0  0
   13.7560  119.4233  133.5316 C   0  0  0  0  0  0  0  0  0  0  0  0
   13.5316  118.8434  134.7755 C   0  0  0  0  0  0  0  0  0  0  0  0
   12.8142  119.5956  135.7282 C   0  0  0  0  0  0  0  0  0  0  0  0
   12.5808  119.0350  136.9007 F   0  0  0  0  0  0  0  0  0  0  0  0
   12.3666  120.9039  135.4527 C   0  0  0  0  0  0  0  0  0  0  0  0
   11.6647  121.6943  136.3475 F   0  0  0  0  0  0  0  0  0  0  0  0
   12.6075  121.4790  134.2319 C   0  0  0  0  0  0  0  0  0  0  0  0
   12.1711  122.7672  134.0513 F   0  0  0  0  0  0  0  0  0  0  0  0
   13.2923  120.7363  133.2644 C   0  0  0  0  0  0  0  0  0  0  0  0
   17.3699  115.6715  127.7486 C   0  0  0  0  0  0  0  0  0  0  0  0
   18.5344  115.5292  128.0888 O   0  0  0  0  0  0  0  0  0  0  0  0
   16.4756  116.4414  128.4067 N   0  0  0  0  0  0  0  0  0  0  0  0
   15.5169  116.3612  128.1976 H   0  0  0  0  0  0  0  0  0  0  0  0
   16.3736  116.0231  125.4377 C   0  0  0  0  0  0  0  0  0  0  0  0
   16.9032  114.9964  126.4376 C   0  0  0  0  0  0  0  0  0  0  0  0
   17.9677  114.1095  125.7998 C   0  0  0  0  0  0  0  0  0  0  0  0
   15.6854  114.1540  126.8767 C   0  0  0  0  0  0  0  0  0  0  0  0
 30 28  1  0  0  0
  5  4  1  0  0  0
  4  2  1  0  0  0
 28 27  1  0  0  0
 28 29  1  0  0  0
 28 23  1  0  0  0
  3  2  2  0  0  0
  2  1  1  0  0  0
 23 25  1  0  0  0
 23 24  2  0  0  0
 25  1  1  0  0  0
  1  8  1  0  0  0
  8  9  2  0  0  0
  8 11  1  0  0  0
  9 10  1  0  0  0
 11 12  2  0  0  0
 10 13  2  0  0  0
 12 13  1  0  0  0
 13 14  1  0  0  0
 14 15  2  0  0  0
 14 22  1  0  0  0
 15 16  1  0  0  0
 22 20  2  0  0  0
 16 17  1  0  0  0
 16 18  2  0  0  0
 20 18  1  0  0  0
 20 21  1  0  0  0
 18 19  1  0  0  0
 25 26  1  0  0  0
  4  6  1  0  0  0
  5  7  1  0  0  0
M  END
> <minimizedAffinity>
-9.54833

$$$$
4ZX4_4TL_A_1101


 30 31  0  0  0  0  0  0  0  0999 V2000
   15.1541  117.5864  131.1831 C   0  0  0  0  0  0  0  0  0  0  0  0
   15.9524  116.2949  131.3963 C   0  0  0  0  0  0  0  0  0  0  0  0
   17.1024  116.3467  131.8261 O   0  0  0  0  0  0  0  0  0  0  0  0
   15.3700  115.2289  130.8846 N   0  0  0  0  0  0  0  0  0  0  0  0
   16.0031  113.9959  130.9927 O   0  0  0  0  0  0  0  0  0  0  0  0
   14.4989  115.3047  130.4321 H   0  0  0  0  0  0  0  0  0  0  0  0
   16.8442  114.1046  131.4636 H   0  0  0  0  0  0  0  0  0  0  0  0
   14.6020  118.1209  132.3469 C   0  0  0  0  0  0  0  0  0  0  0  0
   14.3257  119.4789  132.2885 C   0  0  0  0  0  0  0  0  0  0  0  0
   13.8377  120.1440  133.4015 C   0  0  0  0  0  0  0  0  0  0  0  0
   14.4339  117.4121  133.5318 C   0  0  0  0  0  0  0  0  0  0  0  0
   13.9316  118.0659  134.6541 C   0  0  0  0  0  0  0  0  0  0  0  0
   13.6135  119.4219  134.5859 C   0  0  0  0  0  0  0  0  0  0  0  0
   13.2143  120.1389  135.7206 C   0  0  0  0  0  0  0  0  0  0  0  0
   12.0372  119.9445  136.4352 C   0  0  0  0  0  0  0  0  0  0  0  0
   11.8210  120.7507  137.5717 C   0  0  0  0  0  0  0  0  0  0  0  0
   10.6922  120.5821  138.2357 F   0  0  0  0  0  0  0  0  0  0  0  0
   12.7738  121.6984  137.9981 C   0  0  0  0  0  0  0  0  0  0  0  0
   12.6228  122.5134  139.1077 F   0  0  0  0  0  0  0  0  0  0  0  0
   13.9417  121.8726  137.3019 C   0  0  0  0  0  0  0  0  0  0  0  0
   14.8342  122.7889  137.7984 F   0  0  0  0  0  0  0  0  0  0  0  0
   14.1598  121.1020  136.1550 C   0  0  0  0  0  0  0  0  0  0  0  0
   16.0640  118.1934  128.9804 C   0  0  0  0  0  0  0  0  0  0  0  0
   15.2640  117.5004  128.3706 O   0  0  0  0  0  0  0  0  0  0  0  0
   16.0190  118.4102  130.3133 N   0  0  0  0  0  0  0  0  0  0  0  0
   16.5684  119.1249  130.7092 H   0  0  0  0  0  0  0  0  0  0  0  0
   17.0743  118.6296  126.6901 C   0  0  0  0  0  0  0  0  0  0  0  0
   17.2534  118.7979  128.1980 C   0  0  0  0  0  0  0  0  0  0  0  0
   17.5385  120.2528  128.5565 C   0  0  0  0  0  0  0  0  0  0  0  0
   18.4439  117.8970  128.5942 C   0  0  0  0  0  0  0  0  0  0  0  0
 30 28  1  0  0  0
  5  4  1  0  0  0
  4  2  1  0  0  0
 28 27  1  0  0  0
 28 29  1  0  0  0
 28 23  1  0  0  0
  3  2  2  0  0  0
  2  1  1  0  0  0
 23 25  1  0  0  0
 23 24  2  0  0  0
 25  1  1  0  0  0
  1  8  1  0  0  0
  8  9  2  0  0  0
  8 11  1  0  0  0
  9 10  1  0  0  0
 11 12  2  0  0  0
 10 13  2  0  0  0
 12 13  1  0  0  0
 13 14  1  0  0  0
 14 15  2  0  0  0
 14 22  1  0  0  0
 15 16  1  0  0  0
 22 20  2  0  0  0
 16 17  1  0  0  0
 16 18  2  0  0  0
 20 18  1  0  0  0
 20 21  1  0  0  0
 18 19  1  0  0  0
 25 26  1  0  0  0
  4  6  1  0  0  0
  5  7  1  0  0  0
M  END
> <minimizedAffinity>
-9.34603

$$$$
4ZX4_4TL_A_1101


 30 31  0  0  0  0  0  0  0  0999 V2000
   17.1179  118.1409  130.2131 C   0  0  0  0  0  0  0  0  0  0  0  0
   16.4229  119.5072  130.2446 C   0  0  0  0  0  0  0  0  0  0  0  0
   16.5857  120.2579  131.2036 O   0  0  0  0  0  0  0  0  0  0  0  0
   15.5236  119.6591  129.2929 N   0  0  0  0  0  0  0  0  0  0  0  0
   14.8069  120.8483  129.2246 O   0  0  0  0  0  0  0  0  0  0  0  0
   15.3618  118.9405  128.6397 H   0  0  0  0  0  0  0  0  0  0  0  0
   15.0920  121.4392  129.9391 H   0  0  0  0  0  0  0  0  0  0  0  0
   16.9912  117.4031  131.3898 C   0  0  0  0  0  0  0  0  0  0  0  0
   15.6843  117.1753  131.7949 C   0  0  0  0  0  0  0  0  0  0  0  0
   15.4237  116.5128  132.9834 C   0  0  0  0  0  0  0  0  0  0  0  0
   18.0609  117.0085  132.1864 C   0  0  0  0  0  0  0  0  0  0  0  0
   17.8128  116.3300  133.3770 C   0  0  0  0  0  0  0  0  0  0  0  0
   16.5006  116.0628  133.7659 C   0  0  0  0  0  0  0  0  0  0  0  0
   16.2075  115.4851  135.0074 C   0  0  0  0  0  0  0  0  0  0  0  0
   15.1675  115.8550  135.8534 C   0  0  0  0  0  0  0  0  0  0  0  0
   15.0151  115.1353  137.0563 C   0  0  0  0  0  0  0  0  0  0  0  0
   14.0424  115.5026  137.8701 F   0  0  0  0  0  0  0  0  0  0  0  0
   15.8591  114.0542  137.3832 C   0  0  0  0  0  0  0  0  0  0  0  0
   15.7558  113.3054  138.5437 F   0  0  0  0  0  0  0  0  0  0  0  0
   16.8705  113.6804  136.5368 C   0  0  0  0  0  0  0  0  0  0  0  0
   17.6272  112.5976  136.9076 F   0  0  0  0  0  0  0  0  0  0  0  0
   17.0548  114.4020  135.3527 C   0  0  0  0  0  0  0  0  0  0  0  0
   17.6173  116.8947  128.1526 C   0  0  0  0  0  0  0  0  0  0  0  0
   18.7116  116.5230  128.5481 O   0  0  0  0  0  0  0  0  0  0  0  0
   16.7208  117.5596  128.9140 N   0  0  0  0  0  0  0  0  0  0  0  0
   15.7929  117.6579  128.5998 H   0  0  0  0  0  0  0  0  0  0  0  0
   18.3066  115.7981  125.9665 C   0  0  0  0  0  0  0  0  0  0  0  0
   17.2606  116.6655  126.6651 C   0  0  0  0  0  0  0  0  0  0  0  0
   15.8573  116.1051  126.4573 C   0  0  0  0  0  0  0  0  0  0  0  0
   17.3816  118.0734  126.0418 C   0  0  0  0  0  0  0  0  0  0  0  0
 30 28  1  0  0  0
  5  4  1  0  0  0
  4  2  1  0  0  0
 28 27  1  0  0  0
 28 29  1  0  0  0
 28 23  1  0  0  0
  3  2  2  0  0  0
  2  1  1  0  0  0
 23 25  1  0  0  0
 23 24  2  0  0  0
 25  1  1  0  0  0
  1  8  1  0  0  0
  8  9  2  0  0  0
  8 11  1  0  0  0
  9 10  1  0  0  0
 11 12  2  0  0  0
 10 13  2  0  0  0
 12 13  1  0  0  0
 13 14  1  0  0  0
 14 15  2  0  0  0
 14 22  1  0  0  0
 15 16  1  0  0  0
 22 20  2  0  0  0
 16 17  1  0  0  0
 16 18  2  0  0  0
 20 18  1  0  0  0
 20 21  1  0  0  0
 18 19  1  0  0  0
 25 26  1  0  0  0
  4  6  1  0  0  0
  5  7  1  0  0  0
M  END
> <minimizedAffinity>
-9.29678

$$$$
