187L_PXY_A_400


  8  8  0  0  0  0  0  0  0  0999 V2000
   26.3686    5.9910    4.9737 C   0  0  0  0  0  0  0  0  0  0  0  0
   26.4859    5.3129    3.8494 C   0  0  0  0  0  0  0  0  0  0  0  0
   27.1758    5.8412    2.7800 C   0  0  0  0  0  0  0  0  0  0  0  0
   27.7130    7.0916    2.8620 C   0  0  0  0  0  0  0  0  0  0  0  0
   27.5930    7.7957    4.0113 C   0  0  0  0  0  0  0  0  0  0  0  0
   26.9229    7.2325    5.0866 C   0  0  0  0  0  0  0  0  0  0  0  0
   25.6331    5.3704    6.1500 C   0  0  0  0  0  0  0  0  0  0  0  0
   28.4563    7.6799    1.6590 C   0  0  0  0  0  0  0  0  0  0  0  0
  1  2  2  0  0  0
  1  6  1  0  0  0
  1  7  1  0  0  0
  2  3  1  0  0  0
  3  4  2  0  0  0
  4  5  1  0  0  0
  4  8  1  0  0  0
  5  6  2  0  0  0
M  END
> <minimizedAffinity>
-6.24118

$$$$
187L_PXY_A_400


  8  8  0  0  0  0  0  0  0  0999 V2000
   27.7207    7.0688    2.8779 C   0  0  0  0  0  0  0  0  0  0  0  0
   27.2069    5.8585    2.7843 C   0  0  0  0  0  0  0  0  0  0  0  0
   26.5139    5.3068    3.8398 C   0  0  0  0  0  0  0  0  0  0  0  0
   26.3856    5.9954    5.0094 C   0  0  0  0  0  0  0  0  0  0  0  0
   26.9141    7.2366    5.1148 C   0  0  0  0  0  0  0  0  0  0  0  0
   27.5796    7.7864    4.0296 C   0  0  0  0  0  0  0  0  0  0  0  0
   28.4497    7.6678    1.6865 C   0  0  0  0  0  0  0  0  0  0  0  0
   25.6351    5.3631    6.1853 C   0  0  0  0  0  0  0  0  0  0  0  0
  1  2  2  0  0  0
  1  6  1  0  0  0
  1  7  1  0  0  0
  2  3  1  0  0  0
  3  4  2  0  0  0
  4  5  1  0  0  0
  4  8  1  0  0  0
  5  6  2  0  0  0
M  END
> <minimizedAffinity>
-6.23678

$$$$
187L_PXY_A_400


  8  8  0  0  0  0  0  0  0  0999 V2000
   26.3845    5.9617    4.9605 C   0  0  0  0  0  0  0  0  0  0  0  0
   26.8837    7.1783    5.0511 C   0  0  0  0  0  0  0  0  0  0  0  0
   27.5397    7.7491    3.9821 C   0  0  0  0  0  0  0  0  0  0  0  0
   27.7126    7.0432    2.8286 C   0  0  0  0  0  0  0  0  0  0  0  0
   27.2067    5.7921    2.7294 C   0  0  0  0  0  0  0  0  0  0  0  0
   26.5217    5.2485    3.8056 C   0  0  0  0  0  0  0  0  0  0  0  0
   25.6346    5.3694    6.1422 C   0  0  0  0  0  0  0  0  0  0  0  0
   28.4650    7.6773    1.6550 C   0  0  0  0  0  0  0  0  0  0  0  0
  1  2  2  0  0  0
  1  6  1  0  0  0
  1  7  1  0  0  0
  2  3  1  0  0  0
  3  4  2  0  0  0
  4  5  1  0  0  0
  4  8  1  0  0  0
  5  6  2  0  0  0
M  END
> <minimizedAffinity>
-6.23511

$$$$
187L_PXY_A_400


  8  8  0  0  0  0  0  0  0  0999 V2000
   27.7071    7.0704    2.8846 C   0  0  0  0  0  0  0  0  0  0  0  0
   27.5732    7.7639    3.9976 C   0  0  0  0  0  0  0  0  0  0  0  0
   26.9203    7.2259    5.0853 C   0  0  0  0  0  0  0  0  0  0  0  0
   26.3711    5.9805    5.0071 C   0  0  0  0  0  0  0  0  0  0  0  0
   26.5006    5.2642    3.8665 C   0  0  0  0  0  0  0  0  0  0  0  0
   27.1895    5.8114    2.7947 C   0  0  0  0  0  0  0  0  0  0  0  0
   28.4626    7.6738    1.7120 C   0  0  0  0  0  0  0  0  0  0  0  0
   25.6257    5.4015    6.2133 C   0  0  0  0  0  0  0  0  0  0  0  0
  1  2  2  0  0  0
  1  6  1  0  0  0
  1  7  1  0  0  0
  2  3  1  0  0  0
  3  4  2  0  0  0
  4  5  1  0  0  0
  4  8  1  0  0  0
  5  6  2  0  0  0
M  END
> <minimizedAffinity>
-6.23134

$$$$
187L_PXY_A_400


  8  8  0  0  0  0  0  0  0  0999 V2000
   27.0978    5.1064    2.9173 C   0  0  0  0  0  0  0  0  0  0  0  0
   27.5088    6.3476    3.0848 C   0  0  0  0  0  0  0  0  0  0  0  0
   27.2501    7.0200    4.2594 C   0  0  0  0  0  0  0  0  0  0  0  0
   26.5303    6.4182    5.2486 C   0  0  0  0  0  0  0  0  0  0  0  0
   26.1013    5.1457    5.0824 C   0  0  0  0  0  0  0  0  0  0  0  0
   26.4003    4.4758    3.9057 C   0  0  0  0  0  0  0  0  0  0  0  0
   27.4274    4.3757    1.6261 C   0  0  0  0  0  0  0  0  0  0  0  0
   26.2265    7.1830    6.5403 C   0  0  0  0  0  0  0  0  0  0  0  0
  1  2  2  0  0  0
  1  6  1  0  0  0
  1  7  1  0  0  0
  2  3  1  0  0  0
  3  4  2  0  0  0
  4  5  1  0  0  0
  4  8  1  0  0  0
  5  6  2  0  0  0
M  END
> <minimizedAffinity>
-5.44388

$$$$
187L_PXY_A_400


  8  8  0  0  0  0  0  0  0  0999 V2000
   26.5511    6.4514    5.2619 C   0  0  0  0  0  0  0  0  0  0  0  0
   27.2383    7.0406    4.3037 C   0  0  0  0  0  0  0  0  0  0  0  0
   27.5035    6.3813    3.1231 C   0  0  0  0  0  0  0  0  0  0  0  0
   27.0887    5.0942    2.9495 C   0  0  0  0  0  0  0  0  0  0  0  0
   26.3865    4.4811    3.9303 C   0  0  0  0  0  0  0  0  0  0  0  0
   26.1023    5.1736    5.0975 C   0  0  0  0  0  0  0  0  0  0  0  0
   26.2419    7.2137    6.5398 C   0  0  0  0  0  0  0  0  0  0  0  0
   27.4103    4.3616    1.6436 C   0  0  0  0  0  0  0  0  0  0  0  0
  1  2  2  0  0  0
  1  6  1  0  0  0
  1  7  1  0  0  0
  2  3  1  0  0  0
  3  4  2  0  0  0
  4  5  1  0  0  0
  4  8  1  0  0  0
  5  6  2  0  0  0
M  END
> <minimizedAffinity>
-5.43139

$$$$
187L_PXY_A_400


  8  8  0  0  0  0  0  0  0  0999 V2000
   26.5427    6.4409    5.2332 C   0  0  0  0  0  0  0  0  0  0  0  0
   26.1084    5.2069    5.0713 C   0  0  0  0  0  0  0  0  0  0  0  0
   26.4022    4.5046    3.9228 C   0  0  0  0  0  0  0  0  0  0  0  0
   27.1156    5.0954    2.9225 C   0  0  0  0  0  0  0  0  0  0  0  0
   27.5612    6.3634    3.0794 C   0  0  0  0  0  0  0  0  0  0  0  0
   27.2822    7.0412    4.2565 C   0  0  0  0  0  0  0  0  0  0  0  0
   26.2346    7.1805    6.5247 C   0  0  0  0  0  0  0  0  0  0  0  0
   27.4154    4.3148    1.6393 C   0  0  0  0  0  0  0  0  0  0  0  0
  1  2  2  0  0  0
  1  6  1  0  0  0
  1  7  1  0  0  0
  2  3  1  0  0  0
  3  4  2  0  0  0
  4  5  1  0  0  0
  4  8  1  0  0  0
  5  6  2  0  0  0
M  END
> <minimizedAffinity>
-5.42474

$$$$
187L_PXY_A_400


  8  8  0  0  0  0  0  0  0  0999 V2000
   27.1296    5.0997    2.8918 C   0  0  0  0  0  0  0  0  0  0  0  0
   26.4273    4.5096    3.8385 C   0  0  0  0  0  0  0  0  0  0  0  0
   26.1163    5.1789    5.0021 C   0  0  0  0  0  0  0  0  0  0  0  0
   26.5667    6.4501    5.2022 C   0  0  0  0  0  0  0  0  0  0  0  0
   27.2918    7.0610    4.2369 C   0  0  0  0  0  0  0  0  0  0  0  0
   27.5661    6.3813    3.0598 C   0  0  0  0  0  0  0  0  0  0  0  0
   27.4284    4.3512    1.6033 C   0  0  0  0  0  0  0  0  0  0  0  0
   26.2368    7.1763    6.5096 C   0  0  0  0  0  0  0  0  0  0  0  0
  1  2  2  0  0  0
  1  6  1  0  0  0
  1  7  1  0  0  0
  2  3  1  0  0  0
  3  4  2  0  0  0
  4  5  1  0  0  0
  4  8  1  0  0  0
  5  6  2  0  0  0
M  END
> <minimizedAffinity>
-5.39704

$$$$
187L_PXY_A_400


  8  8  0  0  0  0  0  0  0  0999 V2000
   27.4888    6.2154    2.8153 C   0  0  0  0  0  0  0  0  0  0  0  0
   27.9802    6.6361    1.6668 C   0  0  0  0  0  0  0  0  0  0  0  0
   28.1417    7.9828    1.4238 C   0  0  0  0  0  0  0  0  0  0  0  0
   27.7573    8.8981    2.3582 C   0  0  0  0  0  0  0  0  0  0  0  0
   27.2479    8.4741    3.5380 C   0  0  0  0  0  0  0  0  0  0  0  0
   27.1240    7.1136    3.7752 C   0  0  0  0  0  0  0  0  0  0  0  0
   27.3544    4.7234    3.0714 C   0  0  0  0  0  0  0  0  0  0  0  0
   27.9176   10.3934    2.0684 C   0  0  0  0  0  0  0  0  0  0  0  0
  1  2  2  0  0  0
  1  6  1  0  0  0
  1  7  1  0  0  0
  2  3  1  0  0  0
  3  4  2  0  0  0
  4  5  1  0  0  0
  4  8  1  0  0  0
  5  6  2  0  0  0
M  END
> <minimizedAffinity>
-4.74356

$$$$
