5TCY_5LC_A_402


 33 34  0  0  0  0  0  0  0  0999 V2000
  -13.1796    5.6406    1.7836 C   0  0  0  0  0  0  0  0  0  0  0  0
  -13.7867    4.9086    2.9885 C   0  0  0  0  0  0  0  0  0  0  0  0
  -13.9231    3.3843    2.9294 C   0  0  0  0  0  0  0  0  0  0  0  0
  -11.6951    2.3352    2.4114 C   0  0  0  0  0  0  0  0  0  0  0  0
  -12.9553    2.6921    2.0968 N   0  0  0  0  0  0  0  0  0  0  0  0
  -11.1119    2.6701    3.4479 O   0  0  0  0  0  0  0  0  0  0  0  0
  -13.2576    2.4545    1.1905 H   0  0  0  0  0  0  0  0  0  0  0  0
   -9.5209   -0.0219   -0.4779 C   0  0  0  0  0  0  0  0  0  0  0  0
   -8.8887    0.9525    0.2615 C   0  0  0  0  0  0  0  0  0  0  0  0
   -9.5895    1.7512    1.1459 C   0  0  0  0  0  0  0  0  0  0  0  0
  -10.9350    1.5493    1.3381 C   0  0  0  0  0  0  0  0  0  0  0  0
  -11.5701    0.5214    0.6098 C   0  0  0  0  0  0  0  0  0  0  0  0
  -10.8660   -0.2495   -0.2940 C   0  0  0  0  0  0  0  0  0  0  0  0
   -8.9001    2.7489    1.7986 O   0  0  0  0  0  0  0  0  0  0  0  0
   -7.5814    1.2371    0.1126 O   0  0  0  0  0  0  0  0  0  0  0  0
   -7.9824    2.8612    1.6463 H   0  0  0  0  0  0  0  0  0  0  0  0
   -7.0552    0.7295   -0.4735 H   0  0  0  0  0  0  0  0  0  0  0  0
  -13.9447    6.9148    1.4829 C   0  0  0  0  0  0  0  0  0  0  0  0
  -13.3018    8.2594    1.6531 C   0  0  0  0  0  0  0  0  0  0  0  0
  -11.8377    8.2767    1.5703 N   0  0  0  0  0  0  0  0  0  0  0  0
  -11.0716    9.1174    2.2291 C   0  0  0  0  0  0  0  0  0  0  0  0
  -11.5248    9.8377    3.1123 O   0  0  0  0  0  0  0  0  0  0  0  0
  -11.4011    7.6170    0.9843 H   0  0  0  0  0  0  0  0  0  0  0  0
   -9.6033    9.2194    1.8271 C   0  0  0  0  0  0  0  0  0  0  0  0
   -8.8586    8.0655    1.7532 C   0  0  0  0  0  0  0  0  0  0  0  0
   -7.5337    8.0728    1.3557 C   0  0  0  0  0  0  0  0  0  0  0  0
   -6.9106    9.2692    1.0462 C   0  0  0  0  0  0  0  0  0  0  0  0
   -7.6500   10.4605    1.1298 C   0  0  0  0  0  0  0  0  0  0  0  0
   -8.9854   10.4548    1.5243 C   0  0  0  0  0  0  0  0  0  0  0  0
   -9.4047    6.8417    2.0583 O   0  0  0  0  0  0  0  0  0  0  0  0
   -6.9155    6.8463    1.2626 O   0  0  0  0  0  0  0  0  0  0  0  0
  -10.2987    6.7829    2.3327 H   0  0  0  0  0  0  0  0  0  0  0  0
   -7.3854    6.0668    1.4852 H   0  0  0  0  0  0  0  0  0  0  0  0
  8  9  1  0  0  0
  8 13  2  0  0  0
  9 10  2  0  0  0
  9 15  1  0  0  0
 10 11  1  0  0  0
 10 14  1  0  0  0
 11 12  2  0  0  0
 11  4  1  0  0  0
 12 13  1  0  0  0
  4  5  1  0  0  0
  4  6  2  0  0  0
  5  3  1  0  0  0
  3  2  1  0  0  0
  2  1  1  0  0  0
  1 18  1  0  0  0
 20 21  1  0  0  0
 20 19  1  0  0  0
 21 24  1  0  0  0
 21 22  2  0  0  0
 24 25  1  0  0  0
 24 29  2  0  0  0
 25 26  2  0  0  0
 25 30  1  0  0  0
 26 27  1  0  0  0
 26 31  1  0  0  0
 27 28  2  0  0  0
 28 29  1  0  0  0
 18 19  1  0  0  0
  5  7  1  0  0  0
 20 23  1  0  0  0
 30 32  1  0  0  0
 31 33  1  0  0  0
 14 16  1  0  0  0
 15 17  1  0  0  0
M  END
> <minimizedAffinity>
-7.83191

$$$$
5TCY_5LC_A_402


 33 34  0  0  0  0  0  0  0  0999 V2000
  -14.7046    7.1610    1.2731 C   0  0  0  0  0  0  0  0  0  0  0  0
  -14.5952    8.6352    0.8593 C   0  0  0  0  0  0  0  0  0  0  0  0
  -13.6524    9.5508    1.6458 C   0  0  0  0  0  0  0  0  0  0  0  0
  -11.2199    9.7948    2.2425 C   0  0  0  0  0  0  0  0  0  0  0  0
  -12.2423    9.2085    1.5902 N   0  0  0  0  0  0  0  0  0  0  0  0
  -11.3185   10.8303    2.9096 O   0  0  0  0  0  0  0  0  0  0  0  0
  -12.0040    8.4548    1.0033 H   0  0  0  0  0  0  0  0  0  0  0  0
   -7.3638    8.0245    1.4507 C   0  0  0  0  0  0  0  0  0  0  0  0
   -8.4754    7.2386    1.6570 C   0  0  0  0  0  0  0  0  0  0  0  0
   -9.7013    7.7960    1.9693 C   0  0  0  0  0  0  0  0  0  0  0  0
   -9.8409    9.1616    2.0313 C   0  0  0  0  0  0  0  0  0  0  0  0
   -8.7088    9.9641    1.7770 C   0  0  0  0  0  0  0  0  0  0  0  0
   -7.4821    9.3952    1.4968 C   0  0  0  0  0  0  0  0  0  0  0  0
  -10.7504    6.9422    2.2284 O   0  0  0  0  0  0  0  0  0  0  0  0
   -8.4204    5.8936    1.6459 O   0  0  0  0  0  0  0  0  0  0  0  0
  -10.6234    6.0152    2.1779 H   0  0  0  0  0  0  0  0  0  0  0  0
   -7.6158    5.4592    1.4411 H   0  0  0  0  0  0  0  0  0  0  0  0
  -14.7732    6.2608    0.0548 C   0  0  0  0  0  0  0  0  0  0  0  0
  -14.8755    4.7713    0.2008 C   0  0  0  0  0  0  0  0  0  0  0  0
  -13.6107    4.0703    0.4447 N   0  0  0  0  0  0  0  0  0  0  0  0
  -12.9900    3.3355   -0.4512 C   0  0  0  0  0  0  0  0  0  0  0  0
  -13.3371    3.3331   -1.6275 O   0  0  0  0  0  0  0  0  0  0  0  0
  -13.2007    4.1553    1.3357 H   0  0  0  0  0  0  0  0  0  0  0  0
  -11.8539    2.4328    0.0205 C   0  0  0  0  0  0  0  0  0  0  0  0
  -10.8238    2.9916    0.7403 C   0  0  0  0  0  0  0  0  0  0  0  0
   -9.7807    2.2313    1.2376 C   0  0  0  0  0  0  0  0  0  0  0  0
   -9.7373    0.8702    0.9907 C   0  0  0  0  0  0  0  0  0  0  0  0
  -10.7725    0.2830    0.2448 C   0  0  0  0  0  0  0  0  0  0  0  0
  -11.8264    1.0455   -0.2520 C   0  0  0  0  0  0  0  0  0  0  0  0
  -10.7912    4.3382    1.0137 O   0  0  0  0  0  0  0  0  0  0  0  0
   -8.8437    2.8978    1.9946 O   0  0  0  0  0  0  0  0  0  0  0  0
  -11.4746    4.8968    0.6993 H   0  0  0  0  0  0  0  0  0  0  0  0
   -8.9218    3.8217    2.1298 H   0  0  0  0  0  0  0  0  0  0  0  0
  8  9  1  0  0  0
  8 13  2  0  0  0
  9 10  2  0  0  0
  9 15  1  0  0  0
 10 11  1  0  0  0
 10 14  1  0  0  0
 11 12  2  0  0  0
 11  4  1  0  0  0
 12 13  1  0  0  0
  4  5  1  0  0  0
  4  6  2  0  0  0
  5  3  1  0  0  0
  3  2  1  0  0  0
  2  1  1  0  0  0
  1 18  1  0  0  0
 20 21  1  0  0  0
 20 19  1  0  0  0
 21 24  1  0  0  0
 21 22  2  0  0  0
 24 25  1  0  0  0
 24 29  2  0  0  0
 25 26  2  0  0  0
 25 30  1  0  0  0
 26 27  1  0  0  0
 26 31  1  0  0  0
 27 28  2  0  0  0
 28 29  1  0  0  0
 18 19  1  0  0  0
  5  7  1  0  0  0
 20 23  1  0  0  0
 30 32  1  0  0  0
 31 33  1  0  0  0
 14 16  1  0  0  0
 15 17  1  0  0  0
M  END
> <minimizedAffinity>
-7.76754

$$$$
5TCY_5LC_A_402


 33 34  0  0  0  0  0  0  0  0999 V2000
  -14.1530    5.2775    0.5801 C   0  0  0  0  0  0  0  0  0  0  0  0
  -14.0300    6.8029    0.6996 C   0  0  0  0  0  0  0  0  0  0  0  0
  -13.2847    7.3876    1.9031 C   0  0  0  0  0  0  0  0  0  0  0  0
  -11.2726    8.8688    2.2039 C   0  0  0  0  0  0  0  0  0  0  0  0
  -11.9220    7.8238    1.6552 N   0  0  0  0  0  0  0  0  0  0  0  0
  -11.8017    9.7177    2.9293 O   0  0  0  0  0  0  0  0  0  0  0  0
  -11.4094    7.2900    1.0059 H   0  0  0  0  0  0  0  0  0  0  0  0
   -7.1997    9.3261    0.8501 C   0  0  0  0  0  0  0  0  0  0  0  0
   -7.6954    8.0902    1.2005 C   0  0  0  0  0  0  0  0  0  0  0  0
   -8.9797    7.9440    1.6907 C   0  0  0  0  0  0  0  0  0  0  0  0
   -9.8068    9.0367    1.7909 C   0  0  0  0  0  0  0  0  0  0  0  0
   -9.3087   10.2944    1.3903 C   0  0  0  0  0  0  0  0  0  0  0  0
   -8.0136   10.4332    0.9316 C   0  0  0  0  0  0  0  0  0  0  0  0
   -9.3803    6.6863    2.0836 O   0  0  0  0  0  0  0  0  0  0  0  0
   -6.9437    6.9740    1.1629 O   0  0  0  0  0  0  0  0  0  0  0  0
   -8.7928    5.9609    2.0026 H   0  0  0  0  0  0  0  0  0  0  0  0
   -6.0648    7.0117    0.8404 H   0  0  0  0  0  0  0  0  0  0  0  0
  -14.5770    4.6637    1.9003 C   0  0  0  0  0  0  0  0  0  0  0  0
  -13.6159    3.8530    2.7183 C   0  0  0  0  0  0  0  0  0  0  0  0
  -12.8962    2.8015    1.9925 N   0  0  0  0  0  0  0  0  0  0  0  0
  -11.6918    2.3796    2.3076 C   0  0  0  0  0  0  0  0  0  0  0  0
  -11.1518    2.7137    3.3569 O   0  0  0  0  0  0  0  0  0  0  0  0
  -13.3432    2.3852    1.2204 H   0  0  0  0  0  0  0  0  0  0  0  0
  -10.9504    1.5032    1.3026 C   0  0  0  0  0  0  0  0  0  0  0  0
   -9.6076    1.7227    1.1014 C   0  0  0  0  0  0  0  0  0  0  0  0
   -8.8590    0.9427    0.2385 C   0  0  0  0  0  0  0  0  0  0  0  0
   -9.4650   -0.0762   -0.4756 C   0  0  0  0  0  0  0  0  0  0  0  0
  -10.8387   -0.3068   -0.2952 C   0  0  0  0  0  0  0  0  0  0  0  0
  -11.5931    0.4735    0.5771 C   0  0  0  0  0  0  0  0  0  0  0  0
   -8.9400    2.7244    1.7646 O   0  0  0  0  0  0  0  0  0  0  0  0
   -7.5129    1.2232    0.1713 O   0  0  0  0  0  0  0  0  0  0  0  0
   -9.4021    3.2808    2.3604 H   0  0  0  0  0  0  0  0  0  0  0  0
   -7.1549    1.9259    0.6772 H   0  0  0  0  0  0  0  0  0  0  0  0
  8  9  1  0  0  0
  8 13  2  0  0  0
  9 10  2  0  0  0
  9 15  1  0  0  0
 10 11  1  0  0  0
 10 14  1  0  0  0
 11 12  2  0  0  0
 11  4  1  0  0  0
 12 13  1  0  0  0
  4  5  1  0  0  0
  4  6  2  0  0  0
  5  3  1  0  0  0
  3  2  1  0  0  0
  2  1  1  0  0  0
  1 18  1  0  0  0
 20 21  1  0  0  0
 20 19  1  0  0  0
 21 24  1  0  0  0
 21 22  2  0  0  0
 24 25  1  0  0  0
 24 29  2  0  0  0
 25 26  2  0  0  0
 25 30  1  0  0  0
 26 27  1  0  0  0
 26 31  1  0  0  0
 27 28  2  0  0  0
 28 29  1  0  0  0
 18 19  1  0  0  0
  5  7  1  0  0  0
 20 23  1  0  0  0
 30 32  1  0  0  0
 31 33  1  0  0  0
 14 16  1  0  0  0
 15 17  1  0  0  0
M  END
> <minimizedAffinity>
-7.70885

$$$$
5TCY_5LC_A_402


 33 34  0  0  0  0  0  0  0  0999 V2000
  -15.5468    7.4008    1.1165 C   0  0  0  0  0  0  0  0  0  0  0  0
  -15.2729    5.8984    0.9618 C   0  0  0  0  0  0  0  0  0  0  0  0
  -14.6862    5.3910   -0.3588 C   0  0  0  0  0  0  0  0  0  0  0  0
  -13.5116    3.1665   -0.2896 C   0  0  0  0  0  0  0  0  0  0  0  0
  -13.5352    4.5127   -0.2463 N   0  0  0  0  0  0  0  0  0  0  0  0
  -14.5181    2.4498   -0.3031 O   0  0  0  0  0  0  0  0  0  0  0  0
  -12.6648    4.9557   -0.1232 H   0  0  0  0  0  0  0  0  0  0  0  0
   -9.6766    1.2193    0.0741 C   0  0  0  0  0  0  0  0  0  0  0  0
   -9.9658    2.3554    0.7963 C   0  0  0  0  0  0  0  0  0  0  0  0
  -11.1692    3.0181    0.6415 C   0  0  0  0  0  0  0  0  0  0  0  0
  -12.1253    2.5192   -0.2100 C   0  0  0  0  0  0  0  0  0  0  0  0
  -11.8412    1.3311   -0.9157 C   0  0  0  0  0  0  0  0  0  0  0  0
  -10.6234    0.6950   -0.7766 C   0  0  0  0  0  0  0  0  0  0  0  0
  -11.3578    4.1851    1.3480 O   0  0  0  0  0  0  0  0  0  0  0  0
   -9.0754    2.9282    1.6277 O   0  0  0  0  0  0  0  0  0  0  0  0
  -10.6865    4.4996    1.9211 H   0  0  0  0  0  0  0  0  0  0  0  0
   -8.2422    2.5245    1.7721 H   0  0  0  0  0  0  0  0  0  0  0  0
  -14.2909    8.2095    0.8551 C   0  0  0  0  0  0  0  0  0  0  0  0
  -13.3905    8.6222    1.9817 C   0  0  0  0  0  0  0  0  0  0  0  0
  -11.9816    8.8212    1.6265 N   0  0  0  0  0  0  0  0  0  0  0  0
  -11.0202    7.9744    1.9203 C   0  0  0  0  0  0  0  0  0  0  0  0
  -11.2656    6.8556    2.3586 O   0  0  0  0  0  0  0  0  0  0  0  0
  -11.7408    9.6407    1.1370 H   0  0  0  0  0  0  0  0  0  0  0  0
   -9.5764    8.4400    1.7569 C   0  0  0  0  0  0  0  0  0  0  0  0
   -8.5980    7.4947    1.5549 C   0  0  0  0  0  0  0  0  0  0  0  0
   -7.2738    7.8417    1.3565 C   0  0  0  0  0  0  0  0  0  0  0  0
   -6.8950    9.1725    1.3869 C   0  0  0  0  0  0  0  0  0  0  0  0
   -7.8772   10.1523    1.6066 C   0  0  0  0  0  0  0  0  0  0  0  0
   -9.2117    9.8056    1.8009 C   0  0  0  0  0  0  0  0  0  0  0  0
   -8.8957    6.1532    1.5253 O   0  0  0  0  0  0  0  0  0  0  0  0
   -6.4011    6.8076    1.1034 O   0  0  0  0  0  0  0  0  0  0  0  0
   -9.7783    5.8662    1.6543 H   0  0  0  0  0  0  0  0  0  0  0  0
   -6.7119    5.9237    1.0949 H   0  0  0  0  0  0  0  0  0  0  0  0
  8  9  1  0  0  0
  8 13  2  0  0  0
  9 10  2  0  0  0
  9 15  1  0  0  0
 10 11  1  0  0  0
 10 14  1  0  0  0
 11 12  2  0  0  0
 11  4  1  0  0  0
 12 13  1  0  0  0
  4  5  1  0  0  0
  4  6  2  0  0  0
  5  3  1  0  0  0
  3  2  1  0  0  0
  2  1  1  0  0  0
  1 18  1  0  0  0
 20 21  1  0  0  0
 20 19  1  0  0  0
 21 24  1  0  0  0
 21 22  2  0  0  0
 24 25  1  0  0  0
 24 29  2  0  0  0
 25 26  2  0  0  0
 25 30  1  0  0  0
 26 27  1  0  0  0
 26 31  1  0  0  0
 27 28  2  0  0  0
 28 29  1  0  0  0
 18 19  1  0  0  0
  5  7  1  0  0  0
 20 23  1  0  0  0
 30 32  1  0  0  0
 31 33  1  0  0  0
 14 16  1  0  0  0
 15 17  1  0  0  0
M  END
> <minimizedAffinity>
-7.39032

$$$$
5TCY_5LC_A_402


 33 34  0  0  0  0  0  0  0  0999 V2000
  -10.8109    1.9343    1.4400 C   0  0  0  0  0  0  0  0  0  0  0  0
  -11.8768    0.8720    1.1371 C   0  0  0  0  0  0  0  0  0  0  0  0
  -13.3005    1.3323    0.8105 C   0  0  0  0  0  0  0  0  0  0  0  0
  -14.2171   -0.1162   -1.0320 C   0  0  0  0  0  0  0  0  0  0  0  0
  -13.7651    1.0521   -0.5365 N   0  0  0  0  0  0  0  0  0  0  0  0
  -14.1809   -1.1928   -0.4266 O   0  0  0  0  0  0  0  0  0  0  0  0
  -13.7476    1.8095   -1.1652 H   0  0  0  0  0  0  0  0  0  0  0  0
  -15.4970   -0.1967   -5.1533 C   0  0  0  0  0  0  0  0  0  0  0  0
  -14.3438    0.4576   -4.7822 C   0  0  0  0  0  0  0  0  0  0  0  0
  -13.9583    0.5381   -3.4570 C   0  0  0  0  0  0  0  0  0  0  0  0
  -14.7040   -0.0829   -2.4842 C   0  0  0  0  0  0  0  0  0  0  0  0
  -15.8618   -0.7884   -2.8743 C   0  0  0  0  0  0  0  0  0  0  0  0
  -16.2540   -0.8355   -4.1974 C   0  0  0  0  0  0  0  0  0  0  0  0
  -12.8290    1.2673   -3.1574 O   0  0  0  0  0  0  0  0  0  0  0  0
  -13.5726    1.1185   -5.6658 O   0  0  0  0  0  0  0  0  0  0  0  0
  -12.3416    1.6792   -3.8435 H   0  0  0  0  0  0  0  0  0  0  0  0
  -13.7847    1.1001   -6.5783 H   0  0  0  0  0  0  0  0  0  0  0  0
   -9.5063    1.6067    0.7399 C   0  0  0  0  0  0  0  0  0  0  0  0
   -9.1771    0.1987    0.3408 C   0  0  0  0  0  0  0  0  0  0  0  0
   -7.8602    0.0061   -0.2751 N   0  0  0  0  0  0  0  0  0  0  0  0
   -7.6348   -0.7812   -1.3032 C   0  0  0  0  0  0  0  0  0  0  0  0
   -8.5564   -1.2767   -1.9430 O   0  0  0  0  0  0  0  0  0  0  0  0
   -7.0968    0.4976    0.1054 H   0  0  0  0  0  0  0  0  0  0  0  0
   -6.1870   -1.1146   -1.6506 C   0  0  0  0  0  0  0  0  0  0  0  0
   -5.4343   -0.1723   -2.3117 C   0  0  0  0  0  0  0  0  0  0  0  0
   -4.1034   -0.3848   -2.6233 C   0  0  0  0  0  0  0  0  0  0  0  0
   -3.4989   -1.5857   -2.2949 C   0  0  0  0  0  0  0  0  0  0  0  0
   -4.2550   -2.5667   -1.6326 C   0  0  0  0  0  0  0  0  0  0  0  0
   -5.5933   -2.3527   -1.3129 C   0  0  0  0  0  0  0  0  0  0  0  0
   -5.9693    1.0383   -2.6821 O   0  0  0  0  0  0  0  0  0  0  0  0
   -3.4425    0.6591   -3.2305 O   0  0  0  0  0  0  0  0  0  0  0  0
   -6.8667    1.2312   -2.4938 H   0  0  0  0  0  0  0  0  0  0  0  0
   -3.9014    1.4511   -3.4307 H   0  0  0  0  0  0  0  0  0  0  0  0
  8  9  1  0  0  0
  8 13  2  0  0  0
  9 10  2  0  0  0
  9 15  1  0  0  0
 10 11  1  0  0  0
 10 14  1  0  0  0
 11 12  2  0  0  0
 11  4  1  0  0  0
 12 13  1  0  0  0
  4  5  1  0  0  0
  4  6  2  0  0  0
  5  3  1  0  0  0
  3  2  1  0  0  0
  2  1  1  0  0  0
  1 18  1  0  0  0
 20 21  1  0  0  0
 20 19  1  0  0  0
 21 24  1  0  0  0
 21 22  2  0  0  0
 24 25  1  0  0  0
 24 29  2  0  0  0
 25 26  2  0  0  0
 25 30  1  0  0  0
 26 27  1  0  0  0
 26 31  1  0  0  0
 27 28  2  0  0  0
 28 29  1  0  0  0
 18 19  1  0  0  0
  5  7  1  0  0  0
 20 23  1  0  0  0
 30 32  1  0  0  0
 31 33  1  0  0  0
 14 16  1  0  0  0
 15 17  1  0  0  0
M  END
> <minimizedAffinity>
-7.18675

$$$$
5TCY_5LC_A_402


 33 34  0  0  0  0  0  0  0  0999 V2000
  -10.5335    0.6047   -0.8040 C   0  0  0  0  0  0  0  0  0  0  0  0
  -11.5252    1.6921   -1.2401 C   0  0  0  0  0  0  0  0  0  0  0  0
  -12.9723    1.6073   -0.7458 C   0  0  0  0  0  0  0  0  0  0  0  0
  -12.9781    1.6714    1.7699 C   0  0  0  0  0  0  0  0  0  0  0  0
  -13.2342    2.1956    0.5557 N   0  0  0  0  0  0  0  0  0  0  0  0
  -12.5859    0.5158    1.9636 O   0  0  0  0  0  0  0  0  0  0  0  0
  -13.6504    3.0878    0.5501 H   0  0  0  0  0  0  0  0  0  0  0  0
  -13.8868    4.3541    5.0269 C   0  0  0  0  0  0  0  0  0  0  0  0
  -12.6015    3.9092    4.8129 C   0  0  0  0  0  0  0  0  0  0  0  0
  -12.3124    3.0041    3.8087 C   0  0  0  0  0  0  0  0  0  0  0  0
  -13.3078    2.5673    2.9682 C   0  0  0  0  0  0  0  0  0  0  0  0
  -14.6155    3.0589    3.1643 C   0  0  0  0  0  0  0  0  0  0  0  0
  -14.8982    3.9386    4.1905 C   0  0  0  0  0  0  0  0  0  0  0  0
  -11.0153    2.5542    3.7003 O   0  0  0  0  0  0  0  0  0  0  0  0
  -11.5740    4.2619    5.6079 O   0  0  0  0  0  0  0  0  0  0  0  0
  -10.3587    2.8712    4.2888 H   0  0  0  0  0  0  0  0  0  0  0  0
  -11.7097    4.8721    6.3059 H   0  0  0  0  0  0  0  0  0  0  0  0
  -10.7017   -0.6484   -1.6412 C   0  0  0  0  0  0  0  0  0  0  0  0
   -9.9379   -1.8989   -1.3206 C   0  0  0  0  0  0  0  0  0  0  0  0
   -8.5529   -1.9363   -1.8013 N   0  0  0  0  0  0  0  0  0  0  0  0
   -7.4999   -1.9648   -1.0153 C   0  0  0  0  0  0  0  0  0  0  0  0
   -7.6085   -2.1488    0.1925 O   0  0  0  0  0  0  0  0  0  0  0  0
   -8.4024   -1.9403   -2.7743 H   0  0  0  0  0  0  0  0  0  0  0  0
   -6.1309   -1.7036   -1.6364 C   0  0  0  0  0  0  0  0  0  0  0  0
   -5.8297   -0.4287   -2.0552 C   0  0  0  0  0  0  0  0  0  0  0  0
   -4.5953   -0.1054   -2.5891 C   0  0  0  0  0  0  0  0  0  0  0  0
   -3.6294   -1.0847   -2.7421 C   0  0  0  0  0  0  0  0  0  0  0  0
   -3.9229   -2.3963   -2.3340 C   0  0  0  0  0  0  0  0  0  0  0  0
   -5.1629   -2.7228   -1.7911 C   0  0  0  0  0  0  0  0  0  0  0  0
   -6.7425    0.5932   -1.9477 O   0  0  0  0  0  0  0  0  0  0  0  0
   -4.3957    1.2177   -2.9130 O   0  0  0  0  0  0  0  0  0  0  0  0
   -7.5933    0.4260   -1.5924 H   0  0  0  0  0  0  0  0  0  0  0  0
   -5.0855    1.8396   -2.7888 H   0  0  0  0  0  0  0  0  0  0  0  0
  8  9  1  0  0  0
  8 13  2  0  0  0
  9 10  2  0  0  0
  9 15  1  0  0  0
 10 11  1  0  0  0
 10 14  1  0  0  0
 11 12  2  0  0  0
 11  4  1  0  0  0
 12 13  1  0  0  0
  4  5  1  0  0  0
  4  6  2  0  0  0
  5  3  1  0  0  0
  3  2  1  0  0  0
  2  1  1  0  0  0
  1 18  1  0  0  0
 20 21  1  0  0  0
 20 19  1  0  0  0
 21 24  1  0  0  0
 21 22  2  0  0  0
 24 25  1  0  0  0
 24 29  2  0  0  0
 25 26  2  0  0  0
 25 30  1  0  0  0
 26 27  1  0  0  0
 26 31  1  0  0  0
 27 28  2  0  0  0
 28 29  1  0  0  0
 18 19  1  0  0  0
  5  7  1  0  0  0
 20 23  1  0  0  0
 30 32  1  0  0  0
 31 33  1  0  0  0
 14 16  1  0  0  0
 15 17  1  0  0  0
M  END
> <minimizedAffinity>
-7.10666

$$$$
5TCY_5LC_A_402


 33 34  0  0  0  0  0  0  0  0999 V2000
  -12.0740   -0.8221   -0.9956 C   0  0  0  0  0  0  0  0  0  0  0  0
  -10.6087   -0.8017   -1.4524 C   0  0  0  0  0  0  0  0  0  0  0  0
   -9.5108   -0.6707   -0.3927 C   0  0  0  0  0  0  0  0  0  0  0  0
   -7.6849   -1.8239   -1.6847 C   0  0  0  0  0  0  0  0  0  0  0  0
   -8.1500   -0.8648   -0.8610 N   0  0  0  0  0  0  0  0  0  0  0  0
   -8.3471   -2.7913   -2.0753 O   0  0  0  0  0  0  0  0  0  0  0  0
   -7.4852   -0.2153   -0.5364 H   0  0  0  0  0  0  0  0  0  0  0  0
   -3.4677   -1.4848   -2.5397 C   0  0  0  0  0  0  0  0  0  0  0  0
   -4.3352   -0.4565   -2.8332 C   0  0  0  0  0  0  0  0  0  0  0  0
   -5.6950   -0.5800   -2.6169 C   0  0  0  0  0  0  0  0  0  0  0  0
   -6.2011   -1.7267   -2.0537 C   0  0  0  0  0  0  0  0  0  0  0  0
   -5.3033   -2.7608   -1.7151 C   0  0  0  0  0  0  0  0  0  0  0  0
   -3.9506   -2.6385   -1.9647 C   0  0  0  0  0  0  0  0  0  0  0  0
   -6.5060    0.4655   -2.9988 O   0  0  0  0  0  0  0  0  0  0  0  0
   -3.9282    0.6872   -3.4149 O   0  0  0  0  0  0  0  0  0  0  0  0
   -6.1304    1.2346   -3.3802 H   0  0  0  0  0  0  0  0  0  0  0  0
   -3.0177    0.8274   -3.5866 H   0  0  0  0  0  0  0  0  0  0  0  0
  -12.2427   -0.0781    0.3149 C   0  0  0  0  0  0  0  0  0  0  0  0
  -12.5879    1.3816    0.3345 C   0  0  0  0  0  0  0  0  0  0  0  0
  -13.0114    1.9150    1.6333 N   0  0  0  0  0  0  0  0  0  0  0  0
  -12.9792    3.1895    1.9531 C   0  0  0  0  0  0  0  0  0  0  0  0
  -12.7610    4.0545    1.1114 O   0  0  0  0  0  0  0  0  0  0  0  0
  -13.3406    1.2784    2.3082 H   0  0  0  0  0  0  0  0  0  0  0  0
  -13.1639    3.5684    3.4195 C   0  0  0  0  0  0  0  0  0  0  0  0
  -12.1179    3.3656    4.2892 C   0  0  0  0  0  0  0  0  0  0  0  0
  -12.1948    3.7225    5.6234 C   0  0  0  0  0  0  0  0  0  0  0  0
  -13.3599    4.2751    6.1260 C   0  0  0  0  0  0  0  0  0  0  0  0
  -14.4447    4.4766    5.2569 C   0  0  0  0  0  0  0  0  0  0  0  0
  -14.3676    4.1234    3.9123 C   0  0  0  0  0  0  0  0  0  0  0  0
  -10.9344    2.8093    3.8662 O   0  0  0  0  0  0  0  0  0  0  0  0
  -11.0593    3.5253    6.3764 O   0  0  0  0  0  0  0  0  0  0  0  0
  -10.8317    2.5505    2.9716 H   0  0  0  0  0  0  0  0  0  0  0  0
  -10.2972    3.1464    5.9845 H   0  0  0  0  0  0  0  0  0  0  0  0
  8  9  1  0  0  0
  8 13  2  0  0  0
  9 10  2  0  0  0
  9 15  1  0  0  0
 10 11  1  0  0  0
 10 14  1  0  0  0
 11 12  2  0  0  0
 11  4  1  0  0  0
 12 13  1  0  0  0
  4  5  1  0  0  0
  4  6  2  0  0  0
  5  3  1  0  0  0
  3  2  1  0  0  0
  2  1  1  0  0  0
  1 18  1  0  0  0
 20 21  1  0  0  0
 20 19  1  0  0  0
 21 24  1  0  0  0
 21 22  2  0  0  0
 24 25  1  0  0  0
 24 29  2  0  0  0
 25 26  2  0  0  0
 25 30  1  0  0  0
 26 27  1  0  0  0
 26 31  1  0  0  0
 27 28  2  0  0  0
 28 29  1  0  0  0
 18 19  1  0  0  0
  5  7  1  0  0  0
 20 23  1  0  0  0
 30 32  1  0  0  0
 31 33  1  0  0  0
 14 16  1  0  0  0
 15 17  1  0  0  0
M  END
> <minimizedAffinity>
-7.05143

$$$$
5TCY_5LC_A_402


 33 34  0  0  0  0  0  0  0  0999 V2000
  -10.4244    2.1499    0.6600 C   0  0  0  0  0  0  0  0  0  0  0  0
  -11.3762    1.5295    1.6922 C   0  0  0  0  0  0  0  0  0  0  0  0
  -12.6670    0.8701    1.1979 C   0  0  0  0  0  0  0  0  0  0  0  0
  -12.5164   -0.0191   -1.1515 C   0  0  0  0  0  0  0  0  0  0  0  0
  -12.5068   -0.1611    0.1881 N   0  0  0  0  0  0  0  0  0  0  0  0
  -12.8017    1.0285   -1.7413 O   0  0  0  0  0  0  0  0  0  0  0  0
  -12.3749   -1.0771    0.5239 H   0  0  0  0  0  0  0  0  0  0  0  0
  -11.6512   -3.5019   -3.5499 C   0  0  0  0  0  0  0  0  0  0  0  0
  -12.7532   -2.7185   -3.8099 C   0  0  0  0  0  0  0  0  0  0  0  0
  -13.0698   -1.6360   -3.0104 C   0  0  0  0  0  0  0  0  0  0  0  0
  -12.2521   -1.2929   -1.9608 C   0  0  0  0  0  0  0  0  0  0  0  0
  -11.1006   -2.0730   -1.7244 C   0  0  0  0  0  0  0  0  0  0  0  0
  -10.8115   -3.1708   -2.5105 C   0  0  0  0  0  0  0  0  0  0  0  0
  -14.2251   -0.9418   -3.2934 O   0  0  0  0  0  0  0  0  0  0  0  0
  -13.6232   -3.0015   -4.7975 O   0  0  0  0  0  0  0  0  0  0  0  0
  -14.7619   -1.2004   -4.0164 H   0  0  0  0  0  0  0  0  0  0  0  0
  -13.4613   -3.7242   -5.3715 H   0  0  0  0  0  0  0  0  0  0  0  0
   -9.1019    1.4085    0.6292 C   0  0  0  0  0  0  0  0  0  0  0  0
   -9.0561   -0.0900    0.6803 C   0  0  0  0  0  0  0  0  0  0  0  0
   -8.0077   -0.7198   -0.1289 N   0  0  0  0  0  0  0  0  0  0  0  0
   -6.8615   -1.1473    0.3520 C   0  0  0  0  0  0  0  0  0  0  0  0
   -6.6608   -1.2155    1.5600 O   0  0  0  0  0  0  0  0  0  0  0  0
   -8.1728   -0.8294   -1.0933 H   0  0  0  0  0  0  0  0  0  0  0  0
   -5.7553   -1.5054   -0.6360 C   0  0  0  0  0  0  0  0  0  0  0  0
   -5.3876   -0.5746   -1.5793 C   0  0  0  0  0  0  0  0  0  0  0  0
   -4.3655   -0.8099   -2.4812 C   0  0  0  0  0  0  0  0  0  0  0  0
   -3.6987   -2.0226   -2.4706 C   0  0  0  0  0  0  0  0  0  0  0  0
   -4.0695   -2.9921   -1.5244 C   0  0  0  0  0  0  0  0  0  0  0  0
   -5.0943   -2.7553   -0.6119 C   0  0  0  0  0  0  0  0  0  0  0  0
   -6.0128    0.6467   -1.6598 O   0  0  0  0  0  0  0  0  0  0  0  0
   -4.0514    0.2240   -3.3342 O   0  0  0  0  0  0  0  0  0  0  0  0
   -6.7115    0.8551   -1.0712 H   0  0  0  0  0  0  0  0  0  0  0  0
   -4.5366    1.0248   -3.2983 H   0  0  0  0  0  0  0  0  0  0  0  0
  8  9  1  0  0  0
  8 13  2  0  0  0
  9 10  2  0  0  0
  9 15  1  0  0  0
 10 11  1  0  0  0
 10 14  1  0  0  0
 11 12  2  0  0  0
 11  4  1  0  0  0
 12 13  1  0  0  0
  4  5  1  0  0  0
  4  6  2  0  0  0
  5  3  1  0  0  0
  3  2  1  0  0  0
  2  1  1  0  0  0
  1 18  1  0  0  0
 20 21  1  0  0  0
 20 19  1  0  0  0
 21 24  1  0  0  0
 21 22  2  0  0  0
 24 25  1  0  0  0
 24 29  2  0  0  0
 25 26  2  0  0  0
 25 30  1  0  0  0
 26 27  1  0  0  0
 26 31  1  0  0  0
 27 28  2  0  0  0
 28 29  1  0  0  0
 18 19  1  0  0  0
  5  7  1  0  0  0
 20 23  1  0  0  0
 30 32  1  0  0  0
 31 33  1  0  0  0
 14 16  1  0  0  0
 15 17  1  0  0  0
M  END
> <minimizedAffinity>
-6.93595

$$$$
5TCY_5LC_A_402


 33 34  0  0  0  0  0  0  0  0999 V2000
  -10.1674    2.0671    1.5394 C   0  0  0  0  0  0  0  0  0  0  0  0
  -11.3338    1.1610    1.9573 C   0  0  0  0  0  0  0  0  0  0  0  0
  -12.2562    1.6256    3.0882 C   0  0  0  0  0  0  0  0  0  0  0  0
  -12.6876    4.0864    3.3903 C   0  0  0  0  0  0  0  0  0  0  0  0
  -12.9574    2.8770    2.8620 N   0  0  0  0  0  0  0  0  0  0  0  0
  -11.8523    4.2910    4.2775 O   0  0  0  0  0  0  0  0  0  0  0  0
  -13.7247    2.8364    2.2464 H   0  0  0  0  0  0  0  0  0  0  0  0
  -15.2029    7.2386    1.8515 C   0  0  0  0  0  0  0  0  0  0  0  0
  -13.8337    7.2954    1.7174 C   0  0  0  0  0  0  0  0  0  0  0  0
  -13.0178    6.3196    2.2589 C   0  0  0  0  0  0  0  0  0  0  0  0
  -13.5710    5.2403    2.9049 C   0  0  0  0  0  0  0  0  0  0  0  0
  -14.9763    5.1646    3.0025 C   0  0  0  0  0  0  0  0  0  0  0  0
  -15.7799    6.1613    2.4850 C   0  0  0  0  0  0  0  0  0  0  0  0
  -11.6551    6.4810    2.1421 O   0  0  0  0  0  0  0  0  0  0  0  0
  -13.2087    8.3315    1.1275 O   0  0  0  0  0  0  0  0  0  0  0  0
  -11.3084    7.2282    1.6955 H   0  0  0  0  0  0  0  0  0  0  0  0
  -13.7098    9.0235    0.7428 H   0  0  0  0  0  0  0  0  0  0  0  0
   -9.4717    1.5203    0.3080 C   0  0  0  0  0  0  0  0  0  0  0  0
   -8.9515    0.1137    0.2763 C   0  0  0  0  0  0  0  0  0  0  0  0
   -7.6775   -0.0750   -0.4250 N   0  0  0  0  0  0  0  0  0  0  0  0
   -7.4777   -0.9745   -1.3625 C   0  0  0  0  0  0  0  0  0  0  0  0
   -8.4086   -1.6061   -1.8510 O   0  0  0  0  0  0  0  0  0  0  0  0
   -6.9242    0.5088   -0.1781 H   0  0  0  0  0  0  0  0  0  0  0  0
   -6.0417   -1.2591   -1.7924 C   0  0  0  0  0  0  0  0  0  0  0  0
   -5.3065   -0.2395   -2.3505 C   0  0  0  0  0  0  0  0  0  0  0  0
   -3.9861   -0.4090   -2.7261 C   0  0  0  0  0  0  0  0  0  0  0  0
   -3.3752   -1.6412   -2.5713 C   0  0  0  0  0  0  0  0  0  0  0  0
   -4.1137   -2.6994   -2.0167 C   0  0  0  0  0  0  0  0  0  0  0  0
   -5.4414   -2.5295   -1.6327 C   0  0  0  0  0  0  0  0  0  0  0  0
   -5.8493    1.0077   -2.5479 O   0  0  0  0  0  0  0  0  0  0  0  0
   -3.3408    0.7044   -3.2152 O   0  0  0  0  0  0  0  0  0  0  0  0
   -6.7402    1.1740   -2.3100 H   0  0  0  0  0  0  0  0  0  0  0  0
   -3.8035    1.5149   -3.2993 H   0  0  0  0  0  0  0  0  0  0  0  0
  8  9  1  0  0  0
  8 13  2  0  0  0
  9 10  2  0  0  0
  9 15  1  0  0  0
 10 11  1  0  0  0
 10 14  1  0  0  0
 11 12  2  0  0  0
 11  4  1  0  0  0
 12 13  1  0  0  0
  4  5  1  0  0  0
  4  6  2  0  0  0
  5  3  1  0  0  0
  3  2  1  0  0  0
  2  1  1  0  0  0
  1 18  1  0  0  0
 20 21  1  0  0  0
 20 19  1  0  0  0
 21 24  1  0  0  0
 21 22  2  0  0  0
 24 25  1  0  0  0
 24 29  2  0  0  0
 25 26  2  0  0  0
 25 30  1  0  0  0
 26 27  1  0  0  0
 26 31  1  0  0  0
 27 28  2  0  0  0
 28 29  1  0  0  0
 18 19  1  0  0  0
  5  7  1  0  0  0
 20 23  1  0  0  0
 30 32  1  0  0  0
 31 33  1  0  0  0
 14 16  1  0  0  0
 15 17  1  0  0  0
M  END
> <minimizedAffinity>
-6.74767

$$$$
5TCY_5LC_A_402


 33 34  0  0  0  0  0  0  0  0999 V2000
  -14.4455    9.6119    0.7721 C   0  0  0  0  0  0  0  0  0  0  0  0
  -14.2241    9.8485    2.2725 C   0  0  0  0  0  0  0  0  0  0  0  0
  -12.9735   10.6116    2.7190 C   0  0  0  0  0  0  0  0  0  0  0  0
  -10.8250   10.2291    1.4657 C   0  0  0  0  0  0  0  0  0  0  0  0
  -11.7033    9.9607    2.4513 N   0  0  0  0  0  0  0  0  0  0  0  0
  -11.0383   11.0113    0.5333 O   0  0  0  0  0  0  0  0  0  0  0  0
  -11.4530    9.2335    3.0660 H   0  0  0  0  0  0  0  0  0  0  0  0
   -7.1863    7.9123    1.3151 C   0  0  0  0  0  0  0  0  0  0  0  0
   -8.4069    7.3032    1.5024 C   0  0  0  0  0  0  0  0  0  0  0  0
   -9.5697    8.0429    1.6106 C   0  0  0  0  0  0  0  0  0  0  0  0
   -9.5301    9.4105    1.4828 C   0  0  0  0  0  0  0  0  0  0  0  0
   -8.2828   10.0267    1.2482 C   0  0  0  0  0  0  0  0  0  0  0  0
   -7.1236    9.2801    1.1732 C   0  0  0  0  0  0  0  0  0  0  0  0
  -10.7423    7.3669    1.8651 O   0  0  0  0  0  0  0  0  0  0  0  0
   -8.5318    5.9732    1.6689 O   0  0  0  0  0  0  0  0  0  0  0  0
  -10.7367    6.4335    1.9470 H   0  0  0  0  0  0  0  0  0  0  0  0
   -7.7778    5.4204    1.6067 H   0  0  0  0  0  0  0  0  0  0  0  0
  -14.7297    8.1491    0.4911 C   0  0  0  0  0  0  0  0  0  0  0  0
  -15.5678    7.3319    1.4291 C   0  0  0  0  0  0  0  0  0  0  0  0
  -15.1478    5.9376    1.6028 N   0  0  0  0  0  0  0  0  0  0  0  0
  -14.6377    5.4539    2.7135 C   0  0  0  0  0  0  0  0  0  0  0  0
  -14.6465    6.1005    3.7556 O   0  0  0  0  0  0  0  0  0  0  0  0
  -15.2546    5.3252    0.8394 H   0  0  0  0  0  0  0  0  0  0  0  0
  -13.9761    4.0799    2.6629 C   0  0  0  0  0  0  0  0  0  0  0  0
  -12.6977    3.9457    3.1521 C   0  0  0  0  0  0  0  0  0  0  0  0
  -12.0480    2.7249    3.1789 C   0  0  0  0  0  0  0  0  0  0  0  0
  -12.6735    1.5968    2.6773 C   0  0  0  0  0  0  0  0  0  0  0  0
  -13.9738    1.7160    2.1597 C   0  0  0  0  0  0  0  0  0  0  0  0
  -14.6318    2.9429    2.1368 C   0  0  0  0  0  0  0  0  0  0  0  0
  -12.0079    5.0232    3.6543 O   0  0  0  0  0  0  0  0  0  0  0  0
  -10.7954    2.7103    3.7499 O   0  0  0  0  0  0  0  0  0  0  0  0
  -12.4041    5.8724    3.6588 H   0  0  0  0  0  0  0  0  0  0  0  0
  -10.4189    3.5048    4.0739 H   0  0  0  0  0  0  0  0  0  0  0  0
  8  9  1  0  0  0
  8 13  2  0  0  0
  9 10  2  0  0  0
  9 15  1  0  0  0
 10 11  1  0  0  0
 10 14  1  0  0  0
 11 12  2  0  0  0
 11  4  1  0  0  0
 12 13  1  0  0  0
  4  5  1  0  0  0
  4  6  2  0  0  0
  5  3  1  0  0  0
  3  2  1  0  0  0
  2  1  1  0  0  0
  1 18  1  0  0  0
 20 21  1  0  0  0
 20 19  1  0  0  0
 21 24  1  0  0  0
 21 22  2  0  0  0
 24 25  1  0  0  0
 24 29  2  0  0  0
 25 26  2  0  0  0
 25 30  1  0  0  0
 26 27  1  0  0  0
 26 31  1  0  0  0
 27 28  2  0  0  0
 28 29  1  0  0  0
 18 19  1  0  0  0
  5  7  1  0  0  0
 20 23  1  0  0  0
 30 32  1  0  0  0
 31 33  1  0  0  0
 14 16  1  0  0  0
 15 17  1  0  0  0
M  END
> <minimizedAffinity>
-6.68576

$$$$
