5LLC_V26_A_308


 29 30  0  0  0  0  0  0  0  0999 V2000
   -4.8465    2.6746   13.1461 C   0  0  0  0  0  0  0  0  0  0  0  0
   -5.6678    3.4413   13.9891 C   0  0  0  0  0  0  0  0  0  0  0  0
   -6.1481    4.6084   13.5876 F   0  0  0  0  0  0  0  0  0  0  0  0
   -5.9565    2.9976   15.2850 C   0  0  0  0  0  0  0  0  0  0  0  0
   -6.6744    3.8131   16.0732 F   0  0  0  0  0  0  0  0  0  0  0  0
   -4.3395    1.4438   13.6172 C   0  0  0  0  0  0  0  0  0  0  0  0
   -4.7671    1.0232   14.9042 C   0  0  0  0  0  0  0  0  0  0  0  0
   -4.4027   -0.2077   15.2378 F   0  0  0  0  0  0  0  0  0  0  0  0
   -5.5588    1.7436   15.7790 C   0  0  0  0  0  0  0  0  0  0  0  0
   -6.1235    1.2421   17.4024 S   0  0  0  0  0  0  0  0  0  0  0  0
   -7.5115    0.8896   17.1312 O   0  0  0  0  0  0  0  0  0  0  0  0
   -6.0036    2.4718   18.3854 N   0  0  0  0  0  0  0  0  0  0  0  0
   -5.2248    0.2076   17.8248 O   0  0  0  0  0  0  0  0  0  0  0  0
   -5.0189    2.6832   18.5469 H   0  0  0  0  0  0  0  0  0  0  0  0
   -6.4521    2.2430   19.2724 H   0  0  0  0  0  0  0  0  0  0  0  0
   -3.3648    2.6231   10.9289 O   0  0  0  0  0  0  0  0  0  0  0  0
   -4.4612    3.3886   11.5675 S   0  0  0  0  0  0  0  0  0  0  0  0
   -5.6874    3.4617   10.7873 O   0  0  0  0  0  0  0  0  0  0  0  0
   -3.9059    5.0402   11.9043 C   0  0  0  0  0  0  0  0  0  0  0  0
   -3.9766    5.9773   10.7025 C   0  0  0  0  0  0  0  0  0  0  0  0
   -5.0083    7.0304   10.7465 C   0  0  0  0  0  0  0  0  0  0  0  0
   -6.3367    6.8746   11.2313 C   0  0  0  0  0  0  0  0  0  0  0  0
   -7.2419    7.8864   11.2915 C   0  0  0  0  0  0  0  0  0  0  0  0
   -6.8381    9.1400   10.7912 C   0  0  0  0  0  0  0  0  0  0  0  0
   -5.4991    9.3151   10.4085 C   0  0  0  0  0  0  0  0  0  0  0  0
   -4.5833    8.2929   10.4445 C   0  0  0  0  0  0  0  0  0  0  0  0
   -3.5244    0.6391   12.8500 N   0  0  0  0  0  0  0  0  0  0  0  0
   -4.0292   -0.5209   12.1037 C   0  0  0  0  0  0  0  0  0  0  0  0
   -2.5642    0.8507   12.8002 H   0  0  0  0  0  0  0  0  0  0  0  0
 26 25  2  0  0  0
 26 21  1  0  0  0
 25 24  1  0  0  0
 20 21  1  0  0  0
 20 19  1  0  0  0
 21 22  2  0  0  0
 24 23  2  0  0  0
 22 23  1  0  0  0
 19 17  1  0  0  0
 28 27  1  0  0  0
 16 17  2  0  0  0
 27  6  1  0  0  0
 17  1  1  0  0  0
 17 18  2  0  0  0
  6  1  2  0  0  0
  6  7  1  0  0  0
  1  2  1  0  0  0
  8  7  1  0  0  0
  7  9  2  0  0  0
  2  3  1  0  0  0
  2  4  2  0  0  0
  9  4  1  0  0  0
  9 10  1  0  0  0
  4  5  1  0  0  0
 12 10  1  0  0  0
 13 10  2  0  0  0
 10 11  2  0  0  0
 27 29  1  0  0  0
 12 14  1  0  0  0
 12 15  1  0  0  0
M  END
> <minimizedAffinity>
-8.73573

$$$$
5LLC_V26_A_308


 29 30  0  0  0  0  0  0  0  0999 V2000
   -5.1393    3.4892   13.5552 C   0  0  0  0  0  0  0  0  0  0  0  0
   -5.9751    4.0416   14.5398 C   0  0  0  0  0  0  0  0  0  0  0  0
   -6.5268    5.2333   14.3685 F   0  0  0  0  0  0  0  0  0  0  0  0
   -6.2030    3.3535   15.7374 C   0  0  0  0  0  0  0  0  0  0  0  0
   -6.9397    3.9696   16.6751 F   0  0  0  0  0  0  0  0  0  0  0  0
   -4.5556    2.2237   13.7829 C   0  0  0  0  0  0  0  0  0  0  0  0
   -4.9237    1.5520   14.9784 C   0  0  0  0  0  0  0  0  0  0  0  0
   -4.4862    0.3035   15.0735 F   0  0  0  0  0  0  0  0  0  0  0  0
   -5.7265    2.0549   15.9852 C   0  0  0  0  0  0  0  0  0  0  0  0
   -6.2176    1.2347   17.4991 S   0  0  0  0  0  0  0  0  0  0  0  0
   -7.6084    0.9054   17.2131 O   0  0  0  0  0  0  0  0  0  0  0  0
   -6.0823    2.2540   18.6972 N   0  0  0  0  0  0  0  0  0  0  0  0
   -5.2839    0.1617   17.6811 O   0  0  0  0  0  0  0  0  0  0  0  0
   -5.0962    2.4557   18.8623 H   0  0  0  0  0  0  0  0  0  0  0  0
   -6.4914    1.8465   19.5381 H   0  0  0  0  0  0  0  0  0  0  0  0
   -3.8837    3.8132   11.2246 O   0  0  0  0  0  0  0  0  0  0  0  0
   -4.8370    4.4996   12.1277 S   0  0  0  0  0  0  0  0  0  0  0  0
   -6.1183    4.8307   11.5224 O   0  0  0  0  0  0  0  0  0  0  0  0
   -4.0973    5.9929   12.7380 C   0  0  0  0  0  0  0  0  0  0  0  0
   -2.9572    5.7637   13.7254 C   0  0  0  0  0  0  0  0  0  0  0  0
   -2.1306    6.9376   14.0631 C   0  0  0  0  0  0  0  0  0  0  0  0
   -2.2295    7.7109   15.2532 C   0  0  0  0  0  0  0  0  0  0  0  0
   -1.4165    8.7611   15.5409 C   0  0  0  0  0  0  0  0  0  0  0  0
   -0.4630    9.1205   14.5680 C   0  0  0  0  0  0  0  0  0  0  0  0
   -0.3012    8.2958   13.4438 C   0  0  0  0  0  0  0  0  0  0  0  0
   -1.0805    7.1868   13.2259 C   0  0  0  0  0  0  0  0  0  0  0  0
   -3.7219    1.6197   12.8659 N   0  0  0  0  0  0  0  0  0  0  0  0
   -4.1645    0.5276   11.9892 C   0  0  0  0  0  0  0  0  0  0  0  0
   -2.7914    1.9334   12.7958 H   0  0  0  0  0  0  0  0  0  0  0  0
 26 25  2  0  0  0
 26 21  1  0  0  0
 25 24  1  0  0  0
 20 21  1  0  0  0
 20 19  1  0  0  0
 21 22  2  0  0  0
 24 23  2  0  0  0
 22 23  1  0  0  0
 19 17  1  0  0  0
 28 27  1  0  0  0
 16 17  2  0  0  0
 27  6  1  0  0  0
 17  1  1  0  0  0
 17 18  2  0  0  0
  6  1  2  0  0  0
  6  7  1  0  0  0
  1  2  1  0  0  0
  8  7  1  0  0  0
  7  9  2  0  0  0
  2  3  1  0  0  0
  2  4  2  0  0  0
  9  4  1  0  0  0
  9 10  1  0  0  0
  4  5  1  0  0  0
 12 10  1  0  0  0
 13 10  2  0  0  0
 10 11  2  0  0  0
 27 29  1  0  0  0
 12 14  1  0  0  0
 12 15  1  0  0  0
M  END
> <minimizedAffinity>
-8.73510

$$$$
5LLC_V26_A_308


 29 30  0  0  0  0  0  0  0  0999 V2000
   -5.4424    3.5119   13.1927 C   0  0  0  0  0  0  0  0  0  0  0  0
   -6.2382    4.0795   14.2015 C   0  0  0  0  0  0  0  0  0  0  0  0
   -6.8551    5.2351   14.0071 F   0  0  0  0  0  0  0  0  0  0  0  0
   -6.3563    3.4472   15.4448 C   0  0  0  0  0  0  0  0  0  0  0  0
   -7.0594    4.0800   16.3971 F   0  0  0  0  0  0  0  0  0  0  0  0
   -4.7865    2.2871   13.4447 C   0  0  0  0  0  0  0  0  0  0  0  0
   -5.0453    1.6650   14.6945 C   0  0  0  0  0  0  0  0  0  0  0  0
   -4.5445    0.4436   14.8233 F   0  0  0  0  0  0  0  0  0  0  0  0
   -5.8045    2.1857   15.7258 C   0  0  0  0  0  0  0  0  0  0  0  0
   -6.1585    1.4272   17.3085 S   0  0  0  0  0  0  0  0  0  0  0  0
   -5.8493    2.5153   18.2278 O   0  0  0  0  0  0  0  0  0  0  0  0
   -5.1973    0.1904   17.5067 N   0  0  0  0  0  0  0  0  0  0  0  0
   -7.5138    0.9663   17.2250 O   0  0  0  0  0  0  0  0  0  0  0  0
   -5.4484   -0.5447   16.8456 H   0  0  0  0  0  0  0  0  0  0  0  0
   -5.2896   -0.1627   18.4591 H   0  0  0  0  0  0  0  0  0  0  0  0
   -5.2179    3.5415   10.5352 O   0  0  0  0  0  0  0  0  0  0  0  0
   -5.2800    4.4566   11.6989 S   0  0  0  0  0  0  0  0  0  0  0  0
   -6.3627    5.4280   11.6524 O   0  0  0  0  0  0  0  0  0  0  0  0
   -3.7420    5.3306   11.8420 C   0  0  0  0  0  0  0  0  0  0  0  0
   -3.2718    5.5304   13.2795 C   0  0  0  0  0  0  0  0  0  0  0  0
   -2.6208    6.8174   13.5880 C   0  0  0  0  0  0  0  0  0  0  0  0
   -2.2429    7.8078   12.6392 C   0  0  0  0  0  0  0  0  0  0  0  0
   -1.6825    8.9996   12.9743 C   0  0  0  0  0  0  0  0  0  0  0  0
   -1.4211    9.2248   14.3402 C   0  0  0  0  0  0  0  0  0  0  0  0
   -1.8860    8.2915   15.2798 C   0  0  0  0  0  0  0  0  0  0  0  0
   -2.5309    7.1364   14.9132 C   0  0  0  0  0  0  0  0  0  0  0  0
   -3.9860    1.6717   12.5060 N   0  0  0  0  0  0  0  0  0  0  0  0
   -4.4388    0.5277   11.7038 C   0  0  0  0  0  0  0  0  0  0  0  0
   -3.0730    2.0131   12.3677 H   0  0  0  0  0  0  0  0  0  0  0  0
 26 25  2  0  0  0
 26 21  1  0  0  0
 25 24  1  0  0  0
 20 21  1  0  0  0
 20 19  1  0  0  0
 21 22  2  0  0  0
 24 23  2  0  0  0
 22 23  1  0  0  0
 19 17  1  0  0  0
 28 27  1  0  0  0
 16 17  2  0  0  0
 27  6  1  0  0  0
 17  1  1  0  0  0
 17 18  2  0  0  0
  6  1  2  0  0  0
  6  7  1  0  0  0
  1  2  1  0  0  0
  8  7  1  0  0  0
  7  9  2  0  0  0
  2  3  1  0  0  0
  2  4  2  0  0  0
  9  4  1  0  0  0
  9 10  1  0  0  0
  4  5  1  0  0  0
 12 10  1  0  0  0
 13 10  2  0  0  0
 10 11  2  0  0  0
 27 29  1  0  0  0
 12 14  1  0  0  0
 12 15  1  0  0  0
M  END
> <minimizedAffinity>
-8.36623

$$$$
5LLC_V26_A_308


 29 30  0  0  0  0  0  0  0  0999 V2000
   -4.3541    2.9831   13.3252 C   0  0  0  0  0  0  0  0  0  0  0  0
   -4.0539    1.6884   13.7800 C   0  0  0  0  0  0  0  0  0  0  0  0
   -3.2143    0.9134   13.1104 F   0  0  0  0  0  0  0  0  0  0  0  0
   -4.6731    1.1845   14.9299 C   0  0  0  0  0  0  0  0  0  0  0  0
   -4.4127   -0.0885   15.2663 F   0  0  0  0  0  0  0  0  0  0  0  0
   -5.2679    3.7721   14.0574 C   0  0  0  0  0  0  0  0  0  0  0  0
   -5.7682    3.2206   15.2664 C   0  0  0  0  0  0  0  0  0  0  0  0
   -6.4892    4.0552   16.0031 F   0  0  0  0  0  0  0  0  0  0  0  0
   -5.5190    1.9500   15.7506 C   0  0  0  0  0  0  0  0  0  0  0  0
   -6.1245    1.2257   17.2719 S   0  0  0  0  0  0  0  0  0  0  0  0
   -7.4895    0.8724   16.9024 O   0  0  0  0  0  0  0  0  0  0  0  0
   -6.0808    2.3199   18.4093 N   0  0  0  0  0  0  0  0  0  0  0  0
   -5.2077    0.1708   17.5928 O   0  0  0  0  0  0  0  0  0  0  0  0
   -5.1101    2.5363   18.6358 H   0  0  0  0  0  0  0  0  0  0  0  0
   -6.5530    1.9650   19.2408 H   0  0  0  0  0  0  0  0  0  0  0  0
   -3.6888    2.3673   10.8168 O   0  0  0  0  0  0  0  0  0  0  0  0
   -3.5926    3.4729   11.7987 S   0  0  0  0  0  0  0  0  0  0  0  0
   -4.1969    4.7245   11.3673 O   0  0  0  0  0  0  0  0  0  0  0  0
   -1.8856    3.7717   12.1817 C   0  0  0  0  0  0  0  0  0  0  0  0
   -1.6482    4.2994   13.5933 C   0  0  0  0  0  0  0  0  0  0  0  0
   -1.6354    5.7652   13.7565 C   0  0  0  0  0  0  0  0  0  0  0  0
   -2.2721    6.4921   14.8005 C   0  0  0  0  0  0  0  0  0  0  0  0
   -2.1979    7.8425   14.9344 C   0  0  0  0  0  0  0  0  0  0  0  0
   -1.4890    8.5481   13.9421 C   0  0  0  0  0  0  0  0  0  0  0  0
   -0.7796    7.8216   12.9732 C   0  0  0  0  0  0  0  0  0  0  0  0
   -0.8017    6.4500   12.9188 C   0  0  0  0  0  0  0  0  0  0  0  0
   -5.6150    5.0493   13.6713 N   0  0  0  0  0  0  0  0  0  0  0  0
   -6.9229    5.3745   13.0875 C   0  0  0  0  0  0  0  0  0  0  0  0
   -4.9589    5.7734   13.7919 H   0  0  0  0  0  0  0  0  0  0  0  0
 26 25  2  0  0  0
 26 21  1  0  0  0
 25 24  1  0  0  0
 20 21  1  0  0  0
 20 19  1  0  0  0
 21 22  2  0  0  0
 24 23  2  0  0  0
 22 23  1  0  0  0
 19 17  1  0  0  0
 28 27  1  0  0  0
 16 17  2  0  0  0
 27  6  1  0  0  0
 17  1  1  0  0  0
 17 18  2  0  0  0
  6  1  2  0  0  0
  6  7  1  0  0  0
  1  2  1  0  0  0
  8  7  1  0  0  0
  7  9  2  0  0  0
  2  3  1  0  0  0
  2  4  2  0  0  0
  9  4  1  0  0  0
  9 10  1  0  0  0
  4  5  1  0  0  0
 12 10  1  0  0  0
 13 10  2  0  0  0
 10 11  2  0  0  0
 27 29  1  0  0  0
 12 14  1  0  0  0
 12 15  1  0  0  0
M  END
> <minimizedAffinity>
-8.17120

$$$$
5LLC_V26_A_308


 29 30  0  0  0  0  0  0  0  0999 V2000
   -2.4993    3.8317   11.9682 C   0  0  0  0  0  0  0  0  0  0  0  0
   -3.3517    2.7230   11.8365 C   0  0  0  0  0  0  0  0  0  0  0  0
   -3.7386    2.3049   10.6409 F   0  0  0  0  0  0  0  0  0  0  0  0
   -3.8374    2.0687   12.9748 C   0  0  0  0  0  0  0  0  0  0  0  0
   -4.7159    1.0713   12.7882 F   0  0  0  0  0  0  0  0  0  0  0  0
   -2.1235    4.2577   13.2609 C   0  0  0  0  0  0  0  0  0  0  0  0
   -2.5788    3.4734   14.3535 C   0  0  0  0  0  0  0  0  0  0  0  0
   -2.0692    3.8093   15.5311 F   0  0  0  0  0  0  0  0  0  0  0  0
   -3.4295    2.3862   14.2816 C   0  0  0  0  0  0  0  0  0  0  0  0
   -4.0163    1.3707   15.6344 S   0  0  0  0  0  0  0  0  0  0  0  0
   -2.8335    1.3063   16.4837 O   0  0  0  0  0  0  0  0  0  0  0  0
   -4.4200   -0.0470   15.0689 N   0  0  0  0  0  0  0  0  0  0  0  0
   -5.1853    2.0310   16.1383 O   0  0  0  0  0  0  0  0  0  0  0  0
   -5.2493    0.0445   14.4822 H   0  0  0  0  0  0  0  0  0  0  0  0
   -4.6202   -0.6782   15.8447 H   0  0  0  0  0  0  0  0  0  0  0  0
   -0.9168    5.5815   10.7242 O   0  0  0  0  0  0  0  0  0  0  0  0
   -2.0357    4.6464   10.4611 S   0  0  0  0  0  0  0  0  0  0  0  0
   -1.7559    3.6290    9.4589 O   0  0  0  0  0  0  0  0  0  0  0  0
   -3.4633    5.5676    9.9483 C   0  0  0  0  0  0  0  0  0  0  0  0
   -3.8711    6.6731   10.9173 C   0  0  0  0  0  0  0  0  0  0  0  0
   -5.2476    6.6147   11.4438 C   0  0  0  0  0  0  0  0  0  0  0  0
   -5.7284    5.6950   12.4168 C   0  0  0  0  0  0  0  0  0  0  0  0
   -6.9970    5.7056   12.9040 C   0  0  0  0  0  0  0  0  0  0  0  0
   -7.8849    6.6561   12.3623 C   0  0  0  0  0  0  0  0  0  0  0  0
   -7.3818    7.6241   11.4792 C   0  0  0  0  0  0  0  0  0  0  0  0
   -6.0700    7.6410   11.0749 C   0  0  0  0  0  0  0  0  0  0  0  0
   -1.2943    5.3391   13.4698 N   0  0  0  0  0  0  0  0  0  0  0  0
   -1.7817    6.6259   13.9834 C   0  0  0  0  0  0  0  0  0  0  0  0
   -0.3357    5.2449   13.2661 H   0  0  0  0  0  0  0  0  0  0  0  0
 26 25  2  0  0  0
 26 21  1  0  0  0
 25 24  1  0  0  0
 20 21  1  0  0  0
 20 19  1  0  0  0
 21 22  2  0  0  0
 24 23  2  0  0  0
 22 23  1  0  0  0
 19 17  1  0  0  0
 28 27  1  0  0  0
 16 17  2  0  0  0
 27  6  1  0  0  0
 17  1  1  0  0  0
 17 18  2  0  0  0
  6  1  2  0  0  0
  6  7  1  0  0  0
  1  2  1  0  0  0
  8  7  1  0  0  0
  7  9  2  0  0  0
  2  3  1  0  0  0
  2  4  2  0  0  0
  9  4  1  0  0  0
  9 10  1  0  0  0
  4  5  1  0  0  0
 12 10  1  0  0  0
 13 10  2  0  0  0
 10 11  2  0  0  0
 27 29  1  0  0  0
 12 14  1  0  0  0
 12 15  1  0  0  0
M  END
> <minimizedAffinity>
-8.03947

$$$$
5LLC_V26_A_308


 29 30  0  0  0  0  0  0  0  0999 V2000
   -5.2441    3.5191   13.3387 C   0  0  0  0  0  0  0  0  0  0  0  0
   -6.0390    4.0759   14.3542 C   0  0  0  0  0  0  0  0  0  0  0  0
   -6.5827    5.2746   14.2077 F   0  0  0  0  0  0  0  0  0  0  0  0
   -6.2332    3.3843   15.5557 C   0  0  0  0  0  0  0  0  0  0  0  0
   -6.9299    4.0040   16.5213 F   0  0  0  0  0  0  0  0  0  0  0  0
   -4.6674    2.2461   13.5400 C   0  0  0  0  0  0  0  0  0  0  0  0
   -5.0016    1.5725   14.7445 C   0  0  0  0  0  0  0  0  0  0  0  0
   -4.5754    0.3186   14.8185 F   0  0  0  0  0  0  0  0  0  0  0  0
   -5.7633    2.0792   15.7808 C   0  0  0  0  0  0  0  0  0  0  0  0
   -6.2111    1.2570   17.3070 S   0  0  0  0  0  0  0  0  0  0  0  0
   -5.7344    2.2103   18.3013 O   0  0  0  0  0  0  0  0  0  0  0  0
   -5.4430   -0.1201   17.3876 N   0  0  0  0  0  0  0  0  0  0  0  0
   -7.6207    1.0096   17.2169 O   0  0  0  0  0  0  0  0  0  0  0  0
   -5.8072   -0.7546   16.6769 H   0  0  0  0  0  0  0  0  0  0  0  0
   -5.5778   -0.5310   18.3114 H   0  0  0  0  0  0  0  0  0  0  0  0
   -4.4003    3.7141   10.8161 O   0  0  0  0  0  0  0  0  0  0  0  0
   -4.9799    4.5333   11.9063 S   0  0  0  0  0  0  0  0  0  0  0  0
   -6.2352    5.1898   11.5732 O   0  0  0  0  0  0  0  0  0  0  0  0
   -3.8074    5.7715   12.3979 C   0  0  0  0  0  0  0  0  0  0  0  0
   -2.6536    5.2359   13.2401 C   0  0  0  0  0  0  0  0  0  0  0  0
   -1.3674    5.0360   12.5465 C   0  0  0  0  0  0  0  0  0  0  0  0
   -0.3174    5.9909   12.4482 C   0  0  0  0  0  0  0  0  0  0  0  0
    0.8698    5.7470   11.8335 C   0  0  0  0  0  0  0  0  0  0  0  0
    1.0285    4.4889   11.2195 C   0  0  0  0  0  0  0  0  0  0  0  0
    0.0336    3.5165   11.4049 C   0  0  0  0  0  0  0  0  0  0  0  0
   -1.1177    3.7661   12.1099 C   0  0  0  0  0  0  0  0  0  0  0  0
   -3.8729    1.6374   12.5919 N   0  0  0  0  0  0  0  0  0  0  0  0
   -4.3543    0.5463   11.7345 C   0  0  0  0  0  0  0  0  0  0  0  0
   -2.9444    1.9469   12.4851 H   0  0  0  0  0  0  0  0  0  0  0  0
 26 25  2  0  0  0
 26 21  1  0  0  0
 25 24  1  0  0  0
 20 21  1  0  0  0
 20 19  1  0  0  0
 21 22  2  0  0  0
 24 23  2  0  0  0
 22 23  1  0  0  0
 19 17  1  0  0  0
 28 27  1  0  0  0
 16 17  2  0  0  0
 27  6  1  0  0  0
 17  1  1  0  0  0
 17 18  2  0  0  0
  6  1  2  0  0  0
  6  7  1  0  0  0
  1  2  1  0  0  0
  8  7  1  0  0  0
  7  9  2  0  0  0
  2  3  1  0  0  0
  2  4  2  0  0  0
  9  4  1  0  0  0
  9 10  1  0  0  0
  4  5  1  0  0  0
 12 10  1  0  0  0
 13 10  2  0  0  0
 10 11  2  0  0  0
 27 29  1  0  0  0
 12 14  1  0  0  0
 12 15  1  0  0  0
M  END
> <minimizedAffinity>
-7.99283

$$$$
5LLC_V26_A_308


 29 30  0  0  0  0  0  0  0  0999 V2000
   -2.8824    3.7423   11.8991 C   0  0  0  0  0  0  0  0  0  0  0  0
   -3.5047    2.4845   11.8376 C   0  0  0  0  0  0  0  0  0  0  0  0
   -3.7567    1.9103   10.6710 F   0  0  0  0  0  0  0  0  0  0  0  0
   -3.9048    1.8382   13.0131 C   0  0  0  0  0  0  0  0  0  0  0  0
   -4.5715    0.6802   12.8871 F   0  0  0  0  0  0  0  0  0  0  0  0
   -2.6468    4.3294   13.1614 C   0  0  0  0  0  0  0  0  0  0  0  0
   -2.9906    3.5583   14.3030 C   0  0  0  0  0  0  0  0  0  0  0  0
   -2.6021    4.0741   15.4616 F   0  0  0  0  0  0  0  0  0  0  0  0
   -3.6179    2.3264   14.2993 C   0  0  0  0  0  0  0  0  0  0  0  0
   -4.0580    1.3237   15.7159 S   0  0  0  0  0  0  0  0  0  0  0  0
   -2.8103    1.3219   16.4695 O   0  0  0  0  0  0  0  0  0  0  0  0
   -4.4518   -0.1207   15.2145 N   0  0  0  0  0  0  0  0  0  0  0  0
   -5.2074    1.9541   16.2971 O   0  0  0  0  0  0  0  0  0  0  0  0
   -5.3277   -0.0728   14.6940 H   0  0  0  0  0  0  0  0  0  0  0  0
   -4.5666   -0.7396   16.0171 H   0  0  0  0  0  0  0  0  0  0  0  0
   -1.8375    5.8081   10.5747 O   0  0  0  0  0  0  0  0  0  0  0  0
   -2.5191    4.5131   10.3422 S   0  0  0  0  0  0  0  0  0  0  0  0
   -1.7694    3.5681    9.5281 O   0  0  0  0  0  0  0  0  0  0  0  0
   -4.0887    4.8059    9.5675 C   0  0  0  0  0  0  0  0  0  0  0  0
   -5.1833    5.2552   10.5305 C   0  0  0  0  0  0  0  0  0  0  0  0
   -6.1614    6.2289   10.0101 C   0  0  0  0  0  0  0  0  0  0  0  0
   -6.6849    6.2571    8.6876 C   0  0  0  0  0  0  0  0  0  0  0  0
   -7.6181    7.1495    8.2639 C   0  0  0  0  0  0  0  0  0  0  0  0
   -8.0383    8.1266    9.1878 C   0  0  0  0  0  0  0  0  0  0  0  0
   -7.5967    8.0339   10.5168 C   0  0  0  0  0  0  0  0  0  0  0  0
   -6.7209    7.0631   10.9356 C   0  0  0  0  0  0  0  0  0  0  0  0
   -2.0452    5.5620   13.3015 N   0  0  0  0  0  0  0  0  0  0  0  0
   -2.7740    6.7546   13.7528 C   0  0  0  0  0  0  0  0  0  0  0  0
   -1.0873    5.6462   13.0902 H   0  0  0  0  0  0  0  0  0  0  0  0
 26 25  2  0  0  0
 26 21  1  0  0  0
 25 24  1  0  0  0
 20 21  1  0  0  0
 20 19  1  0  0  0
 21 22  2  0  0  0
 24 23  2  0  0  0
 22 23  1  0  0  0
 19 17  1  0  0  0
 28 27  1  0  0  0
 16 17  2  0  0  0
 27  6  1  0  0  0
 17  1  1  0  0  0
 17 18  2  0  0  0
  6  1  2  0  0  0
  6  7  1  0  0  0
  1  2  1  0  0  0
  8  7  1  0  0  0
  7  9  2  0  0  0
  2  3  1  0  0  0
  2  4  2  0  0  0
  9  4  1  0  0  0
  9 10  1  0  0  0
  4  5  1  0  0  0
 12 10  1  0  0  0
 13 10  2  0  0  0
 10 11  2  0  0  0
 27 29  1  0  0  0
 12 14  1  0  0  0
 12 15  1  0  0  0
M  END
> <minimizedAffinity>
-7.80271

$$$$
5LLC_V26_A_308


 29 30  0  0  0  0  0  0  0  0999 V2000
   -4.6888    3.5772   13.7889 C   0  0  0  0  0  0  0  0  0  0  0  0
   -5.6148    4.1090   14.7016 C   0  0  0  0  0  0  0  0  0  0  0  0
   -6.1012    5.3299   14.5384 F   0  0  0  0  0  0  0  0  0  0  0  0
   -6.0051    3.3666   15.8224 C   0  0  0  0  0  0  0  0  0  0  0  0
   -6.8250    3.9604   16.7037 F   0  0  0  0  0  0  0  0  0  0  0  0
   -4.1798    2.2783   14.0073 C   0  0  0  0  0  0  0  0  0  0  0  0
   -4.7085    1.5581   15.1109 C   0  0  0  0  0  0  0  0  0  0  0  0
   -4.3285    0.2894   15.1819 F   0  0  0  0  0  0  0  0  0  0  0  0
   -5.6060    2.0379   16.0464 C   0  0  0  0  0  0  0  0  0  0  0  0
   -6.2992    1.1573   17.4428 S   0  0  0  0  0  0  0  0  0  0  0  0
   -5.9593    2.0477   18.5456 O   0  0  0  0  0  0  0  0  0  0  0  0
   -5.5826   -0.2440   17.5676 N   0  0  0  0  0  0  0  0  0  0  0  0
   -7.6836    0.9560   17.1277 O   0  0  0  0  0  0  0  0  0  0  0  0
   -5.8477   -0.8329   16.7781 H   0  0  0  0  0  0  0  0  0  0  0  0
   -5.8656   -0.6943   18.4379 H   0  0  0  0  0  0  0  0  0  0  0  0
   -3.6482    5.9122   13.0284 O   0  0  0  0  0  0  0  0  0  0  0  0
   -4.1866    4.6506   12.4678 S   0  0  0  0  0  0  0  0  0  0  0  0
   -3.2625    3.9213   11.6123 O   0  0  0  0  0  0  0  0  0  0  0  0
   -5.6589    5.0008   11.5406 C   0  0  0  0  0  0  0  0  0  0  0  0
   -5.4110    5.7715   10.2476 C   0  0  0  0  0  0  0  0  0  0  0  0
   -5.6205    7.2306   10.2984 C   0  0  0  0  0  0  0  0  0  0  0  0
   -4.6087    8.2104   10.4982 C   0  0  0  0  0  0  0  0  0  0  0  0
   -4.8430    9.5491   10.4956 C   0  0  0  0  0  0  0  0  0  0  0  0
   -6.1791    9.9668   10.3372 C   0  0  0  0  0  0  0  0  0  0  0  0
   -7.1570    9.0047   10.0402 C   0  0  0  0  0  0  0  0  0  0  0  0
   -6.8708    7.6644    9.9604 C   0  0  0  0  0  0  0  0  0  0  0  0
   -3.2657    1.6915   13.1584 N   0  0  0  0  0  0  0  0  0  0  0  0
   -3.6297    0.6298   12.2110 C   0  0  0  0  0  0  0  0  0  0  0  0
   -2.3302    1.9967   13.1884 H   0  0  0  0  0  0  0  0  0  0  0  0
 26 25  2  0  0  0
 26 21  1  0  0  0
 25 24  1  0  0  0
 20 21  1  0  0  0
 20 19  1  0  0  0
 21 22  2  0  0  0
 24 23  2  0  0  0
 22 23  1  0  0  0
 19 17  1  0  0  0
 28 27  1  0  0  0
 16 17  2  0  0  0
 27  6  1  0  0  0
 17  1  1  0  0  0
 17 18  2  0  0  0
  6  1  2  0  0  0
  6  7  1  0  0  0
  1  2  1  0  0  0
  8  7  1  0  0  0
  7  9  2  0  0  0
  2  3  1  0  0  0
  2  4  2  0  0  0
  9  4  1  0  0  0
  9 10  1  0  0  0
  4  5  1  0  0  0
 12 10  1  0  0  0
 13 10  2  0  0  0
 10 11  2  0  0  0
 27 29  1  0  0  0
 12 14  1  0  0  0
 12 15  1  0  0  0
M  END
> <minimizedAffinity>
-7.76004

$$$$
5LLC_V26_A_308


 29 30  0  0  0  0  0  0  0  0999 V2000
   -3.7034    4.5461   12.3822 C   0  0  0  0  0  0  0  0  0  0  0  0
   -4.8110    5.3331   12.7386 C   0  0  0  0  0  0  0  0  0  0  0  0
   -5.1085    5.5462   14.0114 F   0  0  0  0  0  0  0  0  0  0  0  0
   -5.6413    5.8705   11.7479 C   0  0  0  0  0  0  0  0  0  0  0  0
   -6.7323    6.5407   12.1506 F   0  0  0  0  0  0  0  0  0  0  0  0
   -3.4295    4.3276   11.0144 C   0  0  0  0  0  0  0  0  0  0  0  0
   -4.2619    4.9953   10.0777 C   0  0  0  0  0  0  0  0  0  0  0  0
   -3.8700    4.8968    8.8144 F   0  0  0  0  0  0  0  0  0  0  0  0
   -5.3712    5.7657   10.3727 C   0  0  0  0  0  0  0  0  0  0  0  0
   -6.4367    6.6276    9.2206 S   0  0  0  0  0  0  0  0  0  0  0  0
   -6.9420    5.5253    8.4118 O   0  0  0  0  0  0  0  0  0  0  0  0
   -5.5629    7.6341    8.3744 N   0  0  0  0  0  0  0  0  0  0  0  0
   -7.3647    7.3664   10.0265 O   0  0  0  0  0  0  0  0  0  0  0  0
   -5.2312    8.3867    8.9777 H   0  0  0  0  0  0  0  0  0  0  0  0
   -6.1289    8.0261    7.6218 H   0  0  0  0  0  0  0  0  0  0  0  0
   -1.3478    3.7901   13.3787 O   0  0  0  0  0  0  0  0  0  0  0  0
   -2.7884    3.8290   13.7233 S   0  0  0  0  0  0  0  0  0  0  0  0
   -3.1042    4.5660   14.9378 O   0  0  0  0  0  0  0  0  0  0  0  0
   -3.3968    2.1706   13.8940 C   0  0  0  0  0  0  0  0  0  0  0  0
   -4.9098    2.0779   14.0662 C   0  0  0  0  0  0  0  0  0  0  0  0
   -5.4208    2.1254   15.4489 C   0  0  0  0  0  0  0  0  0  0  0  0
   -6.3097    3.1039   15.9747 C   0  0  0  0  0  0  0  0  0  0  0  0
   -6.7880    3.0837   17.2466 C   0  0  0  0  0  0  0  0  0  0  0  0
   -6.3232    2.0564   18.0912 C   0  0  0  0  0  0  0  0  0  0  0  0
   -5.5282    1.0382   17.5421 C   0  0  0  0  0  0  0  0  0  0  0  0
   -5.1349    1.0397   16.2268 C   0  0  0  0  0  0  0  0  0  0  0  0
   -2.3640    3.5637   10.5878 N   0  0  0  0  0  0  0  0  0  0  0  0
   -1.1304    4.1519   10.0499 C   0  0  0  0  0  0  0  0  0  0  0  0
   -2.4329    2.5834   10.6463 H   0  0  0  0  0  0  0  0  0  0  0  0
 26 25  2  0  0  0
 26 21  1  0  0  0
 25 24  1  0  0  0
 20 21  1  0  0  0
 20 19  1  0  0  0
 21 22  2  0  0  0
 24 23  2  0  0  0
 22 23  1  0  0  0
 19 17  1  0  0  0
 28 27  1  0  0  0
 16 17  2  0  0  0
 27  6  1  0  0  0
 17  1  1  0  0  0
 17 18  2  0  0  0
  6  1  2  0  0  0
  6  7  1  0  0  0
  1  2  1  0  0  0
  8  7  1  0  0  0
  7  9  2  0  0  0
  2  3  1  0  0  0
  2  4  2  0  0  0
  9  4  1  0  0  0
  9 10  1  0  0  0
  4  5  1  0  0  0
 12 10  1  0  0  0
 13 10  2  0  0  0
 10 11  2  0  0  0
 27 29  1  0  0  0
 12 14  1  0  0  0
 12 15  1  0  0  0
M  END
> <minimizedAffinity>
-7.45563

$$$$
5LLC_V26_A_308


 29 30  0  0  0  0  0  0  0  0999 V2000
   -4.8775    3.9630   12.1259 C   0  0  0  0  0  0  0  0  0  0  0  0
   -4.4015    4.6069   13.2799 C   0  0  0  0  0  0  0  0  0  0  0  0
   -4.2953    5.9263   13.3237 F   0  0  0  0  0  0  0  0  0  0  0  0
   -3.9933    3.8555   14.3882 C   0  0  0  0  0  0  0  0  0  0  0  0
   -3.4669    4.5214   15.4280 F   0  0  0  0  0  0  0  0  0  0  0  0
   -4.9594    2.5534   12.1119 C   0  0  0  0  0  0  0  0  0  0  0  0
   -4.6228    1.8783   13.3149 C   0  0  0  0  0  0  0  0  0  0  0  0
   -4.8714    0.5754   13.3110 F   0  0  0  0  0  0  0  0  0  0  0  0
   -4.1351    2.4598   14.4703 C   0  0  0  0  0  0  0  0  0  0  0  0
   -3.7091    1.6425   16.0053 S   0  0  0  0  0  0  0  0  0  0  0  0
   -4.7029    2.1978   16.9156 O   0  0  0  0  0  0  0  0  0  0  0  0
   -2.2387    2.0519   16.4089 N   0  0  0  0  0  0  0  0  0  0  0  0
   -3.7499    0.2373   15.7225 O   0  0  0  0  0  0  0  0  0  0  0  0
   -1.5783    1.6432   15.7476 H   0  0  0  0  0  0  0  0  0  0  0  0
   -2.0359    1.7088   17.3478 H   0  0  0  0  0  0  0  0  0  0  0  0
   -5.3589    4.1961    9.5129 O   0  0  0  0  0  0  0  0  0  0  0  0
   -5.2624    5.0114   10.7465 S   0  0  0  0  0  0  0  0  0  0  0  0
   -6.4611    5.7706   11.0697 O   0  0  0  0  0  0  0  0  0  0  0  0
   -3.9006    6.1400   10.5999 C   0  0  0  0  0  0  0  0  0  0  0  0
   -2.8976    5.7665    9.5128 C   0  0  0  0  0  0  0  0  0  0  0  0
   -1.6708    5.0774    9.9553 C   0  0  0  0  0  0  0  0  0  0  0  0
   -1.3456    4.7366   11.2977 C   0  0  0  0  0  0  0  0  0  0  0  0
   -0.2206    4.0628   11.6542 C   0  0  0  0  0  0  0  0  0  0  0  0
    0.6872    3.7395   10.6264 C   0  0  0  0  0  0  0  0  0  0  0  0
    0.3167    3.9869    9.2954 C   0  0  0  0  0  0  0  0  0  0  0  0
   -0.8708    4.5895    8.9615 C   0  0  0  0  0  0  0  0  0  0  0  0
   -5.4121    1.8511   11.0153 N   0  0  0  0  0  0  0  0  0  0  0  0
   -4.6899    0.7014   10.4552 C   0  0  0  0  0  0  0  0  0  0  0  0
   -6.2544    2.1320   10.5900 H   0  0  0  0  0  0  0  0  0  0  0  0
 26 25  2  0  0  0
 26 21  1  0  0  0
 25 24  1  0  0  0
 20 21  1  0  0  0
 20 19  1  0  0  0
 21 22  2  0  0  0
 24 23  2  0  0  0
 22 23  1  0  0  0
 19 17  1  0  0  0
 28 27  1  0  0  0
 16 17  2  0  0  0
 27  6  1  0  0  0
 17  1  1  0  0  0
 17 18  2  0  0  0
  6  1  2  0  0  0
  6  7  1  0  0  0
  1  2  1  0  0  0
  8  7  1  0  0  0
  7  9  2  0  0  0
  2  3  1  0  0  0
  2  4  2  0  0  0
  9  4  1  0  0  0
  9 10  1  0  0  0
  4  5  1  0  0  0
 12 10  1  0  0  0
 13 10  2  0  0  0
 10 11  2  0  0  0
 27 29  1  0  0  0
 12 14  1  0  0  0
 12 15  1  0  0  0
M  END
> <minimizedAffinity>
-7.33505

$$$$
