2JH5_895_D_1249


 29 31  0  0  0  0  0  0  0  0999 V2000
    3.6965   19.8338   51.5365 C   0  0  0  0  0  0  0  0  0  0  0  0
    2.2861   20.0073   52.1309 C   0  0  0  0  0  0  0  0  0  0  0  0
    1.3559   19.2352   51.1834 C   0  0  0  0  0  0  0  0  0  0  0  0
    3.5064   19.2495   50.1591 C   0  0  0  0  0  0  0  0  0  0  0  0
    4.3556   19.2405   49.2773 O   0  0  0  0  0  0  0  0  0  0  0  0
    2.2455   18.7468   50.1245 N   0  0  0  0  0  0  0  0  0  0  0  0
    4.4590   21.0610   51.5874 N   0  0  0  0  0  0  0  0  0  0  0  0
    4.5707   21.3875   50.6276 H   0  0  0  0  0  0  0  0  0  0  0  0
    5.9413   21.0194   52.2581 S   0  0  0  0  0  0  0  0  0  0  0  0
    5.9870   22.1396   53.1488 O   0  0  0  0  0  0  0  0  0  0  0  0
    6.2693   19.7005   52.7068 O   0  0  0  0  0  0  0  0  0  0  0  0
    8.3390   21.0433   50.9453 C   0  0  0  0  0  0  0  0  0  0  0  0
    7.0157   21.3070   50.9202 C   0  0  0  0  0  0  0  0  0  0  0  0
   10.5718   23.9233   46.7439 Cl  0  0  0  0  0  0  0  0  0  0  0  0
   10.1299   22.7351   47.9004 C   0  0  0  0  0  0  0  0  0  0  0  0
   10.6645   21.4421   47.9811 C   0  0  0  0  0  0  0  0  0  0  0  0
   10.0849   20.7430   49.0559 C   0  0  0  0  0  0  0  0  0  0  0  0
    9.1366   21.4971   49.7663 C   0  0  0  0  0  0  0  0  0  0  0  0
    8.9828   23.0480   49.1288 S   0  0  0  0  0  0  0  0  0  0  0  0
    1.7920   17.7869   49.1166 C   0  0  0  0  0  0  0  0  0  0  0  0
    1.1991   16.5581   49.8237 C   0  0  0  0  0  0  0  0  0  0  0  0
    0.7970   18.3884   48.1160 C   0  0  0  0  0  0  0  0  0  0  0  0
   -0.1764   19.0068   48.5568 O   0  0  0  0  0  0  0  0  0  0  0  0
    1.0629   18.1992   46.7628 N   0  0  0  0  0  0  0  0  0  0  0  0
    0.2010   18.8207   45.7506 C   0  0  0  0  0  0  0  0  0  0  0  0
    0.9650   19.3829   44.5464 C   0  0  0  0  0  0  0  0  0  0  0  0
    1.9654   18.4839   44.0676 O   0  0  0  0  0  0  0  0  0  0  0  0
    2.9036   18.1258   45.0801 C   0  0  0  0  0  0  0  0  0  0  0  0
    2.1485   17.3713   46.1877 C   0  0  0  0  0  0  0  0  0  0  0  0
 14 15  1  0  0  0
 15 16  2  0  0  0
 16 17  1  0  0  0
 17 18  2  0  0  0
 18 12  1  0  0  0
  9 10  2  0  0  0
  9 11  2  0  0  0
  9  7  1  0  0  0
  7  1  1  0  0  0
  1  2  1  0  0  0
  2  3  1  0  0  0
  1  4  1  0  0  0
  4  5  2  0  0  0
  3  6  1  0  0  0
  4  6  1  0  0  0
  6 20  1  0  0  0
 20 21  1  0  0  0
 20 22  1  0  0  0
 22 23  2  0  0  0
 22 24  1  0  0  0
 24 25  1  0  0  0
 25 26  1  0  0  0
 26 27  1  0  0  0
 27 28  1  0  0  0
 24 29  1  0  0  0
 28 29  1  0  0  0
 15 19  1  0  0  0
 18 19  1  0  0  0
 12 13  2  0  0  0
  9 13  1  0  0  0
  7  8  1  0  0  0
M  END
> <minimizedAffinity>
-8.54120

$$$$
2JH5_895_D_1249


 29 31  0  0  0  0  0  0  0  0999 V2000
    5.8514   19.0045   50.0140 C   0  0  0  0  0  0  0  0  0  0  0  0
    6.5059   17.6185   50.1668 C   0  0  0  0  0  0  0  0  0  0  0  0
    5.9191   16.7723   49.0271 C   0  0  0  0  0  0  0  0  0  0  0  0
    4.7281   18.8352   49.0219 C   0  0  0  0  0  0  0  0  0  0  0  0
    3.8077   19.6264   48.8623 O   0  0  0  0  0  0  0  0  0  0  0  0
    4.9650   17.6696   48.3670 N   0  0  0  0  0  0  0  0  0  0  0  0
    5.4692   19.5652   51.2906 N   0  0  0  0  0  0  0  0  0  0  0  0
    4.5127   19.9066   51.1966 H   0  0  0  0  0  0  0  0  0  0  0  0
    6.3602   20.7867   51.8930 S   0  0  0  0  0  0  0  0  0  0  0  0
    5.4199   21.8127   52.2300 O   0  0  0  0  0  0  0  0  0  0  0  0
    7.3128   20.3099   52.8488 O   0  0  0  0  0  0  0  0  0  0  0  0
    8.6647   21.1995   50.4815 C   0  0  0  0  0  0  0  0  0  0  0  0
    7.3212   21.3119   50.5410 C   0  0  0  0  0  0  0  0  0  0  0  0
   10.3460   24.6813   46.4840 Cl  0  0  0  0  0  0  0  0  0  0  0  0
   10.0939   23.3495   47.5362 C   0  0  0  0  0  0  0  0  0  0  0  0
   10.7580   22.1176   47.4602 C   0  0  0  0  0  0  0  0  0  0  0  0
   10.3157   21.2633   48.4871 C   0  0  0  0  0  0  0  0  0  0  0  0
    9.3415   21.8435   49.3158 C   0  0  0  0  0  0  0  0  0  0  0  0
    8.9970   23.4232   48.8453 S   0  0  0  0  0  0  0  0  0  0  0  0
    4.3282   17.3198   47.0962 C   0  0  0  0  0  0  0  0  0  0  0  0
    5.1240   16.1861   46.4306 C   0  0  0  0  0  0  0  0  0  0  0  0
    2.8476   16.9481   47.2461 C   0  0  0  0  0  0  0  0  0  0  0  0
    2.5447   16.0564   48.0444 O   0  0  0  0  0  0  0  0  0  0  0  0
    1.9332   17.6516   46.4672 N   0  0  0  0  0  0  0  0  0  0  0  0
    0.4944   17.4082   46.6231 C   0  0  0  0  0  0  0  0  0  0  0  0
   -0.3601   18.6791   46.5577 C   0  0  0  0  0  0  0  0  0  0  0  0
    0.0289   19.5430   45.4897 O   0  0  0  0  0  0  0  0  0  0  0  0
    1.4029   19.9170   45.5662 C   0  0  0  0  0  0  0  0  0  0  0  0
    2.2546   18.6448   45.4161 C   0  0  0  0  0  0  0  0  0  0  0  0
 14 15  1  0  0  0
 15 16  2  0  0  0
 16 17  1  0  0  0
 17 18  2  0  0  0
 18 12  1  0  0  0
  9 10  2  0  0  0
  9 11  2  0  0  0
  9  7  1  0  0  0
  7  1  1  0  0  0
  1  2  1  0  0  0
  2  3  1  0  0  0
  1  4  1  0  0  0
  4  5  2  0  0  0
  3  6  1  0  0  0
  4  6  1  0  0  0
  6 20  1  0  0  0
 20 21  1  0  0  0
 20 22  1  0  0  0
 22 23  2  0  0  0
 22 24  1  0  0  0
 24 25  1  0  0  0
 25 26  1  0  0  0
 26 27  1  0  0  0
 27 28  1  0  0  0
 24 29  1  0  0  0
 28 29  1  0  0  0
 15 19  1  0  0  0
 18 19  1  0  0  0
 12 13  2  0  0  0
  9 13  1  0  0  0
  7  8  1  0  0  0
M  END
> <minimizedAffinity>
-8.11353

$$$$
2JH5_895_D_1249


 29 31  0  0  0  0  0  0  0  0999 V2000
    5.9398   18.6741   50.3616 C   0  0  0  0  0  0  0  0  0  0  0  0
    5.5786   19.9682   49.6083 C   0  0  0  0  0  0  0  0  0  0  0  0
    4.0705   19.8640   49.3364 C   0  0  0  0  0  0  0  0  0  0  0  0
    4.7431   17.7645   50.2383 C   0  0  0  0  0  0  0  0  0  0  0  0
    4.7534   16.5587   50.4496 O   0  0  0  0  0  0  0  0  0  0  0  0
    3.6982   18.5501   49.8714 N   0  0  0  0  0  0  0  0  0  0  0  0
    7.1916   18.1140   49.9040 N   0  0  0  0  0  0  0  0  0  0  0  0
    7.1127   17.0995   49.9749 H   0  0  0  0  0  0  0  0  0  0  0  0
    8.5571   18.5467   50.6766 S   0  0  0  0  0  0  0  0  0  0  0  0
    8.1249   19.1891   51.8812 O   0  0  0  0  0  0  0  0  0  0  0  0
    9.4982   17.4689   50.7068 O   0  0  0  0  0  0  0  0  0  0  0  0
    9.1562   21.0627   49.7910 C   0  0  0  0  0  0  0  0  0  0  0  0
    9.2786   19.7291   49.6238 C   0  0  0  0  0  0  0  0  0  0  0  0
   10.3195   25.2346   46.3020 Cl  0  0  0  0  0  0  0  0  0  0  0  0
   10.2336   23.7431   47.1461 C   0  0  0  0  0  0  0  0  0  0  0  0
   10.9810   22.5960   46.8461 C   0  0  0  0  0  0  0  0  0  0  0  0
   10.6689   21.5630   47.7491 C   0  0  0  0  0  0  0  0  0  0  0  0
    9.7086   21.9289   48.7064 C   0  0  0  0  0  0  0  0  0  0  0  0
    9.2190   23.5274   48.5050 S   0  0  0  0  0  0  0  0  0  0  0  0
    2.2999   18.1352   49.9963 C   0  0  0  0  0  0  0  0  0  0  0  0
    1.6964   18.7753   51.2562 C   0  0  0  0  0  0  0  0  0  0  0  0
    1.4624   18.4564   48.7520 C   0  0  0  0  0  0  0  0  0  0  0  0
    0.5014   19.2217   48.8735 O   0  0  0  0  0  0  0  0  0  0  0  0
    1.8485   17.8611   47.5544 N   0  0  0  0  0  0  0  0  0  0  0  0
    1.1458   18.1918   46.3092 C   0  0  0  0  0  0  0  0  0  0  0  0
    2.0701   18.3346   45.0948 C   0  0  0  0  0  0  0  0  0  0  0  0
    3.0396   17.2892   45.0218 O   0  0  0  0  0  0  0  0  0  0  0  0
    3.8389   17.2063   46.2000 C   0  0  0  0  0  0  0  0  0  0  0  0
    2.9179   16.8508   47.3797 C   0  0  0  0  0  0  0  0  0  0  0  0
 14 15  1  0  0  0
 15 16  2  0  0  0
 16 17  1  0  0  0
 17 18  2  0  0  0
 18 12  1  0  0  0
  9 10  2  0  0  0
  9 11  2  0  0  0
  9  7  1  0  0  0
  7  1  1  0  0  0
  1  2  1  0  0  0
  2  3  1  0  0  0
  1  4  1  0  0  0
  4  5  2  0  0  0
  3  6  1  0  0  0
  4  6  1  0  0  0
  6 20  1  0  0  0
 20 21  1  0  0  0
 20 22  1  0  0  0
 22 23  2  0  0  0
 22 24  1  0  0  0
 24 25  1  0  0  0
 25 26  1  0  0  0
 26 27  1  0  0  0
 27 28  1  0  0  0
 24 29  1  0  0  0
 28 29  1  0  0  0
 15 19  1  0  0  0
 18 19  1  0  0  0
 12 13  2  0  0  0
  9 13  1  0  0  0
  7  8  1  0  0  0
M  END
> <minimizedAffinity>
-7.88823

$$$$
2JH5_895_D_1249


 29 31  0  0  0  0  0  0  0  0999 V2000
    4.0303   18.6577   49.8062 C   0  0  0  0  0  0  0  0  0  0  0  0
    5.0050   17.6824   49.1196 C   0  0  0  0  0  0  0  0  0  0  0  0
    4.1118   16.6044   48.4876 C   0  0  0  0  0  0  0  0  0  0  0  0
    2.6838   17.9783   49.8093 C   0  0  0  0  0  0  0  0  0  0  0  0
    1.7357   18.3027   50.5126 O   0  0  0  0  0  0  0  0  0  0  0  0
    2.7527   16.9821   48.8892 N   0  0  0  0  0  0  0  0  0  0  0  0
    4.5123   19.0804   51.1020 N   0  0  0  0  0  0  0  0  0  0  0  0
    3.8352   18.7615   51.7950 H   0  0  0  0  0  0  0  0  0  0  0  0
    4.7483   20.6708   51.3546 S   0  0  0  0  0  0  0  0  0  0  0  0
    3.5782   21.3153   50.8390 O   0  0  0  0  0  0  0  0  0  0  0  0
    5.2071   20.9205   52.6870 O   0  0  0  0  0  0  0  0  0  0  0  0
    7.2888   21.5203   50.8088 C   0  0  0  0  0  0  0  0  0  0  0  0
    6.1093   21.0592   50.3426 C   0  0  0  0  0  0  0  0  0  0  0  0
   11.2984   21.7354   46.9608 Cl  0  0  0  0  0  0  0  0  0  0  0  0
   10.0637   22.0791   48.1017 C   0  0  0  0  0  0  0  0  0  0  0  0
    9.5669   23.3550   48.4011 C   0  0  0  0  0  0  0  0  0  0  0  0
    8.5516   23.2656   49.3712 C   0  0  0  0  0  0  0  0  0  0  0  0
    8.2923   21.9501   49.7889 C   0  0  0  0  0  0  0  0  0  0  0  0
    9.2714   20.8446   48.9798 S   0  0  0  0  0  0  0  0  0  0  0  0
    1.5710   16.3259   48.3273 C   0  0  0  0  0  0  0  0  0  0  0  0
    0.8450   15.5573   49.4425 C   0  0  0  0  0  0  0  0  0  0  0  0
    0.6240   17.2984   47.6128 C   0  0  0  0  0  0  0  0  0  0  0  0
   -0.3177   17.7762   48.2524 O   0  0  0  0  0  0  0  0  0  0  0  0
    0.8949   17.5845   46.2777 N   0  0  0  0  0  0  0  0  0  0  0  0
    0.0821   18.5722   45.5583 C   0  0  0  0  0  0  0  0  0  0  0  0
    0.8913   19.4785   44.6237 C   0  0  0  0  0  0  0  0  0  0  0  0
    1.8445   18.7506   43.8491 O   0  0  0  0  0  0  0  0  0  0  0  0
    2.7485   18.0044   44.6613 C   0  0  0  0  0  0  0  0  0  0  0  0
    1.9383   16.9521   45.4375 C   0  0  0  0  0  0  0  0  0  0  0  0
 14 15  1  0  0  0
 15 16  2  0  0  0
 16 17  1  0  0  0
 17 18  2  0  0  0
 18 12  1  0  0  0
  9 10  2  0  0  0
  9 11  2  0  0  0
  9  7  1  0  0  0
  7  1  1  0  0  0
  1  2  1  0  0  0
  2  3  1  0  0  0
  1  4  1  0  0  0
  4  5  2  0  0  0
  3  6  1  0  0  0
  4  6  1  0  0  0
  6 20  1  0  0  0
 20 21  1  0  0  0
 20 22  1  0  0  0
 22 23  2  0  0  0
 22 24  1  0  0  0
 24 25  1  0  0  0
 25 26  1  0  0  0
 26 27  1  0  0  0
 27 28  1  0  0  0
 24 29  1  0  0  0
 28 29  1  0  0  0
 15 19  1  0  0  0
 18 19  1  0  0  0
 12 13  2  0  0  0
  9 13  1  0  0  0
  7  8  1  0  0  0
M  END
> <minimizedAffinity>
-7.37110

$$$$
2JH5_895_D_1249


 29 31  0  0  0  0  0  0  0  0999 V2000
    4.3248   18.9196   48.9862 C   0  0  0  0  0  0  0  0  0  0  0  0
    5.3020   17.7543   48.7415 C   0  0  0  0  0  0  0  0  0  0  0  0
    4.7149   16.9850   47.5487 C   0  0  0  0  0  0  0  0  0  0  0  0
    3.0982   18.6241   48.1599 C   0  0  0  0  0  0  0  0  0  0  0  0
    2.0055   19.1549   48.3113 O   0  0  0  0  0  0  0  0  0  0  0  0
    3.4660   17.6912   47.2443 N   0  0  0  0  0  0  0  0  0  0  0  0
    4.0835   19.1355   50.3952 N   0  0  0  0  0  0  0  0  0  0  0  0
    3.0802   19.0351   50.5489 H   0  0  0  0  0  0  0  0  0  0  0  0
    4.5306   20.5597   51.0437 S   0  0  0  0  0  0  0  0  0  0  0  0
    3.4503   21.4584   50.7686 O   0  0  0  0  0  0  0  0  0  0  0  0
    5.0331   20.3881   52.3727 O   0  0  0  0  0  0  0  0  0  0  0  0
    7.1554   21.1975   50.6230 C   0  0  0  0  0  0  0  0  0  0  0  0
    5.9196   21.0299   50.1073 C   0  0  0  0  0  0  0  0  0  0  0  0
   11.3677   21.9073   47.0616 Cl  0  0  0  0  0  0  0  0  0  0  0  0
   10.0543   22.1006   48.1488 C   0  0  0  0  0  0  0  0  0  0  0  0
    9.4829   23.3245   48.5226 C   0  0  0  0  0  0  0  0  0  0  0  0
    8.4181   23.1105   49.4172 C   0  0  0  0  0  0  0  0  0  0  0  0
    8.1956   21.7543   49.7066 C   0  0  0  0  0  0  0  0  0  0  0  0
    9.2699   20.7637   48.8699 S   0  0  0  0  0  0  0  0  0  0  0  0
    2.6893   17.4014   46.0379 C   0  0  0  0  0  0  0  0  0  0  0  0
    3.6531   17.1589   44.8658 C   0  0  0  0  0  0  0  0  0  0  0  0
    1.7186   16.2268   46.2136 C   0  0  0  0  0  0  0  0  0  0  0  0
    2.1842   15.0849   46.2711 O   0  0  0  0  0  0  0  0  0  0  0  0
    0.3628   16.5298   46.3022 N   0  0  0  0  0  0  0  0  0  0  0  0
   -0.6132   15.4641   46.5576 C   0  0  0  0  0  0  0  0  0  0  0  0
   -1.7332   15.8676   47.5232 C   0  0  0  0  0  0  0  0  0  0  0  0
   -2.2625   17.1616   47.2338 O   0  0  0  0  0  0  0  0  0  0  0  0
   -1.2586   18.1744   47.2461 C   0  0  0  0  0  0  0  0  0  0  0  0
   -0.2527   17.8655   46.1241 C   0  0  0  0  0  0  0  0  0  0  0  0
 14 15  1  0  0  0
 15 16  2  0  0  0
 16 17  1  0  0  0
 17 18  2  0  0  0
 18 12  1  0  0  0
  9 10  2  0  0  0
  9 11  2  0  0  0
  9  7  1  0  0  0
  7  1  1  0  0  0
  1  2  1  0  0  0
  2  3  1  0  0  0
  1  4  1  0  0  0
  4  5  2  0  0  0
  3  6  1  0  0  0
  4  6  1  0  0  0
  6 20  1  0  0  0
 20 21  1  0  0  0
 20 22  1  0  0  0
 22 23  2  0  0  0
 22 24  1  0  0  0
 24 25  1  0  0  0
 25 26  1  0  0  0
 26 27  1  0  0  0
 27 28  1  0  0  0
 24 29  1  0  0  0
 28 29  1  0  0  0
 15 19  1  0  0  0
 18 19  1  0  0  0
 12 13  2  0  0  0
  9 13  1  0  0  0
  7  8  1  0  0  0
M  END
> <minimizedAffinity>
-7.29761

$$$$
2JH5_895_D_1249


 29 31  0  0  0  0  0  0  0  0999 V2000
    7.6506   17.5764   51.9205 C   0  0  0  0  0  0  0  0  0  0  0  0
    7.2682   16.6282   53.0726 C   0  0  0  0  0  0  0  0  0  0  0  0
    6.3690   17.4640   53.9956 C   0  0  0  0  0  0  0  0  0  0  0  0
    7.2287   18.9586   52.3521 C   0  0  0  0  0  0  0  0  0  0  0  0
    7.6192   20.0020   51.8446 O   0  0  0  0  0  0  0  0  0  0  0  0
    6.3488   18.7917   53.3727 N   0  0  0  0  0  0  0  0  0  0  0  0
    9.0415   17.4424   51.5496 N   0  0  0  0  0  0  0  0  0  0  0  0
    9.5169   18.2946   51.8464 H   0  0  0  0  0  0  0  0  0  0  0  0
    9.4009   17.2117   49.9791 S   0  0  0  0  0  0  0  0  0  0  0  0
   10.7474   16.7246   49.9649 O   0  0  0  0  0  0  0  0  0  0  0  0
    8.3508   16.5103   49.3056 O   0  0  0  0  0  0  0  0  0  0  0  0
   10.2372   19.7900   49.6234 C   0  0  0  0  0  0  0  0  0  0  0  0
    9.3638   18.8132   49.3002 C   0  0  0  0  0  0  0  0  0  0  0  0
   10.1912   24.4531   46.5928 Cl  0  0  0  0  0  0  0  0  0  0  0  0
    9.9296   23.2193   47.7563 C   0  0  0  0  0  0  0  0  0  0  0  0
    9.0380   23.2962   48.8349 C   0  0  0  0  0  0  0  0  0  0  0  0
    9.0686   22.1008   49.5766 C   0  0  0  0  0  0  0  0  0  0  0  0
    9.9635   21.1478   49.0635 C   0  0  0  0  0  0  0  0  0  0  0  0
   10.7348   21.7133   47.6777 S   0  0  0  0  0  0  0  0  0  0  0  0
    5.4391   19.8444   53.8278 C   0  0  0  0  0  0  0  0  0  0  0  0
    6.0774   20.5813   55.0157 C   0  0  0  0  0  0  0  0  0  0  0  0
    5.0424   20.8214   52.7138 C   0  0  0  0  0  0  0  0  0  0  0  0
    5.4634   21.9804   52.7729 O   0  0  0  0  0  0  0  0  0  0  0  0
    4.2291   20.3299   51.6965 N   0  0  0  0  0  0  0  0  0  0  0  0
    3.8826   21.1845   50.5549 C   0  0  0  0  0  0  0  0  0  0  0  0
    3.8869   20.4521   49.2084 C   0  0  0  0  0  0  0  0  0  0  0  0
    3.2362   19.1831   49.2761 O   0  0  0  0  0  0  0  0  0  0  0  0
    3.8102   18.3302   50.2645 C   0  0  0  0  0  0  0  0  0  0  0  0
    3.6064   18.9868   51.6406 C   0  0  0  0  0  0  0  0  0  0  0  0
 14 15  1  0  0  0
 15 16  2  0  0  0
 16 17  1  0  0  0
 17 18  2  0  0  0
 18 12  1  0  0  0
  9 10  2  0  0  0
  9 11  2  0  0  0
  9  7  1  0  0  0
  7  1  1  0  0  0
  1  2  1  0  0  0
  2  3  1  0  0  0
  1  4  1  0  0  0
  4  5  2  0  0  0
  3  6  1  0  0  0
  4  6  1  0  0  0
  6 20  1  0  0  0
 20 21  1  0  0  0
 20 22  1  0  0  0
 22 23  2  0  0  0
 22 24  1  0  0  0
 24 25  1  0  0  0
 25 26  1  0  0  0
 26 27  1  0  0  0
 27 28  1  0  0  0
 24 29  1  0  0  0
 28 29  1  0  0  0
 15 19  1  0  0  0
 18 19  1  0  0  0
 12 13  2  0  0  0
  9 13  1  0  0  0
  7  8  1  0  0  0
M  END
> <minimizedAffinity>
-7.12263

$$$$
2JH5_895_D_1249


 29 31  0  0  0  0  0  0  0  0999 V2000
    6.5480   17.2544   49.6715 C   0  0  0  0  0  0  0  0  0  0  0  0
    6.4305   16.7559   51.1242 C   0  0  0  0  0  0  0  0  0  0  0  0
    5.4759   17.7451   51.8095 C   0  0  0  0  0  0  0  0  0  0  0  0
    5.9271   18.6286   49.6439 C   0  0  0  0  0  0  0  0  0  0  0  0
    6.0876   19.4534   48.7536 O   0  0  0  0  0  0  0  0  0  0  0  0
    5.1743   18.7339   50.7690 N   0  0  0  0  0  0  0  0  0  0  0  0
    7.9067   17.1802   49.1831 N   0  0  0  0  0  0  0  0  0  0  0  0
    8.1438   16.1918   49.0980 H   0  0  0  0  0  0  0  0  0  0  0  0
    9.0810   17.8837   50.0634 S   0  0  0  0  0  0  0  0  0  0  0  0
    8.4276   18.3915   51.2319 O   0  0  0  0  0  0  0  0  0  0  0  0
   10.2299   17.0362   50.1646 O   0  0  0  0  0  0  0  0  0  0  0  0
    9.8642   20.4523   49.5513 C   0  0  0  0  0  0  0  0  0  0  0  0
    9.6053   19.2163   49.0753 C   0  0  0  0  0  0  0  0  0  0  0  0
    9.9950   25.1337   46.5517 Cl  0  0  0  0  0  0  0  0  0  0  0  0
   10.2226   23.5581   47.1920 C   0  0  0  0  0  0  0  0  0  0  0  0
   11.0792   22.5827   46.6637 C   0  0  0  0  0  0  0  0  0  0  0  0
   11.0280   21.4152   47.4474 C   0  0  0  0  0  0  0  0  0  0  0  0
   10.1522   21.5144   48.5409 C   0  0  0  0  0  0  0  0  0  0  0  0
    9.4240   23.0311   48.6087 S   0  0  0  0  0  0  0  0  0  0  0  0
    4.1342   19.7485   50.9463 C   0  0  0  0  0  0  0  0  0  0  0  0
    2.7644   19.1229   50.6402 C   0  0  0  0  0  0  0  0  0  0  0  0
    4.1535   20.3950   52.3372 C   0  0  0  0  0  0  0  0  0  0  0  0
    3.2165   20.1603   53.1060 O   0  0  0  0  0  0  0  0  0  0  0  0
    5.2403   21.2083   52.6455 N   0  0  0  0  0  0  0  0  0  0  0  0
    5.3668   21.7885   53.9876 C   0  0  0  0  0  0  0  0  0  0  0  0
    6.8005   21.7896   54.5300 C   0  0  0  0  0  0  0  0  0  0  0  0
    7.7512   22.2210   53.5562 O   0  0  0  0  0  0  0  0  0  0  0  0
    7.7099   21.4314   52.3694 C   0  0  0  0  0  0  0  0  0  0  0  0
    6.3262   21.6117   51.7220 C   0  0  0  0  0  0  0  0  0  0  0  0
 14 15  1  0  0  0
 15 16  2  0  0  0
 16 17  1  0  0  0
 17 18  2  0  0  0
 18 12  1  0  0  0
  9 10  2  0  0  0
  9 11  2  0  0  0
  9  7  1  0  0  0
  7  1  1  0  0  0
  1  2  1  0  0  0
  2  3  1  0  0  0
  1  4  1  0  0  0
  4  5  2  0  0  0
  3  6  1  0  0  0
  4  6  1  0  0  0
  6 20  1  0  0  0
 20 21  1  0  0  0
 20 22  1  0  0  0
 22 23  2  0  0  0
 22 24  1  0  0  0
 24 25  1  0  0  0
 25 26  1  0  0  0
 26 27  1  0  0  0
 27 28  1  0  0  0
 24 29  1  0  0  0
 28 29  1  0  0  0
 15 19  1  0  0  0
 18 19  1  0  0  0
 12 13  2  0  0  0
  9 13  1  0  0  0
  7  8  1  0  0  0
M  END
> <minimizedAffinity>
-7.12062

$$$$
2JH5_895_D_1249


 29 31  0  0  0  0  0  0  0  0999 V2000
    4.8804   19.2064   49.7308 C   0  0  0  0  0  0  0  0  0  0  0  0
    5.5593   18.0388   48.9901 C   0  0  0  0  0  0  0  0  0  0  0  0
    4.4900   17.5014   48.0273 C   0  0  0  0  0  0  0  0  0  0  0  0
    3.4104   19.1161   49.4061 C   0  0  0  0  0  0  0  0  0  0  0  0
    2.5186   19.6794   50.0274 O   0  0  0  0  0  0  0  0  0  0  0  0
    3.3057   18.3182   48.3124 N   0  0  0  0  0  0  0  0  0  0  0  0
    5.2029   19.2127   51.1401 N   0  0  0  0  0  0  0  0  0  0  0  0
    4.3266   19.1056   51.6511 H   0  0  0  0  0  0  0  0  0  0  0  0
    5.9610   20.5169   51.7508 S   0  0  0  0  0  0  0  0  0  0  0  0
    4.9444   21.5152   51.8938 O   0  0  0  0  0  0  0  0  0  0  0  0
    6.8074   20.1571   52.8474 O   0  0  0  0  0  0  0  0  0  0  0  0
    8.3945   21.0996   50.6499 C   0  0  0  0  0  0  0  0  0  0  0  0
    7.0588   20.9940   50.4881 C   0  0  0  0  0  0  0  0  0  0  0  0
   10.4777   24.3702   46.6631 Cl  0  0  0  0  0  0  0  0  0  0  0  0
   10.0950   23.0839   47.7324 C   0  0  0  0  0  0  0  0  0  0  0  0
   10.6889   21.8146   47.7211 C   0  0  0  0  0  0  0  0  0  0  0  0
   10.1458   21.0150   48.7436 C   0  0  0  0  0  0  0  0  0  0  0  0
    9.1663   21.6721   49.5060 C   0  0  0  0  0  0  0  0  0  0  0  0
    8.9390   23.2556   48.9801 S   0  0  0  0  0  0  0  0  0  0  0  0
    2.1108   18.2668   47.4684 C   0  0  0  0  0  0  0  0  0  0  0  0
    2.1611   19.4210   46.4550 C   0  0  0  0  0  0  0  0  0  0  0  0
    1.9268   16.9157   46.7657 C   0  0  0  0  0  0  0  0  0  0  0  0
    2.2481   16.8243   45.5772 O   0  0  0  0  0  0  0  0  0  0  0  0
    1.4087   15.8697   47.5242 N   0  0  0  0  0  0  0  0  0  0  0  0
    1.2876   14.5286   46.9407 C   0  0  0  0  0  0  0  0  0  0  0  0
    1.6551   13.3967   47.9068 C   0  0  0  0  0  0  0  0  0  0  0  0
    1.0882   13.5817   49.2040 O   0  0  0  0  0  0  0  0  0  0  0  0
    1.4658   14.8260   49.7896 C   0  0  0  0  0  0  0  0  0  0  0  0
    0.9027   15.9582   48.9137 C   0  0  0  0  0  0  0  0  0  0  0  0
 14 15  1  0  0  0
 15 16  2  0  0  0
 16 17  1  0  0  0
 17 18  2  0  0  0
 18 12  1  0  0  0
  9 10  2  0  0  0
  9 11  2  0  0  0
  9  7  1  0  0  0
  7  1  1  0  0  0
  1  2  1  0  0  0
  2  3  1  0  0  0
  1  4  1  0  0  0
  4  5  2  0  0  0
  3  6  1  0  0  0
  4  6  1  0  0  0
  6 20  1  0  0  0
 20 21  1  0  0  0
 20 22  1  0  0  0
 22 23  2  0  0  0
 22 24  1  0  0  0
 24 25  1  0  0  0
 25 26  1  0  0  0
 26 27  1  0  0  0
 27 28  1  0  0  0
 24 29  1  0  0  0
 28 29  1  0  0  0
 15 19  1  0  0  0
 18 19  1  0  0  0
 12 13  2  0  0  0
  9 13  1  0  0  0
  7  8  1  0  0  0
M  END
> <minimizedAffinity>
-6.99679

$$$$
2JH5_895_D_1249


 29 31  0  0  0  0  0  0  0  0999 V2000
    6.0273   19.8768   50.0048 C   0  0  0  0  0  0  0  0  0  0  0  0
    5.2293   21.1911   50.0959 C   0  0  0  0  0  0  0  0  0  0  0  0
    3.7589   20.7590   50.1987 C   0  0  0  0  0  0  0  0  0  0  0  0
    5.0167   18.7840   49.7613 C   0  0  0  0  0  0  0  0  0  0  0  0
    5.2818   17.6623   49.3485 O   0  0  0  0  0  0  0  0  0  0  0  0
    3.8059   19.2963   50.1007 N   0  0  0  0  0  0  0  0  0  0  0  0
    7.0948   19.9590   49.0334 N   0  0  0  0  0  0  0  0  0  0  0  0
    7.1738   19.0425   48.5928 H   0  0  0  0  0  0  0  0  0  0  0  0
    8.5800   20.3732   49.5545 S   0  0  0  0  0  0  0  0  0  0  0  0
    9.3219   20.6936   48.3724 O   0  0  0  0  0  0  0  0  0  0  0  0
    8.5065   21.2856   50.6547 O   0  0  0  0  0  0  0  0  0  0  0  0
    9.5208   17.8066   49.5247 C   0  0  0  0  0  0  0  0  0  0  0  0
    9.2076   18.9045   50.2444 C   0  0  0  0  0  0  0  0  0  0  0  0
   11.1703   14.1943   53.4184 Cl  0  0  0  0  0  0  0  0  0  0  0  0
   10.6323   14.9689   51.9849 C   0  0  0  0  0  0  0  0  0  0  0  0
   10.3146   14.3223   50.7827 C   0  0  0  0  0  0  0  0  0  0  0  0
    9.8956   15.2612   49.8221 C   0  0  0  0  0  0  0  0  0  0  0  0
    9.8981   16.5836   50.2953 C   0  0  0  0  0  0  0  0  0  0  0  0
   10.3887   16.6591   51.9043 S   0  0  0  0  0  0  0  0  0  0  0  0
    2.6271   18.4670   50.3564 C   0  0  0  0  0  0  0  0  0  0  0  0
    1.7333   19.1692   51.3906 C   0  0  0  0  0  0  0  0  0  0  0  0
    1.8432   18.1247   49.0831 C   0  0  0  0  0  0  0  0  0  0  0  0
    1.2382   19.0324   48.5051 O   0  0  0  0  0  0  0  0  0  0  0  0
    1.8703   16.7999   48.6564 N   0  0  0  0  0  0  0  0  0  0  0  0
    1.2149   16.4191   47.3998 C   0  0  0  0  0  0  0  0  0  0  0  0
    2.0050   15.3984   46.5730 C   0  0  0  0  0  0  0  0  0  0  0  0
    2.5220   14.3335   47.3712 O   0  0  0  0  0  0  0  0  0  0  0  0
    3.3495   14.8031   48.4335 C   0  0  0  0  0  0  0  0  0  0  0  0
    2.4826   15.6577   49.3740 C   0  0  0  0  0  0  0  0  0  0  0  0
 14 15  1  0  0  0
 15 16  2  0  0  0
 16 17  1  0  0  0
 17 18  2  0  0  0
 18 12  1  0  0  0
  9 10  2  0  0  0
  9 11  2  0  0  0
  9  7  1  0  0  0
  7  1  1  0  0  0
  1  2  1  0  0  0
  2  3  1  0  0  0
  1  4  1  0  0  0
  4  5  2  0  0  0
  3  6  1  0  0  0
  4  6  1  0  0  0
  6 20  1  0  0  0
 20 21  1  0  0  0
 20 22  1  0  0  0
 22 23  2  0  0  0
 22 24  1  0  0  0
 24 25  1  0  0  0
 25 26  1  0  0  0
 26 27  1  0  0  0
 27 28  1  0  0  0
 24 29  1  0  0  0
 28 29  1  0  0  0
 15 19  1  0  0  0
 18 19  1  0  0  0
 12 13  2  0  0  0
  9 13  1  0  0  0
  7  8  1  0  0  0
M  END
> <minimizedAffinity>
-6.91710

$$$$
2JH5_895_D_1249


 29 31  0  0  0  0  0  0  0  0999 V2000
    3.5882   19.0512   50.2678 C   0  0  0  0  0  0  0  0  0  0  0  0
    4.2891   17.7049   50.0055 C   0  0  0  0  0  0  0  0  0  0  0  0
    5.7757   17.9669   50.2891 C   0  0  0  0  0  0  0  0  0  0  0  0
    4.6830   20.0809   50.3936 C   0  0  0  0  0  0  0  0  0  0  0  0
    4.5202   21.2917   50.3142 O   0  0  0  0  0  0  0  0  0  0  0  0
    5.8331   19.3950   50.6185 N   0  0  0  0  0  0  0  0  0  0  0  0
    2.5806   19.3390   49.2718 N   0  0  0  0  0  0  0  0  0  0  0  0
    2.2014   20.2619   49.4834 H   0  0  0  0  0  0  0  0  0  0  0  0
    1.3196   18.3193   49.1352 S   0  0  0  0  0  0  0  0  0  0  0  0
    1.2065   17.6813   50.4121 O   0  0  0  0  0  0  0  0  0  0  0  0
    0.1965   18.9640   48.5256 O   0  0  0  0  0  0  0  0  0  0  0  0
    2.2864   17.4746   46.7217 C   0  0  0  0  0  0  0  0  0  0  0  0
    1.8481   17.1533   47.9570 C   0  0  0  0  0  0  0  0  0  0  0  0
    4.6106   13.4650   43.6473 Cl  0  0  0  0  0  0  0  0  0  0  0  0
    3.5473   14.5740   44.4114 C   0  0  0  0  0  0  0  0  0  0  0  0
    2.1607   14.6349   44.2170 C   0  0  0  0  0  0  0  0  0  0  0  0
    1.6029   15.6530   45.0121 C   0  0  0  0  0  0  0  0  0  0  0  0
    2.5518   16.3397   45.7870 C   0  0  0  0  0  0  0  0  0  0  0  0
    4.1003   15.7216   45.5515 S   0  0  0  0  0  0  0  0  0  0  0  0
    7.0465   20.0163   51.1518 C   0  0  0  0  0  0  0  0  0  0  0  0
    7.2924   19.4968   52.5770 C   0  0  0  0  0  0  0  0  0  0  0  0
    8.2759   19.8009   50.2601 C   0  0  0  0  0  0  0  0  0  0  0  0
    8.5503   18.6500   49.9076 O   0  0  0  0  0  0  0  0  0  0  0  0
    9.0058   20.9301   49.8996 N   0  0  0  0  0  0  0  0  0  0  0  0
   10.1417   20.8077   48.9785 C   0  0  0  0  0  0  0  0  0  0  0  0
   10.2389   21.9483   47.9590 C   0  0  0  0  0  0  0  0  0  0  0  0
   10.0351   23.2300   48.5540 O   0  0  0  0  0  0  0  0  0  0  0  0
    8.7822   23.3228   49.2288 C   0  0  0  0  0  0  0  0  0  0  0  0
    8.7863   22.3114   50.3879 C   0  0  0  0  0  0  0  0  0  0  0  0
 14 15  1  0  0  0
 15 16  2  0  0  0
 16 17  1  0  0  0
 17 18  2  0  0  0
 18 12  1  0  0  0
  9 10  2  0  0  0
  9 11  2  0  0  0
  9  7  1  0  0  0
  7  1  1  0  0  0
  1  2  1  0  0  0
  2  3  1  0  0  0
  1  4  1  0  0  0
  4  5  2  0  0  0
  3  6  1  0  0  0
  4  6  1  0  0  0
  6 20  1  0  0  0
 20 21  1  0  0  0
 20 22  1  0  0  0
 22 23  2  0  0  0
 22 24  1  0  0  0
 24 25  1  0  0  0
 25 26  1  0  0  0
 26 27  1  0  0  0
 27 28  1  0  0  0
 24 29  1  0  0  0
 28 29  1  0  0  0
 15 19  1  0  0  0
 18 19  1  0  0  0
 12 13  2  0  0  0
  9 13  1  0  0  0
  7  8  1  0  0  0
M  END
> <minimizedAffinity>
-6.64037

$$$$
