6GF9_X90_A_201


 20 19  0  0  0  0  0  0  0  0999 V2000
   13.9071   -3.7346   55.3170 C   0  0  0  0  0  0  0  0  0  0  0  0
   13.5950   -5.0496   56.0077 C   0  0  0  0  0  0  0  0  0  0  0  0
   14.6949   -6.0677   55.7550 C   0  0  0  0  0  0  0  0  0  0  0  0
   15.6733   -5.5551   54.7066 C   0  0  0  0  0  0  0  0  0  0  0  0
   17.1173   -5.6725   55.1875 C   0  0  0  0  0  0  0  0  0  0  0  0
   18.0324   -4.6221   54.5596 C   0  0  0  0  0  0  0  0  0  0  0  0
   18.6863   -5.7931   52.6068 O   0  0  0  0  0  0  0  0  0  0  0  0
   18.1436   -4.7555   53.0547 C   0  0  0  0  0  0  0  0  0  0  0  0
   17.7025   -3.8527   52.3061 O   0  0  0  0  0  0  0  0  0  0  0  0
   19.0047   -6.4474   53.1971 H   0  0  0  0  0  0  0  0  0  0  0  0
   12.9011   -2.6782   55.7229 C   0  0  0  0  0  0  0  0  0  0  0  0
   12.1458   -3.1174   56.9702 C   0  0  0  0  0  0  0  0  0  0  0  0
   10.6387   -3.0124   56.7930 C   0  0  0  0  0  0  0  0  0  0  0  0
   10.3163   -2.5418   55.3963 C   0  0  0  0  0  0  0  0  0  0  0  0
    8.8618   -2.1941   55.1823 C   0  0  0  0  0  0  0  0  0  0  0  0
    8.6987   -0.7840   55.6796 C   0  0  0  0  0  0  0  0  0  0  0  0
    7.7461   -0.7441   56.8450 C   0  0  0  0  0  0  0  0  0  0  0  0
    7.1089   -2.1091   57.0423 C   0  0  0  0  0  0  0  0  0  0  0  0
    5.6404   -2.1059   57.4426 C   0  0  0  0  0  0  0  0  0  0  0  0
    4.8679   -3.2882   56.8986 C   0  0  0  0  0  0  0  0  0  0  0  0
  8  7  1  0  0  0
  6  8  1  0  0  0
  8  9  2  0  0  0
  5  6  1  0  0  0
  4  5  1  0  0  0
  3  4  1  0  0  0
  2  3  1  0  0  0
  1  2  1  0  0  0
 11  1  1  0  0  0
 12 11  1  0  0  0
 13 12  1  0  0  0
 15 14  1  0  0  0
 14 13  1  0  0  0
 16 15  1  0  0  0
 17 16  1  0  0  0
 18 17  1  0  0  0
 19 18  1  0  0  0
 20 19  1  0  0  0
  7 10  1  0  0  0
M  END
> <minimizedAffinity>
-6.53120

$$$$
6GF9_X90_A_201


 20 19  0  0  0  0  0  0  0  0999 V2000
   10.2451   -3.0087   54.6703 C   0  0  0  0  0  0  0  0  0  0  0  0
    9.2602   -1.9634   55.1609 C   0  0  0  0  0  0  0  0  0  0  0  0
    8.9266   -2.1807   56.6278 C   0  0  0  0  0  0  0  0  0  0  0  0
    7.4236   -2.3304   56.8222 C   0  0  0  0  0  0  0  0  0  0  0  0
    6.6874   -1.0345   56.4922 C   0  0  0  0  0  0  0  0  0  0  0  0
    7.1170    0.1285   57.3854 C   0  0  0  0  0  0  0  0  0  0  0  0
    7.5537    1.3654   55.4128 O   0  0  0  0  0  0  0  0  0  0  0  0
    7.2635    1.4337   56.6306 C   0  0  0  0  0  0  0  0  0  0  0  0
    7.0954    2.5266   57.2198 O   0  0  0  0  0  0  0  0  0  0  0  0
    7.6719    0.5299   55.0054 H   0  0  0  0  0  0  0  0  0  0  0  0
   11.2556   -3.3250   55.7527 C   0  0  0  0  0  0  0  0  0  0  0  0
   12.5604   -2.5842   55.4920 C   0  0  0  0  0  0  0  0  0  0  0  0
   13.7588   -3.5210   55.4860 C   0  0  0  0  0  0  0  0  0  0  0  0
   13.3547   -4.8770   56.0096 C   0  0  0  0  0  0  0  0  0  0  0  0
   14.3757   -5.9630   55.7641 C   0  0  0  0  0  0  0  0  0  0  0  0
   15.3560   -5.3902   54.7777 C   0  0  0  0  0  0  0  0  0  0  0  0
   16.7607   -5.7983   55.1347 C   0  0  0  0  0  0  0  0  0  0  0  0
   17.7488   -4.7666   54.6176 C   0  0  0  0  0  0  0  0  0  0  0  0
   18.1039   -4.8673   53.1409 C   0  0  0  0  0  0  0  0  0  0  0  0
   18.8719   -6.1242   52.7930 C   0  0  0  0  0  0  0  0  0  0  0  0
  8  7  1  0  0  0
  6  8  1  0  0  0
  8  9  2  0  0  0
  5  6  1  0  0  0
  4  5  1  0  0  0
  3  4  1  0  0  0
  2  3  1  0  0  0
  1  2  1  0  0  0
 11  1  1  0  0  0
 12 11  1  0  0  0
 13 12  1  0  0  0
 15 14  1  0  0  0
 14 13  1  0  0  0
 16 15  1  0  0  0
 17 16  1  0  0  0
 18 17  1  0  0  0
 19 18  1  0  0  0
 20 19  1  0  0  0
  7 10  1  0  0  0
M  END
> <minimizedAffinity>
-6.51662

$$$$
6GF9_X90_A_201


 20 19  0  0  0  0  0  0  0  0999 V2000
   12.4982   -2.6417   55.4108 C   0  0  0  0  0  0  0  0  0  0  0  0
   13.7854   -3.4449   55.3715 C   0  0  0  0  0  0  0  0  0  0  0  0
   13.5427   -4.8779   55.8161 C   0  0  0  0  0  0  0  0  0  0  0  0
   14.7637   -5.7435   55.5349 C   0  0  0  0  0  0  0  0  0  0  0  0
   15.9314   -4.9081   55.0165 C   0  0  0  0  0  0  0  0  0  0  0  0
   17.2105   -5.7271   54.8492 C   0  0  0  0  0  0  0  0  0  0  0  0
   18.8088   -6.2221   53.1722 O   0  0  0  0  0  0  0  0  0  0  0  0
   17.9743   -5.3834   53.5870 C   0  0  0  0  0  0  0  0  0  0  0  0
   17.7633   -4.2986   52.9964 O   0  0  0  0  0  0  0  0  0  0  0  0
   18.9401   -7.0232   53.6401 H   0  0  0  0  0  0  0  0  0  0  0  0
   11.3066   -3.5678   55.5344 C   0  0  0  0  0  0  0  0  0  0  0  0
   10.0798   -2.9421   54.8844 C   0  0  0  0  0  0  0  0  0  0  0  0
    9.5930   -1.7165   55.6426 C   0  0  0  0  0  0  0  0  0  0  0  0
    8.3905   -1.1261   54.9487 C   0  0  0  0  0  0  0  0  0  0  0  0
    7.2569   -0.7637   55.8791 C   0  0  0  0  0  0  0  0  0  0  0  0
    7.3140   -1.7602   57.0043 C   0  0  0  0  0  0  0  0  0  0  0  0
    6.2293   -2.7928   56.8481 C   0  0  0  0  0  0  0  0  0  0  0  0
    5.1329   -2.5536   57.8721 C   0  0  0  0  0  0  0  0  0  0  0  0
    3.7251   -2.3967   57.3150 C   0  0  0  0  0  0  0  0  0  0  0  0
    3.6337   -1.3863   56.1919 C   0  0  0  0  0  0  0  0  0  0  0  0
  8  7  1  0  0  0
  6  8  1  0  0  0
  8  9  2  0  0  0
  5  6  1  0  0  0
  4  5  1  0  0  0
  3  4  1  0  0  0
  2  3  1  0  0  0
  1  2  1  0  0  0
 11  1  1  0  0  0
 12 11  1  0  0  0
 13 12  1  0  0  0
 15 14  1  0  0  0
 14 13  1  0  0  0
 16 15  1  0  0  0
 17 16  1  0  0  0
 18 17  1  0  0  0
 19 18  1  0  0  0
 20 19  1  0  0  0
  7 10  1  0  0  0
M  END
> <minimizedAffinity>
-6.44041

$$$$
6GF9_X90_A_201


 20 19  0  0  0  0  0  0  0  0999 V2000
    9.8856   -2.9156   55.0970 C   0  0  0  0  0  0  0  0  0  0  0  0
    9.6997   -1.7433   56.0428 C   0  0  0  0  0  0  0  0  0  0  0  0
    8.8906   -2.1548   57.2620 C   0  0  0  0  0  0  0  0  0  0  0  0
    8.0009   -1.0107   57.7296 C   0  0  0  0  0  0  0  0  0  0  0  0
    6.6062   -1.1029   57.1159 C   0  0  0  0  0  0  0  0  0  0  0  0
    6.1791   -2.5445   56.8432 C   0  0  0  0  0  0  0  0  0  0  0  0
    4.4975   -3.6629   58.0816 O   0  0  0  0  0  0  0  0  0  0  0  0
    4.7291   -2.8099   57.1924 C   0  0  0  0  0  0  0  0  0  0  0  0
    3.8136   -2.1889   56.6040 O   0  0  0  0  0  0  0  0  0  0  0  0
    5.2079   -4.1079   58.5003 H   0  0  0  0  0  0  0  0  0  0  0  0
   11.1851   -3.6316   55.3994 C   0  0  0  0  0  0  0  0  0  0  0  0
   12.3244   -2.6293   55.5287 C   0  0  0  0  0  0  0  0  0  0  0  0
   13.6869   -3.3049   55.4978 C   0  0  0  0  0  0  0  0  0  0  0  0
   13.5505   -4.7565   55.8857 C   0  0  0  0  0  0  0  0  0  0  0  0
   14.3999   -5.6976   55.0640 C   0  0  0  0  0  0  0  0  0  0  0  0
   15.5082   -6.1515   55.9738 C   0  0  0  0  0  0  0  0  0  0  0  0
   16.8265   -6.1335   55.2465 C   0  0  0  0  0  0  0  0  0  0  0  0
   17.1165   -4.7341   54.7310 C   0  0  0  0  0  0  0  0  0  0  0  0
   17.8464   -4.6544   53.3977 C   0  0  0  0  0  0  0  0  0  0  0  0
   18.6127   -5.9143   53.0571 C   0  0  0  0  0  0  0  0  0  0  0  0
  8  7  1  0  0  0
  6  8  1  0  0  0
  8  9  2  0  0  0
  5  6  1  0  0  0
  4  5  1  0  0  0
  3  4  1  0  0  0
  2  3  1  0  0  0
  1  2  1  0  0  0
 11  1  1  0  0  0
 12 11  1  0  0  0
 13 12  1  0  0  0
 15 14  1  0  0  0
 14 13  1  0  0  0
 16 15  1  0  0  0
 17 16  1  0  0  0
 18 17  1  0  0  0
 19 18  1  0  0  0
 20 19  1  0  0  0
  7 10  1  0  0  0
M  END
> <minimizedAffinity>
-6.40347

$$$$
6GF9_X90_A_201


 20 19  0  0  0  0  0  0  0  0999 V2000
   12.4628   -2.6928   55.9614 C   0  0  0  0  0  0  0  0  0  0  0  0
   13.6160   -3.5482   55.4697 C   0  0  0  0  0  0  0  0  0  0  0  0
   13.4332   -4.9970   55.8916 C   0  0  0  0  0  0  0  0  0  0  0  0
   14.7535   -5.7519   55.8128 C   0  0  0  0  0  0  0  0  0  0  0  0
   15.8179   -4.9378   55.0816 C   0  0  0  0  0  0  0  0  0  0  0  0
   17.1172   -5.7165   54.8806 C   0  0  0  0  0  0  0  0  0  0  0  0
   18.7345   -6.0979   53.1921 O   0  0  0  0  0  0  0  0  0  0  0  0
   17.8685   -5.3047   53.6313 C   0  0  0  0  0  0  0  0  0  0  0  0
   17.6171   -4.2107   53.0745 O   0  0  0  0  0  0  0  0  0  0  0  0
   18.8957   -6.9077   53.6350 H   0  0  0  0  0  0  0  0  0  0  0  0
   11.1836   -3.5025   55.9867 C   0  0  0  0  0  0  0  0  0  0  0  0
   10.2726   -3.0897   54.8383 C   0  0  0  0  0  0  0  0  0  0  0  0
    9.3742   -1.9207   55.2127 C   0  0  0  0  0  0  0  0  0  0  0  0
    8.8601   -2.0967   56.6201 C   0  0  0  0  0  0  0  0  0  0  0  0
    7.3911   -2.4390   56.7027 C   0  0  0  0  0  0  0  0  0  0  0  0
    6.7595   -1.3455   57.5197 C   0  0  0  0  0  0  0  0  0  0  0  0
    5.4550   -0.9149   56.9032 C   0  0  0  0  0  0  0  0  0  0  0  0
    5.5453    0.5340   56.4553 C   0  0  0  0  0  0  0  0  0  0  0  0
    6.9104    1.1913   56.6008 C   0  0  0  0  0  0  0  0  0  0  0  0
    7.5651    1.5140   55.2749 C   0  0  0  0  0  0  0  0  0  0  0  0
  8  7  1  0  0  0
  6  8  1  0  0  0
  8  9  2  0  0  0
  5  6  1  0  0  0
  4  5  1  0  0  0
  3  4  1  0  0  0
  2  3  1  0  0  0
  1  2  1  0  0  0
 11  1  1  0  0  0
 12 11  1  0  0  0
 13 12  1  0  0  0
 15 14  1  0  0  0
 14 13  1  0  0  0
 16 15  1  0  0  0
 17 16  1  0  0  0
 18 17  1  0  0  0
 19 18  1  0  0  0
 20 19  1  0  0  0
  7 10  1  0  0  0
M  END
> <minimizedAffinity>
-6.20604

$$$$
6GF9_X90_A_201


 20 19  0  0  0  0  0  0  0  0999 V2000
   10.5628   -3.5428   55.1697 C   0  0  0  0  0  0  0  0  0  0  0  0
    9.7370   -2.4361   54.5399 C   0  0  0  0  0  0  0  0  0  0  0  0
    9.3675   -1.3828   55.5716 C   0  0  0  0  0  0  0  0  0  0  0  0
    7.9997   -0.7866   55.2669 C   0  0  0  0  0  0  0  0  0  0  0  0
    6.9696   -1.1889   56.3192 C   0  0  0  0  0  0  0  0  0  0  0  0
    7.0732   -0.3507   57.5926 C   0  0  0  0  0  0  0  0  0  0  0  0
    5.4413    0.8497   58.8207 O   0  0  0  0  0  0  0  0  0  0  0  0
    5.7676   -0.2683   58.3566 C   0  0  0  0  0  0  0  0  0  0  0  0
    5.0571   -1.2896   58.5053 O   0  0  0  0  0  0  0  0  0  0  0  0
    5.9980    1.5920   58.6897 H   0  0  0  0  0  0  0  0  0  0  0  0
   10.9556   -3.1642   56.5822 C   0  0  0  0  0  0  0  0  0  0  0  0
   12.3951   -3.5760   56.8601 C   0  0  0  0  0  0  0  0  0  0  0  0
   12.6962   -4.9792   56.3562 C   0  0  0  0  0  0  0  0  0  0  0  0
   14.0620   -5.0142   55.7161 C   0  0  0  0  0  0  0  0  0  0  0  0
   14.8250   -6.2951   55.9589 C   0  0  0  0  0  0  0  0  0  0  0  0
   16.2220   -6.0419   55.4624 C   0  0  0  0  0  0  0  0  0  0  0  0
   16.3160   -4.6795   54.8282 C   0  0  0  0  0  0  0  0  0  0  0  0
   17.7480   -4.4015   54.4038 C   0  0  0  0  0  0  0  0  0  0  0  0
   18.0979   -4.7624   52.9671 C   0  0  0  0  0  0  0  0  0  0  0  0
   18.8206   -6.0861   52.8401 C   0  0  0  0  0  0  0  0  0  0  0  0
  8  7  1  0  0  0
  6  8  1  0  0  0
  8  9  2  0  0  0
  5  6  1  0  0  0
  4  5  1  0  0  0
  3  4  1  0  0  0
  2  3  1  0  0  0
  1  2  1  0  0  0
 11  1  1  0  0  0
 12 11  1  0  0  0
 13 12  1  0  0  0
 15 14  1  0  0  0
 14 13  1  0  0  0
 16 15  1  0  0  0
 17 16  1  0  0  0
 18 17  1  0  0  0
 19 18  1  0  0  0
 20 19  1  0  0  0
  7 10  1  0  0  0
M  END
> <minimizedAffinity>
-6.13994

$$$$
6GF9_X90_A_201


 20 19  0  0  0  0  0  0  0  0999 V2000
    9.0707   -2.2477   55.1681 C   0  0  0  0  0  0  0  0  0  0  0  0
    8.1886   -2.2373   56.4031 C   0  0  0  0  0  0  0  0  0  0  0  0
    7.3800   -0.9526   56.4796 C   0  0  0  0  0  0  0  0  0  0  0  0
    7.3653   -0.2441   55.1317 C   0  0  0  0  0  0  0  0  0  0  0  0
    7.4852    1.2688   55.2962 C   0  0  0  0  0  0  0  0  0  0  0  0
    7.4318    1.7062   56.7593 C   0  0  0  0  0  0  0  0  0  0  0  0
    6.2639    3.2062   58.1730 O   0  0  0  0  0  0  0  0  0  0  0  0
    6.2666    2.6259   57.0616 C   0  0  0  0  0  0  0  0  0  0  0  0
    5.3534    2.7865   56.2188 O   0  0  0  0  0  0  0  0  0  0  0  0
    6.9642    3.0618   58.7785 H   0  0  0  0  0  0  0  0  0  0  0  0
   10.4038   -2.8936   55.4820 C   0  0  0  0  0  0  0  0  0  0  0  0
   10.6878   -2.8229   56.9765 C   0  0  0  0  0  0  0  0  0  0  0  0
   11.7809   -3.7933   57.3976 C   0  0  0  0  0  0  0  0  0  0  0  0
   11.9450   -4.8688   56.3523 C   0  0  0  0  0  0  0  0  0  0  0  0
   13.3826   -5.2108   56.0387 C   0  0  0  0  0  0  0  0  0  0  0  0
   14.0013   -3.9443   55.5139 C   0  0  0  0  0  0  0  0  0  0  0  0
   15.3633   -4.2243   54.9363 C   0  0  0  0  0  0  0  0  0  0  0  0
   15.8161   -5.6210   55.3266 C   0  0  0  0  0  0  0  0  0  0  0  0
   17.2774   -5.9473   55.0529 C   0  0  0  0  0  0  0  0  0  0  0  0
   17.9645   -4.9277   54.1703 C   0  0  0  0  0  0  0  0  0  0  0  0
  8  7  1  0  0  0
  6  8  1  0  0  0
  8  9  2  0  0  0
  5  6  1  0  0  0
  4  5  1  0  0  0
  3  4  1  0  0  0
  2  3  1  0  0  0
  1  2  1  0  0  0
 11  1  1  0  0  0
 12 11  1  0  0  0
 13 12  1  0  0  0
 15 14  1  0  0  0
 14 13  1  0  0  0
 16 15  1  0  0  0
 17 16  1  0  0  0
 18 17  1  0  0  0
 19 18  1  0  0  0
 20 19  1  0  0  0
  7 10  1  0  0  0
M  END
> <minimizedAffinity>
-6.11451

$$$$
6GF9_X90_A_201


 20 19  0  0  0  0  0  0  0  0999 V2000
   13.0273   -4.7648   56.1934 C   0  0  0  0  0  0  0  0  0  0  0  0
   13.8660   -5.9592   55.7768 C   0  0  0  0  0  0  0  0  0  0  0  0
   15.1345   -5.5095   55.0705 C   0  0  0  0  0  0  0  0  0  0  0  0
   16.3309   -6.3271   55.5391 C   0  0  0  0  0  0  0  0  0  0  0  0
   17.6458   -5.7092   55.0705 C   0  0  0  0  0  0  0  0  0  0  0  0
   17.4358   -4.4588   54.2177 C   0  0  0  0  0  0  0  0  0  0  0  0
   17.8299   -3.6334   52.0324 O   0  0  0  0  0  0  0  0  0  0  0  0
   18.0254   -4.5826   52.8277 C   0  0  0  0  0  0  0  0  0  0  0  0
   18.6802   -5.6018   52.5077 O   0  0  0  0  0  0  0  0  0  0  0  0
   17.3349   -2.8866   52.3068 H   0  0  0  0  0  0  0  0  0  0  0  0
   13.4085   -3.5473   55.3780 C   0  0  0  0  0  0  0  0  0  0  0  0
   12.9888   -2.2737   56.0999 C   0  0  0  0  0  0  0  0  0  0  0  0
   11.7813   -1.6178   55.4477 C   0  0  0  0  0  0  0  0  0  0  0  0
   10.5123   -2.1230   56.0886 C   0  0  0  0  0  0  0  0  0  0  0  0
    9.4612   -2.5769   55.1032 C   0  0  0  0  0  0  0  0  0  0  0  0
    8.2080   -1.8277   55.4647 C   0  0  0  0  0  0  0  0  0  0  0  0
    8.3269   -0.3805   55.0664 C   0  0  0  0  0  0  0  0  0  0  0  0
    7.0475    0.3610   55.4149 C   0  0  0  0  0  0  0  0  0  0  0  0
    7.0335    1.8493   55.0959 C   0  0  0  0  0  0  0  0  0  0  0  0
    6.5356    2.7036   56.2417 C   0  0  0  0  0  0  0  0  0  0  0  0
  8  7  1  0  0  0
  6  8  1  0  0  0
  8  9  2  0  0  0
  5  6  1  0  0  0
  4  5  1  0  0  0
  3  4  1  0  0  0
  2  3  1  0  0  0
  1  2  1  0  0  0
 11  1  1  0  0  0
 12 11  1  0  0  0
 13 12  1  0  0  0
 15 14  1  0  0  0
 14 13  1  0  0  0
 16 15  1  0  0  0
 17 16  1  0  0  0
 18 17  1  0  0  0
 19 18  1  0  0  0
 20 19  1  0  0  0
  7 10  1  0  0  0
M  END
> <minimizedAffinity>
-5.83171

$$$$
6GF9_X90_A_201


 20 19  0  0  0  0  0  0  0  0999 V2000
    8.1363   -0.4718   55.9322 C   0  0  0  0  0  0  0  0  0  0  0  0
    8.2889    1.0382   55.9275 C   0  0  0  0  0  0  0  0  0  0  0  0
    7.1168    1.6982   55.2197 C   0  0  0  0  0  0  0  0  0  0  0  0
    6.5521    2.8365   56.0592 C   0  0  0  0  0  0  0  0  0  0  0  0
    6.5309    2.4773   57.5427 C   0  0  0  0  0  0  0  0  0  0  0  0
    5.1966    1.8759   57.9820 C   0  0  0  0  0  0  0  0  0  0  0  0
    5.9962   -0.1072   59.0017 O   0  0  0  0  0  0  0  0  0  0  0  0
    5.2421    0.3680   58.1201 C   0  0  0  0  0  0  0  0  0  0  0  0
    4.5441   -0.3562   57.3728 O   0  0  0  0  0  0  0  0  0  0  0  0
    6.5038    0.4654   59.5424 H   0  0  0  0  0  0  0  0  0  0  0  0
    9.4798   -1.1348   55.7125 C   0  0  0  0  0  0  0  0  0  0  0  0
    9.3052   -2.4516   54.9678 C   0  0  0  0  0  0  0  0  0  0  0  0
   10.5914   -3.2629   54.9311 C   0  0  0  0  0  0  0  0  0  0  0  0
   11.6192   -2.6398   55.8430 C   0  0  0  0  0  0  0  0  0  0  0  0
   13.0002   -3.2391   55.7176 C   0  0  0  0  0  0  0  0  0  0  0  0
   12.8714   -4.6671   56.1717 C   0  0  0  0  0  0  0  0  0  0  0  0
   14.1231   -5.4378   55.8456 C   0  0  0  0  0  0  0  0  0  0  0  0
   15.1357   -4.5247   55.1755 C   0  0  0  0  0  0  0  0  0  0  0  0
   16.1485   -5.2076   54.2674 C   0  0  0  0  0  0  0  0  0  0  0  0
   17.5767   -5.0643   54.7471 C   0  0  0  0  0  0  0  0  0  0  0  0
  8  7  1  0  0  0
  6  8  1  0  0  0
  8  9  2  0  0  0
  5  6  1  0  0  0
  4  5  1  0  0  0
  3  4  1  0  0  0
  2  3  1  0  0  0
  1  2  1  0  0  0
 11  1  1  0  0  0
 12 11  1  0  0  0
 13 12  1  0  0  0
 15 14  1  0  0  0
 14 13  1  0  0  0
 16 15  1  0  0  0
 17 16  1  0  0  0
 18 17  1  0  0  0
 19 18  1  0  0  0
 20 19  1  0  0  0
  7 10  1  0  0  0
M  END
> <minimizedAffinity>
-5.65372

$$$$
6GF9_X90_A_201


 20 19  0  0  0  0  0  0  0  0999 V2000
    7.9253   -1.0018   56.7856 C   0  0  0  0  0  0  0  0  0  0  0  0
    6.4512   -1.3183   56.9599 C   0  0  0  0  0  0  0  0  0  0  0  0
    6.2276   -2.8187   57.0553 C   0  0  0  0  0  0  0  0  0  0  0  0
    4.7580   -3.1297   57.3058 C   0  0  0  0  0  0  0  0  0  0  0  0
    3.8517   -2.0570   56.7072 C   0  0  0  0  0  0  0  0  0  0  0  0
    2.6805   -1.7008   57.6217 C   0  0  0  0  0  0  0  0  0  0  0  0
    1.4113   -1.6196   55.6231 O   0  0  0  0  0  0  0  0  0  0  0  0
    1.3772   -1.5158   56.8720 C   0  0  0  0  0  0  0  0  0  0  0  0
    0.3187   -1.2707   57.4960 O   0  0  0  0  0  0  0  0  0  0  0  0
    2.2217   -1.8038   55.1902 H   0  0  0  0  0  0  0  0  0  0  0  0
    8.7413   -2.2770   56.8114 C   0  0  0  0  0  0  0  0  0  0  0  0
    9.4442   -2.4832   55.4763 C   0  0  0  0  0  0  0  0  0  0  0  0
   10.8830   -2.9441   55.6524 C   0  0  0  0  0  0  0  0  0  0  0  0
   11.0767   -3.5088   57.0379 C   0  0  0  0  0  0  0  0  0  0  0  0
   12.2037   -4.5090   57.1451 C   0  0  0  0  0  0  0  0  0  0  0  0
   12.8473   -4.5503   55.7864 C   0  0  0  0  0  0  0  0  0  0  0  0
   14.1691   -5.2685   55.8520 C   0  0  0  0  0  0  0  0  0  0  0  0
   15.2560   -4.4152   55.2208 C   0  0  0  0  0  0  0  0  0  0  0  0
   16.0582   -5.0756   54.1085 C   0  0  0  0  0  0  0  0  0  0  0  0
   17.4310   -5.5346   54.5503 C   0  0  0  0  0  0  0  0  0  0  0  0
  8  7  1  0  0  0
  6  8  1  0  0  0
  8  9  2  0  0  0
  5  6  1  0  0  0
  4  5  1  0  0  0
  3  4  1  0  0  0
  2  3  1  0  0  0
  1  2  1  0  0  0
 11  1  1  0  0  0
 12 11  1  0  0  0
 13 12  1  0  0  0
 15 14  1  0  0  0
 14 13  1  0  0  0
 16 15  1  0  0  0
 17 16  1  0  0  0
 18 17  1  0  0  0
 19 18  1  0  0  0
 20 19  1  0  0  0
  7 10  1  0  0  0
M  END
> <minimizedAffinity>
-5.65109

$$$$
