5FLS_6ZX_A_1263


 14 14  0  0  0  0  0  0  0  0999 V2000
   -4.4650    1.6276   15.1397 C   0  0  0  0  0  0  0  0  0  0  0  0
   -5.7013    3.6256   14.7455 C   0  0  0  0  0  0  0  0  0  0  0  0
   -4.9551    1.5777   16.4305 C   0  0  0  0  0  0  0  0  0  0  0  0
   -6.2084    3.5866   16.0343 C   0  0  0  0  0  0  0  0  0  0  0  0
   -4.8366    2.6477   14.2863 C   0  0  0  0  0  0  0  0  0  0  0  0
   -5.8194    2.5575   16.8614 C   0  0  0  0  0  0  0  0  0  0  0  0
   -6.4043    2.4643   18.4738 Cl  0  0  0  0  0  0  0  0  0  0  0  0
   -4.2634    1.4857   12.2676 C   0  0  0  0  0  0  0  0  0  0  0  0
   -4.2670    2.6689   12.9152 C   0  0  0  0  0  0  0  0  0  0  0  0
   -3.8299    3.9770   12.3582 C   0  0  0  0  0  0  0  0  0  0  0  0
   -3.7684    1.2596   10.8465 C   0  0  0  0  0  0  0  0  0  0  0  0
   -2.5683    0.8827   10.6607 O   0  0  0  0  0  0  0  0  0  0  0  0
   -4.6677    1.4343    9.9605 O   0  0  0  0  0  0  0  0  0  0  0  0
   -5.5251    1.7161   10.2124 H   0  0  0  0  0  0  0  0  0  0  0  0
  1  3  1  0  0  0
  1  5  2  0  0  0
  2  4  2  0  0  0
  2  5  1  0  0  0
  3  6  2  0  0  0
  4  6  1  0  0  0
  5  9  1  0  0  0
  6  7  1  0  0  0
  8  9  2  0  0  0
  8 11  1  0  0  0
  9 10  1  0  0  0
 11 12  2  0  0  0
 11 13  1  0  0  0
 13 14  1  0  0  0
M  END
> <minimizedAffinity>
-6.46800

$$$$
5FLS_6ZX_A_1263


 14 14  0  0  0  0  0  0  0  0999 V2000
   -3.0952    4.1287   14.8642 C   0  0  0  0  0  0  0  0  0  0  0  0
   -5.2798    5.0684   15.0088 C   0  0  0  0  0  0  0  0  0  0  0  0
   -2.5961    5.3496   14.4528 C   0  0  0  0  0  0  0  0  0  0  0  0
   -4.7947    6.3018   14.6050 C   0  0  0  0  0  0  0  0  0  0  0  0
   -4.4381    3.9790   15.1494 C   0  0  0  0  0  0  0  0  0  0  0  0
   -3.4517    6.4197   14.3278 C   0  0  0  0  0  0  0  0  0  0  0  0
   -2.7954    7.9202   13.8098 Cl  0  0  0  0  0  0  0  0  0  0  0  0
   -5.7482    2.6322   16.6405 C   0  0  0  0  0  0  0  0  0  0  0  0
   -4.9299    2.6421   15.5682 C   0  0  0  0  0  0  0  0  0  0  0  0
   -4.5485    1.4649   14.7430 C   0  0  0  0  0  0  0  0  0  0  0  0
   -6.4072    1.3964   17.2356 C   0  0  0  0  0  0  0  0  0  0  0  0
   -5.6973    0.5705   17.8920 O   0  0  0  0  0  0  0  0  0  0  0  0
   -7.6661    1.3481   17.0427 O   0  0  0  0  0  0  0  0  0  0  0  0
   -8.0888    2.0156   16.5390 H   0  0  0  0  0  0  0  0  0  0  0  0
  1  3  1  0  0  0
  1  5  2  0  0  0
  2  4  2  0  0  0
  2  5  1  0  0  0
  3  6  2  0  0  0
  4  6  1  0  0  0
  5  9  1  0  0  0
  6  7  1  0  0  0
  8  9  2  0  0  0
  8 11  1  0  0  0
  9 10  1  0  0  0
 11 12  2  0  0  0
 11 13  1  0  0  0
 13 14  1  0  0  0
M  END
> <minimizedAffinity>
-6.23258

$$$$
5FLS_6ZX_A_1263


 14 14  0  0  0  0  0  0  0  0999 V2000
   -4.6387    1.3063   15.1776 C   0  0  0  0  0  0  0  0  0  0  0  0
   -5.5930    3.4255   14.6536 C   0  0  0  0  0  0  0  0  0  0  0  0
   -5.1073    1.4144   16.4728 C   0  0  0  0  0  0  0  0  0  0  0  0
   -6.0769    3.5465   15.9461 C   0  0  0  0  0  0  0  0  0  0  0  0
   -4.8808    2.3071   14.2574 C   0  0  0  0  0  0  0  0  0  0  0  0
   -5.8194    2.5326   16.8406 C   0  0  0  0  0  0  0  0  0  0  0  0
   -6.3821    2.6333   18.4605 Cl  0  0  0  0  0  0  0  0  0  0  0  0
   -3.7159    3.2389   12.3789 C   0  0  0  0  0  0  0  0  0  0  0  0
   -4.3389    2.1541   12.8835 C   0  0  0  0  0  0  0  0  0  0  0  0
   -4.4596    0.8251   12.2265 C   0  0  0  0  0  0  0  0  0  0  0  0
   -3.0497    3.3176   11.0130 C   0  0  0  0  0  0  0  0  0  0  0  0
   -1.8039    3.0818   10.9164 O   0  0  0  0  0  0  0  0  0  0  0  0
   -3.8614    3.5757   10.0650 O   0  0  0  0  0  0  0  0  0  0  0  0
   -4.7655    3.7347   10.2526 H   0  0  0  0  0  0  0  0  0  0  0  0
  1  3  1  0  0  0
  1  5  2  0  0  0
  2  4  2  0  0  0
  2  5  1  0  0  0
  3  6  2  0  0  0
  4  6  1  0  0  0
  5  9  1  0  0  0
  6  7  1  0  0  0
  8  9  2  0  0  0
  8 11  1  0  0  0
  9 10  1  0  0  0
 11 12  2  0  0  0
 11 13  1  0  0  0
 13 14  1  0  0  0
M  END
> <minimizedAffinity>
-6.15711

$$$$
5FLS_6ZX_A_1263


 14 14  0  0  0  0  0  0  0  0999 V2000
   -5.7755    4.4976   15.3583 C   0  0  0  0  0  0  0  0  0  0  0  0
   -3.9475    2.9903   15.6085 C   0  0  0  0  0  0  0  0  0  0  0  0
   -6.5895    3.6284   16.0586 C   0  0  0  0  0  0  0  0  0  0  0  0
   -4.7478    2.1107   16.3194 C   0  0  0  0  0  0  0  0  0  0  0  0
   -4.4488    4.1886   15.1314 C   0  0  0  0  0  0  0  0  0  0  0  0
   -6.0660    2.4464   16.5294 C   0  0  0  0  0  0  0  0  0  0  0  0
   -7.1097    1.3893   17.3918 Cl  0  0  0  0  0  0  0  0  0  0  0  0
   -2.8580    4.6025   13.3844 C   0  0  0  0  0  0  0  0  0  0  0  0
   -3.6197    5.1458   14.3560 C   0  0  0  0  0  0  0  0  0  0  0  0
   -3.7547    6.5956   14.6594 C   0  0  0  0  0  0  0  0  0  0  0  0
   -1.9549    5.3765   12.4352 C   0  0  0  0  0  0  0  0  0  0  0  0
   -2.4614    5.9224   11.4046 O   0  0  0  0  0  0  0  0  0  0  0  0
   -0.7419    5.4358   12.8218 O   0  0  0  0  0  0  0  0  0  0  0  0
   -0.4769    4.9913   13.6029 H   0  0  0  0  0  0  0  0  0  0  0  0
  1  3  1  0  0  0
  1  5  2  0  0  0
  2  4  2  0  0  0
  2  5  1  0  0  0
  3  6  2  0  0  0
  4  6  1  0  0  0
  5  9  1  0  0  0
  6  7  1  0  0  0
  8  9  2  0  0  0
  8 11  1  0  0  0
  9 10  1  0  0  0
 11 12  2  0  0  0
 11 13  1  0  0  0
 13 14  1  0  0  0
M  END
> <minimizedAffinity>
-5.86730

$$$$
5FLS_6ZX_A_1263


 14 14  0  0  0  0  0  0  0  0999 V2000
   -3.9183    3.1328   15.5703 C   0  0  0  0  0  0  0  0  0  0  0  0
   -5.7930    4.5842   15.3349 C   0  0  0  0  0  0  0  0  0  0  0  0
   -4.6918    2.2501   16.2992 C   0  0  0  0  0  0  0  0  0  0  0  0
   -6.5850    3.7064   16.0573 C   0  0  0  0  0  0  0  0  0  0  0  0
   -4.4623    4.3032   15.0791 C   0  0  0  0  0  0  0  0  0  0  0  0
   -6.0142    2.5482   16.5339 C   0  0  0  0  0  0  0  0  0  0  0  0
   -6.9430    1.4287   17.4476 Cl  0  0  0  0  0  0  0  0  0  0  0  0
   -2.8376    4.6606   13.3511 C   0  0  0  0  0  0  0  0  0  0  0  0
   -3.5853    5.2293   14.3190 C   0  0  0  0  0  0  0  0  0  0  0  0
   -3.6615    6.6816   14.6314 C   0  0  0  0  0  0  0  0  0  0  0  0
   -1.8926    5.4018   12.4165 C   0  0  0  0  0  0  0  0  0  0  0  0
   -2.3718    6.0276   11.4188 O   0  0  0  0  0  0  0  0  0  0  0  0
   -0.6726    5.3514   12.7816 O   0  0  0  0  0  0  0  0  0  0  0  0
   -0.4302    4.8556   13.5388 H   0  0  0  0  0  0  0  0  0  0  0  0
  1  3  1  0  0  0
  1  5  2  0  0  0
  2  4  2  0  0  0
  2  5  1  0  0  0
  3  6  2  0  0  0
  4  6  1  0  0  0
  5  9  1  0  0  0
  6  7  1  0  0  0
  8  9  2  0  0  0
  8 11  1  0  0  0
  9 10  1  0  0  0
 11 12  2  0  0  0
 11 13  1  0  0  0
 13 14  1  0  0  0
M  END
> <minimizedAffinity>
-5.83129

$$$$
5FLS_6ZX_A_1263


 14 14  0  0  0  0  0  0  0  0999 V2000
   -4.2426    2.6952   15.2280 C   0  0  0  0  0  0  0  0  0  0  0  0
   -6.0629    4.2205   15.0381 C   0  0  0  0  0  0  0  0  0  0  0  0
   -4.7139    2.2843   16.4600 C   0  0  0  0  0  0  0  0  0  0  0  0
   -6.5538    3.8147   16.2685 C   0  0  0  0  0  0  0  0  0  0  0  0
   -4.9142    3.6619   14.5058 C   0  0  0  0  0  0  0  0  0  0  0  0
   -5.8623    2.8494   16.9646 C   0  0  0  0  0  0  0  0  0  0  0  0
   -6.4152    2.3163   18.5011 Cl  0  0  0  0  0  0  0  0  0  0  0  0
   -3.8893    3.0901   12.4138 C   0  0  0  0  0  0  0  0  0  0  0  0
   -4.3568    4.0846   13.1961 C   0  0  0  0  0  0  0  0  0  0  0  0
   -4.4300    5.5258   12.8355 C   0  0  0  0  0  0  0  0  0  0  0  0
   -3.3063    3.2651   11.0191 C   0  0  0  0  0  0  0  0  0  0  0  0
   -2.0803    3.5785   10.8945 O   0  0  0  0  0  0  0  0  0  0  0  0
   -4.1380    3.0190   10.0853 O   0  0  0  0  0  0  0  0  0  0  0  0
   -5.0239    2.7964   10.2937 H   0  0  0  0  0  0  0  0  0  0  0  0
  1  3  1  0  0  0
  1  5  2  0  0  0
  2  4  2  0  0  0
  2  5  1  0  0  0
  3  6  2  0  0  0
  4  6  1  0  0  0
  5  9  1  0  0  0
  6  7  1  0  0  0
  8  9  2  0  0  0
  8 11  1  0  0  0
  9 10  1  0  0  0
 11 12  2  0  0  0
 11 13  1  0  0  0
 13 14  1  0  0  0
M  END
> <minimizedAffinity>
-5.76945

$$$$
5FLS_6ZX_A_1263


 14 14  0  0  0  0  0  0  0  0999 V2000
   -6.0429    4.4088   15.5441 C   0  0  0  0  0  0  0  0  0  0  0  0
   -3.8662    3.4585   15.3568 C   0  0  0  0  0  0  0  0  0  0  0  0
   -6.4464    3.3353   16.3147 C   0  0  0  0  0  0  0  0  0  0  0  0
   -4.2519    2.3787   16.1345 C   0  0  0  0  0  0  0  0  0  0  0  0
   -4.7505    4.4816   15.0630 C   0  0  0  0  0  0  0  0  0  0  0  0
   -5.5466    2.3343   16.5993 C   0  0  0  0  0  0  0  0  0  0  0  0
   -6.0860    1.0138   17.5565 Cl  0  0  0  0  0  0  0  0  0  0  0  0
   -4.6705    5.5393   12.9116 C   0  0  0  0  0  0  0  0  0  0  0  0
   -4.3706    5.6451   14.2224 C   0  0  0  0  0  0  0  0  0  0  0  0
   -3.7754    6.8309   14.8948 C   0  0  0  0  0  0  0  0  0  0  0  0
   -4.4154    6.6086   11.8594 C   0  0  0  0  0  0  0  0  0  0  0  0
   -5.2845    7.5187   11.6771 O   0  0  0  0  0  0  0  0  0  0  0  0
   -3.2839    6.4966   11.2838 O   0  0  0  0  0  0  0  0  0  0  0  0
   -2.7188    5.7801   11.4968 H   0  0  0  0  0  0  0  0  0  0  0  0
  1  3  1  0  0  0
  1  5  2  0  0  0
  2  4  2  0  0  0
  2  5  1  0  0  0
  3  6  2  0  0  0
  4  6  1  0  0  0
  5  9  1  0  0  0
  6  7  1  0  0  0
  8  9  2  0  0  0
  8 11  1  0  0  0
  9 10  1  0  0  0
 11 12  2  0  0  0
 11 13  1  0  0  0
 13 14  1  0  0  0
M  END
> <minimizedAffinity>
-5.60644

$$$$
5FLS_6ZX_A_1263


 14 14  0  0  0  0  0  0  0  0999 V2000
   -4.5147    2.2459   13.2128 C   0  0  0  0  0  0  0  0  0  0  0  0
   -3.8058    4.3478   14.0823 C   0  0  0  0  0  0  0  0  0  0  0  0
   -3.7229    2.4391   12.0972 C   0  0  0  0  0  0  0  0  0  0  0  0
   -3.0004    4.5540   12.9740 C   0  0  0  0  0  0  0  0  0  0  0  0
   -4.5596    3.1949   14.2151 C   0  0  0  0  0  0  0  0  0  0  0  0
   -2.9769    3.5902   11.9917 C   0  0  0  0  0  0  0  0  0  0  0  0
   -2.0080    3.7970   10.5884 Cl  0  0  0  0  0  0  0  0  0  0  0  0
   -5.3826    1.7097   15.9094 C   0  0  0  0  0  0  0  0  0  0  0  0
   -5.4413    2.9508   15.3846 C   0  0  0  0  0  0  0  0  0  0  0  0
   -6.2379    4.0910   15.9117 C   0  0  0  0  0  0  0  0  0  0  0  0
   -6.1595    1.2290   17.1264 C   0  0  0  0  0  0  0  0  0  0  0  0
   -5.5236    0.8946   18.1755 O   0  0  0  0  0  0  0  0  0  0  0  0
   -7.4237    1.2624   16.9688 O   0  0  0  0  0  0  0  0  0  0  0  0
   -7.7865    1.5265   16.1463 H   0  0  0  0  0  0  0  0  0  0  0  0
  1  3  1  0  0  0
  1  5  2  0  0  0
  2  4  2  0  0  0
  2  5  1  0  0  0
  3  6  2  0  0  0
  4  6  1  0  0  0
  5  9  1  0  0  0
  6  7  1  0  0  0
  8  9  2  0  0  0
  8 11  1  0  0  0
  9 10  1  0  0  0
 11 12  2  0  0  0
 11 13  1  0  0  0
 13 14  1  0  0  0
M  END
> <minimizedAffinity>
-5.60613

$$$$
5FLS_6ZX_A_1263


 14 14  0  0  0  0  0  0  0  0999 V2000
   -2.4449    5.2929   13.4418 C   0  0  0  0  0  0  0  0  0  0  0  0
   -4.5450    5.6392   14.5122 C   0  0  0  0  0  0  0  0  0  0  0  0
   -2.0066    6.5194   13.9025 C   0  0  0  0  0  0  0  0  0  0  0  0
   -4.1188    6.8683   14.9889 C   0  0  0  0  0  0  0  0  0  0  0  0
   -3.7140    4.8412   13.7457 C   0  0  0  0  0  0  0  0  0  0  0  0
   -2.8487    7.2914   14.6691 C   0  0  0  0  0  0  0  0  0  0  0  0
   -2.2701    8.8120   15.2201 Cl  0  0  0  0  0  0  0  0  0  0  0  0
   -4.1796    3.4263   11.8655 C   0  0  0  0  0  0  0  0  0  0  0  0
   -4.1462    3.5254   13.2103 C   0  0  0  0  0  0  0  0  0  0  0  0
   -4.4252    2.4319   14.1793 C   0  0  0  0  0  0  0  0  0  0  0  0
   -4.5522    2.1759   11.0823 C   0  0  0  0  0  0  0  0  0  0  0  0
   -3.6278    1.4270   10.6337 O   0  0  0  0  0  0  0  0  0  0  0  0
   -5.8092    1.9826   11.0003 O   0  0  0  0  0  0  0  0  0  0  0  0
   -6.4041    2.6053   11.3694 H   0  0  0  0  0  0  0  0  0  0  0  0
  1  3  1  0  0  0
  1  5  2  0  0  0
  2  4  2  0  0  0
  2  5  1  0  0  0
  3  6  2  0  0  0
  4  6  1  0  0  0
  5  9  1  0  0  0
  6  7  1  0  0  0
  8  9  2  0  0  0
  8 11  1  0  0  0
  9 10  1  0  0  0
 11 12  2  0  0  0
 11 13  1  0  0  0
 13 14  1  0  0  0
M  END
> <minimizedAffinity>
-5.52452

$$$$
5FLS_6ZX_A_1263


 14 14  0  0  0  0  0  0  0  0999 V2000
   -4.5827    5.5700   13.4629 C   0  0  0  0  0  0  0  0  0  0  0  0
   -2.4141    5.0853   14.3222 C   0  0  0  0  0  0  0  0  0  0  0  0
   -4.1787    6.8576   13.1666 C   0  0  0  0  0  0  0  0  0  0  0  0
   -1.9901    6.3703   14.0246 C   0  0  0  0  0  0  0  0  0  0  0  0
   -3.7042    4.6731   14.0382 C   0  0  0  0  0  0  0  0  0  0  0  0
   -2.8887    7.2414   13.4517 C   0  0  0  0  0  0  0  0  0  0  0  0
   -2.4242    8.8512   13.0730 Cl  0  0  0  0  0  0  0  0  0  0  0  0
   -4.3877    3.0491   15.6658 C   0  0  0  0  0  0  0  0  0  0  0  0
   -4.1916    3.3072   14.3565 C   0  0  0  0  0  0  0  0  0  0  0  0
   -4.4874    2.3875   13.2256 C   0  0  0  0  0  0  0  0  0  0  0  0
   -4.9151    1.7412   16.2376 C   0  0  0  0  0  0  0  0  0  0  0  0
   -6.1537    1.6362   16.5051 O   0  0  0  0  0  0  0  0  0  0  0  0
   -4.0237    0.8366   16.3448 O   0  0  0  0  0  0  0  0  0  0  0  0
   -3.1345    1.0258   16.1179 H   0  0  0  0  0  0  0  0  0  0  0  0
  1  3  1  0  0  0
  1  5  2  0  0  0
  2  4  2  0  0  0
  2  5  1  0  0  0
  3  6  2  0  0  0
  4  6  1  0  0  0
  5  9  1  0  0  0
  6  7  1  0  0  0
  8  9  2  0  0  0
  8 11  1  0  0  0
  9 10  1  0  0  0
 11 12  2  0  0  0
 11 13  1  0  0  0
 13 14  1  0  0  0
M  END
> <minimizedAffinity>
-5.32345

$$$$
