2FX6_270_A_246


 12 13  0  0  0  0  0  0  0  0999 V2000
   43.3210   -3.8681   26.3583 N   0  0  0  0  0  0  0  0  0  0  0  0
   44.2164   -3.2866   25.5974 C   0  0  0  0  0  0  0  0  0  0  0  0
   43.2794   -3.1812   27.4574 C   0  0  0  0  0  0  0  0  0  0  0  0
   42.4967   -3.3887   28.5705 C   0  0  0  0  0  0  0  0  0  0  0  0
   42.6642   -2.4687   29.6150 C   0  0  0  0  0  0  0  0  0  0  0  0
   43.5925   -1.4096   29.5014 C   0  0  0  0  0  0  0  0  0  0  0  0
   44.3797   -1.2299   28.3321 C   0  0  0  0  0  0  0  0  0  0  0  0
   44.1775   -2.1550   27.3371 C   0  0  0  0  0  0  0  0  0  0  0  0
   44.7576   -2.2361   26.1753 N   0  0  0  0  0  0  0  0  0  0  0  0
   44.4463   -3.6551   24.3751 N   0  0  0  0  0  0  0  0  0  0  0  0
   43.6949   -3.3203   23.7720 H   0  0  0  0  0  0  0  0  0  0  0  0
   44.4908   -4.6731   24.3296 H   0  0  0  0  0  0  0  0  0  0  0  0
  1  2  1  0  0  0
  1  3  2  0  0  0
  2  9  1  0  0  0
  2 10  1  0  0  0
  3  4  1  0  0  0
  3  8  1  0  0  0
  4  5  2  0  0  0
  5  6  1  0  0  0
  6  7  2  0  0  0
  7  8  1  0  0  0
  8  9  2  0  0  0
 10 11  1  0  0  0
 10 12  1  0  0  0
M  END
> <minimizedAffinity>
-6.48335

$$$$
2FX6_270_A_246


 12 13  0  0  0  0  0  0  0  0999 V2000
   44.6444   -2.1914   26.0896 N   0  0  0  0  0  0  0  0  0  0  0  0
   44.1179   -3.2493   25.5217 C   0  0  0  0  0  0  0  0  0  0  0  0
   44.1408   -2.1332   27.2831 C   0  0  0  0  0  0  0  0  0  0  0  0
   44.3788   -1.2048   28.2711 C   0  0  0  0  0  0  0  0  0  0  0  0
   43.6896   -1.4045   29.4756 C   0  0  0  0  0  0  0  0  0  0  0  0
   42.8082   -2.4980   29.6295 C   0  0  0  0  0  0  0  0  0  0  0  0
   42.5933   -3.4358   28.5838 C   0  0  0  0  0  0  0  0  0  0  0  0
   43.2924   -3.1981   27.4256 C   0  0  0  0  0  0  0  0  0  0  0  0
   43.2842   -3.8819   26.3187 N   0  0  0  0  0  0  0  0  0  0  0  0
   44.4765   -3.6689   24.3479 N   0  0  0  0  0  0  0  0  0  0  0  0
   45.3803   -4.1369   24.4155 H   0  0  0  0  0  0  0  0  0  0  0  0
   44.5514   -2.8754   23.7114 H   0  0  0  0  0  0  0  0  0  0  0  0
  1  2  1  0  0  0
  1  3  2  0  0  0
  2  9  1  0  0  0
  2 10  1  0  0  0
  3  4  1  0  0  0
  3  8  1  0  0  0
  4  5  2  0  0  0
  5  6  1  0  0  0
  6  7  2  0  0  0
  7  8  1  0  0  0
  8  9  2  0  0  0
 10 11  1  0  0  0
 10 12  1  0  0  0
M  END
> <minimizedAffinity>
-6.48247

$$$$
2FX6_270_A_246


 12 13  0  0  0  0  0  0  0  0999 V2000
   43.5769   -0.5025   28.7314 N   0  0  0  0  0  0  0  0  0  0  0  0
   42.7528   -0.8907   29.6743 C   0  0  0  0  0  0  0  0  0  0  0  0
   43.7058   -1.5106   27.9261 C   0  0  0  0  0  0  0  0  0  0  0  0
   44.4642   -1.6035   26.7811 C   0  0  0  0  0  0  0  0  0  0  0  0
   44.3997   -2.8291   26.1035 C   0  0  0  0  0  0  0  0  0  0  0  0
   43.6004   -3.8847   26.5968 C   0  0  0  0  0  0  0  0  0  0  0  0
   42.8299   -3.7458   27.7825 C   0  0  0  0  0  0  0  0  0  0  0  0
   42.9251   -2.5266   28.4081 C   0  0  0  0  0  0  0  0  0  0  0  0
   42.3412   -2.1280   29.5004 N   0  0  0  0  0  0  0  0  0  0  0  0
   42.3194   -0.0935   30.6012 N   0  0  0  0  0  0  0  0  0  0  0  0
   41.6069    0.5243   30.2125 H   0  0  0  0  0  0  0  0  0  0  0  0
   43.0945    0.4644   30.9595 H   0  0  0  0  0  0  0  0  0  0  0  0
  1  2  1  0  0  0
  1  3  2  0  0  0
  2  9  1  0  0  0
  2 10  1  0  0  0
  3  4  1  0  0  0
  3  8  1  0  0  0
  4  5  2  0  0  0
  5  6  1  0  0  0
  6  7  2  0  0  0
  7  8  1  0  0  0
  8  9  2  0  0  0
 10 11  1  0  0  0
 10 12  1  0  0  0
M  END
> <minimizedAffinity>
-5.52914

$$$$
2FX6_270_A_246


 12 13  0  0  0  0  0  0  0  0999 V2000
   42.3476   -2.0835   29.4166 N   0  0  0  0  0  0  0  0  0  0  0  0
   42.7246   -0.8373   29.5704 C   0  0  0  0  0  0  0  0  0  0  0  0
   42.9371   -2.5099   28.3432 C   0  0  0  0  0  0  0  0  0  0  0  0
   42.8633   -3.7544   27.7597 C   0  0  0  0  0  0  0  0  0  0  0  0
   43.6252   -3.9294   26.5959 C   0  0  0  0  0  0  0  0  0  0  0  0
   44.4043   -2.8706   26.0779 C   0  0  0  0  0  0  0  0  0  0  0  0
   44.4544   -1.6009   26.7137 C   0  0  0  0  0  0  0  0  0  0  0  0
   43.6931   -1.4803   27.8507 C   0  0  0  0  0  0  0  0  0  0  0  0
   43.5472   -0.4430   28.6225 N   0  0  0  0  0  0  0  0  0  0  0  0
   42.4002   -0.1274   30.6064 N   0  0  0  0  0  0  0  0  0  0  0  0
   42.9668   -0.4128   31.4051 H   0  0  0  0  0  0  0  0  0  0  0  0
   41.4134   -0.2706   30.8212 H   0  0  0  0  0  0  0  0  0  0  0  0
  1  2  1  0  0  0
  1  3  2  0  0  0
  2  9  1  0  0  0
  2 10  1  0  0  0
  3  4  1  0  0  0
  3  8  1  0  0  0
  4  5  2  0  0  0
  5  6  1  0  0  0
  6  7  2  0  0  0
  7  8  1  0  0  0
  8  9  2  0  0  0
 10 11  1  0  0  0
 10 12  1  0  0  0
M  END
> <minimizedAffinity>
-5.38141

$$$$
2FX6_270_A_246


 12 13  0  0  0  0  0  0  0  0999 V2000
   44.3714   -1.8866   27.8063 N   0  0  0  0  0  0  0  0  0  0  0  0
   44.0751   -2.6957   26.8182 C   0  0  0  0  0  0  0  0  0  0  0  0
   43.5771   -2.2010   28.7818 C   0  0  0  0  0  0  0  0  0  0  0  0
   43.4958   -1.6422   30.0371 C   0  0  0  0  0  0  0  0  0  0  0  0
   42.5360   -2.2002   30.8931 C   0  0  0  0  0  0  0  0  0  0  0  0
   41.7152   -3.2654   30.4595 C   0  0  0  0  0  0  0  0  0  0  0  0
   41.8339   -3.8153   29.1547 C   0  0  0  0  0  0  0  0  0  0  0  0
   42.7893   -3.2362   28.3554 C   0  0  0  0  0  0  0  0  0  0  0  0
   43.1071   -3.5306   27.1286 N   0  0  0  0  0  0  0  0  0  0  0  0
   44.7473   -2.7266   25.7092 N   0  0  0  0  0  0  0  0  0  0  0  0
   45.6314   -3.2121   25.8609 H   0  0  0  0  0  0  0  0  0  0  0  0
   44.9320   -1.7733   25.3969 H   0  0  0  0  0  0  0  0  0  0  0  0
  1  2  1  0  0  0
  1  3  2  0  0  0
  2  9  1  0  0  0
  2 10  1  0  0  0
  3  4  1  0  0  0
  3  8  1  0  0  0
  4  5  2  0  0  0
  5  6  1  0  0  0
  6  7  2  0  0  0
  7  8  1  0  0  0
  8  9  2  0  0  0
 10 11  1  0  0  0
 10 12  1  0  0  0
M  END
> <minimizedAffinity>
-5.25120

$$$$
2FX6_270_A_246


 12 13  0  0  0  0  0  0  0  0999 V2000
   42.9804   -4.2904   27.2777 N   0  0  0  0  0  0  0  0  0  0  0  0
   42.4072   -4.5078   28.4366 C   0  0  0  0  0  0  0  0  0  0  0  0
   43.4242   -3.0726   27.3165 C   0  0  0  0  0  0  0  0  0  0  0  0
   44.1011   -2.3740   26.3427 C   0  0  0  0  0  0  0  0  0  0  0  0
   44.4660   -1.0617   26.6745 C   0  0  0  0  0  0  0  0  0  0  0  0
   44.1378   -0.5192   27.9372 C   0  0  0  0  0  0  0  0  0  0  0  0
   43.4397   -1.2767   28.9159 C   0  0  0  0  0  0  0  0  0  0  0  0
   43.1066   -2.5564   28.5440 C   0  0  0  0  0  0  0  0  0  0  0  0
   42.4688   -3.4599   29.2294 N   0  0  0  0  0  0  0  0  0  0  0  0
   41.9378   -5.6666   28.7823 N   0  0  0  0  0  0  0  0  0  0  0  0
   42.7093   -6.2854   29.0314 H   0  0  0  0  0  0  0  0  0  0  0  0
   41.4173   -6.0689   28.0028 H   0  0  0  0  0  0  0  0  0  0  0  0
  1  2  1  0  0  0
  1  3  2  0  0  0
  2  9  1  0  0  0
  2 10  1  0  0  0
  3  4  1  0  0  0
  3  8  1  0  0  0
  4  5  2  0  0  0
  5  6  1  0  0  0
  6  7  2  0  0  0
  7  8  1  0  0  0
  8  9  2  0  0  0
 10 11  1  0  0  0
 10 12  1  0  0  0
M  END
> <minimizedAffinity>
-5.18357

$$$$
2FX6_270_A_246


 12 13  0  0  0  0  0  0  0  0999 V2000
   44.0282   -2.2557   25.1198 N   0  0  0  0  0  0  0  0  0  0  0  0
   43.9787   -0.9716   24.8603 C   0  0  0  0  0  0  0  0  0  0  0  0
   43.9467   -2.3676   26.4091 C   0  0  0  0  0  0  0  0  0  0  0  0
   43.9545   -3.5119   27.1739 C   0  0  0  0  0  0  0  0  0  0  0  0
   43.8423   -3.3221   28.5584 C   0  0  0  0  0  0  0  0  0  0  0  0
   43.7359   -2.0221   29.1018 C   0  0  0  0  0  0  0  0  0  0  0  0
   43.7289   -0.8664   28.2753 C   0  0  0  0  0  0  0  0  0  0  0  0
   43.8390   -1.1049   26.9270 C   0  0  0  0  0  0  0  0  0  0  0  0
   43.8654   -0.2449   25.9510 N   0  0  0  0  0  0  0  0  0  0  0  0
   43.9355   -0.4996   23.6528 N   0  0  0  0  0  0  0  0  0  0  0  0
   42.9984   -0.6278   23.2710 H   0  0  0  0  0  0  0  0  0  0  0  0
   44.6108   -0.9943   23.0700 H   0  0  0  0  0  0  0  0  0  0  0  0
  1  2  1  0  0  0
  1  3  2  0  0  0
  2  9  1  0  0  0
  2 10  1  0  0  0
  3  4  1  0  0  0
  3  8  1  0  0  0
  4  5  2  0  0  0
  5  6  1  0  0  0
  6  7  2  0  0  0
  7  8  1  0  0  0
  8  9  2  0  0  0
 10 11  1  0  0  0
 10 12  1  0  0  0
M  END
> <minimizedAffinity>
-4.92344

$$$$
2FX6_270_A_246


 12 13  0  0  0  0  0  0  0  0999 V2000
   43.8790   -2.1043   28.2781 N   0  0  0  0  0  0  0  0  0  0  0  0
   44.3681   -1.1205   28.9935 C   0  0  0  0  0  0  0  0  0  0  0  0
   43.0135   -2.7054   29.0337 C   0  0  0  0  0  0  0  0  0  0  0  0
   42.2309   -3.7992   28.7406 C   0  0  0  0  0  0  0  0  0  0  0  0
   41.3724   -4.2275   29.7628 C   0  0  0  0  0  0  0  0  0  0  0  0
   41.3424   -3.5587   31.0070 C   0  0  0  0  0  0  0  0  0  0  0  0
   42.1659   -2.4304   31.2674 C   0  0  0  0  0  0  0  0  0  0  0  0
   42.9871   -2.0486   30.2345 C   0  0  0  0  0  0  0  0  0  0  0  0
   43.8397   -1.0666   30.1970 N   0  0  0  0  0  0  0  0  0  0  0  0
   45.1954   -0.2449   28.5123 N   0  0  0  0  0  0  0  0  0  0  0  0
   44.6873    0.4158   27.9243 H   0  0  0  0  0  0  0  0  0  0  0  0
   45.9061   -0.7190   27.9551 H   0  0  0  0  0  0  0  0  0  0  0  0
  1  2  1  0  0  0
  1  3  2  0  0  0
  2  9  1  0  0  0
  2 10  1  0  0  0
  3  4  1  0  0  0
  3  8  1  0  0  0
  4  5  2  0  0  0
  5  6  1  0  0  0
  6  7  2  0  0  0
  7  8  1  0  0  0
  8  9  2  0  0  0
 10 11  1  0  0  0
 10 12  1  0  0  0
M  END
> <minimizedAffinity>
-4.48699

$$$$
2FX6_270_A_246


 12 13  0  0  0  0  0  0  0  0999 V2000
   43.2217   -2.8819   29.3647 N   0  0  0  0  0  0  0  0  0  0  0  0
   42.3193   -3.3403   28.5315 C   0  0  0  0  0  0  0  0  0  0  0  0
   42.6085   -2.0359   30.1326 C   0  0  0  0  0  0  0  0  0  0  0  0
   43.1214   -1.2880   31.1681 C   0  0  0  0  0  0  0  0  0  0  0  0
   42.2083   -0.4562   31.8315 C   0  0  0  0  0  0  0  0  0  0  0  0
   40.8540   -0.4084   31.4316 C   0  0  0  0  0  0  0  0  0  0  0  0
   40.3648   -1.2001   30.3579 C   0  0  0  0  0  0  0  0  0  0  0  0
   41.2970   -1.9992   29.7420 C   0  0  0  0  0  0  0  0  0  0  0  0
   41.1323   -2.8130   28.7403 N   0  0  0  0  0  0  0  0  0  0  0  0
   42.5653   -4.2871   27.6797 N   0  0  0  0  0  0  0  0  0  0  0  0
   42.5927   -5.1833   28.1660 H   0  0  0  0  0  0  0  0  0  0  0  0
   43.4654   -4.1158   27.2316 H   0  0  0  0  0  0  0  0  0  0  0  0
  1  2  1  0  0  0
  1  3  2  0  0  0
  2  9  1  0  0  0
  2 10  1  0  0  0
  3  4  1  0  0  0
  3  8  1  0  0  0
  4  5  2  0  0  0
  5  6  1  0  0  0
  6  7  2  0  0  0
  7  8  1  0  0  0
  8  9  2  0  0  0
 10 11  1  0  0  0
 10 12  1  0  0  0
M  END
> <minimizedAffinity>
-4.38491

$$$$
2FX6_270_A_246


 12 13  0  0  0  0  0  0  0  0999 V2000
   41.9441   -3.3233   28.4407 N   0  0  0  0  0  0  0  0  0  0  0  0
   43.2170   -3.0099   28.4289 C   0  0  0  0  0  0  0  0  0  0  0  0
   41.3708   -2.4778   29.2394 C   0  0  0  0  0  0  0  0  0  0  0  0
   40.0415   -2.3894   29.5857 C   0  0  0  0  0  0  0  0  0  0  0  0
   39.7091   -1.3569   30.4739 C   0  0  0  0  0  0  0  0  0  0  0  0
   40.7032   -0.4829   30.9683 C   0  0  0  0  0  0  0  0  0  0  0  0
   42.0651   -0.6076   30.5825 C   0  0  0  0  0  0  0  0  0  0  0  0
   42.3393   -1.6324   29.7098 C   0  0  0  0  0  0  0  0  0  0  0  0
   43.4853   -1.9788   29.2005 N   0  0  0  0  0  0  0  0  0  0  0  0
   44.0773   -3.5924   27.6522 N   0  0  0  0  0  0  0  0  0  0  0  0
   43.9673   -3.2428   26.7003 H   0  0  0  0  0  0  0  0  0  0  0  0
   43.9190   -4.6000   27.6647 H   0  0  0  0  0  0  0  0  0  0  0  0
  1  2  1  0  0  0
  1  3  2  0  0  0
  2  9  1  0  0  0
  2 10  1  0  0  0
  3  4  1  0  0  0
  3  8  1  0  0  0
  4  5  2  0  0  0
  5  6  1  0  0  0
  6  7  2  0  0  0
  7  8  1  0  0  0
  8  9  2  0  0  0
 10 11  1  0  0  0
 10 12  1  0  0  0
M  END
> <minimizedAffinity>
-4.36353

$$$$
