4FS4_H24_A_501


 26 28  0  0  0  0  0  0  0  0999 V2000
   26.4179   10.9679   19.8161 C   0  0  0  0  0  0  0  0  0  0  0  0
   26.2821   11.5540   18.5531 C   0  0  0  0  0  0  0  0  0  0  0  0
   25.0323   11.7586   17.9975 C   0  0  0  0  0  0  0  0  0  0  0  0
   23.8951   11.3735   18.6892 C   0  0  0  0  0  0  0  0  0  0  0  0
   23.9921   10.7710   19.9425 C   0  0  0  0  0  0  0  0  0  0  0  0
   25.2595   10.5731   20.5073 C   0  0  0  0  0  0  0  0  0  0  0  0
   22.6885   10.3355   20.6378 C   0  0  0  0  0  0  0  0  0  0  0  0
   21.8658    9.4135   19.6873 C   0  0  0  0  0  0  0  0  0  0  0  0
   21.8205   11.5793   21.0062 C   0  0  0  0  0  0  0  0  0  0  0  0
   22.3841   12.2693   22.2419 C   0  0  0  0  0  0  0  0  0  0  0  0
   22.4385   13.4909   22.2997 O   0  0  0  0  0  0  0  0  0  0  0  0
   22.9049   11.4769   23.2400 N   0  0  0  0  0  0  0  0  0  0  0  0
   23.3909   12.1282   24.4626 C   0  0  0  0  0  0  0  0  0  0  0  0
   22.9453   10.0478   23.0620 C   0  0  0  0  0  0  0  0  0  0  0  0
   23.0591    9.2504   24.1264 N   0  0  0  0  0  0  0  0  0  0  0  0
   22.8547    9.4879   21.8563 N   0  0  0  0  0  0  0  0  0  0  0  0
   23.1277    9.6397   25.0281 H   0  0  0  0  0  0  0  0  0  0  0  0
   23.0745    8.2729   24.0098 H   0  0  0  0  0  0  0  0  0  0  0  0
   29.2719    9.6114   21.9008 C   0  0  0  0  0  0  0  0  0  0  0  0
   30.2030   10.6412   21.8170 C   0  0  0  0  0  0  0  0  0  0  0  0
   29.9306   11.7352   21.0132 C   0  0  0  0  0  0  0  0  0  0  0  0
   28.7205   11.8267   20.3414 C   0  0  0  0  0  0  0  0  0  0  0  0
   27.7599   10.8167   20.4442 C   0  0  0  0  0  0  0  0  0  0  0  0
   28.0664    9.6861   21.2083 C   0  0  0  0  0  0  0  0  0  0  0  0
   30.4354    8.5599   23.7236 C   0  0  0  0  0  0  0  0  0  0  0  0
   29.4109    8.5197   22.7179 O   0  0  0  0  0  0  0  0  0  0  0  0
 25 26  1  0  0  0
 26 19  1  0  0  0
 19 20  1  0  0  0
 19 24  2  0  0  0
 20 21  2  0  0  0
 21 22  1  0  0  0
 22 23  2  0  0  0
 23 24  1  0  0  0
 23  1  1  0  0  0
  1  2  1  0  0  0
  1  6  2  0  0  0
  2  3  2  0  0  0
  3  4  1  0  0  0
  4  5  2  0  0  0
  5  6  1  0  0  0
  5  7  1  0  0  0
  7  8  1  0  0  0
  7  9  1  0  0  0
  7 16  1  0  0  0
  9 10  1  0  0  0
 10 11  2  0  0  0
 10 12  1  0  0  0
 12 13  1  0  0  0
 12 14  1  0  0  0
 14 16  2  0  0  0
 14 15  1  0  0  0
 15 17  1  0  0  0
 15 18  1  0  0  0
M  END
> <minimizedAffinity>
-9.02684

$$$$
4FS4_H24_A_501


 26 28  0  0  0  0  0  0  0  0999 V2000
   22.0114   12.6028   21.8100 C   0  0  0  0  0  0  0  0  0  0  0  0
   22.5311   13.9016   21.7904 C   0  0  0  0  0  0  0  0  0  0  0  0
   22.1476   14.8327   22.7384 C   0  0  0  0  0  0  0  0  0  0  0  0
   21.2312   14.4865   23.7184 C   0  0  0  0  0  0  0  0  0  0  0  0
   20.6792   13.2071   23.7592 C   0  0  0  0  0  0  0  0  0  0  0  0
   21.0764   12.2626   22.8028 C   0  0  0  0  0  0  0  0  0  0  0  0
   19.6393   12.9032   24.8541 C   0  0  0  0  0  0  0  0  0  0  0  0
   18.2190   12.8015   24.2194 C   0  0  0  0  0  0  0  0  0  0  0  0
   19.6286   14.0337   25.9302 C   0  0  0  0  0  0  0  0  0  0  0  0
   20.8235   13.8857   26.8634 C   0  0  0  0  0  0  0  0  0  0  0  0
   21.4554   14.8706   27.2230 O   0  0  0  0  0  0  0  0  0  0  0  0
   21.2149   12.6123   27.2107 N   0  0  0  0  0  0  0  0  0  0  0  0
   22.3238   12.4604   28.1606 C   0  0  0  0  0  0  0  0  0  0  0  0
   20.5242   11.4802   26.6477 C   0  0  0  0  0  0  0  0  0  0  0  0
   20.6014   10.2908   27.2488 N   0  0  0  0  0  0  0  0  0  0  0  0
   19.7876   11.5861   25.5424 N   0  0  0  0  0  0  0  0  0  0  0  0
   21.1392   10.1867   28.0668 H   0  0  0  0  0  0  0  0  0  0  0  0
   20.1206    9.5178   26.8740 H   0  0  0  0  0  0  0  0  0  0  0  0
   23.8025   10.9797   18.8964 C   0  0  0  0  0  0  0  0  0  0  0  0
   23.1985    9.7277   18.8499 C   0  0  0  0  0  0  0  0  0  0  0  0
   22.2709    9.3882   19.8200 C   0  0  0  0  0  0  0  0  0  0  0  0
   21.9098   10.3058   20.7956 C   0  0  0  0  0  0  0  0  0  0  0  0
   22.4816   11.5806   20.8341 C   0  0  0  0  0  0  0  0  0  0  0  0
   23.4628   11.8955   19.8885 C   0  0  0  0  0  0  0  0  0  0  0  0
   25.9873   11.8437   18.3847 C   0  0  0  0  0  0  0  0  0  0  0  0
   24.6793   11.4412   17.9492 O   0  0  0  0  0  0  0  0  0  0  0  0
 25 26  1  0  0  0
 26 19  1  0  0  0
 19 20  1  0  0  0
 19 24  2  0  0  0
 20 21  2  0  0  0
 21 22  1  0  0  0
 22 23  2  0  0  0
 23 24  1  0  0  0
 23  1  1  0  0  0
  1  2  1  0  0  0
  1  6  2  0  0  0
  2  3  2  0  0  0
  3  4  1  0  0  0
  4  5  2  0  0  0
  5  6  1  0  0  0
  5  7  1  0  0  0
  7  8  1  0  0  0
  7  9  1  0  0  0
  7 16  1  0  0  0
  9 10  1  0  0  0
 10 11  2  0  0  0
 10 12  1  0  0  0
 12 13  1  0  0  0
 12 14  1  0  0  0
 14 16  2  0  0  0
 14 15  1  0  0  0
 15 17  1  0  0  0
 15 18  1  0  0  0
M  END
> <minimizedAffinity>
-8.30468

$$$$
4FS4_H24_A_501


 26 28  0  0  0  0  0  0  0  0999 V2000
   21.8794   11.1453   21.5625 C   0  0  0  0  0  0  0  0  0  0  0  0
   21.6359    9.9912   20.8103 C   0  0  0  0  0  0  0  0  0  0  0  0
   22.2004    9.8293   19.5581 C   0  0  0  0  0  0  0  0  0  0  0  0
   23.0115   10.8210   19.0303 C   0  0  0  0  0  0  0  0  0  0  0  0
   23.2629   11.9919   19.7437 C   0  0  0  0  0  0  0  0  0  0  0  0
   22.6970   12.1496   21.0162 C   0  0  0  0  0  0  0  0  0  0  0  0
   24.1440   13.0672   19.0803 C   0  0  0  0  0  0  0  0  0  0  0  0
   23.3082   13.8607   18.0305 C   0  0  0  0  0  0  0  0  0  0  0  0
   25.3626   12.4105   18.3593 C   0  0  0  0  0  0  0  0  0  0  0  0
   26.4224   12.0057   19.3760 C   0  0  0  0  0  0  0  0  0  0  0  0
   27.0083   10.9362   19.2690 O   0  0  0  0  0  0  0  0  0  0  0  0
   26.6299   12.8360   20.4544 N   0  0  0  0  0  0  0  0  0  0  0  0
   27.6932   12.4886   21.4051 C   0  0  0  0  0  0  0  0  0  0  0  0
   25.8149   14.0139   20.6091 C   0  0  0  0  0  0  0  0  0  0  0  0
   26.2390   15.0164   21.3817 N   0  0  0  0  0  0  0  0  0  0  0  0
   24.6448   14.1448   19.9851 N   0  0  0  0  0  0  0  0  0  0  0  0
   27.1001   14.9441   21.8534 H   0  0  0  0  0  0  0  0  0  0  0  0
   25.6906   15.8282   21.4799 H   0  0  0  0  0  0  0  0  0  0  0  0
   21.6625   11.7414   25.2947 C   0  0  0  0  0  0  0  0  0  0  0  0
   20.3654   11.3260   25.5766 C   0  0  0  0  0  0  0  0  0  0  0  0
   19.5402   10.9333   24.5365 C   0  0  0  0  0  0  0  0  0  0  0  0
   20.0192   10.9045   23.2350 C   0  0  0  0  0  0  0  0  0  0  0  0
   21.3315   11.2848   22.9404 C   0  0  0  0  0  0  0  0  0  0  0  0
   22.1404   11.7390   23.9871 C   0  0  0  0  0  0  0  0  0  0  0  0
   22.1102   12.7852   27.4142 C   0  0  0  0  0  0  0  0  0  0  0  0
   22.5810   12.0834   26.2530 O   0  0  0  0  0  0  0  0  0  0  0  0
 25 26  1  0  0  0
 26 19  1  0  0  0
 19 20  1  0  0  0
 19 24  2  0  0  0
 20 21  2  0  0  0
 21 22  1  0  0  0
 22 23  2  0  0  0
 23 24  1  0  0  0
 23  1  1  0  0  0
  1  2  1  0  0  0
  1  6  2  0  0  0
  2  3  2  0  0  0
  3  4  1  0  0  0
  4  5  2  0  0  0
  5  6  1  0  0  0
  5  7  1  0  0  0
  7  8  1  0  0  0
  7  9  1  0  0  0
  7 16  1  0  0  0
  9 10  1  0  0  0
 10 11  2  0  0  0
 10 12  1  0  0  0
 12 13  1  0  0  0
 12 14  1  0  0  0
 14 16  2  0  0  0
 14 15  1  0  0  0
 15 17  1  0  0  0
 15 18  1  0  0  0
M  END
> <minimizedAffinity>
-8.17842

$$$$
4FS4_H24_A_501


 26 28  0  0  0  0  0  0  0  0999 V2000
   22.7601   13.8499   21.0308 C   0  0  0  0  0  0  0  0  0  0  0  0
   23.0657   15.2138   21.0896 C   0  0  0  0  0  0  0  0  0  0  0  0
   22.6037   15.9993   22.1299 C   0  0  0  0  0  0  0  0  0  0  0  0
   21.8204   15.4390   23.1262 C   0  0  0  0  0  0  0  0  0  0  0  0
   21.4813   14.0873   23.0917 C   0  0  0  0  0  0  0  0  0  0  0  0
   21.9585   13.2914   22.0413 C   0  0  0  0  0  0  0  0  0  0  0  0
   20.5773   13.5402   24.2125 C   0  0  0  0  0  0  0  0  0  0  0  0
   19.5606   14.6368   24.6531 C   0  0  0  0  0  0  0  0  0  0  0  0
   21.4302   13.1199   25.4501 C   0  0  0  0  0  0  0  0  0  0  0  0
   22.1131   11.7830   25.1915 C   0  0  0  0  0  0  0  0  0  0  0  0
   23.2734   11.6019   25.5370 O   0  0  0  0  0  0  0  0  0  0  0  0
   21.4149   10.8300   24.4845 N   0  0  0  0  0  0  0  0  0  0  0  0
   22.0384    9.5158   24.2860 C   0  0  0  0  0  0  0  0  0  0  0  0
   20.1034   11.1433   23.9772 C   0  0  0  0  0  0  0  0  0  0  0  0
   19.2638   10.1564   23.6562 N   0  0  0  0  0  0  0  0  0  0  0  0
   19.6891   12.4014   23.8320 N   0  0  0  0  0  0  0  0  0  0  0  0
   19.5462    9.2184   23.7545 H   0  0  0  0  0  0  0  0  0  0  0  0
   18.3623   10.3666   23.3211 H   0  0  0  0  0  0  0  0  0  0  0  0
   23.5291   10.8268   18.8858 C   0  0  0  0  0  0  0  0  0  0  0  0
   24.5441   11.3078   18.0655 C   0  0  0  0  0  0  0  0  0  0  0  0
   24.9145   12.6387   18.1580 C   0  0  0  0  0  0  0  0  0  0  0  0
   24.3164   13.4687   19.0948 C   0  0  0  0  0  0  0  0  0  0  0  0
   23.3201   12.9908   19.9507 C   0  0  0  0  0  0  0  0  0  0  0  0
   22.9075   11.6618   19.8103 C   0  0  0  0  0  0  0  0  0  0  0  0
   21.9754    9.1849   19.7058 C   0  0  0  0  0  0  0  0  0  0  0  0
   23.1339    9.5148   18.9237 O   0  0  0  0  0  0  0  0  0  0  0  0
 25 26  1  0  0  0
 26 19  1  0  0  0
 19 20  1  0  0  0
 19 24  2  0  0  0
 20 21  2  0  0  0
 21 22  1  0  0  0
 22 23  2  0  0  0
 23 24  1  0  0  0
 23  1  1  0  0  0
  1  2  1  0  0  0
  1  6  2  0  0  0
  2  3  2  0  0  0
  3  4  1  0  0  0
  4  5  2  0  0  0
  5  6  1  0  0  0
  5  7  1  0  0  0
  7  8  1  0  0  0
  7  9  1  0  0  0
  7 16  1  0  0  0
  9 10  1  0  0  0
 10 11  2  0  0  0
 10 12  1  0  0  0
 12 13  1  0  0  0
 12 14  1  0  0  0
 14 16  2  0  0  0
 14 15  1  0  0  0
 15 17  1  0  0  0
 15 18  1  0  0  0
M  END
> <minimizedAffinity>
-8.15120

$$$$
4FS4_H24_A_501


 26 28  0  0  0  0  0  0  0  0999 V2000
   21.8496   11.2410   21.4791 C   0  0  0  0  0  0  0  0  0  0  0  0
   21.1276   10.0612   21.6881 C   0  0  0  0  0  0  0  0  0  0  0  0
   20.1884    9.9748   22.6997 C   0  0  0  0  0  0  0  0  0  0  0  0
   19.9593   11.0625   23.5270 C   0  0  0  0  0  0  0  0  0  0  0  0
   20.6719   12.2489   23.3596 C   0  0  0  0  0  0  0  0  0  0  0  0
   21.6165   12.3368   22.3279 C   0  0  0  0  0  0  0  0  0  0  0  0
   20.3915   13.4045   24.3386 C   0  0  0  0  0  0  0  0  0  0  0  0
   20.1614   14.7257   23.5437 C   0  0  0  0  0  0  0  0  0  0  0  0
   21.5966   13.6062   25.3097 C   0  0  0  0  0  0  0  0  0  0  0  0
   21.5875   12.5346   26.3924 C   0  0  0  0  0  0  0  0  0  0  0  0
   22.6311   12.0012   26.7461 O   0  0  0  0  0  0  0  0  0  0  0  0
   20.3681   12.1308   26.8878 N   0  0  0  0  0  0  0  0  0  0  0  0
   20.3514   11.1462   27.9766 C   0  0  0  0  0  0  0  0  0  0  0  0
   19.1594   12.6894   26.3376 C   0  0  0  0  0  0  0  0  0  0  0  0
   18.0246   12.6332   27.0382 N   0  0  0  0  0  0  0  0  0  0  0  0
   19.1401   13.2830   25.1448 N   0  0  0  0  0  0  0  0  0  0  0  0
   18.0128   12.1999   27.9222 H   0  0  0  0  0  0  0  0  0  0  0  0
   17.1995   13.0249   26.6710 H   0  0  0  0  0  0  0  0  0  0  0  0
   23.8420   12.6751   18.5972 C   0  0  0  0  0  0  0  0  0  0  0  0
   24.4277   11.5347   18.0579 C   0  0  0  0  0  0  0  0  0  0  0  0
   24.2382   10.3156   18.6864 C   0  0  0  0  0  0  0  0  0  0  0  0
   23.4305   10.2252   19.8104 C   0  0  0  0  0  0  0  0  0  0  0  0
   22.8060   11.3564   20.3432 C   0  0  0  0  0  0  0  0  0  0  0  0
   23.0510   12.5943   19.7401 C   0  0  0  0  0  0  0  0  0  0  0  0
   25.2031   14.5212   17.8751 C   0  0  0  0  0  0  0  0  0  0  0  0
   23.9087   13.9157   18.0180 O   0  0  0  0  0  0  0  0  0  0  0  0
 25 26  1  0  0  0
 26 19  1  0  0  0
 19 20  1  0  0  0
 19 24  2  0  0  0
 20 21  2  0  0  0
 21 22  1  0  0  0
 22 23  2  0  0  0
 23 24  1  0  0  0
 23  1  1  0  0  0
  1  2  1  0  0  0
  1  6  2  0  0  0
  2  3  2  0  0  0
  3  4  1  0  0  0
  4  5  2  0  0  0
  5  6  1  0  0  0
  5  7  1  0  0  0
  7  8  1  0  0  0
  7  9  1  0  0  0
  7 16  1  0  0  0
  9 10  1  0  0  0
 10 11  2  0  0  0
 10 12  1  0  0  0
 12 13  1  0  0  0
 12 14  1  0  0  0
 14 16  2  0  0  0
 14 15  1  0  0  0
 15 17  1  0  0  0
 15 18  1  0  0  0
M  END
> <minimizedAffinity>
-8.11548

$$$$
4FS4_H24_A_501


 26 28  0  0  0  0  0  0  0  0999 V2000
   22.6914   13.9889   21.3584 C   0  0  0  0  0  0  0  0  0  0  0  0
   22.9496   15.3573   21.4922 C   0  0  0  0  0  0  0  0  0  0  0  0
   22.3815   16.0885   22.5195 C   0  0  0  0  0  0  0  0  0  0  0  0
   21.5378   15.4683   23.4270 C   0  0  0  0  0  0  0  0  0  0  0  0
   21.2440   14.1102   23.3152 C   0  0  0  0  0  0  0  0  0  0  0  0
   21.8283   13.3695   22.2787 C   0  0  0  0  0  0  0  0  0  0  0  0
   20.2696   13.4951   24.3374 C   0  0  0  0  0  0  0  0  0  0  0  0
   19.1629   14.5311   24.7013 C   0  0  0  0  0  0  0  0  0  0  0  0
   21.0255   13.0891   25.6412 C   0  0  0  0  0  0  0  0  0  0  0  0
   21.7956   11.7929   25.4232 C   0  0  0  0  0  0  0  0  0  0  0  0
   22.9270   11.6607   25.8717 O   0  0  0  0  0  0  0  0  0  0  0  0
   21.2141   10.8233   24.6378 N   0  0  0  0  0  0  0  0  0  0  0  0
   21.9185    9.5457   24.4747 C   0  0  0  0  0  0  0  0  0  0  0  0
   19.9405   11.0839   24.0167 C   0  0  0  0  0  0  0  0  0  0  0  0
   19.1847   10.0649   23.6017 N   0  0  0  0  0  0  0  0  0  0  0  0
   19.4785   12.3233   23.8561 N   0  0  0  0  0  0  0  0  0  0  0  0
   19.5037    9.1397   23.7092 H   0  0  0  0  0  0  0  0  0  0  0  0
   18.3083   10.2385   23.1883 H   0  0  0  0  0  0  0  0  0  0  0  0
   24.9870   13.0144   18.5102 C   0  0  0  0  0  0  0  0  0  0  0  0
   24.4769   11.7739   18.1423 C   0  0  0  0  0  0  0  0  0  0  0  0
   23.4415   11.2234   18.8783 C   0  0  0  0  0  0  0  0  0  0  0  0
   22.8847   11.9251   19.9374 C   0  0  0  0  0  0  0  0  0  0  0  0
   23.3626   13.1885   20.2967 C   0  0  0  0  0  0  0  0  0  0  0  0
   24.4490   13.7119   19.5883 C   0  0  0  0  0  0  0  0  0  0  0  0
   26.8807   14.4956   18.5520 C   0  0  0  0  0  0  0  0  0  0  0  0
   25.9613   13.6784   17.8109 O   0  0  0  0  0  0  0  0  0  0  0  0
 25 26  1  0  0  0
 26 19  1  0  0  0
 19 20  1  0  0  0
 19 24  2  0  0  0
 20 21  2  0  0  0
 21 22  1  0  0  0
 22 23  2  0  0  0
 23 24  1  0  0  0
 23  1  1  0  0  0
  1  2  1  0  0  0
  1  6  2  0  0  0
  2  3  2  0  0  0
  3  4  1  0  0  0
  4  5  2  0  0  0
  5  6  1  0  0  0
  5  7  1  0  0  0
  7  8  1  0  0  0
  7  9  1  0  0  0
  7 16  1  0  0  0
  9 10  1  0  0  0
 10 11  2  0  0  0
 10 12  1  0  0  0
 12 13  1  0  0  0
 12 14  1  0  0  0
 14 16  2  0  0  0
 14 15  1  0  0  0
 15 17  1  0  0  0
 15 18  1  0  0  0
M  END
> <minimizedAffinity>
-7.71512

$$$$
4FS4_H24_A_501


 26 28  0  0  0  0  0  0  0  0999 V2000
   21.8102   11.2479   21.6205 C   0  0  0  0  0  0  0  0  0  0  0  0
   21.0736   10.1499   22.0775 C   0  0  0  0  0  0  0  0  0  0  0  0
   20.1591   10.2885   23.1058 C   0  0  0  0  0  0  0  0  0  0  0  0
   19.9698   11.5247   23.7026 C   0  0  0  0  0  0  0  0  0  0  0  0
   20.6982   12.6375   23.2851 C   0  0  0  0  0  0  0  0  0  0  0  0
   21.6177   12.4963   22.2368 C   0  0  0  0  0  0  0  0  0  0  0  0
   20.4626   13.9717   24.0180 C   0  0  0  0  0  0  0  0  0  0  0  0
   18.9888   14.4354   23.8097 C   0  0  0  0  0  0  0  0  0  0  0  0
   21.4188   15.0763   23.4687 C   0  0  0  0  0  0  0  0  0  0  0  0
   22.8229   14.8851   24.0279 C   0  0  0  0  0  0  0  0  0  0  0  0
   23.8024   15.0315   23.3084 O   0  0  0  0  0  0  0  0  0  0  0  0
   22.9438   14.4602   25.3319 N   0  0  0  0  0  0  0  0  0  0  0  0
   24.2914   14.3355   25.9004 C   0  0  0  0  0  0  0  0  0  0  0  0
   21.7573   14.1661   26.0943 C   0  0  0  0  0  0  0  0  0  0  0  0
   21.8142   14.1476   27.4278 N   0  0  0  0  0  0  0  0  0  0  0  0
   20.5863   13.9257   25.5057 N   0  0  0  0  0  0  0  0  0  0  0  0
   22.6676   14.3222   27.8866 H   0  0  0  0  0  0  0  0  0  0  0  0
   21.0027   13.9594   27.9526 H   0  0  0  0  0  0  0  0  0  0  0  0
   24.0102   12.1148   18.6641 C   0  0  0  0  0  0  0  0  0  0  0  0
   24.3019   10.8577   18.1453 C   0  0  0  0  0  0  0  0  0  0  0  0
   23.8500    9.7305   18.8101 C   0  0  0  0  0  0  0  0  0  0  0  0
   23.0709    9.8554   19.9510 C   0  0  0  0  0  0  0  0  0  0  0  0
   22.7393   11.1124   20.4643 C   0  0  0  0  0  0  0  0  0  0  0  0
   23.2502   12.2456   19.8233 C   0  0  0  0  0  0  0  0  0  0  0  0
   23.2982   14.2319   17.7736 C   0  0  0  0  0  0  0  0  0  0  0  0
   24.3488   13.2927   18.0502 O   0  0  0  0  0  0  0  0  0  0  0  0
 25 26  1  0  0  0
 26 19  1  0  0  0
 19 20  1  0  0  0
 19 24  2  0  0  0
 20 21  2  0  0  0
 21 22  1  0  0  0
 22 23  2  0  0  0
 23 24  1  0  0  0
 23  1  1  0  0  0
  1  2  1  0  0  0
  1  6  2  0  0  0
  2  3  2  0  0  0
  3  4  1  0  0  0
  4  5  2  0  0  0
  5  6  1  0  0  0
  5  7  1  0  0  0
  7  8  1  0  0  0
  7  9  1  0  0  0
  7 16  1  0  0  0
  9 10  1  0  0  0
 10 11  2  0  0  0
 10 12  1  0  0  0
 12 13  1  0  0  0
 12 14  1  0  0  0
 14 16  2  0  0  0
 14 15  1  0  0  0
 15 17  1  0  0  0
 15 18  1  0  0  0
M  END
> <minimizedAffinity>
-7.66319

$$$$
4FS4_H24_A_501


 26 28  0  0  0  0  0  0  0  0999 V2000
   22.3774   11.6560   20.8079 C   0  0  0  0  0  0  0  0  0  0  0  0
   21.9277   10.3345   20.7162 C   0  0  0  0  0  0  0  0  0  0  0  0
   21.0499    9.8181   21.6519 C   0  0  0  0  0  0  0  0  0  0  0  0
   20.6117   10.6094   22.7016 C   0  0  0  0  0  0  0  0  0  0  0  0
   21.0516   11.9254   22.8349 C   0  0  0  0  0  0  0  0  0  0  0  0
   21.9341   12.4492   21.8803 C   0  0  0  0  0  0  0  0  0  0  0  0
   20.5520   12.7351   24.0463 C   0  0  0  0  0  0  0  0  0  0  0  0
   19.0136   12.5438   24.2110 C   0  0  0  0  0  0  0  0  0  0  0  0
   20.8512   14.2546   23.8524 C   0  0  0  0  0  0  0  0  0  0  0  0
   22.3227   14.5417   24.1221 C   0  0  0  0  0  0  0  0  0  0  0  0
   22.9471   15.3097   23.4018 O   0  0  0  0  0  0  0  0  0  0  0  0
   22.9383   13.8461   25.1383 N   0  0  0  0  0  0  0  0  0  0  0  0
   24.3379   14.1620   25.4488 C   0  0  0  0  0  0  0  0  0  0  0  0
   22.1953   12.8492   25.8662 C   0  0  0  0  0  0  0  0  0  0  0  0
   22.6133   12.4612   27.0731 N   0  0  0  0  0  0  0  0  0  0  0  0
   21.0813   12.3071   25.3758 N   0  0  0  0  0  0  0  0  0  0  0  0
   23.4335   12.8468   27.4574 H   0  0  0  0  0  0  0  0  0  0  0  0
   22.1013   11.7894   27.5789 H   0  0  0  0  0  0  0  0  0  0  0  0
   25.3446   12.2070   18.5224 C   0  0  0  0  0  0  0  0  0  0  0  0
   25.0420   13.4386   17.9514 C   0  0  0  0  0  0  0  0  0  0  0  0
   23.8329   14.0435   18.2500 C   0  0  0  0  0  0  0  0  0  0  0  0
   22.9574   13.4526   19.1492 C   0  0  0  0  0  0  0  0  0  0  0  0
   23.2633   12.2326   19.7587 C   0  0  0  0  0  0  0  0  0  0  0  0
   24.4582   11.5970   19.4058 C   0  0  0  0  0  0  0  0  0  0  0  0
   27.1456   10.9491   19.5000 C   0  0  0  0  0  0  0  0  0  0  0  0
   26.5386   11.5565   18.3489 O   0  0  0  0  0  0  0  0  0  0  0  0
 25 26  1  0  0  0
 26 19  1  0  0  0
 19 20  1  0  0  0
 19 24  2  0  0  0
 20 21  2  0  0  0
 21 22  1  0  0  0
 22 23  2  0  0  0
 23 24  1  0  0  0
 23  1  1  0  0  0
  1  2  1  0  0  0
  1  6  2  0  0  0
  2  3  2  0  0  0
  3  4  1  0  0  0
  4  5  2  0  0  0
  5  6  1  0  0  0
  5  7  1  0  0  0
  7  8  1  0  0  0
  7  9  1  0  0  0
  7 16  1  0  0  0
  9 10  1  0  0  0
 10 11  2  0  0  0
 10 12  1  0  0  0
 12 13  1  0  0  0
 12 14  1  0  0  0
 14 16  2  0  0  0
 14 15  1  0  0  0
 15 17  1  0  0  0
 15 18  1  0  0  0
M  END
> <minimizedAffinity>
-7.59474

$$$$
4FS4_H24_A_501


 26 28  0  0  0  0  0  0  0  0999 V2000
   22.5357   11.4116   21.0066 C   0  0  0  0  0  0  0  0  0  0  0  0
   22.0438   10.3676   20.2159 C   0  0  0  0  0  0  0  0  0  0  0  0
   22.8262    9.7977   19.2280 C   0  0  0  0  0  0  0  0  0  0  0  0
   24.1112   10.2659   19.0057 C   0  0  0  0  0  0  0  0  0  0  0  0
   24.6290   11.3159   19.7625 C   0  0  0  0  0  0  0  0  0  0  0  0
   23.8374   11.8856   20.7691 C   0  0  0  0  0  0  0  0  0  0  0  0
   26.0512   11.8091   19.4362 C   0  0  0  0  0  0  0  0  0  0  0  0
   26.9936   10.5886   19.2066 C   0  0  0  0  0  0  0  0  0  0  0  0
   26.6179   12.6670   20.6105 C   0  0  0  0  0  0  0  0  0  0  0  0
   26.0056   14.0617   20.5890 C   0  0  0  0  0  0  0  0  0  0  0  0
   25.6609   14.6040   21.6309 O   0  0  0  0  0  0  0  0  0  0  0  0
   25.7755   14.6446   19.3631 N   0  0  0  0  0  0  0  0  0  0  0  0
   25.2464   16.0136   19.3324 C   0  0  0  0  0  0  0  0  0  0  0  0
   26.0692   13.9066   18.1611 C   0  0  0  0  0  0  0  0  0  0  0  0
   26.2391   14.5579   17.0084 N   0  0  0  0  0  0  0  0  0  0  0  0
   26.1952   12.5801   18.1651 N   0  0  0  0  0  0  0  0  0  0  0  0
   26.1513   15.5380   16.9793 H   0  0  0  0  0  0  0  0  0  0  0  0
   26.4523   14.0581   16.1874 H   0  0  0  0  0  0  0  0  0  0  0  0
   19.9722   11.7206   23.7751 C   0  0  0  0  0  0  0  0  0  0  0  0
   20.0151   13.0823   24.0551 C   0  0  0  0  0  0  0  0  0  0  0  0
   20.9387   13.8786   23.3994 C   0  0  0  0  0  0  0  0  0  0  0  0
   21.7752   13.3333   22.4365 C   0  0  0  0  0  0  0  0  0  0  0  0
   21.7193   11.9734   22.1185 C   0  0  0  0  0  0  0  0  0  0  0  0
   20.8269   11.1632   22.8280 C   0  0  0  0  0  0  0  0  0  0  0  0
   18.5530   11.1462   25.6293 C   0  0  0  0  0  0  0  0  0  0  0  0
   19.0538   10.8578   24.3146 O   0  0  0  0  0  0  0  0  0  0  0  0
 25 26  1  0  0  0
 26 19  1  0  0  0
 19 20  1  0  0  0
 19 24  2  0  0  0
 20 21  2  0  0  0
 21 22  1  0  0  0
 22 23  2  0  0  0
 23 24  1  0  0  0
 23  1  1  0  0  0
  1  2  1  0  0  0
  1  6  2  0  0  0
  2  3  2  0  0  0
  3  4  1  0  0  0
  4  5  2  0  0  0
  5  6  1  0  0  0
  5  7  1  0  0  0
  7  8  1  0  0  0
  7  9  1  0  0  0
  7 16  1  0  0  0
  9 10  1  0  0  0
 10 11  2  0  0  0
 10 12  1  0  0  0
 12 13  1  0  0  0
 12 14  1  0  0  0
 14 16  2  0  0  0
 14 15  1  0  0  0
 15 17  1  0  0  0
 15 18  1  0  0  0
M  END
> <minimizedAffinity>
-7.49226

$$$$
4FS4_H24_A_501


 26 28  0  0  0  0  0  0  0  0999 V2000
   21.2374   11.0405   22.4434 C   0  0  0  0  0  0  0  0  0  0  0  0
   20.0452   10.3091   22.4725 C   0  0  0  0  0  0  0  0  0  0  0  0
   19.2390   10.3127   23.5962 C   0  0  0  0  0  0  0  0  0  0  0  0
   19.6129   11.0399   24.7148 C   0  0  0  0  0  0  0  0  0  0  0  0
   20.8022   11.7669   24.7285 C   0  0  0  0  0  0  0  0  0  0  0  0
   21.6130   11.7689   23.5852 C   0  0  0  0  0  0  0  0  0  0  0  0
   21.1727   12.5223   26.0187 C   0  0  0  0  0  0  0  0  0  0  0  0
   20.7768   11.6691   27.2621 C   0  0  0  0  0  0  0  0  0  0  0  0
   20.4234   13.8897   26.0890 C   0  0  0  0  0  0  0  0  0  0  0  0
   21.0886   14.9042   25.1677 C   0  0  0  0  0  0  0  0  0  0  0  0
   20.4101   15.6598   24.4841 O   0  0  0  0  0  0  0  0  0  0  0  0
   22.4615   14.8791   25.0674 N   0  0  0  0  0  0  0  0  0  0  0  0
   23.1164   15.8941   24.2331 C   0  0  0  0  0  0  0  0  0  0  0  0
   23.2064   13.8768   25.7858 C   0  0  0  0  0  0  0  0  0  0  0  0
   24.5050   14.0649   26.0306 N   0  0  0  0  0  0  0  0  0  0  0  0
   22.6310   12.7619   26.2345 N   0  0  0  0  0  0  0  0  0  0  0  0
   24.9534   14.8806   25.7097 H   0  0  0  0  0  0  0  0  0  0  0  0
   25.0145   13.3881   26.5322 H   0  0  0  0  0  0  0  0  0  0  0  0
   23.1995   12.3774   19.4947 C   0  0  0  0  0  0  0  0  0  0  0  0
   23.4288   11.2220   18.7552 C   0  0  0  0  0  0  0  0  0  0  0  0
   23.0164   10.0016   19.2626 C   0  0  0  0  0  0  0  0  0  0  0  0
   22.3357    9.9388   20.4696 C   0  0  0  0  0  0  0  0  0  0  0  0
   22.0662   11.0951   21.2070 C   0  0  0  0  0  0  0  0  0  0  0  0
   22.5394   12.3175   20.7191 C   0  0  0  0  0  0  0  0  0  0  0  0
   24.6063   13.7862   18.1462 C   0  0  0  0  0  0  0  0  0  0  0  0
   23.5040   13.6396   19.0551 O   0  0  0  0  0  0  0  0  0  0  0  0
 25 26  1  0  0  0
 26 19  1  0  0  0
 19 20  1  0  0  0
 19 24  2  0  0  0
 20 21  2  0  0  0
 21 22  1  0  0  0
 22 23  2  0  0  0
 23 24  1  0  0  0
 23  1  1  0  0  0
  1  2  1  0  0  0
  1  6  2  0  0  0
  2  3  2  0  0  0
  3  4  1  0  0  0
  4  5  2  0  0  0
  5  6  1  0  0  0
  5  7  1  0  0  0
  7  8  1  0  0  0
  7  9  1  0  0  0
  7 16  1  0  0  0
  9 10  1  0  0  0
 10 11  2  0  0  0
 10 12  1  0  0  0
 12 13  1  0  0  0
 12 14  1  0  0  0
 14 16  2  0  0  0
 14 15  1  0  0  0
 15 17  1  0  0  0
 15 18  1  0  0  0
M  END
> <minimizedAffinity>
-7.48280

$$$$
