5D3T_56Y_A_201


 28 29  0  0  0  0  0  0  0  0999 V2000
    8.2353    6.0343   -0.9965 C   0  0  0  0  0  0  0  0  0  0  0  0
    7.8273    6.4519   -2.2175 N   0  0  0  0  0  0  0  0  0  0  0  0
    7.5255    6.1755   -0.0205 O   0  0  0  0  0  0  0  0  0  0  0  0
    8.7481    6.6848   -3.3346 C   0  0  0  0  0  0  0  0  0  0  0  0
   10.6932    5.9082   -0.0277 C   0  0  0  0  0  0  0  0  0  0  0  0
   11.7385    5.0288   -0.2878 C   0  0  0  0  0  0  0  0  0  0  0  0
   11.3082    4.0301   -1.2816 C   0  0  0  0  0  0  0  0  0  0  0  0
   12.1086    2.9064   -1.8814 C   0  0  0  0  0  0  0  0  0  0  0  0
    9.5971    5.3909   -0.8940 C   0  0  0  0  0  0  0  0  0  0  0  0
   10.0285    4.3163   -1.5921 N   0  0  0  0  0  0  0  0  0  0  0  0
    9.4829    3.8123   -2.2382 H   0  0  0  0  0  0  0  0  0  0  0  0
   13.1103    5.0218    0.2559 C   0  0  0  0  0  0  0  0  0  0  0  0
   14.0797    6.0258   -0.3145 C   0  0  0  0  0  0  0  0  0  0  0  0
   13.4102    4.1905    1.0979 O   0  0  0  0  0  0  0  0  0  0  0  0
   10.4288    6.5563    2.3444 C   0  0  0  0  0  0  0  0  0  0  0  0
   10.6089    7.0807    0.9274 C   0  0  0  0  0  0  0  0  0  0  0  0
    6.4179    6.7306   -2.5395 C   0  0  0  0  0  0  0  0  0  0  0  0
    6.2551    8.1829   -2.9179 C   0  0  0  0  0  0  0  0  0  0  0  0
    6.4737    9.2042   -1.9907 C   0  0  0  0  0  0  0  0  0  0  0  0
    5.8981    8.5017   -4.2153 C   0  0  0  0  0  0  0  0  0  0  0  0
    5.7411    9.8231   -4.6191 C   0  0  0  0  0  0  0  0  0  0  0  0
    5.9693   10.8421   -3.6965 C   0  0  0  0  0  0  0  0  0  0  0  0
    6.3316   10.5299   -2.3862 C   0  0  0  0  0  0  0  0  0  0  0  0
    5.3697   10.1340   -6.0518 C   0  0  0  0  0  0  0  0  0  0  0  0
    5.8768   11.0691   -6.6808 O   0  0  0  0  0  0  0  0  0  0  0  0
    4.4253    9.2964   -6.6887 N   0  0  0  0  0  0  0  0  0  0  0  0
    4.1619    9.4714   -7.6210 H   0  0  0  0  0  0  0  0  0  0  0  0
    4.0312    8.5382   -6.1998 H   0  0  0  0  0  0  0  0  0  0  0  0
 26 24  1  0  0  0
 25 24  2  0  0  0
 24 21  1  0  0  0
 21 20  2  0  0  0
 21 22  1  0  0  0
 20 18  1  0  0  0
  4  2  1  0  0  0
 22 23  2  0  0  0
  8  7  1  0  0  0
 18 17  1  0  0  0
 18 19  2  0  0  0
 17  2  1  0  0  0
  2  1  1  0  0  0
 10  7  1  0  0  0
 10  9  1  0  0  0
  7  6  2  0  0  0
 23 19  1  0  0  0
  9  1  1  0  0  0
  9  5  2  0  0  0
  1  3  2  0  0  0
  6 12  1  0  0  0
  6  5  1  0  0  0
 14 12  2  0  0  0
 12 13  1  0  0  0
  5 16  1  0  0  0
 16 15  1  0  0  0
 10 11  1  0  0  0
 26 27  1  0  0  0
 26 28  1  0  0  0
M  END
> <minimizedAffinity>
-7.58802

$$$$
5D3T_56Y_A_201


 28 29  0  0  0  0  0  0  0  0999 V2000
   10.8688    4.8631   -0.9752 C   0  0  0  0  0  0  0  0  0  0  0  0
   11.7437    5.6142   -0.2664 N   0  0  0  0  0  0  0  0  0  0  0  0
   10.9721    3.6530   -1.0098 O   0  0  0  0  0  0  0  0  0  0  0  0
   11.9334    7.0507   -0.4912 C   0  0  0  0  0  0  0  0  0  0  0  0
    8.4308    5.8774   -1.1282 C   0  0  0  0  0  0  0  0  0  0  0  0
    7.7612    6.5041   -2.1734 C   0  0  0  0  0  0  0  0  0  0  0  0
    8.6407    6.5723   -3.3532 C   0  0  0  0  0  0  0  0  0  0  0  0
    8.3342    7.1369   -4.7135 C   0  0  0  0  0  0  0  0  0  0  0  0
    9.7674    5.5816   -1.7164 C   0  0  0  0  0  0  0  0  0  0  0  0
    9.8094    6.0013   -3.0011 N   0  0  0  0  0  0  0  0  0  0  0  0
   10.5868    5.9032   -3.5971 H   0  0  0  0  0  0  0  0  0  0  0  0
    6.3810    7.0240   -2.2198 C   0  0  0  0  0  0  0  0  0  0  0  0
    6.1549    8.4187   -1.6940 C   0  0  0  0  0  0  0  0  0  0  0  0
    5.4888    6.3010   -2.6337 O   0  0  0  0  0  0  0  0  0  0  0  0
    8.0470    6.8774    1.1010 C   0  0  0  0  0  0  0  0  0  0  0  0
    7.9884    5.5903    0.2917 C   0  0  0  0  0  0  0  0  0  0  0  0
   12.6050    5.0579    0.7902 C   0  0  0  0  0  0  0  0  0  0  0  0
   12.2437    5.6694    2.1223 C   0  0  0  0  0  0  0  0  0  0  0  0
   13.1289    6.5113    2.7992 C   0  0  0  0  0  0  0  0  0  0  0  0
   11.0028    5.3993    2.6693 C   0  0  0  0  0  0  0  0  0  0  0  0
   10.6163    5.9416    3.8902 C   0  0  0  0  0  0  0  0  0  0  0  0
   11.4956    6.7897    4.5604 C   0  0  0  0  0  0  0  0  0  0  0  0
   12.7486    7.0692    4.0150 C   0  0  0  0  0  0  0  0  0  0  0  0
    9.2431    5.6399    4.4476 C   0  0  0  0  0  0  0  0  0  0  0  0
    8.4547    6.5291    4.7870 O   0  0  0  0  0  0  0  0  0  0  0  0
    8.8528    4.2851    4.5519 N   0  0  0  0  0  0  0  0  0  0  0  0
    7.9654    4.0546    4.9106 H   0  0  0  0  0  0  0  0  0  0  0  0
    9.4685    3.5721    4.2658 H   0  0  0  0  0  0  0  0  0  0  0  0
 26 24  1  0  0  0
 25 24  2  0  0  0
 24 21  1  0  0  0
 21 20  2  0  0  0
 21 22  1  0  0  0
 20 18  1  0  0  0
  4  2  1  0  0  0
 22 23  2  0  0  0
  8  7  1  0  0  0
 18 17  1  0  0  0
 18 19  2  0  0  0
 17  2  1  0  0  0
  2  1  1  0  0  0
 10  7  1  0  0  0
 10  9  1  0  0  0
  7  6  2  0  0  0
 23 19  1  0  0  0
  9  1  1  0  0  0
  9  5  2  0  0  0
  1  3  2  0  0  0
  6 12  1  0  0  0
  6  5  1  0  0  0
 14 12  2  0  0  0
 12 13  1  0  0  0
  5 16  1  0  0  0
 16 15  1  0  0  0
 10 11  1  0  0  0
 26 27  1  0  0  0
 26 28  1  0  0  0
M  END
> <minimizedAffinity>
-7.27925

$$$$
5D3T_56Y_A_201


 28 29  0  0  0  0  0  0  0  0999 V2000
    8.2464    5.9834   -1.0852 C   0  0  0  0  0  0  0  0  0  0  0  0
    7.9552    6.4676   -2.3150 N   0  0  0  0  0  0  0  0  0  0  0  0
    7.4391    6.0557   -0.1800 O   0  0  0  0  0  0  0  0  0  0  0  0
    8.9792    6.7802   -3.3170 C   0  0  0  0  0  0  0  0  0  0  0  0
   10.6307    5.8883    0.0559 C   0  0  0  0  0  0  0  0  0  0  0  0
   11.7002    5.0178   -0.1235 C   0  0  0  0  0  0  0  0  0  0  0  0
   11.3511    4.0086   -1.1382 C   0  0  0  0  0  0  0  0  0  0  0  0
   12.2027    2.8894   -1.6720 C   0  0  0  0  0  0  0  0  0  0  0  0
    9.6037    5.3545   -0.8822 C   0  0  0  0  0  0  0  0  0  0  0  0
   10.0939    4.2799   -1.5404 N   0  0  0  0  0  0  0  0  0  0  0  0
    9.6002    3.7664   -2.2200 H   0  0  0  0  0  0  0  0  0  0  0  0
   13.0301    5.0282    0.5159 C   0  0  0  0  0  0  0  0  0  0  0  0
   14.1780    5.5712   -0.2967 C   0  0  0  0  0  0  0  0  0  0  0  0
   13.1517    4.5653    1.6388 O   0  0  0  0  0  0  0  0  0  0  0  0
   10.0777    6.5531    2.3730 C   0  0  0  0  0  0  0  0  0  0  0  0
   10.4676    7.0658    0.9945 C   0  0  0  0  0  0  0  0  0  0  0  0
    6.5802    6.7451   -2.7621 C   0  0  0  0  0  0  0  0  0  0  0  0
    6.4072    8.2253   -3.0026 C   0  0  0  0  0  0  0  0  0  0  0  0
    6.4080    8.7565   -4.2942 C   0  0  0  0  0  0  0  0  0  0  0  0
    6.2282    9.0642   -1.9179 C   0  0  0  0  0  0  0  0  0  0  0  0
    6.0575   10.4344   -2.0829 C   0  0  0  0  0  0  0  0  0  0  0  0
    6.0481   10.9628   -3.3723 C   0  0  0  0  0  0  0  0  0  0  0  0
    6.2260   10.1237   -4.4723 C   0  0  0  0  0  0  0  0  0  0  0  0
    5.8441   11.3179   -0.8740 C   0  0  0  0  0  0  0  0  0  0  0  0
    6.5145   12.3357   -0.6695 O   0  0  0  0  0  0  0  0  0  0  0  0
    4.8166   10.9662    0.0311 N   0  0  0  0  0  0  0  0  0  0  0  0
    4.6517   11.5203    0.8280 H   0  0  0  0  0  0  0  0  0  0  0  0
    4.2661   10.1672   -0.1354 H   0  0  0  0  0  0  0  0  0  0  0  0
 26 24  1  0  0  0
 25 24  2  0  0  0
 24 21  1  0  0  0
 21 20  2  0  0  0
 21 22  1  0  0  0
 20 18  1  0  0  0
  4  2  1  0  0  0
 22 23  2  0  0  0
  8  7  1  0  0  0
 18 17  1  0  0  0
 18 19  2  0  0  0
 17  2  1  0  0  0
  2  1  1  0  0  0
 10  7  1  0  0  0
 10  9  1  0  0  0
  7  6  2  0  0  0
 23 19  1  0  0  0
  9  1  1  0  0  0
  9  5  2  0  0  0
  1  3  2  0  0  0
  6 12  1  0  0  0
  6  5  1  0  0  0
 14 12  2  0  0  0
 12 13  1  0  0  0
  5 16  1  0  0  0
 16 15  1  0  0  0
 10 11  1  0  0  0
 26 27  1  0  0  0
 26 28  1  0  0  0
M  END
> <minimizedAffinity>
-7.27341

$$$$
5D3T_56Y_A_201


 28 29  0  0  0  0  0  0  0  0999 V2000
    7.7464    6.2839   -1.5293 C   0  0  0  0  0  0  0  0  0  0  0  0
    9.0302    5.8560   -1.5528 N   0  0  0  0  0  0  0  0  0  0  0  0
    6.9507    5.8234   -0.7350 O   0  0  0  0  0  0  0  0  0  0  0  0
    9.9201    6.0520   -2.7016 C   0  0  0  0  0  0  0  0  0  0  0  0
    6.5491    8.5561   -2.1617 C   0  0  0  0  0  0  0  0  0  0  0  0
    6.4001    9.2067   -3.3816 C   0  0  0  0  0  0  0  0  0  0  0  0
    7.0569    8.4238   -4.4426 C   0  0  0  0  0  0  0  0  0  0  0  0
    7.1284    8.7240   -5.9149 C   0  0  0  0  0  0  0  0  0  0  0  0
    7.3435    7.3480   -2.5214 C   0  0  0  0  0  0  0  0  0  0  0  0
    7.5886    7.3359   -3.8511 N   0  0  0  0  0  0  0  0  0  0  0  0
    8.0870    6.6296   -4.3222 H   0  0  0  0  0  0  0  0  0  0  0  0
    5.6888   10.4624   -3.6895 C   0  0  0  0  0  0  0  0  0  0  0  0
    4.1877   10.3893   -3.8087 C   0  0  0  0  0  0  0  0  0  0  0  0
    6.3363   11.4805   -3.8747 O   0  0  0  0  0  0  0  0  0  0  0  0
    4.6165    8.6173   -0.6196 C   0  0  0  0  0  0  0  0  0  0  0  0
    6.0927    8.9529   -0.7731 C   0  0  0  0  0  0  0  0  0  0  0  0
    9.6551    5.1347   -0.4316 C   0  0  0  0  0  0  0  0  0  0  0  0
   11.1580    5.2386   -0.5281 C   0  0  0  0  0  0  0  0  0  0  0  0
   11.8343    6.3899   -0.1189 C   0  0  0  0  0  0  0  0  0  0  0  0
   11.8744    4.1616   -1.0170 C   0  0  0  0  0  0  0  0  0  0  0  0
   13.2606    4.2014   -1.1209 C   0  0  0  0  0  0  0  0  0  0  0  0
   13.9360    5.3464   -0.7031 C   0  0  0  0  0  0  0  0  0  0  0  0
   13.2215    6.4368   -0.2067 C   0  0  0  0  0  0  0  0  0  0  0  0
   14.0119    2.9964   -1.6415 C   0  0  0  0  0  0  0  0  0  0  0  0
   15.2458    2.9582   -1.6998 O   0  0  0  0  0  0  0  0  0  0  0  0
   13.2595    1.8702   -2.0468 N   0  0  0  0  0  0  0  0  0  0  0  0
   13.7180    1.0696   -2.3904 H   0  0  0  0  0  0  0  0  0  0  0  0
   12.2771    1.8865   -1.9855 H   0  0  0  0  0  0  0  0  0  0  0  0
 26 24  1  0  0  0
 25 24  2  0  0  0
 24 21  1  0  0  0
 21 20  2  0  0  0
 21 22  1  0  0  0
 20 18  1  0  0  0
  4  2  1  0  0  0
 22 23  2  0  0  0
  8  7  1  0  0  0
 18 17  1  0  0  0
 18 19  2  0  0  0
 17  2  1  0  0  0
  2  1  1  0  0  0
 10  7  1  0  0  0
 10  9  1  0  0  0
  7  6  2  0  0  0
 23 19  1  0  0  0
  9  1  1  0  0  0
  9  5  2  0  0  0
  1  3  2  0  0  0
  6 12  1  0  0  0
  6  5  1  0  0  0
 14 12  2  0  0  0
 12 13  1  0  0  0
  5 16  1  0  0  0
 16 15  1  0  0  0
 10 11  1  0  0  0
 26 27  1  0  0  0
 26 28  1  0  0  0
M  END
> <minimizedAffinity>
-6.80910

$$$$
5D3T_56Y_A_201


 28 29  0  0  0  0  0  0  0  0999 V2000
   10.7336    5.5981    1.4484 C   0  0  0  0  0  0  0  0  0  0  0  0
   11.1314    5.5311    0.1564 N   0  0  0  0  0  0  0  0  0  0  0  0
    9.7858    4.9481    1.8428 O   0  0  0  0  0  0  0  0  0  0  0  0
   11.9742    6.5502   -0.4771 C   0  0  0  0  0  0  0  0  0  0  0  0
   10.8954    7.6390    3.1230 C   0  0  0  0  0  0  0  0  0  0  0  0
   11.9797    8.1891    3.7977 C   0  0  0  0  0  0  0  0  0  0  0  0
   13.2023    7.4385    3.4632 C   0  0  0  0  0  0  0  0  0  0  0  0
   14.6089    7.6893    3.9339 C   0  0  0  0  0  0  0  0  0  0  0  0
   11.5070    6.5053    2.3744 C   0  0  0  0  0  0  0  0  0  0  0  0
   12.8373    6.4596    2.6120 N   0  0  0  0  0  0  0  0  0  0  0  0
   13.4544    5.8016    2.2175 H   0  0  0  0  0  0  0  0  0  0  0  0
   12.0242    9.3567    4.6990 C   0  0  0  0  0  0  0  0  0  0  0  0
   11.8094   10.7128    4.0763 C   0  0  0  0  0  0  0  0  0  0  0  0
   12.2716    9.1837    5.8817 O   0  0  0  0  0  0  0  0  0  0  0  0
    8.7831    7.4246    4.3916 C   0  0  0  0  0  0  0  0  0  0  0  0
    9.4284    8.0153    3.1466 C   0  0  0  0  0  0  0  0  0  0  0  0
   10.7417    4.4352   -0.7463 C   0  0  0  0  0  0  0  0  0  0  0  0
   11.9732    3.7193   -1.2463 C   0  0  0  0  0  0  0  0  0  0  0  0
   13.1524    3.6936   -0.4986 C   0  0  0  0  0  0  0  0  0  0  0  0
   11.9199    3.0639   -2.4628 C   0  0  0  0  0  0  0  0  0  0  0  0
   13.0227    2.3834   -2.9673 C   0  0  0  0  0  0  0  0  0  0  0  0
   14.1960    2.3492   -2.2163 C   0  0  0  0  0  0  0  0  0  0  0  0
   14.2580    3.0059   -0.9873 C   0  0  0  0  0  0  0  0  0  0  0  0
   12.9208    1.6609   -4.2921 C   0  0  0  0  0  0  0  0  0  0  0  0
   11.9048    1.7029   -4.9943 O   0  0  0  0  0  0  0  0  0  0  0  0
   14.0494    0.9376   -4.7414 N   0  0  0  0  0  0  0  0  0  0  0  0
   14.0159    0.4562   -5.5995 H   0  0  0  0  0  0  0  0  0  0  0  0
   14.8688    0.9152   -4.1961 H   0  0  0  0  0  0  0  0  0  0  0  0
 26 24  1  0  0  0
 25 24  2  0  0  0
 24 21  1  0  0  0
 21 20  2  0  0  0
 21 22  1  0  0  0
 20 18  1  0  0  0
  4  2  1  0  0  0
 22 23  2  0  0  0
  8  7  1  0  0  0
 18 17  1  0  0  0
 18 19  2  0  0  0
 17  2  1  0  0  0
  2  1  1  0  0  0
 10  7  1  0  0  0
 10  9  1  0  0  0
  7  6  2  0  0  0
 23 19  1  0  0  0
  9  1  1  0  0  0
  9  5  2  0  0  0
  1  3  2  0  0  0
  6 12  1  0  0  0
  6  5  1  0  0  0
 14 12  2  0  0  0
 12 13  1  0  0  0
  5 16  1  0  0  0
 16 15  1  0  0  0
 10 11  1  0  0  0
 26 27  1  0  0  0
 26 28  1  0  0  0
M  END
> <minimizedAffinity>
-6.71691

$$$$
5D3T_56Y_A_201


 28 29  0  0  0  0  0  0  0  0999 V2000
    9.2380    6.5883    2.7605 C   0  0  0  0  0  0  0  0  0  0  0  0
    9.2490    5.9000    1.5952 N   0  0  0  0  0  0  0  0  0  0  0  0
    8.2216    7.1213    3.1596 O   0  0  0  0  0  0  0  0  0  0  0  0
   10.4788    5.5840    0.8619 C   0  0  0  0  0  0  0  0  0  0  0  0
   11.5211    7.7683    3.3860 C   0  0  0  0  0  0  0  0  0  0  0  0
   12.5349    7.3992    4.2632 C   0  0  0  0  0  0  0  0  0  0  0  0
   12.1876    6.1226    4.9109 C   0  0  0  0  0  0  0  0  0  0  0  0
   12.9922    5.3326    5.9067 C   0  0  0  0  0  0  0  0  0  0  0  0
   10.5281    6.6682    3.5403 C   0  0  0  0  0  0  0  0  0  0  0  0
   10.9854    5.7545    4.4259 N   0  0  0  0  0  0  0  0  0  0  0  0
   10.5060    4.9334    4.6813 H   0  0  0  0  0  0  0  0  0  0  0  0
   13.8128    8.0783    4.5523 C   0  0  0  0  0  0  0  0  0  0  0  0
   13.8176    9.0815    5.6778 C   0  0  0  0  0  0  0  0  0  0  0  0
   14.7839    7.8368    3.8534 O   0  0  0  0  0  0  0  0  0  0  0  0
   11.1405   10.2120    3.3930 C   0  0  0  0  0  0  0  0  0  0  0  0
   11.3765    8.9954    2.5101 C   0  0  0  0  0  0  0  0  0  0  0  0
    8.0233    5.4152    0.9393 C   0  0  0  0  0  0  0  0  0  0  0  0
    7.6154    6.3697   -0.1568 C   0  0  0  0  0  0  0  0  0  0  0  0
    6.6930    7.3920    0.0762 C   0  0  0  0  0  0  0  0  0  0  0  0
    8.1834    6.2332   -1.4102 C   0  0  0  0  0  0  0  0  0  0  0  0
    7.8485    7.0891   -2.4538 C   0  0  0  0  0  0  0  0  0  0  0  0
    6.9359    8.1154   -2.2183 C   0  0  0  0  0  0  0  0  0  0  0  0
    6.3595    8.2618   -0.9565 C   0  0  0  0  0  0  0  0  0  0  0  0
    8.5056    6.9217   -3.8058 C   0  0  0  0  0  0  0  0  0  0  0  0
    8.5530    7.8342   -4.6379 O   0  0  0  0  0  0  0  0  0  0  0  0
    9.1068    5.6768   -4.1012 N   0  0  0  0  0  0  0  0  0  0  0  0
    9.5430    5.5351   -4.9723 H   0  0  0  0  0  0  0  0  0  0  0  0
    9.0894    4.9514   -3.4357 H   0  0  0  0  0  0  0  0  0  0  0  0
 26 24  1  0  0  0
 25 24  2  0  0  0
 24 21  1  0  0  0
 21 20  2  0  0  0
 21 22  1  0  0  0
 20 18  1  0  0  0
  4  2  1  0  0  0
 22 23  2  0  0  0
  8  7  1  0  0  0
 18 17  1  0  0  0
 18 19  2  0  0  0
 17  2  1  0  0  0
  2  1  1  0  0  0
 10  7  1  0  0  0
 10  9  1  0  0  0
  7  6  2  0  0  0
 23 19  1  0  0  0
  9  1  1  0  0  0
  9  5  2  0  0  0
  1  3  2  0  0  0
  6 12  1  0  0  0
  6  5  1  0  0  0
 14 12  2  0  0  0
 12 13  1  0  0  0
  5 16  1  0  0  0
 16 15  1  0  0  0
 10 11  1  0  0  0
 26 27  1  0  0  0
 26 28  1  0  0  0
M  END
> <minimizedAffinity>
-6.57412

$$$$
5D3T_56Y_A_201


 28 29  0  0  0  0  0  0  0  0999 V2000
    8.1214    6.4785   -1.6724 C   0  0  0  0  0  0  0  0  0  0  0  0
    8.8003    5.9937   -0.6066 N   0  0  0  0  0  0  0  0  0  0  0  0
    8.3734    6.0963   -2.7978 O   0  0  0  0  0  0  0  0  0  0  0  0
    8.8431    6.6713    0.6930 C   0  0  0  0  0  0  0  0  0  0  0  0
    6.7924    8.6795   -2.2929 C   0  0  0  0  0  0  0  0  0  0  0  0
    5.7566    9.3408   -1.6421 C   0  0  0  0  0  0  0  0  0  0  0  0
    5.4053    8.6157   -0.4088 C   0  0  0  0  0  0  0  0  0  0  0  0
    4.3680    8.9735    0.6202 C   0  0  0  0  0  0  0  0  0  0  0  0
    7.0466    7.5059   -1.4111 C   0  0  0  0  0  0  0  0  0  0  0  0
    6.2178    7.5426   -0.3435 N   0  0  0  0  0  0  0  0  0  0  0  0
    6.2090    6.8769    0.3818 H   0  0  0  0  0  0  0  0  0  0  0  0
    5.0685   10.5923   -2.0134 C   0  0  0  0  0  0  0  0  0  0  0  0
    3.9209   10.4822   -2.9849 C   0  0  0  0  0  0  0  0  0  0  0  0
    5.4768   11.6500   -1.5612 O   0  0  0  0  0  0  0  0  0  0  0  0
    6.6200    8.5147   -4.7547 C   0  0  0  0  0  0  0  0  0  0  0  0
    7.4900    8.9911   -3.6007 C   0  0  0  0  0  0  0  0  0  0  0  0
    9.5784    4.7446   -0.6528 C   0  0  0  0  0  0  0  0  0  0  0  0
   11.0541    5.0601   -0.6946 C   0  0  0  0  0  0  0  0  0  0  0  0
   11.5307    6.3435   -0.4186 C   0  0  0  0  0  0  0  0  0  0  0  0
   11.9475    4.0488   -0.9968 C   0  0  0  0  0  0  0  0  0  0  0  0
   13.3175    4.2828   -1.0424 C   0  0  0  0  0  0  0  0  0  0  0  0
   13.7935    5.5610   -0.7569 C   0  0  0  0  0  0  0  0  0  0  0  0
   12.8997    6.5867   -0.4491 C   0  0  0  0  0  0  0  0  0  0  0  0
   14.2658    3.1472   -1.3566 C   0  0  0  0  0  0  0  0  0  0  0  0
   15.4162    3.1000   -0.9078 O   0  0  0  0  0  0  0  0  0  0  0  0
   13.7925    2.0951   -2.1738 N   0  0  0  0  0  0  0  0  0  0  0  0
   14.3845    1.3409   -2.3972 H   0  0  0  0  0  0  0  0  0  0  0  0
   12.8709    2.1167   -2.5195 H   0  0  0  0  0  0  0  0  0  0  0  0
 26 24  1  0  0  0
 25 24  2  0  0  0
 24 21  1  0  0  0
 21 20  2  0  0  0
 21 22  1  0  0  0
 20 18  1  0  0  0
  4  2  1  0  0  0
 22 23  2  0  0  0
  8  7  1  0  0  0
 18 17  1  0  0  0
 18 19  2  0  0  0
 17  2  1  0  0  0
  2  1  1  0  0  0
 10  7  1  0  0  0
 10  9  1  0  0  0
  7  6  2  0  0  0
 23 19  1  0  0  0
  9  1  1  0  0  0
  9  5  2  0  0  0
  1  3  2  0  0  0
  6 12  1  0  0  0
  6  5  1  0  0  0
 14 12  2  0  0  0
 12 13  1  0  0  0
  5 16  1  0  0  0
 16 15  1  0  0  0
 10 11  1  0  0  0
 26 27  1  0  0  0
 26 28  1  0  0  0
M  END
> <minimizedAffinity>
-6.45397

$$$$
5D3T_56Y_A_201


 28 29  0  0  0  0  0  0  0  0999 V2000
    8.2668    5.9084    2.0205 C   0  0  0  0  0  0  0  0  0  0  0  0
    7.6973    7.0970    2.3282 N   0  0  0  0  0  0  0  0  0  0  0  0
    7.5834    4.9260    1.8104 O   0  0  0  0  0  0  0  0  0  0  0  0
    8.4271    8.1929    2.9735 C   0  0  0  0  0  0  0  0  0  0  0  0
   10.5268    5.3476    0.7658 C   0  0  0  0  0  0  0  0  0  0  0  0
   11.8526    5.4517    1.1721 C   0  0  0  0  0  0  0  0  0  0  0  0
   11.9081    5.9762    2.5476 C   0  0  0  0  0  0  0  0  0  0  0  0
   13.1206    6.2274    3.4018 C   0  0  0  0  0  0  0  0  0  0  0  0
    9.7736    5.8501    1.9491 C   0  0  0  0  0  0  0  0  0  0  0  0
   10.6347    6.1831    2.9369 N   0  0  0  0  0  0  0  0  0  0  0  0
   10.3680    6.5291    3.8192 H   0  0  0  0  0  0  0  0  0  0  0  0
   13.0838    5.0907    0.4432 C   0  0  0  0  0  0  0  0  0  0  0  0
   13.7575    6.1824   -0.3487 C   0  0  0  0  0  0  0  0  0  0  0  0
   13.4744    3.9347    0.4753 O   0  0  0  0  0  0  0  0  0  0  0  0
   10.3018    5.9080   -1.6325 C   0  0  0  0  0  0  0  0  0  0  0  0
    9.9349    4.8990   -0.5542 C   0  0  0  0  0  0  0  0  0  0  0  0
    6.2817    7.4005    2.0605 C   0  0  0  0  0  0  0  0  0  0  0  0
    6.1504    8.1098    0.7344 C   0  0  0  0  0  0  0  0  0  0  0  0
    5.5517    9.3680    0.6396 C   0  0  0  0  0  0  0  0  0  0  0  0
    6.6504    7.5026   -0.4029 C   0  0  0  0  0  0  0  0  0  0  0  0
    6.5620    8.1144   -1.6486 C   0  0  0  0  0  0  0  0  0  0  0  0
    5.9738    9.3742   -1.7414 C   0  0  0  0  0  0  0  0  0  0  0  0
    5.4686    9.9950   -0.5990 C   0  0  0  0  0  0  0  0  0  0  0  0
    7.1383    7.4288   -2.8673 C   0  0  0  0  0  0  0  0  0  0  0  0
    7.0452    6.2100   -3.0491 O   0  0  0  0  0  0  0  0  0  0  0  0
    7.7805    8.2314   -3.8380 N   0  0  0  0  0  0  0  0  0  0  0  0
    8.1663    7.8162   -4.6430 H   0  0  0  0  0  0  0  0  0  0  0  0
    7.8419    9.2054   -3.7089 H   0  0  0  0  0  0  0  0  0  0  0  0
 26 24  1  0  0  0
 25 24  2  0  0  0
 24 21  1  0  0  0
 21 20  2  0  0  0
 21 22  1  0  0  0
 20 18  1  0  0  0
  4  2  1  0  0  0
 22 23  2  0  0  0
  8  7  1  0  0  0
 18 17  1  0  0  0
 18 19  2  0  0  0
 17  2  1  0  0  0
  2  1  1  0  0  0
 10  7  1  0  0  0
 10  9  1  0  0  0
  7  6  2  0  0  0
 23 19  1  0  0  0
  9  1  1  0  0  0
  9  5  2  0  0  0
  1  3  2  0  0  0
  6 12  1  0  0  0
  6  5  1  0  0  0
 14 12  2  0  0  0
 12 13  1  0  0  0
  5 16  1  0  0  0
 16 15  1  0  0  0
 10 11  1  0  0  0
 26 27  1  0  0  0
 26 28  1  0  0  0
M  END
> <minimizedAffinity>
-6.44962

$$$$
5D3T_56Y_A_201


 28 29  0  0  0  0  0  0  0  0999 V2000
    5.9356    6.6791   -1.8886 C   0  0  0  0  0  0  0  0  0  0  0  0
    5.3362    7.8243   -1.4873 N   0  0  0  0  0  0  0  0  0  0  0  0
    5.4078    5.9539   -2.7082 O   0  0  0  0  0  0  0  0  0  0  0  0
    5.6930    8.5253   -0.2498 C   0  0  0  0  0  0  0  0  0  0  0  0
    8.5079    6.0951   -2.0843 C   0  0  0  0  0  0  0  0  0  0  0  0
    9.4567    5.7913   -1.1142 C   0  0  0  0  0  0  0  0  0  0  0  0
    8.8303    5.8293    0.2186 C   0  0  0  0  0  0  0  0  0  0  0  0
    9.4608    5.5429    1.5540 C   0  0  0  0  0  0  0  0  0  0  0  0
    7.2759    6.3393   -1.2828 C   0  0  0  0  0  0  0  0  0  0  0  0
    7.5369    6.1581    0.0315 N   0  0  0  0  0  0  0  0  0  0  0  0
    6.8733    6.2533    0.7525 H   0  0  0  0  0  0  0  0  0  0  0  0
   10.8795    5.4361   -1.2784 C   0  0  0  0  0  0  0  0  0  0  0  0
   11.2013    3.9819   -1.5120 C   0  0  0  0  0  0  0  0  0  0  0  0
   11.7245    6.3111   -1.1766 O   0  0  0  0  0  0  0  0  0  0  0  0
    8.5722    7.6897   -3.9738 C   0  0  0  0  0  0  0  0  0  0  0  0
    8.6434    6.2196   -3.5877 C   0  0  0  0  0  0  0  0  0  0  0  0
    4.2528    8.4705   -2.2465 C   0  0  0  0  0  0  0  0  0  0  0  0
    4.8136    9.1235   -3.4867 C   0  0  0  0  0  0  0  0  0  0  0  0
    5.8679   10.0363   -3.4136 C   0  0  0  0  0  0  0  0  0  0  0  0
    4.2783    8.7937   -4.7183 C   0  0  0  0  0  0  0  0  0  0  0  0
    4.7613    9.3603   -5.8928 C   0  0  0  0  0  0  0  0  0  0  0  0
    5.8201   10.2633   -5.8205 C   0  0  0  0  0  0  0  0  0  0  0  0
    6.3675   10.6003   -4.5826 C   0  0  0  0  0  0  0  0  0  0  0  0
    4.1643    8.9599   -7.2235 C   0  0  0  0  0  0  0  0  0  0  0  0
    4.5681    9.4199   -8.2971 O   0  0  0  0  0  0  0  0  0  0  0  0
    3.1246    8.0020   -7.2224 N   0  0  0  0  0  0  0  0  0  0  0  0
    2.7145    7.7197   -8.0717 H   0  0  0  0  0  0  0  0  0  0  0  0
    2.8106    7.6172   -6.3723 H   0  0  0  0  0  0  0  0  0  0  0  0
 26 24  1  0  0  0
 25 24  2  0  0  0
 24 21  1  0  0  0
 21 20  2  0  0  0
 21 22  1  0  0  0
 20 18  1  0  0  0
  4  2  1  0  0  0
 22 23  2  0  0  0
  8  7  1  0  0  0
 18 17  1  0  0  0
 18 19  2  0  0  0
 17  2  1  0  0  0
  2  1  1  0  0  0
 10  7  1  0  0  0
 10  9  1  0  0  0
  7  6  2  0  0  0
 23 19  1  0  0  0
  9  1  1  0  0  0
  9  5  2  0  0  0
  1  3  2  0  0  0
  6 12  1  0  0  0
  6  5  1  0  0  0
 14 12  2  0  0  0
 12 13  1  0  0  0
  5 16  1  0  0  0
 16 15  1  0  0  0
 10 11  1  0  0  0
 26 27  1  0  0  0
 26 28  1  0  0  0
M  END
> <minimizedAffinity>
-6.42029

$$$$
5D3T_56Y_A_201


 28 29  0  0  0  0  0  0  0  0999 V2000
   11.4640    6.3243    3.7077 C   0  0  0  0  0  0  0  0  0  0  0  0
   11.6282    7.6232    4.0509 N   0  0  0  0  0  0  0  0  0  0  0  0
   11.8113    5.4333    4.4572 O   0  0  0  0  0  0  0  0  0  0  0  0
   11.6155    8.7182    3.0757 C   0  0  0  0  0  0  0  0  0  0  0  0
   11.5998    5.5181    1.1922 C   0  0  0  0  0  0  0  0  0  0  0  0
   10.6273    5.4323    0.2020 C   0  0  0  0  0  0  0  0  0  0  0  0
    9.3329    5.8852    0.7401 C   0  0  0  0  0  0  0  0  0  0  0  0
    8.0121    5.9906    0.0277 C   0  0  0  0  0  0  0  0  0  0  0  0
   10.8374    6.0268    2.3669 C   0  0  0  0  0  0  0  0  0  0  0  0
    9.5434    6.2233    2.0275 N   0  0  0  0  0  0  0  0  0  0  0  0
    8.8505    6.5661    2.6369 H   0  0  0  0  0  0  0  0  0  0  0  0
   10.7617    5.0066   -1.2045 C   0  0  0  0  0  0  0  0  0  0  0  0
   11.1578    3.5733   -1.4529 C   0  0  0  0  0  0  0  0  0  0  0  0
   10.5926    5.8282   -2.0913 O   0  0  0  0  0  0  0  0  0  0  0  0
   13.8083    6.1194    0.2554 C   0  0  0  0  0  0  0  0  0  0  0  0
   13.0683    5.1482    1.1634 C   0  0  0  0  0  0  0  0  0  0  0  0
   11.8536    8.0633    5.4377 C   0  0  0  0  0  0  0  0  0  0  0  0
   13.2419    8.6402    5.5742 C   0  0  0  0  0  0  0  0  0  0  0  0
   13.4422    9.9979    5.8328 C   0  0  0  0  0  0  0  0  0  0  0  0
   14.3323    7.7981    5.4559 C   0  0  0  0  0  0  0  0  0  0  0  0
   15.6326    8.2756    5.5794 C   0  0  0  0  0  0  0  0  0  0  0  0
   15.8319    9.6284    5.8477 C   0  0  0  0  0  0  0  0  0  0  0  0
   14.7377   10.4847    5.9706 C   0  0  0  0  0  0  0  0  0  0  0  0
   16.7999    7.3209    5.4641 C   0  0  0  0  0  0  0  0  0  0  0  0
   17.9367    7.6967    5.1584 O   0  0  0  0  0  0  0  0  0  0  0  0
   16.5696    5.9549    5.7468 N   0  0  0  0  0  0  0  0  0  0  0  0
   17.3083    5.3073    5.6811 H   0  0  0  0  0  0  0  0  0  0  0  0
   15.6707    5.6513    6.0093 H   0  0  0  0  0  0  0  0  0  0  0  0
 26 24  1  0  0  0
 25 24  2  0  0  0
 24 21  1  0  0  0
 21 20  2  0  0  0
 21 22  1  0  0  0
 20 18  1  0  0  0
  4  2  1  0  0  0
 22 23  2  0  0  0
  8  7  1  0  0  0
 18 17  1  0  0  0
 18 19  2  0  0  0
 17  2  1  0  0  0
  2  1  1  0  0  0
 10  7  1  0  0  0
 10  9  1  0  0  0
  7  6  2  0  0  0
 23 19  1  0  0  0
  9  1  1  0  0  0
  9  5  2  0  0  0
  1  3  2  0  0  0
  6 12  1  0  0  0
  6  5  1  0  0  0
 14 12  2  0  0  0
 12 13  1  0  0  0
  5 16  1  0  0  0
 16 15  1  0  0  0
 10 11  1  0  0  0
 26 27  1  0  0  0
 26 28  1  0  0  0
M  END
> <minimizedAffinity>
-6.41615

$$$$
