1OS5_NH1_A_901


 39 42  0  0  0  0  0  0  0  0999 V2000
   40.9683   13.9918   53.4173 C   0  0  0  0  0  0  0  0  0  0  0  0
   41.0897   12.8018   52.5601 O   0  0  0  0  0  0  0  0  0  0  0  0
   42.3005   12.1814   52.4625 C   0  0  0  0  0  0  0  0  0  0  0  0
   42.4375   11.0065   52.1043 O   0  0  0  0  0  0  0  0  0  0  0  0
   43.5165   12.9815   52.8353 C   0  0  0  0  0  0  0  0  0  0  0  0
   43.3886   14.2910   53.1407 C   0  0  0  0  0  0  0  0  0  0  0  0
   44.4847   15.0197   53.3721 O   0  0  0  0  0  0  0  0  0  0  0  0
   42.0662   15.0171   52.9885 C   0  0  0  0  0  0  0  0  0  0  0  0
   45.3156   14.5979   53.4705 H   0  0  0  0  0  0  0  0  0  0  0  0
   39.5756   14.6444   53.1613 C   0  0  0  0  0  0  0  0  0  0  0  0
   39.5713   16.1781   52.9943 C   0  0  0  0  0  0  0  0  0  0  0  0
   38.1765   16.6421   53.4623 C   0  0  0  0  0  0  0  0  0  0  0  0
   37.5062   15.4543   54.2101 C   0  0  0  0  0  0  0  0  0  0  0  0
   38.5388   14.3236   54.2630 C   0  0  0  0  0  0  0  0  0  0  0  0
   41.1173   13.4773   54.8786 C   0  0  0  0  0  0  0  0  0  0  0  0
   41.4733   14.5856   55.8891 C   0  0  0  0  0  0  0  0  0  0  0  0
   41.2864   12.8649   61.2675 O   0  0  0  0  0  0  0  0  0  0  0  0
   41.3482   13.2574   59.9496 C   0  0  0  0  0  0  0  0  0  0  0  0
   42.3455   14.1433   59.5360 C   0  0  0  0  0  0  0  0  0  0  0  0
   42.3859   14.5781   58.2069 C   0  0  0  0  0  0  0  0  0  0  0  0
   41.4269   14.1286   57.2945 C   0  0  0  0  0  0  0  0  0  0  0  0
   40.4304   13.2379   57.7182 C   0  0  0  0  0  0  0  0  0  0  0  0
   40.3880   12.8018   59.0445 C   0  0  0  0  0  0  0  0  0  0  0  0
   41.9293   13.1690   61.8775 H   0  0  0  0  0  0  0  0  0  0  0  0
   45.1148   12.2267   52.8751 S   0  0  0  0  0  0  0  0  0  0  0  0
   45.5378   12.1223   54.5880 C   0  0  0  0  0  0  0  0  0  0  0  0
   44.4999   11.7633   55.4474 C   0  0  0  0  0  0  0  0  0  0  0  0
   44.7160   11.6810   56.8135 C   0  0  0  0  0  0  0  0  0  0  0  0
   45.9899   11.9297   57.3374 C   0  0  0  0  0  0  0  0  0  0  0  0
   46.1999   11.8751   58.6507 N   0  0  0  0  0  0  0  0  0  0  0  0
   47.0343   12.2880   56.4856 C   0  0  0  0  0  0  0  0  0  0  0  0
   46.8424   12.3693   55.1010 C   0  0  0  0  0  0  0  0  0  0  0  0
   43.6265   11.2328   57.6825 C   0  0  0  0  0  0  0  0  0  0  0  0
   45.4660   11.6227   59.2565 H   0  0  0  0  0  0  0  0  0  0  0  0
   47.0891   12.0870   59.0163 H   0  0  0  0  0  0  0  0  0  0  0  0
   48.0114   12.6937   54.2306 C   0  0  0  0  0  0  0  0  0  0  0  0
   48.4116   11.4582   53.4020 C   0  0  0  0  0  0  0  0  0  0  0  0
   49.2327   13.1018   55.0804 C   0  0  0  0  0  0  0  0  0  0  0  0
   47.6983   13.8496   53.2717 C   0  0  0  0  0  0  0  0  0  0  0  0
 17 18  1  0  0  0
 18 19  2  0  0  0
 18 23  1  0  0  0
 19 20  1  0  0  0
 20 21  2  0  0  0
 21 22  1  0  0  0
 21 16  1  0  0  0
 22 23  2  0  0  0
 16 15  1  0  0  0
 15  1  1  0  0  0
  1  2  1  0  0  0
  1  8  1  0  0  0
  1 10  1  0  0  0
  2  3  1  0  0  0
  3  4  2  0  0  0
  3  5  1  0  0  0
  5 25  1  0  0  0
  5  6  2  0  0  0
 25 26  1  0  0  0
 26 27  2  0  0  0
 26 32  1  0  0  0
 27 28  1  0  0  0
 28 29  2  0  0  0
 28 33  1  0  0  0
 29 30  1  0  0  0
 29 31  1  0  0  0
 31 32  2  0  0  0
 32 36  1  0  0  0
 36 37  1  0  0  0
 36 38  1  0  0  0
 36 39  1  0  0  0
  6  7  1  0  0  0
  6  8  1  0  0  0
 10 11  1  0  0  0
 10 14  1  0  0  0
 11 12  1  0  0  0
 12 13  1  0  0  0
 13 14  1  0  0  0
 17 24  1  0  0  0
 30 34  1  0  0  0
 30 35  1  0  0  0
  7  9  1  0  0  0
M  END
> <minimizedAffinity>
-8.66859

$$$$
1OS5_NH1_A_901


 39 42  0  0  0  0  0  0  0  0999 V2000
   42.0858   13.4689   57.5039 C   0  0  0  0  0  0  0  0  0  0  0  0
   42.9823   14.5688   57.1142 O   0  0  0  0  0  0  0  0  0  0  0  0
   43.8575   14.3725   56.0867 C   0  0  0  0  0  0  0  0  0  0  0  0
   44.3656   15.2939   55.4385 O   0  0  0  0  0  0  0  0  0  0  0  0
   44.1906   12.9519   55.7276 C   0  0  0  0  0  0  0  0  0  0  0  0
   43.7134   11.9404   56.4848 C   0  0  0  0  0  0  0  0  0  0  0  0
   44.0958   10.6875   56.2204 O   0  0  0  0  0  0  0  0  0  0  0  0
   42.9570   12.2004   57.7729 C   0  0  0  0  0  0  0  0  0  0  0  0
   44.5648   10.4973   55.4318 H   0  0  0  0  0  0  0  0  0  0  0  0
   41.3786   13.8576   58.8380 C   0  0  0  0  0  0  0  0  0  0  0  0
   42.3100   14.2336   60.0089 C   0  0  0  0  0  0  0  0  0  0  0  0
   41.5279   13.8798   61.2907 C   0  0  0  0  0  0  0  0  0  0  0  0
   40.3142   12.9983   60.8793 C   0  0  0  0  0  0  0  0  0  0  0  0
   40.4320   12.7569   59.3708 C   0  0  0  0  0  0  0  0  0  0  0  0
   41.0780   13.3083   56.3288 C   0  0  0  0  0  0  0  0  0  0  0  0
   40.0678   14.4676   56.2202 C   0  0  0  0  0  0  0  0  0  0  0  0
   39.7772   16.6538   51.0184 O   0  0  0  0  0  0  0  0  0  0  0  0
   39.8461   16.1509   52.2979 C   0  0  0  0  0  0  0  0  0  0  0  0
   41.0896   15.8567   52.8612 C   0  0  0  0  0  0  0  0  0  0  0  0
   41.1618   15.3054   54.1450 C   0  0  0  0  0  0  0  0  0  0  0  0
   39.9900   15.0464   54.8619 C   0  0  0  0  0  0  0  0  0  0  0  0
   38.7459   15.3467   54.2891 C   0  0  0  0  0  0  0  0  0  0  0  0
   38.6709   15.8977   53.0077 C   0  0  0  0  0  0  0  0  0  0  0  0
   40.5640   16.8249   50.5392 H   0  0  0  0  0  0  0  0  0  0  0  0
   45.2044   12.5908   54.3248 S   0  0  0  0  0  0  0  0  0  0  0  0
   44.0873   12.4781   52.9598 C   0  0  0  0  0  0  0  0  0  0  0  0
   42.7465   12.2812   53.2889 C   0  0  0  0  0  0  0  0  0  0  0  0
   41.7913   12.1496   52.2940 C   0  0  0  0  0  0  0  0  0  0  0  0
   42.1639   12.2435   50.9482 C   0  0  0  0  0  0  0  0  0  0  0  0
   41.2557   12.0952   49.9864 N   0  0  0  0  0  0  0  0  0  0  0  0
   43.5021   12.4417   50.6094 C   0  0  0  0  0  0  0  0  0  0  0  0
   44.4841   12.5863   51.5970 C   0  0  0  0  0  0  0  0  0  0  0  0
   40.3830   12.0153   52.6705 C   0  0  0  0  0  0  0  0  0  0  0  0
   40.3097   11.9550   50.2202 H   0  0  0  0  0  0  0  0  0  0  0  0
   41.5300   12.1256   49.0414 H   0  0  0  0  0  0  0  0  0  0  0  0
   45.8906   12.8614   51.1781 C   0  0  0  0  0  0  0  0  0  0  0  0
   46.4405   14.0802   51.9433 C   0  0  0  0  0  0  0  0  0  0  0  0
   45.9618   13.1849   49.6713 C   0  0  0  0  0  0  0  0  0  0  0  0
   46.8050   11.6588   51.4446 C   0  0  0  0  0  0  0  0  0  0  0  0
 17 18  1  0  0  0
 18 19  2  0  0  0
 18 23  1  0  0  0
 19 20  1  0  0  0
 20 21  2  0  0  0
 21 22  1  0  0  0
 21 16  1  0  0  0
 22 23  2  0  0  0
 16 15  1  0  0  0
 15  1  1  0  0  0
  1  2  1  0  0  0
  1  8  1  0  0  0
  1 10  1  0  0  0
  2  3  1  0  0  0
  3  4  2  0  0  0
  3  5  1  0  0  0
  5 25  1  0  0  0
  5  6  2  0  0  0
 25 26  1  0  0  0
 26 27  2  0  0  0
 26 32  1  0  0  0
 27 28  1  0  0  0
 28 29  2  0  0  0
 28 33  1  0  0  0
 29 30  1  0  0  0
 29 31  1  0  0  0
 31 32  2  0  0  0
 32 36  1  0  0  0
 36 37  1  0  0  0
 36 38  1  0  0  0
 36 39  1  0  0  0
  6  7  1  0  0  0
  6  8  1  0  0  0
 10 11  1  0  0  0
 10 14  1  0  0  0
 11 12  1  0  0  0
 12 13  1  0  0  0
 13 14  1  0  0  0
 17 24  1  0  0  0
 30 34  1  0  0  0
 30 35  1  0  0  0
  7  9  1  0  0  0
M  END
> <minimizedAffinity>
-8.59520

$$$$
1OS5_NH1_A_901


 39 42  0  0  0  0  0  0  0  0999 V2000
   41.1217   14.4840   54.0130 C   0  0  0  0  0  0  0  0  0  0  0  0
   40.8024   13.4979   52.9685 O   0  0  0  0  0  0  0  0  0  0  0  0
   41.8068   12.7268   52.4617 C   0  0  0  0  0  0  0  0  0  0  0  0
   41.6157   11.6474   51.8907 O   0  0  0  0  0  0  0  0  0  0  0  0
   43.2134   13.2253   52.6370 C   0  0  0  0  0  0  0  0  0  0  0  0
   43.4293   14.4440   53.1777 C   0  0  0  0  0  0  0  0  0  0  0  0
   44.6756   14.9228   53.2373 O   0  0  0  0  0  0  0  0  0  0  0  0
   42.2850   15.3877   53.4928 C   0  0  0  0  0  0  0  0  0  0  0  0
   45.4022   14.3625   53.0477 H   0  0  0  0  0  0  0  0  0  0  0  0
   39.8723   15.3899   54.2352 C   0  0  0  0  0  0  0  0  0  0  0  0
   38.5972   14.6706   54.7214 C   0  0  0  0  0  0  0  0  0  0  0  0
   37.4186   15.5192   54.2010 C   0  0  0  0  0  0  0  0  0  0  0  0
   37.9789   16.5143   53.1449 C   0  0  0  0  0  0  0  0  0  0  0  0
   39.4670   16.1911   52.9761 C   0  0  0  0  0  0  0  0  0  0  0  0
   41.4808   13.6556   55.2809 C   0  0  0  0  0  0  0  0  0  0  0  0
   42.0112   14.5125   56.4473 C   0  0  0  0  0  0  0  0  0  0  0  0
   40.6043   12.4532   61.5171 O   0  0  0  0  0  0  0  0  0  0  0  0
   40.9304   12.9816   60.2886 C   0  0  0  0  0  0  0  0  0  0  0  0
   40.1799   12.6344   59.1632 C   0  0  0  0  0  0  0  0  0  0  0  0
   40.5342   13.1355   57.9059 C   0  0  0  0  0  0  0  0  0  0  0  0
   41.6403   13.9804   57.7760 C   0  0  0  0  0  0  0  0  0  0  0  0
   42.3869   14.3250   58.9117 C   0  0  0  0  0  0  0  0  0  0  0  0
   42.0351   13.8266   60.1683 C   0  0  0  0  0  0  0  0  0  0  0  0
   39.8635   11.8857   61.6013 H   0  0  0  0  0  0  0  0  0  0  0  0
   44.5898   12.2336   52.1393 S   0  0  0  0  0  0  0  0  0  0  0  0
   45.1258   12.9196   50.6011 C   0  0  0  0  0  0  0  0  0  0  0  0
   44.1150   13.3833   49.7597 C   0  0  0  0  0  0  0  0  0  0  0  0
   44.4236   13.9132   48.5172 C   0  0  0  0  0  0  0  0  0  0  0  0
   45.7591   14.0135   48.1105 C   0  0  0  0  0  0  0  0  0  0  0  0
   46.0619   14.5001   46.9091 N   0  0  0  0  0  0  0  0  0  0  0  0
   46.7767   13.5537   48.9457 C   0  0  0  0  0  0  0  0  0  0  0  0
   46.4904   13.0223   50.2091 C   0  0  0  0  0  0  0  0  0  0  0  0
   43.3479   14.4569   47.6864 C   0  0  0  0  0  0  0  0  0  0  0  0
   45.3473   14.8260   46.3155 H   0  0  0  0  0  0  0  0  0  0  0  0
   47.0006   14.5340   46.6140 H   0  0  0  0  0  0  0  0  0  0  0  0
   47.6233   12.6054   51.0878 C   0  0  0  0  0  0  0  0  0  0  0  0
   47.6495   13.4710   52.3619 C   0  0  0  0  0  0  0  0  0  0  0  0
   48.9749   12.7930   50.3678 C   0  0  0  0  0  0  0  0  0  0  0  0
   47.5086   11.1310   51.4961 C   0  0  0  0  0  0  0  0  0  0  0  0
 17 18  1  0  0  0
 18 19  2  0  0  0
 18 23  1  0  0  0
 19 20  1  0  0  0
 20 21  2  0  0  0
 21 22  1  0  0  0
 21 16  1  0  0  0
 22 23  2  0  0  0
 16 15  1  0  0  0
 15  1  1  0  0  0
  1  2  1  0  0  0
  1  8  1  0  0  0
  1 10  1  0  0  0
  2  3  1  0  0  0
  3  4  2  0  0  0
  3  5  1  0  0  0
  5 25  1  0  0  0
  5  6  2  0  0  0
 25 26  1  0  0  0
 26 27  2  0  0  0
 26 32  1  0  0  0
 27 28  1  0  0  0
 28 29  2  0  0  0
 28 33  1  0  0  0
 29 30  1  0  0  0
 29 31  1  0  0  0
 31 32  2  0  0  0
 32 36  1  0  0  0
 36 37  1  0  0  0
 36 38  1  0  0  0
 36 39  1  0  0  0
  6  7  1  0  0  0
  6  8  1  0  0  0
 10 11  1  0  0  0
 10 14  1  0  0  0
 11 12  1  0  0  0
 12 13  1  0  0  0
 13 14  1  0  0  0
 17 24  1  0  0  0
 30 34  1  0  0  0
 30 35  1  0  0  0
  7  9  1  0  0  0
M  END
> <minimizedAffinity>
-8.34875

$$$$
1OS5_NH1_A_901


 39 42  0  0  0  0  0  0  0  0999 V2000
   43.8747   13.6168   53.4797 C   0  0  0  0  0  0  0  0  0  0  0  0
   45.2296   14.1097   53.1850 O   0  0  0  0  0  0  0  0  0  0  0  0
   45.7579   13.8839   51.9480 C   0  0  0  0  0  0  0  0  0  0  0  0
   46.6821   14.5504   51.4694 O   0  0  0  0  0  0  0  0  0  0  0  0
   45.1547   12.7747   51.1334 C   0  0  0  0  0  0  0  0  0  0  0  0
   44.2070   11.9821   51.6793 C   0  0  0  0  0  0  0  0  0  0  0  0
   43.7484   10.9361   50.9854 O   0  0  0  0  0  0  0  0  0  0  0  0
   43.8252   12.0922   53.1426 C   0  0  0  0  0  0  0  0  0  0  0  0
   43.9682   10.8422   50.0794 H   0  0  0  0  0  0  0  0  0  0  0  0
   43.6118   13.7795   55.0080 C   0  0  0  0  0  0  0  0  0  0  0  0
   42.6583   12.7450   55.6408 C   0  0  0  0  0  0  0  0  0  0  0  0
   42.0100   13.4605   56.8440 C   0  0  0  0  0  0  0  0  0  0  0  0
   42.3117   14.9807   56.7124 C   0  0  0  0  0  0  0  0  0  0  0  0
   43.0570   15.1722   55.3875 C   0  0  0  0  0  0  0  0  0  0  0  0
   42.9120   14.4876   52.6211 C   0  0  0  0  0  0  0  0  0  0  0  0
   41.6002   13.7698   52.2466 C   0  0  0  0  0  0  0  0  0  0  0  0
   37.0009   16.2098   54.4411 O   0  0  0  0  0  0  0  0  0  0  0  0
   38.1387   15.6267   53.9311 C   0  0  0  0  0  0  0  0  0  0  0  0
   38.8709   16.2849   52.9406 C   0  0  0  0  0  0  0  0  0  0  0  0
   40.0037   15.6766   52.3892 C   0  0  0  0  0  0  0  0  0  0  0  0
   40.4004   14.4098   52.8272 C   0  0  0  0  0  0  0  0  0  0  0  0
   39.6603   13.7572   53.8233 C   0  0  0  0  0  0  0  0  0  0  0  0
   38.5291   14.3624   54.3759 C   0  0  0  0  0  0  0  0  0  0  0  0
   36.7360   17.0583   54.1446 H   0  0  0  0  0  0  0  0  0  0  0  0
   45.6755   12.4939   49.4673 S   0  0  0  0  0  0  0  0  0  0  0  0
   44.8100   13.6939   48.5005 C   0  0  0  0  0  0  0  0  0  0  0  0
   43.5156   13.9937   48.9240 C   0  0  0  0  0  0  0  0  0  0  0  0
   42.7384   14.8993   48.2201 C   0  0  0  0  0  0  0  0  0  0  0  0
   43.2611   15.5431   47.0925 C   0  0  0  0  0  0  0  0  0  0  0  0
   42.5127   16.3970   46.3978 N   0  0  0  0  0  0  0  0  0  0  0  0
   44.5549   15.2508   46.6623 C   0  0  0  0  0  0  0  0  0  0  0  0
   45.3624   14.3458   47.3620 C   0  0  0  0  0  0  0  0  0  0  0  0
   41.4106   15.2470   48.7291 C   0  0  0  0  0  0  0  0  0  0  0  0
   41.5986   16.6068   46.6972 H   0  0  0  0  0  0  0  0  0  0  0  0
   42.8733   16.8187   45.5845 H   0  0  0  0  0  0  0  0  0  0  0  0
   46.7621   14.1197   46.8940 C   0  0  0  0  0  0  0  0  0  0  0  0
   47.1501   15.1879   45.8540 C   0  0  0  0  0  0  0  0  0  0  0  0
   46.8995   12.7391   46.2192 C   0  0  0  0  0  0  0  0  0  0  0  0
   47.7625   14.1769   48.0557 C   0  0  0  0  0  0  0  0  0  0  0  0
 17 18  1  0  0  0
 18 19  2  0  0  0
 18 23  1  0  0  0
 19 20  1  0  0  0
 20 21  2  0  0  0
 21 22  1  0  0  0
 21 16  1  0  0  0
 22 23  2  0  0  0
 16 15  1  0  0  0
 15  1  1  0  0  0
  1  2  1  0  0  0
  1  8  1  0  0  0
  1 10  1  0  0  0
  2  3  1  0  0  0
  3  4  2  0  0  0
  3  5  1  0  0  0
  5 25  1  0  0  0
  5  6  2  0  0  0
 25 26  1  0  0  0
 26 27  2  0  0  0
 26 32  1  0  0  0
 27 28  1  0  0  0
 28 29  2  0  0  0
 28 33  1  0  0  0
 29 30  1  0  0  0
 29 31  1  0  0  0
 31 32  2  0  0  0
 32 36  1  0  0  0
 36 37  1  0  0  0
 36 38  1  0  0  0
 36 39  1  0  0  0
  6  7  1  0  0  0
  6  8  1  0  0  0
 10 11  1  0  0  0
 10 14  1  0  0  0
 11 12  1  0  0  0
 12 13  1  0  0  0
 13 14  1  0  0  0
 17 24  1  0  0  0
 30 34  1  0  0  0
 30 35  1  0  0  0
  7  9  1  0  0  0
M  END
> <minimizedAffinity>
-8.32212

$$$$
1OS5_NH1_A_901


 39 42  0  0  0  0  0  0  0  0999 V2000
   40.4577   13.9119   53.1964 C   0  0  0  0  0  0  0  0  0  0  0  0
   39.6972   12.6575   53.0795 O   0  0  0  0  0  0  0  0  0  0  0  0
   40.2724   11.5953   52.4461 C   0  0  0  0  0  0  0  0  0  0  0  0
   39.9130   10.4249   52.6146 O   0  0  0  0  0  0  0  0  0  0  0  0
   41.4155   11.8852   51.5149 C   0  0  0  0  0  0  0  0  0  0  0  0
   41.7580   13.1653   51.2533 C   0  0  0  0  0  0  0  0  0  0  0  0
   42.7077   13.4172   50.3475 O   0  0  0  0  0  0  0  0  0  0  0  0
   40.9343   14.3294   51.7685 C   0  0  0  0  0  0  0  0  0  0  0  0
   43.2321   12.7173   50.0114 H   0  0  0  0  0  0  0  0  0  0  0  0
   39.5000   15.0221   53.7268 C   0  0  0  0  0  0  0  0  0  0  0  0
   38.1851   14.5284   54.3650 C   0  0  0  0  0  0  0  0  0  0  0  0
   37.1669   15.6673   54.1502 C   0  0  0  0  0  0  0  0  0  0  0  0
   37.7697   16.6543   53.1101 C   0  0  0  0  0  0  0  0  0  0  0  0
   39.0990   16.0512   52.6443 C   0  0  0  0  0  0  0  0  0  0  0  0
   41.6178   13.6119   54.1897 C   0  0  0  0  0  0  0  0  0  0  0  0
   41.8548   14.7354   55.2182 C   0  0  0  0  0  0  0  0  0  0  0  0
   41.2636   13.0390   60.5750 O   0  0  0  0  0  0  0  0  0  0  0  0
   41.4225   13.4245   59.2631 C   0  0  0  0  0  0  0  0  0  0  0  0
   42.4976   14.2412   58.9059 C   0  0  0  0  0  0  0  0  0  0  0  0
   42.6386   14.6704   57.5818 C   0  0  0  0  0  0  0  0  0  0  0  0
   41.7024   14.2845   56.6180 C   0  0  0  0  0  0  0  0  0  0  0  0
   40.6272   13.4630   56.9855 C   0  0  0  0  0  0  0  0  0  0  0  0
   40.4843   13.0326   58.3066 C   0  0  0  0  0  0  0  0  0  0  0  0
   41.8915   13.3004   61.2195 H   0  0  0  0  0  0  0  0  0  0  0  0
   42.3155   10.5668   50.7548 S   0  0  0  0  0  0  0  0  0  0  0  0
   43.7914   10.3979   51.7124 C   0  0  0  0  0  0  0  0  0  0  0  0
   43.6538   10.6217   53.0820 C   0  0  0  0  0  0  0  0  0  0  0  0
   44.7542   10.5440   53.9203 C   0  0  0  0  0  0  0  0  0  0  0  0
   46.0095   10.2099   53.3993 C   0  0  0  0  0  0  0  0  0  0  0  0
   47.0756   10.1559   54.1945 N   0  0  0  0  0  0  0  0  0  0  0  0
   46.1566    9.9830   52.0312 C   0  0  0  0  0  0  0  0  0  0  0  0
   45.0579   10.0473   51.1655 C   0  0  0  0  0  0  0  0  0  0  0  0
   44.5660   10.7135   55.3621 C   0  0  0  0  0  0  0  0  0  0  0  0
   46.9772   10.3153   55.1611 H   0  0  0  0  0  0  0  0  0  0  0  0
   47.9623    9.9565   53.8162 H   0  0  0  0  0  0  0  0  0  0  0  0
   45.2613    9.7314   49.7204 C   0  0  0  0  0  0  0  0  0  0  0  0
   46.7551    9.4793   49.4403 C   0  0  0  0  0  0  0  0  0  0  0  0
   44.8118   10.9099   48.8319 C   0  0  0  0  0  0  0  0  0  0  0  0
   44.4643    8.4914   49.2955 C   0  0  0  0  0  0  0  0  0  0  0  0
 17 18  1  0  0  0
 18 19  2  0  0  0
 18 23  1  0  0  0
 19 20  1  0  0  0
 20 21  2  0  0  0
 21 22  1  0  0  0
 21 16  1  0  0  0
 22 23  2  0  0  0
 16 15  1  0  0  0
 15  1  1  0  0  0
  1  2  1  0  0  0
  1  8  1  0  0  0
  1 10  1  0  0  0
  2  3  1  0  0  0
  3  4  2  0  0  0
  3  5  1  0  0  0
  5 25  1  0  0  0
  5  6  2  0  0  0
 25 26  1  0  0  0
 26 27  2  0  0  0
 26 32  1  0  0  0
 27 28  1  0  0  0
 28 29  2  0  0  0
 28 33  1  0  0  0
 29 30  1  0  0  0
 29 31  1  0  0  0
 31 32  2  0  0  0
 32 36  1  0  0  0
 36 37  1  0  0  0
 36 38  1  0  0  0
 36 39  1  0  0  0
  6  7  1  0  0  0
  6  8  1  0  0  0
 10 11  1  0  0  0
 10 14  1  0  0  0
 11 12  1  0  0  0
 12 13  1  0  0  0
 13 14  1  0  0  0
 17 24  1  0  0  0
 30 34  1  0  0  0
 30 35  1  0  0  0
  7  9  1  0  0  0
M  END
> <minimizedAffinity>
-8.14133

$$$$
1OS5_NH1_A_901


 39 42  0  0  0  0  0  0  0  0999 V2000
   41.0869   14.4421   53.9235 C   0  0  0  0  0  0  0  0  0  0  0  0
   40.7065   13.4130   52.9428 O   0  0  0  0  0  0  0  0  0  0  0  0
   41.6750   12.5991   52.4331 C   0  0  0  0  0  0  0  0  0  0  0  0
   41.4414   11.4973   51.9243 O   0  0  0  0  0  0  0  0  0  0  0  0
   43.0962   13.0784   52.5249 C   0  0  0  0  0  0  0  0  0  0  0  0
   43.3557   14.3175   52.9956 C   0  0  0  0  0  0  0  0  0  0  0  0
   44.6115   14.7746   52.9796 O   0  0  0  0  0  0  0  0  0  0  0  0
   42.2423   15.2971   53.3114 C   0  0  0  0  0  0  0  0  0  0  0  0
   45.3197   14.1919   52.7875 H   0  0  0  0  0  0  0  0  0  0  0  0
   39.8638   15.3815   54.1528 C   0  0  0  0  0  0  0  0  0  0  0  0
   38.5876   14.7049   54.6945 C   0  0  0  0  0  0  0  0  0  0  0  0
   37.4134   15.5641   54.1816 C   0  0  0  0  0  0  0  0  0  0  0  0
   37.9651   16.5156   53.0818 C   0  0  0  0  0  0  0  0  0  0  0  0
   39.4408   16.1548   52.8821 C   0  0  0  0  0  0  0  0  0  0  0  0
   41.4854   13.6693   55.2144 C   0  0  0  0  0  0  0  0  0  0  0  0
   41.9202   14.5879   56.3734 C   0  0  0  0  0  0  0  0  0  0  0  0
   40.6808   12.5005   61.4753 O   0  0  0  0  0  0  0  0  0  0  0  0
   40.9991   12.9821   60.2257 C   0  0  0  0  0  0  0  0  0  0  0  0
   42.0886   13.8420   60.0709 C   0  0  0  0  0  0  0  0  0  0  0  0
   42.3896   14.3677   58.8098 C   0  0  0  0  0  0  0  0  0  0  0  0
   41.5985   14.0349   57.7063 C   0  0  0  0  0  0  0  0  0  0  0  0
   40.5077   13.1695   57.8708 C   0  0  0  0  0  0  0  0  0  0  0  0
   40.2052   12.6428   59.1287 C   0  0  0  0  0  0  0  0  0  0  0  0
   41.2116   12.7264   62.2136 H   0  0  0  0  0  0  0  0  0  0  0  0
   44.4330   12.0376   52.0195 S   0  0  0  0  0  0  0  0  0  0  0  0
   44.3767   12.0323   50.2529 C   0  0  0  0  0  0  0  0  0  0  0  0
   44.0871   13.2572   49.6525 C   0  0  0  0  0  0  0  0  0  0  0  0
   43.9897   13.3580   48.2741 C   0  0  0  0  0  0  0  0  0  0  0  0
   44.2118   12.2326   47.4720 C   0  0  0  0  0  0  0  0  0  0  0  0
   44.0974   12.3163   46.1485 N   0  0  0  0  0  0  0  0  0  0  0  0
   44.5033   11.0038   48.0634 C   0  0  0  0  0  0  0  0  0  0  0  0
   44.6155   10.8790   49.4535 C   0  0  0  0  0  0  0  0  0  0  0  0
   43.7552   14.6704   47.6695 C   0  0  0  0  0  0  0  0  0  0  0  0
   43.8917   13.1814   45.7259 H   0  0  0  0  0  0  0  0  0  0  0  0
   44.2186   11.5132   45.5921 H   0  0  0  0  0  0  0  0  0  0  0  0
   44.9936    9.5540   50.0287 C   0  0  0  0  0  0  0  0  0  0  0  0
   43.9189    9.0864   51.0285 C   0  0  0  0  0  0  0  0  0  0  0  0
   46.3316    9.6476   50.7910 C   0  0  0  0  0  0  0  0  0  0  0  0
   45.1480    8.4875   48.9368 C   0  0  0  0  0  0  0  0  0  0  0  0
 17 18  1  0  0  0
 18 19  2  0  0  0
 18 23  1  0  0  0
 19 20  1  0  0  0
 20 21  2  0  0  0
 21 22  1  0  0  0
 21 16  1  0  0  0
 22 23  2  0  0  0
 16 15  1  0  0  0
 15  1  1  0  0  0
  1  2  1  0  0  0
  1  8  1  0  0  0
  1 10  1  0  0  0
  2  3  1  0  0  0
  3  4  2  0  0  0
  3  5  1  0  0  0
  5 25  1  0  0  0
  5  6  2  0  0  0
 25 26  1  0  0  0
 26 27  2  0  0  0
 26 32  1  0  0  0
 27 28  1  0  0  0
 28 29  2  0  0  0
 28 33  1  0  0  0
 29 30  1  0  0  0
 29 31  1  0  0  0
 31 32  2  0  0  0
 32 36  1  0  0  0
 36 37  1  0  0  0
 36 38  1  0  0  0
 36 39  1  0  0  0
  6  7  1  0  0  0
  6  8  1  0  0  0
 10 11  1  0  0  0
 10 14  1  0  0  0
 11 12  1  0  0  0
 12 13  1  0  0  0
 13 14  1  0  0  0
 17 24  1  0  0  0
 30 34  1  0  0  0
 30 35  1  0  0  0
  7  9  1  0  0  0
M  END
> <minimizedAffinity>
-8.12691

$$$$
1OS5_NH1_A_901


 39 42  0  0  0  0  0  0  0  0999 V2000
   40.9593   14.1515   53.3705 C   0  0  0  0  0  0  0  0  0  0  0  0
   41.0059   12.9866   52.4725 O   0  0  0  0  0  0  0  0  0  0  0  0
   42.1838   12.3148   52.3261 C   0  0  0  0  0  0  0  0  0  0  0  0
   42.2577   11.1475   51.9268 O   0  0  0  0  0  0  0  0  0  0  0  0
   43.4439   13.0450   52.6958 C   0  0  0  0  0  0  0  0  0  0  0  0
   43.3843   14.3480   53.0466 C   0  0  0  0  0  0  0  0  0  0  0  0
   44.5181   15.0173   53.2754 O   0  0  0  0  0  0  0  0  0  0  0  0
   42.0943   15.1389   52.9494 C   0  0  0  0  0  0  0  0  0  0  0  0
   45.3303   14.5547   53.3403 H   0  0  0  0  0  0  0  0  0  0  0  0
   39.5933   14.8757   53.1690 C   0  0  0  0  0  0  0  0  0  0  0  0
   39.6282   16.4154   53.2580 C   0  0  0  0  0  0  0  0  0  0  0  0
   38.2235   16.8348   53.7386 C   0  0  0  0  0  0  0  0  0  0  0  0
   37.4959   15.5593   54.2514 C   0  0  0  0  0  0  0  0  0  0  0  0
   38.5015   14.4071   54.1589 C   0  0  0  0  0  0  0  0  0  0  0  0
   41.1164   13.5819   54.8104 C   0  0  0  0  0  0  0  0  0  0  0  0
   41.5465   14.6380   55.8476 C   0  0  0  0  0  0  0  0  0  0  0  0
   41.2498   12.7526   61.1655 O   0  0  0  0  0  0  0  0  0  0  0  0
   41.3053   13.2381   59.8786 C   0  0  0  0  0  0  0  0  0  0  0  0
   40.3796   12.7968   58.9307 C   0  0  0  0  0  0  0  0  0  0  0  0
   40.4591   13.2550   57.6112 C   0  0  0  0  0  0  0  0  0  0  0  0
   41.4661   14.1513   57.2415 C   0  0  0  0  0  0  0  0  0  0  0  0
   42.3901   14.5903   58.2004 C   0  0  0  0  0  0  0  0  0  0  0  0
   42.3128   14.1348   59.5186 C   0  0  0  0  0  0  0  0  0  0  0  0
   40.5749   12.1506   61.4105 H   0  0  0  0  0  0  0  0  0  0  0  0
   45.0056   12.2165   52.6731 S   0  0  0  0  0  0  0  0  0  0  0  0
   44.9587   11.0972   54.0401 C   0  0  0  0  0  0  0  0  0  0  0  0
   44.4484   11.6154   55.2301 C   0  0  0  0  0  0  0  0  0  0  0  0
   44.3942   10.8314   56.3712 C   0  0  0  0  0  0  0  0  0  0  0  0
   44.8254    9.5005   56.3279 C   0  0  0  0  0  0  0  0  0  0  0  0
   44.7978    8.7481   57.4256 N   0  0  0  0  0  0  0  0  0  0  0  0
   45.3359    8.9732   55.1421 C   0  0  0  0  0  0  0  0  0  0  0  0
   45.3928    9.7432   53.9740 C   0  0  0  0  0  0  0  0  0  0  0  0
   43.7880   11.3800   57.5855 C   0  0  0  0  0  0  0  0  0  0  0  0
   44.4385    9.1155   58.2653 H   0  0  0  0  0  0  0  0  0  0  0  0
   45.1368    7.8242   57.3977 H   0  0  0  0  0  0  0  0  0  0  0  0
   45.8882    9.1077   52.7170 C   0  0  0  0  0  0  0  0  0  0  0  0
   47.0555    9.9277   52.1353 C   0  0  0  0  0  0  0  0  0  0  0  0
   44.7746    9.0588   51.6502 C   0  0  0  0  0  0  0  0  0  0  0  0
   46.3687    7.6714   52.9613 C   0  0  0  0  0  0  0  0  0  0  0  0
 17 18  1  0  0  0
 18 19  2  0  0  0
 18 23  1  0  0  0
 19 20  1  0  0  0
 20 21  2  0  0  0
 21 22  1  0  0  0
 21 16  1  0  0  0
 22 23  2  0  0  0
 16 15  1  0  0  0
 15  1  1  0  0  0
  1  2  1  0  0  0
  1  8  1  0  0  0
  1 10  1  0  0  0
  2  3  1  0  0  0
  3  4  2  0  0  0
  3  5  1  0  0  0
  5 25  1  0  0  0
  5  6  2  0  0  0
 25 26  1  0  0  0
 26 27  2  0  0  0
 26 32  1  0  0  0
 27 28  1  0  0  0
 28 29  2  0  0  0
 28 33  1  0  0  0
 29 30  1  0  0  0
 29 31  1  0  0  0
 31 32  2  0  0  0
 32 36  1  0  0  0
 36 37  1  0  0  0
 36 38  1  0  0  0
 36 39  1  0  0  0
  6  7  1  0  0  0
  6  8  1  0  0  0
 10 11  1  0  0  0
 10 14  1  0  0  0
 11 12  1  0  0  0
 12 13  1  0  0  0
 13 14  1  0  0  0
 17 24  1  0  0  0
 30 34  1  0  0  0
 30 35  1  0  0  0
  7  9  1  0  0  0
M  END
> <minimizedAffinity>
-8.08211

$$$$
1OS5_NH1_A_901


 39 42  0  0  0  0  0  0  0  0999 V2000
   40.5403   13.9224   52.6250 C   0  0  0  0  0  0  0  0  0  0  0  0
   40.1302   12.5684   53.0299 O   0  0  0  0  0  0  0  0  0  0  0  0
   40.5774   11.5013   52.3077 C   0  0  0  0  0  0  0  0  0  0  0  0
   40.6228   10.3487   52.7514 O   0  0  0  0  0  0  0  0  0  0  0  0
   41.0551   11.7683   50.9083 C   0  0  0  0  0  0  0  0  0  0  0  0
   40.9265   13.0053   50.3814 C   0  0  0  0  0  0  0  0  0  0  0  0
   41.2594   13.2109   49.1036 O   0  0  0  0  0  0  0  0  0  0  0  0
   40.1883   14.1084   51.1144 C   0  0  0  0  0  0  0  0  0  0  0  0
   41.7160   12.5468   48.6257 H   0  0  0  0  0  0  0  0  0  0  0  0
   39.7071   14.9558   53.4431 C   0  0  0  0  0  0  0  0  0  0  0  0
   38.5373   14.3771   54.2656 C   0  0  0  0  0  0  0  0  0  0  0  0
   37.5017   15.5158   54.3711 C   0  0  0  0  0  0  0  0  0  0  0  0
   37.8977   16.6154   53.3448 C   0  0  0  0  0  0  0  0  0  0  0  0
   39.1101   16.0856   52.5721 C   0  0  0  0  0  0  0  0  0  0  0  0
   42.0622   14.0144   52.9374 C   0  0  0  0  0  0  0  0  0  0  0  0
   42.4126   15.0892   53.9854 C   0  0  0  0  0  0  0  0  0  0  0  0
   43.3687   12.9368   59.1212 O   0  0  0  0  0  0  0  0  0  0  0  0
   43.1614   13.4803   57.8736 C   0  0  0  0  0  0  0  0  0  0  0  0
   42.2440   14.5211   57.7145 C   0  0  0  0  0  0  0  0  0  0  0  0
   41.9989   15.0473   56.4415 C   0  0  0  0  0  0  0  0  0  0  0  0
   42.6694   14.5294   55.3296 C   0  0  0  0  0  0  0  0  0  0  0  0
   43.5901   13.4856   55.4991 C   0  0  0  0  0  0  0  0  0  0  0  0
   43.8371   12.9587   56.7690 C   0  0  0  0  0  0  0  0  0  0  0  0
   42.9167   13.2845   59.8647 H   0  0  0  0  0  0  0  0  0  0  0  0
   41.7813   10.4779   49.9421 S   0  0  0  0  0  0  0  0  0  0  0  0
   43.5269   10.7125   50.0888 C   0  0  0  0  0  0  0  0  0  0  0  0
   43.9598   11.3172   51.2686 C   0  0  0  0  0  0  0  0  0  0  0  0
   45.3058   11.5746   51.4729 C   0  0  0  0  0  0  0  0  0  0  0  0
   46.2452   11.2007   50.5051 C   0  0  0  0  0  0  0  0  0  0  0  0
   47.5374   11.4653   50.6840 N   0  0  0  0  0  0  0  0  0  0  0  0
   45.8220   10.5943   49.3228 C   0  0  0  0  0  0  0  0  0  0  0  0
   44.4683   10.3161   49.0974 C   0  0  0  0  0  0  0  0  0  0  0  0
   45.7372   12.1448   52.7503 C   0  0  0  0  0  0  0  0  0  0  0  0
   47.8416   11.8933   51.5168 H   0  0  0  0  0  0  0  0  0  0  0  0
   48.1891   11.2331   49.9835 H   0  0  0  0  0  0  0  0  0  0  0  0
   44.0789    9.6067   47.8426 C   0  0  0  0  0  0  0  0  0  0  0  0
   45.3283    9.3221   46.9876 C   0  0  0  0  0  0  0  0  0  0  0  0
   43.1213   10.4718   46.9970 C   0  0  0  0  0  0  0  0  0  0  0  0
   43.3727    8.2778   48.1408 C   0  0  0  0  0  0  0  0  0  0  0  0
 17 18  1  0  0  0
 18 19  2  0  0  0
 18 23  1  0  0  0
 19 20  1  0  0  0
 20 21  2  0  0  0
 21 22  1  0  0  0
 21 16  1  0  0  0
 22 23  2  0  0  0
 16 15  1  0  0  0
 15  1  1  0  0  0
  1  2  1  0  0  0
  1  8  1  0  0  0
  1 10  1  0  0  0
  2  3  1  0  0  0
  3  4  2  0  0  0
  3  5  1  0  0  0
  5 25  1  0  0  0
  5  6  2  0  0  0
 25 26  1  0  0  0
 26 27  2  0  0  0
 26 32  1  0  0  0
 27 28  1  0  0  0
 28 29  2  0  0  0
 28 33  1  0  0  0
 29 30  1  0  0  0
 29 31  1  0  0  0
 31 32  2  0  0  0
 32 36  1  0  0  0
 36 37  1  0  0  0
 36 38  1  0  0  0
 36 39  1  0  0  0
  6  7  1  0  0  0
  6  8  1  0  0  0
 10 11  1  0  0  0
 10 14  1  0  0  0
 11 12  1  0  0  0
 12 13  1  0  0  0
 13 14  1  0  0  0
 17 24  1  0  0  0
 30 34  1  0  0  0
 30 35  1  0  0  0
  7  9  1  0  0  0
M  END
> <minimizedAffinity>
-8.06909

$$$$
1OS5_NH1_A_901


 39 42  0  0  0  0  0  0  0  0999 V2000
   40.8238   13.9769   53.7042 C   0  0  0  0  0  0  0  0  0  0  0  0
   40.1744   12.7032   53.3559 O   0  0  0  0  0  0  0  0  0  0  0  0
   40.9281   11.7086   52.8056 C   0  0  0  0  0  0  0  0  0  0  0  0
   40.6041   10.5162   52.8273 O   0  0  0  0  0  0  0  0  0  0  0  0
   42.2275   12.1043   52.1629 C   0  0  0  0  0  0  0  0  0  0  0  0
   42.5492   13.4115   52.0528 C   0  0  0  0  0  0  0  0  0  0  0  0
   43.6565   13.7600   51.3906 O   0  0  0  0  0  0  0  0  0  0  0  0
   41.5731   14.5054   52.4394 C   0  0  0  0  0  0  0  0  0  0  0  0
   44.2775   13.1051   51.1389 H   0  0  0  0  0  0  0  0  0  0  0  0
   39.7166   15.0108   54.0735 C   0  0  0  0  0  0  0  0  0  0  0  0
   38.3622   14.4180   54.5142 C   0  0  0  0  0  0  0  0  0  0  0  0
   37.3045   15.4760   54.1374 C   0  0  0  0  0  0  0  0  0  0  0  0
   37.9797   16.5062   53.1876 C   0  0  0  0  0  0  0  0  0  0  0  0
   39.4053   16.0064   52.9319 C   0  0  0  0  0  0  0  0  0  0  0  0
   41.7578   13.6599   54.9082 C   0  0  0  0  0  0  0  0  0  0  0  0
   41.7155   14.7276   56.0192 C   0  0  0  0  0  0  0  0  0  0  0  0
   40.9621   12.5684   61.1857 O   0  0  0  0  0  0  0  0  0  0  0  0
   41.1611   13.0675   59.9184 C   0  0  0  0  0  0  0  0  0  0  0  0
   42.2373   13.9224   59.6710 C   0  0  0  0  0  0  0  0  0  0  0  0
   42.4183   14.4659   58.3946 C   0  0  0  0  0  0  0  0  0  0  0  0
   41.5207   14.1559   57.3687 C   0  0  0  0  0  0  0  0  0  0  0  0
   40.4441   13.2952   57.6258 C   0  0  0  0  0  0  0  0  0  0  0  0
   40.2613   12.7507   58.8991 C   0  0  0  0  0  0  0  0  0  0  0  0
   41.5642   12.7790   61.8721 H   0  0  0  0  0  0  0  0  0  0  0  0
   43.3389   10.8756   51.5458 S   0  0  0  0  0  0  0  0  0  0  0  0
   42.7771   10.5201   49.9081 C   0  0  0  0  0  0  0  0  0  0  0  0
   41.4968    9.9758   49.8118 C   0  0  0  0  0  0  0  0  0  0  0  0
   40.9707    9.6326   48.5767 C   0  0  0  0  0  0  0  0  0  0  0  0
   41.7130    9.8588   47.4119 C   0  0  0  0  0  0  0  0  0  0  0  0
   41.2237    9.5106   46.2239 N   0  0  0  0  0  0  0  0  0  0  0  0
   42.9936   10.4040   47.4982 C   0  0  0  0  0  0  0  0  0  0  0  0
   43.5431   10.7667   48.7340 C   0  0  0  0  0  0  0  0  0  0  0  0
   39.5979    9.1300   48.5008 C   0  0  0  0  0  0  0  0  0  0  0  0
   40.3202    9.1253   46.1574 H   0  0  0  0  0  0  0  0  0  0  0  0
   41.7654    9.6383   45.4118 H   0  0  0  0  0  0  0  0  0  0  0  0
   44.8921   11.4062   48.7616 C   0  0  0  0  0  0  0  0  0  0  0  0
   45.6284   11.0295   50.0612 C   0  0  0  0  0  0  0  0  0  0  0  0
   44.7722   12.9438   48.7215 C   0  0  0  0  0  0  0  0  0  0  0  0
   45.7486   10.9700   47.5659 C   0  0  0  0  0  0  0  0  0  0  0  0
 17 18  1  0  0  0
 18 19  2  0  0  0
 18 23  1  0  0  0
 19 20  1  0  0  0
 20 21  2  0  0  0
 21 22  1  0  0  0
 21 16  1  0  0  0
 22 23  2  0  0  0
 16 15  1  0  0  0
 15  1  1  0  0  0
  1  2  1  0  0  0
  1  8  1  0  0  0
  1 10  1  0  0  0
  2  3  1  0  0  0
  3  4  2  0  0  0
  3  5  1  0  0  0
  5 25  1  0  0  0
  5  6  2  0  0  0
 25 26  1  0  0  0
 26 27  2  0  0  0
 26 32  1  0  0  0
 27 28  1  0  0  0
 28 29  2  0  0  0
 28 33  1  0  0  0
 29 30  1  0  0  0
 29 31  1  0  0  0
 31 32  2  0  0  0
 32 36  1  0  0  0
 36 37  1  0  0  0
 36 38  1  0  0  0
 36 39  1  0  0  0
  6  7  1  0  0  0
  6  8  1  0  0  0
 10 11  1  0  0  0
 10 14  1  0  0  0
 11 12  1  0  0  0
 12 13  1  0  0  0
 13 14  1  0  0  0
 17 24  1  0  0  0
 30 34  1  0  0  0
 30 35  1  0  0  0
  7  9  1  0  0  0
M  END
> <minimizedAffinity>
-8.06610

$$$$
1OS5_NH1_A_901


 39 42  0  0  0  0  0  0  0  0999 V2000
   40.8496   14.0074   53.3288 C   0  0  0  0  0  0  0  0  0  0  0  0
   40.9440   12.8216   52.4627 O   0  0  0  0  0  0  0  0  0  0  0  0
   42.1450   12.1860   52.3448 C   0  0  0  0  0  0  0  0  0  0  0  0
   42.2617   11.0118   51.9774 O   0  0  0  0  0  0  0  0  0  0  0  0
   43.3763   12.9677   52.7063 C   0  0  0  0  0  0  0  0  0  0  0  0
   43.2698   14.2767   53.0216 C   0  0  0  0  0  0  0  0  0  0  0  0
   44.3783   14.9896   53.2428 O   0  0  0  0  0  0  0  0  0  0  0  0
   41.9551   15.0210   52.8918 C   0  0  0  0  0  0  0  0  0  0  0  0
   45.2049   14.5563   53.3273 H   0  0  0  0  0  0  0  0  0  0  0  0
   39.4623   14.6799   53.0958 C   0  0  0  0  0  0  0  0  0  0  0  0
   39.4776   16.2130   52.9254 C   0  0  0  0  0  0  0  0  0  0  0  0
   38.0980   16.6984   53.4167 C   0  0  0  0  0  0  0  0  0  0  0  0
   37.4237   15.5221   54.1788 C   0  0  0  0  0  0  0  0  0  0  0  0
   38.4405   14.3765   54.2162 C   0  0  0  0  0  0  0  0  0  0  0  0
   41.0114   13.4816   54.7848 C   0  0  0  0  0  0  0  0  0  0  0  0
   41.4391   14.5698   55.7893 C   0  0  0  0  0  0  0  0  0  0  0  0
   41.3890   12.7669   61.1437 O   0  0  0  0  0  0  0  0  0  0  0  0
   41.3855   13.2327   59.8484 C   0  0  0  0  0  0  0  0  0  0  0  0
   40.4011   12.7984   58.9581 C   0  0  0  0  0  0  0  0  0  0  0  0
   40.4192   13.2360   57.6294 C   0  0  0  0  0  0  0  0  0  0  0  0
   41.4236   14.1047   57.1927 C   0  0  0  0  0  0  0  0  0  0  0  0
   42.4068   14.5369   58.0941 C   0  0  0  0  0  0  0  0  0  0  0  0
   42.3908   14.1020   59.4214 C   0  0  0  0  0  0  0  0  0  0  0  0
   40.7156   12.1833   61.4336 H   0  0  0  0  0  0  0  0  0  0  0  0
   44.9649   12.1919   52.7198 S   0  0  0  0  0  0  0  0  0  0  0  0
   44.9672   11.1607   54.1552 C   0  0  0  0  0  0  0  0  0  0  0  0
   44.3518    9.9178   54.0092 C   0  0  0  0  0  0  0  0  0  0  0  0
   44.2720    9.0435   55.0811 C   0  0  0  0  0  0  0  0  0  0  0  0
   44.8371    9.3923   56.3132 C   0  0  0  0  0  0  0  0  0  0  0  0
   44.7442    8.5674   57.3537 N   0  0  0  0  0  0  0  0  0  0  0  0
   45.4557   10.6324   56.4683 C   0  0  0  0  0  0  0  0  0  0  0  0
   45.5563   11.5291   55.3975 C   0  0  0  0  0  0  0  0  0  0  0  0
   43.6839    7.7183   54.8785 C   0  0  0  0  0  0  0  0  0  0  0  0
   44.3085    7.6908   57.2496 H   0  0  0  0  0  0  0  0  0  0  0  0
   45.1113    8.8340   58.2275 H   0  0  0  0  0  0  0  0  0  0  0  0
   46.2862   12.8154   55.6026 C   0  0  0  0  0  0  0  0  0  0  0  0
   47.2731   12.6809   56.7780 C   0  0  0  0  0  0  0  0  0  0  0  0
   45.3048   13.9555   55.9449 C   0  0  0  0  0  0  0  0  0  0  0  0
   47.0673   13.2280   54.3483 C   0  0  0  0  0  0  0  0  0  0  0  0
 17 18  1  0  0  0
 18 19  2  0  0  0
 18 23  1  0  0  0
 19 20  1  0  0  0
 20 21  2  0  0  0
 21 22  1  0  0  0
 21 16  1  0  0  0
 22 23  2  0  0  0
 16 15  1  0  0  0
 15  1  1  0  0  0
  1  2  1  0  0  0
  1  8  1  0  0  0
  1 10  1  0  0  0
  2  3  1  0  0  0
  3  4  2  0  0  0
  3  5  1  0  0  0
  5 25  1  0  0  0
  5  6  2  0  0  0
 25 26  1  0  0  0
 26 27  2  0  0  0
 26 32  1  0  0  0
 27 28  1  0  0  0
 28 29  2  0  0  0
 28 33  1  0  0  0
 29 30  1  0  0  0
 29 31  1  0  0  0
 31 32  2  0  0  0
 32 36  1  0  0  0
 36 37  1  0  0  0
 36 38  1  0  0  0
 36 39  1  0  0  0
  6  7  1  0  0  0
  6  8  1  0  0  0
 10 11  1  0  0  0
 10 14  1  0  0  0
 11 12  1  0  0  0
 12 13  1  0  0  0
 13 14  1  0  0  0
 17 24  1  0  0  0
 30 34  1  0  0  0
 30 35  1  0  0  0
  7  9  1  0  0  0
M  END
> <minimizedAffinity>
-7.98153

$$$$
