2HB3_GRL_B_201


 42 45  0  0  0  0  0  0  0  0999 V2000
   14.2927   20.5169   17.0827 C   0  0  0  0  0  0  0  0  0  0  0  0
   14.5587   22.3904   18.6511 C   0  0  0  0  0  0  0  0  0  0  0  0
   13.3825   22.6009   18.7561 O   0  0  0  0  0  0  0  0  0  0  0  0
   15.1389   21.4252   17.9040 N   0  0  0  0  0  0  0  0  0  0  0  0
   16.1181   21.3232   17.9030 H   0  0  0  0  0  0  0  0  0  0  0  0
   15.4940   23.1413   19.3084 O   0  0  0  0  0  0  0  0  0  0  0  0
   15.1168   24.5087   19.6280 C   0  0  0  0  0  0  0  0  0  0  0  0
   15.1763   25.3805   18.3651 C   0  0  0  0  0  0  0  0  0  0  0  0
   18.1593   24.3899   19.1511 O   0  0  0  0  0  0  0  0  0  0  0  0
   18.0384   24.1663   17.7571 C   0  0  0  0  0  0  0  0  0  0  0  0
   16.5900   26.0060   18.2998 C   0  0  0  0  0  0  0  0  0  0  0  0
   16.2496   25.0401   20.5428 C   0  0  0  0  0  0  0  0  0  0  0  0
   17.5290   25.4934   17.1739 C   0  0  0  0  0  0  0  0  0  0  0  0
   17.3558   25.5358   19.5776 C   0  0  0  0  0  0  0  0  0  0  0  0
   13.8236   19.4006   18.0438 C   0  0  0  0  0  0  0  0  0  0  0  0
   14.9366   18.5824   18.4460 O   0  0  0  0  0  0  0  0  0  0  0  0
   15.3168   18.1479   17.6666 H   0  0  0  0  0  0  0  0  0  0  0  0
   12.8065   18.4368   17.3734 C   0  0  0  0  0  0  0  0  0  0  0  0
   11.4640   18.9839   17.4721 N   0  0  0  0  0  0  0  0  0  0  0  0
   11.7831   19.7491   15.0768 O   0  0  0  0  0  0  0  0  0  0  0  0
    9.7289   20.4874   16.3956 O   0  0  0  0  0  0  0  0  0  0  0  0
   10.7292   19.4709   16.0586 S   0  0  0  0  0  0  0  0  0  0  0  0
    9.7707   18.0907   15.4487 C   0  0  0  0  0  0  0  0  0  0  0  0
    8.3860   18.2169   15.3784 C   0  0  0  0  0  0  0  0  0  0  0  0
    7.6481   17.1305   14.8912 C   0  0  0  0  0  0  0  0  0  0  0  0
    8.3233   15.9594   14.4907 C   0  0  0  0  0  0  0  0  0  0  0  0
    9.7116   15.8713   14.5746 C   0  0  0  0  0  0  0  0  0  0  0  0
   10.4687   16.9490   15.0615 C   0  0  0  0  0  0  0  0  0  0  0  0
    7.4956   14.8079   13.9691 C   0  0  0  0  0  0  0  0  0  0  0  0
    7.5955   13.7286   14.8727 O   0  0  0  0  0  0  0  0  0  0  0  0
    8.5240   13.4600   14.9542 H   0  0  0  0  0  0  0  0  0  0  0  0
   10.5454   18.5752   18.5487 C   0  0  0  0  0  0  0  0  0  0  0  0
   10.8064   19.2865   19.9090 C   0  0  0  0  0  0  0  0  0  0  0  0
    9.9233   18.5422   20.9413 C   0  0  0  0  0  0  0  0  0  0  0  0
   10.4176   20.7801   19.8226 C   0  0  0  0  0  0  0  0  0  0  0  0
   15.2115   19.9778   15.9336 C   0  0  0  0  0  0  0  0  0  0  0  0
   15.5145   21.1173   14.9727 C   0  0  0  0  0  0  0  0  0  0  0  0
   14.4832   21.6870   14.2036 C   0  0  0  0  0  0  0  0  0  0  0  0
   14.7472   22.7547   13.2982 C   0  0  0  0  0  0  0  0  0  0  0  0
   16.0660   23.2726   13.1496 C   0  0  0  0  0  0  0  0  0  0  0  0
   17.0828   22.6951   13.9232 C   0  0  0  0  0  0  0  0  0  0  0  0
   16.8164   21.6346   14.8208 C   0  0  0  0  0  0  0  0  0  0  0  0
  7  8  1  0  0  0
  7 12  1  0  0  0
  7  6  1  0  0  0
  8 11  1  0  0  0
  9 10  1  0  0  0
  9 14  1  0  0  0
 10 13  1  0  0  0
 11 13  1  0  0  0
 11 14  1  0  0  0
 12 14  1  0  0  0
  6  2  1  0  0  0
  2  3  2  0  0  0
  2  4  1  0  0  0
  1 36  1  0  0  0
  1  4  1  0  0  0
  1 15  1  0  0  0
 36 37  1  0  0  0
 37 38  1  0  0  0
 37 42  2  0  0  0
 38 39  2  0  0  0
 39 40  1  0  0  0
 40 41  2  0  0  0
 41 42  1  0  0  0
 15 18  1  0  0  0
 15 16  1  0  0  0
 18 19  1  0  0  0
 32 33  1  0  0  0
 32 19  1  0  0  0
 33 34  1  0  0  0
 33 35  1  0  0  0
 20 22  2  0  0  0
 21 22  2  0  0  0
 19 22  1  0  0  0
 22 23  1  0  0  0
 23 24  2  0  0  0
 23 28  1  0  0  0
 24 25  1  0  0  0
 25 26  2  0  0  0
 26 27  1  0  0  0
 26 29  1  0  0  0
 27 28  2  0  0  0
 29 30  1  0  0  0
  4  5  1  0  0  0
 16 17  1  0  0  0
 30 31  1  0  0  0
M  END
> <minimizedAffinity>
-10.59910

$$$$
2HB3_GRL_B_201


 42 45  0  0  0  0  0  0  0  0999 V2000
   11.2668   18.6615   18.2427 C   0  0  0  0  0  0  0  0  0  0  0  0
   10.3632   17.5478   16.2468 C   0  0  0  0  0  0  0  0  0  0  0  0
   10.5745   18.4720   15.5121 O   0  0  0  0  0  0  0  0  0  0  0  0
   10.6514   17.4874   17.5657 N   0  0  0  0  0  0  0  0  0  0  0  0
   10.4550   16.6694   18.0772 H   0  0  0  0  0  0  0  0  0  0  0  0
    9.7766   16.3914   15.8116 O   0  0  0  0  0  0  0  0  0  0  0  0
    8.9045   16.5050   14.6537 C   0  0  0  0  0  0  0  0  0  0  0  0
    7.6345   17.2845   15.0253 C   0  0  0  0  0  0  0  0  0  0  0  0
    7.6967   14.4687   16.6268 O   0  0  0  0  0  0  0  0  0  0  0  0
    7.3530   15.4482   17.5912 C   0  0  0  0  0  0  0  0  0  0  0  0
    6.5694   16.2523   15.4661 C   0  0  0  0  0  0  0  0  0  0  0  0
    8.4245   15.0602   14.3625 C   0  0  0  0  0  0  0  0  0  0  0  0
    6.1907   16.2398   16.9723 C   0  0  0  0  0  0  0  0  0  0  0  0
    7.2092   14.8371   15.2974 C   0  0  0  0  0  0  0  0  0  0  0  0
   12.7807   18.5698   17.9440 C   0  0  0  0  0  0  0  0  0  0  0  0
   13.3962   17.5642   18.7687 O   0  0  0  0  0  0  0  0  0  0  0  0
   13.3031   17.8103   19.7023 H   0  0  0  0  0  0  0  0  0  0  0  0
   13.5242   19.8958   18.2626 C   0  0  0  0  0  0  0  0  0  0  0  0
   13.0257   20.9622   17.4108 N   0  0  0  0  0  0  0  0  0  0  0  0
   11.7629   21.8762   19.4095 O   0  0  0  0  0  0  0  0  0  0  0  0
   11.6433   23.0732   17.1608 O   0  0  0  0  0  0  0  0  0  0  0  0
   12.3967   22.3107   18.1599 S   0  0  0  0  0  0  0  0  0  0  0  0
   13.7676   23.3749   18.5888 C   0  0  0  0  0  0  0  0  0  0  0  0
   13.8550   24.6279   17.9883 C   0  0  0  0  0  0  0  0  0  0  0  0
   14.9300   25.4545   18.3395 C   0  0  0  0  0  0  0  0  0  0  0  0
   15.8759   24.9974   19.2798 C   0  0  0  0  0  0  0  0  0  0  0  0
   15.7537   23.7366   19.8608 C   0  0  0  0  0  0  0  0  0  0  0  0
   14.6840   22.8929   19.5207 C   0  0  0  0  0  0  0  0  0  0  0  0
   17.0216   25.9160   19.6358 C   0  0  0  0  0  0  0  0  0  0  0  0
   18.1321   25.1330   20.0169 O   0  0  0  0  0  0  0  0  0  0  0  0
   17.8948   24.5863   20.7822 H   0  0  0  0  0  0  0  0  0  0  0  0
   13.5788   21.1923   16.0650 C   0  0  0  0  0  0  0  0  0  0  0  0
   15.1318   21.1050   15.9944 C   0  0  0  0  0  0  0  0  0  0  0  0
   15.5987   22.4764   15.4459 C   0  0  0  0  0  0  0  0  0  0  0  0
   15.5676   19.9561   15.0566 C   0  0  0  0  0  0  0  0  0  0  0  0
   10.9419   18.5109   19.7682 C   0  0  0  0  0  0  0  0  0  0  0  0
    9.4354   18.3896   19.9391 C   0  0  0  0  0  0  0  0  0  0  0  0
    8.9025   17.6159   20.9865 C   0  0  0  0  0  0  0  0  0  0  0  0
    7.4945   17.4901   21.1630 C   0  0  0  0  0  0  0  0  0  0  0  0
    6.5897   18.1470   20.2801 C   0  0  0  0  0  0  0  0  0  0  0  0
    7.1357   18.9148   19.2417 C   0  0  0  0  0  0  0  0  0  0  0  0
    8.5347   19.0367   19.0698 C   0  0  0  0  0  0  0  0  0  0  0  0
  7  8  1  0  0  0
  7 12  1  0  0  0
  7  6  1  0  0  0
  8 11  1  0  0  0
  9 10  1  0  0  0
  9 14  1  0  0  0
 10 13  1  0  0  0
 11 13  1  0  0  0
 11 14  1  0  0  0
 12 14  1  0  0  0
  6  2  1  0  0  0
  2  3  2  0  0  0
  2  4  1  0  0  0
  1 36  1  0  0  0
  1  4  1  0  0  0
  1 15  1  0  0  0
 36 37  1  0  0  0
 37 38  1  0  0  0
 37 42  2  0  0  0
 38 39  2  0  0  0
 39 40  1  0  0  0
 40 41  2  0  0  0
 41 42  1  0  0  0
 15 18  1  0  0  0
 15 16  1  0  0  0
 18 19  1  0  0  0
 32 33  1  0  0  0
 32 19  1  0  0  0
 33 34  1  0  0  0
 33 35  1  0  0  0
 20 22  2  0  0  0
 21 22  2  0  0  0
 19 22  1  0  0  0
 22 23  1  0  0  0
 23 24  2  0  0  0
 23 28  1  0  0  0
 24 25  1  0  0  0
 25 26  2  0  0  0
 26 27  1  0  0  0
 26 29  1  0  0  0
 27 28  2  0  0  0
 29 30  1  0  0  0
  4  5  1  0  0  0
 16 17  1  0  0  0
 30 31  1  0  0  0
M  END
> <minimizedAffinity>
-10.25410

$$$$
2HB3_GRL_B_201


 42 45  0  0  0  0  0  0  0  0999 V2000
   14.3077   20.7254   16.8981 C   0  0  0  0  0  0  0  0  0  0  0  0
   14.5271   22.4759   18.6092 C   0  0  0  0  0  0  0  0  0  0  0  0
   13.3547   22.7261   18.6476 O   0  0  0  0  0  0  0  0  0  0  0  0
   15.1246   21.5410   17.8377 N   0  0  0  0  0  0  0  0  0  0  0  0
   16.0971   21.3998   17.8969 H   0  0  0  0  0  0  0  0  0  0  0  0
   15.4391   23.1422   19.3807 O   0  0  0  0  0  0  0  0  0  0  0  0
   15.1505   24.5393   19.6614 C   0  0  0  0  0  0  0  0  0  0  0  0
   15.1976   25.3581   18.3630 C   0  0  0  0  0  0  0  0  0  0  0  0
   18.1569   24.2354   19.0554 O   0  0  0  0  0  0  0  0  0  0  0  0
   17.9597   23.9663   17.6783 C   0  0  0  0  0  0  0  0  0  0  0  0
   16.6380   25.9020   18.2100 C   0  0  0  0  0  0  0  0  0  0  0  0
   16.3512   25.0418   20.5030 C   0  0  0  0  0  0  0  0  0  0  0  0
   17.4952   25.2963   17.0652 C   0  0  0  0  0  0  0  0  0  0  0  0
   17.4361   25.4391   19.4706 C   0  0  0  0  0  0  0  0  0  0  0  0
   13.6483   19.6270   17.7633 C   0  0  0  0  0  0  0  0  0  0  0  0
   14.6524   18.7938   18.3697 O   0  0  0  0  0  0  0  0  0  0  0  0
   15.1618   18.3451   17.6768 H   0  0  0  0  0  0  0  0  0  0  0  0
   12.7546   18.6741   16.9230 C   0  0  0  0  0  0  0  0  0  0  0  0
   11.5085   18.4147   17.6238 N   0  0  0  0  0  0  0  0  0  0  0  0
   10.5791   20.7514   17.9413 O   0  0  0  0  0  0  0  0  0  0  0  0
   11.9791   19.6681   19.7772 O   0  0  0  0  0  0  0  0  0  0  0  0
   10.9839   19.5670   18.7064 S   0  0  0  0  0  0  0  0  0  0  0  0
    9.5267   18.9199   19.5149 C   0  0  0  0  0  0  0  0  0  0  0  0
    8.2783   19.1930   18.9625 C   0  0  0  0  0  0  0  0  0  0  0  0
    7.1455   18.6732   19.6019 C   0  0  0  0  0  0  0  0  0  0  0  0
    7.3045   17.8978   20.7687 C   0  0  0  0  0  0  0  0  0  0  0  0
    8.5715   17.6446   21.2910 C   0  0  0  0  0  0  0  0  0  0  0  0
    9.7189   18.1582   20.6652 C   0  0  0  0  0  0  0  0  0  0  0  0
    6.0609   17.3521   21.4313 C   0  0  0  0  0  0  0  0  0  0  0  0
    5.5646   16.2815   20.6574 O   0  0  0  0  0  0  0  0  0  0  0  0
    5.3537   16.5980   19.7651 H   0  0  0  0  0  0  0  0  0  0  0  0
   10.4472   17.5883   17.0231 C   0  0  0  0  0  0  0  0  0  0  0  0
   10.1446   17.9290   15.5341 C   0  0  0  0  0  0  0  0  0  0  0  0
    8.6265   18.2320   15.4793 C   0  0  0  0  0  0  0  0  0  0  0  0
   10.5041   16.7345   14.6214 C   0  0  0  0  0  0  0  0  0  0  0  0
   15.3046   20.1427   15.8389 C   0  0  0  0  0  0  0  0  0  0  0  0
   15.7299   21.2604   14.8990 C   0  0  0  0  0  0  0  0  0  0  0  0
   14.7648   21.9674   14.1585 C   0  0  0  0  0  0  0  0  0  0  0  0
   15.1435   23.0172   13.2731 C   0  0  0  0  0  0  0  0  0  0  0  0
   16.5130   23.3772   13.1160 C   0  0  0  0  0  0  0  0  0  0  0  0
   17.4628   22.6640   13.8609 C   0  0  0  0  0  0  0  0  0  0  0  0
   17.0824   21.6219   14.7388 C   0  0  0  0  0  0  0  0  0  0  0  0
  7  8  1  0  0  0
  7 12  1  0  0  0
  7  6  1  0  0  0
  8 11  1  0  0  0
  9 10  1  0  0  0
  9 14  1  0  0  0
 10 13  1  0  0  0
 11 13  1  0  0  0
 11 14  1  0  0  0
 12 14  1  0  0  0
  6  2  1  0  0  0
  2  3  2  0  0  0
  2  4  1  0  0  0
  1 36  1  0  0  0
  1  4  1  0  0  0
  1 15  1  0  0  0
 36 37  1  0  0  0
 37 38  1  0  0  0
 37 42  2  0  0  0
 38 39  2  0  0  0
 39 40  1  0  0  0
 40 41  2  0  0  0
 41 42  1  0  0  0
 15 18  1  0  0  0
 15 16  1  0  0  0
 18 19  1  0  0  0
 32 33  1  0  0  0
 32 19  1  0  0  0
 33 34  1  0  0  0
 33 35  1  0  0  0
 20 22  2  0  0  0
 21 22  2  0  0  0
 19 22  1  0  0  0
 22 23  1  0  0  0
 23 24  2  0  0  0
 23 28  1  0  0  0
 24 25  1  0  0  0
 25 26  2  0  0  0
 26 27  1  0  0  0
 26 29  1  0  0  0
 27 28  2  0  0  0
 29 30  1  0  0  0
  4  5  1  0  0  0
 16 17  1  0  0  0
 30 31  1  0  0  0
M  END
> <minimizedAffinity>
-9.80185

$$$$
2HB3_GRL_B_201


 42 45  0  0  0  0  0  0  0  0999 V2000
   12.1390   21.3508   18.5152 C   0  0  0  0  0  0  0  0  0  0  0  0
   14.5399   21.8500   18.6797 C   0  0  0  0  0  0  0  0  0  0  0  0
   14.8933   20.7561   18.3374 O   0  0  0  0  0  0  0  0  0  0  0  0
   13.2650   22.2828   18.7964 N   0  0  0  0  0  0  0  0  0  0  0  0
   13.0815   23.2115   19.0666 H   0  0  0  0  0  0  0  0  0  0  0  0
   15.4319   22.8336   19.0076 O   0  0  0  0  0  0  0  0  0  0  0  0
   14.8831   24.0143   19.6548 C   0  0  0  0  0  0  0  0  0  0  0  0
   14.9408   25.2143   18.6982 C   0  0  0  0  0  0  0  0  0  0  0  0
   17.9473   24.2950   19.4813 O   0  0  0  0  0  0  0  0  0  0  0  0
   17.9570   24.4724   18.0756 C   0  0  0  0  0  0  0  0  0  0  0  0
   16.2777   25.9491   18.9565 C   0  0  0  0  0  0  0  0  0  0  0  0
   15.8783   24.3537   20.7937 C   0  0  0  0  0  0  0  0  0  0  0  0
   17.3496   25.8633   17.8358 C   0  0  0  0  0  0  0  0  0  0  0  0
   16.9924   25.1977   20.1248 C   0  0  0  0  0  0  0  0  0  0  0  0
   11.7488   21.6002   17.0404 C   0  0  0  0  0  0  0  0  0  0  0  0
   10.8233   22.6976   16.9435 O   0  0  0  0  0  0  0  0  0  0  0  0
   10.0087   22.4767   17.4216 H   0  0  0  0  0  0  0  0  0  0  0  0
   11.0282   20.3780   16.4082 C   0  0  0  0  0  0  0  0  0  0  0  0
   12.0047   19.4661   15.8369 N   0  0  0  0  0  0  0  0  0  0  0  0
   12.2066   17.7415   17.6834 O   0  0  0  0  0  0  0  0  0  0  0  0
   12.6214   17.0759   15.2567 O   0  0  0  0  0  0  0  0  0  0  0  0
   11.8886   17.8580   16.2561 S   0  0  0  0  0  0  0  0  0  0  0  0
   10.1831   17.3685   16.0389 C   0  0  0  0  0  0  0  0  0  0  0  0
    9.6334   17.4081   14.7604 C   0  0  0  0  0  0  0  0  0  0  0  0
    8.2983   17.0143   14.6034 C   0  0  0  0  0  0  0  0  0  0  0  0
    7.5639   16.5937   15.7311 C   0  0  0  0  0  0  0  0  0  0  0  0
    8.1496   16.5663   16.9954 C   0  0  0  0  0  0  0  0  0  0  0  0
    9.4862   16.9585   17.1732 C   0  0  0  0  0  0  0  0  0  0  0  0
    6.1268   16.1748   15.5245 C   0  0  0  0  0  0  0  0  0  0  0  0
    5.2890   17.2831   15.7718 O   0  0  0  0  0  0  0  0  0  0  0  0
    5.4180   17.5890   16.6832 H   0  0  0  0  0  0  0  0  0  0  0  0
   12.6293   19.7305   14.5292 C   0  0  0  0  0  0  0  0  0  0  0  0
   13.7639   20.7960   14.5723 C   0  0  0  0  0  0  0  0  0  0  0  0
   13.8035   21.4158   13.1532 C   0  0  0  0  0  0  0  0  0  0  0  0
   15.1154   20.1341   14.9252 C   0  0  0  0  0  0  0  0  0  0  0  0
   10.9936   21.7291   19.5153 C   0  0  0  0  0  0  0  0  0  0  0  0
   10.2453   20.4636   19.9053 C   0  0  0  0  0  0  0  0  0  0  0  0
   10.8330   19.5377   20.7868 C   0  0  0  0  0  0  0  0  0  0  0  0
   10.1481   18.3469   21.1638 C   0  0  0  0  0  0  0  0  0  0  0  0
    8.8475   18.0643   20.6556 C   0  0  0  0  0  0  0  0  0  0  0  0
    8.2748   18.9966   19.7788 C   0  0  0  0  0  0  0  0  0  0  0  0
    8.9587   20.1778   19.4066 C   0  0  0  0  0  0  0  0  0  0  0  0
  7  8  1  0  0  0
  7 12  1  0  0  0
  7  6  1  0  0  0
  8 11  1  0  0  0
  9 10  1  0  0  0
  9 14  1  0  0  0
 10 13  1  0  0  0
 11 13  1  0  0  0
 11 14  1  0  0  0
 12 14  1  0  0  0
  6  2  1  0  0  0
  2  3  2  0  0  0
  2  4  1  0  0  0
  1 36  1  0  0  0
  1  4  1  0  0  0
  1 15  1  0  0  0
 36 37  1  0  0  0
 37 38  1  0  0  0
 37 42  2  0  0  0
 38 39  2  0  0  0
 39 40  1  0  0  0
 40 41  2  0  0  0
 41 42  1  0  0  0
 15 18  1  0  0  0
 15 16  1  0  0  0
 18 19  1  0  0  0
 32 33  1  0  0  0
 32 19  1  0  0  0
 33 34  1  0  0  0
 33 35  1  0  0  0
 20 22  2  0  0  0
 21 22  2  0  0  0
 19 22  1  0  0  0
 22 23  1  0  0  0
 23 24  2  0  0  0
 23 28  1  0  0  0
 24 25  1  0  0  0
 25 26  2  0  0  0
 26 27  1  0  0  0
 26 29  1  0  0  0
 27 28  2  0  0  0
 29 30  1  0  0  0
  4  5  1  0  0  0
 16 17  1  0  0  0
 30 31  1  0  0  0
M  END
> <minimizedAffinity>
-9.75414

$$$$
2HB3_GRL_B_201


 42 45  0  0  0  0  0  0  0  0999 V2000
   11.9108   18.2609   16.5411 C   0  0  0  0  0  0  0  0  0  0  0  0
   10.6117   16.6686   15.1931 C   0  0  0  0  0  0  0  0  0  0  0  0
   11.3445   16.7188   14.2449 O   0  0  0  0  0  0  0  0  0  0  0  0
   10.7602   17.3343   16.3598 N   0  0  0  0  0  0  0  0  0  0  0  0
   10.1095   17.2067   17.0875 H   0  0  0  0  0  0  0  0  0  0  0  0
    9.4852   15.8930   15.2020 O   0  0  0  0  0  0  0  0  0  0  0  0
    8.4427   16.2562   14.2557 C   0  0  0  0  0  0  0  0  0  0  0  0
    7.4687   17.2525   14.9017 C   0  0  0  0  0  0  0  0  0  0  0  0
    7.2511   14.3858   16.3958 O   0  0  0  0  0  0  0  0  0  0  0  0
    7.3245   15.3506   17.4310 C   0  0  0  0  0  0  0  0  0  0  0  0
    6.3193   16.4327   15.5349 C   0  0  0  0  0  0  0  0  0  0  0  0
    7.6179   14.9614   14.0420 C   0  0  0  0  0  0  0  0  0  0  0  0
    6.2570   16.4006   17.0864 C   0  0  0  0  0  0  0  0  0  0  0  0
    6.5962   14.9308   15.2064 C   0  0  0  0  0  0  0  0  0  0  0  0
   11.8319   18.7427   18.0079 C   0  0  0  0  0  0  0  0  0  0  0  0
   12.5022   17.8143   18.8791 O   0  0  0  0  0  0  0  0  0  0  0  0
   12.0583   16.9528   18.8366 H   0  0  0  0  0  0  0  0  0  0  0  0
   10.3682   18.8277   18.5209 C   0  0  0  0  0  0  0  0  0  0  0  0
   10.3397   19.4247   19.8453 N   0  0  0  0  0  0  0  0  0  0  0  0
   10.4069   21.4584   21.3567 O   0  0  0  0  0  0  0  0  0  0  0  0
    9.3577   21.6187   19.0377 O   0  0  0  0  0  0  0  0  0  0  0  0
   10.3851   21.0874   19.9376 S   0  0  0  0  0  0  0  0  0  0  0  0
   11.9291   21.6232   19.2133 C   0  0  0  0  0  0  0  0  0  0  0  0
   11.8915   22.4573   18.0992 C   0  0  0  0  0  0  0  0  0  0  0  0
   13.1087   22.8758   17.5466 C   0  0  0  0  0  0  0  0  0  0  0  0
   14.3178   22.4459   18.1307 C   0  0  0  0  0  0  0  0  0  0  0  0
   14.3149   21.6118   19.2471 C   0  0  0  0  0  0  0  0  0  0  0  0
   13.1050   21.1804   19.8145 C   0  0  0  0  0  0  0  0  0  0  0  0
   15.6117   22.9180   17.5091 C   0  0  0  0  0  0  0  0  0  0  0  0
   15.3603   24.0938   16.7705 O   0  0  0  0  0  0  0  0  0  0  0  0
   14.7078   23.9070   16.0775 H   0  0  0  0  0  0  0  0  0  0  0  0
    9.6806   18.7509   20.9774 C   0  0  0  0  0  0  0  0  0  0  0  0
    8.6018   17.7105   20.5551 C   0  0  0  0  0  0  0  0  0  0  0  0
    7.3858   18.5447   20.0806 C   0  0  0  0  0  0  0  0  0  0  0  0
    8.2215   16.8086   21.7515 C   0  0  0  0  0  0  0  0  0  0  0  0
   11.7064   19.4242   15.5115 C   0  0  0  0  0  0  0  0  0  0  0  0
   13.0642   20.0136   15.1615 C   0  0  0  0  0  0  0  0  0  0  0  0
   14.2362   19.4693   15.7181 C   0  0  0  0  0  0  0  0  0  0  0  0
   15.5169   20.0074   15.4025 C   0  0  0  0  0  0  0  0  0  0  0  0
   15.6417   21.1132   14.5129 C   0  0  0  0  0  0  0  0  0  0  0  0
   14.4650   21.6442   13.9659 C   0  0  0  0  0  0  0  0  0  0  0  0
   13.1951   21.1070   14.2823 C   0  0  0  0  0  0  0  0  0  0  0  0
  7  8  1  0  0  0
  7 12  1  0  0  0
  7  6  1  0  0  0
  8 11  1  0  0  0
  9 10  1  0  0  0
  9 14  1  0  0  0
 10 13  1  0  0  0
 11 13  1  0  0  0
 11 14  1  0  0  0
 12 14  1  0  0  0
  6  2  1  0  0  0
  2  3  2  0  0  0
  2  4  1  0  0  0
  1 36  1  0  0  0
  1  4  1  0  0  0
  1 15  1  0  0  0
 36 37  1  0  0  0
 37 38  1  0  0  0
 37 42  2  0  0  0
 38 39  2  0  0  0
 39 40  1  0  0  0
 40 41  2  0  0  0
 41 42  1  0  0  0
 15 18  1  0  0  0
 15 16  1  0  0  0
 18 19  1  0  0  0
 32 33  1  0  0  0
 32 19  1  0  0  0
 33 34  1  0  0  0
 33 35  1  0  0  0
 20 22  2  0  0  0
 21 22  2  0  0  0
 19 22  1  0  0  0
 22 23  1  0  0  0
 23 24  2  0  0  0
 23 28  1  0  0  0
 24 25  1  0  0  0
 25 26  2  0  0  0
 26 27  1  0  0  0
 26 29  1  0  0  0
 27 28  2  0  0  0
 29 30  1  0  0  0
  4  5  1  0  0  0
 16 17  1  0  0  0
 30 31  1  0  0  0
M  END
> <minimizedAffinity>
-9.54083

$$$$
2HB3_GRL_B_201


 42 45  0  0  0  0  0  0  0  0999 V2000
    7.6375   17.6712   19.4300 C   0  0  0  0  0  0  0  0  0  0  0  0
    6.4417   15.7974   18.3815 C   0  0  0  0  0  0  0  0  0  0  0  0
    5.4636   15.9066   19.0671 O   0  0  0  0  0  0  0  0  0  0  0  0
    7.5476   16.5727   18.4297 N   0  0  0  0  0  0  0  0  0  0  0  0
    8.2913   16.4115   17.8051 H   0  0  0  0  0  0  0  0  0  0  0  0
    6.5552   14.8267   17.4246 O   0  0  0  0  0  0  0  0  0  0  0  0
    5.5805   14.8649   16.3463 C   0  0  0  0  0  0  0  0  0  0  0  0
    6.0266   13.9450   15.2003 C   0  0  0  0  0  0  0  0  0  0  0  0
    8.0969   16.4211   15.4833 O   0  0  0  0  0  0  0  0  0  0  0  0
    8.9030   15.2615   15.3681 C   0  0  0  0  0  0  0  0  0  0  0  0
    6.8477   14.8038   14.2093 C   0  0  0  0  0  0  0  0  0  0  0  0
    5.6660   16.3018   15.7712 C   0  0  0  0  0  0  0  0  0  0  0  0
    8.3721   14.5167   14.1335 C   0  0  0  0  0  0  0  0  0  0  0  0
    6.8364   16.2669   14.7565 C   0  0  0  0  0  0  0  0  0  0  0  0
    8.5454   18.7460   18.7895 C   0  0  0  0  0  0  0  0  0  0  0  0
    8.2655   18.8683   17.3835 O   0  0  0  0  0  0  0  0  0  0  0  0
    8.4609   18.0277   16.9406 H   0  0  0  0  0  0  0  0  0  0  0  0
   10.0517   18.3814   18.8939 C   0  0  0  0  0  0  0  0  0  0  0  0
   10.8638   19.4727   18.3830 N   0  0  0  0  0  0  0  0  0  0  0  0
   11.5149   20.1785   20.7288 O   0  0  0  0  0  0  0  0  0  0  0  0
   10.1021   21.7224   19.2711 O   0  0  0  0  0  0  0  0  0  0  0  0
   11.1806   20.7408   19.4157 S   0  0  0  0  0  0  0  0  0  0  0  0
   12.6325   21.5835   18.8013 C   0  0  0  0  0  0  0  0  0  0  0  0
   13.8878   21.0750   19.1241 C   0  0  0  0  0  0  0  0  0  0  0  0
   15.0167   21.7407   18.6294 C   0  0  0  0  0  0  0  0  0  0  0  0
   14.8473   22.8888   17.8287 C   0  0  0  0  0  0  0  0  0  0  0  0
   13.5738   23.3669   17.5259 C   0  0  0  0  0  0  0  0  0  0  0  0
   12.4300   22.7143   18.0135 C   0  0  0  0  0  0  0  0  0  0  0  0
   16.0871   23.5807   17.3114 C   0  0  0  0  0  0  0  0  0  0  0  0
   16.9886   22.6048   16.8357 O   0  0  0  0  0  0  0  0  0  0  0  0
   17.2223   22.0010   17.5580 H   0  0  0  0  0  0  0  0  0  0  0  0
   11.8713   19.2530   17.3310 C   0  0  0  0  0  0  0  0  0  0  0  0
   11.4057   19.6803   15.9079 C   0  0  0  0  0  0  0  0  0  0  0  0
   11.0052   18.3665   15.1918 C   0  0  0  0  0  0  0  0  0  0  0  0
   12.5513   20.3943   15.1548 C   0  0  0  0  0  0  0  0  0  0  0  0
    8.2647   17.0417   20.7206 C   0  0  0  0  0  0  0  0  0  0  0  0
    7.2125   17.0243   21.8188 C   0  0  0  0  0  0  0  0  0  0  0  0
    7.3283   16.1254   22.8950 C   0  0  0  0  0  0  0  0  0  0  0  0
    6.3532   16.0939   23.9330 C   0  0  0  0  0  0  0  0  0  0  0  0
    5.2339   16.9750   23.9059 C   0  0  0  0  0  0  0  0  0  0  0  0
    5.1326   17.8653   22.8276 C   0  0  0  0  0  0  0  0  0  0  0  0
    6.1031   17.8929   21.7985 C   0  0  0  0  0  0  0  0  0  0  0  0
  7  8  1  0  0  0
  7 12  1  0  0  0
  7  6  1  0  0  0
  8 11  1  0  0  0
  9 10  1  0  0  0
  9 14  1  0  0  0
 10 13  1  0  0  0
 11 13  1  0  0  0
 11 14  1  0  0  0
 12 14  1  0  0  0
  6  2  1  0  0  0
  2  3  2  0  0  0
  2  4  1  0  0  0
  1 36  1  0  0  0
  1  4  1  0  0  0
  1 15  1  0  0  0
 36 37  1  0  0  0
 37 38  1  0  0  0
 37 42  2  0  0  0
 38 39  2  0  0  0
 39 40  1  0  0  0
 40 41  2  0  0  0
 41 42  1  0  0  0
 15 18  1  0  0  0
 15 16  1  0  0  0
 18 19  1  0  0  0
 32 33  1  0  0  0
 32 19  1  0  0  0
 33 34  1  0  0  0
 33 35  1  0  0  0
 20 22  2  0  0  0
 21 22  2  0  0  0
 19 22  1  0  0  0
 22 23  1  0  0  0
 23 24  2  0  0  0
 23 28  1  0  0  0
 24 25  1  0  0  0
 25 26  2  0  0  0
 26 27  1  0  0  0
 26 29  1  0  0  0
 27 28  2  0  0  0
 29 30  1  0  0  0
  4  5  1  0  0  0
 16 17  1  0  0  0
 30 31  1  0  0  0
M  END
> <minimizedAffinity>
-9.41748

$$$$
2HB3_GRL_B_201


 42 45  0  0  0  0  0  0  0  0999 V2000
   12.0614   19.6146   17.1589 C   0  0  0  0  0  0  0  0  0  0  0  0
    9.9430   18.5392   16.5292 C   0  0  0  0  0  0  0  0  0  0  0  0
    9.2974   19.5484   16.5863 O   0  0  0  0  0  0  0  0  0  0  0  0
   11.2690   18.4191   16.7607 N   0  0  0  0  0  0  0  0  0  0  0  0
   11.7095   17.5437   16.6664 H   0  0  0  0  0  0  0  0  0  0  0  0
    9.3824   17.3339   16.2072 O   0  0  0  0  0  0  0  0  0  0  0  0
    9.0799   17.1165   14.8017 C   0  0  0  0  0  0  0  0  0  0  0  0
    7.5625   17.1787   14.5737 C   0  0  0  0  0  0  0  0  0  0  0  0
    8.2888   14.6037   16.4010 O   0  0  0  0  0  0  0  0  0  0  0  0
    7.1911   15.2290   17.0427 C   0  0  0  0  0  0  0  0  0  0  0  0
    7.0153   15.7370   14.7001 C   0  0  0  0  0  0  0  0  0  0  0  0
    9.4730   15.6432   14.5239 C   0  0  0  0  0  0  0  0  0  0  0  0
    6.1366   15.4301   15.9434 C   0  0  0  0  0  0  0  0  0  0  0  0
    8.2428   14.8043   14.9525 C   0  0  0  0  0  0  0  0  0  0  0  0
   13.1869   19.7390   16.1066 C   0  0  0  0  0  0  0  0  0  0  0  0
   13.6588   18.4364   15.7182 O   0  0  0  0  0  0  0  0  0  0  0  0
   14.0368   17.9861   16.4897 H   0  0  0  0  0  0  0  0  0  0  0  0
   14.4270   20.4942   16.6586 C   0  0  0  0  0  0  0  0  0  0  0  0
   14.1868   21.9271   16.6363 N   0  0  0  0  0  0  0  0  0  0  0  0
   14.7455   21.7890   19.1048 O   0  0  0  0  0  0  0  0  0  0  0  0
   13.1454   23.5820   18.2509 O   0  0  0  0  0  0  0  0  0  0  0  0
   14.3406   22.7523   18.0752 S   0  0  0  0  0  0  0  0  0  0  0  0
   15.6723   23.9287   17.8796 C   0  0  0  0  0  0  0  0  0  0  0  0
   16.9401   23.4555   17.5523 C   0  0  0  0  0  0  0  0  0  0  0  0
   17.9725   24.3889   17.3943 C   0  0  0  0  0  0  0  0  0  0  0  0
   17.6974   25.7608   17.5678 C   0  0  0  0  0  0  0  0  0  0  0  0
   16.4144   26.1963   17.8940 C   0  0  0  0  0  0  0  0  0  0  0  0
   15.3666   25.2760   18.0579 C   0  0  0  0  0  0  0  0  0  0  0  0
   18.8347   26.7394   17.3884 C   0  0  0  0  0  0  0  0  0  0  0  0
   19.6451   26.7130   18.5434 O   0  0  0  0  0  0  0  0  0  0  0  0
   19.1140   26.9593   19.3168 H   0  0  0  0  0  0  0  0  0  0  0  0
   14.4306   22.7279   15.4242 C   0  0  0  0  0  0  0  0  0  0  0  0
   15.0647   21.9248   14.2506 C   0  0  0  0  0  0  0  0  0  0  0  0
   16.2976   22.7493   13.8035 C   0  0  0  0  0  0  0  0  0  0  0  0
   14.0533   21.7690   13.0921 C   0  0  0  0  0  0  0  0  0  0  0  0
   12.6091   19.3212   18.5973 C   0  0  0  0  0  0  0  0  0  0  0  0
   11.5568   19.7318   19.6160 C   0  0  0  0  0  0  0  0  0  0  0  0
   11.3430   21.0926   19.9026 C   0  0  0  0  0  0  0  0  0  0  0  0
   10.3622   21.4969   20.8534 C   0  0  0  0  0  0  0  0  0  0  0  0
    9.5720   20.5296   21.5387 C   0  0  0  0  0  0  0  0  0  0  0  0
    9.7961   19.1778   21.2420 C   0  0  0  0  0  0  0  0  0  0  0  0
   10.7715   18.7806   20.2973 C   0  0  0  0  0  0  0  0  0  0  0  0
  7  8  1  0  0  0
  7 12  1  0  0  0
  7  6  1  0  0  0
  8 11  1  0  0  0
  9 10  1  0  0  0
  9 14  1  0  0  0
 10 13  1  0  0  0
 11 13  1  0  0  0
 11 14  1  0  0  0
 12 14  1  0  0  0
  6  2  1  0  0  0
  2  3  2  0  0  0
  2  4  1  0  0  0
  1 36  1  0  0  0
  1  4  1  0  0  0
  1 15  1  0  0  0
 36 37  1  0  0  0
 37 38  1  0  0  0
 37 42  2  0  0  0
 38 39  2  0  0  0
 39 40  1  0  0  0
 40 41  2  0  0  0
 41 42  1  0  0  0
 15 18  1  0  0  0
 15 16  1  0  0  0
 18 19  1  0  0  0
 32 33  1  0  0  0
 32 19  1  0  0  0
 33 34  1  0  0  0
 33 35  1  0  0  0
 20 22  2  0  0  0
 21 22  2  0  0  0
 19 22  1  0  0  0
 22 23  1  0  0  0
 23 24  2  0  0  0
 23 28  1  0  0  0
 24 25  1  0  0  0
 25 26  2  0  0  0
 26 27  1  0  0  0
 26 29  1  0  0  0
 27 28  2  0  0  0
 29 30  1  0  0  0
  4  5  1  0  0  0
 16 17  1  0  0  0
 30 31  1  0  0  0
M  END
> <minimizedAffinity>
-9.38792

$$$$
2HB3_GRL_B_201


 42 45  0  0  0  0  0  0  0  0999 V2000
    7.6084   17.7089   19.4013 C   0  0  0  0  0  0  0  0  0  0  0  0
    6.3976   15.8113   18.4145 C   0  0  0  0  0  0  0  0  0  0  0  0
    5.4350   15.9288   19.1203 O   0  0  0  0  0  0  0  0  0  0  0  0
    7.5007   16.5921   18.4233 N   0  0  0  0  0  0  0  0  0  0  0  0
    8.2307   16.4226   17.7848 H   0  0  0  0  0  0  0  0  0  0  0  0
    6.4937   14.8239   17.4731 O   0  0  0  0  0  0  0  0  0  0  0  0
    5.4992   14.8430   16.4125 C   0  0  0  0  0  0  0  0  0  0  0  0
    5.9215   13.8987   15.2773 C   0  0  0  0  0  0  0  0  0  0  0  0
    8.0028   16.3742   15.4713 O   0  0  0  0  0  0  0  0  0  0  0  0
    8.8038   15.2103   15.3647 C   0  0  0  0  0  0  0  0  0  0  0  0
    6.7261   14.7350   14.2539 C   0  0  0  0  0  0  0  0  0  0  0  0
    5.5774   16.2676   15.8068 C   0  0  0  0  0  0  0  0  0  0  0  0
    8.2481   14.4422   14.1556 C   0  0  0  0  0  0  0  0  0  0  0  0
    6.7286   16.2089   14.7714 C   0  0  0  0  0  0  0  0  0  0  0  0
    8.4954   18.7762   18.7204 C   0  0  0  0  0  0  0  0  0  0  0  0
    8.2958   18.7618   17.2955 O   0  0  0  0  0  0  0  0  0  0  0  0
    8.5623   17.8993   16.9404 H   0  0  0  0  0  0  0  0  0  0  0  0
   10.0098   18.5101   18.9411 C   0  0  0  0  0  0  0  0  0  0  0  0
   10.7950   19.3115   18.0177 N   0  0  0  0  0  0  0  0  0  0  0  0
   10.5047   18.3243   15.7013 O   0  0  0  0  0  0  0  0  0  0  0  0
   12.2727   17.3866   17.2820 O   0  0  0  0  0  0  0  0  0  0  0  0
   11.5193   18.5217   16.7423 S   0  0  0  0  0  0  0  0  0  0  0  0
   12.7722   19.6104   16.0786 C   0  0  0  0  0  0  0  0  0  0  0  0
   13.9912   19.7113   16.7438 C   0  0  0  0  0  0  0  0  0  0  0  0
   14.9668   20.5621   16.2084 C   0  0  0  0  0  0  0  0  0  0  0  0
   14.6870   21.2783   15.0266 C   0  0  0  0  0  0  0  0  0  0  0  0
   13.4548   21.1498   14.3882 C   0  0  0  0  0  0  0  0  0  0  0  0
   12.4636   20.3031   14.9102 C   0  0  0  0  0  0  0  0  0  0  0  0
   15.7630   22.1856   14.4768 C   0  0  0  0  0  0  0  0  0  0  0  0
   15.1585   23.3588   13.9772 O   0  0  0  0  0  0  0  0  0  0  0  0
   14.5306   23.1255   13.2757 H   0  0  0  0  0  0  0  0  0  0  0  0
   10.4898   20.7335   17.7838 C   0  0  0  0  0  0  0  0  0  0  0  0
   11.2525   21.7092   18.7275 C   0  0  0  0  0  0  0  0  0  0  0  0
   12.0084   22.6844   17.7909 C   0  0  0  0  0  0  0  0  0  0  0  0
   12.2383   20.9313   19.6288 C   0  0  0  0  0  0  0  0  0  0  0  0
    8.2690   17.1059   20.6879 C   0  0  0  0  0  0  0  0  0  0  0  0
    7.2305   17.0635   21.7984 C   0  0  0  0  0  0  0  0  0  0  0  0
    7.3624   16.1439   22.8552 C   0  0  0  0  0  0  0  0  0  0  0  0
    6.4003   16.0889   23.9043 C   0  0  0  0  0  0  0  0  0  0  0  0
    5.2781   16.9667   23.9083 C   0  0  0  0  0  0  0  0  0  0  0  0
    5.1607   17.8777   22.8491 C   0  0  0  0  0  0  0  0  0  0  0  0
    6.1183   17.9287   21.8089 C   0  0  0  0  0  0  0  0  0  0  0  0
  7  8  1  0  0  0
  7 12  1  0  0  0
  7  6  1  0  0  0
  8 11  1  0  0  0
  9 10  1  0  0  0
  9 14  1  0  0  0
 10 13  1  0  0  0
 11 13  1  0  0  0
 11 14  1  0  0  0
 12 14  1  0  0  0
  6  2  1  0  0  0
  2  3  2  0  0  0
  2  4  1  0  0  0
  1 36  1  0  0  0
  1  4  1  0  0  0
  1 15  1  0  0  0
 36 37  1  0  0  0
 37 38  1  0  0  0
 37 42  2  0  0  0
 38 39  2  0  0  0
 39 40  1  0  0  0
 40 41  2  0  0  0
 41 42  1  0  0  0
 15 18  1  0  0  0
 15 16  1  0  0  0
 18 19  1  0  0  0
 32 33  1  0  0  0
 32 19  1  0  0  0
 33 34  1  0  0  0
 33 35  1  0  0  0
 20 22  2  0  0  0
 21 22  2  0  0  0
 19 22  1  0  0  0
 22 23  1  0  0  0
 23 24  2  0  0  0
 23 28  1  0  0  0
 24 25  1  0  0  0
 25 26  2  0  0  0
 26 27  1  0  0  0
 26 29  1  0  0  0
 27 28  2  0  0  0
 29 30  1  0  0  0
  4  5  1  0  0  0
 16 17  1  0  0  0
 30 31  1  0  0  0
M  END
> <minimizedAffinity>
-9.15060

$$$$
2HB3_GRL_B_201


 42 45  0  0  0  0  0  0  0  0999 V2000
   11.2664   19.0367   18.3391 C   0  0  0  0  0  0  0  0  0  0  0  0
   10.4601   17.8741   16.3294 C   0  0  0  0  0  0  0  0  0  0  0  0
   10.5300   18.8391   15.6206 O   0  0  0  0  0  0  0  0  0  0  0  0
   10.7897   17.8129   17.6386 N   0  0  0  0  0  0  0  0  0  0  0  0
   10.7147   16.9617   18.1275 H   0  0  0  0  0  0  0  0  0  0  0  0
   10.0162   16.6645   15.8705 O   0  0  0  0  0  0  0  0  0  0  0  0
    9.1585   16.6937   14.6967 C   0  0  0  0  0  0  0  0  0  0  0  0
    7.8287   17.3842   15.0330 C   0  0  0  0  0  0  0  0  0  0  0  0
    8.0683   14.6088   16.6874 O   0  0  0  0  0  0  0  0  0  0  0  0
    7.6371   15.5770   17.6278 C   0  0  0  0  0  0  0  0  0  0  0  0
    6.8343   16.2845   15.4756 C   0  0  0  0  0  0  0  0  0  0  0  0
    8.7906   15.2127   14.4247 C   0  0  0  0  0  0  0  0  0  0  0  0
    6.4310   16.2703   16.9754 C   0  0  0  0  0  0  0  0  0  0  0  0
    7.5785   14.9174   15.3437 C   0  0  0  0  0  0  0  0  0  0  0  0
   12.7722   19.1479   18.0073 C   0  0  0  0  0  0  0  0  0  0  0  0
   13.5145   18.1200   18.6876 O   0  0  0  0  0  0  0  0  0  0  0  0
   13.4233   18.2361   19.6463 H   0  0  0  0  0  0  0  0  0  0  0  0
   13.3804   20.4966   18.4804 C   0  0  0  0  0  0  0  0  0  0  0  0
   14.2968   21.0082   17.4755 N   0  0  0  0  0  0  0  0  0  0  0  0
   12.5968   21.6058   15.6929 O   0  0  0  0  0  0  0  0  0  0  0  0
   13.9339   19.4413   15.5151 O   0  0  0  0  0  0  0  0  0  0  0  0
   13.8451   20.8581   15.8791 S   0  0  0  0  0  0  0  0  0  0  0  0
   15.1045   21.6503   14.8882 C   0  0  0  0  0  0  0  0  0  0  0  0
   14.7385   22.7114   14.0645 C   0  0  0  0  0  0  0  0  0  0  0  0
   15.7368   23.3280   13.2995 C   0  0  0  0  0  0  0  0  0  0  0  0
   17.0643   22.8613   13.3889 C   0  0  0  0  0  0  0  0  0  0  0  0
   17.3923   21.7967   14.2263 C   0  0  0  0  0  0  0  0  0  0  0  0
   16.4054   21.1648   14.9999 C   0  0  0  0  0  0  0  0  0  0  0  0
   18.1154   23.5508   12.5504 C   0  0  0  0  0  0  0  0  0  0  0  0
   18.8567   24.4231   13.3757 O   0  0  0  0  0  0  0  0  0  0  0  0
   18.2613   25.0805   13.7685 H   0  0  0  0  0  0  0  0  0  0  0  0
   15.2096   22.1270   17.7671 C   0  0  0  0  0  0  0  0  0  0  0  0
   14.6705   23.1234   18.8353 C   0  0  0  0  0  0  0  0  0  0  0  0
   13.8113   24.1461   18.0507 C   0  0  0  0  0  0  0  0  0  0  0  0
   15.8410   23.8250   19.5612 C   0  0  0  0  0  0  0  0  0  0  0  0
   10.9999   18.8030   19.8653 C   0  0  0  0  0  0  0  0  0  0  0  0
    9.5162   18.5369   20.0690 C   0  0  0  0  0  0  0  0  0  0  0  0
    9.0868   17.6704   21.0910 C   0  0  0  0  0  0  0  0  0  0  0  0
    7.7018   17.4087   21.2973 C   0  0  0  0  0  0  0  0  0  0  0  0
    6.7154   18.0201   20.4710 C   0  0  0  0  0  0  0  0  0  0  0  0
    7.1587   18.8814   19.4574 C   0  0  0  0  0  0  0  0  0  0  0  0
    8.5352   19.1383   19.2556 C   0  0  0  0  0  0  0  0  0  0  0  0
  7  8  1  0  0  0
  7 12  1  0  0  0
  7  6  1  0  0  0
  8 11  1  0  0  0
  9 10  1  0  0  0
  9 14  1  0  0  0
 10 13  1  0  0  0
 11 13  1  0  0  0
 11 14  1  0  0  0
 12 14  1  0  0  0
  6  2  1  0  0  0
  2  3  2  0  0  0
  2  4  1  0  0  0
  1 36  1  0  0  0
  1  4  1  0  0  0
  1 15  1  0  0  0
 36 37  1  0  0  0
 37 38  1  0  0  0
 37 42  2  0  0  0
 38 39  2  0  0  0
 39 40  1  0  0  0
 40 41  2  0  0  0
 41 42  1  0  0  0
 15 18  1  0  0  0
 15 16  1  0  0  0
 18 19  1  0  0  0
 32 33  1  0  0  0
 32 19  1  0  0  0
 33 34  1  0  0  0
 33 35  1  0  0  0
 20 22  2  0  0  0
 21 22  2  0  0  0
 19 22  1  0  0  0
 22 23  1  0  0  0
 23 24  2  0  0  0
 23 28  1  0  0  0
 24 25  1  0  0  0
 25 26  2  0  0  0
 26 27  1  0  0  0
 26 29  1  0  0  0
 27 28  2  0  0  0
 29 30  1  0  0  0
  4  5  1  0  0  0
 16 17  1  0  0  0
 30 31  1  0  0  0
M  END
> <minimizedAffinity>
-9.04890

$$$$
2HB3_GRL_B_201


 42 45  0  0  0  0  0  0  0  0999 V2000
   10.0608   18.4271   16.1702 C   0  0  0  0  0  0  0  0  0  0  0  0
    9.2880   17.3738   18.2519 C   0  0  0  0  0  0  0  0  0  0  0  0
    9.2580   16.2642   17.7976 O   0  0  0  0  0  0  0  0  0  0  0  0
    9.6622   18.4983   17.6025 N   0  0  0  0  0  0  0  0  0  0  0  0
    9.6711   19.3619   18.0752 H   0  0  0  0  0  0  0  0  0  0  0  0
    8.9285   17.6411   19.5442 O   0  0  0  0  0  0  0  0  0  0  0  0
    7.6879   18.3762   19.7312 C   0  0  0  0  0  0  0  0  0  0  0  0
    7.3730   18.5056   21.2288 C   0  0  0  0  0  0  0  0  0  0  0  0
    7.1923   15.3956   20.3385 O   0  0  0  0  0  0  0  0  0  0  0  0
    7.9479   15.4056   21.5371 C   0  0  0  0  0  0  0  0  0  0  0  0
    6.4780   17.3055   21.6196 C   0  0  0  0  0  0  0  0  0  0  0  0
    6.5793   17.4555   19.1605 C   0  0  0  0  0  0  0  0  0  0  0  0
    7.1176   16.2267   22.5357 C   0  0  0  0  0  0  0  0  0  0  0  0
    6.2181   16.4869   20.3147 C   0  0  0  0  0  0  0  0  0  0  0  0
   11.1183   19.5377   15.9753 C   0  0  0  0  0  0  0  0  0  0  0  0
   11.7247   19.4323   14.6747 O   0  0  0  0  0  0  0  0  0  0  0  0
   12.1857   18.5821   14.6008 H   0  0  0  0  0  0  0  0  0  0  0  0
   12.2821   19.4274   16.9981 C   0  0  0  0  0  0  0  0  0  0  0  0
   12.9848   20.6959   17.0901 N   0  0  0  0  0  0  0  0  0  0  0  0
   11.5466   21.3577   19.0697 O   0  0  0  0  0  0  0  0  0  0  0  0
   11.4868   22.7352   16.9242 O   0  0  0  0  0  0  0  0  0  0  0  0
   12.2258   21.9352   17.9047 S   0  0  0  0  0  0  0  0  0  0  0  0
   13.4966   23.0375   18.5093 C   0  0  0  0  0  0  0  0  0  0  0  0
   14.3074   22.6123   19.5582 C   0  0  0  0  0  0  0  0  0  0  0  0
   15.3042   23.4830   20.0168 C   0  0  0  0  0  0  0  0  0  0  0  0
   15.4538   24.7456   19.4074 C   0  0  0  0  0  0  0  0  0  0  0  0
   14.6234   25.1353   18.3582 C   0  0  0  0  0  0  0  0  0  0  0  0
   13.6176   24.2771   17.8854 C   0  0  0  0  0  0  0  0  0  0  0  0
   16.5402   25.6585   19.9269 C   0  0  0  0  0  0  0  0  0  0  0  0
   17.2277   25.0014   20.9694 O   0  0  0  0  0  0  0  0  0  0  0  0
   16.6056   24.7866   21.6820 H   0  0  0  0  0  0  0  0  0  0  0  0
   14.4564   20.7613   17.0779 C   0  0  0  0  0  0  0  0  0  0  0  0
   15.0674   21.0301   15.6712 C   0  0  0  0  0  0  0  0  0  0  0  0
   13.9815   21.8121   14.8909 C   0  0  0  0  0  0  0  0  0  0  0  0
   15.4059   19.6979   14.9641 C   0  0  0  0  0  0  0  0  0  0  0  0
    8.7582   18.6806   15.3370 C   0  0  0  0  0  0  0  0  0  0  0  0
    8.1205   17.3404   15.0039 C   0  0  0  0  0  0  0  0  0  0  0  0
    8.8417   16.3753   14.2773 C   0  0  0  0  0  0  0  0  0  0  0  0
    8.2618   15.1145   13.9556 C   0  0  0  0  0  0  0  0  0  0  0  0
    6.9335   14.8000   14.3635 C   0  0  0  0  0  0  0  0  0  0  0  0
    6.2278   15.7715   15.0873 C   0  0  0  0  0  0  0  0  0  0  0  0
    6.8074   17.0226   15.4043 C   0  0  0  0  0  0  0  0  0  0  0  0
  7  8  1  0  0  0
  7 12  1  0  0  0
  7  6  1  0  0  0
  8 11  1  0  0  0
  9 10  1  0  0  0
  9 14  1  0  0  0
 10 13  1  0  0  0
 11 13  1  0  0  0
 11 14  1  0  0  0
 12 14  1  0  0  0
  6  2  1  0  0  0
  2  3  2  0  0  0
  2  4  1  0  0  0
  1 36  1  0  0  0
  1  4  1  0  0  0
  1 15  1  0  0  0
 36 37  1  0  0  0
 37 38  1  0  0  0
 37 42  2  0  0  0
 38 39  2  0  0  0
 39 40  1  0  0  0
 40 41  2  0  0  0
 41 42  1  0  0  0
 15 18  1  0  0  0
 15 16  1  0  0  0
 18 19  1  0  0  0
 32 33  1  0  0  0
 32 19  1  0  0  0
 33 34  1  0  0  0
 33 35  1  0  0  0
 20 22  2  0  0  0
 21 22  2  0  0  0
 19 22  1  0  0  0
 22 23  1  0  0  0
 23 24  2  0  0  0
 23 28  1  0  0  0
 24 25  1  0  0  0
 25 26  2  0  0  0
 26 27  1  0  0  0
 26 29  1  0  0  0
 27 28  2  0  0  0
 29 30  1  0  0  0
  4  5  1  0  0  0
 16 17  1  0  0  0
 30 31  1  0  0  0
M  END
> <minimizedAffinity>
-8.99004

$$$$
