5I3A_HQE_A_303


 10 10  0  0  0  0  0  0  0  0999 V2000
    1.6736  101.6654   24.8239 C   0  0  0  0  0  0  0  0  0  0  0  0
    1.0862  100.8893   25.8123 C   0  0  0  0  0  0  0  0  0  0  0  0
    1.7673   99.8022   26.3365 C   0  0  0  0  0  0  0  0  0  0  0  0
    1.1786   99.0135   27.3419 O   0  0  0  0  0  0  0  0  0  0  0  0
    3.0313   99.4876   25.8670 C   0  0  0  0  0  0  0  0  0  0  0  0
    3.6173  100.2588   24.8783 C   0  0  0  0  0  0  0  0  0  0  0  0
    2.9384  101.3468   24.3559 C   0  0  0  0  0  0  0  0  0  0  0  0
    3.5402  102.1236   23.3515 O   0  0  0  0  0  0  0  0  0  0  0  0
    1.6428   98.2794   27.6935 H   0  0  0  0  0  0  0  0  0  0  0  0
    4.3956  101.9038   23.0386 H   0  0  0  0  0  0  0  0  0  0  0  0
  6  5  2  0  0  0
  6  7  1  0  0  0
  8  7  1  0  0  0
  5  3  1  0  0  0
  7  1  2  0  0  0
  3  4  1  0  0  0
  3  2  2  0  0  0
  1  2  1  0  0  0
  4  9  1  0  0  0
  8 10  1  0  0  0
M  END
> <minimizedAffinity>
-5.71829

$$$$
5I3A_HQE_A_303


 10 10  0  0  0  0  0  0  0  0999 V2000
    3.0251   99.4607   25.8310 C   0  0  0  0  0  0  0  0  0  0  0  0
    3.5780  100.2504   24.8335 C   0  0  0  0  0  0  0  0  0  0  0  0
    2.8892  101.3576   24.3642 C   0  0  0  0  0  0  0  0  0  0  0  0
    3.4462  102.1649   23.3555 O   0  0  0  0  0  0  0  0  0  0  0  0
    1.6456  101.6696   24.8869 C   0  0  0  0  0  0  0  0  0  0  0  0
    1.0910  100.8806   25.8796 C   0  0  0  0  0  0  0  0  0  0  0  0
    1.7799   99.7756   26.3509 C   0  0  0  0  0  0  0  0  0  0  0  0
    1.2089   98.9792   27.3580 O   0  0  0  0  0  0  0  0  0  0  0  0
    2.9770  102.9125   23.0412 H   0  0  0  0  0  0  0  0  0  0  0  0
    0.3666   99.1966   27.7061 H   0  0  0  0  0  0  0  0  0  0  0  0
  6  5  2  0  0  0
  6  7  1  0  0  0
  8  7  1  0  0  0
  5  3  1  0  0  0
  7  1  2  0  0  0
  3  4  1  0  0  0
  3  2  2  0  0  0
  1  2  1  0  0  0
  4  9  1  0  0  0
  8 10  1  0  0  0
M  END
> <minimizedAffinity>
-5.70147

$$$$
5I3A_HQE_A_303


 10 10  0  0  0  0  0  0  0  0999 V2000
    3.5742  100.2645   24.8513 C   0  0  0  0  0  0  0  0  0  0  0  0
    3.0215   99.4746   25.8487 C   0  0  0  0  0  0  0  0  0  0  0  0
    1.7674   99.7752   26.3561 C   0  0  0  0  0  0  0  0  0  0  0  0
    1.1997   98.9757   27.3650 O   0  0  0  0  0  0  0  0  0  0  0  0
    1.0707  100.8692   25.8714 C   0  0  0  0  0  0  0  0  0  0  0  0
    1.6222  101.6604   24.8788 C   0  0  0  0  0  0  0  0  0  0  0  0
    2.8742  101.3590   24.3694 C   0  0  0  0  0  0  0  0  0  0  0  0
    3.4273  102.1683   23.3627 O   0  0  0  0  0  0  0  0  0  0  0  0
    0.3515   99.1827   27.7051 H   0  0  0  0  0  0  0  0  0  0  0  0
    2.9497  102.9072   23.0404 H   0  0  0  0  0  0  0  0  0  0  0  0
  6  5  2  0  0  0
  6  7  1  0  0  0
  8  7  1  0  0  0
  5  3  1  0  0  0
  7  1  2  0  0  0
  3  4  1  0  0  0
  3  2  2  0  0  0
  1  2  1  0  0  0
  4  9  1  0  0  0
  8 10  1  0  0  0
M  END
> <minimizedAffinity>
-5.70049

$$$$
5I3A_HQE_A_303


 10 10  0  0  0  0  0  0  0  0999 V2000
    1.8528   99.8317   26.4217 C   0  0  0  0  0  0  0  0  0  0  0  0
    1.0419  100.7364   25.7523 C   0  0  0  0  0  0  0  0  0  0  0  0
    1.4729  101.3075   24.5654 C   0  0  0  0  0  0  0  0  0  0  0  0
    0.6535  102.2228   23.8796 O   0  0  0  0  0  0  0  0  0  0  0  0
    2.7167  100.9795   24.0531 C   0  0  0  0  0  0  0  0  0  0  0  0
    3.5285  100.0797   24.7217 C   0  0  0  0  0  0  0  0  0  0  0  0
    3.0974   99.5066   25.9063 C   0  0  0  0  0  0  0  0  0  0  0  0
    3.9285   98.5951   26.5793 O   0  0  0  0  0  0  0  0  0  0  0  0
    0.9490  102.6065   23.0775 H   0  0  0  0  0  0  0  0  0  0  0  0
    4.7691   98.3788   26.2264 H   0  0  0  0  0  0  0  0  0  0  0  0
  6  5  2  0  0  0
  6  7  1  0  0  0
  8  7  1  0  0  0
  5  3  1  0  0  0
  7  1  2  0  0  0
  3  4  1  0  0  0
  3  2  2  0  0  0
  1  2  1  0  0  0
  4  9  1  0  0  0
  8 10  1  0  0  0
M  END
> <minimizedAffinity>
-5.47250

$$$$
5I3A_HQE_A_303


 10 10  0  0  0  0  0  0  0  0999 V2000
    2.7079  100.9810   24.0339 C   0  0  0  0  0  0  0  0  0  0  0  0
    3.5268  100.0883   24.7096 C   0  0  0  0  0  0  0  0  0  0  0  0
    3.0982   99.5167   25.8972 C   0  0  0  0  0  0  0  0  0  0  0  0
    3.9224   98.6075   26.5853 O   0  0  0  0  0  0  0  0  0  0  0  0
    1.8550   99.8439   26.4116 C   0  0  0  0  0  0  0  0  0  0  0  0
    1.0383  100.7372   25.7404 C   0  0  0  0  0  0  0  0  0  0  0  0
    1.4648  101.3067   24.5523 C   0  0  0  0  0  0  0  0  0  0  0  0
    0.6298  102.2137   23.8781 O   0  0  0  0  0  0  0  0  0  0  0  0
    3.6285   98.2235   27.3879 H   0  0  0  0  0  0  0  0  0  0  0  0
   -0.2098  102.4305   24.2331 H   0  0  0  0  0  0  0  0  0  0  0  0
  6  5  2  0  0  0
  6  7  1  0  0  0
  8  7  1  0  0  0
  5  3  1  0  0  0
  7  1  2  0  0  0
  3  4  1  0  0  0
  3  2  2  0  0  0
  1  2  1  0  0  0
  4  9  1  0  0  0
  8 10  1  0  0  0
M  END
> <minimizedAffinity>
-5.45143

$$$$
5I3A_HQE_A_303


 10 10  0  0  0  0  0  0  0  0999 V2000
    3.3849  100.1346   24.7474 C   0  0  0  0  0  0  0  0  0  0  0  0
    2.4896  101.0195   24.1645 C   0  0  0  0  0  0  0  0  0  0  0  0
    1.2691  101.2709   24.7708 C   0  0  0  0  0  0  0  0  0  0  0  0
    0.3584  102.1703   24.1867 O   0  0  0  0  0  0  0  0  0  0  0  0
    0.9417  100.6319   25.9547 C   0  0  0  0  0  0  0  0  0  0  0  0
    1.8323   99.7460   26.5357 C   0  0  0  0  0  0  0  0  0  0  0  0
    3.0532   99.4963   25.9318 C   0  0  0  0  0  0  0  0  0  0  0  0
    3.9510   98.5944   26.5277 O   0  0  0  0  0  0  0  0  0  0  0  0
   -0.4657  102.3373   24.6001 H   0  0  0  0  0  0  0  0  0  0  0  0
    3.7217   98.1655   27.3286 H   0  0  0  0  0  0  0  0  0  0  0  0
  6  5  2  0  0  0
  6  7  1  0  0  0
  8  7  1  0  0  0
  5  3  1  0  0  0
  7  1  2  0  0  0
  3  4  1  0  0  0
  3  2  2  0  0  0
  1  2  1  0  0  0
  4  9  1  0  0  0
  8 10  1  0  0  0
M  END
> <minimizedAffinity>
-5.35638

$$$$
5I3A_HQE_A_303


 10 10  0  0  0  0  0  0  0  0999 V2000
    1.1338  100.3100   26.6224 C   0  0  0  0  0  0  0  0  0  0  0  0
    2.2807   99.6483   26.2088 C   0  0  0  0  0  0  0  0  0  0  0  0
    2.8895   99.9972   25.0137 C   0  0  0  0  0  0  0  0  0  0  0  0
    4.0551   99.3326   24.5906 O   0  0  0  0  0  0  0  0  0  0  0  0
    2.3471  101.0015   24.2300 C   0  0  0  0  0  0  0  0  0  0  0  0
    1.2008  101.6602   24.6396 C   0  0  0  0  0  0  0  0  0  0  0  0
    0.5935  101.3140   25.8349 C   0  0  0  0  0  0  0  0  0  0  0  0
   -0.5708  101.9870   26.2425 O   0  0  0  0  0  0  0  0  0  0  0  0
    4.4634   99.5717   23.7818 H   0  0  0  0  0  0  0  0  0  0  0  0
   -0.9320  102.6651   25.7062 H   0  0  0  0  0  0  0  0  0  0  0  0
  6  5  2  0  0  0
  6  7  1  0  0  0
  8  7  1  0  0  0
  5  3  1  0  0  0
  7  1  2  0  0  0
  3  4  1  0  0  0
  3  2  2  0  0  0
  1  2  1  0  0  0
  4  9  1  0  0  0
  8 10  1  0  0  0
M  END
> <minimizedAffinity>
-5.24485

$$$$
5I3A_HQE_A_303


 10 10  0  0  0  0  0  0  0  0999 V2000
    2.0144  100.3746   25.3387 C   0  0  0  0  0  0  0  0  0  0  0  0
    1.2361  101.5134   25.4858 C   0  0  0  0  0  0  0  0  0  0  0  0
    1.6621  102.7182   24.9495 C   0  0  0  0  0  0  0  0  0  0  0  0
    0.8754  103.8760   25.0918 O   0  0  0  0  0  0  0  0  0  0  0  0
    2.8686  102.7849   24.2735 C   0  0  0  0  0  0  0  0  0  0  0  0
    3.6479  101.6503   24.1291 C   0  0  0  0  0  0  0  0  0  0  0  0
    3.2217  100.4455   24.6624 C   0  0  0  0  0  0  0  0  0  0  0  0
    4.0198   99.2988   24.5122 O   0  0  0  0  0  0  0  0  0  0  0  0
    1.1673  104.6884   24.7276 H   0  0  0  0  0  0  0  0  0  0  0  0
    4.8354   99.3523   24.0540 H   0  0  0  0  0  0  0  0  0  0  0  0
  6  5  2  0  0  0
  6  7  1  0  0  0
  8  7  1  0  0  0
  5  3  1  0  0  0
  7  1  2  0  0  0
  3  4  1  0  0  0
  3  2  2  0  0  0
  1  2  1  0  0  0
  4  9  1  0  0  0
  8 10  1  0  0  0
M  END
> <minimizedAffinity>
-4.43332

$$$$
5I3A_HQE_A_303


 10 10  0  0  0  0  0  0  0  0999 V2000
    1.2061  102.2157   24.4844 C   0  0  0  0  0  0  0  0  0  0  0  0
    1.8466  100.9889   24.5790 C   0  0  0  0  0  0  0  0  0  0  0  0
    3.2243  100.9142   24.4484 C   0  0  0  0  0  0  0  0  0  0  0  0
    3.8802   99.6735   24.5473 O   0  0  0  0  0  0  0  0  0  0  0  0
    3.9591  102.0645   24.2158 C   0  0  0  0  0  0  0  0  0  0  0  0
    3.3211  103.2888   24.1175 C   0  0  0  0  0  0  0  0  0  0  0  0
    1.9448  103.3645   24.2506 C   0  0  0  0  0  0  0  0  0  0  0  0
    1.3050  104.6114   24.1481 O   0  0  0  0  0  0  0  0  0  0  0  0
    4.8119   99.6277   24.4583 H   0  0  0  0  0  0  0  0  0  0  0  0
    1.8093  105.3851   23.9900 H   0  0  0  0  0  0  0  0  0  0  0  0
  6  5  2  0  0  0
  6  7  1  0  0  0
  8  7  1  0  0  0
  5  3  1  0  0  0
  7  1  2  0  0  0
  3  4  1  0  0  0
  3  2  2  0  0  0
  1  2  1  0  0  0
  4  9  1  0  0  0
  8 10  1  0  0  0
M  END
> <minimizedAffinity>
-4.34068

$$$$
5I3A_HQE_A_303


 10 10  0  0  0  0  0  0  0  0999 V2000
    3.1888  103.0660   24.0636 C   0  0  0  0  0  0  0  0  0  0  0  0
    3.8835  101.8660   24.1021 C   0  0  0  0  0  0  0  0  0  0  0  0
    3.2614  100.7194   24.5702 C   0  0  0  0  0  0  0  0  0  0  0  0
    3.9594   99.4984   24.6080 O   0  0  0  0  0  0  0  0  0  0  0  0
    1.9485  100.7754   25.0063 C   0  0  0  0  0  0  0  0  0  0  0  0
    1.2552  101.9727   24.9720 C   0  0  0  0  0  0  0  0  0  0  0  0
    1.8752  103.1182   24.5018 C   0  0  0  0  0  0  0  0  0  0  0  0
    1.1644  104.3299   24.4717 O   0  0  0  0  0  0  0  0  0  0  0  0
    3.5348   98.7257   24.9253 H   0  0  0  0  0  0  0  0  0  0  0  0
    0.2764  104.3596   24.7692 H   0  0  0  0  0  0  0  0  0  0  0  0
  6  5  2  0  0  0
  6  7  1  0  0  0
  8  7  1  0  0  0
  5  3  1  0  0  0
  7  1  2  0  0  0
  3  4  1  0  0  0
  3  2  2  0  0  0
  1  2  1  0  0  0
  4  9  1  0  0  0
  8 10  1  0  0  0
M  END
> <minimizedAffinity>
-4.32029

$$$$
