4X50_3X8_A_301


 28 30  0  0  0  0  0  0  0  0999 V2000
  -21.0840   -6.7595  -11.5174 C   0  0  0  0  0  0  0  0  0  0  0  0
  -21.2631   -5.6102  -12.4984 C   0  0  0  0  0  0  0  0  0  0  0  0
  -19.8516   -7.5552  -11.9038 C   0  0  0  0  0  0  0  0  0  0  0  0
  -18.9098   -5.4976  -12.8992 C   0  0  0  0  0  0  0  0  0  0  0  0
  -20.0954   -4.7641  -12.5027 O   0  0  0  0  0  0  0  0  0  0  0  0
  -22.2368   -7.6022  -11.5786 O   0  0  0  0  0  0  0  0  0  0  0  0
  -19.6603   -8.6492  -10.9942 O   0  0  0  0  0  0  0  0  0  0  0  0
  -18.6515   -6.6107  -11.8853 C   0  0  0  0  0  0  0  0  0  0  0  0
  -18.4720   -6.0486  -10.5765 O   0  0  0  0  0  0  0  0  0  0  0  0
  -22.3405   -7.9432  -12.4808 H   0  0  0  0  0  0  0  0  0  0  0  0
  -19.5515   -8.3057  -10.0936 H   0  0  0  0  0  0  0  0  0  0  0  0
  -19.2680   -5.5547  -10.3248 H   0  0  0  0  0  0  0  0  0  0  0  0
  -22.4971   -4.7883  -12.1098 C   0  0  0  0  0  0  0  0  0  0  0  0
  -22.2930   -4.1791  -10.8314 O   0  0  0  0  0  0  0  0  0  0  0  0
  -22.1475   -4.8681  -10.1644 H   0  0  0  0  0  0  0  0  0  0  0  0
  -19.0356   -6.1435  -14.1792 O   0  0  0  0  0  0  0  0  0  0  0  0
  -20.6200   -4.1188  -17.4514 C   0  0  0  0  0  0  0  0  0  0  0  0
  -20.9973   -5.4437  -17.2266 C   0  0  0  0  0  0  0  0  0  0  0  0
  -20.4853   -6.1542  -16.1384 C   0  0  0  0  0  0  0  0  0  0  0  0
  -19.7283   -3.5089  -16.5782 C   0  0  0  0  0  0  0  0  0  0  0  0
  -19.2218   -4.2129  -15.4963 C   0  0  0  0  0  0  0  0  0  0  0  0
  -19.5914   -5.5325  -15.2679 C   0  0  0  0  0  0  0  0  0  0  0  0
  -21.3049   -3.9876  -19.7765 C   0  0  0  0  0  0  0  0  0  0  0  0
  -21.8023   -3.2394  -20.8412 C   0  0  0  0  0  0  0  0  0  0  0  0
  -22.1068   -1.8932  -20.6736 C   0  0  0  0  0  0  0  0  0  0  0  0
  -21.9146   -1.2918  -19.4373 C   0  0  0  0  0  0  0  0  0  0  0  0
  -21.4220   -2.0404  -18.3739 C   0  0  0  0  0  0  0  0  0  0  0  0
  -21.1143   -3.3890  -18.5365 C   0  0  0  0  0  0  0  0  0  0  0  0
 25 26  2  0  0  0
 25 24  1  0  0  0
 26 27  1  0  0  0
 24 23  2  0  0  0
 27 28  2  0  0  0
 23 28  1  0  0  0
 28 17  1  0  0  0
 17 20  2  0  0  0
 17 18  1  0  0  0
 20 21  1  0  0  0
 18 19  2  0  0  0
 21 22  2  0  0  0
 19 22  1  0  0  0
 22 16  1  0  0  0
 16  4  1  0  0  0
  4  5  1  0  0  0
  4  8  1  0  0  0
  5  2  1  0  0  0
  2 13  1  0  0  0
  2  1  1  0  0  0
  8  3  1  0  0  0
  8  9  1  0  0  0
 13 14  1  0  0  0
  3  1  1  0  0  0
  3  7  1  0  0  0
  1  6  1  0  0  0
 14 15  1  0  0  0
  6 10  1  0  0  0
  7 11  1  0  0  0
  9 12  1  0  0  0
M  END
> <minimizedAffinity>
-9.20045

$$$$
4X50_3X8_A_301


 28 30  0  0  0  0  0  0  0  0999 V2000
  -20.2889   -7.2432  -11.3925 C   0  0  0  0  0  0  0  0  0  0  0  0
  -18.9021   -6.6992  -11.7027 C   0  0  0  0  0  0  0  0  0  0  0  0
  -21.2503   -6.8027  -12.4800 C   0  0  0  0  0  0  0  0  0  0  0  0
  -19.3433   -6.7285  -14.0513 C   0  0  0  0  0  0  0  0  0  0  0  0
  -18.4548   -7.1642  -12.9923 O   0  0  0  0  0  0  0  0  0  0  0  0
  -20.7182   -6.7209  -10.1332 O   0  0  0  0  0  0  0  0  0  0  0  0
  -22.5692   -7.3013  -12.2101 O   0  0  0  0  0  0  0  0  0  0  0  0
  -20.7287   -7.3275  -13.8161 C   0  0  0  0  0  0  0  0  0  0  0  0
  -20.6454   -8.7607  -13.7973 O   0  0  0  0  0  0  0  0  0  0  0  0
  -20.7388   -5.7520  -10.1751 H   0  0  0  0  0  0  0  0  0  0  0  0
  -22.5474   -8.2704  -12.1739 H   0  0  0  0  0  0  0  0  0  0  0  0
  -20.0434   -9.0404  -13.0900 H   0  0  0  0  0  0  0  0  0  0  0  0
  -17.9169   -7.1505  -10.6188 C   0  0  0  0  0  0  0  0  0  0  0  0
  -17.6849   -6.0814   -9.6966 O   0  0  0  0  0  0  0  0  0  0  0  0
  -17.3106   -5.3218  -10.1697 H   0  0  0  0  0  0  0  0  0  0  0  0
  -19.5267   -5.3016  -14.0961 O   0  0  0  0  0  0  0  0  0  0  0  0
  -20.9572   -3.1410  -17.3522 C   0  0  0  0  0  0  0  0  0  0  0  0
  -20.6108   -4.4816  -17.5278 C   0  0  0  0  0  0  0  0  0  0  0  0
  -20.1271   -5.2373  -16.4574 C   0  0  0  0  0  0  0  0  0  0  0  0
  -20.8182   -2.5622  -16.0970 C   0  0  0  0  0  0  0  0  0  0  0  0
  -20.3406   -3.3128  -15.0334 C   0  0  0  0  0  0  0  0  0  0  0  0
  -19.9920   -4.6470  -15.2018 C   0  0  0  0  0  0  0  0  0  0  0  0
  -21.4180   -2.8363  -19.7159 C   0  0  0  0  0  0  0  0  0  0  0  0
  -21.9065   -2.0426  -20.7514 C   0  0  0  0  0  0  0  0  0  0  0  0
  -22.4121   -0.7745  -20.4875 C   0  0  0  0  0  0  0  0  0  0  0  0
  -22.4306   -0.2975  -19.1841 C   0  0  0  0  0  0  0  0  0  0  0  0
  -21.9466   -1.0921  -18.1504 C   0  0  0  0  0  0  0  0  0  0  0  0
  -21.4380   -2.3626  -18.4093 C   0  0  0  0  0  0  0  0  0  0  0  0
 25 26  2  0  0  0
 25 24  1  0  0  0
 26 27  1  0  0  0
 24 23  2  0  0  0
 27 28  2  0  0  0
 23 28  1  0  0  0
 28 17  1  0  0  0
 17 20  2  0  0  0
 17 18  1  0  0  0
 20 21  1  0  0  0
 18 19  2  0  0  0
 21 22  2  0  0  0
 19 22  1  0  0  0
 22 16  1  0  0  0
 16  4  1  0  0  0
  4  5  1  0  0  0
  4  8  1  0  0  0
  5  2  1  0  0  0
  2 13  1  0  0  0
  2  1  1  0  0  0
  8  3  1  0  0  0
  8  9  1  0  0  0
 13 14  1  0  0  0
  3  1  1  0  0  0
  3  7  1  0  0  0
  1  6  1  0  0  0
 14 15  1  0  0  0
  6 10  1  0  0  0
  7 11  1  0  0  0
  9 12  1  0  0  0
M  END
> <minimizedAffinity>
-8.69052

$$$$
4X50_3X8_A_301


 28 30  0  0  0  0  0  0  0  0999 V2000
  -20.9183   -6.7226  -11.3985 C   0  0  0  0  0  0  0  0  0  0  0  0
  -21.5200   -6.0064  -12.5985 C   0  0  0  0  0  0  0  0  0  0  0  0
  -19.7023   -7.5104  -11.8481 C   0  0  0  0  0  0  0  0  0  0  0  0
  -19.3879   -5.8685  -13.6693 C   0  0  0  0  0  0  0  0  0  0  0  0
  -20.5464   -5.1320  -13.2043 O   0  0  0  0  0  0  0  0  0  0  0  0
  -21.8943   -7.6158  -10.8573 O   0  0  0  0  0  0  0  0  0  0  0  0
  -19.1156   -8.1992  -10.7336 O   0  0  0  0  0  0  0  0  0  0  0  0
  -18.7086   -6.5337  -12.4736 C   0  0  0  0  0  0  0  0  0  0  0  0
  -18.3120   -5.5371  -11.5193 O   0  0  0  0  0  0  0  0  0  0  0  0
  -22.1562   -8.2579  -11.5355 H   0  0  0  0  0  0  0  0  0  0  0  0
  -18.8495   -7.5550  -10.0590 H   0  0  0  0  0  0  0  0  0  0  0  0
  -19.0935   -5.0463  -11.2206 H   0  0  0  0  0  0  0  0  0  0  0  0
  -22.7413   -5.1936  -12.1547 C   0  0  0  0  0  0  0  0  0  0  0  0
  -22.4187   -4.4271  -10.9904 O   0  0  0  0  0  0  0  0  0  0  0  0
  -22.1567   -5.0244  -10.2724 H   0  0  0  0  0  0  0  0  0  0  0  0
  -19.7123   -6.9294  -14.5864 O   0  0  0  0  0  0  0  0  0  0  0  0
  -20.6739   -6.4203  -18.6030 C   0  0  0  0  0  0  0  0  0  0  0  0
  -21.0928   -5.4616  -17.6790 C   0  0  0  0  0  0  0  0  0  0  0  0
  -20.7883   -5.6001  -16.3230 C   0  0  0  0  0  0  0  0  0  0  0  0
  -19.9461   -7.5177  -18.1607 C   0  0  0  0  0  0  0  0  0  0  0  0
  -19.6412   -7.6542  -16.8149 C   0  0  0  0  0  0  0  0  0  0  0  0
  -20.0569   -6.7049  -15.8896 C   0  0  0  0  0  0  0  0  0  0  0  0
  -20.3607   -7.1302  -20.9031 C   0  0  0  0  0  0  0  0  0  0  0  0
  -20.6771   -6.9996  -22.2536 C   0  0  0  0  0  0  0  0  0  0  0  0
  -21.5989   -6.0463  -22.6713 C   0  0  0  0  0  0  0  0  0  0  0  0
  -22.2080   -5.2205  -21.7365 C   0  0  0  0  0  0  0  0  0  0  0  0
  -21.8948   -5.3542  -20.3882 C   0  0  0  0  0  0  0  0  0  0  0  0
  -20.9713   -6.3068  -19.9643 C   0  0  0  0  0  0  0  0  0  0  0  0
 25 26  2  0  0  0
 25 24  1  0  0  0
 26 27  1  0  0  0
 24 23  2  0  0  0
 27 28  2  0  0  0
 23 28  1  0  0  0
 28 17  1  0  0  0
 17 20  2  0  0  0
 17 18  1  0  0  0
 20 21  1  0  0  0
 18 19  2  0  0  0
 21 22  2  0  0  0
 19 22  1  0  0  0
 22 16  1  0  0  0
 16  4  1  0  0  0
  4  5  1  0  0  0
  4  8  1  0  0  0
  5  2  1  0  0  0
  2 13  1  0  0  0
  2  1  1  0  0  0
  8  3  1  0  0  0
  8  9  1  0  0  0
 13 14  1  0  0  0
  3  1  1  0  0  0
  3  7  1  0  0  0
  1  6  1  0  0  0
 14 15  1  0  0  0
  6 10  1  0  0  0
  7 11  1  0  0  0
  9 12  1  0  0  0
M  END
> <minimizedAffinity>
-8.21959

$$$$
4X50_3X8_A_301


 28 30  0  0  0  0  0  0  0  0999 V2000
  -19.7729   -7.5651  -13.4214 C   0  0  0  0  0  0  0  0  0  0  0  0
  -20.4530   -6.4471  -12.6449 C   0  0  0  0  0  0  0  0  0  0  0  0
  -19.5553   -7.1146  -14.8535 C   0  0  0  0  0  0  0  0  0  0  0  0
  -19.4575   -4.7820  -14.0406 C   0  0  0  0  0  0  0  0  0  0  0  0
  -19.6528   -5.2481  -12.6821 O   0  0  0  0  0  0  0  0  0  0  0  0
  -20.6176   -8.7181  -13.4050 O   0  0  0  0  0  0  0  0  0  0  0  0
  -18.9161   -8.1536  -15.6103 O   0  0  0  0  0  0  0  0  0  0  0  0
  -18.7002   -5.8494  -14.8285 C   0  0  0  0  0  0  0  0  0  0  0  0
  -17.4326   -6.1094  -14.2066 O   0  0  0  0  0  0  0  0  0  0  0  0
  -21.4715   -8.4990  -13.8096 H   0  0  0  0  0  0  0  0  0  0  0  0
  -18.0601   -8.3673  -15.2072 H   0  0  0  0  0  0  0  0  0  0  0  0
  -17.5752   -6.4137  -13.2967 H   0  0  0  0  0  0  0  0  0  0  0  0
  -20.6648   -6.8839  -11.1911 C   0  0  0  0  0  0  0  0  0  0  0  0
  -21.7795   -7.7771  -11.1089 O   0  0  0  0  0  0  0  0  0  0  0  0
  -22.5785   -7.3270  -11.4249 H   0  0  0  0  0  0  0  0  0  0  0  0
  -20.6879   -4.5566  -14.7527 O   0  0  0  0  0  0  0  0  0  0  0  0
  -21.1254   -1.7473  -17.7913 C   0  0  0  0  0  0  0  0  0  0  0  0
  -21.0299   -1.3074  -16.4701 C   0  0  0  0  0  0  0  0  0  0  0  0
  -20.8825   -2.2219  -15.4248 C   0  0  0  0  0  0  0  0  0  0  0  0
  -21.0703   -3.1092  -18.0594 C   0  0  0  0  0  0  0  0  0  0  0  0
  -20.9213   -4.0174  -17.0223 C   0  0  0  0  0  0  0  0  0  0  0  0
  -20.8278   -3.5865  -15.7049 C   0  0  0  0  0  0  0  0  0  0  0  0
  -20.2344   -0.0265  -19.2531 C   0  0  0  0  0  0  0  0  0  0  0  0
  -20.4117    0.8549  -20.3174 C   0  0  0  0  0  0  0  0  0  0  0  0
  -21.6309    0.9182  -20.9829 C   0  0  0  0  0  0  0  0  0  0  0  0
  -22.6770    0.0975  -20.5843 C   0  0  0  0  0  0  0  0  0  0  0  0
  -22.4979   -0.7850  -19.5245 C   0  0  0  0  0  0  0  0  0  0  0  0
  -21.2791   -0.8518  -18.8537 C   0  0  0  0  0  0  0  0  0  0  0  0
 25 26  2  0  0  0
 25 24  1  0  0  0
 26 27  1  0  0  0
 24 23  2  0  0  0
 27 28  2  0  0  0
 23 28  1  0  0  0
 28 17  1  0  0  0
 17 20  2  0  0  0
 17 18  1  0  0  0
 20 21  1  0  0  0
 18 19  2  0  0  0
 21 22  2  0  0  0
 19 22  1  0  0  0
 22 16  1  0  0  0
 16  4  1  0  0  0
  4  5  1  0  0  0
  4  8  1  0  0  0
  5  2  1  0  0  0
  2 13  1  0  0  0
  2  1  1  0  0  0
  8  3  1  0  0  0
  8  9  1  0  0  0
 13 14  1  0  0  0
  3  1  1  0  0  0
  3  7  1  0  0  0
  1  6  1  0  0  0
 14 15  1  0  0  0
  6 10  1  0  0  0
  7 11  1  0  0  0
  9 12  1  0  0  0
M  END
> <minimizedAffinity>
-7.44768

$$$$
4X50_3X8_A_301


 28 30  0  0  0  0  0  0  0  0999 V2000
  -20.9051   -6.5333  -12.4448 C   0  0  0  0  0  0  0  0  0  0  0  0
  -21.7876   -5.3807  -12.9007 C   0  0  0  0  0  0  0  0  0  0  0  0
  -19.8073   -6.7536  -13.4682 C   0  0  0  0  0  0  0  0  0  0  0  0
  -19.9673   -4.3600  -14.0652 C   0  0  0  0  0  0  0  0  0  0  0  0
  -21.0044   -4.1816  -13.0685 O   0  0  0  0  0  0  0  0  0  0  0  0
  -21.7052   -7.7131  -12.3392 O   0  0  0  0  0  0  0  0  0  0  0  0
  -18.9599   -7.8393  -13.0631 O   0  0  0  0  0  0  0  0  0  0  0  0
  -19.0117   -5.4563  -13.5978 C   0  0  0  0  0  0  0  0  0  0  0  0
  -18.4298   -5.0932  -12.3365 O   0  0  0  0  0  0  0  0  0  0  0  0
  -22.1011   -7.9135  -13.2017 H   0  0  0  0  0  0  0  0  0  0  0  0
  -18.5609   -7.6345  -12.2030 H   0  0  0  0  0  0  0  0  0  0  0  0
  -19.1328   -4.9697  -11.6797 H   0  0  0  0  0  0  0  0  0  0  0  0
  -22.8927   -5.1373  -11.8669 C   0  0  0  0  0  0  0  0  0  0  0  0
  -22.4951   -4.1006  -10.9645 O   0  0  0  0  0  0  0  0  0  0  0  0
  -21.6831   -4.3659  -10.5049 H   0  0  0  0  0  0  0  0  0  0  0  0
  -20.4687   -4.7854  -15.3456 O   0  0  0  0  0  0  0  0  0  0  0  0
  -21.1647   -2.0076  -18.3649 C   0  0  0  0  0  0  0  0  0  0  0  0
  -20.8513   -3.3225  -18.7127 C   0  0  0  0  0  0  0  0  0  0  0  0
  -20.6113   -4.2813  -17.7259 C   0  0  0  0  0  0  0  0  0  0  0  0
  -21.2385   -1.6593  -17.0222 C   0  0  0  0  0  0  0  0  0  0  0  0
  -21.0030   -2.6114  -16.0421 C   0  0  0  0  0  0  0  0  0  0  0  0
  -20.6884   -3.9214  -16.3813 C   0  0  0  0  0  0  0  0  0  0  0  0
  -20.3529   -0.4008  -19.9933 C   0  0  0  0  0  0  0  0  0  0  0  0
  -20.6173    0.5687  -20.9582 C   0  0  0  0  0  0  0  0  0  0  0  0
  -21.9279    0.9168  -21.2653 C   0  0  0  0  0  0  0  0  0  0  0  0
  -22.9789    0.2935  -20.6067 C   0  0  0  0  0  0  0  0  0  0  0  0
  -22.7143   -0.6772  -19.6466 C   0  0  0  0  0  0  0  0  0  0  0  0
  -21.4033   -1.0289  -19.3343 C   0  0  0  0  0  0  0  0  0  0  0  0
 25 26  2  0  0  0
 25 24  1  0  0  0
 26 27  1  0  0  0
 24 23  2  0  0  0
 27 28  2  0  0  0
 23 28  1  0  0  0
 28 17  1  0  0  0
 17 20  2  0  0  0
 17 18  1  0  0  0
 20 21  1  0  0  0
 18 19  2  0  0  0
 21 22  2  0  0  0
 19 22  1  0  0  0
 22 16  1  0  0  0
 16  4  1  0  0  0
  4  5  1  0  0  0
  4  8  1  0  0  0
  5  2  1  0  0  0
  2 13  1  0  0  0
  2  1  1  0  0  0
  8  3  1  0  0  0
  8  9  1  0  0  0
 13 14  1  0  0  0
  3  1  1  0  0  0
  3  7  1  0  0  0
  1  6  1  0  0  0
 14 15  1  0  0  0
  6 10  1  0  0  0
  7 11  1  0  0  0
  9 12  1  0  0  0
M  END
> <minimizedAffinity>
-7.35523

$$$$
4X50_3X8_A_301


 28 30  0  0  0  0  0  0  0  0999 V2000
  -18.7046   -7.3745  -12.4474 C   0  0  0  0  0  0  0  0  0  0  0  0
  -18.2016   -6.6559  -13.6907 C   0  0  0  0  0  0  0  0  0  0  0  0
  -20.1596   -7.0116  -12.2181 C   0  0  0  0  0  0  0  0  0  0  0  0
  -20.3893   -6.6482  -14.6525 C   0  0  0  0  0  0  0  0  0  0  0  0
  -18.9990   -7.0140  -14.8376 O   0  0  0  0  0  0  0  0  0  0  0  0
  -17.9241   -6.9562  -11.3253 O   0  0  0  0  0  0  0  0  0  0  0  0
  -20.6595   -7.6754  -11.0475 O   0  0  0  0  0  0  0  0  0  0  0  0
  -20.9516   -7.4183  -13.4591 C   0  0  0  0  0  0  0  0  0  0  0  0
  -20.8372   -8.8307  -13.6901 O   0  0  0  0  0  0  0  0  0  0  0  0
  -18.0055   -5.9959  -11.2148 H   0  0  0  0  0  0  0  0  0  0  0  0
  -20.5821   -8.6355  -11.1623 H   0  0  0  0  0  0  0  0  0  0  0  0
  -19.9042   -9.0627  -13.8194 H   0  0  0  0  0  0  0  0  0  0  0  0
  -16.7358   -7.0264  -13.9427 C   0  0  0  0  0  0  0  0  0  0  0  0
  -16.4604   -8.3204  -13.3979 O   0  0  0  0  0  0  0  0  0  0  0  0
  -16.6257   -8.3106  -12.4421 H   0  0  0  0  0  0  0  0  0  0  0  0
  -20.5812   -5.2531  -14.3549 O   0  0  0  0  0  0  0  0  0  0  0  0
  -20.9282   -2.4831  -17.4409 C   0  0  0  0  0  0  0  0  0  0  0  0
  -20.8126   -2.0240  -16.1278 C   0  0  0  0  0  0  0  0  0  0  0  0
  -20.6945   -2.9250  -15.0672 C   0  0  0  0  0  0  0  0  0  0  0  0
  -20.9227   -3.8505  -17.6854 C   0  0  0  0  0  0  0  0  0  0  0  0
  -20.8028   -4.7453  -16.6330 C   0  0  0  0  0  0  0  0  0  0  0  0
  -20.6895   -4.2952  -15.3235 C   0  0  0  0  0  0  0  0  0  0  0  0
  -19.9779   -1.3385  -19.3590 C   0  0  0  0  0  0  0  0  0  0  0  0
  -20.1294   -0.4584  -20.4284 C   0  0  0  0  0  0  0  0  0  0  0  0
  -21.3509    0.1642  -20.6596 C   0  0  0  0  0  0  0  0  0  0  0  0
  -22.4257   -0.0937  -19.8200 C   0  0  0  0  0  0  0  0  0  0  0  0
  -22.2749   -0.9756  -18.7553 C   0  0  0  0  0  0  0  0  0  0  0  0
  -21.0533   -1.6012  -18.5184 C   0  0  0  0  0  0  0  0  0  0  0  0
 25 26  2  0  0  0
 25 24  1  0  0  0
 26 27  1  0  0  0
 24 23  2  0  0  0
 27 28  2  0  0  0
 23 28  1  0  0  0
 28 17  1  0  0  0
 17 20  2  0  0  0
 17 18  1  0  0  0
 20 21  1  0  0  0
 18 19  2  0  0  0
 21 22  2  0  0  0
 19 22  1  0  0  0
 22 16  1  0  0  0
 16  4  1  0  0  0
  4  5  1  0  0  0
  4  8  1  0  0  0
  5  2  1  0  0  0
  2 13  1  0  0  0
  2  1  1  0  0  0
  8  3  1  0  0  0
  8  9  1  0  0  0
 13 14  1  0  0  0
  3  1  1  0  0  0
  3  7  1  0  0  0
  1  6  1  0  0  0
 14 15  1  0  0  0
  6 10  1  0  0  0
  7 11  1  0  0  0
  9 12  1  0  0  0
M  END
> <minimizedAffinity>
-7.06003

$$$$
4X50_3X8_A_301


 28 30  0  0  0  0  0  0  0  0999 V2000
  -17.7341   -7.9224  -13.8666 C   0  0  0  0  0  0  0  0  0  0  0  0
  -18.0446   -7.4907  -15.2923 C   0  0  0  0  0  0  0  0  0  0  0  0
  -18.3300   -6.9153  -12.9014 C   0  0  0  0  0  0  0  0  0  0  0  0
  -20.0559   -6.4039  -14.5958 C   0  0  0  0  0  0  0  0  0  0  0  0
  -19.4693   -7.3841  -15.4880 O   0  0  0  0  0  0  0  0  0  0  0  0
  -16.3155   -7.9672  -13.6968 O   0  0  0  0  0  0  0  0  0  0  0  0
  -18.0491   -7.2980  -11.5466 O   0  0  0  0  0  0  0  0  0  0  0  0
  -19.8353   -6.8508  -13.1518 C   0  0  0  0  0  0  0  0  0  0  0  0
  -20.4375   -8.1368  -12.9401 O   0  0  0  0  0  0  0  0  0  0  0  0
  -15.9412   -7.0895  -13.8714 H   0  0  0  0  0  0  0  0  0  0  0  0
  -18.4289   -8.1734  -11.3725 H   0  0  0  0  0  0  0  0  0  0  0  0
  -20.0426   -8.7826  -13.5467 H   0  0  0  0  0  0  0  0  0  0  0  0
  -17.4608   -8.5089  -16.2780 C   0  0  0  0  0  0  0  0  0  0  0  0
  -17.2158   -9.7493  -15.6082 O   0  0  0  0  0  0  0  0  0  0  0  0
  -16.5836   -9.6076  -14.8864 H   0  0  0  0  0  0  0  0  0  0  0  0
  -19.4603   -5.0983  -14.7061 O   0  0  0  0  0  0  0  0  0  0  0  0
  -21.1697   -2.1682  -17.1163 C   0  0  0  0  0  0  0  0  0  0  0  0
  -20.7151   -1.8187  -15.8437 C   0  0  0  0  0  0  0  0  0  0  0  0
  -20.1363   -2.7761  -15.0075 C   0  0  0  0  0  0  0  0  0  0  0  0
  -21.0390   -3.4823  -17.5472 C   0  0  0  0  0  0  0  0  0  0  0  0
  -20.4620   -4.4325  -16.7185 C   0  0  0  0  0  0  0  0  0  0  0  0
  -20.0094   -4.0920  -15.4499 C   0  0  0  0  0  0  0  0  0  0  0  0
  -21.8671   -1.4692  -19.3338 C   0  0  0  0  0  0  0  0  0  0  0  0
  -22.4607   -0.5190  -20.1620 C   0  0  0  0  0  0  0  0  0  0  0  0
  -22.9423    0.6730  -19.6327 C   0  0  0  0  0  0  0  0  0  0  0  0
  -22.8316    0.9168  -18.2707 C   0  0  0  0  0  0  0  0  0  0  0  0
  -22.2428   -0.0340  -17.4441 C   0  0  0  0  0  0  0  0  0  0  0  0
  -21.7576   -1.2293  -17.9691 C   0  0  0  0  0  0  0  0  0  0  0  0
 25 26  2  0  0  0
 25 24  1  0  0  0
 26 27  1  0  0  0
 24 23  2  0  0  0
 27 28  2  0  0  0
 23 28  1  0  0  0
 28 17  1  0  0  0
 17 20  2  0  0  0
 17 18  1  0  0  0
 20 21  1  0  0  0
 18 19  2  0  0  0
 21 22  2  0  0  0
 19 22  1  0  0  0
 22 16  1  0  0  0
 16  4  1  0  0  0
  4  5  1  0  0  0
  4  8  1  0  0  0
  5  2  1  0  0  0
  2 13  1  0  0  0
  2  1  1  0  0  0
  8  3  1  0  0  0
  8  9  1  0  0  0
 13 14  1  0  0  0
  3  1  1  0  0  0
  3  7  1  0  0  0
  1  6  1  0  0  0
 14 15  1  0  0  0
  6 10  1  0  0  0
  7 11  1  0  0  0
  9 12  1  0  0  0
M  END
> <minimizedAffinity>
-6.79876

$$$$
4X50_3X8_A_301


 28 30  0  0  0  0  0  0  0  0999 V2000
  -20.0785   -6.8015  -12.7557 C   0  0  0  0  0  0  0  0  0  0  0  0
  -21.3287   -6.0428  -13.1758 C   0  0  0  0  0  0  0  0  0  0  0  0
  -19.1717   -6.9707  -13.9600 C   0  0  0  0  0  0  0  0  0  0  0  0
  -20.1348   -4.8972  -14.9003 C   0  0  0  0  0  0  0  0  0  0  0  0
  -20.9772   -4.7582  -13.7290 O   0  0  0  0  0  0  0  0  0  0  0  0
  -20.4629   -8.0863  -12.2613 O   0  0  0  0  0  0  0  0  0  0  0  0
  -17.9834   -7.6870  -13.5915 O   0  0  0  0  0  0  0  0  0  0  0  0
  -18.8305   -5.5820  -14.4964 C   0  0  0  0  0  0  0  0  0  0  0  0
  -18.1598   -4.8045  -13.4930 O   0  0  0  0  0  0  0  0  0  0  0  0
  -20.9337   -8.5725  -12.9562 H   0  0  0  0  0  0  0  0  0  0  0  0
  -17.5114   -7.1965  -12.9005 H   0  0  0  0  0  0  0  0  0  0  0  0
  -18.7349   -4.7122  -12.7174 H   0  0  0  0  0  0  0  0  0  0  0  0
  -22.2471   -5.8512  -11.9638 C   0  0  0  0  0  0  0  0  0  0  0  0
  -21.4959   -6.0020  -10.7554 O   0  0  0  0  0  0  0  0  0  0  0  0
  -21.1095   -6.8912  -10.7238 H   0  0  0  0  0  0  0  0  0  0  0  0
  -20.7152   -5.7176  -15.9307 O   0  0  0  0  0  0  0  0  0  0  0  0
  -21.5274   -4.5067  -19.8282 C   0  0  0  0  0  0  0  0  0  0  0  0
  -21.0180   -3.5757  -18.9215 C   0  0  0  0  0  0  0  0  0  0  0  0
  -20.7340   -3.9468  -17.6053 C   0  0  0  0  0  0  0  0  0  0  0  0
  -21.7485   -5.8124  -19.4091 C   0  0  0  0  0  0  0  0  0  0  0  0
  -21.4641   -6.1820  -18.1032 C   0  0  0  0  0  0  0  0  0  0  0  0
  -20.9590   -5.2600  -17.1950 C   0  0  0  0  0  0  0  0  0  0  0  0
  -21.5421   -5.0222  -22.2002 C   0  0  0  0  0  0  0  0  0  0  0  0
  -21.8519   -4.6526  -23.5073 C   0  0  0  0  0  0  0  0  0  0  0  0
  -22.4400   -3.4204  -23.7695 C   0  0  0  0  0  0  0  0  0  0  0  0
  -22.7207   -2.5539  -22.7221 C   0  0  0  0  0  0  0  0  0  0  0  0
  -22.4151   -2.9252  -21.4172 C   0  0  0  0  0  0  0  0  0  0  0  0
  -21.8249   -4.1579  -21.1489 C   0  0  0  0  0  0  0  0  0  0  0  0
 25 26  2  0  0  0
 25 24  1  0  0  0
 26 27  1  0  0  0
 24 23  2  0  0  0
 27 28  2  0  0  0
 23 28  1  0  0  0
 28 17  1  0  0  0
 17 20  2  0  0  0
 17 18  1  0  0  0
 20 21  1  0  0  0
 18 19  2  0  0  0
 21 22  2  0  0  0
 19 22  1  0  0  0
 22 16  1  0  0  0
 16  4  1  0  0  0
  4  5  1  0  0  0
  4  8  1  0  0  0
  5  2  1  0  0  0
  2 13  1  0  0  0
  2  1  1  0  0  0
  8  3  1  0  0  0
  8  9  1  0  0  0
 13 14  1  0  0  0
  3  1  1  0  0  0
  3  7  1  0  0  0
  1  6  1  0  0  0
 14 15  1  0  0  0
  6 10  1  0  0  0
  7 11  1  0  0  0
  9 12  1  0  0  0
M  END
> <minimizedAffinity>
-6.68952

$$$$
4X50_3X8_A_301


 28 30  0  0  0  0  0  0  0  0999 V2000
  -22.2853   -3.9232  -21.7287 C   0  0  0  0  0  0  0  0  0  0  0  0
  -22.8799   -5.1977  -21.1480 C   0  0  0  0  0  0  0  0  0  0  0  0
  -21.2921   -3.3427  -20.7398 C   0  0  0  0  0  0  0  0  0  0  0  0
  -20.8946   -5.6298  -19.8895 C   0  0  0  0  0  0  0  0  0  0  0  0
  -21.8393   -6.1526  -20.8566 O   0  0  0  0  0  0  0  0  0  0  0  0
  -23.3390   -2.9845  -21.9560 O   0  0  0  0  0  0  0  0  0  0  0  0
  -20.7168   -2.1358  -21.2627 O   0  0  0  0  0  0  0  0  0  0  0  0
  -20.2155   -4.3935  -20.4760 C   0  0  0  0  0  0  0  0  0  0  0  0
  -19.5381   -4.7386  -21.6939 O   0  0  0  0  0  0  0  0  0  0  0  0
  -23.7889   -2.7942  -21.1180 H   0  0  0  0  0  0  0  0  0  0  0  0
  -20.2629   -2.3293  -22.0978 H   0  0  0  0  0  0  0  0  0  0  0  0
  -20.1783   -5.0935  -22.3305 H   0  0  0  0  0  0  0  0  0  0  0  0
  -23.8745   -5.8033  -22.1447 C   0  0  0  0  0  0  0  0  0  0  0  0
  -25.1661   -5.2157  -21.9610 O   0  0  0  0  0  0  0  0  0  0  0  0
  -25.4752   -5.3900  -21.0582 H   0  0  0  0  0  0  0  0  0  0  0  0
  -21.5089   -5.2034  -18.6597 O   0  0  0  0  0  0  0  0  0  0  0  0
  -20.2498   -6.3013  -14.8484 C   0  0  0  0  0  0  0  0  0  0  0  0
  -20.2393   -7.2557  -15.8668 C   0  0  0  0  0  0  0  0  0  0  0  0
  -20.6553   -6.9228  -17.1579 C   0  0  0  0  0  0  0  0  0  0  0  0
  -20.6774   -5.0104  -15.1316 C   0  0  0  0  0  0  0  0  0  0  0  0
  -21.0879   -4.6786  -16.4138 C   0  0  0  0  0  0  0  0  0  0  0  0
  -21.0820   -5.6242  -17.4316 C   0  0  0  0  0  0  0  0  0  0  0  0
  -18.5217   -6.4489  -13.1501 C   0  0  0  0  0  0  0  0  0  0  0  0
  -18.1431   -6.7622  -11.8464 C   0  0  0  0  0  0  0  0  0  0  0  0
  -19.0797   -7.2418  -10.9377 C   0  0  0  0  0  0  0  0  0  0  0  0
  -20.4001   -7.4086  -11.3323 C   0  0  0  0  0  0  0  0  0  0  0  0
  -20.7781   -7.0917  -12.6325 C   0  0  0  0  0  0  0  0  0  0  0  0
  -19.8437   -6.6119  -13.5472 C   0  0  0  0  0  0  0  0  0  0  0  0
 25 26  2  0  0  0
 25 24  1  0  0  0
 26 27  1  0  0  0
 24 23  2  0  0  0
 27 28  2  0  0  0
 23 28  1  0  0  0
 28 17  1  0  0  0
 17 20  2  0  0  0
 17 18  1  0  0  0
 20 21  1  0  0  0
 18 19  2  0  0  0
 21 22  2  0  0  0
 19 22  1  0  0  0
 22 16  1  0  0  0
 16  4  1  0  0  0
  4  5  1  0  0  0
  4  8  1  0  0  0
  5  2  1  0  0  0
  2 13  1  0  0  0
  2  1  1  0  0  0
  8  3  1  0  0  0
  8  9  1  0  0  0
 13 14  1  0  0  0
  3  1  1  0  0  0
  3  7  1  0  0  0
  1  6  1  0  0  0
 14 15  1  0  0  0
  6 10  1  0  0  0
  7 11  1  0  0  0
  9 12  1  0  0  0
M  END
> <minimizedAffinity>
-6.31493

$$$$
4X50_3X8_A_301


 28 30  0  0  0  0  0  0  0  0999 V2000
  -21.0126   -4.9998  -22.1105 C   0  0  0  0  0  0  0  0  0  0  0  0
  -22.2516   -4.7171  -21.2737 C   0  0  0  0  0  0  0  0  0  0  0  0
  -19.8808   -5.4256  -21.1946 C   0  0  0  0  0  0  0  0  0  0  0  0
  -21.5696   -6.2927  -19.6111 C   0  0  0  0  0  0  0  0  0  0  0  0
  -22.6260   -5.8857  -20.5162 O   0  0  0  0  0  0  0  0  0  0  0  0
  -20.6433   -3.8067  -22.8055 O   0  0  0  0  0  0  0  0  0  0  0  0
  -18.6967   -5.6966  -21.9597 O   0  0  0  0  0  0  0  0  0  0  0  0
  -20.3327   -6.6658  -20.4263 C   0  0  0  0  0  0  0  0  0  0  0  0
  -20.6477   -7.7338  -21.3326 O   0  0  0  0  0  0  0  0  0  0  0  0
  -20.4622   -3.1018  -22.1642 H   0  0  0  0  0  0  0  0  0  0  0  0
  -18.8784   -6.4053  -22.5966 H   0  0  0  0  0  0  0  0  0  0  0  0
  -21.3599   -7.4529  -21.9282 H   0  0  0  0  0  0  0  0  0  0  0  0
  -23.4081   -4.3006  -22.1892 C   0  0  0  0  0  0  0  0  0  0  0  0
  -23.5770   -2.8805  -22.1443 O   0  0  0  0  0  0  0  0  0  0  0  0
  -23.7773   -2.6073  -21.2353 H   0  0  0  0  0  0  0  0  0  0  0  0
  -21.1546   -5.2516  -18.7081 O   0  0  0  0  0  0  0  0  0  0  0  0
  -20.2703   -6.1360  -14.7391 C   0  0  0  0  0  0  0  0  0  0  0  0
  -20.6169   -4.8279  -15.0810 C   0  0  0  0  0  0  0  0  0  0  0  0
  -20.9197   -4.4948  -16.4032 C   0  0  0  0  0  0  0  0  0  0  0  0
  -20.2310   -7.1093  -15.7295 C   0  0  0  0  0  0  0  0  0  0  0  0
  -20.5341   -6.7797  -17.0418 C   0  0  0  0  0  0  0  0  0  0  0  0
  -20.8777   -5.4792  -17.3893 C   0  0  0  0  0  0  0  0  0  0  0  0
  -20.9366   -6.9615  -12.5557 C   0  0  0  0  0  0  0  0  0  0  0  0
  -20.5985   -7.3138  -11.2509 C   0  0  0  0  0  0  0  0  0  0  0  0
  -19.2859   -7.1959  -10.8079 C   0  0  0  0  0  0  0  0  0  0  0  0
  -18.3067   -6.7250  -11.6717 C   0  0  0  0  0  0  0  0  0  0  0  0
  -18.6441   -6.3775  -12.9753 C   0  0  0  0  0  0  0  0  0  0  0  0
  -19.9576   -6.4925  -13.4240 C   0  0  0  0  0  0  0  0  0  0  0  0
 25 26  2  0  0  0
 25 24  1  0  0  0
 26 27  1  0  0  0
 24 23  2  0  0  0
 27 28  2  0  0  0
 23 28  1  0  0  0
 28 17  1  0  0  0
 17 20  2  0  0  0
 17 18  1  0  0  0
 20 21  1  0  0  0
 18 19  2  0  0  0
 21 22  2  0  0  0
 19 22  1  0  0  0
 22 16  1  0  0  0
 16  4  1  0  0  0
  4  5  1  0  0  0
  4  8  1  0  0  0
  5  2  1  0  0  0
  2 13  1  0  0  0
  2  1  1  0  0  0
  8  3  1  0  0  0
  8  9  1  0  0  0
 13 14  1  0  0  0
  3  1  1  0  0  0
  3  7  1  0  0  0
  1  6  1  0  0  0
 14 15  1  0  0  0
  6 10  1  0  0  0
  7 11  1  0  0  0
  9 12  1  0  0  0
M  END
> <minimizedAffinity>
-6.26946

$$$$
