3OWN_3OX_A_500


 53 56  0  0  0  0  0  0  0  0999 V2000
   -9.9760  -28.0493  -36.2632 N   0  0  0  0  0  0  0  0  0  0  0  0
  -10.6081  -28.6256  -37.4476 C   0  0  0  0  0  0  0  0  0  0  0  0
  -11.2625  -27.4311  -38.1937 C   0  0  0  0  0  0  0  0  0  0  0  0
  -12.1240  -26.6681  -37.3578 O   0  0  0  0  0  0  0  0  0  0  0  0
   -9.5188  -27.7622  -33.9428 C   0  0  0  0  0  0  0  0  0  0  0  0
   -8.6433  -28.2039  -32.9570 C   0  0  0  0  0  0  0  0  0  0  0  0
   -8.2139  -27.2952  -31.9746 C   0  0  0  0  0  0  0  0  0  0  0  0
   -8.6642  -25.9724  -31.9647 C   0  0  0  0  0  0  0  0  0  0  0  0
   -9.5864  -25.5504  -32.9126 C   0  0  0  0  0  0  0  0  0  0  0  0
  -10.0055  -26.4554  -33.8844 C   0  0  0  0  0  0  0  0  0  0  0  0
  -10.0971  -28.5821  -35.0405 C   0  0  0  0  0  0  0  0  0  0  0  0
  -10.1026  -24.1382  -32.9799 C   0  0  0  0  0  0  0  0  0  0  0  0
   -9.3738  -23.1817  -32.8171 O   0  0  0  0  0  0  0  0  0  0  0  0
  -10.7039  -29.6314  -34.7959 O   0  0  0  0  0  0  0  0  0  0  0  0
  -11.3849  -24.0275  -33.2301 N   0  0  0  0  0  0  0  0  0  0  0  0
  -12.2851  -22.9344  -33.5580 C   0  0  0  0  0  0  0  0  0  0  0  0
  -13.1455  -23.4220  -34.6597 C   0  0  0  0  0  0  0  0  0  0  0  0
  -13.1928  -24.6439  -36.7504 C   0  0  0  0  0  0  0  0  0  0  0  0
  -14.5961  -24.5542  -36.7257 C   0  0  0  0  0  0  0  0  0  0  0  0
  -15.2647  -23.9347  -35.6653 C   0  0  0  0  0  0  0  0  0  0  0  0
  -14.5330  -23.3820  -34.6103 C   0  0  0  0  0  0  0  0  0  0  0  0
  -12.4709  -24.0923  -35.6892 C   0  0  0  0  0  0  0  0  0  0  0  0
  -12.5173  -25.3774  -37.8865 C   0  0  0  0  0  0  0  0  0  0  0  0
   -9.4366  -27.2324  -36.3686 H   0  0  0  0  0  0  0  0  0  0  0  0
  -11.8503  -24.8938  -33.1851 H   0  0  0  0  0  0  0  0  0  0  0  0
  -13.0516  -22.4086  -32.3783 C   0  0  0  0  0  0  0  0  0  0  0  0
  -13.2869  -23.1868  -31.2345 C   0  0  0  0  0  0  0  0  0  0  0  0
  -13.9780  -22.6696  -30.1431 C   0  0  0  0  0  0  0  0  0  0  0  0
  -14.4391  -21.3485  -30.1874 C   0  0  0  0  0  0  0  0  0  0  0  0
  -14.1974  -20.5655  -31.3091 C   0  0  0  0  0  0  0  0  0  0  0  0
  -13.5088  -21.0862  -32.4009 C   0  0  0  0  0  0  0  0  0  0  0  0
   -9.6560  -29.4276  -38.3360 C   0  0  0  0  0  0  0  0  0  0  0  0
   -8.5321  -28.6463  -38.7582 O   0  0  0  0  0  0  0  0  0  0  0  0
   -8.0256  -28.3623  -37.9812 H   0  0  0  0  0  0  0  0  0  0  0  0
   -9.1697  -30.6756  -37.5620 C   0  0  0  0  0  0  0  0  0  0  0  0
   -8.6601  -31.8258  -38.4340 C   0  0  0  0  0  0  0  0  0  0  0  0
   -9.8759  -32.6461  -38.7808 C   0  0  0  0  0  0  0  0  0  0  0  0
  -10.5344  -33.1349  -37.8813 O   0  0  0  0  0  0  0  0  0  0  0  0
  -10.1948  -32.8021  -40.0603 N   0  0  0  0  0  0  0  0  0  0  0  0
   -9.6075  -32.3722  -40.7234 H   0  0  0  0  0  0  0  0  0  0  0  0
  -11.3429  -33.5569  -40.5761 C   0  0  0  0  0  0  0  0  0  0  0  0
  -11.7500  -33.0595  -41.9544 C   0  0  0  0  0  0  0  0  0  0  0  0
  -10.6976  -33.5831  -42.9416 C   0  0  0  0  0  0  0  0  0  0  0  0
  -13.1597  -33.4997  -42.3581 C   0  0  0  0  0  0  0  0  0  0  0  0
   -7.5870  -32.6549  -37.6905 C   0  0  0  0  0  0  0  0  0  0  0  0
   -6.3237  -31.8477  -37.3731 C   0  0  0  0  0  0  0  0  0  0  0  0
   -7.2250  -33.9146  -38.4882 C   0  0  0  0  0  0  0  0  0  0  0  0
   -7.2611  -27.7383  -31.0215 N   0  0  0  0  0  0  0  0  0  0  0  0
   -7.7440  -28.6800  -30.0072 C   0  0  0  0  0  0  0  0  0  0  0  0
   -5.7640  -27.3815  -31.1943 S   0  0  0  0  0  0  0  0  0  0  0  0
   -5.0177  -27.3948  -29.7731 C   0  0  0  0  0  0  0  0  0  0  0  0
   -5.6771  -26.0105  -31.7154 O   0  0  0  0  0  0  0  0  0  0  0  0
   -5.1152  -28.2654  -32.1294 O   0  0  0  0  0  0  0  0  0  0  0  0
  2  1  1  0  0  0
  1 11  1  0  0  0
 32  2  1  0  0  0
  3  2  1  0  0  0
 33 32  1  0  0  0
 32 35  1  0  0  0
 36 35  1  0  0  0
 37 36  1  0  0  0
 36 45  1  0  0  0
 39 37  1  0  0  0
 37 38  2  0  0  0
  3  4  1  0  0  0
 47 45  1  0  0  0
 45 46  1  0  0  0
 23  4  1  0  0  0
 42 41  1  0  0  0
 41 39  1  0  0  0
 44 42  1  0  0  0
 43 42  1  0  0  0
 11  5  1  0  0  0
  5 10  2  0  0  0
  5  6  1  0  0  0
  6  7  2  0  0  0
  7  8  1  0  0  0
  7 48  1  0  0  0
  9  8  2  0  0  0
 10  9  1  0  0  0
 12  9  1  0  0  0
 11 14  2  0  0  0
 15 12  1  0  0  0
 12 13  2  0  0  0
 50 48  1  0  0  0
 48 49  1  0  0  0
 52 50  2  0  0  0
 51 50  1  0  0  0
 50 53  2  0  0  0
 16 15  1  0  0  0
 17 16  1  0  0  0
 16 26  1  0  0  0
 22 17  2  0  0  0
 17 21  1  0  0  0
 23 18  1  0  0  0
 19 18  2  0  0  0
 18 22  1  0  0  0
 19 20  1  0  0  0
 20 21  2  0  0  0
 26 31  2  0  0  0
 26 27  1  0  0  0
 27 28  2  0  0  0
 28 29  1  0  0  0
 30 29  2  0  0  0
 31 30  1  0  0  0
  1 24  1  0  0  0
 33 34  1  0  0  0
 39 40  1  0  0  0
 15 25  1  0  0  0
M  END
> <minimizedAffinity>
-14.14767

$$$$
