3TIF_ADP_A_236


 34 36  0  0  0  0  0  0  0  0999 V2000
   32.0612    3.0743  -15.0268 C   0  0  0  0  0  0  0  0  0  0  0  0
   32.5487    2.9820  -16.3510 O   0  0  0  0  0  0  0  0  0  0  0  0
   33.2148    2.8163  -14.0972 C   0  0  0  0  0  0  0  0  0  0  0  0
   33.1985    1.5578  -13.4850 O   0  0  0  0  0  0  0  0  0  0  0  0
   34.3905    2.9407  -14.9100 C   0  0  0  0  0  0  0  0  0  0  0  0
   35.4381    2.1119  -14.4967 O   0  0  0  0  0  0  0  0  0  0  0  0
   33.9403    2.6284  -16.3003 C   0  0  0  0  0  0  0  0  0  0  0  0
   33.2366    0.8670  -14.1649 H   0  0  0  0  0  0  0  0  0  0  0  0
   35.1516    1.1860  -14.5334 H   0  0  0  0  0  0  0  0  0  0  0  0
   34.6652    3.3364  -17.3422 N   0  0  0  0  0  0  0  0  0  0  0  0
   35.7856    2.9051  -17.9554 C   0  0  0  0  0  0  0  0  0  0  0  0
   36.1761    3.8263  -18.8513 N   0  0  0  0  0  0  0  0  0  0  0  0
   35.2810    4.8496  -18.7997 C   0  0  0  0  0  0  0  0  0  0  0  0
   35.1804    6.0585  -19.4941 C   0  0  0  0  0  0  0  0  0  0  0  0
   36.1415    6.4002  -20.4668 N   0  0  0  0  0  0  0  0  0  0  0  0
   34.1658    6.8941  -19.2292 N   0  0  0  0  0  0  0  0  0  0  0  0
   33.2500    6.5718  -18.2952 C   0  0  0  0  0  0  0  0  0  0  0  0
   33.3166    5.4182  -17.6045 N   0  0  0  0  0  0  0  0  0  0  0  0
   34.3213    4.5456  -17.8456 C   0  0  0  0  0  0  0  0  0  0  0  0
   36.8860    5.7857  -20.6603 H   0  0  0  0  0  0  0  0  0  0  0  0
   36.0683    7.2533  -20.9527 H   0  0  0  0  0  0  0  0  0  0  0  0
   31.3157    4.3641  -14.7390 C   0  0  0  0  0  0  0  0  0  0  0  0
   31.4001    4.9308  -13.4729 O   0  0  0  0  0  0  0  0  0  0  0  0
   30.2011    5.6516  -12.7512 P   0  0  0  0  0  0  0  0  0  0  0  0
   29.9912    4.2708  -12.1524 O   0  0  0  0  0  0  0  0  0  0  0  0
   29.5291    5.9223  -14.1453 O   0  0  0  0  0  0  0  0  0  0  0  0
   28.6934    6.3971  -14.0146 H   0  0  0  0  0  0  0  0  0  0  0  0
   31.2654    6.6817  -12.2209 O   0  0  0  0  0  0  0  0  0  0  0  0
   30.9226    8.2127  -12.4517 P   0  0  0  0  0  0  0  0  0  0  0  0
   31.3392    8.6404  -13.8215 O   0  0  0  0  0  0  0  0  0  0  0  0
   29.4231    8.3943  -12.3078 O   0  0  0  0  0  0  0  0  0  0  0  0
   31.5883    9.0325  -11.3969 O   0  0  0  0  0  0  0  0  0  0  0  0
   29.1957    9.3271  -12.4463 H   0  0  0  0  0  0  0  0  0  0  0  0
   31.3799    9.9696  -11.5362 H   0  0  0  0  0  0  0  0  0  0  0  0
 29 30  2  0  0  0
 29 31  1  0  0  0
 29 32  1  0  0  0
 29 28  1  0  0  0
 24 25  2  0  0  0
 24 26  1  0  0  0
 24 28  1  0  0  0
 24 23  1  0  0  0
 23 22  1  0  0  0
 22  1  1  0  0  0
  1  2  1  0  0  0
  1  3  1  0  0  0
  2  7  1  0  0  0
  3  4  1  0  0  0
  3  5  1  0  0  0
  5  6  1  0  0  0
  5  7  1  0  0  0
  7 10  1  0  0  0
 10 11  1  0  0  0
 10 19  1  0  0  0
 11 12  2  0  0  0
 12 13  1  0  0  0
 13 14  1  0  0  0
 13 19  2  0  0  0
 14 15  1  0  0  0
 14 16  2  0  0  0
 16 17  1  0  0  0
 17 18  2  0  0  0
 18 19  1  0  0  0
 31 33  1  0  0  0
 32 34  1  0  0  0
 26 27  1  0  0  0
  4  8  1  0  0  0
  6  9  1  0  0  0
 15 20  1  0  0  0
 15 21  1  0  0  0
M  END
> <minimizedAffinity>
-11.01222

$$$$
3TIF_ADP_A_236


 34 36  0  0  0  0  0  0  0  0999 V2000
   32.0792    3.1687  -14.9648 C   0  0  0  0  0  0  0  0  0  0  0  0
   31.7554    4.0991  -15.9791 O   0  0  0  0  0  0  0  0  0  0  0  0
   33.4988    2.7258  -15.1884 C   0  0  0  0  0  0  0  0  0  0  0  0
   33.6296    1.4374  -15.7195 O   0  0  0  0  0  0  0  0  0  0  0  0
   34.0535    3.6818  -16.1033 C   0  0  0  0  0  0  0  0  0  0  0  0
   35.0224    3.1372  -16.9515 O   0  0  0  0  0  0  0  0  0  0  0  0
   32.8842    4.2246  -16.8592 C   0  0  0  0  0  0  0  0  0  0  0  0
   33.1924    1.3984  -16.5845 H   0  0  0  0  0  0  0  0  0  0  0  0
   34.6283    2.4225  -17.4758 H   0  0  0  0  0  0  0  0  0  0  0  0
   33.0277    5.6084  -17.2796 N   0  0  0  0  0  0  0  0  0  0  0  0
   32.3782    6.6645  -16.7504 C   0  0  0  0  0  0  0  0  0  0  0  0
   32.7538    7.7789  -17.3992 N   0  0  0  0  0  0  0  0  0  0  0  0
   33.6575    7.4126  -18.3479 C   0  0  0  0  0  0  0  0  0  0  0  0
   34.3758    8.1363  -19.3040 C   0  0  0  0  0  0  0  0  0  0  0  0
   34.2148    9.5329  -19.4052 N   0  0  0  0  0  0  0  0  0  0  0  0
   35.2180    7.4954  -20.1273 N   0  0  0  0  0  0  0  0  0  0  0  0
   35.3680    6.1597  -20.0360 C   0  0  0  0  0  0  0  0  0  0  0  0
   34.6907    5.4298  -19.1300 N   0  0  0  0  0  0  0  0  0  0  0  0
   33.8355    6.0390  -18.2776 C   0  0  0  0  0  0  0  0  0  0  0  0
   33.5961   10.0022  -18.8002 H   0  0  0  0  0  0  0  0  0  0  0  0
   34.7211   10.0391  -20.0810 H   0  0  0  0  0  0  0  0  0  0  0  0
   31.8069    3.6760  -13.5610 C   0  0  0  0  0  0  0  0  0  0  0  0
   31.6228    5.0377  -13.3534 O   0  0  0  0  0  0  0  0  0  0  0  0
   30.2841    5.6723  -12.8213 P   0  0  0  0  0  0  0  0  0  0  0  0
   30.0605    4.2656  -12.2915 O   0  0  0  0  0  0  0  0  0  0  0  0
   29.8300    5.9464  -14.3002 O   0  0  0  0  0  0  0  0  0  0  0  0
   28.9583    6.3717  -14.2972 H   0  0  0  0  0  0  0  0  0  0  0  0
   31.1884    6.7424  -12.1056 O   0  0  0  0  0  0  0  0  0  0  0  0
   30.8101    8.2590  -12.3727 P   0  0  0  0  0  0  0  0  0  0  0  0
   31.3339    8.7020  -13.7002 O   0  0  0  0  0  0  0  0  0  0  0  0
   29.2980    8.3832  -12.3675 O   0  0  0  0  0  0  0  0  0  0  0  0
   31.3446    9.1040  -11.2645 O   0  0  0  0  0  0  0  0  0  0  0  0
   29.0488    9.3066  -12.5297 H   0  0  0  0  0  0  0  0  0  0  0  0
   31.1143   10.0324  -11.4258 H   0  0  0  0  0  0  0  0  0  0  0  0
 29 30  2  0  0  0
 29 31  1  0  0  0
 29 32  1  0  0  0
 29 28  1  0  0  0
 24 25  2  0  0  0
 24 26  1  0  0  0
 24 28  1  0  0  0
 24 23  1  0  0  0
 23 22  1  0  0  0
 22  1  1  0  0  0
  1  2  1  0  0  0
  1  3  1  0  0  0
  2  7  1  0  0  0
  3  4  1  0  0  0
  3  5  1  0  0  0
  5  6  1  0  0  0
  5  7  1  0  0  0
  7 10  1  0  0  0
 10 11  1  0  0  0
 10 19  1  0  0  0
 11 12  2  0  0  0
 12 13  1  0  0  0
 13 14  1  0  0  0
 13 19  2  0  0  0
 14 15  1  0  0  0
 14 16  2  0  0  0
 16 17  1  0  0  0
 17 18  2  0  0  0
 18 19  1  0  0  0
 31 33  1  0  0  0
 32 34  1  0  0  0
 26 27  1  0  0  0
  4  8  1  0  0  0
  6  9  1  0  0  0
 15 20  1  0  0  0
 15 21  1  0  0  0
M  END
> <minimizedAffinity>
-10.94911

$$$$
3TIF_ADP_A_236


 34 36  0  0  0  0  0  0  0  0999 V2000
   34.6665    1.3816  -14.7140 C   0  0  0  0  0  0  0  0  0  0  0  0
   35.4616    0.7092  -15.6705 O   0  0  0  0  0  0  0  0  0  0  0  0
   35.4958    2.4926  -14.1314 C   0  0  0  0  0  0  0  0  0  0  0  0
   35.9659    2.2497  -12.8356 O   0  0  0  0  0  0  0  0  0  0  0  0
   36.6073    2.6437  -15.0259 C   0  0  0  0  0  0  0  0  0  0  0  0
   37.7789    3.0596  -14.3861 O   0  0  0  0  0  0  0  0  0  0  0  0
   36.7666    1.3102  -15.6815 C   0  0  0  0  0  0  0  0  0  0  0  0
   36.5306    1.4611  -12.8390 H   0  0  0  0  0  0  0  0  0  0  0  0
   38.0292    2.4069  -13.7135 H   0  0  0  0  0  0  0  0  0  0  0  0
   37.2710    1.3643  -17.0434 N   0  0  0  0  0  0  0  0  0  0  0  0
   36.6850    2.0021  -18.0764 C   0  0  0  0  0  0  0  0  0  0  0  0
   37.4296    1.8238  -19.1798 N   0  0  0  0  0  0  0  0  0  0  0  0
   38.5024    1.0642  -18.8286 C   0  0  0  0  0  0  0  0  0  0  0  0
   39.5938    0.5722  -19.5500 C   0  0  0  0  0  0  0  0  0  0  0  0
   39.7176    0.8492  -20.9264 N   0  0  0  0  0  0  0  0  0  0  0  0
   40.5226   -0.1674  -18.9271 N   0  0  0  0  0  0  0  0  0  0  0  0
   40.4023   -0.4384  -17.6129 C   0  0  0  0  0  0  0  0  0  0  0  0
   39.3634    0.0156  -16.8870 N   0  0  0  0  0  0  0  0  0  0  0  0
   38.4080    0.7696  -17.4766 C   0  0  0  0  0  0  0  0  0  0  0  0
   39.0349    1.3924  -21.3826 H   0  0  0  0  0  0  0  0  0  0  0  0
   40.4869    0.4996  -21.4317 H   0  0  0  0  0  0  0  0  0  0  0  0
   33.3202    1.8339  -15.2481 C   0  0  0  0  0  0  0  0  0  0  0  0
   32.5162    2.6510  -14.4626 O   0  0  0  0  0  0  0  0  0  0  0  0
   31.7979    3.9477  -14.9923 P   0  0  0  0  0  0  0  0  0  0  0  0
   30.7458    2.9442  -15.4344 O   0  0  0  0  0  0  0  0  0  0  0  0
   32.9900    4.1987  -15.9845 O   0  0  0  0  0  0  0  0  0  0  0  0
   32.8195    5.0040  -16.4976 H   0  0  0  0  0  0  0  0  0  0  0  0
   31.9182    4.4982  -13.5235 O   0  0  0  0  0  0  0  0  0  0  0  0
   30.6106    5.1662  -12.9248 P   0  0  0  0  0  0  0  0  0  0  0  0
   30.9567    6.4118  -12.1755 O   0  0  0  0  0  0  0  0  0  0  0  0
   29.6837    5.5175  -14.0735 O   0  0  0  0  0  0  0  0  0  0  0  0
   29.9076    4.1806  -12.0518 O   0  0  0  0  0  0  0  0  0  0  0  0
   28.8772    5.9280  -13.7243 H   0  0  0  0  0  0  0  0  0  0  0  0
   29.1072    4.5872  -11.6844 H   0  0  0  0  0  0  0  0  0  0  0  0
 29 30  2  0  0  0
 29 31  1  0  0  0
 29 32  1  0  0  0
 29 28  1  0  0  0
 24 25  2  0  0  0
 24 26  1  0  0  0
 24 28  1  0  0  0
 24 23  1  0  0  0
 23 22  1  0  0  0
 22  1  1  0  0  0
  1  2  1  0  0  0
  1  3  1  0  0  0
  2  7  1  0  0  0
  3  4  1  0  0  0
  3  5  1  0  0  0
  5  6  1  0  0  0
  5  7  1  0  0  0
  7 10  1  0  0  0
 10 11  1  0  0  0
 10 19  1  0  0  0
 11 12  2  0  0  0
 12 13  1  0  0  0
 13 14  1  0  0  0
 13 19  2  0  0  0
 14 15  1  0  0  0
 14 16  2  0  0  0
 16 17  1  0  0  0
 17 18  2  0  0  0
 18 19  1  0  0  0
 31 33  1  0  0  0
 32 34  1  0  0  0
 26 27  1  0  0  0
  4  8  1  0  0  0
  6  9  1  0  0  0
 15 20  1  0  0  0
 15 21  1  0  0  0
M  END
> <minimizedAffinity>
-10.58157

$$$$
3TIF_ADP_A_236


 34 36  0  0  0  0  0  0  0  0999 V2000
   34.3869    0.9948  -14.2477 C   0  0  0  0  0  0  0  0  0  0  0  0
   35.2372    0.3422  -15.1700 O   0  0  0  0  0  0  0  0  0  0  0  0
   35.2054    2.0294  -13.5259 C   0  0  0  0  0  0  0  0  0  0  0  0
   35.5444    1.6896  -12.2111 O   0  0  0  0  0  0  0  0  0  0  0  0
   36.3994    2.1794  -14.3072 C   0  0  0  0  0  0  0  0  0  0  0  0
   37.5240    2.5013  -13.5413 O   0  0  0  0  0  0  0  0  0  0  0  0
   36.5618    0.8802  -15.0277 C   0  0  0  0  0  0  0  0  0  0  0  0
   36.0734    0.8766  -12.2135 H   0  0  0  0  0  0  0  0  0  0  0  0
   37.6841    1.7996  -12.8910 H   0  0  0  0  0  0  0  0  0  0  0  0
   37.1905    0.9894  -16.3335 N   0  0  0  0  0  0  0  0  0  0  0  0
   38.3501    0.4086  -16.7011 C   0  0  0  0  0  0  0  0  0  0  0  0
   38.6223    0.7422  -17.9733 N   0  0  0  0  0  0  0  0  0  0  0  0
   37.6123    1.5426  -18.4093 C   0  0  0  0  0  0  0  0  0  0  0  0
   37.3641    2.1779  -19.6294 C   0  0  0  0  0  0  0  0  0  0  0  0
   38.2713    2.0391  -20.6992 N   0  0  0  0  0  0  0  0  0  0  0  0
   36.2592    2.9228  -19.7776 N   0  0  0  0  0  0  0  0  0  0  0  0
   35.3943    3.0616  -18.7539 C   0  0  0  0  0  0  0  0  0  0  0  0
   35.6022    2.4675  -17.5639 N   0  0  0  0  0  0  0  0  0  0  0  0
   36.7019    1.7033  -17.3754 C   0  0  0  0  0  0  0  0  0  0  0  0
   39.0822    1.4918  -20.5890 H   0  0  0  0  0  0  0  0  0  0  0  0
   38.0940    2.4894  -21.5565 H   0  0  0  0  0  0  0  0  0  0  0  0
   33.1153    1.5407  -14.8701 C   0  0  0  0  0  0  0  0  0  0  0  0
   32.4009    2.5284  -14.2028 O   0  0  0  0  0  0  0  0  0  0  0  0
   31.9146    3.8665  -14.8743 P   0  0  0  0  0  0  0  0  0  0  0  0
   30.7775    2.9798  -15.3541 O   0  0  0  0  0  0  0  0  0  0  0  0
   33.2108    3.8883  -15.7618 O   0  0  0  0  0  0  0  0  0  0  0  0
   33.1967    4.6702  -16.3357 H   0  0  0  0  0  0  0  0  0  0  0  0
   31.9818    4.5001  -13.4360 O   0  0  0  0  0  0  0  0  0  0  0  0
   30.6380    5.1513  -12.9024 P   0  0  0  0  0  0  0  0  0  0  0  0
   30.9283    6.4183  -12.1654 O   0  0  0  0  0  0  0  0  0  0  0  0
   29.7500    5.4603  -14.0933 O   0  0  0  0  0  0  0  0  0  0  0  0
   29.9217    4.1678  -12.0378 O   0  0  0  0  0  0  0  0  0  0  0  0
   28.9220    5.8600  -13.7841 H   0  0  0  0  0  0  0  0  0  0  0  0
   29.0992    4.5642  -11.7102 H   0  0  0  0  0  0  0  0  0  0  0  0
 29 30  2  0  0  0
 29 31  1  0  0  0
 29 32  1  0  0  0
 29 28  1  0  0  0
 24 25  2  0  0  0
 24 26  1  0  0  0
 24 28  1  0  0  0
 24 23  1  0  0  0
 23 22  1  0  0  0
 22  1  1  0  0  0
  1  2  1  0  0  0
  1  3  1  0  0  0
  2  7  1  0  0  0
  3  4  1  0  0  0
  3  5  1  0  0  0
  5  6  1  0  0  0
  5  7  1  0  0  0
  7 10  1  0  0  0
 10 11  1  0  0  0
 10 19  1  0  0  0
 11 12  2  0  0  0
 12 13  1  0  0  0
 13 14  1  0  0  0
 13 19  2  0  0  0
 14 15  1  0  0  0
 14 16  2  0  0  0
 16 17  1  0  0  0
 17 18  2  0  0  0
 18 19  1  0  0  0
 31 33  1  0  0  0
 32 34  1  0  0  0
 26 27  1  0  0  0
  4  8  1  0  0  0
  6  9  1  0  0  0
 15 20  1  0  0  0
 15 21  1  0  0  0
M  END
> <minimizedAffinity>
-10.47420

$$$$
3TIF_ADP_A_236


 34 36  0  0  0  0  0  0  0  0999 V2000
   35.1357    2.7397  -14.2446 C   0  0  0  0  0  0  0  0  0  0  0  0
   34.8971    2.0355  -13.0419 O   0  0  0  0  0  0  0  0  0  0  0  0
   36.4354    2.2420  -14.8143 C   0  0  0  0  0  0  0  0  0  0  0  0
   37.5112    3.1254  -14.6677 O   0  0  0  0  0  0  0  0  0  0  0  0
   36.7145    1.0232  -14.1108 C   0  0  0  0  0  0  0  0  0  0  0  0
   38.0818    0.7791  -13.9492 O   0  0  0  0  0  0  0  0  0  0  0  0
   36.0076    1.1564  -12.8009 C   0  0  0  0  0  0  0  0  0  0  0  0
   37.6709    3.2867  -13.7246 H   0  0  0  0  0  0  0  0  0  0  0  0
   38.4831    1.5065  -13.4483 H   0  0  0  0  0  0  0  0  0  0  0  0
   35.5292   -0.0978  -12.2436 N   0  0  0  0  0  0  0  0  0  0  0  0
   34.2902   -0.6064  -12.3961 C   0  0  0  0  0  0  0  0  0  0  0  0
   34.2105   -1.7708  -11.7315 N   0  0  0  0  0  0  0  0  0  0  0  0
   35.4232   -1.9955  -11.1571 C   0  0  0  0  0  0  0  0  0  0  0  0
   35.9188   -3.0321  -10.3610 C   0  0  0  0  0  0  0  0  0  0  0  0
   35.0902   -4.1179  -10.0131 N   0  0  0  0  0  0  0  0  0  0  0  0
   37.1867   -2.9881   -9.9271 N   0  0  0  0  0  0  0  0  0  0  0  0
   37.9779   -1.9477  -10.2535 C   0  0  0  0  0  0  0  0  0  0  0  0
   37.5341   -0.9303  -11.0152 N   0  0  0  0  0  0  0  0  0  0  0  0
   36.2631   -0.9395  -11.4775 C   0  0  0  0  0  0  0  0  0  0  0  0
   34.1594   -4.1489  -10.3323 H   0  0  0  0  0  0  0  0  0  0  0  0
   35.4423   -4.8453   -9.4508 H   0  0  0  0  0  0  0  0  0  0  0  0
   33.9763    2.6895  -15.2221 C   0  0  0  0  0  0  0  0  0  0  0  0
   32.6785    2.8329  -14.7463 O   0  0  0  0  0  0  0  0  0  0  0  0
   31.7365    4.0397  -15.1129 P   0  0  0  0  0  0  0  0  0  0  0  0
   30.8070    2.9217  -15.5551 O   0  0  0  0  0  0  0  0  0  0  0  0
   32.7893    4.5365  -16.1680 O   0  0  0  0  0  0  0  0  0  0  0  0
   32.4600    5.3405  -16.5994 H   0  0  0  0  0  0  0  0  0  0  0  0
   31.9022    4.4985  -13.6172 O   0  0  0  0  0  0  0  0  0  0  0  0
   30.6230    5.1547  -12.9481 P   0  0  0  0  0  0  0  0  0  0  0  0
   31.0011    6.3929  -12.2020 O   0  0  0  0  0  0  0  0  0  0  0  0
   29.6404    5.5157  -14.0464 O   0  0  0  0  0  0  0  0  0  0  0  0
   29.9664    4.1565  -12.0536 O   0  0  0  0  0  0  0  0  0  0  0  0
   28.8505    5.9191  -13.6537 H   0  0  0  0  0  0  0  0  0  0  0  0
   29.1835    4.5558  -11.6431 H   0  0  0  0  0  0  0  0  0  0  0  0
 29 30  2  0  0  0
 29 31  1  0  0  0
 29 32  1  0  0  0
 29 28  1  0  0  0
 24 25  2  0  0  0
 24 26  1  0  0  0
 24 28  1  0  0  0
 24 23  1  0  0  0
 23 22  1  0  0  0
 22  1  1  0  0  0
  1  2  1  0  0  0
  1  3  1  0  0  0
  2  7  1  0  0  0
  3  4  1  0  0  0
  3  5  1  0  0  0
  5  6  1  0  0  0
  5  7  1  0  0  0
  7 10  1  0  0  0
 10 11  1  0  0  0
 10 19  1  0  0  0
 11 12  2  0  0  0
 12 13  1  0  0  0
 13 14  1  0  0  0
 13 19  2  0  0  0
 14 15  1  0  0  0
 14 16  2  0  0  0
 16 17  1  0  0  0
 17 18  2  0  0  0
 18 19  1  0  0  0
 31 33  1  0  0  0
 32 34  1  0  0  0
 26 27  1  0  0  0
  4  8  1  0  0  0
  6  9  1  0  0  0
 15 20  1  0  0  0
 15 21  1  0  0  0
M  END
> <minimizedAffinity>
-9.88043

$$$$
3TIF_ADP_A_236


 34 36  0  0  0  0  0  0  0  0999 V2000
   34.3926    1.1824  -14.9996 C   0  0  0  0  0  0  0  0  0  0  0  0
   34.2025    1.3142  -16.3946 O   0  0  0  0  0  0  0  0  0  0  0  0
   35.8725    1.0956  -14.7473 C   0  0  0  0  0  0  0  0  0  0  0  0
   36.3341   -0.1865  -14.4277 O   0  0  0  0  0  0  0  0  0  0  0  0
   36.4902    1.5400  -15.9637 C   0  0  0  0  0  0  0  0  0  0  0  0
   37.7179    0.9211  -16.2181 O   0  0  0  0  0  0  0  0  0  0  0  0
   35.4870    1.2631  -17.0362 C   0  0  0  0  0  0  0  0  0  0  0  0
   36.1473   -0.7901  -15.1637 H   0  0  0  0  0  0  0  0  0  0  0  0
   37.5885   -0.0378  -16.2870 H   0  0  0  0  0  0  0  0  0  0  0  0
   35.5185    2.1992  -18.1475 N   0  0  0  0  0  0  0  0  0  0  0  0
   36.6215    2.5947  -18.8140 C   0  0  0  0  0  0  0  0  0  0  0  0
   36.2659    3.4722  -19.7665 N   0  0  0  0  0  0  0  0  0  0  0  0
   34.9157    3.6243  -19.6963 C   0  0  0  0  0  0  0  0  0  0  0  0
   34.0083    4.3963  -20.4274 C   0  0  0  0  0  0  0  0  0  0  0  0
   34.4631    5.2272  -21.4711 N   0  0  0  0  0  0  0  0  0  0  0  0
   32.7020    4.3449  -20.1300 N   0  0  0  0  0  0  0  0  0  0  0  0
   32.2665    3.5560  -19.1284 C   0  0  0  0  0  0  0  0  0  0  0  0
   33.1114    2.8015  -18.4009 N   0  0  0  0  0  0  0  0  0  0  0  0
   34.4361    2.8208  -18.6727 C   0  0  0  0  0  0  0  0  0  0  0  0
   35.4226    5.2641  -21.6884 H   0  0  0  0  0  0  0  0  0  0  0  0
   33.8213    5.7708  -21.9827 H   0  0  0  0  0  0  0  0  0  0  0  0
   33.6911    2.2523  -14.1839 C   0  0  0  0  0  0  0  0  0  0  0  0
   32.3489    2.5206  -14.4243 O   0  0  0  0  0  0  0  0  0  0  0  0
   31.8090    3.9050  -14.9439 P   0  0  0  0  0  0  0  0  0  0  0  0
   30.7037    3.0338  -15.5172 O   0  0  0  0  0  0  0  0  0  0  0  0
   33.0989    4.0735  -15.8249 O   0  0  0  0  0  0  0  0  0  0  0  0
   33.0523    4.9127  -16.3092 H   0  0  0  0  0  0  0  0  0  0  0  0
   31.8598    4.3786  -13.4446 O   0  0  0  0  0  0  0  0  0  0  0  0
   30.5512    5.0879  -12.8975 P   0  0  0  0  0  0  0  0  0  0  0  0
   29.8264    4.1877  -11.9503 O   0  0  0  0  0  0  0  0  0  0  0  0
   30.9622    6.3524  -12.1667 O   0  0  0  0  0  0  0  0  0  0  0  0
   29.6854    5.4822  -14.0476 O   0  0  0  0  0  0  0  0  0  0  0  0
   30.1722    6.7996  -11.8249 H   0  0  0  0  0  0  0  0  0  0  0  0
   28.8842    5.9164  -13.7152 H   0  0  0  0  0  0  0  0  0  0  0  0
 29 30  2  0  0  0
 29 31  1  0  0  0
 29 32  1  0  0  0
 29 28  1  0  0  0
 24 25  2  0  0  0
 24 26  1  0  0  0
 24 28  1  0  0  0
 24 23  1  0  0  0
 23 22  1  0  0  0
 22  1  1  0  0  0
  1  2  1  0  0  0
  1  3  1  0  0  0
  2  7  1  0  0  0
  3  4  1  0  0  0
  3  5  1  0  0  0
  5  6  1  0  0  0
  5  7  1  0  0  0
  7 10  1  0  0  0
 10 11  1  0  0  0
 10 19  1  0  0  0
 11 12  2  0  0  0
 12 13  1  0  0  0
 13 14  1  0  0  0
 13 19  2  0  0  0
 14 15  1  0  0  0
 14 16  2  0  0  0
 16 17  1  0  0  0
 17 18  2  0  0  0
 18 19  1  0  0  0
 31 33  1  0  0  0
 32 34  1  0  0  0
 26 27  1  0  0  0
  4  8  1  0  0  0
  6  9  1  0  0  0
 15 20  1  0  0  0
 15 21  1  0  0  0
M  END
> <minimizedAffinity>
-9.83349

$$$$
3TIF_ADP_A_236


 34 36  0  0  0  0  0  0  0  0999 V2000
   32.2309    2.9186  -14.9202 C   0  0  0  0  0  0  0  0  0  0  0  0
   31.9080    3.2732  -16.2504 O   0  0  0  0  0  0  0  0  0  0  0  0
   33.6683    2.4769  -14.9021 C   0  0  0  0  0  0  0  0  0  0  0  0
   33.8507    1.0940  -14.7870 O   0  0  0  0  0  0  0  0  0  0  0  0
   34.2197    2.9329  -16.1458 C   0  0  0  0  0  0  0  0  0  0  0  0
   35.2266    2.0996  -16.6424 O   0  0  0  0  0  0  0  0  0  0  0  0
   33.0561    3.0278  -17.0787 C   0  0  0  0  0  0  0  0  0  0  0  0
   33.4384    0.6494  -15.5442 H   0  0  0  0  0  0  0  0  0  0  0  0
   34.8677    1.2103  -16.7882 H   0  0  0  0  0  0  0  0  0  0  0  0
   33.1709    4.0737  -18.0814 N   0  0  0  0  0  0  0  0  0  0  0  0
   33.1755    5.3999  -17.8401 C   0  0  0  0  0  0  0  0  0  0  0  0
   33.2850    6.0563  -19.0067 N   0  0  0  0  0  0  0  0  0  0  0  0
   33.3543    5.1229  -19.9941 C   0  0  0  0  0  0  0  0  0  0  0  0
   33.4750    5.2182  -21.3834 C   0  0  0  0  0  0  0  0  0  0  0  0
   33.5458    6.4814  -22.0045 N   0  0  0  0  0  0  0  0  0  0  0  0
   33.5208    4.1015  -22.1241 N   0  0  0  0  0  0  0  0  0  0  0  0
   33.4468    2.8934  -21.5324 C   0  0  0  0  0  0  0  0  0  0  0  0
   33.3267    2.7632  -20.1979 N   0  0  0  0  0  0  0  0  0  0  0  0
   33.2824    3.8649  -19.4147 C   0  0  0  0  0  0  0  0  0  0  0  0
   33.5120    7.3006  -21.4594 H   0  0  0  0  0  0  0  0  0  0  0  0
   33.6291    6.5446  -22.9835 H   0  0  0  0  0  0  0  0  0  0  0  0
   31.9062    3.9979  -13.9044 C   0  0  0  0  0  0  0  0  0  0  0  0
   30.7614    4.7677  -14.0720 O   0  0  0  0  0  0  0  0  0  0  0  0
   30.0880    5.6031  -12.9201 P   0  0  0  0  0  0  0  0  0  0  0  0
   30.0950    4.2588  -12.2115 O   0  0  0  0  0  0  0  0  0  0  0  0
   28.8607    5.8976  -13.8558 O   0  0  0  0  0  0  0  0  0  0  0  0
   28.2154    6.4438  -13.3803 H   0  0  0  0  0  0  0  0  0  0  0  0
   31.3399    6.5518  -13.0072 O   0  0  0  0  0  0  0  0  0  0  0  0
   31.0703    8.0844  -12.7016 P   0  0  0  0  0  0  0  0  0  0  0  0
   29.6851    8.2760  -12.1751 O   0  0  0  0  0  0  0  0  0  0  0  0
   32.0685    8.5469  -11.6568 O   0  0  0  0  0  0  0  0  0  0  0  0
   31.2992    8.8831  -13.9416 O   0  0  0  0  0  0  0  0  0  0  0  0
   31.9174    9.4842  -11.4578 H   0  0  0  0  0  0  0  0  0  0  0  0
   31.1348    9.8210  -13.7570 H   0  0  0  0  0  0  0  0  0  0  0  0
 29 30  2  0  0  0
 29 31  1  0  0  0
 29 32  1  0  0  0
 29 28  1  0  0  0
 24 25  2  0  0  0
 24 26  1  0  0  0
 24 28  1  0  0  0
 24 23  1  0  0  0
 23 22  1  0  0  0
 22  1  1  0  0  0
  1  2  1  0  0  0
  1  3  1  0  0  0
  2  7  1  0  0  0
  3  4  1  0  0  0
  3  5  1  0  0  0
  5  6  1  0  0  0
  5  7  1  0  0  0
  7 10  1  0  0  0
 10 11  1  0  0  0
 10 19  1  0  0  0
 11 12  2  0  0  0
 12 13  1  0  0  0
 13 14  1  0  0  0
 13 19  2  0  0  0
 14 15  1  0  0  0
 14 16  2  0  0  0
 16 17  1  0  0  0
 17 18  2  0  0  0
 18 19  1  0  0  0
 31 33  1  0  0  0
 32 34  1  0  0  0
 26 27  1  0  0  0
  4  8  1  0  0  0
  6  9  1  0  0  0
 15 20  1  0  0  0
 15 21  1  0  0  0
M  END
> <minimizedAffinity>
-9.82311

$$$$
3TIF_ADP_A_236


 34 36  0  0  0  0  0  0  0  0999 V2000
   34.7505    2.3353  -16.3317 C   0  0  0  0  0  0  0  0  0  0  0  0
   33.9001    2.4828  -17.4519 O   0  0  0  0  0  0  0  0  0  0  0  0
   36.1103    2.8460  -16.7211 C   0  0  0  0  0  0  0  0  0  0  0  0
   37.0636    1.8469  -16.9492 O   0  0  0  0  0  0  0  0  0  0  0  0
   35.9017    3.5960  -17.9262 C   0  0  0  0  0  0  0  0  0  0  0  0
   36.9951    3.5581  -18.7969 O   0  0  0  0  0  0  0  0  0  0  0  0
   34.6710    3.0135  -18.5420 C   0  0  0  0  0  0  0  0  0  0  0  0
   36.7677    1.2776  -17.6767 H   0  0  0  0  0  0  0  0  0  0  0  0
   37.1753    2.6391  -19.0498 H   0  0  0  0  0  0  0  0  0  0  0  0
   33.8675    3.9612  -19.2961 N   0  0  0  0  0  0  0  0  0  0  0  0
   33.5228    3.8451  -20.5941 C   0  0  0  0  0  0  0  0  0  0  0  0
   32.7901    4.9132  -20.9493 N   0  0  0  0  0  0  0  0  0  0  0  0
   32.6715    5.7087  -19.8520 C   0  0  0  0  0  0  0  0  0  0  0  0
   32.0292    6.9302  -19.6303 C   0  0  0  0  0  0  0  0  0  0  0  0
   31.3329    7.5662  -20.6778 N   0  0  0  0  0  0  0  0  0  0  0  0
   32.0801    7.4964  -18.4160 N   0  0  0  0  0  0  0  0  0  0  0  0
   32.7507    6.8929  -17.4155 C   0  0  0  0  0  0  0  0  0  0  0  0
   33.3837    5.7182  -17.5930 N   0  0  0  0  0  0  0  0  0  0  0  0
   33.3518    5.1115  -18.8013 C   0  0  0  0  0  0  0  0  0  0  0  0
   31.2963    7.1493  -21.5689 H   0  0  0  0  0  0  0  0  0  0  0  0
   30.8831    8.4273  -20.5184 H   0  0  0  0  0  0  0  0  0  0  0  0
   34.2005    2.9566  -15.0614 C   0  0  0  0  0  0  0  0  0  0  0  0
   33.1749    3.8902  -15.1493 O   0  0  0  0  0  0  0  0  0  0  0  0
   31.6870    3.6037  -14.7226 P   0  0  0  0  0  0  0  0  0  0  0  0
   32.3404    2.4889  -13.9228 O   0  0  0  0  0  0  0  0  0  0  0  0
   31.3250    3.2774  -16.2162 O   0  0  0  0  0  0  0  0  0  0  0  0
   30.3856    3.0434  -16.2775 H   0  0  0  0  0  0  0  0  0  0  0  0
   31.6349    5.1034  -14.2504 O   0  0  0  0  0  0  0  0  0  0  0  0
   30.5525    5.4437  -13.1426 P   0  0  0  0  0  0  0  0  0  0  0  0
   31.0435    6.5381  -12.2515 O   0  0  0  0  0  0  0  0  0  0  0  0
   29.2832    5.8994  -13.8377 O   0  0  0  0  0  0  0  0  0  0  0  0
   30.2341    4.2088  -12.3672 O   0  0  0  0  0  0  0  0  0  0  0  0
   28.6092    6.1120  -13.1733 H   0  0  0  0  0  0  0  0  0  0  0  0
   29.5720    4.4146  -11.6888 H   0  0  0  0  0  0  0  0  0  0  0  0
 29 30  2  0  0  0
 29 31  1  0  0  0
 29 32  1  0  0  0
 29 28  1  0  0  0
 24 25  2  0  0  0
 24 26  1  0  0  0
 24 28  1  0  0  0
 24 23  1  0  0  0
 23 22  1  0  0  0
 22  1  1  0  0  0
  1  2  1  0  0  0
  1  3  1  0  0  0
  2  7  1  0  0  0
  3  4  1  0  0  0
  3  5  1  0  0  0
  5  6  1  0  0  0
  5  7  1  0  0  0
  7 10  1  0  0  0
 10 11  1  0  0  0
 10 19  1  0  0  0
 11 12  2  0  0  0
 12 13  1  0  0  0
 13 14  1  0  0  0
 13 19  2  0  0  0
 14 15  1  0  0  0
 14 16  2  0  0  0
 16 17  1  0  0  0
 17 18  2  0  0  0
 18 19  1  0  0  0
 31 33  1  0  0  0
 32 34  1  0  0  0
 26 27  1  0  0  0
  4  8  1  0  0  0
  6  9  1  0  0  0
 15 20  1  0  0  0
 15 21  1  0  0  0
M  END
> <minimizedAffinity>
-9.78208

$$$$
3TIF_ADP_A_236


 34 36  0  0  0  0  0  0  0  0999 V2000
   34.6077    1.7442  -15.7499 C   0  0  0  0  0  0  0  0  0  0  0  0
   33.9237    1.7175  -16.9872 O   0  0  0  0  0  0  0  0  0  0  0  0
   36.0503    2.0607  -16.0330 C   0  0  0  0  0  0  0  0  0  0  0  0
   36.9184    0.9684  -15.9216 O   0  0  0  0  0  0  0  0  0  0  0  0
   36.0714    2.5567  -17.3792 C   0  0  0  0  0  0  0  0  0  0  0  0
   37.2556    2.2576  -18.0597 O   0  0  0  0  0  0  0  0  0  0  0  0
   34.8747    1.9511  -18.0384 C   0  0  0  0  0  0  0  0  0  0  0  0
   36.6596    0.2836  -16.5580 H   0  0  0  0  0  0  0  0  0  0  0  0
   37.3720    1.2954  -18.0987 H   0  0  0  0  0  0  0  0  0  0  0  0
   34.2723    2.7777  -19.0710 N   0  0  0  0  0  0  0  0  0  0  0  0
   33.0874    3.4141  -18.9798 C   0  0  0  0  0  0  0  0  0  0  0  0
   32.8529    4.0686  -20.1289 N   0  0  0  0  0  0  0  0  0  0  0  0
   33.9126    3.8402  -20.9511 C   0  0  0  0  0  0  0  0  0  0  0  0
   34.2139    4.2600  -22.2498 C   0  0  0  0  0  0  0  0  0  0  0  0
   33.3161    5.0870  -22.9545 N   0  0  0  0  0  0  0  0  0  0  0  0
   35.3609    3.8703  -22.8244 N   0  0  0  0  0  0  0  0  0  0  0  0
   36.2172    3.0746  -22.1545 C   0  0  0  0  0  0  0  0  0  0  0  0
   35.9589    2.6481  -20.9040 N   0  0  0  0  0  0  0  0  0  0  0  0
   34.8153    3.0232  -20.2870 C   0  0  0  0  0  0  0  0  0  0  0  0
   32.4741    5.3724  -22.5314 H   0  0  0  0  0  0  0  0  0  0  0  0
   33.5309    5.3793  -23.8697 H   0  0  0  0  0  0  0  0  0  0  0  0
   33.9689    2.6553  -14.7184 C   0  0  0  0  0  0  0  0  0  0  0  0
   32.5834    2.7158  -14.6289 O   0  0  0  0  0  0  0  0  0  0  0  0
   31.7319    3.9798  -15.0230 P   0  0  0  0  0  0  0  0  0  0  0  0
   30.7733    2.9238  -15.5480 O   0  0  0  0  0  0  0  0  0  0  0  0
   32.8732    4.4400  -15.9996 O   0  0  0  0  0  0  0  0  0  0  0  0
   32.6149    5.2696  -16.4308 H   0  0  0  0  0  0  0  0  0  0  0  0
   31.8284    4.3976  -13.5094 O   0  0  0  0  0  0  0  0  0  0  0  0
   30.5435    5.1005  -12.9015 P   0  0  0  0  0  0  0  0  0  0  0  0
   29.8599    4.1912  -11.9327 O   0  0  0  0  0  0  0  0  0  0  0  0
   30.9839    6.3591  -12.1775 O   0  0  0  0  0  0  0  0  0  0  0  0
   29.6298    5.5040  -14.0106 O   0  0  0  0  0  0  0  0  0  0  0  0
   30.2086    6.8023  -11.7989 H   0  0  0  0  0  0  0  0  0  0  0  0
   28.8430    5.9343  -13.6410 H   0  0  0  0  0  0  0  0  0  0  0  0
 29 30  2  0  0  0
 29 31  1  0  0  0
 29 32  1  0  0  0
 29 28  1  0  0  0
 24 25  2  0  0  0
 24 26  1  0  0  0
 24 28  1  0  0  0
 24 23  1  0  0  0
 23 22  1  0  0  0
 22  1  1  0  0  0
  1  2  1  0  0  0
  1  3  1  0  0  0
  2  7  1  0  0  0
  3  4  1  0  0  0
  3  5  1  0  0  0
  5  6  1  0  0  0
  5  7  1  0  0  0
  7 10  1  0  0  0
 10 11  1  0  0  0
 10 19  1  0  0  0
 11 12  2  0  0  0
 12 13  1  0  0  0
 13 14  1  0  0  0
 13 19  2  0  0  0
 14 15  1  0  0  0
 14 16  2  0  0  0
 16 17  1  0  0  0
 17 18  2  0  0  0
 18 19  1  0  0  0
 31 33  1  0  0  0
 32 34  1  0  0  0
 26 27  1  0  0  0
  4  8  1  0  0  0
  6  9  1  0  0  0
 15 20  1  0  0  0
 15 21  1  0  0  0
M  END
> <minimizedAffinity>
-9.55829

$$$$
3TIF_ADP_A_236


 34 36  0  0  0  0  0  0  0  0999 V2000
   34.1364    3.3559  -17.5400 C   0  0  0  0  0  0  0  0  0  0  0  0
   33.1410    3.9991  -18.3114 O   0  0  0  0  0  0  0  0  0  0  0  0
   35.4629    3.9572  -17.9144 C   0  0  0  0  0  0  0  0  0  0  0  0
   36.2653    3.1408  -18.7198 O   0  0  0  0  0  0  0  0  0  0  0  0
   35.1448    5.1653  -18.6200 C   0  0  0  0  0  0  0  0  0  0  0  0
   36.0802    5.4915  -19.6068 O   0  0  0  0  0  0  0  0  0  0  0  0
   33.7816    4.9391  -19.1890 C   0  0  0  0  0  0  0  0  0  0  0  0
   35.8047    2.9561  -19.5533 H   0  0  0  0  0  0  0  0  0  0  0  0
   36.1268    4.7741  -20.2579 H   0  0  0  0  0  0  0  0  0  0  0  0
   32.9686    6.1386  -19.3017 N   0  0  0  0  0  0  0  0  0  0  0  0
   32.6156    6.9500  -18.2847 C   0  0  0  0  0  0  0  0  0  0  0  0
   31.8548    7.9473  -18.7648 N   0  0  0  0  0  0  0  0  0  0  0  0
   31.7340    7.7575  -20.1066 C   0  0  0  0  0  0  0  0  0  0  0  0
   31.0700    8.4692  -21.1098 C   0  0  0  0  0  0  0  0  0  0  0  0
   30.3425    9.6336  -20.7909 N   0  0  0  0  0  0  0  0  0  0  0  0
   31.1261    8.0381  -22.3781 N   0  0  0  0  0  0  0  0  0  0  0  0
   31.8158    6.9217  -22.6835 C   0  0  0  0  0  0  0  0  0  0  0  0
   32.4645    6.2091  -21.7435 N   0  0  0  0  0  0  0  0  0  0  0  0
   32.4371    6.6134  -20.4532 C   0  0  0  0  0  0  0  0  0  0  0  0
   30.3022    9.9491  -19.8592 H   0  0  0  0  0  0  0  0  0  0  0  0
   29.8747   10.1313  -21.4999 H   0  0  0  0  0  0  0  0  0  0  0  0
   33.8552    3.3662  -16.0490 C   0  0  0  0  0  0  0  0  0  0  0  0
   32.8344    4.1692  -15.5546 O   0  0  0  0  0  0  0  0  0  0  0  0
   31.7207    3.6637  -14.5635 P   0  0  0  0  0  0  0  0  0  0  0  0
   32.9007    2.9663  -13.9073 O   0  0  0  0  0  0  0  0  0  0  0  0
   31.0212    2.8995  -15.7447 O   0  0  0  0  0  0  0  0  0  0  0  0
   30.2294    2.4476  -15.4134 H   0  0  0  0  0  0  0  0  0  0  0  0
   31.3669    5.1802  -14.3398 O   0  0  0  0  0  0  0  0  0  0  0  0
   30.4078    5.4946  -13.1167 P   0  0  0  0  0  0  0  0  0  0  0  0
   30.1403    4.2526  -12.3301 O   0  0  0  0  0  0  0  0  0  0  0  0
   31.0905    6.5128  -12.2226 O   0  0  0  0  0  0  0  0  0  0  0  0
   29.1430    6.1032  -13.6243 O   0  0  0  0  0  0  0  0  0  0  0  0
   30.5163    6.7169  -11.4679 H   0  0  0  0  0  0  0  0  0  0  0  0
   28.5548    6.2964  -12.8777 H   0  0  0  0  0  0  0  0  0  0  0  0
 29 30  2  0  0  0
 29 31  1  0  0  0
 29 32  1  0  0  0
 29 28  1  0  0  0
 24 25  2  0  0  0
 24 26  1  0  0  0
 24 28  1  0  0  0
 24 23  1  0  0  0
 23 22  1  0  0  0
 22  1  1  0  0  0
  1  2  1  0  0  0
  1  3  1  0  0  0
  2  7  1  0  0  0
  3  4  1  0  0  0
  3  5  1  0  0  0
  5  6  1  0  0  0
  5  7  1  0  0  0
  7 10  1  0  0  0
 10 11  1  0  0  0
 10 19  1  0  0  0
 11 12  2  0  0  0
 12 13  1  0  0  0
 13 14  1  0  0  0
 13 19  2  0  0  0
 14 15  1  0  0  0
 14 16  2  0  0  0
 16 17  1  0  0  0
 17 18  2  0  0  0
 18 19  1  0  0  0
 31 33  1  0  0  0
 32 34  1  0  0  0
 26 27  1  0  0  0
  4  8  1  0  0  0
  6  9  1  0  0  0
 15 20  1  0  0  0
 15 21  1  0  0  0
M  END
> <minimizedAffinity>
-9.30899

$$$$
