2I4Z_DRH_A_999


 34 36  0  0  0  0  0  0  0  0999 V2000
   17.6349   16.4767   15.7602 C   0  0  0  0  0  0  0  0  0  0  0  0
   17.0473   16.3473   14.3519 C   0  0  0  0  0  0  0  0  0  0  0  0
   12.8118   15.4527   14.3428 C   0  0  0  0  0  0  0  0  0  0  0  0
   13.5198   15.4576   13.1429 C   0  0  0  0  0  0  0  0  0  0  0  0
   14.8787   15.7657   13.1284 C   0  0  0  0  0  0  0  0  0  0  0  0
   13.4740   15.7710   15.5249 C   0  0  0  0  0  0  0  0  0  0  0  0
   14.8314   16.0788   15.5119 C   0  0  0  0  0  0  0  0  0  0  0  0
   15.5396   16.0747   14.3145 C   0  0  0  0  0  0  0  0  0  0  0  0
   11.4984   15.0889   14.4263 O   0  0  0  0  0  0  0  0  0  0  0  0
   11.0431   13.7319   14.5009 C   0  0  0  0  0  0  0  0  0  0  0  0
   12.2305   12.8769   14.9521 C   0  0  0  0  0  0  0  0  0  0  0  0
   10.5938   13.2274   13.1260 C   0  0  0  0  0  0  0  0  0  0  0  0
   11.1569   12.2031   12.6820 O   0  0  0  0  0  0  0  0  0  0  0  0
    9.7029   13.8766   12.5366 O   0  0  0  0  0  0  0  0  0  0  0  0
   11.8176   11.7744   13.1896 H   0  0  0  0  0  0  0  0  0  0  0  0
   10.3337   12.8538   16.7682 C   0  0  0  0  0  0  0  0  0  0  0  0
    9.9016   13.6187   15.5158 C   0  0  0  0  0  0  0  0  0  0  0  0
   18.9313   17.1733   15.8297 N   0  0  0  0  0  0  0  0  0  0  0  0
   19.3357   17.8597   16.8981 C   0  0  0  0  0  0  0  0  0  0  0  0
   19.8226   19.1367   16.8970 O   0  0  0  0  0  0  0  0  0  0  0  0
   20.0081   19.4706   18.2076 C   0  0  0  0  0  0  0  0  0  0  0  0
   20.4520   20.6326   18.8307 C   0  0  0  0  0  0  0  0  0  0  0  0
   20.5189   20.6931   20.2200 C   0  0  0  0  0  0  0  0  0  0  0  0
   20.1441   19.5912   20.9827 C   0  0  0  0  0  0  0  0  0  0  0  0
   19.7001   18.4282   20.3610 C   0  0  0  0  0  0  0  0  0  0  0  0
   19.6305   18.3715   18.9726 C   0  0  0  0  0  0  0  0  0  0  0  0
   19.2295   17.4116   18.1451 N   0  0  0  0  0  0  0  0  0  0  0  0
   19.9338   16.9429   14.7760 C   0  0  0  0  0  0  0  0  0  0  0  0
   21.2833   16.5089   15.3508 C   0  0  0  0  0  0  0  0  0  0  0  0
   22.3415   17.6035   15.2036 C   0  0  0  0  0  0  0  0  0  0  0  0
   22.7170   17.7417   13.7273 C   0  0  0  0  0  0  0  0  0  0  0  0
   23.0438   19.1864   13.3445 C   0  0  0  0  0  0  0  0  0  0  0  0
   24.4895   19.3065   12.8568 C   0  0  0  0  0  0  0  0  0  0  0  0
   24.6408   20.3851   11.7810 C   0  0  0  0  0  0  0  0  0  0  0  0
 16 17  1  0  0  0
 17 10  1  0  0  0
 10  9  1  0  0  0
 10 11  1  0  0  0
 10 12  1  0  0  0
 12 14  2  0  0  0
 12 13  1  0  0  0
  9  3  1  0  0  0
  3  6  2  0  0  0
  3  4  1  0  0  0
  4  5  2  0  0  0
  5  8  1  0  0  0
  6  7  1  0  0  0
  7  8  2  0  0  0
  8  2  1  0  0  0
  2  1  1  0  0  0
  1 18  1  0  0  0
 18 19  1  0  0  0
 18 28  1  0  0  0
 28 29  1  0  0  0
 29 30  1  0  0  0
 30 31  1  0  0  0
 31 32  1  0  0  0
 32 33  1  0  0  0
 33 34  1  0  0  0
 19 27  2  0  0  0
 19 20  1  0  0  0
 20 21  1  0  0  0
 21 22  2  0  0  0
 21 26  1  0  0  0
 22 23  1  0  0  0
 23 24  2  0  0  0
 24 25  1  0  0  0
 25 26  2  0  0  0
 26 27  1  0  0  0
 13 15  1  0  0  0
M  END
> <minimizedAffinity>
-10.13649

$$$$
2I4Z_DRH_A_999


 34 36  0  0  0  0  0  0  0  0999 V2000
   18.5192   15.3371   16.4939 C   0  0  0  0  0  0  0  0  0  0  0  0
   18.2404   14.5956   15.1832 C   0  0  0  0  0  0  0  0  0  0  0  0
   15.2474   16.5650   12.7533 C   0  0  0  0  0  0  0  0  0  0  0  0
   14.8585   15.6085   13.6887 C   0  0  0  0  0  0  0  0  0  0  0  0
   15.8131   14.9506   14.4618 C   0  0  0  0  0  0  0  0  0  0  0  0
   16.6006   16.8471   12.5911 C   0  0  0  0  0  0  0  0  0  0  0  0
   17.5553   16.1909   13.3628 C   0  0  0  0  0  0  0  0  0  0  0  0
   17.1653   15.2424   14.3029 C   0  0  0  0  0  0  0  0  0  0  0  0
   14.3528   17.2912   12.0208 O   0  0  0  0  0  0  0  0  0  0  0  0
   14.0787   17.0649   10.6323 C   0  0  0  0  0  0  0  0  0  0  0  0
   14.4940   18.3286    9.8740 C   0  0  0  0  0  0  0  0  0  0  0  0
   12.5810   16.8444   10.3974 C   0  0  0  0  0  0  0  0  0  0  0  0
   12.1166   17.2088    9.2952 O   0  0  0  0  0  0  0  0  0  0  0  0
   11.9225   16.3247   11.3241 O   0  0  0  0  0  0  0  0  0  0  0  0
   12.6809   17.5912    8.6523 H   0  0  0  0  0  0  0  0  0  0  0  0
   16.1423   16.3044    9.3763 C   0  0  0  0  0  0  0  0  0  0  0  0
   14.8855   15.8642   10.1293 C   0  0  0  0  0  0  0  0  0  0  0  0
   19.3182   16.5668   16.3528 N   0  0  0  0  0  0  0  0  0  0  0  0
   19.4664   17.4584   17.3323 C   0  0  0  0  0  0  0  0  0  0  0  0
   19.2881   17.2244   18.6670 O   0  0  0  0  0  0  0  0  0  0  0  0
   19.6475   18.3776   19.3031 C   0  0  0  0  0  0  0  0  0  0  0  0
   19.7031   18.7352   20.6465 C   0  0  0  0  0  0  0  0  0  0  0  0
   20.1411   20.0060   21.0089 C   0  0  0  0  0  0  0  0  0  0  0  0
   20.5204   20.9167   20.0275 C   0  0  0  0  0  0  0  0  0  0  0  0
   20.4652   20.5607   18.6835 C   0  0  0  0  0  0  0  0  0  0  0  0
   20.0307   19.2888   18.3240 C   0  0  0  0  0  0  0  0  0  0  0  0
   19.9065   18.6978   17.1398 N   0  0  0  0  0  0  0  0  0  0  0  0
   20.1745   16.7413   15.1675 C   0  0  0  0  0  0  0  0  0  0  0  0
   21.6104   16.2794   15.4220 C   0  0  0  0  0  0  0  0  0  0  0  0
   22.6125   17.4229   15.2555 C   0  0  0  0  0  0  0  0  0  0  0  0
   22.3310   18.1476   13.9383 C   0  0  0  0  0  0  0  0  0  0  0  0
   23.4339   19.1447   13.5773 C   0  0  0  0  0  0  0  0  0  0  0  0
   23.6547   19.1875   12.0636 C   0  0  0  0  0  0  0  0  0  0  0  0
   25.0902   19.5827   11.7076 C   0  0  0  0  0  0  0  0  0  0  0  0
 16 17  1  0  0  0
 17 10  1  0  0  0
 10  9  1  0  0  0
 10 11  1  0  0  0
 10 12  1  0  0  0
 12 14  2  0  0  0
 12 13  1  0  0  0
  9  3  1  0  0  0
  3  6  2  0  0  0
  3  4  1  0  0  0
  4  5  2  0  0  0
  5  8  1  0  0  0
  6  7  1  0  0  0
  7  8  2  0  0  0
  8  2  1  0  0  0
  2  1  1  0  0  0
  1 18  1  0  0  0
 18 19  1  0  0  0
 18 28  1  0  0  0
 28 29  1  0  0  0
 29 30  1  0  0  0
 30 31  1  0  0  0
 31 32  1  0  0  0
 32 33  1  0  0  0
 33 34  1  0  0  0
 19 27  2  0  0  0
 19 20  1  0  0  0
 20 21  1  0  0  0
 21 22  2  0  0  0
 21 26  1  0  0  0
 22 23  1  0  0  0
 23 24  2  0  0  0
 24 25  1  0  0  0
 25 26  2  0  0  0
 26 27  1  0  0  0
 13 15  1  0  0  0
M  END
> <minimizedAffinity>
-9.05507

$$$$
2I4Z_DRH_A_999


 34 36  0  0  0  0  0  0  0  0999 V2000
   15.9944   18.2415   10.4976 C   0  0  0  0  0  0  0  0  0  0  0  0
   16.3848   16.7926   10.8040 C   0  0  0  0  0  0  0  0  0  0  0  0
   17.3962   16.1707   14.9669 C   0  0  0  0  0  0  0  0  0  0  0  0
   17.8851   15.2962   13.9987 C   0  0  0  0  0  0  0  0  0  0  0  0
   17.5494   15.4714   12.6577 C   0  0  0  0  0  0  0  0  0  0  0  0
   16.5590   17.2135   14.5814 C   0  0  0  0  0  0  0  0  0  0  0  0
   16.2229   17.3898   13.2423 C   0  0  0  0  0  0  0  0  0  0  0  0
   16.7188   16.5215   12.2750 C   0  0  0  0  0  0  0  0  0  0  0  0
   17.7494   16.0904   16.2834 O   0  0  0  0  0  0  0  0  0  0  0  0
   19.0668   16.3586   16.7803 C   0  0  0  0  0  0  0  0  0  0  0  0
   19.9518   15.1720   16.3889 C   0  0  0  0  0  0  0  0  0  0  0  0
   19.0662   16.4631   18.3086 C   0  0  0  0  0  0  0  0  0  0  0  0
   19.1212   15.3934   18.9537 O   0  0  0  0  0  0  0  0  0  0  0  0
   19.0017   17.6071   18.8083 O   0  0  0  0  0  0  0  0  0  0  0  0
   19.1679   14.5747   18.5003 H   0  0  0  0  0  0  0  0  0  0  0  0
   21.0551   17.4765   15.6793 C   0  0  0  0  0  0  0  0  0  0  0  0
   19.6101   17.6456   16.1525 C   0  0  0  0  0  0  0  0  0  0  0  0
   14.5663   18.4496   10.2014 N   0  0  0  0  0  0  0  0  0  0  0  0
   13.9956   19.6534   10.1638 C   0  0  0  0  0  0  0  0  0  0  0  0
   12.7245   19.9284    9.7435 O   0  0  0  0  0  0  0  0  0  0  0  0
   12.5303   21.2595    9.9759 C   0  0  0  0  0  0  0  0  0  0  0  0
   11.4395   22.1010    9.7819 C   0  0  0  0  0  0  0  0  0  0  0  0
   11.5257   23.4432   10.1416 C   0  0  0  0  0  0  0  0  0  0  0  0
   12.7028   23.9411   10.6922 C   0  0  0  0  0  0  0  0  0  0  0  0
   13.7946   23.1008   10.8867 C   0  0  0  0  0  0  0  0  0  0  0  0
   13.7047   21.7590   10.5299 C   0  0  0  0  0  0  0  0  0  0  0  0
   14.5729   20.7572   10.6279 N   0  0  0  0  0  0  0  0  0  0  0  0
   13.7568   17.3208    9.7124 C   0  0  0  0  0  0  0  0  0  0  0  0
   12.7408   16.8477   10.7536 C   0  0  0  0  0  0  0  0  0  0  0  0
   13.1764   15.5411   11.4189 C   0  0  0  0  0  0  0  0  0  0  0  0
   13.0632   15.6901   12.9369 C   0  0  0  0  0  0  0  0  0  0  0  0
   12.8495   14.3468   13.6375 C   0  0  0  0  0  0  0  0  0  0  0  0
   12.7654   14.5315   15.1544 C   0  0  0  0  0  0  0  0  0  0  0  0
   13.3661   15.8671   15.6005 C   0  0  0  0  0  0  0  0  0  0  0  0
 16 17  1  0  0  0
 17 10  1  0  0  0
 10  9  1  0  0  0
 10 11  1  0  0  0
 10 12  1  0  0  0
 12 14  2  0  0  0
 12 13  1  0  0  0
  9  3  1  0  0  0
  3  6  2  0  0  0
  3  4  1  0  0  0
  4  5  2  0  0  0
  5  8  1  0  0  0
  6  7  1  0  0  0
  7  8  2  0  0  0
  8  2  1  0  0  0
  2  1  1  0  0  0
  1 18  1  0  0  0
 18 19  1  0  0  0
 18 28  1  0  0  0
 28 29  1  0  0  0
 29 30  1  0  0  0
 30 31  1  0  0  0
 31 32  1  0  0  0
 32 33  1  0  0  0
 33 34  1  0  0  0
 19 27  2  0  0  0
 19 20  1  0  0  0
 20 21  1  0  0  0
 21 22  2  0  0  0
 21 26  1  0  0  0
 22 23  1  0  0  0
 23 24  2  0  0  0
 24 25  1  0  0  0
 25 26  2  0  0  0
 26 27  1  0  0  0
 13 15  1  0  0  0
M  END
> <minimizedAffinity>
-8.76722

$$$$
2I4Z_DRH_A_999


 34 36  0  0  0  0  0  0  0  0999 V2000
   17.6143   16.3237   15.1445 C   0  0  0  0  0  0  0  0  0  0  0  0
   17.5444   15.6730   13.7599 C   0  0  0  0  0  0  0  0  0  0  0  0
   16.1368   18.2826   10.6057 C   0  0  0  0  0  0  0  0  0  0  0  0
   17.1033   17.3190   10.3258 C   0  0  0  0  0  0  0  0  0  0  0  0
   17.5817   16.4872   11.3363 C   0  0  0  0  0  0  0  0  0  0  0  0
   15.6635   18.4133   11.9080 C   0  0  0  0  0  0  0  0  0  0  0  0
   16.1404   17.5831   12.9183 C   0  0  0  0  0  0  0  0  0  0  0  0
   17.0989   16.6151   12.6361 C   0  0  0  0  0  0  0  0  0  0  0  0
   15.5803   19.0748    9.6429 O   0  0  0  0  0  0  0  0  0  0  0  0
   15.7769   20.4918    9.5550 C   0  0  0  0  0  0  0  0  0  0  0  0
   14.9551   20.9929    8.3642 C   0  0  0  0  0  0  0  0  0  0  0  0
   17.2477   20.8263    9.2874 C   0  0  0  0  0  0  0  0  0  0  0  0
   17.7825   21.6806   10.0275 O   0  0  0  0  0  0  0  0  0  0  0  0
   17.8117   20.2316    8.3436 O   0  0  0  0  0  0  0  0  0  0  0  0
   17.2873   22.0805   10.7152 H   0  0  0  0  0  0  0  0  0  0  0  0
   14.2565   22.2520   10.5575 C   0  0  0  0  0  0  0  0  0  0  0  0
   15.2965   21.1670   10.8430 C   0  0  0  0  0  0  0  0  0  0  0  0
   18.9009   16.9669   15.4632 N   0  0  0  0  0  0  0  0  0  0  0  0
   19.1348   17.6048   16.6098 C   0  0  0  0  0  0  0  0  0  0  0  0
   18.9660   17.0912   17.8651 O   0  0  0  0  0  0  0  0  0  0  0  0
   19.4232   18.0457   18.7274 C   0  0  0  0  0  0  0  0  0  0  0  0
   19.5320   18.0894   20.1137 C   0  0  0  0  0  0  0  0  0  0  0  0
   20.0711   19.2140   20.7325 C   0  0  0  0  0  0  0  0  0  0  0  0
   20.4980   20.2928   19.9641 C   0  0  0  0  0  0  0  0  0  0  0  0
   20.3897   20.2507   18.5775 C   0  0  0  0  0  0  0  0  0  0  0  0
   19.8541   19.1241   17.9613 C   0  0  0  0  0  0  0  0  0  0  0  0
   19.6626   18.8227   16.6808 N   0  0  0  0  0  0  0  0  0  0  0  0
   20.0641   16.7292   14.5920 C   0  0  0  0  0  0  0  0  0  0  0  0
   21.2896   16.2664   15.3820 C   0  0  0  0  0  0  0  0  0  0  0  0
   22.4546   17.2485   15.2490 C   0  0  0  0  0  0  0  0  0  0  0  0
   22.4978   17.7832   13.8167 C   0  0  0  0  0  0  0  0  0  0  0  0
   23.2787   19.0946   13.7101 C   0  0  0  0  0  0  0  0  0  0  0  0
   23.6078   19.4149   12.2503 C   0  0  0  0  0  0  0  0  0  0  0  0
   25.0755   19.8113   12.0703 C   0  0  0  0  0  0  0  0  0  0  0  0
 16 17  1  0  0  0
 17 10  1  0  0  0
 10  9  1  0  0  0
 10 11  1  0  0  0
 10 12  1  0  0  0
 12 14  2  0  0  0
 12 13  1  0  0  0
  9  3  1  0  0  0
  3  6  2  0  0  0
  3  4  1  0  0  0
  4  5  2  0  0  0
  5  8  1  0  0  0
  6  7  1  0  0  0
  7  8  2  0  0  0
  8  2  1  0  0  0
  2  1  1  0  0  0
  1 18  1  0  0  0
 18 19  1  0  0  0
 18 28  1  0  0  0
 28 29  1  0  0  0
 29 30  1  0  0  0
 30 31  1  0  0  0
 31 32  1  0  0  0
 32 33  1  0  0  0
 33 34  1  0  0  0
 19 27  2  0  0  0
 19 20  1  0  0  0
 20 21  1  0  0  0
 21 22  2  0  0  0
 21 26  1  0  0  0
 22 23  1  0  0  0
 23 24  2  0  0  0
 24 25  1  0  0  0
 25 26  2  0  0  0
 26 27  1  0  0  0
 13 15  1  0  0  0
M  END
> <minimizedAffinity>
-8.69855

$$$$
2I4Z_DRH_A_999


 34 36  0  0  0  0  0  0  0  0999 V2000
   14.7641   16.0805   12.0884 C   0  0  0  0  0  0  0  0  0  0  0  0
   15.8039   17.0675   11.5498 C   0  0  0  0  0  0  0  0  0  0  0  0
   14.1384   20.5865    9.6571 C   0  0  0  0  0  0  0  0  0  0  0  0
   15.3468   20.6778   10.3445 C   0  0  0  0  0  0  0  0  0  0  0  0
   15.8833   19.5583   10.9773 C   0  0  0  0  0  0  0  0  0  0  0  0
   13.4672   19.3679    9.6200 C   0  0  0  0  0  0  0  0  0  0  0  0
   14.0019   18.2487   10.2516 C   0  0  0  0  0  0  0  0  0  0  0  0
   15.2131   18.3386   10.9301 C   0  0  0  0  0  0  0  0  0  0  0  0
   13.6027   21.6306    8.9591 O   0  0  0  0  0  0  0  0  0  0  0  0
   12.9814   22.7701    9.5674 C   0  0  0  0  0  0  0  0  0  0  0  0
   12.2570   23.5398    8.4596 C   0  0  0  0  0  0  0  0  0  0  0  0
   14.0290   23.7031   10.1829 C   0  0  0  0  0  0  0  0  0  0  0  0
   13.9817   23.8769   11.4203 O   0  0  0  0  0  0  0  0  0  0  0  0
   14.8537   24.2346    9.4084 O   0  0  0  0  0  0  0  0  0  0  0  0
   13.3291   23.4387   11.9303 H   0  0  0  0  0  0  0  0  0  0  0  0
   10.6396   21.9100   10.0048 C   0  0  0  0  0  0  0  0  0  0  0  0
   11.9769   22.3128   10.6293 C   0  0  0  0  0  0  0  0  0  0  0  0
   14.8804   15.7801   13.5260 N   0  0  0  0  0  0  0  0  0  0  0  0
   16.0407   15.7826   14.1816 C   0  0  0  0  0  0  0  0  0  0  0  0
   16.9413   14.7555   14.2270 O   0  0  0  0  0  0  0  0  0  0  0  0
   18.0202   15.2303   14.9156 C   0  0  0  0  0  0  0  0  0  0  0  0
   19.2444   14.6642   15.2568 C   0  0  0  0  0  0  0  0  0  0  0  0
   20.1831   15.4130   15.9614 C   0  0  0  0  0  0  0  0  0  0  0  0
   19.8947   16.7249   16.3250 C   0  0  0  0  0  0  0  0  0  0  0  0
   18.6707   17.2924   15.9847 C   0  0  0  0  0  0  0  0  0  0  0  0
   17.7358   16.5433   15.2772 C   0  0  0  0  0  0  0  0  0  0  0  0
   16.5256   16.8447   14.8169 N   0  0  0  0  0  0  0  0  0  0  0  0
   13.6608   15.6797   14.3452 C   0  0  0  0  0  0  0  0  0  0  0  0
   13.2339   14.2274   14.5659 C   0  0  0  0  0  0  0  0  0  0  0  0
   12.0331   13.8504   13.6966 C   0  0  0  0  0  0  0  0  0  0  0  0
   11.0138   13.0952   14.5510 C   0  0  0  0  0  0  0  0  0  0  0  0
   11.3637   13.1322   16.0400 C   0  0  0  0  0  0  0  0  0  0  0  0
   10.1213   12.8805   16.8974 C   0  0  0  0  0  0  0  0  0  0  0  0
    8.8629   13.4852   16.2694 C   0  0  0  0  0  0  0  0  0  0  0  0
 16 17  1  0  0  0
 17 10  1  0  0  0
 10  9  1  0  0  0
 10 11  1  0  0  0
 10 12  1  0  0  0
 12 14  2  0  0  0
 12 13  1  0  0  0
  9  3  1  0  0  0
  3  6  2  0  0  0
  3  4  1  0  0  0
  4  5  2  0  0  0
  5  8  1  0  0  0
  6  7  1  0  0  0
  7  8  2  0  0  0
  8  2  1  0  0  0
  2  1  1  0  0  0
  1 18  1  0  0  0
 18 19  1  0  0  0
 18 28  1  0  0  0
 28 29  1  0  0  0
 29 30  1  0  0  0
 30 31  1  0  0  0
 31 32  1  0  0  0
 32 33  1  0  0  0
 33 34  1  0  0  0
 19 27  2  0  0  0
 19 20  1  0  0  0
 20 21  1  0  0  0
 21 22  2  0  0  0
 21 26  1  0  0  0
 22 23  1  0  0  0
 23 24  2  0  0  0
 24 25  1  0  0  0
 25 26  2  0  0  0
 26 27  1  0  0  0
 13 15  1  0  0  0
M  END
> <minimizedAffinity>
-8.68783

$$$$
2I4Z_DRH_A_999


 34 36  0  0  0  0  0  0  0  0999 V2000
   14.5458   16.1741   11.9568 C   0  0  0  0  0  0  0  0  0  0  0  0
   15.6053   17.1200   11.3838 C   0  0  0  0  0  0  0  0  0  0  0  0
   14.0061   20.7000    9.5491 C   0  0  0  0  0  0  0  0  0  0  0  0
   15.2798   20.7223   10.1133 C   0  0  0  0  0  0  0  0  0  0  0  0
   15.7981   19.5836   10.7269 C   0  0  0  0  0  0  0  0  0  0  0  0
   13.2526   19.5318    9.6160 C   0  0  0  0  0  0  0  0  0  0  0  0
   13.7691   18.3936   10.2285 C   0  0  0  0  0  0  0  0  0  0  0  0
   15.0446   18.4140   10.7837 C   0  0  0  0  0  0  0  0  0  0  0  0
   13.4769   21.7618    8.8731 O   0  0  0  0  0  0  0  0  0  0  0  0
   12.9417   22.9315    9.5051 C   0  0  0  0  0  0  0  0  0  0  0  0
   12.4525   22.5151   10.8950 C   0  0  0  0  0  0  0  0  0  0  0  0
   11.7405   23.4757    8.7255 C   0  0  0  0  0  0  0  0  0  0  0  0
   11.9713   24.3401    7.8520 O   0  0  0  0  0  0  0  0  0  0  0  0
   10.6113   23.0276    9.0197 O   0  0  0  0  0  0  0  0  0  0  0  0
   12.8505   24.6224    7.6929 H   0  0  0  0  0  0  0  0  0  0  0  0
   13.9422   24.7397   10.9696 C   0  0  0  0  0  0  0  0  0  0  0  0
   14.0306   24.0010    9.6328 C   0  0  0  0  0  0  0  0  0  0  0  0
   14.6504   15.9308   13.4061 N   0  0  0  0  0  0  0  0  0  0  0  0
   15.8139   15.8391   14.0496 C   0  0  0  0  0  0  0  0  0  0  0  0
   16.6357   14.7474   14.0744 O   0  0  0  0  0  0  0  0  0  0  0  0
   17.7535   15.1324   14.7570 C   0  0  0  0  0  0  0  0  0  0  0  0
   18.9352   14.4727   15.0793 C   0  0  0  0  0  0  0  0  0  0  0  0
   19.9338   15.1412   15.7825 C   0  0  0  0  0  0  0  0  0  0  0  0
   19.7475   16.4665   16.1635 C   0  0  0  0  0  0  0  0  0  0  0  0
   18.5661   17.1276   15.8421 C   0  0  0  0  0  0  0  0  0  0  0  0
   17.5712   16.4586   15.1361 C   0  0  0  0  0  0  0  0  0  0  0  0
   16.3826   16.8547   14.6917 N   0  0  0  0  0  0  0  0  0  0  0  0
   13.4392   16.0009   14.2408 C   0  0  0  0  0  0  0  0  0  0  0  0
   13.2217   14.7196   15.0477 C   0  0  0  0  0  0  0  0  0  0  0  0
   12.8408   13.5412   14.1499 C   0  0  0  0  0  0  0  0  0  0  0  0
   11.5697   12.8875   14.6941 C   0  0  0  0  0  0  0  0  0  0  0  0
   11.3772   13.1487   16.1893 C   0  0  0  0  0  0  0  0  0  0  0  0
    9.9202   12.9205   16.5984 C   0  0  0  0  0  0  0  0  0  0  0  0
    8.9447   13.6175   15.6466 C   0  0  0  0  0  0  0  0  0  0  0  0
 16 17  1  0  0  0
 17 10  1  0  0  0
 10  9  1  0  0  0
 10 11  1  0  0  0
 10 12  1  0  0  0
 12 14  2  0  0  0
 12 13  1  0  0  0
  9  3  1  0  0  0
  3  6  2  0  0  0
  3  4  1  0  0  0
  4  5  2  0  0  0
  5  8  1  0  0  0
  6  7  1  0  0  0
  7  8  2  0  0  0
  8  2  1  0  0  0
  2  1  1  0  0  0
  1 18  1  0  0  0
 18 19  1  0  0  0
 18 28  1  0  0  0
 28 29  1  0  0  0
 29 30  1  0  0  0
 30 31  1  0  0  0
 31 32  1  0  0  0
 32 33  1  0  0  0
 33 34  1  0  0  0
 19 27  2  0  0  0
 19 20  1  0  0  0
 20 21  1  0  0  0
 21 22  2  0  0  0
 21 26  1  0  0  0
 22 23  1  0  0  0
 23 24  2  0  0  0
 24 25  1  0  0  0
 25 26  2  0  0  0
 26 27  1  0  0  0
 13 15  1  0  0  0
M  END
> <minimizedAffinity>
-8.62779

$$$$
2I4Z_DRH_A_999


 34 36  0  0  0  0  0  0  0  0999 V2000
   16.8891   18.5866    9.9928 C   0  0  0  0  0  0  0  0  0  0  0  0
   16.0821   17.4323   10.5943 C   0  0  0  0  0  0  0  0  0  0  0  0
   17.2942   16.0827   14.5249 C   0  0  0  0  0  0  0  0  0  0  0  0
   16.3674   17.1159   14.4041 C   0  0  0  0  0  0  0  0  0  0  0  0
   15.9851   17.5754   13.1454 C   0  0  0  0  0  0  0  0  0  0  0  0
   17.8429   15.5231   13.3747 C   0  0  0  0  0  0  0  0  0  0  0  0
   17.4618   15.9809   12.1168 C   0  0  0  0  0  0  0  0  0  0  0  0
   16.5296   17.0066   11.9969 C   0  0  0  0  0  0  0  0  0  0  0  0
   17.6509   15.5446   15.7280 O   0  0  0  0  0  0  0  0  0  0  0  0
   18.8311   15.9106   16.4544 C   0  0  0  0  0  0  0  0  0  0  0  0
   19.9002   14.8586   16.1468 C   0  0  0  0  0  0  0  0  0  0  0  0
   18.5734   15.8942   17.9644 C   0  0  0  0  0  0  0  0  0  0  0  0
   19.3853   16.5103   18.6886 O   0  0  0  0  0  0  0  0  0  0  0  0
   17.5764   15.2599   18.3722 O   0  0  0  0  0  0  0  0  0  0  0  0
   20.1092   16.9622   18.3015 H   0  0  0  0  0  0  0  0  0  0  0  0
   20.7089   17.2288   15.3815 C   0  0  0  0  0  0  0  0  0  0  0  0
   19.3134   17.2931   16.0051 C   0  0  0  0  0  0  0  0  0  0  0  0
   16.2305   19.9030   10.0565 N   0  0  0  0  0  0  0  0  0  0  0  0
   16.7048   20.9878    9.4447 C   0  0  0  0  0  0  0  0  0  0  0  0
   17.3815   22.0157   10.0393 O   0  0  0  0  0  0  0  0  0  0  0  0
   17.7662   22.8484    9.0283 C   0  0  0  0  0  0  0  0  0  0  0  0
   18.4974   24.0319    9.0084 C   0  0  0  0  0  0  0  0  0  0  0  0
   18.7606   24.6649    7.7967 C   0  0  0  0  0  0  0  0  0  0  0  0
   18.2904   24.1145    6.6083 C   0  0  0  0  0  0  0  0  0  0  0  0
   17.5588   22.9310    6.6265 C   0  0  0  0  0  0  0  0  0  0  0  0
   17.3003   22.2983    7.8383 C   0  0  0  0  0  0  0  0  0  0  0  0
   16.6592   21.1706    8.1288 N   0  0  0  0  0  0  0  0  0  0  0  0
   14.8796   20.0090   10.6329 C   0  0  0  0  0  0  0  0  0  0  0  0
   13.8057   20.1727    9.5558 C   0  0  0  0  0  0  0  0  0  0  0  0
   12.4922   20.6964   10.1389 C   0  0  0  0  0  0  0  0  0  0  0  0
   12.2173   22.0929    9.5789 C   0  0  0  0  0  0  0  0  0  0  0  0
   13.3132   22.5592    8.6186 C   0  0  0  0  0  0  0  0  0  0  0  0
   13.9087   23.8919    9.0782 C   0  0  0  0  0  0  0  0  0  0  0  0
   14.3771   23.8353   10.5345 C   0  0  0  0  0  0  0  0  0  0  0  0
 16 17  1  0  0  0
 17 10  1  0  0  0
 10  9  1  0  0  0
 10 11  1  0  0  0
 10 12  1  0  0  0
 12 14  2  0  0  0
 12 13  1  0  0  0
  9  3  1  0  0  0
  3  6  2  0  0  0
  3  4  1  0  0  0
  4  5  2  0  0  0
  5  8  1  0  0  0
  6  7  1  0  0  0
  7  8  2  0  0  0
  8  2  1  0  0  0
  2  1  1  0  0  0
  1 18  1  0  0  0
 18 19  1  0  0  0
 18 28  1  0  0  0
 28 29  1  0  0  0
 29 30  1  0  0  0
 30 31  1  0  0  0
 31 32  1  0  0  0
 32 33  1  0  0  0
 33 34  1  0  0  0
 19 27  2  0  0  0
 19 20  1  0  0  0
 20 21  1  0  0  0
 21 22  2  0  0  0
 21 26  1  0  0  0
 22 23  1  0  0  0
 23 24  2  0  0  0
 24 25  1  0  0  0
 25 26  2  0  0  0
 26 27  1  0  0  0
 13 15  1  0  0  0
M  END
> <minimizedAffinity>
-8.58394

$$$$
2I4Z_DRH_A_999


 34 36  0  0  0  0  0  0  0  0999 V2000
   14.8066   18.4893   10.3510 C   0  0  0  0  0  0  0  0  0  0  0  0
   16.0980   17.6678   10.4059 C   0  0  0  0  0  0  0  0  0  0  0  0
   17.1131   16.1160   14.3176 C   0  0  0  0  0  0  0  0  0  0  0  0
   16.2038   17.1655   14.2050 C   0  0  0  0  0  0  0  0  0  0  0  0
   15.8848   17.6897   12.9539 C   0  0  0  0  0  0  0  0  0  0  0  0
   17.7085   15.6053   13.1679 C   0  0  0  0  0  0  0  0  0  0  0  0
   17.3908   16.1278   11.9176 C   0  0  0  0  0  0  0  0  0  0  0  0
   16.4758   17.1697   11.8052 C   0  0  0  0  0  0  0  0  0  0  0  0
   17.4083   15.5164   15.5083 O   0  0  0  0  0  0  0  0  0  0  0  0
   18.6123   15.7504   16.2498 C   0  0  0  0  0  0  0  0  0  0  0  0
   19.6506   14.7346   15.7654 C   0  0  0  0  0  0  0  0  0  0  0  0
   18.3884   15.5185   17.7474 C   0  0  0  0  0  0  0  0  0  0  0  0
   17.2070   15.5338   18.1569 O   0  0  0  0  0  0  0  0  0  0  0  0
   19.3993   15.3392   18.4605 O   0  0  0  0  0  0  0  0  0  0  0  0
   16.5040   15.6753   17.5539 H   0  0  0  0  0  0  0  0  0  0  0  0
   20.6155   17.1983   15.6969 C   0  0  0  0  0  0  0  0  0  0  0  0
   19.1150   17.1743   15.9942 C   0  0  0  0  0  0  0  0  0  0  0  0
   14.9995   19.9346   10.1402 N   0  0  0  0  0  0  0  0  0  0  0  0
   14.0054   20.8205   10.1970 C   0  0  0  0  0  0  0  0  0  0  0  0
   12.7351   20.6354    9.7278 O   0  0  0  0  0  0  0  0  0  0  0  0
   12.0334   21.7488   10.0905 C   0  0  0  0  0  0  0  0  0  0  0  0
   10.7044   22.1229    9.9192 C   0  0  0  0  0  0  0  0  0  0  0  0
   10.2543   23.3383   10.4276 C   0  0  0  0  0  0  0  0  0  0  0  0
   11.1344   24.1776   11.1040 C   0  0  0  0  0  0  0  0  0  0  0  0
   12.4640   23.8050   11.2760 C   0  0  0  0  0  0  0  0  0  0  0  0
   12.9104   22.5881   10.7703 C   0  0  0  0  0  0  0  0  0  0  0  0
   14.0987   21.9938   10.8146 N   0  0  0  0  0  0  0  0  0  0  0  0
   16.3657   20.4803   10.0747 C   0  0  0  0  0  0  0  0  0  0  0  0
   16.7749   20.8367    8.6445 C   0  0  0  0  0  0  0  0  0  0  0  0
   17.7218   22.0374    8.6076 C   0  0  0  0  0  0  0  0  0  0  0  0
   16.9430   23.2759    8.1615 C   0  0  0  0  0  0  0  0  0  0  0  0
   17.8507   24.4909    7.9600 C   0  0  0  0  0  0  0  0  0  0  0  0
   18.8692   24.2308    6.8477 C   0  0  0  0  0  0  0  0  0  0  0  0
   18.2173   24.2460    5.4626 C   0  0  0  0  0  0  0  0  0  0  0  0
 16 17  1  0  0  0
 17 10  1  0  0  0
 10  9  1  0  0  0
 10 11  1  0  0  0
 10 12  1  0  0  0
 12 14  2  0  0  0
 12 13  1  0  0  0
  9  3  1  0  0  0
  3  6  2  0  0  0
  3  4  1  0  0  0
  4  5  2  0  0  0
  5  8  1  0  0  0
  6  7  1  0  0  0
  7  8  2  0  0  0
  8  2  1  0  0  0
  2  1  1  0  0  0
  1 18  1  0  0  0
 18 19  1  0  0  0
 18 28  1  0  0  0
 28 29  1  0  0  0
 29 30  1  0  0  0
 30 31  1  0  0  0
 31 32  1  0  0  0
 32 33  1  0  0  0
 33 34  1  0  0  0
 19 27  2  0  0  0
 19 20  1  0  0  0
 20 21  1  0  0  0
 21 22  2  0  0  0
 21 26  1  0  0  0
 22 23  1  0  0  0
 23 24  2  0  0  0
 24 25  1  0  0  0
 25 26  2  0  0  0
 26 27  1  0  0  0
 13 15  1  0  0  0
M  END
> <minimizedAffinity>
-8.52024

$$$$
2I4Z_DRH_A_999


 34 36  0  0  0  0  0  0  0  0999 V2000
   16.0597   17.6507   12.8905 C   0  0  0  0  0  0  0  0  0  0  0  0
   16.1097   17.6955   11.3605 C   0  0  0  0  0  0  0  0  0  0  0  0
   13.9694   20.9404    9.4551 C   0  0  0  0  0  0  0  0  0  0  0  0
   15.2511   21.1578    9.9562 C   0  0  0  0  0  0  0  0  0  0  0  0
   15.9427   20.1285   10.5917 C   0  0  0  0  0  0  0  0  0  0  0  0
   13.3829   19.6874    9.6073 C   0  0  0  0  0  0  0  0  0  0  0  0
   14.0726   18.6583   10.2417 C   0  0  0  0  0  0  0  0  0  0  0  0
   15.3559   18.8737   10.7338 C   0  0  0  0  0  0  0  0  0  0  0  0
   13.2748   21.8891    8.7610 O   0  0  0  0  0  0  0  0  0  0  0  0
   12.7052   23.0631    9.3540 C   0  0  0  0  0  0  0  0  0  0  0  0
   12.1821   22.6670   10.7374 C   0  0  0  0  0  0  0  0  0  0  0  0
   11.5194   23.5742    8.5297 C   0  0  0  0  0  0  0  0  0  0  0  0
   11.7820   24.2208    7.4922 O   0  0  0  0  0  0  0  0  0  0  0  0
   10.3709   23.3197    8.9526 O   0  0  0  0  0  0  0  0  0  0  0  0
   12.6738   24.3677    7.2448 H   0  0  0  0  0  0  0  0  0  0  0  0
   13.9301   24.6099   10.9421 C   0  0  0  0  0  0  0  0  0  0  0  0
   13.7748   24.1507    9.4910 C   0  0  0  0  0  0  0  0  0  0  0  0
   15.9248   16.3017   13.4673 N   0  0  0  0  0  0  0  0  0  0  0  0
   14.7496   15.7038   13.6606 C   0  0  0  0  0  0  0  0  0  0  0  0
   13.7879   15.4940   12.7123 O   0  0  0  0  0  0  0  0  0  0  0  0
   12.8110   14.7608   13.3219 C   0  0  0  0  0  0  0  0  0  0  0  0
   11.6094   14.2278   12.8662 C   0  0  0  0  0  0  0  0  0  0  0  0
   10.8073   13.4863   13.7294 C   0  0  0  0  0  0  0  0  0  0  0  0
   11.2074   13.2814   15.0463 C   0  0  0  0  0  0  0  0  0  0  0  0
   12.4088   13.8139   15.5037 C   0  0  0  0  0  0  0  0  0  0  0  0
   13.2104   14.5514   14.6381 C   0  0  0  0  0  0  0  0  0  0  0  0
   14.3905   15.1390   14.8091 N   0  0  0  0  0  0  0  0  0  0  0  0
   17.1257   15.4691   13.6489 C   0  0  0  0  0  0  0  0  0  0  0  0
   18.3330   16.2918   14.1026 C   0  0  0  0  0  0  0  0  0  0  0  0
   19.0898   15.6081   15.2425 C   0  0  0  0  0  0  0  0  0  0  0  0
   19.0390   16.5006   16.4835 C   0  0  0  0  0  0  0  0  0  0  0  0
   20.1240   17.5792   16.4674 C   0  0  0  0  0  0  0  0  0  0  0  0
   19.7025   18.7877   17.3064 C   0  0  0  0  0  0  0  0  0  0  0  0
   20.5792   20.0108   17.0252 C   0  0  0  0  0  0  0  0  0  0  0  0
 16 17  1  0  0  0
 17 10  1  0  0  0
 10  9  1  0  0  0
 10 11  1  0  0  0
 10 12  1  0  0  0
 12 14  2  0  0  0
 12 13  1  0  0  0
  9  3  1  0  0  0
  3  6  2  0  0  0
  3  4  1  0  0  0
  4  5  2  0  0  0
  5  8  1  0  0  0
  6  7  1  0  0  0
  7  8  2  0  0  0
  8  2  1  0  0  0
  2  1  1  0  0  0
  1 18  1  0  0  0
 18 19  1  0  0  0
 18 28  1  0  0  0
 28 29  1  0  0  0
 29 30  1  0  0  0
 30 31  1  0  0  0
 31 32  1  0  0  0
 32 33  1  0  0  0
 33 34  1  0  0  0
 19 27  2  0  0  0
 19 20  1  0  0  0
 20 21  1  0  0  0
 21 22  2  0  0  0
 21 26  1  0  0  0
 22 23  1  0  0  0
 23 24  2  0  0  0
 24 25  1  0  0  0
 25 26  2  0  0  0
 26 27  1  0  0  0
 13 15  1  0  0  0
M  END
> <minimizedAffinity>
-8.48787

$$$$
2I4Z_DRH_A_999


 34 36  0  0  0  0  0  0  0  0999 V2000
   14.3009   15.8482   10.9744 C   0  0  0  0  0  0  0  0  0  0  0  0
   13.4504   16.8543   10.1934 C   0  0  0  0  0  0  0  0  0  0  0  0
   15.1713   20.8263   10.1516 C   0  0  0  0  0  0  0  0  0  0  0  0
   13.7956   20.6674    9.9989 C   0  0  0  0  0  0  0  0  0  0  0  0
   13.2308   19.3935    9.9880 C   0  0  0  0  0  0  0  0  0  0  0  0
   15.9763   19.6984   10.2808 C   0  0  0  0  0  0  0  0  0  0  0  0
   15.4136   18.4254   10.2703 C   0  0  0  0  0  0  0  0  0  0  0  0
   14.0388   18.2679   10.1268 C   0  0  0  0  0  0  0  0  0  0  0  0
   15.7700   22.0502   10.2417 O   0  0  0  0  0  0  0  0  0  0  0  0
   16.2325   22.8041    9.1139 C   0  0  0  0  0  0  0  0  0  0  0  0
   15.6491   22.1501    7.8584 C   0  0  0  0  0  0  0  0  0  0  0  0
   17.7598   22.7513    9.0074 C   0  0  0  0  0  0  0  0  0  0  0  0
   18.3817   22.2476    9.9681 O   0  0  0  0  0  0  0  0  0  0  0  0
   18.2822   23.2222    7.9740 O   0  0  0  0  0  0  0  0  0  0  0  0
   17.9121   21.9161   10.7081 H   0  0  0  0  0  0  0  0  0  0  0  0
   14.2233   24.3372    9.2805 C   0  0  0  0  0  0  0  0  0  0  0  0
   15.7496   24.2537    9.2209 C   0  0  0  0  0  0  0  0  0  0  0  0
   14.0512   15.8200   12.4261 N   0  0  0  0  0  0  0  0  0  0  0  0
   13.0741   15.1071   12.9858 C   0  0  0  0  0  0  0  0  0  0  0  0
   12.6741   15.1759   14.2909 O   0  0  0  0  0  0  0  0  0  0  0  0
   11.5852   14.3591   14.3950 C   0  0  0  0  0  0  0  0  0  0  0  0
   10.7412   14.0437   15.4551 C   0  0  0  0  0  0  0  0  0  0  0  0
    9.6716   13.1751   15.2560 C   0  0  0  0  0  0  0  0  0  0  0  0
    9.4497   12.6223   13.9984 C   0  0  0  0  0  0  0  0  0  0  0  0
   10.2930   12.9366   12.9371 C   0  0  0  0  0  0  0  0  0  0  0  0
   11.3591   13.8078   13.1377 C   0  0  0  0  0  0  0  0  0  0  0  0
   12.2825   14.2823   12.3075 N   0  0  0  0  0  0  0  0  0  0  0  0
   15.0351   16.4222   13.3414 C   0  0  0  0  0  0  0  0  0  0  0  0
   16.4410   15.8589   13.1265 C   0  0  0  0  0  0  0  0  0  0  0  0
   17.0398   15.3166   14.4253 C   0  0  0  0  0  0  0  0  0  0  0  0
   18.4855   15.8003   14.5504 C   0  0  0  0  0  0  0  0  0  0  0  0
   18.7515   16.4944   15.8876 C   0  0  0  0  0  0  0  0  0  0  0  0
   19.3499   15.5147   16.8997 C   0  0  0  0  0  0  0  0  0  0  0  0
   18.5456   15.4776   18.2017 C   0  0  0  0  0  0  0  0  0  0  0  0
 16 17  1  0  0  0
 17 10  1  0  0  0
 10  9  1  0  0  0
 10 11  1  0  0  0
 10 12  1  0  0  0
 12 14  2  0  0  0
 12 13  1  0  0  0
  9  3  1  0  0  0
  3  6  2  0  0  0
  3  4  1  0  0  0
  4  5  2  0  0  0
  5  8  1  0  0  0
  6  7  1  0  0  0
  7  8  2  0  0  0
  8  2  1  0  0  0
  2  1  1  0  0  0
  1 18  1  0  0  0
 18 19  1  0  0  0
 18 28  1  0  0  0
 28 29  1  0  0  0
 29 30  1  0  0  0
 30 31  1  0  0  0
 31 32  1  0  0  0
 32 33  1  0  0  0
 33 34  1  0  0  0
 19 27  2  0  0  0
 19 20  1  0  0  0
 20 21  1  0  0  0
 21 22  2  0  0  0
 21 26  1  0  0  0
 22 23  1  0  0  0
 23 24  2  0  0  0
 24 25  1  0  0  0
 25 26  2  0  0  0
 26 27  1  0  0  0
 13 15  1  0  0  0
M  END
> <minimizedAffinity>
-8.33447

$$$$
