3RDO_BTN_A_300


 19 20  0  0  0  0  0  0  0  0999 V2000
  -27.8934  -18.3843   10.3497 C   0  0  0  0  0  0  0  0  0  0  0  0
  -26.6887  -18.3192    9.1258 S   0  0  0  0  0  0  0  0  0  0  0  0
  -27.9305  -18.7880    7.8874 C   0  0  0  0  0  0  0  0  0  0  0  0
  -29.1871  -18.0041    8.2561 C   0  0  0  0  0  0  0  0  0  0  0  0
  -29.2066  -16.6870    7.6719 N   0  0  0  0  0  0  0  0  0  0  0  0
  -29.1194  -15.7687    8.6057 C   0  0  0  0  0  0  0  0  0  0  0  0
  -29.0413  -14.4301    8.3237 O   0  0  0  0  0  0  0  0  0  0  0  0
  -29.1373  -16.2728    9.8340 N   0  0  0  0  0  0  0  0  0  0  0  0
  -29.1542  -17.7305    9.7628 C   0  0  0  0  0  0  0  0  0  0  0  0
  -29.2757  -16.5018    6.7074 H   0  0  0  0  0  0  0  0  0  0  0  0
  -29.1390  -15.7446   10.6648 H   0  0  0  0  0  0  0  0  0  0  0  0
  -27.5157  -17.8219   11.7417 C   0  0  0  0  0  0  0  0  0  0  0  0
  -26.0192  -17.5340   11.8645 C   0  0  0  0  0  0  0  0  0  0  0  0
  -25.7018  -16.9351   13.2425 C   0  0  0  0  0  0  0  0  0  0  0  0
  -24.4135  -17.5255   13.8181 C   0  0  0  0  0  0  0  0  0  0  0  0
  -24.5321  -19.0077   14.0686 C   0  0  0  0  0  0  0  0  0  0  0  0
  -25.4354  -19.4614   14.8048 O   0  0  0  0  0  0  0  0  0  0  0  0
  -23.7555  -19.8110   13.4911 O   0  0  0  0  0  0  0  0  0  0  0  0
  -23.0737  -19.4865   12.9363 H   0  0  0  0  0  0  0  0  0  0  0  0
 16 17  2  0  0  0
 16 18  1  0  0  0
 16 15  1  0  0  0
 15 14  1  0  0  0
 14 13  1  0  0  0
 13 12  1  0  0  0
 12  1  1  0  0  0
  1  2  1  0  0  0
  1  9  1  0  0  0
  2  3  1  0  0  0
  3  4  1  0  0  0
  4  5  1  0  0  0
  4  9  1  0  0  0
  5  6  1  0  0  0
  6  7  2  0  0  0
  6  8  1  0  0  0
  8  9  1  0  0  0
 18 19  1  0  0  0
  5 10  1  0  0  0
  8 11  1  0  0  0
M  END
> <minimizedAffinity>
-7.27917

$$$$
3RDO_BTN_A_300


 19 20  0  0  0  0  0  0  0  0999 V2000
  -28.9145  -19.4125    8.6810 C   0  0  0  0  0  0  0  0  0  0  0  0
  -29.0794  -21.1231    8.6767 S   0  0  0  0  0  0  0  0  0  0  0  0
  -30.5175  -20.9810    9.7752 C   0  0  0  0  0  0  0  0  0  0  0  0
  -31.3091  -19.7844    9.2542 C   0  0  0  0  0  0  0  0  0  0  0  0
  -32.2333  -20.1471    8.2098 N   0  0  0  0  0  0  0  0  0  0  0  0
  -31.8724  -19.6072    7.0691 C   0  0  0  0  0  0  0  0  0  0  0  0
  -32.5334  -19.8482    5.8932 O   0  0  0  0  0  0  0  0  0  0  0  0
  -30.8263  -18.7977    7.1848 N   0  0  0  0  0  0  0  0  0  0  0  0
  -30.3321  -18.8324    8.5577 C   0  0  0  0  0  0  0  0  0  0  0  0
  -33.0245  -20.7196    8.3343 H   0  0  0  0  0  0  0  0  0  0  0  0
  -30.4430  -18.2573    6.4566 H   0  0  0  0  0  0  0  0  0  0  0  0
  -27.9215  -18.7970    7.6653 C   0  0  0  0  0  0  0  0  0  0  0  0
  -26.7528  -18.0900    8.3521 C   0  0  0  0  0  0  0  0  0  0  0  0
  -27.2646  -17.1936    9.4892 C   0  0  0  0  0  0  0  0  0  0  0  0
  -27.3739  -15.7364    9.0375 C   0  0  0  0  0  0  0  0  0  0  0  0
  -28.8021  -15.3303    8.7748 C   0  0  0  0  0  0  0  0  0  0  0  0
  -29.5055  -14.8409    9.6855 O   0  0  0  0  0  0  0  0  0  0  0  0
  -29.2844  -15.4268    7.6172 O   0  0  0  0  0  0  0  0  0  0  0  0
  -28.7699  -15.7913    6.9241 H   0  0  0  0  0  0  0  0  0  0  0  0
 16 17  2  0  0  0
 16 18  1  0  0  0
 16 15  1  0  0  0
 15 14  1  0  0  0
 14 13  1  0  0  0
 13 12  1  0  0  0
 12  1  1  0  0  0
  1  2  1  0  0  0
  1  9  1  0  0  0
  2  3  1  0  0  0
  3  4  1  0  0  0
  4  5  1  0  0  0
  4  9  1  0  0  0
  5  6  1  0  0  0
  6  7  2  0  0  0
  6  8  1  0  0  0
  8  9  1  0  0  0
 18 19  1  0  0  0
  5 10  1  0  0  0
  8 11  1  0  0  0
M  END
> <minimizedAffinity>
-6.94350

$$$$
3RDO_BTN_A_300


 19 20  0  0  0  0  0  0  0  0999 V2000
  -27.3256  -18.0029    9.5787 C   0  0  0  0  0  0  0  0  0  0  0  0
  -28.6516  -16.9490    9.8691 S   0  0  0  0  0  0  0  0  0  0  0  0
  -28.5808  -16.3943    8.1421 C   0  0  0  0  0  0  0  0  0  0  0  0
  -28.3186  -17.6546    7.3218 C   0  0  0  0  0  0  0  0  0  0  0  0
  -29.5325  -18.3485    6.9738 N   0  0  0  0  0  0  0  0  0  0  0  0
  -29.5868  -19.5116    7.5796 C   0  0  0  0  0  0  0  0  0  0  0  0
  -30.6687  -20.3471    7.4843 O   0  0  0  0  0  0  0  0  0  0  0  0
  -28.4851  -19.7925    8.2655 N   0  0  0  0  0  0  0  0  0  0  0  0
  -27.5722  -18.6551    8.2094 C   0  0  0  0  0  0  0  0  0  0  0  0
  -30.2243  -17.9992    6.3666 H   0  0  0  0  0  0  0  0  0  0  0  0
  -28.3109  -20.6378    8.7391 H   0  0  0  0  0  0  0  0  0  0  0  0
  -26.9880  -19.0328   10.6842 C   0  0  0  0  0  0  0  0  0  0  0  0
  -25.7139  -18.6685   11.4468 C   0  0  0  0  0  0  0  0  0  0  0  0
  -26.0152  -17.6054   12.5133 C   0  0  0  0  0  0  0  0  0  0  0  0
  -24.8597  -17.4770   13.5073 C   0  0  0  0  0  0  0  0  0  0  0  0
  -24.4990  -18.8015   14.1311 C   0  0  0  0  0  0  0  0  0  0  0  0
  -25.3008  -19.3910   14.8884 O   0  0  0  0  0  0  0  0  0  0  0  0
  -23.4065  -19.3571   13.8489 O   0  0  0  0  0  0  0  0  0  0  0  0
  -22.7953  -18.9282   13.2828 H   0  0  0  0  0  0  0  0  0  0  0  0
 16 17  2  0  0  0
 16 18  1  0  0  0
 16 15  1  0  0  0
 15 14  1  0  0  0
 14 13  1  0  0  0
 13 12  1  0  0  0
 12  1  1  0  0  0
  1  2  1  0  0  0
  1  9  1  0  0  0
  2  3  1  0  0  0
  3  4  1  0  0  0
  4  5  1  0  0  0
  4  9  1  0  0  0
  5  6  1  0  0  0
  6  7  2  0  0  0
  6  8  1  0  0  0
  8  9  1  0  0  0
 18 19  1  0  0  0
  5 10  1  0  0  0
  8 11  1  0  0  0
M  END
> <minimizedAffinity>
-6.54497

$$$$
3RDO_BTN_A_300


 19 20  0  0  0  0  0  0  0  0999 V2000
  -27.5662  -18.1737   10.1167 C   0  0  0  0  0  0  0  0  0  0  0  0
  -26.5964  -18.0937    8.7002 S   0  0  0  0  0  0  0  0  0  0  0  0
  -28.0026  -18.6783    7.7121 C   0  0  0  0  0  0  0  0  0  0  0  0
  -29.2216  -17.9487    8.2701 C   0  0  0  0  0  0  0  0  0  0  0  0
  -29.4204  -16.6593    7.6582 N   0  0  0  0  0  0  0  0  0  0  0  0
  -29.2287  -15.7006    8.5340 C   0  0  0  0  0  0  0  0  0  0  0  0
  -29.2807  -14.3722    8.2019 O   0  0  0  0  0  0  0  0  0  0  0  0
  -29.0046  -16.1547    9.7614 N   0  0  0  0  0  0  0  0  0  0  0  0
  -28.9461  -17.6130    9.7389 C   0  0  0  0  0  0  0  0  0  0  0  0
  -29.6655  -16.5173    6.7153 H   0  0  0  0  0  0  0  0  0  0  0  0
  -28.8948  -15.5942   10.5632 H   0  0  0  0  0  0  0  0  0  0  0  0
  -26.9888  -17.5360   11.4037 C   0  0  0  0  0  0  0  0  0  0  0  0
  -26.5555  -18.5858   12.4274 C   0  0  0  0  0  0  0  0  0  0  0  0
  -25.1145  -19.0390   12.1505 C   0  0  0  0  0  0  0  0  0  0  0  0
  -24.3552  -19.2929   13.4538 C   0  0  0  0  0  0  0  0  0  0  0  0
  -24.4259  -20.7381   13.8783 C   0  0  0  0  0  0  0  0  0  0  0  0
  -23.6802  -21.1764   14.7813 O   0  0  0  0  0  0  0  0  0  0  0  0
  -25.2795  -21.5068   13.3661 O   0  0  0  0  0  0  0  0  0  0  0  0
  -25.8456  -21.1933   12.6884 H   0  0  0  0  0  0  0  0  0  0  0  0
 16 17  2  0  0  0
 16 18  1  0  0  0
 16 15  1  0  0  0
 15 14  1  0  0  0
 14 13  1  0  0  0
 13 12  1  0  0  0
 12  1  1  0  0  0
  1  2  1  0  0  0
  1  9  1  0  0  0
  2  3  1  0  0  0
  3  4  1  0  0  0
  4  5  1  0  0  0
  4  9  1  0  0  0
  5  6  1  0  0  0
  6  7  2  0  0  0
  6  8  1  0  0  0
  8  9  1  0  0  0
 18 19  1  0  0  0
  5 10  1  0  0  0
  8 11  1  0  0  0
M  END
> <minimizedAffinity>
-6.42047

$$$$
3RDO_BTN_A_300


 19 20  0  0  0  0  0  0  0  0999 V2000
  -29.5114  -19.0400    9.6049 C   0  0  0  0  0  0  0  0  0  0  0  0
  -30.6725  -20.1069   10.2882 S   0  0  0  0  0  0  0  0  0  0  0  0
  -31.7828  -19.7849    8.8887 C   0  0  0  0  0  0  0  0  0  0  0  0
  -30.8838  -19.7590    7.6554 C   0  0  0  0  0  0  0  0  0  0  0  0
  -30.6768  -21.0709    7.0963 N   0  0  0  0  0  0  0  0  0  0  0  0
  -29.4225  -21.4343    7.2290 C   0  0  0  0  0  0  0  0  0  0  0  0
  -28.9646  -22.6688    6.8498 O   0  0  0  0  0  0  0  0  0  0  0  0
  -28.6561  -20.4794    7.7426 N   0  0  0  0  0  0  0  0  0  0  0  0
  -29.4814  -19.3286    8.0959 C   0  0  0  0  0  0  0  0  0  0  0  0
  -31.3779  -21.6180    6.6740 H   0  0  0  0  0  0  0  0  0  0  0  0
  -27.6812  -20.5386    7.8662 H   0  0  0  0  0  0  0  0  0  0  0  0
  -28.1014  -19.0290   10.2441 C   0  0  0  0  0  0  0  0  0  0  0  0
  -27.5577  -17.6115   10.4251 C   0  0  0  0  0  0  0  0  0  0  0  0
  -27.0884  -17.0433    9.0778 C   0  0  0  0  0  0  0  0  0  0  0  0
  -27.3735  -15.5437    8.9812 C   0  0  0  0  0  0  0  0  0  0  0  0
  -28.8387  -15.2581    8.7680 C   0  0  0  0  0  0  0  0  0  0  0  0
  -29.5528  -14.8449    9.7078 O   0  0  0  0  0  0  0  0  0  0  0  0
  -29.3467  -15.3783    7.6237 O   0  0  0  0  0  0  0  0  0  0  0  0
  -28.8246  -15.6866    6.9094 H   0  0  0  0  0  0  0  0  0  0  0  0
 16 17  2  0  0  0
 16 18  1  0  0  0
 16 15  1  0  0  0
 15 14  1  0  0  0
 14 13  1  0  0  0
 13 12  1  0  0  0
 12  1  1  0  0  0
  1  2  1  0  0  0
  1  9  1  0  0  0
  2  3  1  0  0  0
  3  4  1  0  0  0
  4  5  1  0  0  0
  4  9  1  0  0  0
  5  6  1  0  0  0
  6  7  2  0  0  0
  6  8  1  0  0  0
  8  9  1  0  0  0
 18 19  1  0  0  0
  5 10  1  0  0  0
  8 11  1  0  0  0
M  END
> <minimizedAffinity>
-6.32438

$$$$
3RDO_BTN_A_300


 19 20  0  0  0  0  0  0  0  0999 V2000
  -28.4545  -18.9679    8.6233 C   0  0  0  0  0  0  0  0  0  0  0  0
  -29.0008  -18.6591   10.2231 S   0  0  0  0  0  0  0  0  0  0  0  0
  -27.4429  -17.7994   10.5824 C   0  0  0  0  0  0  0  0  0  0  0  0
  -27.1348  -16.9789    9.3328 C   0  0  0  0  0  0  0  0  0  0  0  0
  -27.7695  -15.6853    9.3522 N   0  0  0  0  0  0  0  0  0  0  0  0
  -28.6839  -15.6080    8.4137 C   0  0  0  0  0  0  0  0  0  0  0  0
  -29.4924  -14.5131    8.2552 O   0  0  0  0  0  0  0  0  0  0  0  0
  -28.7216  -16.6826    7.6346 N   0  0  0  0  0  0  0  0  0  0  0  0
  -27.7778  -17.6788    8.1317 C   0  0  0  0  0  0  0  0  0  0  0  0
  -27.5483  -14.9611    9.9813 H   0  0  0  0  0  0  0  0  0  0  0  0
  -29.2974  -16.7907    6.8435 H   0  0  0  0  0  0  0  0  0  0  0  0
  -29.4926  -19.5240    7.6184 C   0  0  0  0  0  0  0  0  0  0  0  0
  -29.7180  -21.0266    7.7891 C   0  0  0  0  0  0  0  0  0  0  0  0
  -31.2195  -21.3477    7.7645 C   0  0  0  0  0  0  0  0  0  0  0  0
  -32.0553  -20.1061    8.0800 C   0  0  0  0  0  0  0  0  0  0  0  0
  -32.6512  -19.4936    6.8376 C   0  0  0  0  0  0  0  0  0  0  0  0
  -32.3013  -19.8829    5.7019 O   0  0  0  0  0  0  0  0  0  0  0  0
  -33.5525  -18.6214    6.9321 O   0  0  0  0  0  0  0  0  0  0  0  0
  -33.8257  -18.3195    7.7760 H   0  0  0  0  0  0  0  0  0  0  0  0
 16 17  2  0  0  0
 16 18  1  0  0  0
 16 15  1  0  0  0
 15 14  1  0  0  0
 14 13  1  0  0  0
 13 12  1  0  0  0
 12  1  1  0  0  0
  1  2  1  0  0  0
  1  9  1  0  0  0
  2  3  1  0  0  0
  3  4  1  0  0  0
  4  5  1  0  0  0
  4  9  1  0  0  0
  5  6  1  0  0  0
  6  7  2  0  0  0
  6  8  1  0  0  0
  8  9  1  0  0  0
 18 19  1  0  0  0
  5 10  1  0  0  0
  8 11  1  0  0  0
M  END
> <minimizedAffinity>
-6.16809

$$$$
3RDO_BTN_A_300


 19 20  0  0  0  0  0  0  0  0999 V2000
  -28.4259  -18.9931    8.7377 C   0  0  0  0  0  0  0  0  0  0  0  0
  -29.1401  -18.6602   10.2649 S   0  0  0  0  0  0  0  0  0  0  0  0
  -27.6549  -17.7366   10.7510 C   0  0  0  0  0  0  0  0  0  0  0  0
  -27.2494  -16.9402    9.5136 C   0  0  0  0  0  0  0  0  0  0  0  0
  -27.9243  -15.6698    9.4300 N   0  0  0  0  0  0  0  0  0  0  0  0
  -28.7417  -15.6504    8.4032 C   0  0  0  0  0  0  0  0  0  0  0  0
  -29.5652  -14.5894    8.1315 O   0  0  0  0  0  0  0  0  0  0  0  0
  -28.6660  -16.7465    7.6576 N   0  0  0  0  0  0  0  0  0  0  0  0
  -27.7453  -17.6949    8.2765 C   0  0  0  0  0  0  0  0  0  0  0  0
  -27.7910  -14.9212   10.0554 H   0  0  0  0  0  0  0  0  0  0  0  0
  -29.1557  -16.8964    6.8168 H   0  0  0  0  0  0  0  0  0  0  0  0
  -29.3392  -19.6127    7.6520 C   0  0  0  0  0  0  0  0  0  0  0  0
  -29.0964  -21.1120    7.4762 C   0  0  0  0  0  0  0  0  0  0  0  0
  -30.4240  -21.8804    7.5504 C   0  0  0  0  0  0  0  0  0  0  0  0
  -30.7754  -22.2381    8.9954 C   0  0  0  0  0  0  0  0  0  0  0  0
  -31.4851  -23.5649    9.0941 C   0  0  0  0  0  0  0  0  0  0  0  0
  -32.1916  -23.8396   10.0887 O   0  0  0  0  0  0  0  0  0  0  0  0
  -31.4198  -24.3892    8.1464 O   0  0  0  0  0  0  0  0  0  0  0  0
  -30.8947  -24.1979    7.3943 H   0  0  0  0  0  0  0  0  0  0  0  0
 16 17  2  0  0  0
 16 18  1  0  0  0
 16 15  1  0  0  0
 15 14  1  0  0  0
 14 13  1  0  0  0
 13 12  1  0  0  0
 12  1  1  0  0  0
  1  2  1  0  0  0
  1  9  1  0  0  0
  2  3  1  0  0  0
  3  4  1  0  0  0
  4  5  1  0  0  0
  4  9  1  0  0  0
  5  6  1  0  0  0
  6  7  2  0  0  0
  6  8  1  0  0  0
  8  9  1  0  0  0
 18 19  1  0  0  0
  5 10  1  0  0  0
  8 11  1  0  0  0
M  END
> <minimizedAffinity>
-5.85118

$$$$
3RDO_BTN_A_300


 19 20  0  0  0  0  0  0  0  0999 V2000
  -28.7902  -19.3669    9.0472 C   0  0  0  0  0  0  0  0  0  0  0  0
  -29.0059  -21.0714    9.0049 S   0  0  0  0  0  0  0  0  0  0  0  0
  -30.5987  -20.8845    9.8553 C   0  0  0  0  0  0  0  0  0  0  0  0
  -31.2567  -19.6624    9.2203 C   0  0  0  0  0  0  0  0  0  0  0  0
  -32.0093  -19.9938    8.0369 N   0  0  0  0  0  0  0  0  0  0  0  0
  -31.4505  -19.4644    6.9738 C   0  0  0  0  0  0  0  0  0  0  0  0
  -31.9182  -19.6824    5.7045 O   0  0  0  0  0  0  0  0  0  0  0  0
  -30.4122  -18.6891    7.2636 N   0  0  0  0  0  0  0  0  0  0  0  0
  -30.1498  -18.7414    8.6984 C   0  0  0  0  0  0  0  0  0  0  0  0
  -32.8278  -20.5408    8.0272 H   0  0  0  0  0  0  0  0  0  0  0  0
  -29.8985  -18.1603    6.6111 H   0  0  0  0  0  0  0  0  0  0  0  0
  -27.6260  -18.7824    8.2107 C   0  0  0  0  0  0  0  0  0  0  0  0
  -26.6381  -17.9891    9.0665 C   0  0  0  0  0  0  0  0  0  0  0  0
  -27.1174  -17.9356   10.5245 C   0  0  0  0  0  0  0  0  0  0  0  0
  -26.0470  -18.4693   11.4779 C   0  0  0  0  0  0  0  0  0  0  0  0
  -25.9834  -17.6767   12.7591 C   0  0  0  0  0  0  0  0  0  0  0  0
  -25.6009  -18.2109   13.8231 O   0  0  0  0  0  0  0  0  0  0  0  0
  -26.2608  -16.4499   12.7585 O   0  0  0  0  0  0  0  0  0  0  0  0
  -26.5487  -16.0351   11.9692 H   0  0  0  0  0  0  0  0  0  0  0  0
 16 17  2  0  0  0
 16 18  1  0  0  0
 16 15  1  0  0  0
 15 14  1  0  0  0
 14 13  1  0  0  0
 13 12  1  0  0  0
 12  1  1  0  0  0
  1  2  1  0  0  0
  1  9  1  0  0  0
  2  3  1  0  0  0
  3  4  1  0  0  0
  4  5  1  0  0  0
  4  9  1  0  0  0
  5  6  1  0  0  0
  6  7  2  0  0  0
  6  8  1  0  0  0
  8  9  1  0  0  0
 18 19  1  0  0  0
  5 10  1  0  0  0
  8 11  1  0  0  0
M  END
> <minimizedAffinity>
-5.75614

$$$$
3RDO_BTN_A_300


 19 20  0  0  0  0  0  0  0  0999 V2000
  -28.3204  -18.2976   10.3775 C   0  0  0  0  0  0  0  0  0  0  0  0
  -29.1619  -19.5771   11.1575 S   0  0  0  0  0  0  0  0  0  0  0  0
  -30.6409  -19.1933   10.1776 C   0  0  0  0  0  0  0  0  0  0  0  0
  -30.1290  -18.8909    8.7718 C   0  0  0  0  0  0  0  0  0  0  0  0
  -29.9923  -20.0787    7.9674 N   0  0  0  0  0  0  0  0  0  0  0  0
  -28.7283  -20.3091    7.6992 C   0  0  0  0  0  0  0  0  0  0  0  0
  -28.3066  -21.4168    7.0118 O   0  0  0  0  0  0  0  0  0  0  0  0
  -27.9201  -19.3531    8.1420 N   0  0  0  0  0  0  0  0  0  0  0  0
  -28.6946  -18.3667    8.8887 C   0  0  0  0  0  0  0  0  0  0  0  0
  -30.7420  -20.6389    7.6618 H   0  0  0  0  0  0  0  0  0  0  0  0
  -26.9481  -19.3155    7.9901 H   0  0  0  0  0  0  0  0  0  0  0  0
  -26.7924  -18.2127   10.6111 C   0  0  0  0  0  0  0  0  0  0  0  0
  -26.4330  -17.2741   11.7633 C   0  0  0  0  0  0  0  0  0  0  0  0
  -25.4012  -17.9352   12.6889 C   0  0  0  0  0  0  0  0  0  0  0  0
  -25.0267  -19.3319   12.1904 C   0  0  0  0  0  0  0  0  0  0  0  0
  -25.1852  -20.3782   13.2646 C   0  0  0  0  0  0  0  0  0  0  0  0
  -24.1836  -20.9111   13.7907 O   0  0  0  0  0  0  0  0  0  0  0  0
  -26.3302  -20.6851   13.6848 O   0  0  0  0  0  0  0  0  0  0  0  0
  -27.0904  -20.2944   13.3008 H   0  0  0  0  0  0  0  0  0  0  0  0
 16 17  2  0  0  0
 16 18  1  0  0  0
 16 15  1  0  0  0
 15 14  1  0  0  0
 14 13  1  0  0  0
 13 12  1  0  0  0
 12  1  1  0  0  0
  1  2  1  0  0  0
  1  9  1  0  0  0
  2  3  1  0  0  0
  3  4  1  0  0  0
  4  5  1  0  0  0
  4  9  1  0  0  0
  5  6  1  0  0  0
  6  7  2  0  0  0
  6  8  1  0  0  0
  8  9  1  0  0  0
 18 19  1  0  0  0
  5 10  1  0  0  0
  8 11  1  0  0  0
M  END
> <minimizedAffinity>
-5.75362

$$$$
3RDO_BTN_A_300


 19 20  0  0  0  0  0  0  0  0999 V2000
  -27.4148  -19.6662   11.5912 C   0  0  0  0  0  0  0  0  0  0  0  0
  -27.5822  -20.4038   13.1344 S   0  0  0  0  0  0  0  0  0  0  0  0
  -25.9268  -21.1281   12.9607 C   0  0  0  0  0  0  0  0  0  0  0  0
  -25.0674  -20.0312   12.3378 C   0  0  0  0  0  0  0  0  0  0  0  0
  -24.4990  -19.1487   13.3249 N   0  0  0  0  0  0  0  0  0  0  0  0
  -25.0078  -17.9441   13.2117 C   0  0  0  0  0  0  0  0  0  0  0  0
  -24.6982  -16.9248   14.0735 O   0  0  0  0  0  0  0  0  0  0  0  0
  -25.8253  -17.8205   12.1727 N   0  0  0  0  0  0  0  0  0  0  0  0
  -25.9820  -19.1157   11.5185 C   0  0  0  0  0  0  0  0  0  0  0  0
  -23.8236  -19.4123   13.9910 H   0  0  0  0  0  0  0  0  0  0  0  0
  -26.2590  -16.9839   11.8876 H   0  0  0  0  0  0  0  0  0  0  0  0
  -28.4831  -18.6200   11.1899 C   0  0  0  0  0  0  0  0  0  0  0  0
  -29.4434  -19.1506   10.1250 C   0  0  0  0  0  0  0  0  0  0  0  0
  -28.7547  -20.2271    9.2735 C   0  0  0  0  0  0  0  0  0  0  0  0
  -28.7841  -19.8599    7.7890 C   0  0  0  0  0  0  0  0  0  0  0  0
  -27.8712  -18.7019    7.4737 C   0  0  0  0  0  0  0  0  0  0  0  0
  -26.6671  -18.7270    7.8103 O   0  0  0  0  0  0  0  0  0  0  0  0
  -28.2996  -17.7197    6.8152 O   0  0  0  0  0  0  0  0  0  0  0  0
  -29.1993  -17.6863    6.5556 H   0  0  0  0  0  0  0  0  0  0  0  0
 16 17  2  0  0  0
 16 18  1  0  0  0
 16 15  1  0  0  0
 15 14  1  0  0  0
 14 13  1  0  0  0
 13 12  1  0  0  0
 12  1  1  0  0  0
  1  2  1  0  0  0
  1  9  1  0  0  0
  2  3  1  0  0  0
  3  4  1  0  0  0
  4  5  1  0  0  0
  4  9  1  0  0  0
  5  6  1  0  0  0
  6  7  2  0  0  0
  6  8  1  0  0  0
  8  9  1  0  0  0
 18 19  1  0  0  0
  5 10  1  0  0  0
  8 11  1  0  0  0
M  END
> <minimizedAffinity>
-5.58955

$$$$
