2UWD_2GG_A_1228


 30 32  0  0  0  0  0  0  0  0999 V2000
   31.4012    8.6139   26.1227 C   0  0  0  0  0  0  0  0  0  0  0  0
   30.9940    8.2284   27.4173 C   0  0  0  0  0  0  0  0  0  0  0  0
   30.1180    9.0951   27.9326 N   0  0  0  0  0  0  0  0  0  0  0  0
   30.7044    9.8114   25.8827 C   0  0  0  0  0  0  0  0  0  0  0  0
   29.9392   10.0788   26.9714 O   0  0  0  0  0  0  0  0  0  0  0  0
   30.7339   10.6189   24.7276 C   0  0  0  0  0  0  0  0  0  0  0  0
   31.9001   11.3308   24.4297 C   0  0  0  0  0  0  0  0  0  0  0  0
   31.9814   12.1377   23.2938 C   0  0  0  0  0  0  0  0  0  0  0  0
   33.4413   13.0309   22.9257 Cl  0  0  0  0  0  0  0  0  0  0  0  0
   30.8597   12.2416   22.4589 C   0  0  0  0  0  0  0  0  0  0  0  0
   30.9274   12.9767   21.3446 O   0  0  0  0  0  0  0  0  0  0  0  0
   29.6890   11.5302   22.7289 C   0  0  0  0  0  0  0  0  0  0  0  0
   29.6157   10.7539   23.8940 C   0  0  0  0  0  0  0  0  0  0  0  0
   28.4680   10.0662   24.1449 O   0  0  0  0  0  0  0  0  0  0  0  0
   31.7058   13.4601   21.1488 H   0  0  0  0  0  0  0  0  0  0  0  0
   28.3959    9.5408   24.9173 H   0  0  0  0  0  0  0  0  0  0  0  0
   34.1227    6.6570   23.4404 C   0  0  0  0  0  0  0  0  0  0  0  0
   32.7361    6.4242   23.3154 C   0  0  0  0  0  0  0  0  0  0  0  0
   31.8468    7.0766   24.2050 C   0  0  0  0  0  0  0  0  0  0  0  0
   34.5852    7.5120   24.4659 C   0  0  0  0  0  0  0  0  0  0  0  0
   33.6883    8.1475   25.3324 C   0  0  0  0  0  0  0  0  0  0  0  0
   32.3086    7.9400   25.2371 C   0  0  0  0  0  0  0  0  0  0  0  0
   36.3279    5.6359   23.2571 C   0  0  0  0  0  0  0  0  0  0  0  0
   35.0752    6.0737   22.6449 O   0  0  0  0  0  0  0  0  0  0  0  0
   31.4687    7.0229   28.1968 C   0  0  0  0  0  0  0  0  0  0  0  0
   31.5712    5.9158   27.6745 O   0  0  0  0  0  0  0  0  0  0  0  0
   31.8495    7.2804   29.4616 N   0  0  0  0  0  0  0  0  0  0  0  0
   31.8052    8.2039   29.7998 H   0  0  0  0  0  0  0  0  0  0  0  0
   32.3339    6.2028   30.3553 C   0  0  0  0  0  0  0  0  0  0  0  0
   33.8674    6.2695   30.4700 C   0  0  0  0  0  0  0  0  0  0  0  0
 23 24  1  0  0  0
 24 17  1  0  0  0
 17 18  1  0  0  0
 18 19  2  0  0  0
 17 20  2  0  0  0
 20 21  1  0  0  0
 19 22  1  0  0  0
 21 22  2  0  0  0
 22  1  1  0  0  0
  1  2  1  0  0  0
  2 25  1  0  0  0
 25 26  2  0  0  0
 25 27  1  0  0  0
 27 29  1  0  0  0
 29 30  1  0  0  0
  2  3  2  0  0  0
  1  4  2  0  0  0
  4  6  1  0  0  0
  6  7  1  0  0  0
  7  8  2  0  0  0
  8  9  1  0  0  0
  8 10  1  0  0  0
 10 11  1  0  0  0
 10 12  2  0  0  0
  6 13  2  0  0  0
 12 13  1  0  0  0
 13 14  1  0  0  0
  3  5  1  0  0  0
  4  5  1  0  0  0
 27 28  1  0  0  0
 11 15  1  0  0  0
 14 16  1  0  0  0
M  END
> <minimizedAffinity>
-9.45601

$$$$
2UWD_2GG_A_1228


 30 32  0  0  0  0  0  0  0  0999 V2000
   34.0579    6.7076   24.8437 C   0  0  0  0  0  0  0  0  0  0  0  0
   34.8559    5.7021   24.2586 C   0  0  0  0  0  0  0  0  0  0  0  0
   35.2632    6.0512   23.0354 N   0  0  0  0  0  0  0  0  0  0  0  0
   33.9958    7.7144   23.8641 C   0  0  0  0  0  0  0  0  0  0  0  0
   34.7262    7.3071   22.7949 O   0  0  0  0  0  0  0  0  0  0  0  0
   33.3326    8.9563   23.9333 C   0  0  0  0  0  0  0  0  0  0  0  0
   31.9541    8.9747   24.1676 C   0  0  0  0  0  0  0  0  0  0  0  0
   31.2535   10.1790   24.2524 C   0  0  0  0  0  0  0  0  0  0  0  0
   29.5272   10.1987   24.5418 Cl  0  0  0  0  0  0  0  0  0  0  0  0
   31.9546   11.3806   24.0770 C   0  0  0  0  0  0  0  0  0  0  0  0
   31.3123   12.5469   24.1933 O   0  0  0  0  0  0  0  0  0  0  0  0
   33.3331   11.3876   23.8549 C   0  0  0  0  0  0  0  0  0  0  0  0
   34.0115   10.1663   23.7374 C   0  0  0  0  0  0  0  0  0  0  0  0
   35.3552   10.1883   23.5202 O   0  0  0  0  0  0  0  0  0  0  0  0
   30.3873   12.5595   24.3425 H   0  0  0  0  0  0  0  0  0  0  0  0
   35.8298    9.3845   23.4383 H   0  0  0  0  0  0  0  0  0  0  0  0
   32.2890    6.6903   28.7555 C   0  0  0  0  0  0  0  0  0  0  0  0
   31.5799    6.1326   27.6698 C   0  0  0  0  0  0  0  0  0  0  0  0
   32.1739    6.1422   26.3834 C   0  0  0  0  0  0  0  0  0  0  0  0
   33.5582    7.2662   28.5228 C   0  0  0  0  0  0  0  0  0  0  0  0
   34.1267    7.2628   27.2437 C   0  0  0  0  0  0  0  0  0  0  0  0
   33.4526    6.7189   26.1458 C   0  0  0  0  0  0  0  0  0  0  0  0
   32.6720    6.2947   31.1295 C   0  0  0  0  0  0  0  0  0  0  0  0
   31.8101    6.7465   30.0391 O   0  0  0  0  0  0  0  0  0  0  0  0
   35.2181    4.3643   24.8631 C   0  0  0  0  0  0  0  0  0  0  0  0
   34.3592    3.5451   25.1796 O   0  0  0  0  0  0  0  0  0  0  0  0
   36.5385    4.1155   24.9378 N   0  0  0  0  0  0  0  0  0  0  0  0
   37.1755    4.7883   24.6048 H   0  0  0  0  0  0  0  0  0  0  0  0
   37.0532    2.8501   25.5110 C   0  0  0  0  0  0  0  0  0  0  0  0
   38.5387    3.0108   25.8811 C   0  0  0  0  0  0  0  0  0  0  0  0
 23 24  1  0  0  0
 24 17  1  0  0  0
 17 18  1  0  0  0
 18 19  2  0  0  0
 17 20  2  0  0  0
 20 21  1  0  0  0
 19 22  1  0  0  0
 21 22  2  0  0  0
 22  1  1  0  0  0
  1  2  1  0  0  0
  2 25  1  0  0  0
 25 26  2  0  0  0
 25 27  1  0  0  0
 27 29  1  0  0  0
 29 30  1  0  0  0
  2  3  2  0  0  0
  1  4  2  0  0  0
  4  6  1  0  0  0
  6  7  1  0  0  0
  7  8  2  0  0  0
  8  9  1  0  0  0
  8 10  1  0  0  0
 10 11  1  0  0  0
 10 12  2  0  0  0
  6 13  2  0  0  0
 12 13  1  0  0  0
 13 14  1  0  0  0
  3  5  1  0  0  0
  4  5  1  0  0  0
 27 28  1  0  0  0
 11 15  1  0  0  0
 14 16  1  0  0  0
M  END
> <minimizedAffinity>
-8.60376

$$$$
2UWD_2GG_A_1228


 30 32  0  0  0  0  0  0  0  0999 V2000
   33.9977    6.2961   25.1167 C   0  0  0  0  0  0  0  0  0  0  0  0
   34.7239    5.2504   24.5089 C   0  0  0  0  0  0  0  0  0  0  0  0
   34.9306    5.4888   23.2110 N   0  0  0  0  0  0  0  0  0  0  0  0
   33.7602    7.2060   24.0713 C   0  0  0  0  0  0  0  0  0  0  0  0
   34.3299    6.7099   22.9437 O   0  0  0  0  0  0  0  0  0  0  0  0
   33.0822    8.4405   24.1294 C   0  0  0  0  0  0  0  0  0  0  0  0
   33.8180    9.6229   24.0025 C   0  0  0  0  0  0  0  0  0  0  0  0
   33.1919   10.8695   24.0456 C   0  0  0  0  0  0  0  0  0  0  0  0
   34.1163   12.3480   23.8905 Cl  0  0  0  0  0  0  0  0  0  0  0  0
   31.8043   10.9207   24.2405 C   0  0  0  0  0  0  0  0  0  0  0  0
   31.1777   12.1013   24.2454 O   0  0  0  0  0  0  0  0  0  0  0  0
   31.0470    9.7533   24.3567 C   0  0  0  0  0  0  0  0  0  0  0  0
   31.6998    8.5127   24.3469 C   0  0  0  0  0  0  0  0  0  0  0  0
   30.9490    7.3830   24.4618 O   0  0  0  0  0  0  0  0  0  0  0  0
   31.6713   12.8940   24.1683 H   0  0  0  0  0  0  0  0  0  0  0  0
   31.3633    6.5426   24.4577 H   0  0  0  0  0  0  0  0  0  0  0  0
   32.7469    6.7057   29.2031 C   0  0  0  0  0  0  0  0  0  0  0  0
   33.8144    7.4935   28.7209 C   0  0  0  0  0  0  0  0  0  0  0  0
   34.2178    7.3513   27.3701 C   0  0  0  0  0  0  0  0  0  0  0  0
   32.1302    5.7791   28.3326 C   0  0  0  0  0  0  0  0  0  0  0  0
   32.5440    5.6568   27.0011 C   0  0  0  0  0  0  0  0  0  0  0  0
   33.5976    6.4213   26.4900 C   0  0  0  0  0  0  0  0  0  0  0  0
   31.8766    5.5011   31.1346 C   0  0  0  0  0  0  0  0  0  0  0  0
   32.2791    6.7501   30.4913 O   0  0  0  0  0  0  0  0  0  0  0  0
   35.2096    3.9795   25.1687 C   0  0  0  0  0  0  0  0  0  0  0  0
   34.4315    3.0961   25.5194 O   0  0  0  0  0  0  0  0  0  0  0  0
   36.5474    3.8612   25.2537 N   0  0  0  0  0  0  0  0  0  0  0  0
   37.1186    4.5772   24.8927 H   0  0  0  0  0  0  0  0  0  0  0  0
   37.1782    2.6757   25.8792 C   0  0  0  0  0  0  0  0  0  0  0  0
   38.6880    2.9191   26.0545 C   0  0  0  0  0  0  0  0  0  0  0  0
 23 24  1  0  0  0
 24 17  1  0  0  0
 17 18  1  0  0  0
 18 19  2  0  0  0
 17 20  2  0  0  0
 20 21  1  0  0  0
 19 22  1  0  0  0
 21 22  2  0  0  0
 22  1  1  0  0  0
  1  2  1  0  0  0
  2 25  1  0  0  0
 25 26  2  0  0  0
 25 27  1  0  0  0
 27 29  1  0  0  0
 29 30  1  0  0  0
  2  3  2  0  0  0
  1  4  2  0  0  0
  4  6  1  0  0  0
  6  7  1  0  0  0
  7  8  2  0  0  0
  8  9  1  0  0  0
  8 10  1  0  0  0
 10 11  1  0  0  0
 10 12  2  0  0  0
  6 13  2  0  0  0
 12 13  1  0  0  0
 13 14  1  0  0  0
  3  5  1  0  0  0
  4  5  1  0  0  0
 27 28  1  0  0  0
 11 15  1  0  0  0
 14 16  1  0  0  0
M  END
> <minimizedAffinity>
-8.46619

$$$$
2UWD_2GG_A_1228


 30 32  0  0  0  0  0  0  0  0999 V2000
   31.8687    8.3894   25.7612 C   0  0  0  0  0  0  0  0  0  0  0  0
   31.3587    7.9339   26.9952 C   0  0  0  0  0  0  0  0  0  0  0  0
   30.6222    8.8723   27.5961 N   0  0  0  0  0  0  0  0  0  0  0  0
   31.3898    9.7070   25.6536 C   0  0  0  0  0  0  0  0  0  0  0  0
   30.6429    9.9747   26.7549 O   0  0  0  0  0  0  0  0  0  0  0  0
   31.5930   10.6237   24.6023 C   0  0  0  0  0  0  0  0  0  0  0  0
   30.4955   11.0280   23.8358 C   0  0  0  0  0  0  0  0  0  0  0  0
   30.6439   11.9394   22.7892 C   0  0  0  0  0  0  0  0  0  0  0  0
   29.2687   12.4404   21.8288 Cl  0  0  0  0  0  0  0  0  0  0  0  0
   31.9245   12.4327   22.5012 C   0  0  0  0  0  0  0  0  0  0  0  0
   32.0848   13.3364   21.5296 O   0  0  0  0  0  0  0  0  0  0  0  0
   33.0330   12.0535   23.2609 C   0  0  0  0  0  0  0  0  0  0  0  0
   32.8683   11.1097   24.2844 C   0  0  0  0  0  0  0  0  0  0  0  0
   33.9578   10.7489   25.0164 O   0  0  0  0  0  0  0  0  0  0  0  0
   31.3510   13.6016   21.0107 H   0  0  0  0  0  0  0  0  0  0  0  0
   33.8719   10.1199   25.7055 H   0  0  0  0  0  0  0  0  0  0  0  0
   34.2806    6.1996   22.9649 C   0  0  0  0  0  0  0  0  0  0  0  0
   34.9047    6.9177   24.0077 C   0  0  0  0  0  0  0  0  0  0  0  0
   34.0989    7.6355   24.9260 C   0  0  0  0  0  0  0  0  0  0  0  0
   32.8727    6.2401   22.8510 C   0  0  0  0  0  0  0  0  0  0  0  0
   32.0962    6.9544   23.7707 C   0  0  0  0  0  0  0  0  0  0  0  0
   32.6811    7.6765   24.8158 C   0  0  0  0  0  0  0  0  0  0  0  0
   36.1906    4.7961   22.3986 C   0  0  0  0  0  0  0  0  0  0  0  0
   34.9577    5.4801   22.0141 O   0  0  0  0  0  0  0  0  0  0  0  0
   31.5990    6.5848   27.6343 C   0  0  0  0  0  0  0  0  0  0  0  0
   31.1858    5.5463   27.1246 O   0  0  0  0  0  0  0  0  0  0  0  0
   32.3678    6.6101   28.7385 N   0  0  0  0  0  0  0  0  0  0  0  0
   32.7237    7.4704   29.0586 H   0  0  0  0  0  0  0  0  0  0  0  0
   32.6897    5.3699   29.4822 C   0  0  0  0  0  0  0  0  0  0  0  0
   31.8777    5.3192   30.7889 C   0  0  0  0  0  0  0  0  0  0  0  0
 23 24  1  0  0  0
 24 17  1  0  0  0
 17 18  1  0  0  0
 18 19  2  0  0  0
 17 20  2  0  0  0
 20 21  1  0  0  0
 19 22  1  0  0  0
 21 22  2  0  0  0
 22  1  1  0  0  0
  1  2  1  0  0  0
  2 25  1  0  0  0
 25 26  2  0  0  0
 25 27  1  0  0  0
 27 29  1  0  0  0
 29 30  1  0  0  0
  2  3  2  0  0  0
  1  4  2  0  0  0
  4  6  1  0  0  0
  6  7  1  0  0  0
  7  8  2  0  0  0
  8  9  1  0  0  0
  8 10  1  0  0  0
 10 11  1  0  0  0
 10 12  2  0  0  0
  6 13  2  0  0  0
 12 13  1  0  0  0
 13 14  1  0  0  0
  3  5  1  0  0  0
  4  5  1  0  0  0
 27 28  1  0  0  0
 11 15  1  0  0  0
 14 16  1  0  0  0
M  END
> <minimizedAffinity>
-8.11322

$$$$
2UWD_2GG_A_1228


 30 32  0  0  0  0  0  0  0  0999 V2000
   31.8674    8.3362   25.9780 C   0  0  0  0  0  0  0  0  0  0  0  0
   30.9396    9.3981   25.9358 C   0  0  0  0  0  0  0  0  0  0  0  0
   30.3174    9.5506   27.1078 N   0  0  0  0  0  0  0  0  0  0  0  0
   31.7572    7.8318   27.2859 C   0  0  0  0  0  0  0  0  0  0  0  0
   30.8319    8.5733   27.9465 O   0  0  0  0  0  0  0  0  0  0  0  0
   32.4720    6.7671   27.8711 C   0  0  0  0  0  0  0  0  0  0  0  0
   33.2153    5.9172   27.0461 C   0  0  0  0  0  0  0  0  0  0  0  0
   33.9460    4.8538   27.5785 C   0  0  0  0  0  0  0  0  0  0  0  0
   34.8723    3.7891   26.5426 Cl  0  0  0  0  0  0  0  0  0  0  0  0
   33.9073    4.6354   28.9630 C   0  0  0  0  0  0  0  0  0  0  0  0
   34.6306    3.6478   29.4997 O   0  0  0  0  0  0  0  0  0  0  0  0
   33.1828    5.4784   29.8079 C   0  0  0  0  0  0  0  0  0  0  0  0
   32.4268    6.5186   29.2494 C   0  0  0  0  0  0  0  0  0  0  0  0
   31.7249    7.3323   30.0852 O   0  0  0  0  0  0  0  0  0  0  0  0
   35.1224    3.0733   28.9465 H   0  0  0  0  0  0  0  0  0  0  0  0
   31.2125    8.0342   29.7347 H   0  0  0  0  0  0  0  0  0  0  0  0
   34.4608    7.0100   22.8242 C   0  0  0  0  0  0  0  0  0  0  0  0
   33.2108    6.3803   23.0069 C   0  0  0  0  0  0  0  0  0  0  0  0
   32.3621    6.8272   24.0499 C   0  0  0  0  0  0  0  0  0  0  0  0
   34.8408    8.0488   23.7035 C   0  0  0  0  0  0  0  0  0  0  0  0
   33.9855    8.4754   24.7260 C   0  0  0  0  0  0  0  0  0  0  0  0
   32.7402    7.8744   24.9355 C   0  0  0  0  0  0  0  0  0  0  0  0
   35.3462    5.2867   21.3460 C   0  0  0  0  0  0  0  0  0  0  0  0
   35.3666    6.6555   21.8576 O   0  0  0  0  0  0  0  0  0  0  0  0
   30.6142   10.2724   24.7457 C   0  0  0  0  0  0  0  0  0  0  0  0
   29.5436   10.1802   24.1505 O   0  0  0  0  0  0  0  0  0  0  0  0
   31.5412   11.2043   24.4574 N   0  0  0  0  0  0  0  0  0  0  0  0
   32.3493   11.2694   25.0159 H   0  0  0  0  0  0  0  0  0  0  0  0
   31.3705   12.1342   23.3168 C   0  0  0  0  0  0  0  0  0  0  0  0
   32.5270   13.1498   23.2937 C   0  0  0  0  0  0  0  0  0  0  0  0
 23 24  1  0  0  0
 24 17  1  0  0  0
 17 18  1  0  0  0
 18 19  2  0  0  0
 17 20  2  0  0  0
 20 21  1  0  0  0
 19 22  1  0  0  0
 21 22  2  0  0  0
 22  1  1  0  0  0
  1  2  1  0  0  0
  2 25  1  0  0  0
 25 26  2  0  0  0
 25 27  1  0  0  0
 27 29  1  0  0  0
 29 30  1  0  0  0
  2  3  2  0  0  0
  1  4  2  0  0  0
  4  6  1  0  0  0
  6  7  1  0  0  0
  7  8  2  0  0  0
  8  9  1  0  0  0
  8 10  1  0  0  0
 10 11  1  0  0  0
 10 12  2  0  0  0
  6 13  2  0  0  0
 12 13  1  0  0  0
 13 14  1  0  0  0
  3  5  1  0  0  0
  4  5  1  0  0  0
 27 28  1  0  0  0
 11 15  1  0  0  0
 14 16  1  0  0  0
M  END
> <minimizedAffinity>
-7.83370

$$$$
2UWD_2GG_A_1228


 30 32  0  0  0  0  0  0  0  0999 V2000
   34.2314    5.3862   25.7849 C   0  0  0  0  0  0  0  0  0  0  0  0
   34.5315    4.3664   26.7124 C   0  0  0  0  0  0  0  0  0  0  0  0
   33.9924    4.6190   27.9081 N   0  0  0  0  0  0  0  0  0  0  0  0
   33.4624    6.3066   26.5189 C   0  0  0  0  0  0  0  0  0  0  0  0
   33.3254    5.8283   27.7817 O   0  0  0  0  0  0  0  0  0  0  0  0
   32.8872    7.5129   26.0706 C   0  0  0  0  0  0  0  0  0  0  0  0
   33.6463    8.3648   25.2622 C   0  0  0  0  0  0  0  0  0  0  0  0
   33.1190    9.5666   24.7869 C   0  0  0  0  0  0  0  0  0  0  0  0
   34.0732   10.6328   23.7784 Cl  0  0  0  0  0  0  0  0  0  0  0  0
   31.8123    9.9206   25.1519 C   0  0  0  0  0  0  0  0  0  0  0  0
   31.2724   11.0471   24.6765 O   0  0  0  0  0  0  0  0  0  0  0  0
   31.0309    9.0801   25.9473 C   0  0  0  0  0  0  0  0  0  0  0  0
   31.5918    7.8951   26.4438 C   0  0  0  0  0  0  0  0  0  0  0  0
   30.8186    7.0857   27.2185 O   0  0  0  0  0  0  0  0  0  0  0  0
   31.7833   11.6220   24.1412 H   0  0  0  0  0  0  0  0  0  0  0  0
   31.1719    6.2885   27.5616 H   0  0  0  0  0  0  0  0  0  0  0  0
   35.3547    5.7067   21.6537 C   0  0  0  0  0  0  0  0  0  0  0  0
   34.0315    5.3460   21.9880 C   0  0  0  0  0  0  0  0  0  0  0  0
   33.6712    5.2448   23.3547 C   0  0  0  0  0  0  0  0  0  0  0  0
   36.2880    5.9293   22.6911 C   0  0  0  0  0  0  0  0  0  0  0  0
   35.9095    5.8255   24.0346 C   0  0  0  0  0  0  0  0  0  0  0  0
   34.6076    5.4707   24.4017 C   0  0  0  0  0  0  0  0  0  0  0  0
   35.3735    4.8532   19.3712 C   0  0  0  0  0  0  0  0  0  0  0  0
   35.8184    5.8242   20.3687 O   0  0  0  0  0  0  0  0  0  0  0  0
   35.3743    3.1353   26.4668 C   0  0  0  0  0  0  0  0  0  0  0  0
   34.9676    2.2008   25.7810 O   0  0  0  0  0  0  0  0  0  0  0  0
   36.6183    3.1896   26.9771 N   0  0  0  0  0  0  0  0  0  0  0  0
   36.9060    3.9971   27.4611 H   0  0  0  0  0  0  0  0  0  0  0  0
   37.5637    2.0592   26.8253 C   0  0  0  0  0  0  0  0  0  0  0  0
   38.6928    2.4496   25.8546 C   0  0  0  0  0  0  0  0  0  0  0  0
 23 24  1  0  0  0
 24 17  1  0  0  0
 17 18  1  0  0  0
 18 19  2  0  0  0
 17 20  2  0  0  0
 20 21  1  0  0  0
 19 22  1  0  0  0
 21 22  2  0  0  0
 22  1  1  0  0  0
  1  2  1  0  0  0
  2 25  1  0  0  0
 25 26  2  0  0  0
 25 27  1  0  0  0
 27 29  1  0  0  0
 29 30  1  0  0  0
  2  3  2  0  0  0
  1  4  2  0  0  0
  4  6  1  0  0  0
  6  7  1  0  0  0
  7  8  2  0  0  0
  8  9  1  0  0  0
  8 10  1  0  0  0
 10 11  1  0  0  0
 10 12  2  0  0  0
  6 13  2  0  0  0
 12 13  1  0  0  0
 13 14  1  0  0  0
  3  5  1  0  0  0
  4  5  1  0  0  0
 27 28  1  0  0  0
 11 15  1  0  0  0
 14 16  1  0  0  0
M  END
> <minimizedAffinity>
-7.75003

$$$$
2UWD_2GG_A_1228


 30 32  0  0  0  0  0  0  0  0999 V2000
   34.0175    5.8648   26.1359 C   0  0  0  0  0  0  0  0  0  0  0  0
   34.6883    4.7184   25.6604 C   0  0  0  0  0  0  0  0  0  0  0  0
   34.9269    4.8004   24.3488 N   0  0  0  0  0  0  0  0  0  0  0  0
   33.8492    6.6665   24.9931 C   0  0  0  0  0  0  0  0  0  0  0  0
   34.4038    6.0174   23.9379 O   0  0  0  0  0  0  0  0  0  0  0  0
   33.2454    7.9371   24.9026 C   0  0  0  0  0  0  0  0  0  0  0  0
   32.1347    8.2168   25.7049 C   0  0  0  0  0  0  0  0  0  0  0  0
   31.5067    9.4623   25.6573 C   0  0  0  0  0  0  0  0  0  0  0  0
   30.1139    9.8080   26.6599 Cl  0  0  0  0  0  0  0  0  0  0  0  0
   31.9971   10.4312   24.7703 C   0  0  0  0  0  0  0  0  0  0  0  0
   31.4367   11.6442   24.7360 O   0  0  0  0  0  0  0  0  0  0  0  0
   33.1125   10.1794   23.9690 C   0  0  0  0  0  0  0  0  0  0  0  0
   33.7064    8.9099   24.0057 C   0  0  0  0  0  0  0  0  0  0  0  0
   34.7927    8.6784   23.2186 O   0  0  0  0  0  0  0  0  0  0  0  0
   30.6877   11.8294   25.2677 H   0  0  0  0  0  0  0  0  0  0  0  0
   35.2063    7.8376   23.2265 H   0  0  0  0  0  0  0  0  0  0  0  0
   32.8346    6.7119   30.1750 C   0  0  0  0  0  0  0  0  0  0  0  0
   32.0035    5.9127   29.3607 C   0  0  0  0  0  0  0  0  0  0  0  0
   32.4045    5.6380   28.0297 C   0  0  0  0  0  0  0  0  0  0  0  0
   34.0282    7.2372   29.6306 C   0  0  0  0  0  0  0  0  0  0  0  0
   34.4055    6.9513   28.3135 C   0  0  0  0  0  0  0  0  0  0  0  0
   33.6066    6.1631   27.4790 C   0  0  0  0  0  0  0  0  0  0  0  0
   32.0320    6.0183   32.3690 C   0  0  0  0  0  0  0  0  0  0  0  0
   32.5440    7.0516   31.4713 O   0  0  0  0  0  0  0  0  0  0  0  0
   35.0881    3.5018   26.4645 C   0  0  0  0  0  0  0  0  0  0  0  0
   34.7228    2.3719   26.1504 O   0  0  0  0  0  0  0  0  0  0  0  0
   35.9367    3.7478   27.4795 N   0  0  0  0  0  0  0  0  0  0  0  0
   36.2448    4.6693   27.6378 H   0  0  0  0  0  0  0  0  0  0  0  0
   36.4169    2.6602   28.3634 C   0  0  0  0  0  0  0  0  0  0  0  0
   35.6432    2.6889   29.6939 C   0  0  0  0  0  0  0  0  0  0  0  0
 23 24  1  0  0  0
 24 17  1  0  0  0
 17 18  1  0  0  0
 18 19  2  0  0  0
 17 20  2  0  0  0
 20 21  1  0  0  0
 19 22  1  0  0  0
 21 22  2  0  0  0
 22  1  1  0  0  0
  1  2  1  0  0  0
  2 25  1  0  0  0
 25 26  2  0  0  0
 25 27  1  0  0  0
 27 29  1  0  0  0
 29 30  1  0  0  0
  2  3  2  0  0  0
  1  4  2  0  0  0
  4  6  1  0  0  0
  6  7  1  0  0  0
  7  8  2  0  0  0
  8  9  1  0  0  0
  8 10  1  0  0  0
 10 11  1  0  0  0
 10 12  2  0  0  0
  6 13  2  0  0  0
 12 13  1  0  0  0
 13 14  1  0  0  0
  3  5  1  0  0  0
  4  5  1  0  0  0
 27 28  1  0  0  0
 11 15  1  0  0  0
 14 16  1  0  0  0
M  END
> <minimizedAffinity>
-7.72762

$$$$
2UWD_2GG_A_1228


 30 32  0  0  0  0  0  0  0  0999 V2000
   31.4849    8.6733   25.9454 C   0  0  0  0  0  0  0  0  0  0  0  0
   30.5985    9.7581   25.7786 C   0  0  0  0  0  0  0  0  0  0  0  0
   30.0871   10.1557   26.9467 N   0  0  0  0  0  0  0  0  0  0  0  0
   31.4697    8.4232   27.3290 C   0  0  0  0  0  0  0  0  0  0  0  0
   30.6349    9.3219   27.9102 O   0  0  0  0  0  0  0  0  0  0  0  0
   32.1914    7.4466   28.0448 C   0  0  0  0  0  0  0  0  0  0  0  0
   31.4989    6.5904   28.9067 C   0  0  0  0  0  0  0  0  0  0  0  0
   32.1672    5.6024   29.6315 C   0  0  0  0  0  0  0  0  0  0  0  0
   31.2981    4.5348   30.7128 Cl  0  0  0  0  0  0  0  0  0  0  0  0
   33.5587    5.4929   29.4975 C   0  0  0  0  0  0  0  0  0  0  0  0
   34.2147    4.5289   30.1509 O   0  0  0  0  0  0  0  0  0  0  0  0
   34.2697    6.3279   28.6333 C   0  0  0  0  0  0  0  0  0  0  0  0
   33.5846    7.3370   27.9421 C   0  0  0  0  0  0  0  0  0  0  0  0
   34.2907    8.1441   27.1035 O   0  0  0  0  0  0  0  0  0  0  0  0
   33.7522    3.9602   30.7345 H   0  0  0  0  0  0  0  0  0  0  0  0
   33.8541    8.8253   26.6310 H   0  0  0  0  0  0  0  0  0  0  0  0
   33.7845    6.5675   22.9944 C   0  0  0  0  0  0  0  0  0  0  0  0
   34.1828    7.8622   23.3918 C   0  0  0  0  0  0  0  0  0  0  0  0
   33.4174    8.5474   24.3677 C   0  0  0  0  0  0  0  0  0  0  0  0
   32.6192    6.0040   23.5611 C   0  0  0  0  0  0  0  0  0  0  0  0
   31.8793    6.6984   24.5252 C   0  0  0  0  0  0  0  0  0  0  0  0
   32.2450    7.9822   24.9423 C   0  0  0  0  0  0  0  0  0  0  0  0
   35.8380    5.4611   22.2886 C   0  0  0  0  0  0  0  0  0  0  0  0
   34.4401    5.8164   22.0530 O   0  0  0  0  0  0  0  0  0  0  0  0
   30.2045   10.4163   24.4756 C   0  0  0  0  0  0  0  0  0  0  0  0
   29.1219   10.1916   23.9404 O   0  0  0  0  0  0  0  0  0  0  0  0
   31.0847   11.3210   24.0093 N   0  0  0  0  0  0  0  0  0  0  0  0
   31.9053   11.5039   24.5217 H   0  0  0  0  0  0  0  0  0  0  0  0
   30.8445   12.0474   22.7407 C   0  0  0  0  0  0  0  0  0  0  0  0
   32.1414   12.7369   22.2802 C   0  0  0  0  0  0  0  0  0  0  0  0
 23 24  1  0  0  0
 24 17  1  0  0  0
 17 18  1  0  0  0
 18 19  2  0  0  0
 17 20  2  0  0  0
 20 21  1  0  0  0
 19 22  1  0  0  0
 21 22  2  0  0  0
 22  1  1  0  0  0
  1  2  1  0  0  0
  2 25  1  0  0  0
 25 26  2  0  0  0
 25 27  1  0  0  0
 27 29  1  0  0  0
 29 30  1  0  0  0
  2  3  2  0  0  0
  1  4  2  0  0  0
  4  6  1  0  0  0
  6  7  1  0  0  0
  7  8  2  0  0  0
  8  9  1  0  0  0
  8 10  1  0  0  0
 10 11  1  0  0  0
 10 12  2  0  0  0
  6 13  2  0  0  0
 12 13  1  0  0  0
 13 14  1  0  0  0
  3  5  1  0  0  0
  4  5  1  0  0  0
 27 28  1  0  0  0
 11 15  1  0  0  0
 14 16  1  0  0  0
M  END
> <minimizedAffinity>
-7.58019

$$$$
2UWD_2GG_A_1228


 30 32  0  0  0  0  0  0  0  0999 V2000
   34.1380    4.9932   26.7449 C   0  0  0  0  0  0  0  0  0  0  0  0
   34.4306    4.6644   28.0853 C   0  0  0  0  0  0  0  0  0  0  0  0
   35.2184    3.5887   28.1639 N   0  0  0  0  0  0  0  0  0  0  0  0
   34.8092    4.0126   25.9933 C   0  0  0  0  0  0  0  0  0  0  0  0
   35.4533    3.1875   26.8573 O   0  0  0  0  0  0  0  0  0  0  0  0
   34.8626    3.8760   24.5913 C   0  0  0  0  0  0  0  0  0  0  0  0
   35.2732    4.9681   23.8204 C   0  0  0  0  0  0  0  0  0  0  0  0
   35.3499    4.8803   22.4296 C   0  0  0  0  0  0  0  0  0  0  0  0
   35.8604    6.2505   21.4670 Cl  0  0  0  0  0  0  0  0  0  0  0  0
   34.9864    3.6767   21.8089 C   0  0  0  0  0  0  0  0  0  0  0  0
   35.0897    3.5565   20.4818 O   0  0  0  0  0  0  0  0  0  0  0  0
   34.5858    2.5689   22.5586 C   0  0  0  0  0  0  0  0  0  0  0  0
   34.4809    2.6893   23.9514 C   0  0  0  0  0  0  0  0  0  0  0  0
   34.0886    1.6013   24.6694 O   0  0  0  0  0  0  0  0  0  0  0  0
   35.3573    4.2904   19.9643 H   0  0  0  0  0  0  0  0  0  0  0  0
   34.0114    1.6580   25.6015 H   0  0  0  0  0  0  0  0  0  0  0  0
   31.7876    8.2345   25.1953 C   0  0  0  0  0  0  0  0  0  0  0  0
   33.0862    8.4904   25.6861 C   0  0  0  0  0  0  0  0  0  0  0  0
   33.8537    7.4129   26.1937 C   0  0  0  0  0  0  0  0  0  0  0  0
   31.2809    6.9165   25.2499 C   0  0  0  0  0  0  0  0  0  0  0  0
   32.0577    5.8669   25.7539 C   0  0  0  0  0  0  0  0  0  0  0  0
   33.3479    6.0843   26.2479 C   0  0  0  0  0  0  0  0  0  0  0  0
   30.3695   10.1718   25.6131 C   0  0  0  0  0  0  0  0  0  0  0  0
   30.9520    9.1981   24.6920 O   0  0  0  0  0  0  0  0  0  0  0  0
   33.9275    5.3710   29.3238 C   0  0  0  0  0  0  0  0  0  0  0  0
   34.5904    6.2390   29.8860 O   0  0  0  0  0  0  0  0  0  0  0  0
   32.6777    5.0396   29.6966 N   0  0  0  0  0  0  0  0  0  0  0  0
   32.1734    4.3836   29.1631 H   0  0  0  0  0  0  0  0  0  0  0  0
   32.0450    5.6416   30.8932 C   0  0  0  0  0  0  0  0  0  0  0  0
   31.2355    4.5728   31.6493 C   0  0  0  0  0  0  0  0  0  0  0  0
 23 24  1  0  0  0
 24 17  1  0  0  0
 17 18  1  0  0  0
 18 19  2  0  0  0
 17 20  2  0  0  0
 20 21  1  0  0  0
 19 22  1  0  0  0
 21 22  2  0  0  0
 22  1  1  0  0  0
  1  2  1  0  0  0
  2 25  1  0  0  0
 25 26  2  0  0  0
 25 27  1  0  0  0
 27 29  1  0  0  0
 29 30  1  0  0  0
  2  3  2  0  0  0
  1  4  2  0  0  0
  4  6  1  0  0  0
  6  7  1  0  0  0
  7  8  2  0  0  0
  8  9  1  0  0  0
  8 10  1  0  0  0
 10 11  1  0  0  0
 10 12  2  0  0  0
  6 13  2  0  0  0
 12 13  1  0  0  0
 13 14  1  0  0  0
  3  5  1  0  0  0
  4  5  1  0  0  0
 27 28  1  0  0  0
 11 15  1  0  0  0
 14 16  1  0  0  0
M  END
> <minimizedAffinity>
-7.41319

$$$$
2UWD_2GG_A_1228


 30 32  0  0  0  0  0  0  0  0999 V2000
   34.3176    4.5644   27.4655 C   0  0  0  0  0  0  0  0  0  0  0  0
   34.1555    4.5040   28.8656 C   0  0  0  0  0  0  0  0  0  0  0  0
   34.8913    3.5264   29.4012 N   0  0  0  0  0  0  0  0  0  0  0  0
   35.2167    3.5229   27.1756 C   0  0  0  0  0  0  0  0  0  0  0  0
   35.5525    2.9192   28.3440 O   0  0  0  0  0  0  0  0  0  0  0  0
   35.7337    3.1437   25.9203 C   0  0  0  0  0  0  0  0  0  0  0  0
   34.8433    2.8093   24.8951 C   0  0  0  0  0  0  0  0  0  0  0  0
   35.3057    2.4349   23.6326 C   0  0  0  0  0  0  0  0  0  0  0  0
   34.1886    2.0130   22.3525 Cl  0  0  0  0  0  0  0  0  0  0  0  0
   36.6890    2.3782   23.4107 C   0  0  0  0  0  0  0  0  0  0  0  0
   37.1545    2.0609   22.1986 O   0  0  0  0  0  0  0  0  0  0  0  0
   37.5969    2.7200   24.4150 C   0  0  0  0  0  0  0  0  0  0  0  0
   37.1126    3.0584   25.6863 C   0  0  0  0  0  0  0  0  0  0  0  0
   38.0093    3.3888   26.6559 O   0  0  0  0  0  0  0  0  0  0  0  0
   36.5585    1.8292   21.5138 H   0  0  0  0  0  0  0  0  0  0  0  0
   37.7089    3.6184   27.5132 H   0  0  0  0  0  0  0  0  0  0  0  0
   32.5133    7.3527   24.7449 C   0  0  0  0  0  0  0  0  0  0  0  0
   31.7934    6.2057   25.1433 C   0  0  0  0  0  0  0  0  0  0  0  0
   32.3979    5.2930   26.0429 C   0  0  0  0  0  0  0  0  0  0  0  0
   33.8257    7.5429   25.2331 C   0  0  0  0  0  0  0  0  0  0  0  0
   34.4024    6.6290   26.1226 C   0  0  0  0  0  0  0  0  0  0  0  0
   33.7180    5.4825   26.5384 C   0  0  0  0  0  0  0  0  0  0  0  0
   32.2703    9.7081   24.1688 C   0  0  0  0  0  0  0  0  0  0  0  0
   32.0349    8.2965   23.8728 O   0  0  0  0  0  0  0  0  0  0  0  0
   33.2586    5.3770   29.7140 C   0  0  0  0  0  0  0  0  0  0  0  0
   33.1946    6.5922   29.5464 O   0  0  0  0  0  0  0  0  0  0  0  0
   32.4832    4.7108   30.5891 N   0  0  0  0  0  0  0  0  0  0  0  0
   32.5344    3.7284   30.6279 H   0  0  0  0  0  0  0  0  0  0  0  0
   31.5543    5.4253   31.4953 C   0  0  0  0  0  0  0  0  0  0  0  0
   31.0797    4.4763   32.6105 C   0  0  0  0  0  0  0  0  0  0  0  0
 23 24  1  0  0  0
 24 17  1  0  0  0
 17 18  1  0  0  0
 18 19  2  0  0  0
 17 20  2  0  0  0
 20 21  1  0  0  0
 19 22  1  0  0  0
 21 22  2  0  0  0
 22  1  1  0  0  0
  1  2  1  0  0  0
  2 25  1  0  0  0
 25 26  2  0  0  0
 25 27  1  0  0  0
 27 29  1  0  0  0
 29 30  1  0  0  0
  2  3  2  0  0  0
  1  4  2  0  0  0
  4  6  1  0  0  0
  6  7  1  0  0  0
  7  8  2  0  0  0
  8  9  1  0  0  0
  8 10  1  0  0  0
 10 11  1  0  0  0
 10 12  2  0  0  0
  6 13  2  0  0  0
 12 13  1  0  0  0
 13 14  1  0  0  0
  3  5  1  0  0  0
  4  5  1  0  0  0
 27 28  1  0  0  0
 11 15  1  0  0  0
 14 16  1  0  0  0
M  END
> <minimizedAffinity>
-7.08117

$$$$
