4KIU_KIU_A_201


 25 26  0  0  0  0  0  0  0  0999 V2000
   -7.9535   35.2705   80.0282 C   0  0  0  0  0  0  0  0  0  0  0  0
   -6.6187   35.6313   79.9409 C   0  0  0  0  0  0  0  0  0  0  0  0
   -8.5880   35.0504   81.2537 C   0  0  0  0  0  0  0  0  0  0  0  0
   -7.8544   35.1850   82.4242 C   0  0  0  0  0  0  0  0  0  0  0  0
   -6.5151   35.5499   82.3339 C   0  0  0  0  0  0  0  0  0  0  0  0
   -5.8863   35.7719   81.1031 C   0  0  0  0  0  0  0  0  0  0  0  0
   -8.4182   34.1235   78.1196 O   0  0  0  0  0  0  0  0  0  0  0  0
   -8.6458   35.1181   78.8461 C   0  0  0  0  0  0  0  0  0  0  0  0
   -9.4723   35.9956   78.4948 O   0  0  0  0  0  0  0  0  0  0  0  0
   -9.6337   36.7350   79.0471 H   0  0  0  0  0  0  0  0  0  0  0  0
   -8.4545   35.0061   83.6690 C   0  0  0  0  0  0  0  0  0  0  0  0
   -9.2965   34.0813   83.7820 O   0  0  0  0  0  0  0  0  0  0  0  0
   -8.2019   35.7847   84.6354 O   0  0  0  0  0  0  0  0  0  0  0  0
   -7.5704   36.4693   84.5327 H   0  0  0  0  0  0  0  0  0  0  0  0
   -4.5565   36.1124   81.0145 O   0  0  0  0  0  0  0  0  0  0  0  0
   -3.7496   35.0968   81.6313 C   0  0  0  0  0  0  0  0  0  0  0  0
   -3.2364   34.2106   80.6757 C   0  0  0  0  0  0  0  0  0  0  0  0
   -3.2074   34.6278   79.3510 C   0  0  0  0  0  0  0  0  0  0  0  0
   -2.7406   32.9452   81.0329 C   0  0  0  0  0  0  0  0  0  0  0  0
   -2.2182   32.0916   80.0648 C   0  0  0  0  0  0  0  0  0  0  0  0
   -2.1865   32.5191   78.7430 C   0  0  0  0  0  0  0  0  0  0  0  0
   -2.6908   33.7721   78.3957 C   0  0  0  0  0  0  0  0  0  0  0  0
   -2.6443   34.1777   77.1418 N   0  0  0  0  0  0  0  0  0  0  0  0
   -3.0185   35.4134   76.7798 O   0  0  0  0  0  0  0  0  0  0  0  0
   -2.1882   33.3351   76.2089 O   0  0  0  0  0  0  0  0  0  0  0  0
  7  8  2  0  0  0
  8  9  1  0  0  0
  8  1  1  0  0  0
  1  2  2  0  0  0
  1  3  1  0  0  0
  2  6  1  0  0  0
  3  4  2  0  0  0
  4 11  1  0  0  0
  4  5  1  0  0  0
 11 12  2  0  0  0
 11 13  1  0  0  0
  5  6  2  0  0  0
  6 15  1  0  0  0
 15 16  1  0  0  0
 16 17  1  0  0  0
 17 18  2  0  0  0
 17 19  1  0  0  0
 18 22  1  0  0  0
 19 20  2  0  0  0
 20 21  1  0  0  0
 21 22  2  0  0  0
 22 23  1  0  0  0
 23 24  1  0  0  0
 23 25  2  0  0  0
  9 10  1  0  0  0
 13 14  1  0  0  0
M  CHG 1  23   1
M  CHG 1  24  -1
M  END
> <minimizedAffinity>
-10.20016

$$$$
4KIU_KIU_A_201


 25 26  0  0  0  0  0  0  0  0999 V2000
   -9.1015   35.3980   82.2436 C   0  0  0  0  0  0  0  0  0  0  0  0
   -8.1509   34.9369   81.3475 C   0  0  0  0  0  0  0  0  0  0  0  0
  -10.0575   36.3541   81.8905 C   0  0  0  0  0  0  0  0  0  0  0  0
  -10.0481   36.8701   80.6021 C   0  0  0  0  0  0  0  0  0  0  0  0
   -9.0943   36.4036   79.7035 C   0  0  0  0  0  0  0  0  0  0  0  0
   -8.1412   35.4432   80.0628 C   0  0  0  0  0  0  0  0  0  0  0  0
   -9.7502   33.8756   83.8043 O   0  0  0  0  0  0  0  0  0  0  0  0
   -9.0655   34.8857   83.5228 C   0  0  0  0  0  0  0  0  0  0  0  0
   -8.3728   35.4580   84.3998 O   0  0  0  0  0  0  0  0  0  0  0  0
   -7.8647   36.2130   84.1766 H   0  0  0  0  0  0  0  0  0  0  0  0
  -11.0025   37.8015   80.1976 C   0  0  0  0  0  0  0  0  0  0  0  0
  -11.1753   38.8111   80.9242 O   0  0  0  0  0  0  0  0  0  0  0  0
  -11.7097   37.6077   79.1651 O   0  0  0  0  0  0  0  0  0  0  0  0
  -11.5664   36.8486   78.6348 H   0  0  0  0  0  0  0  0  0  0  0  0
   -7.1855   34.9982   79.1793 O   0  0  0  0  0  0  0  0  0  0  0  0
   -6.0568   35.8863   79.1914 C   0  0  0  0  0  0  0  0  0  0  0  0
   -4.9301   35.2629   79.7426 C   0  0  0  0  0  0  0  0  0  0  0  0
   -4.1624   34.4556   78.9130 C   0  0  0  0  0  0  0  0  0  0  0  0
   -4.5612   35.4569   81.0846 C   0  0  0  0  0  0  0  0  0  0  0  0
   -3.4250   34.8400   81.6017 C   0  0  0  0  0  0  0  0  0  0  0  0
   -2.6585   34.0395   80.7634 C   0  0  0  0  0  0  0  0  0  0  0  0
   -3.0382   33.8436   79.4359 C   0  0  0  0  0  0  0  0  0  0  0  0
   -2.2984   33.0945   78.6418 N   0  0  0  0  0  0  0  0  0  0  0  0
   -2.7765   31.9828   78.0642 O   0  0  0  0  0  0  0  0  0  0  0  0
   -1.0403   33.4708   78.3895 O   0  0  0  0  0  0  0  0  0  0  0  0
  7  8  2  0  0  0
  8  9  1  0  0  0
  8  1  1  0  0  0
  1  2  2  0  0  0
  1  3  1  0  0  0
  2  6  1  0  0  0
  3  4  2  0  0  0
  4 11  1  0  0  0
  4  5  1  0  0  0
 11 12  2  0  0  0
 11 13  1  0  0  0
  5  6  2  0  0  0
  6 15  1  0  0  0
 15 16  1  0  0  0
 16 17  1  0  0  0
 17 18  2  0  0  0
 17 19  1  0  0  0
 18 22  1  0  0  0
 19 20  2  0  0  0
 20 21  1  0  0  0
 21 22  2  0  0  0
 22 23  1  0  0  0
 23 24  1  0  0  0
 23 25  2  0  0  0
  9 10  1  0  0  0
 13 14  1  0  0  0
M  CHG 1  23   1
M  CHG 1  24  -1
M  END
> <minimizedAffinity>
-10.19463

$$$$
4KIU_KIU_A_201


 25 26  0  0  0  0  0  0  0  0999 V2000
   -7.9391   35.1211   82.3978 C   0  0  0  0  0  0  0  0  0  0  0  0
   -6.5817   35.3982   82.4141 C   0  0  0  0  0  0  0  0  0  0  0  0
   -8.6681   35.0334   81.2088 C   0  0  0  0  0  0  0  0  0  0  0  0
   -8.0144   35.2431   80.0025 C   0  0  0  0  0  0  0  0  0  0  0  0
   -6.6511   35.5186   80.0215 C   0  0  0  0  0  0  0  0  0  0  0  0
   -5.9260   35.6020   81.2161 C   0  0  0  0  0  0  0  0  0  0  0  0
   -9.3914   34.0173   83.7566 O   0  0  0  0  0  0  0  0  0  0  0  0
   -8.5632   34.9459   83.6142 C   0  0  0  0  0  0  0  0  0  0  0  0
   -8.3193   35.7402   84.5555 O   0  0  0  0  0  0  0  0  0  0  0  0
   -7.6976   36.4310   84.4364 H   0  0  0  0  0  0  0  0  0  0  0  0
   -8.6953   35.1340   78.7916 C   0  0  0  0  0  0  0  0  0  0  0  0
   -8.3793   34.1875   78.0291 O   0  0  0  0  0  0  0  0  0  0  0  0
   -9.5611   35.9920   78.4479 O   0  0  0  0  0  0  0  0  0  0  0  0
   -9.7842   36.6915   79.0301 H   0  0  0  0  0  0  0  0  0  0  0  0
   -4.5822   35.8951   81.2344 O   0  0  0  0  0  0  0  0  0  0  0  0
   -3.8483   34.7909   81.7870 C   0  0  0  0  0  0  0  0  0  0  0  0
   -3.2595   34.0202   80.7764 C   0  0  0  0  0  0  0  0  0  0  0  0
   -3.3034   34.5088   79.4768 C   0  0  0  0  0  0  0  0  0  0  0  0
   -2.6198   32.8006   81.0556 C   0  0  0  0  0  0  0  0  0  0  0  0
   -2.0257   32.0639   80.0342 C   0  0  0  0  0  0  0  0  0  0  0  0
   -2.0680   32.5628   78.7380 C   0  0  0  0  0  0  0  0  0  0  0  0
   -2.7145   33.7687   78.4682 C   0  0  0  0  0  0  0  0  0  0  0  0
   -2.7383   34.2438   77.2382 N   0  0  0  0  0  0  0  0  0  0  0  0
   -3.1535   35.4892   76.9649 O   0  0  0  0  0  0  0  0  0  0  0  0
   -2.3133   33.4642   76.2384 O   0  0  0  0  0  0  0  0  0  0  0  0
  7  8  2  0  0  0
  8  9  1  0  0  0
  8  1  1  0  0  0
  1  2  2  0  0  0
  1  3  1  0  0  0
  2  6  1  0  0  0
  3  4  2  0  0  0
  4 11  1  0  0  0
  4  5  1  0  0  0
 11 12  2  0  0  0
 11 13  1  0  0  0
  5  6  2  0  0  0
  6 15  1  0  0  0
 15 16  1  0  0  0
 16 17  1  0  0  0
 17 18  2  0  0  0
 17 19  1  0  0  0
 18 22  1  0  0  0
 19 20  2  0  0  0
 20 21  1  0  0  0
 21 22  2  0  0  0
 22 23  1  0  0  0
 23 24  1  0  0  0
 23 25  2  0  0  0
  9 10  1  0  0  0
 13 14  1  0  0  0
M  CHG 1  23   1
M  CHG 1  24  -1
M  END
> <minimizedAffinity>
-10.13937

$$$$
4KIU_KIU_A_201


 25 26  0  0  0  0  0  0  0  0999 V2000
   -2.7575   33.8963   77.9359 C   0  0  0  0  0  0  0  0  0  0  0  0
   -3.5674   35.0045   78.1244 C   0  0  0  0  0  0  0  0  0  0  0  0
   -2.3953   33.0498   78.9870 C   0  0  0  0  0  0  0  0  0  0  0  0
   -2.8513   33.3341   80.2667 C   0  0  0  0  0  0  0  0  0  0  0  0
   -3.6664   34.4458   80.4529 C   0  0  0  0  0  0  0  0  0  0  0  0
   -4.0280   35.2881   79.3949 C   0  0  0  0  0  0  0  0  0  0  0  0
   -1.8466   32.5284   76.3633 O   0  0  0  0  0  0  0  0  0  0  0  0
   -2.2991   33.6584   76.6579 C   0  0  0  0  0  0  0  0  0  0  0  0
   -2.3093   34.5874   75.8133 O   0  0  0  0  0  0  0  0  0  0  0  0
   -2.6505   35.4285   76.0461 H   0  0  0  0  0  0  0  0  0  0  0  0
   -2.5409   32.4994   81.3386 C   0  0  0  0  0  0  0  0  0  0  0  0
   -2.3541   31.2820   81.0934 O   0  0  0  0  0  0  0  0  0  0  0  0
   -2.5054   32.9426   82.5244 O   0  0  0  0  0  0  0  0  0  0  0  0
   -2.6472   33.8542   82.6883 H   0  0  0  0  0  0  0  0  0  0  0  0
   -4.8170   36.3989   79.5842 O   0  0  0  0  0  0  0  0  0  0  0  0
   -5.3026   36.4293   80.9355 C   0  0  0  0  0  0  0  0  0  0  0  0
   -6.5859   35.8748   81.0231 C   0  0  0  0  0  0  0  0  0  0  0  0
   -7.0789   35.5721   82.2860 C   0  0  0  0  0  0  0  0  0  0  0  0
   -7.3720   35.6480   79.8806 C   0  0  0  0  0  0  0  0  0  0  0  0
   -8.6523   35.1133   79.9981 C   0  0  0  0  0  0  0  0  0  0  0  0
   -9.1407   34.8196   81.2655 C   0  0  0  0  0  0  0  0  0  0  0  0
   -8.3495   35.0376   82.3931 C   0  0  0  0  0  0  0  0  0  0  0  0
   -8.8245   34.7705   83.5940 N   0  0  0  0  0  0  0  0  0  0  0  0
   -9.7688   33.8398   83.7943 O   0  0  0  0  0  0  0  0  0  0  0  0
   -8.3304   35.4345   84.6443 O   0  0  0  0  0  0  0  0  0  0  0  0
  7  8  2  0  0  0
  8  9  1  0  0  0
  8  1  1  0  0  0
  1  2  2  0  0  0
  1  3  1  0  0  0
  2  6  1  0  0  0
  3  4  2  0  0  0
  4 11  1  0  0  0
  4  5  1  0  0  0
 11 12  2  0  0  0
 11 13  1  0  0  0
  5  6  2  0  0  0
  6 15  1  0  0  0
 15 16  1  0  0  0
 16 17  1  0  0  0
 17 18  2  0  0  0
 17 19  1  0  0  0
 18 22  1  0  0  0
 19 20  2  0  0  0
 20 21  1  0  0  0
 21 22  2  0  0  0
 22 23  1  0  0  0
 23 24  1  0  0  0
 23 25  2  0  0  0
  9 10  1  0  0  0
 13 14  1  0  0  0
M  CHG 1  23   1
M  CHG 1  24  -1
M  END
> <minimizedAffinity>
-10.10111

$$$$
4KIU_KIU_A_201


 25 26  0  0  0  0  0  0  0  0999 V2000
   -2.8584   33.4178   80.4201 C   0  0  0  0  0  0  0  0  0  0  0  0
   -3.6107   34.4655   80.9259 C   0  0  0  0  0  0  0  0  0  0  0  0
   -2.4930   33.3442   79.0734 C   0  0  0  0  0  0  0  0  0  0  0  0
   -2.9074   34.3475   78.2086 C   0  0  0  0  0  0  0  0  0  0  0  0
   -3.6605   35.3996   78.7194 C   0  0  0  0  0  0  0  0  0  0  0  0
   -4.0207   35.4689   80.0703 C   0  0  0  0  0  0  0  0  0  0  0  0
   -2.2832   32.7068   82.5028 O   0  0  0  0  0  0  0  0  0  0  0  0
   -2.4869   32.4239   81.2999 C   0  0  0  0  0  0  0  0  0  0  0  0
   -2.3242   31.2525   80.8781 O   0  0  0  0  0  0  0  0  0  0  0  0
   -2.4800   31.0536   79.9758 H   0  0  0  0  0  0  0  0  0  0  0  0
   -2.5392   34.3308   76.8647 C   0  0  0  0  0  0  0  0  0  0  0  0
   -2.8158   35.3415   76.1725 O   0  0  0  0  0  0  0  0  0  0  0  0
   -1.9969   33.3099   76.3473 O   0  0  0  0  0  0  0  0  0  0  0  0
   -1.7978   32.5648   76.8794 H   0  0  0  0  0  0  0  0  0  0  0  0
   -4.7830   36.4992   80.5698 O   0  0  0  0  0  0  0  0  0  0  0  0
   -5.9348   36.7039   79.7365 C   0  0  0  0  0  0  0  0  0  0  0  0
   -7.0360   35.9800   80.2112 C   0  0  0  0  0  0  0  0  0  0  0  0
   -7.1259   35.7550   81.5790 C   0  0  0  0  0  0  0  0  0  0  0  0
   -8.0389   35.5098   79.3465 C   0  0  0  0  0  0  0  0  0  0  0  0
   -9.1330   34.8092   79.8476 C   0  0  0  0  0  0  0  0  0  0  0  0
   -9.2190   34.5944   81.2178 C   0  0  0  0  0  0  0  0  0  0  0  0
   -8.2135   35.0549   82.0674 C   0  0  0  0  0  0  0  0  0  0  0  0
   -8.3085   34.8605   83.3683 N   0  0  0  0  0  0  0  0  0  0  0  0
   -7.4242   35.3808   84.2315 O   0  0  0  0  0  0  0  0  0  0  0  0
   -9.3325   34.1404   83.8387 O   0  0  0  0  0  0  0  0  0  0  0  0
  7  8  2  0  0  0
  8  9  1  0  0  0
  8  1  1  0  0  0
  1  2  2  0  0  0
  1  3  1  0  0  0
  2  6  1  0  0  0
  3  4  2  0  0  0
  4 11  1  0  0  0
  4  5  1  0  0  0
 11 12  2  0  0  0
 11 13  1  0  0  0
  5  6  2  0  0  0
  6 15  1  0  0  0
 15 16  1  0  0  0
 16 17  1  0  0  0
 17 18  2  0  0  0
 17 19  1  0  0  0
 18 22  1  0  0  0
 19 20  2  0  0  0
 20 21  1  0  0  0
 21 22  2  0  0  0
 22 23  1  0  0  0
 23 24  1  0  0  0
 23 25  2  0  0  0
  9 10  1  0  0  0
 13 14  1  0  0  0
M  CHG 1  23   1
M  CHG 1  24  -1
M  END
> <minimizedAffinity>
-9.94712

$$$$
4KIU_KIU_A_201


 25 26  0  0  0  0  0  0  0  0999 V2000
   -3.0586   34.3736   78.0380 C   0  0  0  0  0  0  0  0  0  0  0  0
   -3.9432   35.2231   78.6823 C   0  0  0  0  0  0  0  0  0  0  0  0
   -2.5372   33.2328   78.6542 C   0  0  0  0  0  0  0  0  0  0  0  0
   -2.9073   32.9460   79.9607 C   0  0  0  0  0  0  0  0  0  0  0  0
   -3.7976   33.7991   80.6045 C   0  0  0  0  0  0  0  0  0  0  0  0
   -4.3186   34.9387   79.9804 C   0  0  0  0  0  0  0  0  0  0  0  0
   -3.0098   35.8188   76.2821 O   0  0  0  0  0  0  0  0  0  0  0  0
   -2.6900   34.7024   76.7512 C   0  0  0  0  0  0  0  0  0  0  0  0
   -2.0671   33.8657   76.0524 O   0  0  0  0  0  0  0  0  0  0  0  0
   -1.8335   33.0338   76.4149 H   0  0  0  0  0  0  0  0  0  0  0  0
   -2.4367   31.8023   80.6028 C   0  0  0  0  0  0  0  0  0  0  0  0
   -2.7882   31.6170   81.7941 O   0  0  0  0  0  0  0  0  0  0  0  0
   -1.6373   31.0088   80.0238 O   0  0  0  0  0  0  0  0  0  0  0  0
   -1.3861   31.1630   79.1344 H   0  0  0  0  0  0  0  0  0  0  0  0
   -5.1828   35.7926   80.6255 O   0  0  0  0  0  0  0  0  0  0  0  0
   -5.5145   35.2667   81.9202 C   0  0  0  0  0  0  0  0  0  0  0  0
   -6.8982   35.2941   82.1365 C   0  0  0  0  0  0  0  0  0  0  0  0
   -7.6890   35.9559   81.2058 C   0  0  0  0  0  0  0  0  0  0  0  0
   -7.4856   34.6567   83.2425 C   0  0  0  0  0  0  0  0  0  0  0  0
   -8.8660   34.6833   83.4229 C   0  0  0  0  0  0  0  0  0  0  0  0
   -9.6506   35.3415   82.4837 C   0  0  0  0  0  0  0  0  0  0  0  0
   -9.0584   35.9809   81.3950 C   0  0  0  0  0  0  0  0  0  0  0  0
   -9.8099   36.5913   80.4995 N   0  0  0  0  0  0  0  0  0  0  0  0
   -9.5133   36.5743   79.1919 O   0  0  0  0  0  0  0  0  0  0  0  0
  -10.9128   37.2265   80.9097 O   0  0  0  0  0  0  0  0  0  0  0  0
  7  8  2  0  0  0
  8  9  1  0  0  0
  8  1  1  0  0  0
  1  2  2  0  0  0
  1  3  1  0  0  0
  2  6  1  0  0  0
  3  4  2  0  0  0
  4 11  1  0  0  0
  4  5  1  0  0  0
 11 12  2  0  0  0
 11 13  1  0  0  0
  5  6  2  0  0  0
  6 15  1  0  0  0
 15 16  1  0  0  0
 16 17  1  0  0  0
 17 18  2  0  0  0
 17 19  1  0  0  0
 18 22  1  0  0  0
 19 20  2  0  0  0
 20 21  1  0  0  0
 21 22  2  0  0  0
 22 23  1  0  0  0
 23 24  1  0  0  0
 23 25  2  0  0  0
  9 10  1  0  0  0
 13 14  1  0  0  0
M  CHG 1  23   1
M  CHG 1  24  -1
M  END
> <minimizedAffinity>
-9.53852

$$$$
4KIU_KIU_A_201


 25 26  0  0  0  0  0  0  0  0999 V2000
   -2.9469   34.4668   78.1990 C   0  0  0  0  0  0  0  0  0  0  0  0
   -3.7055   35.5201   78.6834 C   0  0  0  0  0  0  0  0  0  0  0  0
   -2.5108   33.4228   79.0191 C   0  0  0  0  0  0  0  0  0  0  0  0
   -2.8371   33.4463   80.3679 C   0  0  0  0  0  0  0  0  0  0  0  0
   -3.6011   34.5035   80.8512 C   0  0  0  0  0  0  0  0  0  0  0  0
   -4.0373   35.5448   80.0236 C   0  0  0  0  0  0  0  0  0  0  0  0
   -2.7645   35.5445   76.2042 O   0  0  0  0  0  0  0  0  0  0  0  0
   -2.6167   34.4884   76.8609 C   0  0  0  0  0  0  0  0  0  0  0  0
   -2.2036   33.4396   76.3080 O   0  0  0  0  0  0  0  0  0  0  0  0
   -2.0972   32.6558   76.8103 H   0  0  0  0  0  0  0  0  0  0  0  0
   -2.4503   32.4100   81.2156 C   0  0  0  0  0  0  0  0  0  0  0  0
   -2.2440   32.6909   82.4221 O   0  0  0  0  0  0  0  0  0  0  0  0
   -2.2585   31.2392   80.7727 O   0  0  0  0  0  0  0  0  0  0  0  0
   -2.4178   31.0481   79.8693 H   0  0  0  0  0  0  0  0  0  0  0  0
   -4.7751   36.6003   80.5071 O   0  0  0  0  0  0  0  0  0  0  0  0
   -5.2887   36.2818   81.8100 C   0  0  0  0  0  0  0  0  0  0  0  0
   -6.5752   35.7341   81.7252 C   0  0  0  0  0  0  0  0  0  0  0  0
   -7.1986   35.7275   80.4839 C   0  0  0  0  0  0  0  0  0  0  0  0
   -7.2188   35.1833   82.8463 C   0  0  0  0  0  0  0  0  0  0  0  0
   -8.4903   34.6279   82.7296 C   0  0  0  0  0  0  0  0  0  0  0  0
   -9.1043   34.6189   81.4831 C   0  0  0  0  0  0  0  0  0  0  0  0
   -8.4629   35.1777   80.3780 C   0  0  0  0  0  0  0  0  0  0  0  0
   -9.0449   35.1528   79.1949 N   0  0  0  0  0  0  0  0  0  0  0  0
   -9.5591   36.2559   78.6320 O   0  0  0  0  0  0  0  0  0  0  0  0
   -9.1020   33.9943   78.5296 O   0  0  0  0  0  0  0  0  0  0  0  0
  7  8  2  0  0  0
  8  9  1  0  0  0
  8  1  1  0  0  0
  1  2  2  0  0  0
  1  3  1  0  0  0
  2  6  1  0  0  0
  3  4  2  0  0  0
  4 11  1  0  0  0
  4  5  1  0  0  0
 11 12  2  0  0  0
 11 13  1  0  0  0
  5  6  2  0  0  0
  6 15  1  0  0  0
 15 16  1  0  0  0
 16 17  1  0  0  0
 17 18  2  0  0  0
 17 19  1  0  0  0
 18 22  1  0  0  0
 19 20  2  0  0  0
 20 21  1  0  0  0
 21 22  2  0  0  0
 22 23  1  0  0  0
 23 24  1  0  0  0
 23 25  2  0  0  0
  9 10  1  0  0  0
 13 14  1  0  0  0
M  CHG 1  23   1
M  CHG 1  24  -1
M  END
> <minimizedAffinity>
-9.32311

$$$$
4KIU_KIU_A_201


 25 26  0  0  0  0  0  0  0  0999 V2000
   -8.4554   35.1196   82.1464 C   0  0  0  0  0  0  0  0  0  0  0  0
   -7.5076   34.8632   81.1690 C   0  0  0  0  0  0  0  0  0  0  0  0
   -9.5299   35.9874   81.9340 C   0  0  0  0  0  0  0  0  0  0  0  0
   -9.6465   36.6249   80.7067 C   0  0  0  0  0  0  0  0  0  0  0  0
   -8.6951   36.3639   79.7261 C   0  0  0  0  0  0  0  0  0  0  0  0
   -7.6227   35.4910   79.9444 C   0  0  0  0  0  0  0  0  0  0  0  0
   -7.1468   34.3683   83.8485 O   0  0  0  0  0  0  0  0  0  0  0  0
   -8.2946   34.4919   83.3630 C   0  0  0  0  0  0  0  0  0  0  0  0
   -9.2973   34.0213   83.9544 O   0  0  0  0  0  0  0  0  0  0  0  0
  -10.1508   34.1204   83.5808 H   0  0  0  0  0  0  0  0  0  0  0  0
  -10.7194   37.4735   80.4406 C   0  0  0  0  0  0  0  0  0  0  0  0
  -10.8690   37.8697   79.2583 O   0  0  0  0  0  0  0  0  0  0  0  0
  -11.4814   37.8759   81.3686 O   0  0  0  0  0  0  0  0  0  0  0  0
  -11.3547   37.5694   82.2449 H   0  0  0  0  0  0  0  0  0  0  0  0
   -6.6710   35.2498   78.9809 O   0  0  0  0  0  0  0  0  0  0  0  0
   -5.4305   35.8709   79.3526 C   0  0  0  0  0  0  0  0  0  0  0  0
   -4.3568   34.9845   79.1997 C   0  0  0  0  0  0  0  0  0  0  0  0
   -3.9894   34.2128   80.2948 C   0  0  0  0  0  0  0  0  0  0  0  0
   -3.6776   34.8510   77.9768 C   0  0  0  0  0  0  0  0  0  0  0  0
   -2.6258   33.9478   77.8472 C   0  0  0  0  0  0  0  0  0  0  0  0
   -2.2690   33.1747   78.9454 C   0  0  0  0  0  0  0  0  0  0  0  0
   -2.9412   33.3216   80.1584 C   0  0  0  0  0  0  0  0  0  0  0  0
   -2.6073   32.5744   81.1925 N   0  0  0  0  0  0  0  0  0  0  0  0
   -2.4723   33.0853   82.4249 O   0  0  0  0  0  0  0  0  0  0  0  0
   -2.4203   31.2635   81.0062 O   0  0  0  0  0  0  0  0  0  0  0  0
  7  8  2  0  0  0
  8  9  1  0  0  0
  8  1  1  0  0  0
  1  2  2  0  0  0
  1  3  1  0  0  0
  2  6  1  0  0  0
  3  4  2  0  0  0
  4 11  1  0  0  0
  4  5  1  0  0  0
 11 12  2  0  0  0
 11 13  1  0  0  0
  5  6  2  0  0  0
  6 15  1  0  0  0
 15 16  1  0  0  0
 16 17  1  0  0  0
 17 18  2  0  0  0
 17 19  1  0  0  0
 18 22  1  0  0  0
 19 20  2  0  0  0
 20 21  1  0  0  0
 21 22  2  0  0  0
 22 23  1  0  0  0
 23 24  1  0  0  0
 23 25  2  0  0  0
  9 10  1  0  0  0
 13 14  1  0  0  0
M  CHG 1  23   1
M  CHG 1  24  -1
M  END
> <minimizedAffinity>
-9.05306

$$$$
4KIU_KIU_A_201


 25 26  0  0  0  0  0  0  0  0999 V2000
   -6.3134   35.7168   80.6868 C   0  0  0  0  0  0  0  0  0  0  0  0
   -7.0679   35.5024   79.5448 C   0  0  0  0  0  0  0  0  0  0  0  0
   -6.8364   35.5392   81.9704 C   0  0  0  0  0  0  0  0  0  0  0  0
   -8.1606   35.1467   82.1084 C   0  0  0  0  0  0  0  0  0  0  0  0
   -8.9152   34.9296   80.9602 C   0  0  0  0  0  0  0  0  0  0  0  0
   -8.3842   35.1064   79.6771 C   0  0  0  0  0  0  0  0  0  0  0  0
   -4.0779   35.4752   81.0308 O   0  0  0  0  0  0  0  0  0  0  0  0
   -5.0106   36.1329   80.5149 C   0  0  0  0  0  0  0  0  0  0  0  0
   -4.7764   37.1853   79.8715 O   0  0  0  0  0  0  0  0  0  0  0  0
   -5.4829   37.6684   79.4902 H   0  0  0  0  0  0  0  0  0  0  0  0
   -8.7139   34.9271   83.3683 C   0  0  0  0  0  0  0  0  0  0  0  0
   -9.5750   34.0193   83.4759 O   0  0  0  0  0  0  0  0  0  0  0  0
   -8.4014   35.6551   84.3564 O   0  0  0  0  0  0  0  0  0  0  0  0
   -7.7566   36.3277   84.2574 H   0  0  0  0  0  0  0  0  0  0  0  0
   -9.1376   34.9114   78.5429 O   0  0  0  0  0  0  0  0  0  0  0  0
   -8.3530   34.2417   77.5436 C   0  0  0  0  0  0  0  0  0  0  0  0
   -9.1425   33.3702   76.7826 C   0  0  0  0  0  0  0  0  0  0  0  0
   -9.0978   33.4920   75.3996 C   0  0  0  0  0  0  0  0  0  0  0  0
   -9.9417   32.3828   77.3833 C   0  0  0  0  0  0  0  0  0  0  0  0
  -10.7021   31.5168   76.6017 C   0  0  0  0  0  0  0  0  0  0  0  0
  -10.6465   31.6407   75.2188 C   0  0  0  0  0  0  0  0  0  0  0  0
   -9.8592   32.6306   74.6314 C   0  0  0  0  0  0  0  0  0  0  0  0
   -9.7995   32.7334   73.3181 N   0  0  0  0  0  0  0  0  0  0  0  0
   -9.0708   33.6815   72.7114 O   0  0  0  0  0  0  0  0  0  0  0  0
  -10.4698   31.8491   72.5718 O   0  0  0  0  0  0  0  0  0  0  0  0
  7  8  2  0  0  0
  8  9  1  0  0  0
  8  1  1  0  0  0
  1  2  2  0  0  0
  1  3  1  0  0  0
  2  6  1  0  0  0
  3  4  2  0  0  0
  4 11  1  0  0  0
  4  5  1  0  0  0
 11 12  2  0  0  0
 11 13  1  0  0  0
  5  6  2  0  0  0
  6 15  1  0  0  0
 15 16  1  0  0  0
 16 17  1  0  0  0
 17 18  2  0  0  0
 17 19  1  0  0  0
 18 22  1  0  0  0
 19 20  2  0  0  0
 20 21  1  0  0  0
 21 22  2  0  0  0
 22 23  1  0  0  0
 23 24  1  0  0  0
 23 25  2  0  0  0
  9 10  1  0  0  0
 13 14  1  0  0  0
M  CHG 1  23   1
M  CHG 1  24  -1
M  END
> <minimizedAffinity>
-8.57844

$$$$
4KIU_KIU_A_201


 25 26  0  0  0  0  0  0  0  0999 V2000
   -8.1210   35.1301   82.0885 C   0  0  0  0  0  0  0  0  0  0  0  0
   -8.9247   34.9055   80.9826 C   0  0  0  0  0  0  0  0  0  0  0  0
   -6.7838   35.5188   81.9720 C   0  0  0  0  0  0  0  0  0  0  0  0
   -6.2366   35.6736   80.7059 C   0  0  0  0  0  0  0  0  0  0  0  0
   -7.0464   35.4499   79.5972 C   0  0  0  0  0  0  0  0  0  0  0  0
   -8.3862   35.0636   79.7209 C   0  0  0  0  0  0  0  0  0  0  0  0
   -9.5575   34.0529   83.4850 O   0  0  0  0  0  0  0  0  0  0  0  0
   -8.6874   34.9405   83.3307 C   0  0  0  0  0  0  0  0  0  0  0  0
   -8.3490   35.6823   84.2855 O   0  0  0  0  0  0  0  0  0  0  0  0
   -7.6968   36.3427   84.1573 H   0  0  0  0  0  0  0  0  0  0  0  0
   -4.9169   36.0905   80.5431 C   0  0  0  0  0  0  0  0  0  0  0  0
   -4.6788   36.9301   79.6400 O   0  0  0  0  0  0  0  0  0  0  0  0
   -3.9836   35.5972   81.2427 O   0  0  0  0  0  0  0  0  0  0  0  0
   -4.1803   34.9719   81.9122 H   0  0  0  0  0  0  0  0  0  0  0  0
   -9.1799   34.8227   78.6236 O   0  0  0  0  0  0  0  0  0  0  0  0
   -8.3916   34.2571   77.5646 C   0  0  0  0  0  0  0  0  0  0  0  0
   -9.1493   33.3689   76.7907 C   0  0  0  0  0  0  0  0  0  0  0  0
   -9.0622   33.4732   75.4083 C   0  0  0  0  0  0  0  0  0  0  0  0
   -9.9586   32.3821   77.3790 C   0  0  0  0  0  0  0  0  0  0  0  0
  -10.6866   31.4994   76.5855 C   0  0  0  0  0  0  0  0  0  0  0  0
  -10.5886   31.6059   75.2034 C   0  0  0  0  0  0  0  0  0  0  0  0
   -9.7917   32.5953   74.6281 C   0  0  0  0  0  0  0  0  0  0  0  0
   -9.6916   32.6817   73.3160 N   0  0  0  0  0  0  0  0  0  0  0  0
   -9.1725   33.7604   72.7119 O   0  0  0  0  0  0  0  0  0  0  0  0
  -10.1009   31.6503   72.5696 O   0  0  0  0  0  0  0  0  0  0  0  0
  7  8  2  0  0  0
  8  9  1  0  0  0
  8  1  1  0  0  0
  1  2  2  0  0  0
  1  3  1  0  0  0
  2  6  1  0  0  0
  3  4  2  0  0  0
  4 11  1  0  0  0
  4  5  1  0  0  0
 11 12  2  0  0  0
 11 13  1  0  0  0
  5  6  2  0  0  0
  6 15  1  0  0  0
 15 16  1  0  0  0
 16 17  1  0  0  0
 17 18  2  0  0  0
 17 19  1  0  0  0
 18 22  1  0  0  0
 19 20  2  0  0  0
 20 21  1  0  0  0
 21 22  2  0  0  0
 22 23  1  0  0  0
 23 24  1  0  0  0
 23 25  2  0  0  0
  9 10  1  0  0  0
 13 14  1  0  0  0
M  CHG 1  23   1
M  CHG 1  24  -1
M  END
> <minimizedAffinity>
-8.47610

$$$$
