5N0D_8F2_A_302


 34 37  0  0  0  0  0  0  0  0999 V2000
   -4.3962    5.4365   11.8323 C   0  0  0  0  0  0  0  0  0  0  0  0
   -5.4694    5.7162   11.3278 O   0  0  0  0  0  0  0  0  0  0  0  0
   -3.2533    6.1229   11.7202 N   0  0  0  0  0  0  0  0  0  0  0  0
   -2.9927    7.1172   10.6690 C   0  0  0  0  0  0  0  0  0  0  0  0
   -2.1017    6.4942    9.6070 C   0  0  0  0  0  0  0  0  0  0  0  0
   -0.8626    5.8964   10.2057 C   0  0  0  0  0  0  0  0  0  0  0  0
    0.2841    5.7075    9.4447 C   0  0  0  0  0  0  0  0  0  0  0  0
    1.4258    5.1100    9.9676 C   0  0  0  0  0  0  0  0  0  0  0  0
    2.5836    4.9387    9.2564 O   0  0  0  0  0  0  0  0  0  0  0  0
    1.4127    4.6820   11.2893 C   0  0  0  0  0  0  0  0  0  0  0  0
    2.5932    4.1988   11.7891 O   0  0  0  0  0  0  0  0  0  0  0  0
    0.2682    4.8548   12.0608 C   0  0  0  0  0  0  0  0  0  0  0  0
   -0.8613    5.4684   11.5322 C   0  0  0  0  0  0  0  0  0  0  0  0
   -2.0448    5.7178   12.4866 C   0  0  0  0  0  0  0  0  0  0  0  0
    2.6295    5.2153    8.3623 H   0  0  0  0  0  0  0  0  0  0  0  0
    3.3356    4.1015   11.2257 H   0  0  0  0  0  0  0  0  0  0  0  0
   -5.0335    4.4457   14.0207 C   0  0  0  0  0  0  0  0  0  0  0  0
   -5.1304    3.3876   14.9214 C   0  0  0  0  0  0  0  0  0  0  0  0
   -4.7553    2.1144   14.5062 C   0  0  0  0  0  0  0  0  0  0  0  0
   -4.3171    1.8974   13.2055 C   0  0  0  0  0  0  0  0  0  0  0  0
   -4.2430    2.9588   12.3104 C   0  0  0  0  0  0  0  0  0  0  0  0
   -4.5801    4.2403   12.7243 C   0  0  0  0  0  0  0  0  0  0  0  0
   -4.6522    0.7456   15.6435 S   0  0  0  0  0  0  0  0  0  0  0  0
   -3.5327    1.0454   16.4831 O   0  0  0  0  0  0  0  0  0  0  0  0
   -4.6184   -0.4716   14.8917 O   0  0  0  0  0  0  0  0  0  0  0  0
   -5.9538    0.7447   16.5780 N   0  0  0  0  0  0  0  0  0  0  0  0
   -5.9855    1.6097   17.1177 H   0  0  0  0  0  0  0  0  0  0  0  0
   -5.9152   -0.0517   17.2141 H   0  0  0  0  0  0  0  0  0  0  0  0
   -1.7328    6.8456   13.4690 C   0  0  0  0  0  0  0  0  0  0  0  0
   -2.5590    7.0405   14.5930 C   0  0  0  0  0  0  0  0  0  0  0  0
   -2.3286    8.0837   15.4810 C   0  0  0  0  0  0  0  0  0  0  0  0
   -1.2748    8.9523   15.2806 C   0  0  0  0  0  0  0  0  0  0  0  0
   -0.4593    8.7854   14.1808 C   0  0  0  0  0  0  0  0  0  0  0  0
   -0.6887    7.7425   13.2762 C   0  0  0  0  0  0  0  0  0  0  0  0
  9  8  1  0  0  0
  7  8  2  0  0  0
  7  6  1  0  0  0
  8 10  1  0  0  0
  5  6  1  0  0  0
  5  4  1  0  0  0
  6 13  2  0  0  0
  4  3  1  0  0  0
 10 11  1  0  0  0
 10 12  2  0  0  0
 13 12  1  0  0  0
 13 14  1  0  0  0
  3  1  1  0  0  0
  3 14  1  0  0  0
  2  1  2  0  0  0
  1 22  1  0  0  0
 14 29  1  0  0  0
 34 29  2  0  0  0
 34 33  1  0  0  0
 17 22  2  0  0  0
 17 18  1  0  0  0
 29 30  1  0  0  0
 33 32  2  0  0  0
 22 21  1  0  0  0
 18 19  2  0  0  0
 21 20  2  0  0  0
 30 31  2  0  0  0
 32 31  1  0  0  0
 19 20  1  0  0  0
 19 23  1  0  0  0
 26 23  1  0  0  0
 24 23  2  0  0  0
 23 25  2  0  0  0
 26 27  1  0  0  0
 26 28  1  0  0  0
  9 15  1  0  0  0
 11 16  1  0  0  0
M  END
> <minimizedAffinity>
-10.12924

$$$$
5N0D_8F2_A_302


 34 37  0  0  0  0  0  0  0  0999 V2000
   -4.1724    4.6949   10.7866 C   0  0  0  0  0  0  0  0  0  0  0  0
   -5.3353    4.8211   10.4456 O   0  0  0  0  0  0  0  0  0  0  0  0
   -3.1107    5.3199   10.2651 N   0  0  0  0  0  0  0  0  0  0  0  0
   -3.1083    5.9748    8.9487 C   0  0  0  0  0  0  0  0  0  0  0  0
   -2.4014    5.0750    7.9485 C   0  0  0  0  0  0  0  0  0  0  0  0
   -1.0407    4.6702    8.4339 C   0  0  0  0  0  0  0  0  0  0  0  0
   -0.0498    4.2718    7.5455 C   0  0  0  0  0  0  0  0  0  0  0  0
    1.2011    3.8459    7.9787 C   0  0  0  0  0  0  0  0  0  0  0  0
    2.2112    3.4785    7.1299 O   0  0  0  0  0  0  0  0  0  0  0  0
    1.4615    3.8106    9.3430 C   0  0  0  0  0  0  0  0  0  0  0  0
    2.7399    3.4878    9.7150 O   0  0  0  0  0  0  0  0  0  0  0  0
    0.4759    4.1966   10.2453 C   0  0  0  0  0  0  0  0  0  0  0  0
   -0.7652    4.6363    9.7998 C   0  0  0  0  0  0  0  0  0  0  0  0
   -1.7588    5.1476   10.8605 C   0  0  0  0  0  0  0  0  0  0  0  0
    2.0720    3.4899    6.2034 H   0  0  0  0  0  0  0  0  0  0  0  0
    3.3666    3.2338    9.0663 H   0  0  0  0  0  0  0  0  0  0  0  0
   -4.0304    2.4292   11.7984 C   0  0  0  0  0  0  0  0  0  0  0  0
   -4.0747    1.5478   12.8759 C   0  0  0  0  0  0  0  0  0  0  0  0
   -4.2191    2.0619   14.1600 C   0  0  0  0  0  0  0  0  0  0  0  0
   -4.2905    3.4342   14.3662 C   0  0  0  0  0  0  0  0  0  0  0  0
   -4.2261    4.3045   13.2836 C   0  0  0  0  0  0  0  0  0  0  0  0
   -4.1186    3.8012   11.9944 C   0  0  0  0  0  0  0  0  0  0  0  0
   -4.4893    1.0073   15.5715 S   0  0  0  0  0  0  0  0  0  0  0  0
   -3.3718    1.2476   16.4326 O   0  0  0  0  0  0  0  0  0  0  0  0
   -4.7026   -0.3300   15.1086 O   0  0  0  0  0  0  0  0  0  0  0  0
   -5.7986    1.5038   16.3506 N   0  0  0  0  0  0  0  0  0  0  0  0
   -5.6548    2.4569   16.6842 H   0  0  0  0  0  0  0  0  0  0  0  0
   -5.9753    0.8887   17.1449 H   0  0  0  0  0  0  0  0  0  0  0  0
   -1.3289    6.5074   11.4085 C   0  0  0  0  0  0  0  0  0  0  0  0
   -0.4563    7.3186   10.6571 C   0  0  0  0  0  0  0  0  0  0  0  0
   -0.0118    8.5404   11.1466 C   0  0  0  0  0  0  0  0  0  0  0  0
   -0.4238    8.9888   12.3852 C   0  0  0  0  0  0  0  0  0  0  0  0
   -1.2703    8.2056   13.1419 C   0  0  0  0  0  0  0  0  0  0  0  0
   -1.7168    6.9696   12.6606 C   0  0  0  0  0  0  0  0  0  0  0  0
  9  8  1  0  0  0
  7  8  2  0  0  0
  7  6  1  0  0  0
  8 10  1  0  0  0
  5  6  1  0  0  0
  5  4  1  0  0  0
  6 13  2  0  0  0
  4  3  1  0  0  0
 10 11  1  0  0  0
 10 12  2  0  0  0
 13 12  1  0  0  0
 13 14  1  0  0  0
  3  1  1  0  0  0
  3 14  1  0  0  0
  2  1  2  0  0  0
  1 22  1  0  0  0
 14 29  1  0  0  0
 34 29  2  0  0  0
 34 33  1  0  0  0
 17 22  2  0  0  0
 17 18  1  0  0  0
 29 30  1  0  0  0
 33 32  2  0  0  0
 22 21  1  0  0  0
 18 19  2  0  0  0
 21 20  2  0  0  0
 30 31  2  0  0  0
 32 31  1  0  0  0
 19 20  1  0  0  0
 19 23  1  0  0  0
 26 23  1  0  0  0
 24 23  2  0  0  0
 23 25  2  0  0  0
 26 27  1  0  0  0
 26 28  1  0  0  0
  9 15  1  0  0  0
 11 16  1  0  0  0
M  END
> <minimizedAffinity>
-9.03322

$$$$
5N0D_8F2_A_302


 34 37  0  0  0  0  0  0  0  0999 V2000
   -3.4262    3.4481   12.3261 C   0  0  0  0  0  0  0  0  0  0  0  0
   -3.2433    2.4202   11.6980 O   0  0  0  0  0  0  0  0  0  0  0  0
   -3.1331    4.6925   11.9319 N   0  0  0  0  0  0  0  0  0  0  0  0
   -2.1972    5.0098   10.8433 C   0  0  0  0  0  0  0  0  0  0  0  0
   -0.8741    5.4581   11.4417 C   0  0  0  0  0  0  0  0  0  0  0  0
   -1.0630    6.5702   12.4310 C   0  0  0  0  0  0  0  0  0  0  0  0
   -0.0258    7.4413   12.7398 C   0  0  0  0  0  0  0  0  0  0  0  0
   -0.1659    8.4470   13.6899 C   0  0  0  0  0  0  0  0  0  0  0  0
    0.8239    9.3433   13.9946 O   0  0  0  0  0  0  0  0  0  0  0  0
   -1.3787    8.5762   14.3552 C   0  0  0  0  0  0  0  0  0  0  0  0
   -1.5027    9.6461   15.2018 O   0  0  0  0  0  0  0  0  0  0  0  0
   -2.4231    7.7048   14.0644 C   0  0  0  0  0  0  0  0  0  0  0  0
   -2.2768    6.7138   13.1008 C   0  0  0  0  0  0  0  0  0  0  0  0
   -3.5169    5.8639   12.7641 C   0  0  0  0  0  0  0  0  0  0  0  0
    1.6551    9.2870   13.5658 H   0  0  0  0  0  0  0  0  0  0  0  0
   -0.7669   10.2031   15.3639 H   0  0  0  0  0  0  0  0  0  0  0  0
   -3.4233    2.7570   14.7134 C   0  0  0  0  0  0  0  0  0  0  0  0
   -4.0530    2.3441   15.8852 C   0  0  0  0  0  0  0  0  0  0  0  0
   -5.4420    2.2839   15.9172 C   0  0  0  0  0  0  0  0  0  0  0  0
   -6.1897    2.6560   14.8066 C   0  0  0  0  0  0  0  0  0  0  0  0
   -5.5495    3.0845   13.6490 C   0  0  0  0  0  0  0  0  0  0  0  0
   -4.1627    3.1139   13.5934 C   0  0  0  0  0  0  0  0  0  0  0  0
   -6.3222    1.5767   17.2965 S   0  0  0  0  0  0  0  0  0  0  0  0
   -7.6040    1.2160   16.7722 O   0  0  0  0  0  0  0  0  0  0  0  0
   -6.2811    2.5017   18.3877 O   0  0  0  0  0  0  0  0  0  0  0  0
   -5.5956    0.2183   17.7377 N   0  0  0  0  0  0  0  0  0  0  0  0
   -5.6205   -0.4471   16.9650 H   0  0  0  0  0  0  0  0  0  0  0  0
   -6.0779   -0.1789   18.5440 H   0  0  0  0  0  0  0  0  0  0  0  0
   -4.5385    6.6715   11.9650 C   0  0  0  0  0  0  0  0  0  0  0  0
   -4.1000    7.7057   11.1153 C   0  0  0  0  0  0  0  0  0  0  0  0
   -5.0059    8.4873   10.4091 C   0  0  0  0  0  0  0  0  0  0  0  0
   -6.3626    8.2602   10.5231 C   0  0  0  0  0  0  0  0  0  0  0  0
   -6.8139    7.2588   11.3573 C   0  0  0  0  0  0  0  0  0  0  0  0
   -5.9093    6.4719   12.0791 C   0  0  0  0  0  0  0  0  0  0  0  0
  9  8  1  0  0  0
  7  8  2  0  0  0
  7  6  1  0  0  0
  8 10  1  0  0  0
  5  6  1  0  0  0
  5  4  1  0  0  0
  6 13  2  0  0  0
  4  3  1  0  0  0
 10 11  1  0  0  0
 10 12  2  0  0  0
 13 12  1  0  0  0
 13 14  1  0  0  0
  3  1  1  0  0  0
  3 14  1  0  0  0
  2  1  2  0  0  0
  1 22  1  0  0  0
 14 29  1  0  0  0
 34 29  2  0  0  0
 34 33  1  0  0  0
 17 22  2  0  0  0
 17 18  1  0  0  0
 29 30  1  0  0  0
 33 32  2  0  0  0
 22 21  1  0  0  0
 18 19  2  0  0  0
 21 20  2  0  0  0
 30 31  2  0  0  0
 32 31  1  0  0  0
 19 20  1  0  0  0
 19 23  1  0  0  0
 26 23  1  0  0  0
 24 23  2  0  0  0
 23 25  2  0  0  0
 26 27  1  0  0  0
 26 28  1  0  0  0
  9 15  1  0  0  0
 11 16  1  0  0  0
M  END
> <minimizedAffinity>
-8.67254

$$$$
5N0D_8F2_A_302


 34 37  0  0  0  0  0  0  0  0999 V2000
   -3.4435    6.4563   11.5301 C   0  0  0  0  0  0  0  0  0  0  0  0
   -2.6536    7.3803   11.6130 O   0  0  0  0  0  0  0  0  0  0  0  0
   -3.3822    5.2874   12.1780 N   0  0  0  0  0  0  0  0  0  0  0  0
   -2.1622    4.7603   12.8067 C   0  0  0  0  0  0  0  0  0  0  0  0
   -1.5661    3.6875   11.9102 C   0  0  0  0  0  0  0  0  0  0  0  0
   -2.5772    2.6364   11.5581 C   0  0  0  0  0  0  0  0  0  0  0  0
   -2.1837    1.3607   11.1737 C   0  0  0  0  0  0  0  0  0  0  0  0
   -3.1030    0.3881   10.7961 C   0  0  0  0  0  0  0  0  0  0  0  0
   -2.7526   -0.8883   10.4441 O   0  0  0  0  0  0  0  0  0  0  0  0
   -4.4550    0.7079   10.7957 C   0  0  0  0  0  0  0  0  0  0  0  0
   -5.3265   -0.3127   10.5206 O   0  0  0  0  0  0  0  0  0  0  0  0
   -4.8637    1.9843   11.1680 C   0  0  0  0  0  0  0  0  0  0  0  0
   -3.9369    2.9433   11.5595 C   0  0  0  0  0  0  0  0  0  0  0  0
   -4.4829    4.2942   12.0600 C   0  0  0  0  0  0  0  0  0  0  0  0
   -1.8502   -1.1402   10.4330 H   0  0  0  0  0  0  0  0  0  0  0  0
   -4.9986   -1.1550   10.2738 H   0  0  0  0  0  0  0  0  0  0  0  0
   -4.4949    6.6922    9.2905 C   0  0  0  0  0  0  0  0  0  0  0  0
   -5.4868    7.1550    8.4292 C   0  0  0  0  0  0  0  0  0  0  0  0
   -6.5826    7.8245    8.9632 C   0  0  0  0  0  0  0  0  0  0  0  0
   -6.6987    8.0041   10.3362 C   0  0  0  0  0  0  0  0  0  0  0  0
   -5.7107    7.5205   11.1869 C   0  0  0  0  0  0  0  0  0  0  0  0
   -4.5947    6.8829   10.6624 C   0  0  0  0  0  0  0  0  0  0  0  0
   -7.7920    8.6264    7.9280 S   0  0  0  0  0  0  0  0  0  0  0  0
   -7.4126    8.2931    6.5890 O   0  0  0  0  0  0  0  0  0  0  0  0
   -7.8503   10.0118    8.2823 O   0  0  0  0  0  0  0  0  0  0  0  0
   -9.2261    7.9611    8.1898 N   0  0  0  0  0  0  0  0  0  0  0  0
   -9.1932    6.9728    7.9396 H   0  0  0  0  0  0  0  0  0  0  0  0
   -9.9288    8.4328    7.6204 H   0  0  0  0  0  0  0  0  0  0  0  0
   -5.1167    4.1545   13.4432 C   0  0  0  0  0  0  0  0  0  0  0  0
   -5.1434    2.8958   14.0747 C   0  0  0  0  0  0  0  0  0  0  0  0
   -5.7511    2.7264   15.3125 C   0  0  0  0  0  0  0  0  0  0  0  0
   -6.3398    3.7971   15.9544 C   0  0  0  0  0  0  0  0  0  0  0  0
   -6.3336    5.0365   15.3492 C   0  0  0  0  0  0  0  0  0  0  0  0
   -5.7312    5.2150   14.0986 C   0  0  0  0  0  0  0  0  0  0  0  0
  9  8  1  0  0  0
  7  8  2  0  0  0
  7  6  1  0  0  0
  8 10  1  0  0  0
  5  6  1  0  0  0
  5  4  1  0  0  0
  6 13  2  0  0  0
  4  3  1  0  0  0
 10 11  1  0  0  0
 10 12  2  0  0  0
 13 12  1  0  0  0
 13 14  1  0  0  0
  3  1  1  0  0  0
  3 14  1  0  0  0
  2  1  2  0  0  0
  1 22  1  0  0  0
 14 29  1  0  0  0
 34 29  2  0  0  0
 34 33  1  0  0  0
 17 22  2  0  0  0
 17 18  1  0  0  0
 29 30  1  0  0  0
 33 32  2  0  0  0
 22 21  1  0  0  0
 18 19  2  0  0  0
 21 20  2  0  0  0
 30 31  2  0  0  0
 32 31  1  0  0  0
 19 20  1  0  0  0
 19 23  1  0  0  0
 26 23  1  0  0  0
 24 23  2  0  0  0
 23 25  2  0  0  0
 26 27  1  0  0  0
 26 28  1  0  0  0
  9 15  1  0  0  0
 11 16  1  0  0  0
M  END
> <minimizedAffinity>
-8.63105

$$$$
5N0D_8F2_A_302


 34 37  0  0  0  0  0  0  0  0999 V2000
   -3.2781    5.9127   11.9778 C   0  0  0  0  0  0  0  0  0  0  0  0
   -3.4093    6.5212   13.0252 O   0  0  0  0  0  0  0  0  0  0  0  0
   -2.4230    4.9138   11.7316 N   0  0  0  0  0  0  0  0  0  0  0  0
   -1.2357    4.6288   12.5506 C   0  0  0  0  0  0  0  0  0  0  0  0
   -0.0017    5.1514   11.8337 C   0  0  0  0  0  0  0  0  0  0  0  0
    0.0838    4.6313   10.4290 C   0  0  0  0  0  0  0  0  0  0  0  0
    1.2987    4.5692    9.7583 C   0  0  0  0  0  0  0  0  0  0  0  0
    1.3918    4.1370    8.4398 C   0  0  0  0  0  0  0  0  0  0  0  0
    2.5760    4.0316    7.7598 O   0  0  0  0  0  0  0  0  0  0  0  0
    0.2310    3.7652    7.7730 C   0  0  0  0  0  0  0  0  0  0  0  0
    0.3863    3.2459    6.5148 O   0  0  0  0  0  0  0  0  0  0  0  0
   -0.9943    3.8320    8.4279 C   0  0  0  0  0  0  0  0  0  0  0  0
   -1.0729    4.2498    9.7513 C   0  0  0  0  0  0  0  0  0  0  0  0
   -2.4533    4.1898   10.4328 C   0  0  0  0  0  0  0  0  0  0  0  0
    3.3792    4.2733    8.1775 H   0  0  0  0  0  0  0  0  0  0  0  0
    1.2350    3.2244    6.1183 H   0  0  0  0  0  0  0  0  0  0  0  0
   -5.6088    6.6319   11.5003 C   0  0  0  0  0  0  0  0  0  0  0  0
   -6.6490    6.9732   10.6393 C   0  0  0  0  0  0  0  0  0  0  0  0
   -6.3945    7.0501    9.2742 C   0  0  0  0  0  0  0  0  0  0  0  0
   -5.1165    6.8168    8.7809 C   0  0  0  0  0  0  0  0  0  0  0  0
   -4.0823    6.4954    9.6531 C   0  0  0  0  0  0  0  0  0  0  0  0
   -4.3327    6.3802   11.0136 C   0  0  0  0  0  0  0  0  0  0  0  0
   -7.7019    7.2779    8.0841 S   0  0  0  0  0  0  0  0  0  0  0  0
   -8.5892    8.2260    8.6858 O   0  0  0  0  0  0  0  0  0  0  0  0
   -8.2302    5.9947    7.7343 O   0  0  0  0  0  0  0  0  0  0  0  0
   -7.0971    7.9678    6.7704 N   0  0  0  0  0  0  0  0  0  0  0  0
   -6.7181    8.8837    7.0112 H   0  0  0  0  0  0  0  0  0  0  0  0
   -7.8341    8.0773    6.0738 H   0  0  0  0  0  0  0  0  0  0  0  0
   -2.8602    2.7471   10.7282 C   0  0  0  0  0  0  0  0  0  0  0  0
   -4.2085    2.4442   11.0013 C   0  0  0  0  0  0  0  0  0  0  0  0
   -4.6038    1.1503   11.3169 C   0  0  0  0  0  0  0  0  0  0  0  0
   -3.6773    0.1282   11.3642 C   0  0  0  0  0  0  0  0  0  0  0  0
   -2.3502    0.4049   11.1099 C   0  0  0  0  0  0  0  0  0  0  0  0
   -1.9413    1.7067   10.7992 C   0  0  0  0  0  0  0  0  0  0  0  0
  9  8  1  0  0  0
  7  8  2  0  0  0
  7  6  1  0  0  0
  8 10  1  0  0  0
  5  6  1  0  0  0
  5  4  1  0  0  0
  6 13  2  0  0  0
  4  3  1  0  0  0
 10 11  1  0  0  0
 10 12  2  0  0  0
 13 12  1  0  0  0
 13 14  1  0  0  0
  3  1  1  0  0  0
  3 14  1  0  0  0
  2  1  2  0  0  0
  1 22  1  0  0  0
 14 29  1  0  0  0
 34 29  2  0  0  0
 34 33  1  0  0  0
 17 22  2  0  0  0
 17 18  1  0  0  0
 29 30  1  0  0  0
 33 32  2  0  0  0
 22 21  1  0  0  0
 18 19  2  0  0  0
 21 20  2  0  0  0
 30 31  2  0  0  0
 32 31  1  0  0  0
 19 20  1  0  0  0
 19 23  1  0  0  0
 26 23  1  0  0  0
 24 23  2  0  0  0
 23 25  2  0  0  0
 26 27  1  0  0  0
 26 28  1  0  0  0
  9 15  1  0  0  0
 11 16  1  0  0  0
M  END
> <minimizedAffinity>
-8.39894

$$$$
5N0D_8F2_A_302


 34 37  0  0  0  0  0  0  0  0999 V2000
   -1.0311    6.7924   12.6987 C   0  0  0  0  0  0  0  0  0  0  0  0
   -0.5383    7.7504   13.2678 O   0  0  0  0  0  0  0  0  0  0  0  0
   -2.2776    6.3279   12.8416 N   0  0  0  0  0  0  0  0  0  0  0  0
   -3.1483    6.6506   13.9815 C   0  0  0  0  0  0  0  0  0  0  0  0
   -3.1683    5.4710   14.9396 C   0  0  0  0  0  0  0  0  0  0  0  0
   -3.5260    4.1942   14.2376 C   0  0  0  0  0  0  0  0  0  0  0  0
   -4.0607    3.1170   14.9330 C   0  0  0  0  0  0  0  0  0  0  0  0
   -4.3525    1.9086   14.3098 C   0  0  0  0  0  0  0  0  0  0  0  0
   -4.9109    0.8387   14.9573 O   0  0  0  0  0  0  0  0  0  0  0  0
   -4.0917    1.7749   12.9517 C   0  0  0  0  0  0  0  0  0  0  0  0
   -4.4950    0.6059   12.3621 O   0  0  0  0  0  0  0  0  0  0  0  0
   -3.5466    2.8411   12.2440 C   0  0  0  0  0  0  0  0  0  0  0  0
   -3.2745    4.0497   12.8742 C   0  0  0  0  0  0  0  0  0  0  0  0
   -2.7746    5.2113   11.9942 C   0  0  0  0  0  0  0  0  0  0  0  0
   -5.1008    0.8924   15.8733 H   0  0  0  0  0  0  0  0  0  0  0  0
   -4.8564   -0.0823   12.8853 H   0  0  0  0  0  0  0  0  0  0  0  0
   -0.0079    6.8551   10.4346 C   0  0  0  0  0  0  0  0  0  0  0  0
    0.8170    6.3497    9.4326 C   0  0  0  0  0  0  0  0  0  0  0  0
    1.6035    5.2360    9.7069 C   0  0  0  0  0  0  0  0  0  0  0  0
    1.5866    4.6543   10.9687 C   0  0  0  0  0  0  0  0  0  0  0  0
    0.7728    5.1801   11.9661 C   0  0  0  0  0  0  0  0  0  0  0  0
   -0.0437    6.2690   11.6930 C   0  0  0  0  0  0  0  0  0  0  0  0
    2.5303    4.4013    8.4334 S   0  0  0  0  0  0  0  0  0  0  0  0
    3.4518    5.3806    7.9437 O   0  0  0  0  0  0  0  0  0  0  0  0
    1.6096    3.8235    7.5024 O   0  0  0  0  0  0  0  0  0  0  0  0
    3.3982    3.2316    9.1015 N   0  0  0  0  0  0  0  0  0  0  0  0
    4.0575    3.6352    9.7669 H   0  0  0  0  0  0  0  0  0  0  0  0
    3.9111    2.7316    8.3753 H   0  0  0  0  0  0  0  0  0  0  0  0
   -3.9008    5.7691   11.1253 C   0  0  0  0  0  0  0  0  0  0  0  0
   -3.7375    5.8333    9.7277 C   0  0  0  0  0  0  0  0  0  0  0  0
   -4.7243    6.3755    8.9139 C   0  0  0  0  0  0  0  0  0  0  0  0
   -5.8944    6.8604    9.4625 C   0  0  0  0  0  0  0  0  0  0  0  0
   -6.0705    6.8163   10.8298 C   0  0  0  0  0  0  0  0  0  0  0  0
   -5.0786    6.2795   11.6584 C   0  0  0  0  0  0  0  0  0  0  0  0
  9  8  1  0  0  0
  7  8  2  0  0  0
  7  6  1  0  0  0
  8 10  1  0  0  0
  5  6  1  0  0  0
  5  4  1  0  0  0
  6 13  2  0  0  0
  4  3  1  0  0  0
 10 11  1  0  0  0
 10 12  2  0  0  0
 13 12  1  0  0  0
 13 14  1  0  0  0
  3  1  1  0  0  0
  3 14  1  0  0  0
  2  1  2  0  0  0
  1 22  1  0  0  0
 14 29  1  0  0  0
 34 29  2  0  0  0
 34 33  1  0  0  0
 17 22  2  0  0  0
 17 18  1  0  0  0
 29 30  1  0  0  0
 33 32  2  0  0  0
 22 21  1  0  0  0
 18 19  2  0  0  0
 21 20  2  0  0  0
 30 31  2  0  0  0
 32 31  1  0  0  0
 19 20  1  0  0  0
 19 23  1  0  0  0
 26 23  1  0  0  0
 24 23  2  0  0  0
 23 25  2  0  0  0
 26 27  1  0  0  0
 26 28  1  0  0  0
  9 15  1  0  0  0
 11 16  1  0  0  0
M  END
> <minimizedAffinity>
-8.22433

$$$$
5N0D_8F2_A_302


 34 37  0  0  0  0  0  0  0  0999 V2000
   -1.8900    4.2745   12.1960 C   0  0  0  0  0  0  0  0  0  0  0  0
   -1.9307    3.1325   12.6185 O   0  0  0  0  0  0  0  0  0  0  0  0
   -2.6298    5.3099   12.6088 N   0  0  0  0  0  0  0  0  0  0  0  0
   -3.8794    5.1737   13.3715 C   0  0  0  0  0  0  0  0  0  0  0  0
   -5.0575    5.3902   12.4361 C   0  0  0  0  0  0  0  0  0  0  0  0
   -4.9364    6.6830   11.6843 C   0  0  0  0  0  0  0  0  0  0  0  0
   -6.0555    7.3160   11.1582 C   0  0  0  0  0  0  0  0  0  0  0  0
   -5.9590    8.4882   10.4163 C   0  0  0  0  0  0  0  0  0  0  0  0
   -7.0432    9.1560    9.9120 O   0  0  0  0  0  0  0  0  0  0  0  0
   -4.7025    9.0355   10.1886 C   0  0  0  0  0  0  0  0  0  0  0  0
   -4.6678   10.2450    9.5461 O   0  0  0  0  0  0  0  0  0  0  0  0
   -3.5716    8.4075   10.7000 C   0  0  0  0  0  0  0  0  0  0  0  0
   -3.6819    7.2452   11.4542 C   0  0  0  0  0  0  0  0  0  0  0  0
   -2.3908    6.6766   12.0733 C   0  0  0  0  0  0  0  0  0  0  0  0
   -7.9063    8.8167   10.0459 H   0  0  0  0  0  0  0  0  0  0  0  0
   -5.4597   10.6251    9.2200 H   0  0  0  0  0  0  0  0  0  0  0  0
   -1.0254    4.0419    9.8775 C   0  0  0  0  0  0  0  0  0  0  0  0
   -0.0035    4.0274    8.9311 C   0  0  0  0  0  0  0  0  0  0  0  0
    1.2889    4.3490    9.3318 C   0  0  0  0  0  0  0  0  0  0  0  0
    1.5507    4.7055   10.6490 C   0  0  0  0  0  0  0  0  0  0  0  0
    0.5182    4.7344   11.5800 C   0  0  0  0  0  0  0  0  0  0  0  0
   -0.7690    4.3801   11.1998 C   0  0  0  0  0  0  0  0  0  0  0  0
    2.6868    4.1598    8.2420 S   0  0  0  0  0  0  0  0  0  0  0  0
    3.3510    5.4272    8.2682 O   0  0  0  0  0  0  0  0  0  0  0  0
    2.2196    3.6745    6.9793 O   0  0  0  0  0  0  0  0  0  0  0  0
    3.6969    3.0865    8.8710 N   0  0  0  0  0  0  0  0  0  0  0  0
    4.0349    3.4249    9.7719 H   0  0  0  0  0  0  0  0  0  0  0  0
    4.4870    2.9527    8.2399 H   0  0  0  0  0  0  0  0  0  0  0  0
   -1.9104    7.5413   13.2377 C   0  0  0  0  0  0  0  0  0  0  0  0
   -0.7465    8.3215   13.0939 C   0  0  0  0  0  0  0  0  0  0  0  0
   -0.2587    9.0842   14.1477 C   0  0  0  0  0  0  0  0  0  0  0  0
   -0.9129    9.0964   15.3631 C   0  0  0  0  0  0  0  0  0  0  0  0
   -2.0489    8.3318   15.5285 C   0  0  0  0  0  0  0  0  0  0  0  0
   -2.5430    7.5539   14.4752 C   0  0  0  0  0  0  0  0  0  0  0  0
  9  8  1  0  0  0
  7  8  2  0  0  0
  7  6  1  0  0  0
  8 10  1  0  0  0
  5  6  1  0  0  0
  5  4  1  0  0  0
  6 13  2  0  0  0
  4  3  1  0  0  0
 10 11  1  0  0  0
 10 12  2  0  0  0
 13 12  1  0  0  0
 13 14  1  0  0  0
  3  1  1  0  0  0
  3 14  1  0  0  0
  2  1  2  0  0  0
  1 22  1  0  0  0
 14 29  1  0  0  0
 34 29  2  0  0  0
 34 33  1  0  0  0
 17 22  2  0  0  0
 17 18  1  0  0  0
 29 30  1  0  0  0
 33 32  2  0  0  0
 22 21  1  0  0  0
 18 19  2  0  0  0
 21 20  2  0  0  0
 30 31  2  0  0  0
 32 31  1  0  0  0
 19 20  1  0  0  0
 19 23  1  0  0  0
 26 23  1  0  0  0
 24 23  2  0  0  0
 23 25  2  0  0  0
 26 27  1  0  0  0
 26 28  1  0  0  0
  9 15  1  0  0  0
 11 16  1  0  0  0
M  END
> <minimizedAffinity>
-8.17565

$$$$
5N0D_8F2_A_302


 34 37  0  0  0  0  0  0  0  0999 V2000
   -3.1302    4.1309   10.6232 C   0  0  0  0  0  0  0  0  0  0  0  0
   -2.9725    3.3320    9.7169 O   0  0  0  0  0  0  0  0  0  0  0  0
   -3.0166    5.4618   10.5487 N   0  0  0  0  0  0  0  0  0  0  0  0
   -2.3141    6.1665    9.4663 C   0  0  0  0  0  0  0  0  0  0  0  0
   -0.9501    6.6114    9.9676 C   0  0  0  0  0  0  0  0  0  0  0  0
   -1.0582    7.3971   11.2412 C   0  0  0  0  0  0  0  0  0  0  0  0
   -0.0609    8.2849   11.6248 C   0  0  0  0  0  0  0  0  0  0  0  0
   -0.1188    8.9851   12.8248 C   0  0  0  0  0  0  0  0  0  0  0  0
    0.8291    9.8920   13.2182 O   0  0  0  0  0  0  0  0  0  0  0  0
   -1.2043    8.7816   13.6677 C   0  0  0  0  0  0  0  0  0  0  0  0
   -1.2700    9.5721   14.7847 O   0  0  0  0  0  0  0  0  0  0  0  0
   -2.2056    7.8880   13.3022 C   0  0  0  0  0  0  0  0  0  0  0  0
   -2.1452    7.2062   12.0925 C   0  0  0  0  0  0  0  0  0  0  0  0
   -3.3482    6.3198   11.7174 C   0  0  0  0  0  0  0  0  0  0  0  0
    1.5751   10.0554   12.6753 H   0  0  0  0  0  0  0  0  0  0  0  0
   -0.5671   10.1582   14.9859 H   0  0  0  0  0  0  0  0  0  0  0  0
   -3.5747    4.0434   13.0669 C   0  0  0  0  0  0  0  0  0  0  0  0
   -3.9100    3.3765   14.2429 C   0  0  0  0  0  0  0  0  0  0  0  0
   -4.2687    2.0344   14.1761 C   0  0  0  0  0  0  0  0  0  0  0  0
   -4.3180    1.3777   12.9526 C   0  0  0  0  0  0  0  0  0  0  0  0
   -3.9992    2.0600   11.7837 C   0  0  0  0  0  0  0  0  0  0  0  0
   -3.6046    3.3896   11.8421 C   0  0  0  0  0  0  0  0  0  0  0  0
   -4.5139    1.0515   15.6428 S   0  0  0  0  0  0  0  0  0  0  0  0
   -3.3610    1.3015   16.4531 O   0  0  0  0  0  0  0  0  0  0  0  0
   -4.7756   -0.2993   15.2493 O   0  0  0  0  0  0  0  0  0  0  0  0
   -5.7823    1.6159   16.4430 N   0  0  0  0  0  0  0  0  0  0  0  0
   -5.6038    2.5791   16.7274 H   0  0  0  0  0  0  0  0  0  0  0  0
   -5.9455    1.0419   17.2702 H   0  0  0  0  0  0  0  0  0  0  0  0
   -4.5577    7.1680   11.3275 C   0  0  0  0  0  0  0  0  0  0  0  0
   -5.8571    6.6973   11.5997 C   0  0  0  0  0  0  0  0  0  0  0  0
   -6.9783    7.4238   11.2184 C   0  0  0  0  0  0  0  0  0  0  0  0
   -6.8396    8.6320   10.5657 C   0  0  0  0  0  0  0  0  0  0  0  0
   -5.5763    9.1065   10.2804 C   0  0  0  0  0  0  0  0  0  0  0  0
   -4.4411    8.3778   10.6532 C   0  0  0  0  0  0  0  0  0  0  0  0
  9  8  1  0  0  0
  7  8  2  0  0  0
  7  6  1  0  0  0
  8 10  1  0  0  0
  5  6  1  0  0  0
  5  4  1  0  0  0
  6 13  2  0  0  0
  4  3  1  0  0  0
 10 11  1  0  0  0
 10 12  2  0  0  0
 13 12  1  0  0  0
 13 14  1  0  0  0
  3  1  1  0  0  0
  3 14  1  0  0  0
  2  1  2  0  0  0
  1 22  1  0  0  0
 14 29  1  0  0  0
 34 29  2  0  0  0
 34 33  1  0  0  0
 17 22  2  0  0  0
 17 18  1  0  0  0
 29 30  1  0  0  0
 33 32  2  0  0  0
 22 21  1  0  0  0
 18 19  2  0  0  0
 21 20  2  0  0  0
 30 31  2  0  0  0
 32 31  1  0  0  0
 19 20  1  0  0  0
 19 23  1  0  0  0
 26 23  1  0  0  0
 24 23  2  0  0  0
 23 25  2  0  0  0
 26 27  1  0  0  0
 26 28  1  0  0  0
  9 15  1  0  0  0
 11 16  1  0  0  0
M  END
> <minimizedAffinity>
-8.17092

$$$$
5N0D_8F2_A_302


 34 37  0  0  0  0  0  0  0  0999 V2000
   -2.5917    7.0127   13.4050 C   0  0  0  0  0  0  0  0  0  0  0  0
   -2.5008    7.8473   14.2880 O   0  0  0  0  0  0  0  0  0  0  0  0
   -2.1690    7.1320   12.1413 N   0  0  0  0  0  0  0  0  0  0  0  0
   -1.8679    8.4174   11.4943 C   0  0  0  0  0  0  0  0  0  0  0  0
   -3.0230    8.7960   10.5820 C   0  0  0  0  0  0  0  0  0  0  0  0
   -3.3560    7.6907    9.6235 C   0  0  0  0  0  0  0  0  0  0  0  0
   -4.0117    7.9505    8.4267 C   0  0  0  0  0  0  0  0  0  0  0  0
   -4.3730    6.9347    7.5484 C   0  0  0  0  0  0  0  0  0  0  0  0
   -4.9897    7.1578    6.3460 O   0  0  0  0  0  0  0  0  0  0  0  0
   -4.0756    5.6201    7.8855 C   0  0  0  0  0  0  0  0  0  0  0  0
   -4.3542    4.6670    6.9416 O   0  0  0  0  0  0  0  0  0  0  0  0
   -3.4287    5.3433    9.0854 C   0  0  0  0  0  0  0  0  0  0  0  0
   -3.0576    6.3683    9.9476 C   0  0  0  0  0  0  0  0  0  0  0  0
   -2.2492    5.9824   11.2011 C   0  0  0  0  0  0  0  0  0  0  0  0
   -5.2056    8.0314    6.0852 H   0  0  0  0  0  0  0  0  0  0  0  0
   -4.7927    4.9068    6.1490 H   0  0  0  0  0  0  0  0  0  0  0  0
   -2.2845    4.8714   14.6287 C   0  0  0  0  0  0  0  0  0  0  0  0
   -2.7308    3.6415   15.1064 C   0  0  0  0  0  0  0  0  0  0  0  0
   -4.0660    3.2953   14.9288 C   0  0  0  0  0  0  0  0  0  0  0  0
   -4.9460    4.1743   14.3093 C   0  0  0  0  0  0  0  0  0  0  0  0
   -4.4920    5.4072   13.8538 C   0  0  0  0  0  0  0  0  0  0  0  0
   -3.1537    5.7483   13.9930 C   0  0  0  0  0  0  0  0  0  0  0  0
   -4.6767    1.6674   15.3220 S   0  0  0  0  0  0  0  0  0  0  0  0
   -4.6148    0.9412   14.0904 O   0  0  0  0  0  0  0  0  0  0  0  0
   -5.9518    1.7991   15.9584 O   0  0  0  0  0  0  0  0  0  0  0  0
   -3.6587    0.9594   16.3369 N   0  0  0  0  0  0  0  0  0  0  0  0
   -2.7467    0.8617   15.8907 H   0  0  0  0  0  0  0  0  0  0  0  0
   -4.0150    0.0372   16.5878 H   0  0  0  0  0  0  0  0  0  0  0  0
   -0.8169    5.5955   10.8361 C   0  0  0  0  0  0  0  0  0  0  0  0
   -0.2175    6.1440    9.6855 C   0  0  0  0  0  0  0  0  0  0  0  0
    1.0669    5.7790    9.3019 C   0  0  0  0  0  0  0  0  0  0  0  0
    1.7876    4.8694   10.0491 C   0  0  0  0  0  0  0  0  0  0  0  0
    1.2157    4.3126   11.1740 C   0  0  0  0  0  0  0  0  0  0  0  0
   -0.0806    4.6679   11.5636 C   0  0  0  0  0  0  0  0  0  0  0  0
  9  8  1  0  0  0
  7  8  2  0  0  0
  7  6  1  0  0  0
  8 10  1  0  0  0
  5  6  1  0  0  0
  5  4  1  0  0  0
  6 13  2  0  0  0
  4  3  1  0  0  0
 10 11  1  0  0  0
 10 12  2  0  0  0
 13 12  1  0  0  0
 13 14  1  0  0  0
  3  1  1  0  0  0
  3 14  1  0  0  0
  2  1  2  0  0  0
  1 22  1  0  0  0
 14 29  1  0  0  0
 34 29  2  0  0  0
 34 33  1  0  0  0
 17 22  2  0  0  0
 17 18  1  0  0  0
 29 30  1  0  0  0
 33 32  2  0  0  0
 22 21  1  0  0  0
 18 19  2  0  0  0
 21 20  2  0  0  0
 30 31  2  0  0  0
 32 31  1  0  0  0
 19 20  1  0  0  0
 19 23  1  0  0  0
 26 23  1  0  0  0
 24 23  2  0  0  0
 23 25  2  0  0  0
 26 27  1  0  0  0
 26 28  1  0  0  0
  9 15  1  0  0  0
 11 16  1  0  0  0
M  END
> <minimizedAffinity>
-8.03191

$$$$
5N0D_8F2_A_302


 34 37  0  0  0  0  0  0  0  0999 V2000
   -2.9009    6.9872   12.9263 C   0  0  0  0  0  0  0  0  0  0  0  0
   -2.1956    7.6298   13.6840 O   0  0  0  0  0  0  0  0  0  0  0  0
   -3.1293    7.2413   11.6329 N   0  0  0  0  0  0  0  0  0  0  0  0
   -2.8805    8.5427   10.9955 C   0  0  0  0  0  0  0  0  0  0  0  0
   -4.2030    9.2716   10.8236 C   0  0  0  0  0  0  0  0  0  0  0  0
   -5.2136    8.4230   10.1097 C   0  0  0  0  0  0  0  0  0  0  0  0
   -6.2827    8.9955    9.4320 C   0  0  0  0  0  0  0  0  0  0  0  0
   -7.2567    8.2250    8.8064 C   0  0  0  0  0  0  0  0  0  0  0  0
   -8.3044    8.7558    8.1020 O   0  0  0  0  0  0  0  0  0  0  0  0
   -7.1595    6.8405    8.8705 C   0  0  0  0  0  0  0  0  0  0  0  0
   -8.0806    6.1272    8.1497 O   0  0  0  0  0  0  0  0  0  0  0  0
   -6.1005    6.2526    9.5543 C   0  0  0  0  0  0  0  0  0  0  0  0
   -5.1237    7.0330   10.1617 C   0  0  0  0  0  0  0  0  0  0  0  0
   -3.9292    6.3013   10.8031 C   0  0  0  0  0  0  0  0  0  0  0  0
   -8.4022    9.6855    8.0370 H   0  0  0  0  0  0  0  0  0  0  0  0
   -8.7759    6.5727    7.7069 H   0  0  0  0  0  0  0  0  0  0  0  0
   -2.4658    4.9686   14.3094 C   0  0  0  0  0  0  0  0  0  0  0  0
   -2.8486    3.7725   14.9118 C   0  0  0  0  0  0  0  0  0  0  0  0
   -4.1791    3.3754   14.8330 C   0  0  0  0  0  0  0  0  0  0  0  0
   -5.1161    4.1730   14.1875 C   0  0  0  0  0  0  0  0  0  0  0  0
   -4.7247    5.3742   13.6065 C   0  0  0  0  0  0  0  0  0  0  0  0
   -3.3927    5.7630   13.6473 C   0  0  0  0  0  0  0  0  0  0  0  0
   -4.7175    1.7712   15.3935 S   0  0  0  0  0  0  0  0  0  0  0  0
   -4.7317    0.9540   14.2186 O   0  0  0  0  0  0  0  0  0  0  0  0
   -5.9432    1.9270   16.1157 O   0  0  0  0  0  0  0  0  0  0  0  0
   -3.6077    1.1624   16.3761 N   0  0  0  0  0  0  0  0  0  0  0  0
   -2.7303    1.0481   15.8688 H   0  0  0  0  0  0  0  0  0  0  0  0
   -3.9209    0.2556   16.7224 H   0  0  0  0  0  0  0  0  0  0  0  0
   -2.9948    5.7313    9.7370 C   0  0  0  0  0  0  0  0  0  0  0  0
   -2.1259    4.6722   10.0647 C   0  0  0  0  0  0  0  0  0  0  0  0
   -1.2332    4.1610    9.1310 C   0  0  0  0  0  0  0  0  0  0  0  0
   -1.1838    4.6811    7.8535 C   0  0  0  0  0  0  0  0  0  0  0  0
   -2.0191    5.7251    7.5145 C   0  0  0  0  0  0  0  0  0  0  0  0
   -2.9158    6.2522    8.4508 C   0  0  0  0  0  0  0  0  0  0  0  0
  9  8  1  0  0  0
  7  8  2  0  0  0
  7  6  1  0  0  0
  8 10  1  0  0  0
  5  6  1  0  0  0
  5  4  1  0  0  0
  6 13  2  0  0  0
  4  3  1  0  0  0
 10 11  1  0  0  0
 10 12  2  0  0  0
 13 12  1  0  0  0
 13 14  1  0  0  0
  3  1  1  0  0  0
  3 14  1  0  0  0
  2  1  2  0  0  0
  1 22  1  0  0  0
 14 29  1  0  0  0
 34 29  2  0  0  0
 34 33  1  0  0  0
 17 22  2  0  0  0
 17 18  1  0  0  0
 29 30  1  0  0  0
 33 32  2  0  0  0
 22 21  1  0  0  0
 18 19  2  0  0  0
 21 20  2  0  0  0
 30 31  2  0  0  0
 32 31  1  0  0  0
 19 20  1  0  0  0
 19 23  1  0  0  0
 26 23  1  0  0  0
 24 23  2  0  0  0
 23 25  2  0  0  0
 26 27  1  0  0  0
 26 28  1  0  0  0
  9 15  1  0  0  0
 11 16  1  0  0  0
M  END
> <minimizedAffinity>
-7.75796

$$$$
