1W5W_BE4_A_1100


 58 63  0  0  0  0  0  0  0  0999 V2000
   12.7507   23.7743    5.8440 C   0  0  0  0  0  0  0  0  0  0  0  0
   12.9703   24.8788    6.8143 O   0  0  0  0  0  0  0  0  0  0  0  0
   13.2392   25.6795    6.3374 H   0  0  0  0  0  0  0  0  0  0  0  0
   14.0191   23.5792    5.1143 C   0  0  0  0  0  0  0  0  0  0  0  0
   14.4896   24.8486    4.6100 O   0  0  0  0  0  0  0  0  0  0  0  0
   14.6306   25.4587    5.3508 H   0  0  0  0  0  0  0  0  0  0  0  0
   15.0532   22.8544    6.0633 C   0  0  0  0  0  0  0  0  0  0  0  0
   15.0785   21.3484    5.8939 C   0  0  0  0  0  0  0  0  0  0  0  0
   14.0715   20.6639    6.1794 O   0  0  0  0  0  0  0  0  0  0  0  0
   16.2299   20.7546    5.4469 N   0  0  0  0  0  0  0  0  0  0  0  0
   16.9976   21.3367    5.2442 H   0  0  0  0  0  0  0  0  0  0  0  0
   16.3933   19.3310    5.2529 C   0  0  0  0  0  0  0  0  0  0  0  0
   16.2365   18.9226    3.7895 C   0  0  0  0  0  0  0  0  0  0  0  0
   17.2085   17.8966    3.4606 C   0  0  0  0  0  0  0  0  0  0  0  0
   15.2979   19.4107    2.7667 C   0  0  0  0  0  0  0  0  0  0  0  0
   15.3637   18.8342    1.3867 C   0  0  0  0  0  0  0  0  0  0  0  0
   16.3632   17.7999    1.0955 C   0  0  0  0  0  0  0  0  0  0  0  0
   17.8415   18.8552    5.5529 C   0  0  0  0  0  0  0  0  0  0  0  0
   18.7446   19.9352    5.2002 O   0  0  0  0  0  0  0  0  0  0  0  0
   17.2963   17.3113    2.1096 C   0  0  0  0  0  0  0  0  0  0  0  0
   18.0197   17.6005    4.6852 C   0  0  0  0  0  0  0  0  0  0  0  0
   18.6009   20.1876    4.2747 H   0  0  0  0  0  0  0  0  0  0  0  0
   14.8258   23.1848    7.4979 O   0  0  0  0  0  0  0  0  0  0  0  0
   15.9788   23.2261    8.3968 C   0  0  0  0  0  0  0  0  0  0  0  0
   16.4589   21.8272    8.8181 C   0  0  0  0  0  0  0  0  0  0  0  0
   17.8687   21.4935    8.5380 C   0  0  0  0  0  0  0  0  0  0  0  0
   18.4394   20.2066    8.8827 C   0  0  0  0  0  0  0  0  0  0  0  0
   17.6135   19.1753    9.5315 C   0  0  0  0  0  0  0  0  0  0  0  0
   16.1914   19.4707    9.8289 C   0  0  0  0  0  0  0  0  0  0  0  0
   15.6247   20.7734    9.4781 C   0  0  0  0  0  0  0  0  0  0  0  0
   18.1733   17.9251    9.8613 F   0  0  0  0  0  0  0  0  0  0  0  0
   14.2592   21.0480    9.7637 F   0  0  0  0  0  0  0  0  0  0  0  0
   11.6456   24.0767    4.8662 C   0  0  0  0  0  0  0  0  0  0  0  0
   10.4855   24.2628    5.7840 C   0  0  0  0  0  0  0  0  0  0  0  0
   10.1755   23.3261    6.5614 O   0  0  0  0  0  0  0  0  0  0  0  0
    9.8019   25.4368    5.7227 N   0  0  0  0  0  0  0  0  0  0  0  0
   10.1048   26.1246    5.0868 H   0  0  0  0  0  0  0  0  0  0  0  0
    8.6477   25.7209    6.5513 C   0  0  0  0  0  0  0  0  0  0  0  0
    9.0532   26.4226    7.8025 C   0  0  0  0  0  0  0  0  0  0  0  0
    7.9777   27.3257    8.2248 C   0  0  0  0  0  0  0  0  0  0  0  0
   10.3024   26.3198    8.5919 C   0  0  0  0  0  0  0  0  0  0  0  0
   10.4498   27.1530    9.8266 C   0  0  0  0  0  0  0  0  0  0  0  0
    9.3516   28.0505   10.2220 C   0  0  0  0  0  0  0  0  0  0  0  0
    7.5979   26.7173    5.9883 C   0  0  0  0  0  0  0  0  0  0  0  0
    8.3138   27.7385    5.2693 O   0  0  0  0  0  0  0  0  0  0  0  0
    8.1075   28.1510    9.4363 C   0  0  0  0  0  0  0  0  0  0  0  0
    6.8568   27.2296    7.2594 C   0  0  0  0  0  0  0  0  0  0  0  0
    8.9757   28.1412    5.8530 H   0  0  0  0  0  0  0  0  0  0  0  0
   11.4828   23.0173    3.7878 O   0  0  0  0  0  0  0  0  0  0  0  0
   11.1477   23.4488    2.4462 C   0  0  0  0  0  0  0  0  0  0  0  0
    9.6905   23.7993    2.2589 C   0  0  0  0  0  0  0  0  0  0  0  0
    8.5920   22.8360    2.4861 C   0  0  0  0  0  0  0  0  0  0  0  0
    7.1789   23.2729    2.2840 C   0  0  0  0  0  0  0  0  0  0  0  0
    6.9054   24.6805    1.8547 C   0  0  0  0  0  0  0  0  0  0  0  0
    8.0481   25.6147    1.6400 C   0  0  0  0  0  0  0  0  0  0  0  0
    9.3920   25.1648    1.8432 C   0  0  0  0  0  0  0  0  0  0  0  0
    5.5467   25.1306    1.6495 F   0  0  0  0  0  0  0  0  0  0  0  0
    8.8773   21.5346    2.8863 F   0  0  0  0  0  0  0  0  0  0  0  0
 25 26  2  0  0  0
 25 30  1  0  0  0
 25 24  1  0  0  0
 26 27  1  0  0  0
 27 28  2  0  0  0
 28 29  1  0  0  0
 28 31  1  0  0  0
 29 30  2  0  0  0
 30 32  1  0  0  0
 51 52  2  0  0  0
 51 56  1  0  0  0
 51 50  1  0  0  0
 52 53  1  0  0  0
 52 58  1  0  0  0
 53 54  2  0  0  0
 54 55  1  0  0  0
 54 57  1  0  0  0
 55 56  2  0  0  0
 50 49  1  0  0  0
 49 33  1  0  0  0
 33  1  1  0  0  0
 33 34  1  0  0  0
  1  4  1  0  0  0
  1  2  1  0  0  0
  4  7  1  0  0  0
  4  5  1  0  0  0
  7  8  1  0  0  0
  7 23  1  0  0  0
  8  9  2  0  0  0
  8 10  1  0  0  0
 10 12  1  0  0  0
 23 24  1  0  0  0
 34 35  2  0  0  0
 34 36  1  0  0  0
 36 38  1  0  0  0
 38 39  1  0  0  0
 38 44  1  0  0  0
 39 40  2  0  0  0
 39 41  1  0  0  0
 40 46  1  0  0  0
 40 47  1  0  0  0
 41 42  2  0  0  0
 42 43  1  0  0  0
 43 46  2  0  0  0
 44 45  1  0  0  0
 44 47  1  0  0  0
 12 13  1  0  0  0
 12 18  1  0  0  0
 13 14  2  0  0  0
 13 15  1  0  0  0
 14 20  1  0  0  0
 14 21  1  0  0  0
 15 16  2  0  0  0
 16 17  1  0  0  0
 17 20  2  0  0  0
 18 19  1  0  0  0
 18 21  1  0  0  0
 10 11  1  0  0  0
  5  6  1  0  0  0
  2  3  1  0  0  0
 36 37  1  0  0  0
 45 48  1  0  0  0
 19 22  1  0  0  0
M  END
> <minimizedAffinity>
-13.96189

$$$$
1W5W_BE4_A_1100


 58 63  0  0  0  0  0  0  0  0999 V2000
   13.6787   22.7416    5.1134 C   0  0  0  0  0  0  0  0  0  0  0  0
   14.0509   22.4366    3.7070 O   0  0  0  0  0  0  0  0  0  0  0  0
   14.7539   23.0404    3.4204 H   0  0  0  0  0  0  0  0  0  0  0  0
   13.2413   24.1511    5.1506 C   0  0  0  0  0  0  0  0  0  0  0  0
   14.2604   24.9915    4.5657 O   0  0  0  0  0  0  0  0  0  0  0  0
   14.4133   24.7222    3.6465 H   0  0  0  0  0  0  0  0  0  0  0  0
   11.8366   24.2736    4.4386 C   0  0  0  0  0  0  0  0  0  0  0  0
   10.6736   24.3714    5.4058 C   0  0  0  0  0  0  0  0  0  0  0  0
   10.4044   23.4173    6.1681 O   0  0  0  0  0  0  0  0  0  0  0  0
    9.9137   25.5118    5.4094 N   0  0  0  0  0  0  0  0  0  0  0  0
   10.1616   26.2307    4.7841 H   0  0  0  0  0  0  0  0  0  0  0  0
    8.7722   25.7307    6.2699 C   0  0  0  0  0  0  0  0  0  0  0  0
    9.1576   26.4026    7.5862 C   0  0  0  0  0  0  0  0  0  0  0  0
    8.1463   27.3764    7.9533 C   0  0  0  0  0  0  0  0  0  0  0  0
   10.3344   26.1953    8.4449 C   0  0  0  0  0  0  0  0  0  0  0  0
   10.4706   27.0036    9.6976 C   0  0  0  0  0  0  0  0  0  0  0  0
    9.4262   27.9792   10.0309 C   0  0  0  0  0  0  0  0  0  0  0  0
    7.7734   26.7625    5.6771 C   0  0  0  0  0  0  0  0  0  0  0  0
    8.5378   27.7285    4.9096 O   0  0  0  0  0  0  0  0  0  0  0  0
    8.2548   28.1869    9.1809 C   0  0  0  0  0  0  0  0  0  0  0  0
    7.0767   27.3693    6.9040 C   0  0  0  0  0  0  0  0  0  0  0  0
    9.2185   28.1252    5.4755 H   0  0  0  0  0  0  0  0  0  0  0  0
   11.5912   23.1558    3.4851 O   0  0  0  0  0  0  0  0  0  0  0  0
   11.0684   23.4727    2.1563 C   0  0  0  0  0  0  0  0  0  0  0  0
    9.5651   23.7966    2.1669 C   0  0  0  0  0  0  0  0  0  0  0  0
    9.1779   25.1774    1.8193 C   0  0  0  0  0  0  0  0  0  0  0  0
    7.7940   25.6076    1.7980 C   0  0  0  0  0  0  0  0  0  0  0  0
    6.7152   24.6634    2.1313 C   0  0  0  0  0  0  0  0  0  0  0  0
    7.0626   23.2667    2.4874 C   0  0  0  0  0  0  0  0  0  0  0  0
    8.4626   22.8415    2.5050 C   0  0  0  0  0  0  0  0  0  0  0  0
    5.3721   25.0886    2.1117 F   0  0  0  0  0  0  0  0  0  0  0  0
    8.7879   21.5013    2.8507 F   0  0  0  0  0  0  0  0  0  0  0  0
   14.8252   22.5420    6.0698 C   0  0  0  0  0  0  0  0  0  0  0  0
   15.0572   21.0744    5.9464 C   0  0  0  0  0  0  0  0  0  0  0  0
   14.1315   20.2886    6.2679 O   0  0  0  0  0  0  0  0  0  0  0  0
   16.2732   20.6526    5.5072 N   0  0  0  0  0  0  0  0  0  0  0  0
   16.9494   21.3291    5.2741 H   0  0  0  0  0  0  0  0  0  0  0  0
   16.6183   19.2525    5.3668 C   0  0  0  0  0  0  0  0  0  0  0  0
   16.4840   18.8129    3.9487 C   0  0  0  0  0  0  0  0  0  0  0  0
   17.4702   17.7645    3.6683 C   0  0  0  0  0  0  0  0  0  0  0  0
   15.5544   19.2733    2.8913 C   0  0  0  0  0  0  0  0  0  0  0  0
   15.6383   18.6520    1.5321 C   0  0  0  0  0  0  0  0  0  0  0  0
   16.6409   17.6027    1.2834 C   0  0  0  0  0  0  0  0  0  0  0  0
   18.0908   18.8521    5.6554 C   0  0  0  0  0  0  0  0  0  0  0  0
   18.9306   19.9160    5.1704 O   0  0  0  0  0  0  0  0  0  0  0  0
   17.5650   17.1439    2.3373 C   0  0  0  0  0  0  0  0  0  0  0  0
   18.2624   17.5037    4.8940 C   0  0  0  0  0  0  0  0  0  0  0  0
   18.7361   20.0804    4.2344 H   0  0  0  0  0  0  0  0  0  0  0  0
   14.5434   23.0595    7.4714 O   0  0  0  0  0  0  0  0  0  0  0  0
   15.6644   23.2682    8.3647 C   0  0  0  0  0  0  0  0  0  0  0  0
   16.3585   21.9952    8.7882 C   0  0  0  0  0  0  0  0  0  0  0  0
   15.6692   20.8970    9.4989 C   0  0  0  0  0  0  0  0  0  0  0  0
   16.4336   19.6702    9.8719 C   0  0  0  0  0  0  0  0  0  0  0  0
   17.8850   19.5796    9.5170 C   0  0  0  0  0  0  0  0  0  0  0  0
   18.5343   20.7139    8.7984 C   0  0  0  0  0  0  0  0  0  0  0  0
   17.7730   21.8764    8.4541 C   0  0  0  0  0  0  0  0  0  0  0  0
   18.6506   18.4042    9.8675 F   0  0  0  0  0  0  0  0  0  0  0  0
   14.3189   21.0094    9.8139 F   0  0  0  0  0  0  0  0  0  0  0  0
 25 26  2  0  0  0
 25 30  1  0  0  0
 25 24  1  0  0  0
 26 27  1  0  0  0
 27 28  2  0  0  0
 28 29  1  0  0  0
 28 31  1  0  0  0
 29 30  2  0  0  0
 30 32  1  0  0  0
 51 52  2  0  0  0
 51 56  1  0  0  0
 51 50  1  0  0  0
 52 53  1  0  0  0
 52 58  1  0  0  0
 53 54  2  0  0  0
 54 55  1  0  0  0
 54 57  1  0  0  0
 55 56  2  0  0  0
 50 49  1  0  0  0
 49 33  1  0  0  0
 33  1  1  0  0  0
 33 34  1  0  0  0
  1  4  1  0  0  0
  1  2  1  0  0  0
  4  7  1  0  0  0
  4  5  1  0  0  0
  7  8  1  0  0  0
  7 23  1  0  0  0
  8  9  2  0  0  0
  8 10  1  0  0  0
 10 12  1  0  0  0
 23 24  1  0  0  0
 34 35  2  0  0  0
 34 36  1  0  0  0
 36 38  1  0  0  0
 38 39  1  0  0  0
 38 44  1  0  0  0
 39 40  2  0  0  0
 39 41  1  0  0  0
 40 46  1  0  0  0
 40 47  1  0  0  0
 41 42  2  0  0  0
 42 43  1  0  0  0
 43 46  2  0  0  0
 44 45  1  0  0  0
 44 47  1  0  0  0
 12 13  1  0  0  0
 12 18  1  0  0  0
 13 14  2  0  0  0
 13 15  1  0  0  0
 14 20  1  0  0  0
 14 21  1  0  0  0
 15 16  2  0  0  0
 16 17  1  0  0  0
 17 20  2  0  0  0
 18 19  1  0  0  0
 18 21  1  0  0  0
 10 11  1  0  0  0
  5  6  1  0  0  0
  2  3  1  0  0  0
 36 37  1  0  0  0
 45 48  1  0  0  0
 19 22  1  0  0  0
M  END
> <minimizedAffinity>
-13.90183

$$$$
1W5W_BE4_A_1100


 58 63  0  0  0  0  0  0  0  0999 V2000
   13.5368   22.7988    5.2338 C   0  0  0  0  0  0  0  0  0  0  0  0
   13.7973   22.6842    3.7749 O   0  0  0  0  0  0  0  0  0  0  0  0
   14.4154   23.3798    3.5012 H   0  0  0  0  0  0  0  0  0  0  0  0
   12.9859   24.1477    5.4715 C   0  0  0  0  0  0  0  0  0  0  0  0
   13.5777   25.0843    4.5444 O   0  0  0  0  0  0  0  0  0  0  0  0
   13.3811   24.8078    3.6357 H   0  0  0  0  0  0  0  0  0  0  0  0
   11.4100   24.0833    5.3845 C   0  0  0  0  0  0  0  0  0  0  0  0
   10.8799   24.1120    3.9648 C   0  0  0  0  0  0  0  0  0  0  0  0
   11.6703   24.1510    2.9964 O   0  0  0  0  0  0  0  0  0  0  0  0
    9.5238   24.1187    3.7676 N   0  0  0  0  0  0  0  0  0  0  0  0
    8.9442   24.0958    4.5631 H   0  0  0  0  0  0  0  0  0  0  0  0
    8.8866   24.1571    2.4700 C   0  0  0  0  0  0  0  0  0  0  0  0
    7.3851   23.8899    2.5522 C   0  0  0  0  0  0  0  0  0  0  0  0
    6.6819   24.7578    1.6260 C   0  0  0  0  0  0  0  0  0  0  0  0
    6.6380   22.9399    3.3918 C   0  0  0  0  0  0  0  0  0  0  0  0
    5.1465   22.8854    3.2754 C   0  0  0  0  0  0  0  0  0  0  0  0
    4.4744   23.7819    2.3277 C   0  0  0  0  0  0  0  0  0  0  0  0
    8.9137   25.5765    1.8391 C   0  0  0  0  0  0  0  0  0  0  0  0
    8.8453   26.5429    2.9198 O   0  0  0  0  0  0  0  0  0  0  0  0
    5.2134   24.7260    1.4908 C   0  0  0  0  0  0  0  0  0  0  0  0
    7.6893   25.6071    0.9125 C   0  0  0  0  0  0  0  0  0  0  0  0
    8.0572   26.3706    3.4583 H   0  0  0  0  0  0  0  0  0  0  0  0
   10.7595   25.1655    6.1749 O   0  0  0  0  0  0  0  0  0  0  0  0
   10.3327   24.8719    7.5427 C   0  0  0  0  0  0  0  0  0  0  0  0
    9.5021   26.0060    8.1664 C   0  0  0  0  0  0  0  0  0  0  0  0
    8.1260   26.1794    7.6628 C   0  0  0  0  0  0  0  0  0  0  0  0
    7.2455   27.2144    8.1669 C   0  0  0  0  0  0  0  0  0  0  0  0
    7.7077   28.1412    9.2128 C   0  0  0  0  0  0  0  0  0  0  0  0
    9.0845   28.0012    9.7446 C   0  0  0  0  0  0  0  0  0  0  0  0
    9.9656   26.9523    9.2301 C   0  0  0  0  0  0  0  0  0  0  0  0
    6.8479   29.1472    9.6965 F   0  0  0  0  0  0  0  0  0  0  0  0
   11.2858   26.8265    9.7429 F   0  0  0  0  0  0  0  0  0  0  0  0
   14.7824   22.6081    6.0590 C   0  0  0  0  0  0  0  0  0  0  0  0
   15.0100   21.1421    5.9108 C   0  0  0  0  0  0  0  0  0  0  0  0
   14.0572   20.3575    6.1440 O   0  0  0  0  0  0  0  0  0  0  0  0
   16.2504   20.7199    5.5467 N   0  0  0  0  0  0  0  0  0  0  0  0
   16.9471   21.3954    5.3811 H   0  0  0  0  0  0  0  0  0  0  0  0
   16.5926   19.3205    5.3916 C   0  0  0  0  0  0  0  0  0  0  0  0
   16.4418   18.8922    3.9717 C   0  0  0  0  0  0  0  0  0  0  0  0
   17.4238   17.8452    3.6720 C   0  0  0  0  0  0  0  0  0  0  0  0
   15.5007   19.3615    2.9285 C   0  0  0  0  0  0  0  0  0  0  0  0
   15.5687   18.7508    1.5636 C   0  0  0  0  0  0  0  0  0  0  0  0
   16.5674   17.7027    1.2955 C   0  0  0  0  0  0  0  0  0  0  0  0
   18.0679   18.9167    5.6603 C   0  0  0  0  0  0  0  0  0  0  0  0
   18.9031   19.9836    5.1742 O   0  0  0  0  0  0  0  0  0  0  0  0
   17.5029   17.2348    2.3352 C   0  0  0  0  0  0  0  0  0  0  0  0
   18.2297   17.5741    4.8865 C   0  0  0  0  0  0  0  0  0  0  0  0
   18.6982   20.1555    4.2418 H   0  0  0  0  0  0  0  0  0  0  0  0
   14.6519   23.1246    7.4830 O   0  0  0  0  0  0  0  0  0  0  0  0
   15.8580   23.2818    8.2698 C   0  0  0  0  0  0  0  0  0  0  0  0
   16.4571   21.9787    8.7437 C   0  0  0  0  0  0  0  0  0  0  0  0
   15.6715   20.9299    9.4287 C   0  0  0  0  0  0  0  0  0  0  0  0
   16.3460   19.6684    9.8555 C   0  0  0  0  0  0  0  0  0  0  0  0
   17.8067   19.4934    9.5794 C   0  0  0  0  0  0  0  0  0  0  0  0
   18.5549   20.5802    8.8839 C   0  0  0  0  0  0  0  0  0  0  0  0
   17.8784   21.7778    8.4867 C   0  0  0  0  0  0  0  0  0  0  0  0
   18.4865   18.2827    9.9832 F   0  0  0  0  0  0  0  0  0  0  0  0
   14.3149   21.1206    9.6702 F   0  0  0  0  0  0  0  0  0  0  0  0
 25 26  2  0  0  0
 25 30  1  0  0  0
 25 24  1  0  0  0
 26 27  1  0  0  0
 27 28  2  0  0  0
 28 29  1  0  0  0
 28 31  1  0  0  0
 29 30  2  0  0  0
 30 32  1  0  0  0
 51 52  2  0  0  0
 51 56  1  0  0  0
 51 50  1  0  0  0
 52 53  1  0  0  0
 52 58  1  0  0  0
 53 54  2  0  0  0
 54 55  1  0  0  0
 54 57  1  0  0  0
 55 56  2  0  0  0
 50 49  1  0  0  0
 49 33  1  0  0  0
 33  1  1  0  0  0
 33 34  1  0  0  0
  1  4  1  0  0  0
  1  2  1  0  0  0
  4  7  1  0  0  0
  4  5  1  0  0  0
  7  8  1  0  0  0
  7 23  1  0  0  0
  8  9  2  0  0  0
  8 10  1  0  0  0
 10 12  1  0  0  0
 23 24  1  0  0  0
 34 35  2  0  0  0
 34 36  1  0  0  0
 36 38  1  0  0  0
 38 39  1  0  0  0
 38 44  1  0  0  0
 39 40  2  0  0  0
 39 41  1  0  0  0
 40 46  1  0  0  0
 40 47  1  0  0  0
 41 42  2  0  0  0
 42 43  1  0  0  0
 43 46  2  0  0  0
 44 45  1  0  0  0
 44 47  1  0  0  0
 12 13  1  0  0  0
 12 18  1  0  0  0
 13 14  2  0  0  0
 13 15  1  0  0  0
 14 20  1  0  0  0
 14 21  1  0  0  0
 15 16  2  0  0  0
 16 17  1  0  0  0
 17 20  2  0  0  0
 18 19  1  0  0  0
 18 21  1  0  0  0
 10 11  1  0  0  0
  5  6  1  0  0  0
  2  3  1  0  0  0
 36 37  1  0  0  0
 45 48  1  0  0  0
 19 22  1  0  0  0
M  END
> <minimizedAffinity>
-12.71716

$$$$
1W5W_BE4_A_1100


 58 63  0  0  0  0  0  0  0  0999 V2000
   13.3890   22.0772    6.0915 C   0  0  0  0  0  0  0  0  0  0  0  0
   13.3887   20.6000    5.9261 O   0  0  0  0  0  0  0  0  0  0  0  0
   13.3942   20.3805    4.9812 H   0  0  0  0  0  0  0  0  0  0  0  0
   12.1898   22.5915    5.4010 C   0  0  0  0  0  0  0  0  0  0  0  0
   11.0275   22.3974    6.2368 O   0  0  0  0  0  0  0  0  0  0  0  0
   11.1490   22.8709    7.0746 H   0  0  0  0  0  0  0  0  0  0  0  0
   12.4337   24.0995    4.9989 C   0  0  0  0  0  0  0  0  0  0  0  0
   11.8418   25.0915    5.9802 C   0  0  0  0  0  0  0  0  0  0  0  0
   12.5297   25.5284    6.9288 O   0  0  0  0  0  0  0  0  0  0  0  0
   10.5368   25.4781    5.8201 N   0  0  0  0  0  0  0  0  0  0  0  0
   10.0353   25.0988    5.0626 H   0  0  0  0  0  0  0  0  0  0  0  0
    9.8467   26.4057    6.6888 C   0  0  0  0  0  0  0  0  0  0  0  0
    8.3617   26.5224    6.3511 C   0  0  0  0  0  0  0  0  0  0  0  0
    7.5871   26.6149    7.5746 C   0  0  0  0  0  0  0  0  0  0  0  0
    7.6883   26.5459    5.0429 C   0  0  0  0  0  0  0  0  0  0  0  0
    6.1967   26.6650    4.9962 C   0  0  0  0  0  0  0  0  0  0  0  0
    5.4510   26.7539    6.2571 C   0  0  0  0  0  0  0  0  0  0  0  0
    9.7908   25.9091    8.1598 C   0  0  0  0  0  0  0  0  0  0  0  0
    9.7271   24.4593    8.1358 O   0  0  0  0  0  0  0  0  0  0  0  0
    6.1169   26.7325    7.5586 C   0  0  0  0  0  0  0  0  0  0  0  0
    8.5297   26.5675    8.7385 C   0  0  0  0  0  0  0  0  0  0  0  0
    8.9690   24.1778    7.6002 H   0  0  0  0  0  0  0  0  0  0  0  0
   11.9330   24.4033    3.6293 O   0  0  0  0  0  0  0  0  0  0  0  0
   11.2592   23.3429    2.8804 C   0  0  0  0  0  0  0  0  0  0  0  0
    9.8207   23.7135    2.4823 C   0  0  0  0  0  0  0  0  0  0  0  0
    9.5869   25.1031    2.0444 C   0  0  0  0  0  0  0  0  0  0  0  0
    8.2754   25.5760    1.6482 C   0  0  0  0  0  0  0  0  0  0  0  0
    7.1170   24.6683    1.6744 C   0  0  0  0  0  0  0  0  0  0  0  0
    7.3097   23.2642    2.1096 C   0  0  0  0  0  0  0  0  0  0  0  0
    8.6379   22.7957    2.5065 C   0  0  0  0  0  0  0  0  0  0  0  0
    5.8440   25.1350    1.2910 F   0  0  0  0  0  0  0  0  0  0  0  0
    8.8140   21.4486    2.9258 F   0  0  0  0  0  0  0  0  0  0  0  0
   14.6215   22.7222    5.5135 C   0  0  0  0  0  0  0  0  0  0  0  0
   15.0821   21.6718    4.5609 C   0  0  0  0  0  0  0  0  0  0  0  0
   14.5830   21.6423    3.4086 O   0  0  0  0  0  0  0  0  0  0  0  0
   16.0120   20.7784    4.9928 N   0  0  0  0  0  0  0  0  0  0  0  0
   16.3566   20.8653    5.9109 H   0  0  0  0  0  0  0  0  0  0  0  0
   16.5182   19.7043    4.1626 C   0  0  0  0  0  0  0  0  0  0  0  0
   17.2849   18.7200    4.9784 C   0  0  0  0  0  0  0  0  0  0  0  0
   17.1388   17.3834    4.3929 C   0  0  0  0  0  0  0  0  0  0  0  0
   18.1001   18.9215    6.1987 C   0  0  0  0  0  0  0  0  0  0  0  0
   18.7714   17.7394    6.8251 C   0  0  0  0  0  0  0  0  0  0  0  0
   18.6032   16.4109    6.2128 C   0  0  0  0  0  0  0  0  0  0  0  0
   15.4725   18.7721    3.4923 C   0  0  0  0  0  0  0  0  0  0  0  0
   14.3911   18.5945    4.4258 O   0  0  0  0  0  0  0  0  0  0  0  0
   17.7927   16.2114    4.9968 C   0  0  0  0  0  0  0  0  0  0  0  0
   16.2769   17.4724    3.1901 C   0  0  0  0  0  0  0  0  0  0  0  0
   14.7417   18.2636    5.2675 H   0  0  0  0  0  0  0  0  0  0  0  0
   15.6279   23.1594    6.5658 O   0  0  0  0  0  0  0  0  0  0  0  0
   15.3151   22.9149    7.9589 C   0  0  0  0  0  0  0  0  0  0  0  0
   16.2031   21.8855    8.6171 C   0  0  0  0  0  0  0  0  0  0  0  0
   15.6846   20.8112    9.4908 C   0  0  0  0  0  0  0  0  0  0  0  0
   16.6363   19.8314   10.0931 C   0  0  0  0  0  0  0  0  0  0  0  0
   18.0981   19.9592    9.7980 C   0  0  0  0  0  0  0  0  0  0  0  0
   18.5713   21.0594    8.9090 C   0  0  0  0  0  0  0  0  0  0  0  0
   17.6327   21.9825    8.3463 C   0  0  0  0  0  0  0  0  0  0  0  0
   19.0430   19.0254   10.3692 F   0  0  0  0  0  0  0  0  0  0  0  0
   14.3203   20.7171    9.7457 F   0  0  0  0  0  0  0  0  0  0  0  0
 25 26  2  0  0  0
 25 30  1  0  0  0
 25 24  1  0  0  0
 26 27  1  0  0  0
 27 28  2  0  0  0
 28 29  1  0  0  0
 28 31  1  0  0  0
 29 30  2  0  0  0
 30 32  1  0  0  0
 51 52  2  0  0  0
 51 56  1  0  0  0
 51 50  1  0  0  0
 52 53  1  0  0  0
 52 58  1  0  0  0
 53 54  2  0  0  0
 54 55  1  0  0  0
 54 57  1  0  0  0
 55 56  2  0  0  0
 50 49  1  0  0  0
 49 33  1  0  0  0
 33  1  1  0  0  0
 33 34  1  0  0  0
  1  4  1  0  0  0
  1  2  1  0  0  0
  4  7  1  0  0  0
  4  5  1  0  0  0
  7  8  1  0  0  0
  7 23  1  0  0  0
  8  9  2  0  0  0
  8 10  1  0  0  0
 10 12  1  0  0  0
 23 24  1  0  0  0
 34 35  2  0  0  0
 34 36  1  0  0  0
 36 38  1  0  0  0
 38 39  1  0  0  0
 38 44  1  0  0  0
 39 40  2  0  0  0
 39 41  1  0  0  0
 40 46  1  0  0  0
 40 47  1  0  0  0
 41 42  2  0  0  0
 42 43  1  0  0  0
 43 46  2  0  0  0
 44 45  1  0  0  0
 44 47  1  0  0  0
 12 13  1  0  0  0
 12 18  1  0  0  0
 13 14  2  0  0  0
 13 15  1  0  0  0
 14 20  1  0  0  0
 14 21  1  0  0  0
 15 16  2  0  0  0
 16 17  1  0  0  0
 17 20  2  0  0  0
 18 19  1  0  0  0
 18 21  1  0  0  0
 10 11  1  0  0  0
  5  6  1  0  0  0
  2  3  1  0  0  0
 36 37  1  0  0  0
 45 48  1  0  0  0
 19 22  1  0  0  0
M  END
> <minimizedAffinity>
-12.36198

$$$$
1W5W_BE4_A_1100


 58 63  0  0  0  0  0  0  0  0999 V2000
   13.4372   22.1650    6.3379 C   0  0  0  0  0  0  0  0  0  0  0  0
   13.5681   20.6959    6.5226 O   0  0  0  0  0  0  0  0  0  0  0  0
   13.7017   20.2722    5.6603 H   0  0  0  0  0  0  0  0  0  0  0  0
   12.2924   22.3882    5.4329 C   0  0  0  0  0  0  0  0  0  0  0  0
   11.2039   21.5128    5.8015 O   0  0  0  0  0  0  0  0  0  0  0  0
   10.9368   21.6963    6.7158 H   0  0  0  0  0  0  0  0  0  0  0  0
   11.9070   23.9199    5.4578 C   0  0  0  0  0  0  0  0  0  0  0  0
   10.6167   24.2080    6.1992 C   0  0  0  0  0  0  0  0  0  0  0  0
   10.2255   23.4420    7.1069 O   0  0  0  0  0  0  0  0  0  0  0  0
    9.8806   25.3063    5.8386 N   0  0  0  0  0  0  0  0  0  0  0  0
   10.2274   25.8730    5.1121 H   0  0  0  0  0  0  0  0  0  0  0  0
    8.6288   25.6891    6.4533 C   0  0  0  0  0  0  0  0  0  0  0  0
    8.8335   26.4830    7.7419 C   0  0  0  0  0  0  0  0  0  0  0  0
    7.8536   27.5504    7.8203 C   0  0  0  0  0  0  0  0  0  0  0  0
    9.8253   26.3059    8.8145 C   0  0  0  0  0  0  0  0  0  0  0  0
    9.8068   27.2425    9.9822 C   0  0  0  0  0  0  0  0  0  0  0  0
    8.8003   28.3098   10.0214 C   0  0  0  0  0  0  0  0  0  0  0  0
    7.8308   26.7037    5.5888 C   0  0  0  0  0  0  0  0  0  0  0  0
    8.7891   27.5288    4.8766 O   0  0  0  0  0  0  0  0  0  0  0  0
    7.8125   28.4879    8.9582 C   0  0  0  0  0  0  0  0  0  0  0  0
    6.9832   27.4866    6.6023 C   0  0  0  0  0  0  0  0  0  0  0  0
    9.3912   27.9466    5.5119 H   0  0  0  0  0  0  0  0  0  0  0  0
   11.8285   24.5014    4.0886 O   0  0  0  0  0  0  0  0  0  0  0  0
   11.3891   23.6430    2.9890 C   0  0  0  0  0  0  0  0  0  0  0  0
    9.9371   23.9149    2.5616 C   0  0  0  0  0  0  0  0  0  0  0  0
    9.6224   25.2807    2.1001 C   0  0  0  0  0  0  0  0  0  0  0  0
    8.2904   25.6630    1.6754 C   0  0  0  0  0  0  0  0  0  0  0  0
    7.1924   24.6830    1.6949 C   0  0  0  0  0  0  0  0  0  0  0  0
    7.4671   23.3000    2.1532 C   0  0  0  0  0  0  0  0  0  0  0  0
    8.8154   22.9233    2.5790 C   0  0  0  0  0  0  0  0  0  0  0  0
    5.8991   25.0617    1.2837 F   0  0  0  0  0  0  0  0  0  0  0  0
    9.0701   21.5959    3.0202 F   0  0  0  0  0  0  0  0  0  0  0  0
   14.6769   22.7850    5.7483 C   0  0  0  0  0  0  0  0  0  0  0  0
   15.0681   21.7569    4.7420 C   0  0  0  0  0  0  0  0  0  0  0  0
   14.5267   21.7857    3.6089 O   0  0  0  0  0  0  0  0  0  0  0  0
   15.9836   20.8195    5.1062 N   0  0  0  0  0  0  0  0  0  0  0  0
   16.3641   20.8616    6.0133 H   0  0  0  0  0  0  0  0  0  0  0  0
   16.4241   19.7617    4.2195 C   0  0  0  0  0  0  0  0  0  0  0  0
   17.2189   18.7432    4.9632 C   0  0  0  0  0  0  0  0  0  0  0  0
   17.0176   17.4261    4.3507 C   0  0  0  0  0  0  0  0  0  0  0  0
   18.1048   18.8977    6.1403 C   0  0  0  0  0  0  0  0  0  0  0  0
   18.7904   17.6882    6.6950 C   0  0  0  0  0  0  0  0  0  0  0  0
   18.5656   16.3804    6.0571 C   0  0  0  0  0  0  0  0  0  0  0  0
   15.3267   18.8649    3.5846 C   0  0  0  0  0  0  0  0  0  0  0  0
   14.2968   18.6775    4.5728 O   0  0  0  0  0  0  0  0  0  0  0  0
   17.6846   16.2277    4.8842 C   0  0  0  0  0  0  0  0  0  0  0  0
   16.0908   17.5622    3.2016 C   0  0  0  0  0  0  0  0  0  0  0  0
   14.6886   18.3176    5.3838 H   0  0  0  0  0  0  0  0  0  0  0  0
   15.7297   23.1409    6.7858 O   0  0  0  0  0  0  0  0  0  0  0  0
   15.4445   22.8600    8.1780 C   0  0  0  0  0  0  0  0  0  0  0  0
   16.1714   21.6535    8.7233 C   0  0  0  0  0  0  0  0  0  0  0  0
   17.6457   21.5431    8.7522 C   0  0  0  0  0  0  0  0  0  0  0  0
   18.2789   20.3153    9.3178 C   0  0  0  0  0  0  0  0  0  0  0  0
   17.4044   19.2204    9.8442 C   0  0  0  0  0  0  0  0  0  0  0  0
   15.9223   19.3802    9.7938 C   0  0  0  0  0  0  0  0  0  0  0  0
   15.3462   20.5707    9.2458 C   0  0  0  0  0  0  0  0  0  0  0  0
   17.9903   18.0191   10.3959 F   0  0  0  0  0  0  0  0  0  0  0  0
   18.4323   22.5780    8.2570 F   0  0  0  0  0  0  0  0  0  0  0  0
 25 26  2  0  0  0
 25 30  1  0  0  0
 25 24  1  0  0  0
 26 27  1  0  0  0
 27 28  2  0  0  0
 28 29  1  0  0  0
 28 31  1  0  0  0
 29 30  2  0  0  0
 30 32  1  0  0  0
 51 52  2  0  0  0
 51 56  1  0  0  0
 51 50  1  0  0  0
 52 53  1  0  0  0
 52 58  1  0  0  0
 53 54  2  0  0  0
 54 55  1  0  0  0
 54 57  1  0  0  0
 55 56  2  0  0  0
 50 49  1  0  0  0
 49 33  1  0  0  0
 33  1  1  0  0  0
 33 34  1  0  0  0
  1  4  1  0  0  0
  1  2  1  0  0  0
  4  7  1  0  0  0
  4  5  1  0  0  0
  7  8  1  0  0  0
  7 23  1  0  0  0
  8  9  2  0  0  0
  8 10  1  0  0  0
 10 12  1  0  0  0
 23 24  1  0  0  0
 34 35  2  0  0  0
 34 36  1  0  0  0
 36 38  1  0  0  0
 38 39  1  0  0  0
 38 44  1  0  0  0
 39 40  2  0  0  0
 39 41  1  0  0  0
 40 46  1  0  0  0
 40 47  1  0  0  0
 41 42  2  0  0  0
 42 43  1  0  0  0
 43 46  2  0  0  0
 44 45  1  0  0  0
 44 47  1  0  0  0
 12 13  1  0  0  0
 12 18  1  0  0  0
 13 14  2  0  0  0
 13 15  1  0  0  0
 14 20  1  0  0  0
 14 21  1  0  0  0
 15 16  2  0  0  0
 16 17  1  0  0  0
 17 20  2  0  0  0
 18 19  1  0  0  0
 18 21  1  0  0  0
 10 11  1  0  0  0
  5  6  1  0  0  0
  2  3  1  0  0  0
 36 37  1  0  0  0
 45 48  1  0  0  0
 19 22  1  0  0  0
M  END
> <minimizedAffinity>
-11.94764

$$$$
1W5W_BE4_A_1100


 58 63  0  0  0  0  0  0  0  0999 V2000
   13.2942   22.5850    5.1541 C   0  0  0  0  0  0  0  0  0  0  0  0
   14.0380   22.4152    3.8784 O   0  0  0  0  0  0  0  0  0  0  0  0
   14.8663   22.9183    3.9177 H   0  0  0  0  0  0  0  0  0  0  0  0
   13.0511   24.0310    5.3255 C   0  0  0  0  0  0  0  0  0  0  0  0
   13.9960   24.7800    4.5299 O   0  0  0  0  0  0  0  0  0  0  0  0
   13.8931   24.5411    3.5955 H   0  0  0  0  0  0  0  0  0  0  0  0
   11.5429   24.3448    4.9762 C   0  0  0  0  0  0  0  0  0  0  0  0
   10.8712   25.2718    5.9697 C   0  0  0  0  0  0  0  0  0  0  0  0
   11.4674   25.6181    7.0130 O   0  0  0  0  0  0  0  0  0  0  0  0
    9.5950   25.7001    5.7127 N   0  0  0  0  0  0  0  0  0  0  0  0
    9.1660   25.3921    4.8818 H   0  0  0  0  0  0  0  0  0  0  0  0
    8.8359   26.5737    6.5797 C   0  0  0  0  0  0  0  0  0  0  0  0
    7.3543   26.6139    6.2106 C   0  0  0  0  0  0  0  0  0  0  0  0
    6.5496   26.6435    7.4178 C   0  0  0  0  0  0  0  0  0  0  0  0
    6.7089   26.6215    4.8882 C   0  0  0  0  0  0  0  0  0  0  0  0
    5.2144   26.6589    4.8100 C   0  0  0  0  0  0  0  0  0  0  0  0
    4.4380   26.6859    6.0550 C   0  0  0  0  0  0  0  0  0  0  0  0
    8.7760   26.0508    8.0414 C   0  0  0  0  0  0  0  0  0  0  0  0
    8.7934   24.6003    7.9940 O   0  0  0  0  0  0  0  0  0  0  0  0
    5.0758   26.6799    7.3706 C   0  0  0  0  0  0  0  0  0  0  0  0
    7.4681   26.6291    8.6016 C   0  0  0  0  0  0  0  0  0  0  0  0
    8.0638   24.2862    7.4373 H   0  0  0  0  0  0  0  0  0  0  0  0
   10.7301   23.1047    4.8326 O   0  0  0  0  0  0  0  0  0  0  0  0
   10.3637   22.6611    3.4879 C   0  0  0  0  0  0  0  0  0  0  0  0
    9.1341   23.3970    2.9298 C   0  0  0  0  0  0  0  0  0  0  0  0
    7.8113   22.8398    3.2718 C   0  0  0  0  0  0  0  0  0  0  0  0
    6.5778   23.4394    2.8033 C   0  0  0  0  0  0  0  0  0  0  0  0
    6.6094   24.6420    1.9550 C   0  0  0  0  0  0  0  0  0  0  0  0
    7.9188   25.2322    1.5877 C   0  0  0  0  0  0  0  0  0  0  0  0
    9.1587   24.6202    2.0666 C   0  0  0  0  0  0  0  0  0  0  0  0
    5.4068   25.2183    1.5003 F   0  0  0  0  0  0  0  0  0  0  0  0
   10.4107   25.1903    1.7073 F   0  0  0  0  0  0  0  0  0  0  0  0
   14.0559   22.0556    6.3408 C   0  0  0  0  0  0  0  0  0  0  0  0
   14.3928   20.6778    5.8815 C   0  0  0  0  0  0  0  0  0  0  0  0
   13.4660   19.8380    5.7641 O   0  0  0  0  0  0  0  0  0  0  0  0
   15.6970   20.3877    5.6282 N   0  0  0  0  0  0  0  0  0  0  0  0
   16.3678   21.0991    5.7433 H   0  0  0  0  0  0  0  0  0  0  0  0
   16.1438   19.0788    5.1965 C   0  0  0  0  0  0  0  0  0  0  0  0
   15.9943   18.9275    3.7210 C   0  0  0  0  0  0  0  0  0  0  0  0
   17.0479   18.0433    3.2127 C   0  0  0  0  0  0  0  0  0  0  0  0
   14.9955   19.5151    2.7982 C   0  0  0  0  0  0  0  0  0  0  0  0
   15.0795   19.1926    1.3389 C   0  0  0  0  0  0  0  0  0  0  0  0
   16.1506   18.3024    0.8613 C   0  0  0  0  0  0  0  0  0  0  0  0
   17.6520   18.7511    5.3692 C   0  0  0  0  0  0  0  0  0  0  0  0
   18.3899   19.9570    5.0981 O   0  0  0  0  0  0  0  0  0  0  0  0
   17.1436   17.7165    1.7810 C   0  0  0  0  0  0  0  0  0  0  0  0
   17.9003   17.6047    4.3437 C   0  0  0  0  0  0  0  0  0  0  0  0
   18.1507   20.2919    4.2197 H   0  0  0  0  0  0  0  0  0  0  0  0
   13.2877   22.1559    7.6490 O   0  0  0  0  0  0  0  0  0  0  0  0
   14.0288   22.4404    8.8607 C   0  0  0  0  0  0  0  0  0  0  0  0
   15.3154   21.6600    8.9920 C   0  0  0  0  0  0  0  0  0  0  0  0
   16.6323   22.1995    8.5904 C   0  0  0  0  0  0  0  0  0  0  0  0
   17.8538   21.3590    8.7640 C   0  0  0  0  0  0  0  0  0  0  0  0
   17.7172   19.9852    9.3422 C   0  0  0  0  0  0  0  0  0  0  0  0
   16.3667   19.4872    9.7332 C   0  0  0  0  0  0  0  0  0  0  0  0
   15.2149   20.3185    9.5547 C   0  0  0  0  0  0  0  0  0  0  0  0
   18.8829   19.1483    9.5199 F   0  0  0  0  0  0  0  0  0  0  0  0
   16.7279   23.4807    8.0571 F   0  0  0  0  0  0  0  0  0  0  0  0
 25 26  2  0  0  0
 25 30  1  0  0  0
 25 24  1  0  0  0
 26 27  1  0  0  0
 27 28  2  0  0  0
 28 29  1  0  0  0
 28 31  1  0  0  0
 29 30  2  0  0  0
 30 32  1  0  0  0
 51 52  2  0  0  0
 51 56  1  0  0  0
 51 50  1  0  0  0
 52 53  1  0  0  0
 52 58  1  0  0  0
 53 54  2  0  0  0
 54 55  1  0  0  0
 54 57  1  0  0  0
 55 56  2  0  0  0
 50 49  1  0  0  0
 49 33  1  0  0  0
 33  1  1  0  0  0
 33 34  1  0  0  0
  1  4  1  0  0  0
  1  2  1  0  0  0
  4  7  1  0  0  0
  4  5  1  0  0  0
  7  8  1  0  0  0
  7 23  1  0  0  0
  8  9  2  0  0  0
  8 10  1  0  0  0
 10 12  1  0  0  0
 23 24  1  0  0  0
 34 35  2  0  0  0
 34 36  1  0  0  0
 36 38  1  0  0  0
 38 39  1  0  0  0
 38 44  1  0  0  0
 39 40  2  0  0  0
 39 41  1  0  0  0
 40 46  1  0  0  0
 40 47  1  0  0  0
 41 42  2  0  0  0
 42 43  1  0  0  0
 43 46  2  0  0  0
 44 45  1  0  0  0
 44 47  1  0  0  0
 12 13  1  0  0  0
 12 18  1  0  0  0
 13 14  2  0  0  0
 13 15  1  0  0  0
 14 20  1  0  0  0
 14 21  1  0  0  0
 15 16  2  0  0  0
 16 17  1  0  0  0
 17 20  2  0  0  0
 18 19  1  0  0  0
 18 21  1  0  0  0
 10 11  1  0  0  0
  5  6  1  0  0  0
  2  3  1  0  0  0
 36 37  1  0  0  0
 45 48  1  0  0  0
 19 22  1  0  0  0
M  END
> <minimizedAffinity>
-11.49077

$$$$
