3S43_478_A_401


 39 41  0  0  0  0  0  0  0  0999 V2000
   15.6238   23.6247   18.0605 C   0  0  0  0  0  0  0  0  0  0  0  0
   14.5830   24.4935   18.5416 O   0  0  0  0  0  0  0  0  0  0  0  0
   14.1964   24.9786   17.7959 H   0  0  0  0  0  0  0  0  0  0  0  0
   15.0456   22.5864   17.1047 C   0  0  0  0  0  0  0  0  0  0  0  0
   14.4277   20.4249   18.1774 C   0  0  0  0  0  0  0  0  0  0  0  0
   14.1679   21.6890   17.8437 N   0  0  0  0  0  0  0  0  0  0  0  0
   15.4733   19.8491   17.9947 O   0  0  0  0  0  0  0  0  0  0  0  0
   13.2969   22.0520   18.1245 H   0  0  0  0  0  0  0  0  0  0  0  0
   13.3363   19.8857   18.8415 O   0  0  0  0  0  0  0  0  0  0  0  0
   12.1480   18.0836   19.7257 C   0  0  0  0  0  0  0  0  0  0  0  0
   14.2427   18.7331   20.7152 C   0  0  0  0  0  0  0  0  0  0  0  0
   13.5361   18.5736   19.3611 C   0  0  0  0  0  0  0  0  0  0  0  0
   13.1783   18.3973   21.7588 C   0  0  0  0  0  0  0  0  0  0  0  0
   11.9483   18.5655   21.0604 O   0  0  0  0  0  0  0  0  0  0  0  0
   14.2343   23.1569   15.9257 C   0  0  0  0  0  0  0  0  0  0  0  0
   13.8121   22.1042   14.9385 C   0  0  0  0  0  0  0  0  0  0  0  0
   12.5169   21.6316   14.8296 C   0  0  0  0  0  0  0  0  0  0  0  0
   14.7629   21.5028   14.0864 C   0  0  0  0  0  0  0  0  0  0  0  0
   12.2035   20.5618   13.9909 C   0  0  0  0  0  0  0  0  0  0  0  0
   14.5041   20.4761   13.1837 C   0  0  0  0  0  0  0  0  0  0  0  0
   13.1890   20.0041   13.1848 C   0  0  0  0  0  0  0  0  0  0  0  0
   16.6425   24.5824   17.3782 C   0  0  0  0  0  0  0  0  0  0  0  0
   17.9939   24.0763   17.5046 N   0  0  0  0  0  0  0  0  0  0  0  0
   17.6647   22.9808   15.2356 O   0  0  0  0  0  0  0  0  0  0  0  0
   19.7954   22.5952   16.4905 O   0  0  0  0  0  0  0  0  0  0  0  0
   18.7193   23.5225   16.1386 S   0  0  0  0  0  0  0  0  0  0  0  0
   19.2920   24.9116   15.2152 C   0  0  0  0  0  0  0  0  0  0  0  0
   20.6181   24.9875   14.7764 C   0  0  0  0  0  0  0  0  0  0  0  0
   21.0119   26.0147   13.8966 C   0  0  0  0  0  0  0  0  0  0  0  0
   20.0803   26.9283   13.3794 C   0  0  0  0  0  0  0  0  0  0  0  0
   18.7634   26.8557   13.8781 C   0  0  0  0  0  0  0  0  0  0  0  0
   18.3867   25.8035   14.6812 C   0  0  0  0  0  0  0  0  0  0  0  0
   20.4340   28.0026   12.6722 N   0  0  0  0  0  0  0  0  0  0  0  0
   21.3478   28.0767   12.3133 H   0  0  0  0  0  0  0  0  0  0  0  0
   19.7813   28.7214   12.5092 H   0  0  0  0  0  0  0  0  0  0  0  0
   18.7857   24.5464   18.5756 C   0  0  0  0  0  0  0  0  0  0  0  0
   18.6689   23.8836   19.9677 C   0  0  0  0  0  0  0  0  0  0  0  0
   19.1262   22.4241   19.8799 C   0  0  0  0  0  0  0  0  0  0  0  0
   19.6165   24.6756   20.8801 C   0  0  0  0  0  0  0  0  0  0  0  0
 10 12  1  0  0  0
 10 14  1  0  0  0
 11 12  1  0  0  0
 11 13  1  0  0  0
  5  6  1  0  0  0
  5  9  1  0  0  0
  5  7  2  0  0  0
 12  9  1  0  0  0
  4  1  1  0  0  0
  4 15  1  0  0  0
  4  6  1  0  0  0
  1 22  1  0  0  0
  1  2  1  0  0  0
 15 16  1  0  0  0
 16 17  2  0  0  0
 16 18  1  0  0  0
 17 19  1  0  0  0
 18 20  2  0  0  0
 19 21  2  0  0  0
 20 21  1  0  0  0
 22 23  1  0  0  0
 36 37  1  0  0  0
 36 23  1  0  0  0
 37 38  1  0  0  0
 37 39  1  0  0  0
 27 28  2  0  0  0
 27 32  1  0  0  0
 27 26  1  0  0  0
 28 29  1  0  0  0
 29 30  2  0  0  0
 30 31  1  0  0  0
 30 33  1  0  0  0
 31 32  2  0  0  0
 13 14  1  0  0  0
 23 26  1  0  0  0
 24 26  2  0  0  0
 25 26  2  0  0  0
  6  8  1  0  0  0
 33 34  1  0  0  0
 33 35  1  0  0  0
  2  3  1  0  0  0
M  END
> <minimizedAffinity>
-10.10324

$$$$
3S43_478_A_401


 39 41  0  0  0  0  0  0  0  0999 V2000
   17.6118   21.6355   17.4318 C   0  0  0  0  0  0  0  0  0  0  0  0
   18.2430   20.3582   17.2323 O   0  0  0  0  0  0  0  0  0  0  0  0
   19.1837   20.4235   17.4596 H   0  0  0  0  0  0  0  0  0  0  0  0
   17.6888   22.0391   18.9005 C   0  0  0  0  0  0  0  0  0  0  0  0
   15.3778   21.6157   19.7282 C   0  0  0  0  0  0  0  0  0  0  0  0
   16.6739   21.3133   19.6522 N   0  0  0  0  0  0  0  0  0  0  0  0
   14.8222   22.4929   19.1117 O   0  0  0  0  0  0  0  0  0  0  0  0
   16.9748   20.5212   20.1535 H   0  0  0  0  0  0  0  0  0  0  0  0
   14.7394   20.7168   20.5692 O   0  0  0  0  0  0  0  0  0  0  0  0
   13.3283   19.3062   19.3608 C   0  0  0  0  0  0  0  0  0  0  0  0
   14.4847   18.4656   21.2960 C   0  0  0  0  0  0  0  0  0  0  0  0
   14.6633   19.3815   20.0764 C   0  0  0  0  0  0  0  0  0  0  0  0
   13.0320   17.9964   21.2289 C   0  0  0  0  0  0  0  0  0  0  0  0
   12.3981   18.9616   20.3949 O   0  0  0  0  0  0  0  0  0  0  0  0
   19.0441   21.7773   19.5849 C   0  0  0  0  0  0  0  0  0  0  0  0
   19.7944   23.0402   19.9059 C   0  0  0  0  0  0  0  0  0  0  0  0
   20.8833   23.4895   19.1814 C   0  0  0  0  0  0  0  0  0  0  0  0
   19.4333   23.8194   21.0259 C   0  0  0  0  0  0  0  0  0  0  0  0
   21.6257   24.5946   19.5984 C   0  0  0  0  0  0  0  0  0  0  0  0
   20.0923   24.9658   21.4591 C   0  0  0  0  0  0  0  0  0  0  0  0
   21.2249   25.3135   20.7184 C   0  0  0  0  0  0  0  0  0  0  0  0
   18.3882   22.6017   16.4916 C   0  0  0  0  0  0  0  0  0  0  0  0
   17.4814   23.5082   15.8174 N   0  0  0  0  0  0  0  0  0  0  0  0
   17.4433   25.3702   17.5460 O   0  0  0  0  0  0  0  0  0  0  0  0
   16.8498   25.8849   15.1699 O   0  0  0  0  0  0  0  0  0  0  0  0
   17.6798   25.1148   16.0970 S   0  0  0  0  0  0  0  0  0  0  0  0
   19.3961   25.4933   15.9498 C   0  0  0  0  0  0  0  0  0  0  0  0
   20.1092   25.1653   14.7920 C   0  0  0  0  0  0  0  0  0  0  0  0
   21.4288   25.6279   14.6219 C   0  0  0  0  0  0  0  0  0  0  0  0
   22.0268   26.4856   15.5584 C   0  0  0  0  0  0  0  0  0  0  0  0
   21.3013   26.7576   16.7364 C   0  0  0  0  0  0  0  0  0  0  0  0
   19.9906   26.3530   16.8485 C   0  0  0  0  0  0  0  0  0  0  0  0
   23.3176   26.8191   15.5153 N   0  0  0  0  0  0  0  0  0  0  0  0
   23.8457   26.6395   14.7041 H   0  0  0  0  0  0  0  0  0  0  0  0
   23.7423   27.2449   16.2949 H   0  0  0  0  0  0  0  0  0  0  0  0
   16.8762   23.0768   14.6163 C   0  0  0  0  0  0  0  0  0  0  0  0
   15.6671   22.1142   14.6664 C   0  0  0  0  0  0  0  0  0  0  0  0
   14.4586   22.8410   15.2649 C   0  0  0  0  0  0  0  0  0  0  0  0
   15.3815   21.7378   13.2054 C   0  0  0  0  0  0  0  0  0  0  0  0
 10 12  1  0  0  0
 10 14  1  0  0  0
 11 12  1  0  0  0
 11 13  1  0  0  0
  5  6  1  0  0  0
  5  9  1  0  0  0
  5  7  2  0  0  0
 12  9  1  0  0  0
  4  1  1  0  0  0
  4 15  1  0  0  0
  4  6  1  0  0  0
  1 22  1  0  0  0
  1  2  1  0  0  0
 15 16  1  0  0  0
 16 17  2  0  0  0
 16 18  1  0  0  0
 17 19  1  0  0  0
 18 20  2  0  0  0
 19 21  2  0  0  0
 20 21  1  0  0  0
 22 23  1  0  0  0
 36 37  1  0  0  0
 36 23  1  0  0  0
 37 38  1  0  0  0
 37 39  1  0  0  0
 27 28  2  0  0  0
 27 32  1  0  0  0
 27 26  1  0  0  0
 28 29  1  0  0  0
 29 30  2  0  0  0
 30 31  1  0  0  0
 30 33  1  0  0  0
 31 32  2  0  0  0
 13 14  1  0  0  0
 23 26  1  0  0  0
 24 26  2  0  0  0
 25 26  2  0  0  0
  6  8  1  0  0  0
 33 34  1  0  0  0
 33 35  1  0  0  0
  2  3  1  0  0  0
M  END
> <minimizedAffinity>
-9.61202

$$$$
3S43_478_A_401


 39 41  0  0  0  0  0  0  0  0999 V2000
   18.5999   22.7632   18.3646 C   0  0  0  0  0  0  0  0  0  0  0  0
   19.6134   22.0193   19.0639 O   0  0  0  0  0  0  0  0  0  0  0  0
   20.1671   21.5461   18.4233 H   0  0  0  0  0  0  0  0  0  0  0  0
   19.2420   23.8157   17.4669 C   0  0  0  0  0  0  0  0  0  0  0  0
   20.9194   25.4950   18.2225 C   0  0  0  0  0  0  0  0  0  0  0  0
   20.5072   24.2389   18.0517 N   0  0  0  0  0  0  0  0  0  0  0  0
   20.2676   26.4866   17.9984 O   0  0  0  0  0  0  0  0  0  0  0  0
   21.1182   23.5270   18.3502 H   0  0  0  0  0  0  0  0  0  0  0  0
   22.1918   25.4958   18.7738 O   0  0  0  0  0  0  0  0  0  0  0  0
   22.0915   25.2717   21.0935 C   0  0  0  0  0  0  0  0  0  0  0  0
   23.9139   24.2790   19.8760 C   0  0  0  0  0  0  0  0  0  0  0  0
   22.4013   24.5343   19.8050 C   0  0  0  0  0  0  0  0  0  0  0  0
   24.3700   24.9603   21.1654 C   0  0  0  0  0  0  0  0  0  0  0  0
   23.3328   25.8961   21.4442 O   0  0  0  0  0  0  0  0  0  0  0  0
   19.5307   23.3619   16.0231 C   0  0  0  0  0  0  0  0  0  0  0  0
   19.6000   24.5059   15.0499 C   0  0  0  0  0  0  0  0  0  0  0  0
   20.7358   24.8333   14.3321 C   0  0  0  0  0  0  0  0  0  0  0  0
   18.4840   25.3483   14.8584 C   0  0  0  0  0  0  0  0  0  0  0  0
   20.7888   25.9825   13.5429 C   0  0  0  0  0  0  0  0  0  0  0  0
   18.4510   26.4724   14.0390 C   0  0  0  0  0  0  0  0  0  0  0  0
   19.6579   26.7786   13.4049 C   0  0  0  0  0  0  0  0  0  0  0  0
   17.8072   21.6851   17.5709 C   0  0  0  0  0  0  0  0  0  0  0  0
   16.3927   21.9968   17.5451 N   0  0  0  0  0  0  0  0  0  0  0  0
   14.5950   23.1648   18.9092 O   0  0  0  0  0  0  0  0  0  0  0  0
   16.5943   22.2081   20.0713 O   0  0  0  0  0  0  0  0  0  0  0  0
   15.6161   22.0823   18.9902 S   0  0  0  0  0  0  0  0  0  0  0  0
   14.5981   20.6516   19.1558 C   0  0  0  0  0  0  0  0  0  0  0  0
   14.7057   19.8166   20.2729 C   0  0  0  0  0  0  0  0  0  0  0  0
   13.7708   18.7821   20.4725 C   0  0  0  0  0  0  0  0  0  0  0  0
   12.6744   18.6146   19.6123 C   0  0  0  0  0  0  0  0  0  0  0  0
   12.6213   19.4398   18.4701 C   0  0  0  0  0  0  0  0  0  0  0  0
   13.5043   20.4866   18.3335 C   0  0  0  0  0  0  0  0  0  0  0  0
   11.8588   17.5610   19.6739 N   0  0  0  0  0  0  0  0  0  0  0  0
   11.8770   16.9697   20.4609 H   0  0  0  0  0  0  0  0  0  0  0  0
   11.2386   17.3745   18.9324 H   0  0  0  0  0  0  0  0  0  0  0  0
   15.8859   22.7085   16.4354 C   0  0  0  0  0  0  0  0  0  0  0  0
   15.1261   21.9546   15.3195 C   0  0  0  0  0  0  0  0  0  0  0  0
   13.7295   22.5612   15.1512 C   0  0  0  0  0  0  0  0  0  0  0  0
   15.9499   22.1733   14.0422 C   0  0  0  0  0  0  0  0  0  0  0  0
 10 12  1  0  0  0
 10 14  1  0  0  0
 11 12  1  0  0  0
 11 13  1  0  0  0
  5  6  1  0  0  0
  5  9  1  0  0  0
  5  7  2  0  0  0
 12  9  1  0  0  0
  4  1  1  0  0  0
  4 15  1  0  0  0
  4  6  1  0  0  0
  1 22  1  0  0  0
  1  2  1  0  0  0
 15 16  1  0  0  0
 16 17  2  0  0  0
 16 18  1  0  0  0
 17 19  1  0  0  0
 18 20  2  0  0  0
 19 21  2  0  0  0
 20 21  1  0  0  0
 22 23  1  0  0  0
 36 37  1  0  0  0
 36 23  1  0  0  0
 37 38  1  0  0  0
 37 39  1  0  0  0
 27 28  2  0  0  0
 27 32  1  0  0  0
 27 26  1  0  0  0
 28 29  1  0  0  0
 29 30  2  0  0  0
 30 31  1  0  0  0
 30 33  1  0  0  0
 31 32  2  0  0  0
 13 14  1  0  0  0
 23 26  1  0  0  0
 24 26  2  0  0  0
 25 26  2  0  0  0
  6  8  1  0  0  0
 33 34  1  0  0  0
 33 35  1  0  0  0
  2  3  1  0  0  0
M  END
> <minimizedAffinity>
-9.56350

$$$$
3S43_478_A_401


 39 41  0  0  0  0  0  0  0  0999 V2000
   16.7232   24.1318   17.9272 C   0  0  0  0  0  0  0  0  0  0  0  0
   15.7476   25.0844   18.3860 O   0  0  0  0  0  0  0  0  0  0  0  0
   16.0139   25.9765   18.1137 H   0  0  0  0  0  0  0  0  0  0  0  0
   16.7866   24.1328   16.4034 C   0  0  0  0  0  0  0  0  0  0  0  0
   15.3492   22.6919   14.9672 C   0  0  0  0  0  0  0  0  0  0  0  0
   15.5169   23.6588   15.8694 N   0  0  0  0  0  0  0  0  0  0  0  0
   16.2231   21.9930   14.5135 O   0  0  0  0  0  0  0  0  0  0  0  0
   14.7023   24.0957   16.2082 H   0  0  0  0  0  0  0  0  0  0  0  0
   13.9996   22.5528   14.6804 O   0  0  0  0  0  0  0  0  0  0  0  0
   13.8654   20.2334   14.4719 C   0  0  0  0  0  0  0  0  0  0  0  0
   11.8772   21.5075   14.9329 C   0  0  0  0  0  0  0  0  0  0  0  0
   13.3715   21.4205   15.2762 C   0  0  0  0  0  0  0  0  0  0  0  0
   11.6451   20.4102   13.8952 C   0  0  0  0  0  0  0  0  0  0  0  0
   12.9456   20.1484   13.3763 O   0  0  0  0  0  0  0  0  0  0  0  0
   17.0760   25.5013   15.7575 C   0  0  0  0  0  0  0  0  0  0  0  0
   18.3495   25.5167   14.9583 C   0  0  0  0  0  0  0  0  0  0  0  0
   19.3448   24.5649   15.0847 C   0  0  0  0  0  0  0  0  0  0  0  0
   18.6088   26.5650   14.0496 C   0  0  0  0  0  0  0  0  0  0  0  0
   20.5632   24.6968   14.4180 C   0  0  0  0  0  0  0  0  0  0  0  0
   19.7755   26.7212   13.3076 C   0  0  0  0  0  0  0  0  0  0  0  0
   20.7615   25.7600   13.5450 C   0  0  0  0  0  0  0  0  0  0  0  0
   18.0527   24.5883   18.5939 C   0  0  0  0  0  0  0  0  0  0  0  0
   18.5498   23.5766   19.5038 N   0  0  0  0  0  0  0  0  0  0  0  0
   19.5515   21.2708   19.8733 O   0  0  0  0  0  0  0  0  0  0  0  0
   19.2340   22.1146   17.5387 O   0  0  0  0  0  0  0  0  0  0  0  0
   18.7277   22.0551   18.9105 S   0  0  0  0  0  0  0  0  0  0  0  0
   17.1726   21.2313   19.0272 C   0  0  0  0  0  0  0  0  0  0  0  0
   16.3425   21.4138   20.1382 C   0  0  0  0  0  0  0  0  0  0  0  0
   15.0354   20.8888   20.1356 C   0  0  0  0  0  0  0  0  0  0  0  0
   14.5097   20.2479   19.0028 C   0  0  0  0  0  0  0  0  0  0  0  0
   15.3862   20.0367   17.9187 C   0  0  0  0  0  0  0  0  0  0  0  0
   16.6335   20.6185   17.9164 C   0  0  0  0  0  0  0  0  0  0  0  0
   13.3417   19.6037   19.0109 N   0  0  0  0  0  0  0  0  0  0  0  0
   12.7125   19.7345   19.7568 H   0  0  0  0  0  0  0  0  0  0  0  0
   13.1088   18.9975   18.2710 H   0  0  0  0  0  0  0  0  0  0  0  0
   19.3304   23.9938   20.6045 C   0  0  0  0  0  0  0  0  0  0  0  0
   20.4838   25.0015   20.3919 C   0  0  0  0  0  0  0  0  0  0  0  0
   21.0025   25.4803   21.7515 C   0  0  0  0  0  0  0  0  0  0  0  0
   21.5824   24.2189   19.6580 C   0  0  0  0  0  0  0  0  0  0  0  0
 10 12  1  0  0  0
 10 14  1  0  0  0
 11 12  1  0  0  0
 11 13  1  0  0  0
  5  6  1  0  0  0
  5  9  1  0  0  0
  5  7  2  0  0  0
 12  9  1  0  0  0
  4  1  1  0  0  0
  4 15  1  0  0  0
  4  6  1  0  0  0
  1 22  1  0  0  0
  1  2  1  0  0  0
 15 16  1  0  0  0
 16 17  2  0  0  0
 16 18  1  0  0  0
 17 19  1  0  0  0
 18 20  2  0  0  0
 19 21  2  0  0  0
 20 21  1  0  0  0
 22 23  1  0  0  0
 36 37  1  0  0  0
 36 23  1  0  0  0
 37 38  1  0  0  0
 37 39  1  0  0  0
 27 28  2  0  0  0
 27 32  1  0  0  0
 27 26  1  0  0  0
 28 29  1  0  0  0
 29 30  2  0  0  0
 30 31  1  0  0  0
 30 33  1  0  0  0
 31 32  2  0  0  0
 13 14  1  0  0  0
 23 26  1  0  0  0
 24 26  2  0  0  0
 25 26  2  0  0  0
  6  8  1  0  0  0
 33 34  1  0  0  0
 33 35  1  0  0  0
  2  3  1  0  0  0
M  END
> <minimizedAffinity>
-9.46756

$$$$
3S43_478_A_401


 39 41  0  0  0  0  0  0  0  0999 V2000
   18.0435   24.2731   18.2187 C   0  0  0  0  0  0  0  0  0  0  0  0
   17.0007   24.9384   18.9532 O   0  0  0  0  0  0  0  0  0  0  0  0
   16.5119   25.5283   18.3583 H   0  0  0  0  0  0  0  0  0  0  0  0
   17.4427   23.4014   17.1208 C   0  0  0  0  0  0  0  0  0  0  0  0
   17.2697   20.9665   17.6171 C   0  0  0  0  0  0  0  0  0  0  0  0
   16.8348   22.2222   17.7223 N   0  0  0  0  0  0  0  0  0  0  0  0
   18.2917   20.6184   17.0763 O   0  0  0  0  0  0  0  0  0  0  0  0
   16.0225   22.3668   18.2594 H   0  0  0  0  0  0  0  0  0  0  0  0
   16.4070   20.1175   18.2938 O   0  0  0  0  0  0  0  0  0  0  0  0
   15.2907   20.1592   20.3416 C   0  0  0  0  0  0  0  0  0  0  0  0
   14.0313   20.2477   18.2934 C   0  0  0  0  0  0  0  0  0  0  0  0
   15.3196   20.7636   18.9510 C   0  0  0  0  0  0  0  0  0  0  0  0
   13.4005   19.3215   19.3322 C   0  0  0  0  0  0  0  0  0  0  0  0
   14.4836   18.9843   20.1937 O   0  0  0  0  0  0  0  0  0  0  0  0
   16.3668   24.0831   16.2540 C   0  0  0  0  0  0  0  0  0  0  0  0
   15.5462   23.1058   15.4588 C   0  0  0  0  0  0  0  0  0  0  0  0
   16.0620   22.3187   14.4453 C   0  0  0  0  0  0  0  0  0  0  0  0
   14.1598   22.9824   15.6921 C   0  0  0  0  0  0  0  0  0  0  0  0
   15.2341   21.5261   13.6500 C   0  0  0  0  0  0  0  0  0  0  0  0
   13.2896   22.1649   14.9776 C   0  0  0  0  0  0  0  0  0  0  0  0
   13.8731   21.4570   13.9236 C   0  0  0  0  0  0  0  0  0  0  0  0
   18.9256   25.4293   17.6661 C   0  0  0  0  0  0  0  0  0  0  0  0
   20.2954   25.2973   18.1187 N   0  0  0  0  0  0  0  0  0  0  0  0
   22.7151   26.0662   18.0160 O   0  0  0  0  0  0  0  0  0  0  0  0
   20.9160   27.7298   18.5245 O   0  0  0  0  0  0  0  0  0  0  0  0
   21.3204   26.5359   17.7812 S   0  0  0  0  0  0  0  0  0  0  0  0
   21.3249   26.7894   16.0358 C   0  0  0  0  0  0  0  0  0  0  0  0
   21.0774   25.7322   15.1539 C   0  0  0  0  0  0  0  0  0  0  0  0
   20.9132   25.9855   13.7780 C   0  0  0  0  0  0  0  0  0  0  0  0
   20.9123   27.2952   13.2731 C   0  0  0  0  0  0  0  0  0  0  0  0
   21.2127   28.3336   14.1785 C   0  0  0  0  0  0  0  0  0  0  0  0
   21.2999   28.0700   15.5265 C   0  0  0  0  0  0  0  0  0  0  0  0
   20.9162   27.5690   11.9676 N   0  0  0  0  0  0  0  0  0  0  0  0
   20.7097   26.8609   11.3155 H   0  0  0  0  0  0  0  0  0  0  0  0
   21.1256   28.4792   11.6562 H   0  0  0  0  0  0  0  0  0  0  0  0
   20.5560   24.4545   19.2217 C   0  0  0  0  0  0  0  0  0  0  0  0
   20.4187   25.0049   20.6600 C   0  0  0  0  0  0  0  0  0  0  0  0
   19.4741   24.1062   21.4642 C   0  0  0  0  0  0  0  0  0  0  0  0
   21.8320   24.9478   21.2579 C   0  0  0  0  0  0  0  0  0  0  0  0
 10 12  1  0  0  0
 10 14  1  0  0  0
 11 12  1  0  0  0
 11 13  1  0  0  0
  5  6  1  0  0  0
  5  9  1  0  0  0
  5  7  2  0  0  0
 12  9  1  0  0  0
  4  1  1  0  0  0
  4 15  1  0  0  0
  4  6  1  0  0  0
  1 22  1  0  0  0
  1  2  1  0  0  0
 15 16  1  0  0  0
 16 17  2  0  0  0
 16 18  1  0  0  0
 17 19  1  0  0  0
 18 20  2  0  0  0
 19 21  2  0  0  0
 20 21  1  0  0  0
 22 23  1  0  0  0
 36 37  1  0  0  0
 36 23  1  0  0  0
 37 38  1  0  0  0
 37 39  1  0  0  0
 27 28  2  0  0  0
 27 32  1  0  0  0
 27 26  1  0  0  0
 28 29  1  0  0  0
 29 30  2  0  0  0
 30 31  1  0  0  0
 30 33  1  0  0  0
 31 32  2  0  0  0
 13 14  1  0  0  0
 23 26  1  0  0  0
 24 26  2  0  0  0
 25 26  2  0  0  0
  6  8  1  0  0  0
 33 34  1  0  0  0
 33 35  1  0  0  0
  2  3  1  0  0  0
M  END
> <minimizedAffinity>
-9.46621

$$$$
3S43_478_A_401


 39 41  0  0  0  0  0  0  0  0999 V2000
   17.3975   24.7005   17.2147 C   0  0  0  0  0  0  0  0  0  0  0  0
   16.7749   25.9222   17.6499 O   0  0  0  0  0  0  0  0  0  0  0  0
   17.3184   26.6775   17.3759 H   0  0  0  0  0  0  0  0  0  0  0  0
   17.4791   24.6623   15.6923 C   0  0  0  0  0  0  0  0  0  0  0  0
   18.9224   26.2087   14.3768 C   0  0  0  0  0  0  0  0  0  0  0  0
   18.7510   25.2295   15.2649 N   0  0  0  0  0  0  0  0  0  0  0  0
   18.0407   26.8431   13.8493 O   0  0  0  0  0  0  0  0  0  0  0  0
   19.5641   24.8524   15.6721 H   0  0  0  0  0  0  0  0  0  0  0  0
   20.2774   26.4470   14.2035 O   0  0  0  0  0  0  0  0  0  0  0  0
   20.6009   28.3146   15.5633 C   0  0  0  0  0  0  0  0  0  0  0  0
   22.4655   26.8925   15.0251 C   0  0  0  0  0  0  0  0  0  0  0  0
   20.9717   26.8556   15.3794 C   0  0  0  0  0  0  0  0  0  0  0  0
   22.8189   28.3774   14.9554 C   0  0  0  0  0  0  0  0  0  0  0  0
   21.5619   29.0207   14.7687 O   0  0  0  0  0  0  0  0  0  0  0  0
   17.3645   23.2611   15.0620 C   0  0  0  0  0  0  0  0  0  0  0  0
   15.9450   22.7752   14.9632 C   0  0  0  0  0  0  0  0  0  0  0  0
   15.5659   21.6594   14.2394 C   0  0  0  0  0  0  0  0  0  0  0  0
   14.9010   23.4899   15.5886 C   0  0  0  0  0  0  0  0  0  0  0  0
   14.2216   21.3270   14.0702 C   0  0  0  0  0  0  0  0  0  0  0  0
   13.5476   23.1762   15.5116 C   0  0  0  0  0  0  0  0  0  0  0  0
   13.2390   22.0792   14.7031 C   0  0  0  0  0  0  0  0  0  0  0  0
   18.7937   24.7122   17.9010 C   0  0  0  0  0  0  0  0  0  0  0  0
   18.8432   23.7590   18.9907 N   0  0  0  0  0  0  0  0  0  0  0  0
   19.3926   21.3919   19.7336 O   0  0  0  0  0  0  0  0  0  0  0  0
   19.4684   21.9662   17.2989 O   0  0  0  0  0  0  0  0  0  0  0  0
   18.8194   22.1646   18.5955 S   0  0  0  0  0  0  0  0  0  0  0  0
   17.1429   21.6170   18.6088 C   0  0  0  0  0  0  0  0  0  0  0  0
   16.1399   22.3829   19.2122 C   0  0  0  0  0  0  0  0  0  0  0  0
   14.7878   22.0177   19.0625 C   0  0  0  0  0  0  0  0  0  0  0  0
   14.4102   20.9384   18.2484 C   0  0  0  0  0  0  0  0  0  0  0  0
   15.4455   20.1579   17.6943 C   0  0  0  0  0  0  0  0  0  0  0  0
   16.7535   20.5738   17.7963 C   0  0  0  0  0  0  0  0  0  0  0  0
   13.1637   20.4656   18.2032 N   0  0  0  0  0  0  0  0  0  0  0  0
   12.4235   20.9919   18.5833 H   0  0  0  0  0  0  0  0  0  0  0  0
   12.9839   19.5905   17.7897 H   0  0  0  0  0  0  0  0  0  0  0  0
   19.4258   24.1687   20.2104 C   0  0  0  0  0  0  0  0  0  0  0  0
   20.6814   25.0709   20.1986 C   0  0  0  0  0  0  0  0  0  0  0  0
   20.9861   25.5430   21.6237 C   0  0  0  0  0  0  0  0  0  0  0  0
   21.8223   24.1798   19.6866 C   0  0  0  0  0  0  0  0  0  0  0  0
 10 12  1  0  0  0
 10 14  1  0  0  0
 11 12  1  0  0  0
 11 13  1  0  0  0
  5  6  1  0  0  0
  5  9  1  0  0  0
  5  7  2  0  0  0
 12  9  1  0  0  0
  4  1  1  0  0  0
  4 15  1  0  0  0
  4  6  1  0  0  0
  1 22  1  0  0  0
  1  2  1  0  0  0
 15 16  1  0  0  0
 16 17  2  0  0  0
 16 18  1  0  0  0
 17 19  1  0  0  0
 18 20  2  0  0  0
 19 21  2  0  0  0
 20 21  1  0  0  0
 22 23  1  0  0  0
 36 37  1  0  0  0
 36 23  1  0  0  0
 37 38  1  0  0  0
 37 39  1  0  0  0
 27 28  2  0  0  0
 27 32  1  0  0  0
 27 26  1  0  0  0
 28 29  1  0  0  0
 29 30  2  0  0  0
 30 31  1  0  0  0
 30 33  1  0  0  0
 31 32  2  0  0  0
 13 14  1  0  0  0
 23 26  1  0  0  0
 24 26  2  0  0  0
 25 26  2  0  0  0
  6  8  1  0  0  0
 33 34  1  0  0  0
 33 35  1  0  0  0
  2  3  1  0  0  0
M  END
> <minimizedAffinity>
-9.42053

$$$$
3S43_478_A_401


 39 41  0  0  0  0  0  0  0  0999 V2000
   17.3210   22.6822   19.2226 C   0  0  0  0  0  0  0  0  0  0  0  0
   17.4751   23.0375   20.6081 O   0  0  0  0  0  0  0  0  0  0  0  0
   16.6667   23.4718   20.9224 H   0  0  0  0  0  0  0  0  0  0  0  0
   16.1833   21.6799   19.0578 C   0  0  0  0  0  0  0  0  0  0  0  0
   15.0766   21.7202   16.8265 C   0  0  0  0  0  0  0  0  0  0  0  0
   16.0504   21.3313   17.6497 N   0  0  0  0  0  0  0  0  0  0  0  0
   14.1941   22.4984   17.0980 O   0  0  0  0  0  0  0  0  0  0  0  0
   16.7485   20.7514   17.2683 H   0  0  0  0  0  0  0  0  0  0  0  0
   15.2714   21.1539   15.5758 O   0  0  0  0  0  0  0  0  0  0  0  0
   13.2059   20.4302   14.7688 C   0  0  0  0  0  0  0  0  0  0  0  0
   14.8918   21.1853   13.2272 C   0  0  0  0  0  0  0  0  0  0  0  0
   14.2824   21.4857   14.6044 C   0  0  0  0  0  0  0  0  0  0  0  0
   14.1698   19.9296   12.7406 C   0  0  0  0  0  0  0  0  0  0  0  0
   13.6446   19.3525   13.9323 O   0  0  0  0  0  0  0  0  0  0  0  0
   16.3453   20.3652   19.8445 C   0  0  0  0  0  0  0  0  0  0  0  0
   15.0311   19.7525   20.2425 C   0  0  0  0  0  0  0  0  0  0  0  0
   14.7413   19.3283   21.5266 C   0  0  0  0  0  0  0  0  0  0  0  0
   14.0237   19.5359   19.2782 C   0  0  0  0  0  0  0  0  0  0  0  0
   13.5591   18.6462   21.8154 C   0  0  0  0  0  0  0  0  0  0  0  0
   12.7989   18.9189   19.5134 C   0  0  0  0  0  0  0  0  0  0  0  0
   12.6110   18.4536   20.8175 C   0  0  0  0  0  0  0  0  0  0  0  0
   17.0515   24.0354   18.5039 C   0  0  0  0  0  0  0  0  0  0  0  0
   18.1287   24.3609   17.5917 N   0  0  0  0  0  0  0  0  0  0  0  0
   16.5353   24.4360   15.6139 O   0  0  0  0  0  0  0  0  0  0  0  0
   18.2140   22.5867   15.7718 O   0  0  0  0  0  0  0  0  0  0  0  0
   17.9048   23.9979   16.0053 S   0  0  0  0  0  0  0  0  0  0  0  0
   18.9085   25.0832   15.0432 C   0  0  0  0  0  0  0  0  0  0  0  0
   20.1823   24.6955   14.6145 C   0  0  0  0  0  0  0  0  0  0  0  0
   20.8960   25.5014   13.7060 C   0  0  0  0  0  0  0  0  0  0  0  0
   20.3238   26.6569   13.1514 C   0  0  0  0  0  0  0  0  0  0  0  0
   19.0598   27.0466   13.6402 C   0  0  0  0  0  0  0  0  0  0  0  0
   18.3537   26.2088   14.4729 C   0  0  0  0  0  0  0  0  0  0  0  0
   21.0159   27.5263   12.4136 N   0  0  0  0  0  0  0  0  0  0  0  0
   21.9008   27.2778   12.0609 H   0  0  0  0  0  0  0  0  0  0  0  0
   20.6418   28.4166   12.2218 H   0  0  0  0  0  0  0  0  0  0  0  0
   19.0211   25.3941   17.9537 C   0  0  0  0  0  0  0  0  0  0  0  0
   20.4589   25.0463   18.4039 C   0  0  0  0  0  0  0  0  0  0  0  0
   21.4204   26.1455   17.9410 C   0  0  0  0  0  0  0  0  0  0  0  0
   20.4099   25.0050   19.9381 C   0  0  0  0  0  0  0  0  0  0  0  0
 10 12  1  0  0  0
 10 14  1  0  0  0
 11 12  1  0  0  0
 11 13  1  0  0  0
  5  6  1  0  0  0
  5  9  1  0  0  0
  5  7  2  0  0  0
 12  9  1  0  0  0
  4  1  1  0  0  0
  4 15  1  0  0  0
  4  6  1  0  0  0
  1 22  1  0  0  0
  1  2  1  0  0  0
 15 16  1  0  0  0
 16 17  2  0  0  0
 16 18  1  0  0  0
 17 19  1  0  0  0
 18 20  2  0  0  0
 19 21  2  0  0  0
 20 21  1  0  0  0
 22 23  1  0  0  0
 36 37  1  0  0  0
 36 23  1  0  0  0
 37 38  1  0  0  0
 37 39  1  0  0  0
 27 28  2  0  0  0
 27 32  1  0  0  0
 27 26  1  0  0  0
 28 29  1  0  0  0
 29 30  2  0  0  0
 30 31  1  0  0  0
 30 33  1  0  0  0
 31 32  2  0  0  0
 13 14  1  0  0  0
 23 26  1  0  0  0
 24 26  2  0  0  0
 25 26  2  0  0  0
  6  8  1  0  0  0
 33 34  1  0  0  0
 33 35  1  0  0  0
  2  3  1  0  0  0
M  END
> <minimizedAffinity>
-9.33850

$$$$
3S43_478_A_401


 39 41  0  0  0  0  0  0  0  0999 V2000
   18.2133   24.8277   18.6700 C   0  0  0  0  0  0  0  0  0  0  0  0
   18.4224   24.7804   20.0925 O   0  0  0  0  0  0  0  0  0  0  0  0
   19.1940   24.2259   20.2877 H   0  0  0  0  0  0  0  0  0  0  0  0
   19.4116   25.4724   17.9811 C   0  0  0  0  0  0  0  0  0  0  0  0
   21.1768   26.8446   19.0792 C   0  0  0  0  0  0  0  0  0  0  0  0
   20.4509   25.7321   18.9681 N   0  0  0  0  0  0  0  0  0  0  0  0
   21.0253   27.8518   18.4305 O   0  0  0  0  0  0  0  0  0  0  0  0
   20.6355   25.0152   19.6172 H   0  0  0  0  0  0  0  0  0  0  0  0
   22.0905   26.7022   20.1125 O   0  0  0  0  0  0  0  0  0  0  0  0
   21.5025   26.1037   22.2890 C   0  0  0  0  0  0  0  0  0  0  0  0
   23.2835   24.9358   21.1696 C   0  0  0  0  0  0  0  0  0  0  0  0
   21.8972   25.5525   20.9324 C   0  0  0  0  0  0  0  0  0  0  0  0
   23.6122   25.2509   22.6282 C   0  0  0  0  0  0  0  0  0  0  0  0
   22.7539   26.3426   22.9451 O   0  0  0  0  0  0  0  0  0  0  0  0
   20.0471   24.6403   16.8508 C   0  0  0  0  0  0  0  0  0  0  0  0
   20.0613   25.3574   15.5294 C   0  0  0  0  0  0  0  0  0  0  0  0
   20.5194   24.7896   14.3545 C   0  0  0  0  0  0  0  0  0  0  0  0
   19.6362   26.7004   15.4418 C   0  0  0  0  0  0  0  0  0  0  0  0
   20.6355   25.5394   13.1838 C   0  0  0  0  0  0  0  0  0  0  0  0
   19.6669   27.4845   14.2928 C   0  0  0  0  0  0  0  0  0  0  0  0
   20.2104   26.8626   13.1657 C   0  0  0  0  0  0  0  0  0  0  0  0
   18.0002   23.3419   18.2607 C   0  0  0  0  0  0  0  0  0  0  0  0
   16.6863   23.1474   17.6826 N   0  0  0  0  0  0  0  0  0  0  0  0
   17.5799   22.2881   15.4645 O   0  0  0  0  0  0  0  0  0  0  0  0
   16.6505   24.6077   15.6009 O   0  0  0  0  0  0  0  0  0  0  0  0
   16.5686   23.2159   16.0454 S   0  0  0  0  0  0  0  0  0  0  0  0
   15.0610   22.4356   15.5668 C   0  0  0  0  0  0  0  0  0  0  0  0
   13.8860   23.1772   15.4055 C   0  0  0  0  0  0  0  0  0  0  0  0
   12.7391   22.5704   14.8573 C   0  0  0  0  0  0  0  0  0  0  0  0
   12.7676   21.2474   14.3893 C   0  0  0  0  0  0  0  0  0  0  0  0
   13.9504   20.5124   14.6106 C   0  0  0  0  0  0  0  0  0  0  0  0
   15.0777   21.1450   15.0829 C   0  0  0  0  0  0  0  0  0  0  0  0
   11.6715   20.5888   14.0095 N   0  0  0  0  0  0  0  0  0  0  0  0
   10.8333   21.0795   13.8488 H   0  0  0  0  0  0  0  0  0  0  0  0
   11.7008   19.6120   13.8899 H   0  0  0  0  0  0  0  0  0  0  0  0
   15.7333   22.4128   18.4222 C   0  0  0  0  0  0  0  0  0  0  0  0
   16.1765   21.1697   19.2279 C   0  0  0  0  0  0  0  0  0  0  0  0
   15.2872   21.0183   20.4661 C   0  0  0  0  0  0  0  0  0  0  0  0
   15.9704   19.9750   18.2855 C   0  0  0  0  0  0  0  0  0  0  0  0
 10 12  1  0  0  0
 10 14  1  0  0  0
 11 12  1  0  0  0
 11 13  1  0  0  0
  5  6  1  0  0  0
  5  9  1  0  0  0
  5  7  2  0  0  0
 12  9  1  0  0  0
  4  1  1  0  0  0
  4 15  1  0  0  0
  4  6  1  0  0  0
  1 22  1  0  0  0
  1  2  1  0  0  0
 15 16  1  0  0  0
 16 17  2  0  0  0
 16 18  1  0  0  0
 17 19  1  0  0  0
 18 20  2  0  0  0
 19 21  2  0  0  0
 20 21  1  0  0  0
 22 23  1  0  0  0
 36 37  1  0  0  0
 36 23  1  0  0  0
 37 38  1  0  0  0
 37 39  1  0  0  0
 27 28  2  0  0  0
 27 32  1  0  0  0
 27 26  1  0  0  0
 28 29  1  0  0  0
 29 30  2  0  0  0
 30 31  1  0  0  0
 30 33  1  0  0  0
 31 32  2  0  0  0
 13 14  1  0  0  0
 23 26  1  0  0  0
 24 26  2  0  0  0
 25 26  2  0  0  0
  6  8  1  0  0  0
 33 34  1  0  0  0
 33 35  1  0  0  0
  2  3  1  0  0  0
M  END
> <minimizedAffinity>
-9.26394

$$$$
3S43_478_A_401


 39 41  0  0  0  0  0  0  0  0999 V2000
   18.5128   23.7130   15.6519 C   0  0  0  0  0  0  0  0  0  0  0  0
   17.7658   23.9485   14.4452 O   0  0  0  0  0  0  0  0  0  0  0  0
   17.3183   24.8071   14.5044 H   0  0  0  0  0  0  0  0  0  0  0  0
   19.5984   24.7714   15.8163 C   0  0  0  0  0  0  0  0  0  0  0  0
   20.5342   25.5146   18.0019 C   0  0  0  0  0  0  0  0  0  0  0  0
   20.2712   24.5753   17.0933 N   0  0  0  0  0  0  0  0  0  0  0  0
   20.1758   26.6665   17.9477 O   0  0  0  0  0  0  0  0  0  0  0  0
   20.5602   23.6586   17.3064 H   0  0  0  0  0  0  0  0  0  0  0  0
   21.2207   24.9517   19.0671 O   0  0  0  0  0  0  0  0  0  0  0  0
   23.3356   25.9353   19.0985 C   0  0  0  0  0  0  0  0  0  0  0  0
   22.3449   25.1690   21.1528 C   0  0  0  0  0  0  0  0  0  0  0  0
   22.0072   25.8661   19.8267 C   0  0  0  0  0  0  0  0  0  0  0  0
   23.8291   24.8204   21.0496 C   0  0  0  0  0  0  0  0  0  0  0  0
   24.0918   24.8501   19.6499 O   0  0  0  0  0  0  0  0  0  0  0  0
   20.6819   24.7785   14.7210 C   0  0  0  0  0  0  0  0  0  0  0  0
   20.9124   26.1420   14.1307 C   0  0  0  0  0  0  0  0  0  0  0  0
   20.4368   26.5307   12.8916 C   0  0  0  0  0  0  0  0  0  0  0  0
   21.6894   27.0965   14.8215 C   0  0  0  0  0  0  0  0  0  0  0  0
   20.7895   27.7591   12.3322 C   0  0  0  0  0  0  0  0  0  0  0  0
   22.0252   28.3609   14.3478 C   0  0  0  0  0  0  0  0  0  0  0  0
   21.5688   28.6512   13.0594 C   0  0  0  0  0  0  0  0  0  0  0  0
   17.4445   23.7534   16.7822 C   0  0  0  0  0  0  0  0  0  0  0  0
   16.7728   22.4758   16.9059 N   0  0  0  0  0  0  0  0  0  0  0  0
   18.2316   22.0754   18.9476 O   0  0  0  0  0  0  0  0  0  0  0  0
   18.2204   20.3935   17.0944 O   0  0  0  0  0  0  0  0  0  0  0  0
   17.4620   21.3576   17.8925 S   0  0  0  0  0  0  0  0  0  0  0  0
   16.1855   20.5991   18.8443 C   0  0  0  0  0  0  0  0  0  0  0  0
   15.7112   19.3223   18.5254 C   0  0  0  0  0  0  0  0  0  0  0  0
   14.8197   18.6639   19.3948 C   0  0  0  0  0  0  0  0  0  0  0  0
   14.4521   19.2284   20.6262 C   0  0  0  0  0  0  0  0  0  0  0  0
   14.9074   20.5354   20.8959 C   0  0  0  0  0  0  0  0  0  0  0  0
   15.8312   21.1292   20.0664 C   0  0  0  0  0  0  0  0  0  0  0  0
   13.4970   18.7149   21.4029 N   0  0  0  0  0  0  0  0  0  0  0  0
   13.1624   17.8044   21.2348 H   0  0  0  0  0  0  0  0  0  0  0  0
   13.1267   19.2464   22.1443 H   0  0  0  0  0  0  0  0  0  0  0  0
   15.3843   22.4240   16.6524 C   0  0  0  0  0  0  0  0  0  0  0  0
   14.8305   21.4343   15.6013 C   0  0  0  0  0  0  0  0  0  0  0  0
   13.4698   20.9042   16.0642 C   0  0  0  0  0  0  0  0  0  0  0  0
   14.6631   22.2542   14.3138 C   0  0  0  0  0  0  0  0  0  0  0  0
 10 12  1  0  0  0
 10 14  1  0  0  0
 11 12  1  0  0  0
 11 13  1  0  0  0
  5  6  1  0  0  0
  5  9  1  0  0  0
  5  7  2  0  0  0
 12  9  1  0  0  0
  4  1  1  0  0  0
  4 15  1  0  0  0
  4  6  1  0  0  0
  1 22  1  0  0  0
  1  2  1  0  0  0
 15 16  1  0  0  0
 16 17  2  0  0  0
 16 18  1  0  0  0
 17 19  1  0  0  0
 18 20  2  0  0  0
 19 21  2  0  0  0
 20 21  1  0  0  0
 22 23  1  0  0  0
 36 37  1  0  0  0
 36 23  1  0  0  0
 37 38  1  0  0  0
 37 39  1  0  0  0
 27 28  2  0  0  0
 27 32  1  0  0  0
 27 26  1  0  0  0
 28 29  1  0  0  0
 29 30  2  0  0  0
 30 31  1  0  0  0
 30 33  1  0  0  0
 31 32  2  0  0  0
 13 14  1  0  0  0
 23 26  1  0  0  0
 24 26  2  0  0  0
 25 26  2  0  0  0
  6  8  1  0  0  0
 33 34  1  0  0  0
 33 35  1  0  0  0
  2  3  1  0  0  0
M  END
> <minimizedAffinity>
-9.11535

$$$$
3S43_478_A_401


 39 41  0  0  0  0  0  0  0  0999 V2000
   17.7501   22.1755   18.0912 C   0  0  0  0  0  0  0  0  0  0  0  0
   18.4217   21.1461   18.8387 O   0  0  0  0  0  0  0  0  0  0  0  0
   19.1788   20.8180   18.3289 H   0  0  0  0  0  0  0  0  0  0  0  0
   18.6840   23.3603   17.8670 C   0  0  0  0  0  0  0  0  0  0  0  0
   19.1286   24.1579   20.1845 C   0  0  0  0  0  0  0  0  0  0  0  0
   19.5036   23.5576   19.0549 N   0  0  0  0  0  0  0  0  0  0  0  0
   18.0165   24.5569   20.4342 O   0  0  0  0  0  0  0  0  0  0  0  0
   20.4254   23.2137   19.0201 H   0  0  0  0  0  0  0  0  0  0  0  0
   20.1947   24.1883   21.0708 O   0  0  0  0  0  0  0  0  0  0  0  0
   21.1511   25.8565   19.7503 C   0  0  0  0  0  0  0  0  0  0  0  0
   22.2344   25.1803   21.7894 C   0  0  0  0  0  0  0  0  0  0  0  0
   20.8507   25.4490   21.1798 C   0  0  0  0  0  0  0  0  0  0  0  0
   23.2191   25.3784   20.6379 C   0  0  0  0  0  0  0  0  0  0  0  0
   22.4143   25.2402   19.4708 O   0  0  0  0  0  0  0  0  0  0  0  0
   19.6389   23.2274   16.6653 C   0  0  0  0  0  0  0  0  0  0  0  0
   19.4704   24.3288   15.6557 C   0  0  0  0  0  0  0  0  0  0  0  0
   18.3260   25.0974   15.5443 C   0  0  0  0  0  0  0  0  0  0  0  0
   20.4907   24.6004   14.7192 C   0  0  0  0  0  0  0  0  0  0  0  0
   18.1680   26.0164   14.5067 C   0  0  0  0  0  0  0  0  0  0  0  0
   20.4216   25.5453   13.7001 C   0  0  0  0  0  0  0  0  0  0  0  0
   19.2067   26.2293   13.6081 C   0  0  0  0  0  0  0  0  0  0  0  0
   17.3221   21.4766   16.7688 C   0  0  0  0  0  0  0  0  0  0  0  0
   15.8808   21.4804   16.6240 N   0  0  0  0  0  0  0  0  0  0  0  0
   16.2959   22.2122   14.2263 O   0  0  0  0  0  0  0  0  0  0  0  0
   14.7463   23.5463   15.6691 O   0  0  0  0  0  0  0  0  0  0  0  0
   15.2612   22.2275   15.2986 S   0  0  0  0  0  0  0  0  0  0  0  0
   14.0212   21.1828   14.6045 C   0  0  0  0  0  0  0  0  0  0  0  0
   12.6629   21.4295   14.8297 C   0  0  0  0  0  0  0  0  0  0  0  0
   11.6871   20.6933   14.1297 C   0  0  0  0  0  0  0  0  0  0  0  0
   12.0457   19.7626   13.1420 C   0  0  0  0  0  0  0  0  0  0  0  0
   13.4211   19.5017   12.9735 C   0  0  0  0  0  0  0  0  0  0  0  0
   14.3553   20.2811   13.6169 C   0  0  0  0  0  0  0  0  0  0  0  0
   11.1673   18.9379   12.5698 N   0  0  0  0  0  0  0  0  0  0  0  0
   10.2015   19.0988   12.6729 H   0  0  0  0  0  0  0  0  0  0  0  0
   11.4847   18.1682   12.0443 H   0  0  0  0  0  0  0  0  0  0  0  0
   15.1431   20.4567   17.2587 C   0  0  0  0  0  0  0  0  0  0  0  0
   14.1468   20.8123   18.3864 C   0  0  0  0  0  0  0  0  0  0  0  0
   12.9030   19.9256   18.2691 C   0  0  0  0  0  0  0  0  0  0  0  0
   14.8855   20.5080   19.6977 C   0  0  0  0  0  0  0  0  0  0  0  0
 10 12  1  0  0  0
 10 14  1  0  0  0
 11 12  1  0  0  0
 11 13  1  0  0  0
  5  6  1  0  0  0
  5  9  1  0  0  0
  5  7  2  0  0  0
 12  9  1  0  0  0
  4  1  1  0  0  0
  4 15  1  0  0  0
  4  6  1  0  0  0
  1 22  1  0  0  0
  1  2  1  0  0  0
 15 16  1  0  0  0
 16 17  2  0  0  0
 16 18  1  0  0  0
 17 19  1  0  0  0
 18 20  2  0  0  0
 19 21  2  0  0  0
 20 21  1  0  0  0
 22 23  1  0  0  0
 36 37  1  0  0  0
 36 23  1  0  0  0
 37 38  1  0  0  0
 37 39  1  0  0  0
 27 28  2  0  0  0
 27 32  1  0  0  0
 27 26  1  0  0  0
 28 29  1  0  0  0
 29 30  2  0  0  0
 30 31  1  0  0  0
 30 33  1  0  0  0
 31 32  2  0  0  0
 13 14  1  0  0  0
 23 26  1  0  0  0
 24 26  2  0  0  0
 25 26  2  0  0  0
  6  8  1  0  0  0
 33 34  1  0  0  0
 33 35  1  0  0  0
  2  3  1  0  0  0
M  END
> <minimizedAffinity>
-9.09837

$$$$
