3UG2_IRE_A_1


 32 35  0  0  0  0  0  0  0  0999 V2000
   -0.8128   49.1737   18.7838 C   0  0  0  0  0  0  0  0  0  0  0  0
   -1.1713   50.1802   17.9064 C   0  0  0  0  0  0  0  0  0  0  0  0
   -1.4830   51.4385   18.4027 C   0  0  0  0  0  0  0  0  0  0  0  0
   -0.7963   49.4118   20.1795 C   0  0  0  0  0  0  0  0  0  0  0  0
   -1.1472   50.6744   20.6551 C   0  0  0  0  0  0  0  0  0  0  0  0
   -1.4928   51.6785   19.7592 C   0  0  0  0  0  0  0  0  0  0  0  0
   -1.8335   52.9031   20.1978 N   0  0  0  0  0  0  0  0  0  0  0  0
   -1.7947   53.2062   21.4882 C   0  0  0  0  0  0  0  0  0  0  0  0
   -1.4598   52.2701   22.3737 N   0  0  0  0  0  0  0  0  0  0  0  0
   -1.1426   51.0104   22.0041 C   0  0  0  0  0  0  0  0  0  0  0  0
   -0.8081   50.0934   22.9283 N   0  0  0  0  0  0  0  0  0  0  0  0
   -2.1169   53.5872   19.5490 H   0  0  0  0  0  0  0  0  0  0  0  0
   -1.1240   50.0902   24.2592 C   0  0  0  0  0  0  0  0  0  0  0  0
   -0.1394   50.0202   25.2467 C   0  0  0  0  0  0  0  0  0  0  0  0
   -0.4847   50.0158   26.5925 C   0  0  0  0  0  0  0  0  0  0  0  0
    0.6934   49.9041   27.9359 Cl  0  0  0  0  0  0  0  0  0  0  0  0
   -1.7908   50.1104   26.9455 C   0  0  0  0  0  0  0  0  0  0  0  0
   -2.0400   50.1112   28.2783 F   0  0  0  0  0  0  0  0  0  0  0  0
   -2.7999   50.2209   25.9716 C   0  0  0  0  0  0  0  0  0  0  0  0
   -2.4640   50.2262   24.6319 C   0  0  0  0  0  0  0  0  0  0  0  0
   -1.2017   49.9454   16.5571 O   0  0  0  0  0  0  0  0  0  0  0  0
   -1.4868   51.0640   15.6805 C   0  0  0  0  0  0  0  0  0  0  0  0
   -0.5127   47.9711   18.1958 O   0  0  0  0  0  0  0  0  0  0  0  0
    0.7542   47.6565   17.5860 C   0  0  0  0  0  0  0  0  0  0  0  0
    1.8885   47.8851   18.5918 C   0  0  0  0  0  0  0  0  0  0  0  0
    2.8694   48.9749   18.1365 C   0  0  0  0  0  0  0  0  0  0  0  0
    4.7228   48.9745   19.8330 C   0  0  0  0  0  0  0  0  0  0  0  0
    5.0551   49.6589   21.1720 C   0  0  0  0  0  0  0  0  0  0  0  0
    3.9097   49.6233   22.0470 O   0  0  0  0  0  0  0  0  0  0  0  0
    2.7200   50.3367   21.6175 C   0  0  0  0  0  0  0  0  0  0  0  0
    2.6567   50.5634   20.0969 C   0  0  0  0  0  0  0  0  0  0  0  0
    3.4223   49.5067   19.3731 N   0  0  0  0  0  0  0  0  0  0  0  0
 27 28  1  0  0  0
 27 32  1  0  0  0
 28 29  1  0  0  0
 29 30  1  0  0  0
 30 31  1  0  0  0
 31 32  1  0  0  0
 32 26  1  0  0  0
 26 25  1  0  0  0
 25 24  1  0  0  0
 24 23  1  0  0  0
 23  1  1  0  0  0
  1  2  2  0  0  0
  1  4  1  0  0  0
  2  3  1  0  0  0
  2 21  1  0  0  0
  3  6  2  0  0  0
 21 22  1  0  0  0
  4  5  2  0  0  0
  5  6  1  0  0  0
  5 10  1  0  0  0
  6  7  1  0  0  0
  7  8  1  0  0  0
  8  9  2  0  0  0
  9 10  1  0  0  0
 10 11  2  0  0  0
 11 13  1  0  0  0
 13 14  2  0  0  0
 13 20  1  0  0  0
 14 15  1  0  0  0
 15 16  1  0  0  0
 15 17  2  0  0  0
 17 18  1  0  0  0
 17 19  1  0  0  0
 19 20  2  0  0  0
  7 12  1  0  0  0
M  END
> <minimizedAffinity>
-7.65093

$$$$
3UG2_IRE_A_1


 32 35  0  0  0  0  0  0  0  0999 V2000
   -0.5925   48.9844   17.6295 C   0  0  0  0  0  0  0  0  0  0  0  0
   -1.1745   49.9304   16.8064 C   0  0  0  0  0  0  0  0  0  0  0  0
   -1.6195   51.1272   17.3510 C   0  0  0  0  0  0  0  0  0  0  0  0
   -0.4811   49.2170   19.0218 C   0  0  0  0  0  0  0  0  0  0  0  0
   -0.9672   50.4122   19.5495 C   0  0  0  0  0  0  0  0  0  0  0  0
   -1.5380   51.3579   18.7068 C   0  0  0  0  0  0  0  0  0  0  0  0
   -2.0119   52.5172   19.1960 N   0  0  0  0  0  0  0  0  0  0  0  0
   -1.8979   52.8179   20.4825 C   0  0  0  0  0  0  0  0  0  0  0  0
   -1.3486   51.9379   21.3171 N   0  0  0  0  0  0  0  0  0  0  0  0
   -0.8862   50.7401   20.8981 C   0  0  0  0  0  0  0  0  0  0  0  0
   -0.3365   49.8789   21.7716 N   0  0  0  0  0  0  0  0  0  0  0  0
   -2.4515   53.1546   18.5880 H   0  0  0  0  0  0  0  0  0  0  0  0
   -0.5232   49.8241   23.1256 C   0  0  0  0  0  0  0  0  0  0  0  0
   -1.7623   50.1001   23.7071 C   0  0  0  0  0  0  0  0  0  0  0  0
   -1.9272   50.0405   25.0854 C   0  0  0  0  0  0  0  0  0  0  0  0
   -3.4621   50.3989   25.9342 Cl  0  0  0  0  0  0  0  0  0  0  0  0
   -0.8784   49.6815   25.8669 C   0  0  0  0  0  0  0  0  0  0  0  0
   -1.1275   49.6365   27.1990 F   0  0  0  0  0  0  0  0  0  0  0  0
    0.3702   49.3609   25.3039 C   0  0  0  0  0  0  0  0  0  0  0  0
    0.5413   49.4177   23.9345 C   0  0  0  0  0  0  0  0  0  0  0  0
   -1.2958   49.6989   15.4616 O   0  0  0  0  0  0  0  0  0  0  0  0
   -0.4804   50.4897   14.5611 C   0  0  0  0  0  0  0  0  0  0  0  0
   -0.1757   47.8414   16.9956 O   0  0  0  0  0  0  0  0  0  0  0  0
    1.1901   47.5656   16.6287 C   0  0  0  0  0  0  0  0  0  0  0  0
    2.0521   48.8139   16.8503 C   0  0  0  0  0  0  0  0  0  0  0  0
    3.5196   48.4722   17.1450 C   0  0  0  0  0  0  0  0  0  0  0  0
    2.9499   49.9834   19.0697 C   0  0  0  0  0  0  0  0  0  0  0  0
    3.3525   50.1670   20.5449 C   0  0  0  0  0  0  0  0  0  0  0  0
    4.7870   50.1138   20.6797 O   0  0  0  0  0  0  0  0  0  0  0  0
    5.4439   48.8672   20.3286 C   0  0  0  0  0  0  0  0  0  0  0  0
    4.6183   47.9868   19.3742 C   0  0  0  0  0  0  0  0  0  0  0  0
    3.7007   48.8224   18.5458 N   0  0  0  0  0  0  0  0  0  0  0  0
 27 28  1  0  0  0
 27 32  1  0  0  0
 28 29  1  0  0  0
 29 30  1  0  0  0
 30 31  1  0  0  0
 31 32  1  0  0  0
 32 26  1  0  0  0
 26 25  1  0  0  0
 25 24  1  0  0  0
 24 23  1  0  0  0
 23  1  1  0  0  0
  1  2  2  0  0  0
  1  4  1  0  0  0
  2  3  1  0  0  0
  2 21  1  0  0  0
  3  6  2  0  0  0
 21 22  1  0  0  0
  4  5  2  0  0  0
  5  6  1  0  0  0
  5 10  1  0  0  0
  6  7  1  0  0  0
  7  8  1  0  0  0
  8  9  2  0  0  0
  9 10  1  0  0  0
 10 11  2  0  0  0
 11 13  1  0  0  0
 13 14  2  0  0  0
 13 20  1  0  0  0
 14 15  1  0  0  0
 15 16  1  0  0  0
 15 17  2  0  0  0
 17 18  1  0  0  0
 17 19  1  0  0  0
 19 20  2  0  0  0
  7 12  1  0  0  0
M  END
> <minimizedAffinity>
-7.24077

$$$$
3UG2_IRE_A_1


 32 35  0  0  0  0  0  0  0  0999 V2000
    0.3791   48.7765   25.2736 C   0  0  0  0  0  0  0  0  0  0  0  0
    0.4651   49.7488   26.2526 C   0  0  0  0  0  0  0  0  0  0  0  0
   -0.0025   51.0283   25.9861 C   0  0  0  0  0  0  0  0  0  0  0  0
   -0.1492   49.0891   23.9976 C   0  0  0  0  0  0  0  0  0  0  0  0
   -0.5800   50.3903   23.7434 C   0  0  0  0  0  0  0  0  0  0  0  0
   -0.4982   51.3525   24.7423 C   0  0  0  0  0  0  0  0  0  0  0  0
   -0.9092   52.6129   24.5173 N   0  0  0  0  0  0  0  0  0  0  0  0
   -1.4559   52.9613   23.3605 C   0  0  0  0  0  0  0  0  0  0  0  0
   -1.5572   52.0620   22.3840 N   0  0  0  0  0  0  0  0  0  0  0  0
   -1.1302   50.7891   22.5306 C   0  0  0  0  0  0  0  0  0  0  0  0
   -1.2513   49.9097   21.5212 N   0  0  0  0  0  0  0  0  0  0  0  0
   -0.8024   53.2894   25.2245 H   0  0  0  0  0  0  0  0  0  0  0  0
   -1.3705   50.1778   20.1852 C   0  0  0  0  0  0  0  0  0  0  0  0
   -0.8729   49.3059   19.2147 C   0  0  0  0  0  0  0  0  0  0  0  0
   -1.0035   49.6008   17.8632 C   0  0  0  0  0  0  0  0  0  0  0  0
   -0.3813   48.5675   16.5404 Cl  0  0  0  0  0  0  0  0  0  0  0  0
   -1.6477   50.7338   17.4879 C   0  0  0  0  0  0  0  0  0  0  0  0
   -1.7418   50.9400   16.1510 F   0  0  0  0  0  0  0  0  0  0  0  0
   -2.1923   51.6101   18.4442 C   0  0  0  0  0  0  0  0  0  0  0  0
   -2.0664   51.3232   19.7893 C   0  0  0  0  0  0  0  0  0  0  0  0
    0.9900   49.4500   27.4822 O   0  0  0  0  0  0  0  0  0  0  0  0
    0.3653   50.0424   28.6484 C   0  0  0  0  0  0  0  0  0  0  0  0
    0.8570   47.5431   25.6373 O   0  0  0  0  0  0  0  0  0  0  0  0
    1.7689   46.7573   24.8455 C   0  0  0  0  0  0  0  0  0  0  0  0
    3.1194   47.4750   24.7391 C   0  0  0  0  0  0  0  0  0  0  0  0
    3.7142   47.4055   23.3254 C   0  0  0  0  0  0  0  0  0  0  0  0
    3.5716   49.8742   23.7701 C   0  0  0  0  0  0  0  0  0  0  0  0
    3.3577   51.1749   22.9738 C   0  0  0  0  0  0  0  0  0  0  0  0
    2.2603   51.0192   22.0516 O   0  0  0  0  0  0  0  0  0  0  0  0
    2.4086   50.0289   20.9999 C   0  0  0  0  0  0  0  0  0  0  0  0
    3.4422   48.9370   21.3273 C   0  0  0  0  0  0  0  0  0  0  0  0
    3.5698   48.7560   22.8029 N   0  0  0  0  0  0  0  0  0  0  0  0
 27 28  1  0  0  0
 27 32  1  0  0  0
 28 29  1  0  0  0
 29 30  1  0  0  0
 30 31  1  0  0  0
 31 32  1  0  0  0
 32 26  1  0  0  0
 26 25  1  0  0  0
 25 24  1  0  0  0
 24 23  1  0  0  0
 23  1  1  0  0  0
  1  2  2  0  0  0
  1  4  1  0  0  0
  2  3  1  0  0  0
  2 21  1  0  0  0
  3  6  2  0  0  0
 21 22  1  0  0  0
  4  5  2  0  0  0
  5  6  1  0  0  0
  5 10  1  0  0  0
  6  7  1  0  0  0
  7  8  1  0  0  0
  8  9  2  0  0  0
  9 10  1  0  0  0
 10 11  2  0  0  0
 11 13  1  0  0  0
 13 14  2  0  0  0
 13 20  1  0  0  0
 14 15  1  0  0  0
 15 16  1  0  0  0
 15 17  2  0  0  0
 17 18  1  0  0  0
 17 19  1  0  0  0
 19 20  2  0  0  0
  7 12  1  0  0  0
M  END
> <minimizedAffinity>
-7.09319

$$$$
3UG2_IRE_A_1


 32 35  0  0  0  0  0  0  0  0999 V2000
   -0.7305   49.2117   18.6154 C   0  0  0  0  0  0  0  0  0  0  0  0
   -1.2834   50.1470   17.7606 C   0  0  0  0  0  0  0  0  0  0  0  0
   -1.6941   51.3733   18.2651 C   0  0  0  0  0  0  0  0  0  0  0  0
   -0.6145   49.4860   19.9997 C   0  0  0  0  0  0  0  0  0  0  0  0
   -1.0663   50.7113   20.4872 C   0  0  0  0  0  0  0  0  0  0  0  0
   -1.6080   51.6454   19.6128 C   0  0  0  0  0  0  0  0  0  0  0  0
   -2.0486   52.8333   20.0631 N   0  0  0  0  0  0  0  0  0  0  0  0
   -1.9279   53.1720   21.3395 C   0  0  0  0  0  0  0  0  0  0  0  0
   -1.4058   52.3040   22.2035 N   0  0  0  0  0  0  0  0  0  0  0  0
   -0.9779   51.0803   21.8246 C   0  0  0  0  0  0  0  0  0  0  0  0
   -0.4550   50.2322   22.7270 N   0  0  0  0  0  0  0  0  0  0  0  0
   -2.4685   53.4631   19.4336 H   0  0  0  0  0  0  0  0  0  0  0  0
   -0.6452   50.2268   24.0815 C   0  0  0  0  0  0  0  0  0  0  0  0
    0.3257   50.7105   24.9607 C   0  0  0  0  0  0  0  0  0  0  0  0
    0.1108   50.6924   26.3332 C   0  0  0  0  0  0  0  0  0  0  0  0
    1.2960   51.2633   27.5475 Cl  0  0  0  0  0  0  0  0  0  0  0  0
   -1.0674   50.2265   26.8170 C   0  0  0  0  0  0  0  0  0  0  0  0
   -1.2002   50.2548   28.1661 F   0  0  0  0  0  0  0  0  0  0  0  0
   -2.0777   49.7691   25.9514 C   0  0  0  0  0  0  0  0  0  0  0  0
   -1.8711   49.7845   24.5859 C   0  0  0  0  0  0  0  0  0  0  0  0
   -1.4093   49.8756   16.4237 O   0  0  0  0  0  0  0  0  0  0  0  0
   -1.0170   50.9060   15.4827 C   0  0  0  0  0  0  0  0  0  0  0  0
   -0.3462   48.0371   18.0198 O   0  0  0  0  0  0  0  0  0  0  0  0
    1.0090   47.5493   17.9806 C   0  0  0  0  0  0  0  0  0  0  0  0
    1.7403   48.1373   16.7682 C   0  0  0  0  0  0  0  0  0  0  0  0
    1.0681   47.7679   15.4381 C   0  0  0  0  0  0  0  0  0  0  0  0
    2.6756   49.6351   14.9456 C   0  0  0  0  0  0  0  0  0  0  0  0
    3.1557   50.4469   13.7281 C   0  0  0  0  0  0  0  0  0  0  0  0
    2.0282   50.8661   12.9333 O   0  0  0  0  0  0  0  0  0  0  0  0
    1.2225   49.8263   12.3182 C   0  0  0  0  0  0  0  0  0  0  0  0
    1.3444   48.4616   13.0186 C   0  0  0  0  0  0  0  0  0  0  0  0
    1.7013   48.6361   14.4568 N   0  0  0  0  0  0  0  0  0  0  0  0
 27 28  1  0  0  0
 27 32  1  0  0  0
 28 29  1  0  0  0
 29 30  1  0  0  0
 30 31  1  0  0  0
 31 32  1  0  0  0
 32 26  1  0  0  0
 26 25  1  0  0  0
 25 24  1  0  0  0
 24 23  1  0  0  0
 23  1  1  0  0  0
  1  2  2  0  0  0
  1  4  1  0  0  0
  2  3  1  0  0  0
  2 21  1  0  0  0
  3  6  2  0  0  0
 21 22  1  0  0  0
  4  5  2  0  0  0
  5  6  1  0  0  0
  5 10  1  0  0  0
  6  7  1  0  0  0
  7  8  1  0  0  0
  8  9  2  0  0  0
  9 10  1  0  0  0
 10 11  2  0  0  0
 11 13  1  0  0  0
 13 14  2  0  0  0
 13 20  1  0  0  0
 14 15  1  0  0  0
 15 16  1  0  0  0
 15 17  2  0  0  0
 17 18  1  0  0  0
 17 19  1  0  0  0
 19 20  2  0  0  0
  7 12  1  0  0  0
M  END
> <minimizedAffinity>
-6.98726

$$$$
3UG2_IRE_A_1


 32 35  0  0  0  0  0  0  0  0999 V2000
    4.5857   48.3955   20.9733 C   0  0  0  0  0  0  0  0  0  0  0  0
    5.8403   48.8417   21.3449 C   0  0  0  0  0  0  0  0  0  0  0  0
    5.9924   49.5314   22.5400 C   0  0  0  0  0  0  0  0  0  0  0  0
    3.4583   48.6680   21.7855 C   0  0  0  0  0  0  0  0  0  0  0  0
    3.6320   49.3927   22.9636 C   0  0  0  0  0  0  0  0  0  0  0  0
    4.9014   49.8231   23.3291 C   0  0  0  0  0  0  0  0  0  0  0  0
    5.0900   50.5226   24.4618 N   0  0  0  0  0  0  0  0  0  0  0  0
    4.0854   50.7726   25.2904 C   0  0  0  0  0  0  0  0  0  0  0  0
    2.8569   50.3675   24.9752 N   0  0  0  0  0  0  0  0  0  0  0  0
    2.5917   49.6931   23.8355 C   0  0  0  0  0  0  0  0  0  0  0  0
    1.3377   49.2995   23.5532 N   0  0  0  0  0  0  0  0  0  0  0  0
    5.9906   50.8553   24.6800 H   0  0  0  0  0  0  0  0  0  0  0  0
    0.1674   49.8193   24.0339 C   0  0  0  0  0  0  0  0  0  0  0  0
   -0.3012   51.0704   23.6280 C   0  0  0  0  0  0  0  0  0  0  0  0
   -1.4918   51.5789   24.1321 C   0  0  0  0  0  0  0  0  0  0  0  0
   -2.1693   53.1784   23.6991 Cl  0  0  0  0  0  0  0  0  0  0  0  0
   -2.2171   50.8357   25.0046 C   0  0  0  0  0  0  0  0  0  0  0  0
   -3.3711   51.4003   25.4384 F   0  0  0  0  0  0  0  0  0  0  0  0
   -1.7874   49.5561   25.4005 C   0  0  0  0  0  0  0  0  0  0  0  0
   -0.6050   49.0441   24.9031 C   0  0  0  0  0  0  0  0  0  0  0  0
    6.9285   48.5910   20.5516 O   0  0  0  0  0  0  0  0  0  0  0  0
    7.9115   47.6390   21.0298 C   0  0  0  0  0  0  0  0  0  0  0  0
    4.5410   47.7155   19.7826 O   0  0  0  0  0  0  0  0  0  0  0  0
    4.2916   48.3294   18.5032 C   0  0  0  0  0  0  0  0  0  0  0  0
    2.8251   48.7671   18.4116 C   0  0  0  0  0  0  0  0  0  0  0  0
    2.6548   50.2877   18.5376 C   0  0  0  0  0  0  0  0  0  0  0  0
    0.3271   49.7936   17.7310 C   0  0  0  0  0  0  0  0  0  0  0  0
   -1.1183   50.1999   18.0737 C   0  0  0  0  0  0  0  0  0  0  0  0
   -1.2066   51.6289   18.2443 O   0  0  0  0  0  0  0  0  0  0  0  0
   -0.4489   52.2184   19.3338 C   0  0  0  0  0  0  0  0  0  0  0  0
    0.7331   51.3498   19.7988 C   0  0  0  0  0  0  0  0  0  0  0  0
    1.2204   50.4822   18.6870 N   0  0  0  0  0  0  0  0  0  0  0  0
 27 28  1  0  0  0
 27 32  1  0  0  0
 28 29  1  0  0  0
 29 30  1  0  0  0
 30 31  1  0  0  0
 31 32  1  0  0  0
 32 26  1  0  0  0
 26 25  1  0  0  0
 25 24  1  0  0  0
 24 23  1  0  0  0
 23  1  1  0  0  0
  1  2  2  0  0  0
  1  4  1  0  0  0
  2  3  1  0  0  0
  2 21  1  0  0  0
  3  6  2  0  0  0
 21 22  1  0  0  0
  4  5  2  0  0  0
  5  6  1  0  0  0
  5 10  1  0  0  0
  6  7  1  0  0  0
  7  8  1  0  0  0
  8  9  2  0  0  0
  9 10  1  0  0  0
 10 11  2  0  0  0
 11 13  1  0  0  0
 13 14  2  0  0  0
 13 20  1  0  0  0
 14 15  1  0  0  0
 15 16  1  0  0  0
 15 17  2  0  0  0
 17 18  1  0  0  0
 17 19  1  0  0  0
 19 20  2  0  0  0
  7 12  1  0  0  0
M  END
> <minimizedAffinity>
-6.78695

$$$$
3UG2_IRE_A_1


 32 35  0  0  0  0  0  0  0  0999 V2000
   -0.2155   49.4162   22.8834 C   0  0  0  0  0  0  0  0  0  0  0  0
   -0.8709   50.5387   23.3541 C   0  0  0  0  0  0  0  0  0  0  0  0
   -1.4919   51.3936   22.4539 C   0  0  0  0  0  0  0  0  0  0  0  0
   -0.1471   49.1565   21.4931 C   0  0  0  0  0  0  0  0  0  0  0  0
   -0.7491   50.0488   20.6073 C   0  0  0  0  0  0  0  0  0  0  0  0
   -1.4146   51.1656   21.0974 C   0  0  0  0  0  0  0  0  0  0  0  0
   -2.0024   52.0377   20.2596 N   0  0  0  0  0  0  0  0  0  0  0  0
   -2.0152   51.8303   18.9499 C   0  0  0  0  0  0  0  0  0  0  0  0
   -1.3940   50.7656   18.4468 N   0  0  0  0  0  0  0  0  0  0  0  0
   -0.7526   49.8703   19.2286 C   0  0  0  0  0  0  0  0  0  0  0  0
   -0.1381   48.8067   18.6828 N   0  0  0  0  0  0  0  0  0  0  0  0
   -2.4311   52.8450   20.6252 H   0  0  0  0  0  0  0  0  0  0  0  0
    0.3139   48.6666   17.3994 C   0  0  0  0  0  0  0  0  0  0  0  0
    1.4871   49.2855   16.9631 C   0  0  0  0  0  0  0  0  0  0  0  0
    1.9251   49.1306   15.6536 C   0  0  0  0  0  0  0  0  0  0  0  0
    3.3979   49.8981   14.9852 Cl  0  0  0  0  0  0  0  0  0  0  0  0
    1.2182   48.3456   14.8031 C   0  0  0  0  0  0  0  0  0  0  0  0
    1.7207   48.2386   13.5483 F   0  0  0  0  0  0  0  0  0  0  0  0
    0.0540   47.6797   15.2276 C   0  0  0  0  0  0  0  0  0  0  0  0
   -0.3872   47.8288   16.5280 C   0  0  0  0  0  0  0  0  0  0  0  0
   -0.9241   50.7979   24.6982 O   0  0  0  0  0  0  0  0  0  0  0  0
   -2.1898   50.6017   25.3771 C   0  0  0  0  0  0  0  0  0  0  0  0
    0.3559   48.6295   23.8512 O   0  0  0  0  0  0  0  0  0  0  0  0
    1.3583   47.6260   23.5979 C   0  0  0  0  0  0  0  0  0  0  0  0
    2.2387   47.4428   24.8396 C   0  0  0  0  0  0  0  0  0  0  0  0
    3.6528   48.0093   24.6483 C   0  0  0  0  0  0  0  0  0  0  0  0
    3.1769   49.8650   26.2739 C   0  0  0  0  0  0  0  0  0  0  0  0
    3.0373   51.3987   26.2584 C   0  0  0  0  0  0  0  0  0  0  0  0
    2.2107   51.8121   25.1518 O   0  0  0  0  0  0  0  0  0  0  0  0
    2.6975   51.5285   23.8134 C   0  0  0  0  0  0  0  0  0  0  0  0
    3.7215   50.3810   23.7640 C   0  0  0  0  0  0  0  0  0  0  0  0
    3.5105   49.4357   24.8990 N   0  0  0  0  0  0  0  0  0  0  0  0
 27 28  1  0  0  0
 27 32  1  0  0  0
 28 29  1  0  0  0
 29 30  1  0  0  0
 30 31  1  0  0  0
 31 32  1  0  0  0
 32 26  1  0  0  0
 26 25  1  0  0  0
 25 24  1  0  0  0
 24 23  1  0  0  0
 23  1  1  0  0  0
  1  2  2  0  0  0
  1  4  1  0  0  0
  2  3  1  0  0  0
  2 21  1  0  0  0
  3  6  2  0  0  0
 21 22  1  0  0  0
  4  5  2  0  0  0
  5  6  1  0  0  0
  5 10  1  0  0  0
  6  7  1  0  0  0
  7  8  1  0  0  0
  8  9  2  0  0  0
  9 10  1  0  0  0
 10 11  2  0  0  0
 11 13  1  0  0  0
 13 14  2  0  0  0
 13 20  1  0  0  0
 14 15  1  0  0  0
 15 16  1  0  0  0
 15 17  2  0  0  0
 17 18  1  0  0  0
 17 19  1  0  0  0
 19 20  2  0  0  0
  7 12  1  0  0  0
M  END
> <minimizedAffinity>
-6.68979

$$$$
3UG2_IRE_A_1


 32 35  0  0  0  0  0  0  0  0999 V2000
    0.1950   49.0940   17.0133 C   0  0  0  0  0  0  0  0  0  0  0  0
   -0.7624   49.7287   16.2440 C   0  0  0  0  0  0  0  0  0  0  0  0
   -1.4729   50.7933   16.7813 C   0  0  0  0  0  0  0  0  0  0  0  0
    0.4268   49.5017   18.3493 C   0  0  0  0  0  0  0  0  0  0  0  0
   -0.3243   50.5508   18.8769 C   0  0  0  0  0  0  0  0  0  0  0  0
   -1.2739   51.1863   18.0866 C   0  0  0  0  0  0  0  0  0  0  0  0
   -2.0079   52.2007   18.5766 N   0  0  0  0  0  0  0  0  0  0  0  0
   -1.8099   52.6621   19.8039 C   0  0  0  0  0  0  0  0  0  0  0  0
   -0.9020   52.0816   20.5859 N   0  0  0  0  0  0  0  0  0  0  0  0
   -0.1568   51.0351   20.1693 C   0  0  0  0  0  0  0  0  0  0  0  0
    0.7512   50.4768   20.9883 N   0  0  0  0  0  0  0  0  0  0  0  0
   -2.7053   52.6084   18.0138 H   0  0  0  0  0  0  0  0  0  0  0  0
    0.7861   50.5195   22.3550 C   0  0  0  0  0  0  0  0  0  0  0  0
   -0.1589   49.8494   23.1344 C   0  0  0  0  0  0  0  0  0  0  0  0
   -0.1046   49.9096   24.5215 C   0  0  0  0  0  0  0  0  0  0  0  0
   -1.2776   49.1106   25.6126 Cl  0  0  0  0  0  0  0  0  0  0  0  0
    0.8958   50.6032   25.1195 C   0  0  0  0  0  0  0  0  0  0  0  0
    0.8821   50.6014   26.4754 F   0  0  0  0  0  0  0  0  0  0  0  0
    1.8829   51.2554   24.3584 C   0  0  0  0  0  0  0  0  0  0  0  0
    1.8353   51.1997   22.9792 C   0  0  0  0  0  0  0  0  0  0  0  0
   -0.9970   49.3243   14.9564 O   0  0  0  0  0  0  0  0  0  0  0  0
   -1.0467   50.3413   13.9246 C   0  0  0  0  0  0  0  0  0  0  0  0
    0.8497   48.0622   16.3896 O   0  0  0  0  0  0  0  0  0  0  0  0
    2.2530   48.0674   16.0628 C   0  0  0  0  0  0  0  0  0  0  0  0
    2.5144   49.0332   14.9011 C   0  0  0  0  0  0  0  0  0  0  0  0
    2.6575   48.3103   13.5543 C   0  0  0  0  0  0  0  0  0  0  0  0
    3.1929   50.7135   13.0536 C   0  0  0  0  0  0  0  0  0  0  0  0
    3.9019   51.5283   11.9559 C   0  0  0  0  0  0  0  0  0  0  0  0
    3.4721   51.0869   10.6523 O   0  0  0  0  0  0  0  0  0  0  0  0
    3.7814   49.7189   10.2760 C   0  0  0  0  0  0  0  0  0  0  0  0
    4.0272   48.7927   11.4798 C   0  0  0  0  0  0  0  0  0  0  0  0
    3.2962   49.2858   12.6836 N   0  0  0  0  0  0  0  0  0  0  0  0
 27 28  1  0  0  0
 27 32  1  0  0  0
 28 29  1  0  0  0
 29 30  1  0  0  0
 30 31  1  0  0  0
 31 32  1  0  0  0
 32 26  1  0  0  0
 26 25  1  0  0  0
 25 24  1  0  0  0
 24 23  1  0  0  0
 23  1  1  0  0  0
  1  2  2  0  0  0
  1  4  1  0  0  0
  2  3  1  0  0  0
  2 21  1  0  0  0
  3  6  2  0  0  0
 21 22  1  0  0  0
  4  5  2  0  0  0
  5  6  1  0  0  0
  5 10  1  0  0  0
  6  7  1  0  0  0
  7  8  1  0  0  0
  8  9  2  0  0  0
  9 10  1  0  0  0
 10 11  2  0  0  0
 11 13  1  0  0  0
 13 14  2  0  0  0
 13 20  1  0  0  0
 14 15  1  0  0  0
 15 16  1  0  0  0
 15 17  2  0  0  0
 17 18  1  0  0  0
 17 19  1  0  0  0
 19 20  2  0  0  0
  7 12  1  0  0  0
M  END
> <minimizedAffinity>
-6.56550

$$$$
3UG2_IRE_A_1


 32 35  0  0  0  0  0  0  0  0999 V2000
   -0.3222   49.6269   24.2521 C   0  0  0  0  0  0  0  0  0  0  0  0
   -0.4753   50.7353   25.0639 C   0  0  0  0  0  0  0  0  0  0  0  0
   -0.9505   51.9199   24.5182 C   0  0  0  0  0  0  0  0  0  0  0  0
   -0.6139   49.7059   22.8687 C   0  0  0  0  0  0  0  0  0  0  0  0
   -1.0564   50.9167   22.3383 C   0  0  0  0  0  0  0  0  0  0  0  0
   -1.2170   52.0178   23.1701 C   0  0  0  0  0  0  0  0  0  0  0  0
   -1.6436   53.1942   22.6781 N   0  0  0  0  0  0  0  0  0  0  0  0
   -1.9778   53.3244   21.4015 C   0  0  0  0  0  0  0  0  0  0  0  0
   -1.8440   52.2870   20.5777 N   0  0  0  0  0  0  0  0  0  0  0  0
   -1.3862   51.0881   20.9986 C   0  0  0  0  0  0  0  0  0  0  0  0
   -1.2666   50.0640   20.1363 N   0  0  0  0  0  0  0  0  0  0  0  0
   -1.7089   53.9731   23.2766 H   0  0  0  0  0  0  0  0  0  0  0  0
   -1.1435   50.1236   18.7753 C   0  0  0  0  0  0  0  0  0  0  0  0
   -0.2905   49.2662   18.0775 C   0  0  0  0  0  0  0  0  0  0  0  0
   -0.1802   49.3473   16.6949 C   0  0  0  0  0  0  0  0  0  0  0  0
    0.8991   48.3159   15.7068 Cl  0  0  0  0  0  0  0  0  0  0  0  0
   -0.9328   50.2502   16.0183 C   0  0  0  0  0  0  0  0  0  0  0  0
   -0.7736   50.2555   14.6718 F   0  0  0  0  0  0  0  0  0  0  0  0
   -1.8285   51.0997   16.6930 C   0  0  0  0  0  0  0  0  0  0  0  0
   -1.9436   51.0244   18.0673 C   0  0  0  0  0  0  0  0  0  0  0  0
   -0.1788   50.6629   26.3994 O   0  0  0  0  0  0  0  0  0  0  0  0
    0.9394   51.4445   26.8891 C   0  0  0  0  0  0  0  0  0  0  0  0
    0.1422   48.5027   24.8866 O   0  0  0  0  0  0  0  0  0  0  0  0
    1.5350   48.2135   25.1153 C   0  0  0  0  0  0  0  0  0  0  0  0
    2.3911   48.8806   24.0325 C   0  0  0  0  0  0  0  0  0  0  0  0
    2.8222   47.8986   22.9338 C   0  0  0  0  0  0  0  0  0  0  0  0
    2.2718   49.1551   20.8288 C   0  0  0  0  0  0  0  0  0  0  0  0
    3.0045   49.9994   19.7695 C   0  0  0  0  0  0  0  0  0  0  0  0
    4.2202   49.3402   19.3613 O   0  0  0  0  0  0  0  0  0  0  0  0
    5.2453   49.1468   20.3715 C   0  0  0  0  0  0  0  0  0  0  0  0
    4.7005   49.1721   21.8104 C   0  0  0  0  0  0  0  0  0  0  0  0
    3.2700   48.7489   21.8410 N   0  0  0  0  0  0  0  0  0  0  0  0
 27 28  1  0  0  0
 27 32  1  0  0  0
 28 29  1  0  0  0
 29 30  1  0  0  0
 30 31  1  0  0  0
 31 32  1  0  0  0
 32 26  1  0  0  0
 26 25  1  0  0  0
 25 24  1  0  0  0
 24 23  1  0  0  0
 23  1  1  0  0  0
  1  2  2  0  0  0
  1  4  1  0  0  0
  2  3  1  0  0  0
  2 21  1  0  0  0
  3  6  2  0  0  0
 21 22  1  0  0  0
  4  5  2  0  0  0
  5  6  1  0  0  0
  5 10  1  0  0  0
  6  7  1  0  0  0
  7  8  1  0  0  0
  8  9  2  0  0  0
  9 10  1  0  0  0
 10 11  2  0  0  0
 11 13  1  0  0  0
 13 14  2  0  0  0
 13 20  1  0  0  0
 14 15  1  0  0  0
 15 16  1  0  0  0
 15 17  2  0  0  0
 17 18  1  0  0  0
 17 19  1  0  0  0
 19 20  2  0  0  0
  7 12  1  0  0  0
M  END
> <minimizedAffinity>
-6.53511

$$$$
3UG2_IRE_A_1


 32 35  0  0  0  0  0  0  0  0999 V2000
   -0.5078   49.3273   21.7181 C   0  0  0  0  0  0  0  0  0  0  0  0
   -1.1587   50.5031   22.0423 C   0  0  0  0  0  0  0  0  0  0  0  0
   -1.7286   51.2675   21.0335 C   0  0  0  0  0  0  0  0  0  0  0  0
   -0.3919   48.9214   20.3666 C   0  0  0  0  0  0  0  0  0  0  0  0
   -0.9425   49.7243   19.3690 C   0  0  0  0  0  0  0  0  0  0  0  0
   -1.6044   50.8966   19.7125 C   0  0  0  0  0  0  0  0  0  0  0  0
   -2.1431   51.6843   18.7653 N   0  0  0  0  0  0  0  0  0  0  0  0
   -2.1103   51.3402   17.4851 C   0  0  0  0  0  0  0  0  0  0  0  0
   -1.4912   50.2191   17.1213 N   0  0  0  0  0  0  0  0  0  0  0  0
   -0.8973   49.4016   18.0175 C   0  0  0  0  0  0  0  0  0  0  0  0
   -0.2832   48.2771   17.6109 N   0  0  0  0  0  0  0  0  0  0  0  0
   -2.5697   52.5321   19.0270 H   0  0  0  0  0  0  0  0  0  0  0  0
    0.2142   47.9955   16.3683 C   0  0  0  0  0  0  0  0  0  0  0  0
   -0.5148   47.2532   15.4371 C   0  0  0  0  0  0  0  0  0  0  0  0
    0.0125   46.9776   14.1815 C   0  0  0  0  0  0  0  0  0  0  0  0
   -0.8248   46.0163   12.9246 Cl  0  0  0  0  0  0  0  0  0  0  0  0
    1.2357   47.4618   13.8517 C   0  0  0  0  0  0  0  0  0  0  0  0
    1.6706   47.1571   12.6041 F   0  0  0  0  0  0  0  0  0  0  0  0
    1.9749   48.2447   14.7570 C   0  0  0  0  0  0  0  0  0  0  0  0
    1.4568   48.5230   16.0068 C   0  0  0  0  0  0  0  0  0  0  0  0
   -1.2578   50.9033   23.3487 O   0  0  0  0  0  0  0  0  0  0  0  0
   -0.4838   52.0559   23.7653 C   0  0  0  0  0  0  0  0  0  0  0  0
    0.0113   48.6385   22.7850 O   0  0  0  0  0  0  0  0  0  0  0  0
    1.3269   48.0515   22.8129 C   0  0  0  0  0  0  0  0  0  0  0  0
    1.7646   47.8210   24.2640 C   0  0  0  0  0  0  0  0  0  0  0  0
    0.7363   48.3397   25.2794 C   0  0  0  0  0  0  0  0  0  0  0  0
    0.6043   50.3739   26.7482 C   0  0  0  0  0  0  0  0  0  0  0  0
    1.5589   51.4267   27.3416 C   0  0  0  0  0  0  0  0  0  0  0  0
    2.4661   51.9040   26.3275 O   0  0  0  0  0  0  0  0  0  0  0  0
    3.3844   50.9403   25.7474 C   0  0  0  0  0  0  0  0  0  0  0  0
    2.9125   49.4824   25.8878 C   0  0  0  0  0  0  0  0  0  0  0  0
    1.4246   49.4152   25.9773 N   0  0  0  0  0  0  0  0  0  0  0  0
 27 28  1  0  0  0
 27 32  1  0  0  0
 28 29  1  0  0  0
 29 30  1  0  0  0
 30 31  1  0  0  0
 31 32  1  0  0  0
 32 26  1  0  0  0
 26 25  1  0  0  0
 25 24  1  0  0  0
 24 23  1  0  0  0
 23  1  1  0  0  0
  1  2  2  0  0  0
  1  4  1  0  0  0
  2  3  1  0  0  0
  2 21  1  0  0  0
  3  6  2  0  0  0
 21 22  1  0  0  0
  4  5  2  0  0  0
  5  6  1  0  0  0
  5 10  1  0  0  0
  6  7  1  0  0  0
  7  8  1  0  0  0
  8  9  2  0  0  0
  9 10  1  0  0  0
 10 11  2  0  0  0
 11 13  1  0  0  0
 13 14  2  0  0  0
 13 20  1  0  0  0
 14 15  1  0  0  0
 15 16  1  0  0  0
 15 17  2  0  0  0
 17 18  1  0  0  0
 17 19  1  0  0  0
 19 20  2  0  0  0
  7 12  1  0  0  0
M  END
> <minimizedAffinity>
-6.40301

$$$$
3UG2_IRE_A_1


 32 35  0  0  0  0  0  0  0  0999 V2000
   -0.9246   51.1637   23.1189 C   0  0  0  0  0  0  0  0  0  0  0  0
   -1.4768   52.4203   22.9542 C   0  0  0  0  0  0  0  0  0  0  0  0
   -1.6946   52.9068   21.6724 C   0  0  0  0  0  0  0  0  0  0  0  0
   -0.5515   50.3914   21.9922 C   0  0  0  0  0  0  0  0  0  0  0  0
   -0.7483   50.9168   20.7161 C   0  0  0  0  0  0  0  0  0  0  0  0
   -1.3160   52.1761   20.5676 C   0  0  0  0  0  0  0  0  0  0  0  0
   -1.5150   52.7002   19.3454 N   0  0  0  0  0  0  0  0  0  0  0  0
   -1.2307   52.0121   18.2480 C   0  0  0  0  0  0  0  0  0  0  0  0
   -0.6930   50.7987   18.3538 N   0  0  0  0  0  0  0  0  0  0  0  0
   -0.4327   50.2285   19.5502 C   0  0  0  0  0  0  0  0  0  0  0  0
    0.1096   49.0004   19.6156 N   0  0  0  0  0  0  0  0  0  0  0  0
   -1.8784   53.6115   19.2637 H   0  0  0  0  0  0  0  0  0  0  0  0
    0.8414   48.3546   18.6572 C   0  0  0  0  0  0  0  0  0  0  0  0
    2.2331   48.2689   18.7305 C   0  0  0  0  0  0  0  0  0  0  0  0
    2.9554   47.6097   17.7434 C   0  0  0  0  0  0  0  0  0  0  0  0
    4.7395   47.4630   17.7269 Cl  0  0  0  0  0  0  0  0  0  0  0  0
    2.2947   47.0201   16.7161 C   0  0  0  0  0  0  0  0  0  0  0  0
    3.0733   46.3884   15.8032 F   0  0  0  0  0  0  0  0  0  0  0  0
    0.8907   47.0584   16.6385 C   0  0  0  0  0  0  0  0  0  0  0  0
    0.1662   47.7115   17.6163 C   0  0  0  0  0  0  0  0  0  0  0  0
   -1.8239   53.1735   24.0445 O   0  0  0  0  0  0  0  0  0  0  0  0
   -1.2789   54.5129   24.1447 C   0  0  0  0  0  0  0  0  0  0  0  0
   -0.7596   50.7689   24.4224 O   0  0  0  0  0  0  0  0  0  0  0  0
   -1.1346   49.4757   24.9352 C   0  0  0  0  0  0  0  0  0  0  0  0
    0.0976   48.7630   25.5047 C   0  0  0  0  0  0  0  0  0  0  0  0
    0.8038   49.5848   26.5923 C   0  0  0  0  0  0  0  0  0  0  0  0
    2.5601   50.8667   25.3334 C   0  0  0  0  0  0  0  0  0  0  0  0
    4.0408   50.7056   24.9417 C   0  0  0  0  0  0  0  0  0  0  0  0
    4.2789   49.3788   24.4300 O   0  0  0  0  0  0  0  0  0  0  0  0
    4.0730   48.2662   25.3402 C   0  0  0  0  0  0  0  0  0  0  0  0
    3.1351   48.5997   26.5136 C   0  0  0  0  0  0  0  0  0  0  0  0
    2.1821   49.6841   26.1362 N   0  0  0  0  0  0  0  0  0  0  0  0
 27 28  1  0  0  0
 27 32  1  0  0  0
 28 29  1  0  0  0
 29 30  1  0  0  0
 30 31  1  0  0  0
 31 32  1  0  0  0
 32 26  1  0  0  0
 26 25  1  0  0  0
 25 24  1  0  0  0
 24 23  1  0  0  0
 23  1  1  0  0  0
  1  2  2  0  0  0
  1  4  1  0  0  0
  2  3  1  0  0  0
  2 21  1  0  0  0
  3  6  2  0  0  0
 21 22  1  0  0  0
  4  5  2  0  0  0
  5  6  1  0  0  0
  5 10  1  0  0  0
  6  7  1  0  0  0
  7  8  1  0  0  0
  8  9  2  0  0  0
  9 10  1  0  0  0
 10 11  2  0  0  0
 11 13  1  0  0  0
 13 14  2  0  0  0
 13 20  1  0  0  0
 14 15  1  0  0  0
 15 16  1  0  0  0
 15 17  2  0  0  0
 17 18  1  0  0  0
 17 19  1  0  0  0
 19 20  2  0  0  0
  7 12  1  0  0  0
M  END
> <minimizedAffinity>
-6.36205

$$$$
