1L8G_DBD_A_322


 34 37  0  0  0  0  0  0  0  0999 V2000
   13.8808   44.0766   16.8727 O   0  0  0  0  0  0  0  0  0  0  0  0
   13.8939   44.9497   17.9915 C   0  0  0  0  0  0  0  0  0  0  0  0
   12.4915   45.2362   18.4160 C   0  0  0  0  0  0  0  0  0  0  0  0
   11.3933   44.8472   17.7511 C   0  0  0  0  0  0  0  0  0  0  0  0
   11.4838   43.9936   16.5343 C   0  0  0  0  0  0  0  0  0  0  0  0
   12.7812   43.2113   16.7379 C   0  0  0  0  0  0  0  0  0  0  0  0
   12.1754   45.9632   19.9287 S   0  0  0  0  0  0  0  0  0  0  0  0
   10.4914   45.7311   19.6234 C   0  0  0  0  0  0  0  0  0  0  0  0
   10.1428   45.1808   18.4540 C   0  0  0  0  0  0  0  0  0  0  0  0
    8.7077   45.0125   18.0029 C   0  0  0  0  0  0  0  0  0  0  0  0
    8.4727   44.7482   16.8608 O   0  0  0  0  0  0  0  0  0  0  0  0
    7.6680   45.1359   18.8301 O   0  0  0  0  0  0  0  0  0  0  0  0
    7.8096   45.3423   19.7331 H   0  0  0  0  0  0  0  0  0  0  0  0
    9.4879   46.1703   20.5629 N   0  0  0  0  0  0  0  0  0  0  0  0
    9.4883   47.3142   21.2466 C   0  0  0  0  0  0  0  0  0  0  0  0
   10.4110   48.1428   21.2871 O   0  0  0  0  0  0  0  0  0  0  0  0
    8.7268   45.5643   20.7138 H   0  0  0  0  0  0  0  0  0  0  0  0
    8.2302   47.5455   22.1045 C   0  0  0  0  0  0  0  0  0  0  0  0
    7.2883   46.8156   22.1393 O   0  0  0  0  0  0  0  0  0  0  0  0
    8.1369   48.7211   22.7460 O   0  0  0  0  0  0  0  0  0  0  0  0
    8.8593   49.3178   22.7382 H   0  0  0  0  0  0  0  0  0  0  0  0
   14.6230   46.1332   17.4538 C   0  0  0  0  0  0  0  0  0  0  0  0
   15.9592   45.7225   17.3139 O   0  0  0  0  0  0  0  0  0  0  0  0
   16.8738   46.2719   18.2218 C   0  0  0  0  0  0  0  0  0  0  0  0
   17.2383   45.5856   19.4354 C   0  0  0  0  0  0  0  0  0  0  0  0
   18.2408   46.2886   20.0911 C   0  0  0  0  0  0  0  0  0  0  0  0
   18.6486   47.7883   19.3597 S   0  0  0  0  0  0  0  0  0  0  0  0
   17.5589   47.4444   18.2247 N   0  0  0  0  0  0  0  0  0  0  0  0
   16.7812   44.3518   19.8356 C   0  0  0  0  0  0  0  0  0  0  0  0
   17.2242   43.8342   21.0531 C   0  0  0  0  0  0  0  0  0  0  0  0
   18.2269   44.5094   21.7579 C   0  0  0  0  0  0  0  0  0  0  0  0
   18.6924   45.7435   21.3245 C   0  0  0  0  0  0  0  0  0  0  0  0
   19.9457   47.7207   18.8266 O   0  0  0  0  0  0  0  0  0  0  0  0
   18.2094   48.8963   20.2043 O   0  0  0  0  0  0  0  0  0  0  0  0
  1  2  1  0  0  0
  1  6  1  0  0  0
  2  3  1  0  0  0
  2 22  1  0  0  0
  3  4  2  0  0  0
  3  7  1  0  0  0
  4  5  1  0  0  0
  4  9  1  0  0  0
  5  6  1  0  0  0
  7  8  1  0  0  0
  8  9  2  0  0  0
  8 14  1  0  0  0
  9 10  1  0  0  0
 10 11  2  0  0  0
 10 12  1  0  0  0
 14 15  1  0  0  0
 15 18  1  0  0  0
 15 16  2  0  0  0
 18 19  2  0  0  0
 18 20  1  0  0  0
 22 23  1  0  0  0
 23 24  1  0  0  0
 24 25  1  0  0  0
 24 28  2  0  0  0
 25 26  2  0  0  0
 25 29  1  0  0  0
 26 27  1  0  0  0
 26 32  1  0  0  0
 27 28  1  0  0  0
 27 33  2  0  0  0
 27 34  2  0  0  0
 29 30  2  0  0  0
 30 31  1  0  0  0
 31 32  2  0  0  0
 12 13  1  0  0  0
 14 17  1  0  0  0
 20 21  1  0  0  0
M  END
> <minimizedAffinity>
-9.64994

$$$$
1L8G_DBD_A_322


 34 37  0  0  0  0  0  0  0  0999 V2000
   13.8938   43.8725   17.2305 O   0  0  0  0  0  0  0  0  0  0  0  0
   13.8817   44.7941   18.3097 C   0  0  0  0  0  0  0  0  0  0  0  0
   12.4722   45.1700   18.6278 C   0  0  0  0  0  0  0  0  0  0  0  0
   11.3997   44.8067   17.9086 C   0  0  0  0  0  0  0  0  0  0  0  0
   11.5223   43.8949   16.7378 C   0  0  0  0  0  0  0  0  0  0  0  0
   12.7605   43.0583   17.0599 C   0  0  0  0  0  0  0  0  0  0  0  0
   12.0990   45.9804   20.0840 S   0  0  0  0  0  0  0  0  0  0  0  0
   10.4280   45.8197   19.6779 C   0  0  0  0  0  0  0  0  0  0  0  0
   10.1262   45.2346   18.5123 C   0  0  0  0  0  0  0  0  0  0  0  0
    8.7160   45.1183   17.9746 C   0  0  0  0  0  0  0  0  0  0  0  0
    8.5321   45.0978   16.7934 O   0  0  0  0  0  0  0  0  0  0  0  0
    7.6441   45.0256   18.7638 O   0  0  0  0  0  0  0  0  0  0  0  0
    7.7455   45.0380   19.6952 H   0  0  0  0  0  0  0  0  0  0  0  0
    9.3913   46.3514   20.5293 N   0  0  0  0  0  0  0  0  0  0  0  0
    9.5356   47.2938   21.4604 C   0  0  0  0  0  0  0  0  0  0  0  0
   10.6076   47.7889   21.8414 O   0  0  0  0  0  0  0  0  0  0  0  0
    8.4869   45.9809   20.4103 H   0  0  0  0  0  0  0  0  0  0  0  0
    8.2234   47.7216   22.1443 C   0  0  0  0  0  0  0  0  0  0  0  0
    8.0909   48.7053   22.8044 O   0  0  0  0  0  0  0  0  0  0  0  0
    7.2027   46.8504   22.1048 O   0  0  0  0  0  0  0  0  0  0  0  0
    7.2745   46.0673   21.5954 H   0  0  0  0  0  0  0  0  0  0  0  0
   14.7057   45.9136   17.7719 C   0  0  0  0  0  0  0  0  0  0  0  0
   15.9698   45.3600   17.5090 O   0  0  0  0  0  0  0  0  0  0  0  0
   16.8953   45.4038   18.5598 C   0  0  0  0  0  0  0  0  0  0  0  0
   18.2487   44.9373   18.3941 C   0  0  0  0  0  0  0  0  0  0  0  0
   18.9814   45.1999   19.5445 C   0  0  0  0  0  0  0  0  0  0  0  0
   18.0607   45.8611   20.8350 S   0  0  0  0  0  0  0  0  0  0  0  0
   16.7883   45.8180   19.8486 N   0  0  0  0  0  0  0  0  0  0  0  0
   18.7952   44.4344   17.2366 C   0  0  0  0  0  0  0  0  0  0  0  0
   20.1242   44.0102   17.2507 C   0  0  0  0  0  0  0  0  0  0  0  0
   20.9034   44.2430   18.3894 C   0  0  0  0  0  0  0  0  0  0  0  0
   20.3382   44.7739   19.5410 C   0  0  0  0  0  0  0  0  0  0  0  0
   18.4524   47.1891   21.0676 O   0  0  0  0  0  0  0  0  0  0  0  0
   17.9335   44.8851   21.9145 O   0  0  0  0  0  0  0  0  0  0  0  0
  1  2  1  0  0  0
  1  6  1  0  0  0
  2  3  1  0  0  0
  2 22  1  0  0  0
  3  4  2  0  0  0
  3  7  1  0  0  0
  4  5  1  0  0  0
  4  9  1  0  0  0
  5  6  1  0  0  0
  7  8  1  0  0  0
  8  9  2  0  0  0
  8 14  1  0  0  0
  9 10  1  0  0  0
 10 11  2  0  0  0
 10 12  1  0  0  0
 14 15  1  0  0  0
 15 18  1  0  0  0
 15 16  2  0  0  0
 18 19  2  0  0  0
 18 20  1  0  0  0
 22 23  1  0  0  0
 23 24  1  0  0  0
 24 25  1  0  0  0
 24 28  2  0  0  0
 25 26  2  0  0  0
 25 29  1  0  0  0
 26 27  1  0  0  0
 26 32  1  0  0  0
 27 28  1  0  0  0
 27 33  2  0  0  0
 27 34  2  0  0  0
 29 30  2  0  0  0
 30 31  1  0  0  0
 31 32  2  0  0  0
 12 13  1  0  0  0
 14 17  1  0  0  0
 20 21  1  0  0  0
M  END
> <minimizedAffinity>
-9.46981

$$$$
1L8G_DBD_A_322


 34 37  0  0  0  0  0  0  0  0999 V2000
   13.8921   43.8544   17.0963 O   0  0  0  0  0  0  0  0  0  0  0  0
   13.8960   44.7509   18.1965 C   0  0  0  0  0  0  0  0  0  0  0  0
   12.4932   45.1426   18.5247 C   0  0  0  0  0  0  0  0  0  0  0  0
   11.4143   44.8138   17.7985 C   0  0  0  0  0  0  0  0  0  0  0  0
   11.5210   43.9274   16.6067 C   0  0  0  0  0  0  0  0  0  0  0  0
   12.7454   43.0633   16.9081 C   0  0  0  0  0  0  0  0  0  0  0  0
   12.1345   45.9252   19.9997 S   0  0  0  0  0  0  0  0  0  0  0  0
   10.4608   45.8015   19.5918 C   0  0  0  0  0  0  0  0  0  0  0  0
   10.1485   45.2486   18.4133 C   0  0  0  0  0  0  0  0  0  0  0  0
    8.7362   45.1681   17.8746 C   0  0  0  0  0  0  0  0  0  0  0  0
    8.5484   45.2160   16.6948 O   0  0  0  0  0  0  0  0  0  0  0  0
    7.6665   45.0339   18.6607 O   0  0  0  0  0  0  0  0  0  0  0  0
    7.7709   44.9924   19.5910 H   0  0  0  0  0  0  0  0  0  0  0  0
    9.4336   46.3304   20.4564 N   0  0  0  0  0  0  0  0  0  0  0  0
    9.6002   47.2233   21.4315 C   0  0  0  0  0  0  0  0  0  0  0  0
   10.6845   47.6617   21.8458 O   0  0  0  0  0  0  0  0  0  0  0  0
    8.5182   45.9984   20.3113 H   0  0  0  0  0  0  0  0  0  0  0  0
    8.2960   47.6661   22.1211 C   0  0  0  0  0  0  0  0  0  0  0  0
    8.1713   48.6638   22.7616 O   0  0  0  0  0  0  0  0  0  0  0  0
    7.2749   46.7946   22.1122 O   0  0  0  0  0  0  0  0  0  0  0  0
    7.3408   46.0007   21.6189 H   0  0  0  0  0  0  0  0  0  0  0  0
   14.7381   45.8687   17.6838 C   0  0  0  0  0  0  0  0  0  0  0  0
   14.3484   46.0529   16.3466 O   0  0  0  0  0  0  0  0  0  0  0  0
   14.2204   47.3799   15.9165 C   0  0  0  0  0  0  0  0  0  0  0  0
   13.0860   47.8169   15.1426 C   0  0  0  0  0  0  0  0  0  0  0  0
   13.1485   49.1910   14.9500 C   0  0  0  0  0  0  0  0  0  0  0  0
   14.5780   49.9266   15.5549 S   0  0  0  0  0  0  0  0  0  0  0  0
   15.0220   48.4657   16.0672 N   0  0  0  0  0  0  0  0  0  0  0  0
   12.0185   47.0383   14.7612 C   0  0  0  0  0  0  0  0  0  0  0  0
   11.0050   47.6166   13.9965 C   0  0  0  0  0  0  0  0  0  0  0  0
   11.0265   48.9965   13.7655 C   0  0  0  0  0  0  0  0  0  0  0  0
   12.1026   49.7698   14.1796 C   0  0  0  0  0  0  0  0  0  0  0  0
   14.2636   50.7513   16.6467 O   0  0  0  0  0  0  0  0  0  0  0  0
   15.4162   50.3828   14.4488 O   0  0  0  0  0  0  0  0  0  0  0  0
  1  2  1  0  0  0
  1  6  1  0  0  0
  2  3  1  0  0  0
  2 22  1  0  0  0
  3  4  2  0  0  0
  3  7  1  0  0  0
  4  5  1  0  0  0
  4  9  1  0  0  0
  5  6  1  0  0  0
  7  8  1  0  0  0
  8  9  2  0  0  0
  8 14  1  0  0  0
  9 10  1  0  0  0
 10 11  2  0  0  0
 10 12  1  0  0  0
 14 15  1  0  0  0
 15 18  1  0  0  0
 15 16  2  0  0  0
 18 19  2  0  0  0
 18 20  1  0  0  0
 22 23  1  0  0  0
 23 24  1  0  0  0
 24 25  1  0  0  0
 24 28  2  0  0  0
 25 26  2  0  0  0
 25 29  1  0  0  0
 26 27  1  0  0  0
 26 32  1  0  0  0
 27 28  1  0  0  0
 27 33  2  0  0  0
 27 34  2  0  0  0
 29 30  2  0  0  0
 30 31  1  0  0  0
 31 32  2  0  0  0
 12 13  1  0  0  0
 14 17  1  0  0  0
 20 21  1  0  0  0
M  END
> <minimizedAffinity>
-9.40357

$$$$
1L8G_DBD_A_322


 34 37  0  0  0  0  0  0  0  0999 V2000
   14.0634   43.8519   17.1869 O   0  0  0  0  0  0  0  0  0  0  0  0
   14.0263   44.7880   18.2530 C   0  0  0  0  0  0  0  0  0  0  0  0
   12.6068   45.1231   18.5722 C   0  0  0  0  0  0  0  0  0  0  0  0
   11.5435   44.7155   17.8633 C   0  0  0  0  0  0  0  0  0  0  0  0
   11.6903   43.7914   16.7049 C   0  0  0  0  0  0  0  0  0  0  0  0
   12.9561   42.9995   17.0331 C   0  0  0  0  0  0  0  0  0  0  0  0
   12.2139   45.9420   20.0186 S   0  0  0  0  0  0  0  0  0  0  0  0
   10.5473   45.7220   19.6225 C   0  0  0  0  0  0  0  0  0  0  0  0
   10.2595   45.1111   18.4667 C   0  0  0  0  0  0  0  0  0  0  0  0
    8.8515   44.9420   17.9373 C   0  0  0  0  0  0  0  0  0  0  0  0
    7.9208   45.0770   18.6755 O   0  0  0  0  0  0  0  0  0  0  0  0
    8.5857   44.6539   16.6619 O   0  0  0  0  0  0  0  0  0  0  0  0
    9.2873   44.5403   16.0512 H   0  0  0  0  0  0  0  0  0  0  0  0
    9.4976   46.2325   20.4711 N   0  0  0  0  0  0  0  0  0  0  0  0
    9.6175   47.1860   21.3943 C   0  0  0  0  0  0  0  0  0  0  0  0
   10.6763   47.7130   21.7697 O   0  0  0  0  0  0  0  0  0  0  0  0
    8.6035   45.8367   20.3565 H   0  0  0  0  0  0  0  0  0  0  0  0
    8.2951   47.5837   22.0766 C   0  0  0  0  0  0  0  0  0  0  0  0
    8.1290   48.5827   22.7056 O   0  0  0  0  0  0  0  0  0  0  0  0
    7.3097   46.6719   22.0756 O   0  0  0  0  0  0  0  0  0  0  0  0
    7.4085   45.8759   21.5913 H   0  0  0  0  0  0  0  0  0  0  0  0
   14.8117   45.9254   17.6955 C   0  0  0  0  0  0  0  0  0  0  0  0
   15.8446   46.1598   18.6184 O   0  0  0  0  0  0  0  0  0  0  0  0
   17.1285   45.7609   18.2248 C   0  0  0  0  0  0  0  0  0  0  0  0
   18.3031   46.4927   18.6268 C   0  0  0  0  0  0  0  0  0  0  0  0
   19.4434   45.8230   18.2020 C   0  0  0  0  0  0  0  0  0  0  0  0
   19.1322   44.4348   17.2395 S   0  0  0  0  0  0  0  0  0  0  0  0
   17.5638   44.7346   17.4494 N   0  0  0  0  0  0  0  0  0  0  0  0
   18.3255   47.6094   19.4292 C   0  0  0  0  0  0  0  0  0  0  0  0
   19.5531   48.2092   19.7110 C   0  0  0  0  0  0  0  0  0  0  0  0
   20.7321   47.5793   19.2969 C   0  0  0  0  0  0  0  0  0  0  0  0
   20.6886   46.4386   18.5068 C   0  0  0  0  0  0  0  0  0  0  0  0
   19.5051   43.2767   17.9400 O   0  0  0  0  0  0  0  0  0  0  0  0
   19.5426   44.6772   15.8587 O   0  0  0  0  0  0  0  0  0  0  0  0
  1  2  1  0  0  0
  1  6  1  0  0  0
  2  3  1  0  0  0
  2 22  1  0  0  0
  3  4  2  0  0  0
  3  7  1  0  0  0
  4  5  1  0  0  0
  4  9  1  0  0  0
  5  6  1  0  0  0
  7  8  1  0  0  0
  8  9  2  0  0  0
  8 14  1  0  0  0
  9 10  1  0  0  0
 10 11  2  0  0  0
 10 12  1  0  0  0
 14 15  1  0  0  0
 15 18  1  0  0  0
 15 16  2  0  0  0
 18 19  2  0  0  0
 18 20  1  0  0  0
 22 23  1  0  0  0
 23 24  1  0  0  0
 24 25  1  0  0  0
 24 28  2  0  0  0
 25 26  2  0  0  0
 25 29  1  0  0  0
 26 27  1  0  0  0
 26 32  1  0  0  0
 27 28  1  0  0  0
 27 33  2  0  0  0
 27 34  2  0  0  0
 29 30  2  0  0  0
 30 31  1  0  0  0
 31 32  2  0  0  0
 12 13  1  0  0  0
 14 17  1  0  0  0
 20 21  1  0  0  0
M  END
> <minimizedAffinity>
-8.55507

$$$$
1L8G_DBD_A_322


 34 37  0  0  0  0  0  0  0  0999 V2000
   13.8741   43.8496   17.2235 O   0  0  0  0  0  0  0  0  0  0  0  0
   13.8761   44.7507   18.3200 C   0  0  0  0  0  0  0  0  0  0  0  0
   12.4744   45.1610   18.6299 C   0  0  0  0  0  0  0  0  0  0  0  0
   11.4002   44.8424   17.8924 C   0  0  0  0  0  0  0  0  0  0  0  0
   11.5099   43.9497   16.7056 C   0  0  0  0  0  0  0  0  0  0  0  0
   12.7200   43.0719   17.0250 C   0  0  0  0  0  0  0  0  0  0  0  0
   12.1081   45.9542   20.0974 S   0  0  0  0  0  0  0  0  0  0  0  0
   10.4379   45.8494   19.6702 C   0  0  0  0  0  0  0  0  0  0  0  0
   10.1327   45.2954   18.4904 C   0  0  0  0  0  0  0  0  0  0  0  0
    8.7260   45.2300   17.9354 C   0  0  0  0  0  0  0  0  0  0  0  0
    8.5468   45.3498   16.7594 O   0  0  0  0  0  0  0  0  0  0  0  0
    7.6521   45.0319   18.7021 O   0  0  0  0  0  0  0  0  0  0  0  0
    7.7498   44.9331   19.6287 H   0  0  0  0  0  0  0  0  0  0  0  0
    9.4072   46.3946   20.5204 N   0  0  0  0  0  0  0  0  0  0  0  0
    9.5889   47.1644   21.5930 C   0  0  0  0  0  0  0  0  0  0  0  0
   10.6779   47.4439   22.1178 O   0  0  0  0  0  0  0  0  0  0  0  0
    8.4767   46.1760   20.2844 H   0  0  0  0  0  0  0  0  0  0  0  0
    8.2876   47.6705   22.2432 C   0  0  0  0  0  0  0  0  0  0  0  0
    8.2150   48.6060   22.9786 O   0  0  0  0  0  0  0  0  0  0  0  0
    7.1890   46.9172   22.0761 O   0  0  0  0  0  0  0  0  0  0  0  0
    7.2124   46.1747   21.5050 H   0  0  0  0  0  0  0  0  0  0  0  0
   14.7378   45.8559   17.8127 C   0  0  0  0  0  0  0  0  0  0  0  0
   13.9087   46.6328   16.9865 O   0  0  0  0  0  0  0  0  0  0  0  0
   14.5109   47.7355   16.3668 C   0  0  0  0  0  0  0  0  0  0  0  0
   15.2816   47.5944   15.1573 C   0  0  0  0  0  0  0  0  0  0  0  0
   15.6645   48.8466   14.6942 C   0  0  0  0  0  0  0  0  0  0  0  0
   15.2370   50.1467   15.7321 S   0  0  0  0  0  0  0  0  0  0  0  0
   14.5505   49.0528   16.6943 N   0  0  0  0  0  0  0  0  0  0  0  0
   15.4996   46.4241   14.4688 C   0  0  0  0  0  0  0  0  0  0  0  0
   16.2866   46.4591   13.3173 C   0  0  0  0  0  0  0  0  0  0  0  0
   16.7064   47.6956   12.8144 C   0  0  0  0  0  0  0  0  0  0  0  0
   16.4556   48.8691   13.5126 C   0  0  0  0  0  0  0  0  0  0  0  0
   14.2554   50.9418   15.1196 O   0  0  0  0  0  0  0  0  0  0  0  0
   16.4349   50.7186   16.3423 O   0  0  0  0  0  0  0  0  0  0  0  0
  1  2  1  0  0  0
  1  6  1  0  0  0
  2  3  1  0  0  0
  2 22  1  0  0  0
  3  4  2  0  0  0
  3  7  1  0  0  0
  4  5  1  0  0  0
  4  9  1  0  0  0
  5  6  1  0  0  0
  7  8  1  0  0  0
  8  9  2  0  0  0
  8 14  1  0  0  0
  9 10  1  0  0  0
 10 11  2  0  0  0
 10 12  1  0  0  0
 14 15  1  0  0  0
 15 18  1  0  0  0
 15 16  2  0  0  0
 18 19  2  0  0  0
 18 20  1  0  0  0
 22 23  1  0  0  0
 23 24  1  0  0  0
 24 25  1  0  0  0
 24 28  2  0  0  0
 25 26  2  0  0  0
 25 29  1  0  0  0
 26 27  1  0  0  0
 26 32  1  0  0  0
 27 28  1  0  0  0
 27 33  2  0  0  0
 27 34  2  0  0  0
 29 30  2  0  0  0
 30 31  1  0  0  0
 31 32  2  0  0  0
 12 13  1  0  0  0
 14 17  1  0  0  0
 20 21  1  0  0  0
M  END
> <minimizedAffinity>
-8.39970

$$$$
1L8G_DBD_A_322


 34 37  0  0  0  0  0  0  0  0999 V2000
   17.7232   44.5513   17.5399 O   0  0  0  0  0  0  0  0  0  0  0  0
   17.3830   45.1314   18.7897 C   0  0  0  0  0  0  0  0  0  0  0  0
   18.4969   44.9134   19.7596 C   0  0  0  0  0  0  0  0  0  0  0  0
   19.5817   44.1596   19.5263 C   0  0  0  0  0  0  0  0  0  0  0  0
   19.8139   43.5221   18.2007 C   0  0  0  0  0  0  0  0  0  0  0  0
   19.0889   44.4472   17.2233 C   0  0  0  0  0  0  0  0  0  0  0  0
   18.5485   45.7815   21.2295 S   0  0  0  0  0  0  0  0  0  0  0  0
   20.0964   45.0750   21.5256 C   0  0  0  0  0  0  0  0  0  0  0  0
   20.5654   44.2064   20.6215 C   0  0  0  0  0  0  0  0  0  0  0  0
   21.8533   43.4304   20.7958 C   0  0  0  0  0  0  0  0  0  0  0  0
   21.8290   42.2351   20.7990 O   0  0  0  0  0  0  0  0  0  0  0  0
   23.0417   44.0199   20.9396 O   0  0  0  0  0  0  0  0  0  0  0  0
   23.1036   44.9549   20.9425 H   0  0  0  0  0  0  0  0  0  0  0  0
   20.8348   45.3573   22.7330 N   0  0  0  0  0  0  0  0  0  0  0  0
   21.3540   46.5320   23.0886 C   0  0  0  0  0  0  0  0  0  0  0  0
   21.3992   47.5550   22.3879 O   0  0  0  0  0  0  0  0  0  0  0  0
   20.9684   44.6070   23.3562 H   0  0  0  0  0  0  0  0  0  0  0  0
   22.0079   46.5449   24.4831 C   0  0  0  0  0  0  0  0  0  0  0  0
   21.5443   47.0736   25.4458 O   0  0  0  0  0  0  0  0  0  0  0  0
   23.2501   46.0448   24.5790 O   0  0  0  0  0  0  0  0  0  0  0  0
   23.6437   45.6230   23.8407 H   0  0  0  0  0  0  0  0  0  0  0  0
   16.1240   44.4117   19.1340 C   0  0  0  0  0  0  0  0  0  0  0  0
   15.0805   45.2610   18.7297 O   0  0  0  0  0  0  0  0  0  0  0  0
   14.1697   44.7272   17.8088 C   0  0  0  0  0  0  0  0  0  0  0  0
   12.7481   44.7708   18.0406 C   0  0  0  0  0  0  0  0  0  0  0  0
   12.0744   44.2828   16.9284 C   0  0  0  0  0  0  0  0  0  0  0  0
   13.0981   43.6667   15.6943 S   0  0  0  0  0  0  0  0  0  0  0  0
   14.3445   44.0919   16.6213 N   0  0  0  0  0  0  0  0  0  0  0  0
   12.1226   45.3341   19.1282 C   0  0  0  0  0  0  0  0  0  0  0  0
   10.7309   45.2768   19.2065 C   0  0  0  0  0  0  0  0  0  0  0  0
   10.0052   44.7849   18.1158 C   0  0  0  0  0  0  0  0  0  0  0  0
   10.6556   44.2416   17.0162 C   0  0  0  0  0  0  0  0  0  0  0  0
   13.0286   44.4932   14.5616 O   0  0  0  0  0  0  0  0  0  0  0  0
   12.9661   42.2143   15.6092 O   0  0  0  0  0  0  0  0  0  0  0  0
  1  2  1  0  0  0
  1  6  1  0  0  0
  2  3  1  0  0  0
  2 22  1  0  0  0
  3  4  2  0  0  0
  3  7  1  0  0  0
  4  5  1  0  0  0
  4  9  1  0  0  0
  5  6  1  0  0  0
  7  8  1  0  0  0
  8  9  2  0  0  0
  8 14  1  0  0  0
  9 10  1  0  0  0
 10 11  2  0  0  0
 10 12  1  0  0  0
 14 15  1  0  0  0
 15 18  1  0  0  0
 15 16  2  0  0  0
 18 19  2  0  0  0
 18 20  1  0  0  0
 22 23  1  0  0  0
 23 24  1  0  0  0
 24 25  1  0  0  0
 24 28  2  0  0  0
 25 26  2  0  0  0
 25 29  1  0  0  0
 26 27  1  0  0  0
 26 32  1  0  0  0
 27 28  1  0  0  0
 27 33  2  0  0  0
 27 34  2  0  0  0
 29 30  2  0  0  0
 30 31  1  0  0  0
 31 32  2  0  0  0
 12 13  1  0  0  0
 14 17  1  0  0  0
 20 21  1  0  0  0
M  END
> <minimizedAffinity>
-8.35883

$$$$
1L8G_DBD_A_322


 34 37  0  0  0  0  0  0  0  0999 V2000
   13.8796   43.9477   17.3408 O   0  0  0  0  0  0  0  0  0  0  0  0
   13.8544   44.9011   18.3918 C   0  0  0  0  0  0  0  0  0  0  0  0
   12.4404   45.2778   18.6885 C   0  0  0  0  0  0  0  0  0  0  0  0
   11.3753   44.8867   17.9731 C   0  0  0  0  0  0  0  0  0  0  0  0
   11.5117   43.9411   16.8309 C   0  0  0  0  0  0  0  0  0  0  0  0
   12.7524   43.1220   17.1867 C   0  0  0  0  0  0  0  0  0  0  0  0
   12.0520   46.1292   20.1172 S   0  0  0  0  0  0  0  0  0  0  0  0
   10.3850   45.9463   19.7043 C   0  0  0  0  0  0  0  0  0  0  0  0
   10.0950   45.3248   18.5546 C   0  0  0  0  0  0  0  0  0  0  0  0
    8.6895   45.1840   18.0108 C   0  0  0  0  0  0  0  0  0  0  0  0
    8.5069   45.1998   16.8293 O   0  0  0  0  0  0  0  0  0  0  0  0
    7.6204   45.0301   18.7943 O   0  0  0  0  0  0  0  0  0  0  0  0
    7.7209   45.0124   19.7257 H   0  0  0  0  0  0  0  0  0  0  0  0
    9.3390   46.4969   20.5321 N   0  0  0  0  0  0  0  0  0  0  0  0
    9.4995   47.1517   21.6817 C   0  0  0  0  0  0  0  0  0  0  0  0
   10.5653   47.2938   22.3010 O   0  0  0  0  0  0  0  0  0  0  0  0
    8.4144   46.3769   20.2159 H   0  0  0  0  0  0  0  0  0  0  0  0
    8.1961   47.7033   22.2893 C   0  0  0  0  0  0  0  0  0  0  0  0
    8.1246   48.6768   22.9738 O   0  0  0  0  0  0  0  0  0  0  0  0
    7.0920   46.9525   22.1491 O   0  0  0  0  0  0  0  0  0  0  0  0
    7.1145   46.1809   21.6180 H   0  0  0  0  0  0  0  0  0  0  0  0
   14.6757   46.0089   17.8265 C   0  0  0  0  0  0  0  0  0  0  0  0
   16.0103   45.6703   18.1055 O   0  0  0  0  0  0  0  0  0  0  0  0
   16.9585   46.0503   17.1468 C   0  0  0  0  0  0  0  0  0  0  0  0
   18.2108   45.3516   17.0049 C   0  0  0  0  0  0  0  0  0  0  0  0
   18.9088   45.8528   15.9137 C   0  0  0  0  0  0  0  0  0  0  0  0
   18.1638   47.2023   15.1558 S   0  0  0  0  0  0  0  0  0  0  0  0
   16.9725   47.0510   16.2289 N   0  0  0  0  0  0  0  0  0  0  0  0
   18.6150   44.2590   17.7358 C   0  0  0  0  0  0  0  0  0  0  0  0
   19.8715   43.7086   17.4815 C   0  0  0  0  0  0  0  0  0  0  0  0
   20.6193   44.1847   16.3988 C   0  0  0  0  0  0  0  0  0  0  0  0
   20.1825   45.2745   15.6578 C   0  0  0  0  0  0  0  0  0  0  0  0
   17.7153   46.8415   13.8753 O   0  0  0  0  0  0  0  0  0  0  0  0
   18.9487   48.4109   15.3953 O   0  0  0  0  0  0  0  0  0  0  0  0
  1  2  1  0  0  0
  1  6  1  0  0  0
  2  3  1  0  0  0
  2 22  1  0  0  0
  3  4  2  0  0  0
  3  7  1  0  0  0
  4  5  1  0  0  0
  4  9  1  0  0  0
  5  6  1  0  0  0
  7  8  1  0  0  0
  8  9  2  0  0  0
  8 14  1  0  0  0
  9 10  1  0  0  0
 10 11  2  0  0  0
 10 12  1  0  0  0
 14 15  1  0  0  0
 15 18  1  0  0  0
 15 16  2  0  0  0
 18 19  2  0  0  0
 18 20  1  0  0  0
 22 23  1  0  0  0
 23 24  1  0  0  0
 24 25  1  0  0  0
 24 28  2  0  0  0
 25 26  2  0  0  0
 25 29  1  0  0  0
 26 27  1  0  0  0
 26 32  1  0  0  0
 27 28  1  0  0  0
 27 33  2  0  0  0
 27 34  2  0  0  0
 29 30  2  0  0  0
 30 31  1  0  0  0
 31 32  2  0  0  0
 12 13  1  0  0  0
 14 17  1  0  0  0
 20 21  1  0  0  0
M  END
> <minimizedAffinity>
-8.35843

$$$$
1L8G_DBD_A_322


 34 37  0  0  0  0  0  0  0  0999 V2000
   14.0280   43.8510   17.3589 O   0  0  0  0  0  0  0  0  0  0  0  0
   13.9872   44.8095   18.4048 C   0  0  0  0  0  0  0  0  0  0  0  0
   12.5689   45.1859   18.6804 C   0  0  0  0  0  0  0  0  0  0  0  0
   11.5141   44.7900   17.9524 C   0  0  0  0  0  0  0  0  0  0  0  0
   11.6672   43.8389   16.8168 C   0  0  0  0  0  0  0  0  0  0  0  0
   12.9039   43.0232   17.1935 C   0  0  0  0  0  0  0  0  0  0  0  0
   12.1601   46.0437   20.0995 S   0  0  0  0  0  0  0  0  0  0  0  0
   10.4991   45.8566   19.6648 C   0  0  0  0  0  0  0  0  0  0  0  0
   10.2255   45.2293   18.5143 C   0  0  0  0  0  0  0  0  0  0  0  0
    8.8277   45.0840   17.9521 C   0  0  0  0  0  0  0  0  0  0  0  0
    7.9080   44.8950   18.6922 O   0  0  0  0  0  0  0  0  0  0  0  0
    8.5581   45.1669   16.6479 O   0  0  0  0  0  0  0  0  0  0  0  0
    9.2510   45.3144   16.0347 H   0  0  0  0  0  0  0  0  0  0  0  0
    9.4412   46.4100   20.4755 N   0  0  0  0  0  0  0  0  0  0  0  0
    9.5847   47.0637   21.6280 C   0  0  0  0  0  0  0  0  0  0  0  0
   10.6406   47.2023   22.2648 O   0  0  0  0  0  0  0  0  0  0  0  0
    8.5216   46.2929   20.1441 H   0  0  0  0  0  0  0  0  0  0  0  0
    8.2731   47.6189   22.2144 C   0  0  0  0  0  0  0  0  0  0  0  0
    8.1928   48.5943   22.8951 O   0  0  0  0  0  0  0  0  0  0  0  0
    7.1701   46.8695   22.0595 O   0  0  0  0  0  0  0  0  0  0  0  0
    7.1994   46.0964   21.5308 H   0  0  0  0  0  0  0  0  0  0  0  0
   14.8149   45.9156   17.8453 C   0  0  0  0  0  0  0  0  0  0  0  0
   14.6854   45.8160   16.4500 O   0  0  0  0  0  0  0  0  0  0  0  0
   14.9837   46.9718   15.7167 C   0  0  0  0  0  0  0  0  0  0  0  0
   13.9823   47.6470   14.9308 C   0  0  0  0  0  0  0  0  0  0  0  0
   14.5086   48.8195   14.4041 C   0  0  0  0  0  0  0  0  0  0  0  0
   16.1809   49.0502   14.7212 S   0  0  0  0  0  0  0  0  0  0  0  0
   16.1371   47.6683   15.5473 N   0  0  0  0  0  0  0  0  0  0  0  0
   12.6609   47.2829   14.8181 C   0  0  0  0  0  0  0  0  0  0  0  0
   11.8232   48.0402   13.9989 C   0  0  0  0  0  0  0  0  0  0  0  0
   12.3082   49.2261   13.4362 C   0  0  0  0  0  0  0  0  0  0  0  0
   13.6404   49.5887   13.5813 C   0  0  0  0  0  0  0  0  0  0  0  0
   16.3544   50.1352   15.5950 O   0  0  0  0  0  0  0  0  0  0  0  0
   16.9511   48.9114   13.4877 O   0  0  0  0  0  0  0  0  0  0  0  0
  1  2  1  0  0  0
  1  6  1  0  0  0
  2  3  1  0  0  0
  2 22  1  0  0  0
  3  4  2  0  0  0
  3  7  1  0  0  0
  4  5  1  0  0  0
  4  9  1  0  0  0
  5  6  1  0  0  0
  7  8  1  0  0  0
  8  9  2  0  0  0
  8 14  1  0  0  0
  9 10  1  0  0  0
 10 11  2  0  0  0
 10 12  1  0  0  0
 14 15  1  0  0  0
 15 18  1  0  0  0
 15 16  2  0  0  0
 18 19  2  0  0  0
 18 20  1  0  0  0
 22 23  1  0  0  0
 23 24  1  0  0  0
 24 25  1  0  0  0
 24 28  2  0  0  0
 25 26  2  0  0  0
 25 29  1  0  0  0
 26 27  1  0  0  0
 26 32  1  0  0  0
 27 28  1  0  0  0
 27 33  2  0  0  0
 27 34  2  0  0  0
 29 30  2  0  0  0
 30 31  1  0  0  0
 31 32  2  0  0  0
 12 13  1  0  0  0
 14 17  1  0  0  0
 20 21  1  0  0  0
M  END
> <minimizedAffinity>
-8.35685

$$$$
1L8G_DBD_A_322


 34 37  0  0  0  0  0  0  0  0999 V2000
   17.0071   44.1578   19.3771 O   0  0  0  0  0  0  0  0  0  0  0  0
   17.5989   44.7323   18.2221 C   0  0  0  0  0  0  0  0  0  0  0  0
   18.3411   45.9696   18.6059 C   0  0  0  0  0  0  0  0  0  0  0  0
   18.3247   46.5276   19.8256 C   0  0  0  0  0  0  0  0  0  0  0  0
   17.6054   45.8888   20.9623 C   0  0  0  0  0  0  0  0  0  0  0  0
   17.6295   44.4006   20.6140 C   0  0  0  0  0  0  0  0  0  0  0  0
   19.4411   46.6929   17.5179 S   0  0  0  0  0  0  0  0  0  0  0  0
   19.8739   47.7929   18.7771 C   0  0  0  0  0  0  0  0  0  0  0  0
   19.2294   47.6837   19.9453 C   0  0  0  0  0  0  0  0  0  0  0  0
   19.4250   48.6404   21.1018 C   0  0  0  0  0  0  0  0  0  0  0  0
   18.5053   49.2997   21.4875 O   0  0  0  0  0  0  0  0  0  0  0  0
   20.5908   48.7846   21.7348 O   0  0  0  0  0  0  0  0  0  0  0  0
   21.3362   48.2860   21.4632 H   0  0  0  0  0  0  0  0  0  0  0  0
   20.8485   48.8357   18.5645 N   0  0  0  0  0  0  0  0  0  0  0  0
   22.1740   48.6998   18.5922 C   0  0  0  0  0  0  0  0  0  0  0  0
   22.7990   47.6815   18.9268 O   0  0  0  0  0  0  0  0  0  0  0  0
   20.4994   49.7376   18.3805 H   0  0  0  0  0  0  0  0  0  0  0  0
   22.9543   49.9785   18.2337 C   0  0  0  0  0  0  0  0  0  0  0  0
   24.0039   50.2886   18.7063 O   0  0  0  0  0  0  0  0  0  0  0  0
   22.3373   50.8669   17.4385 O   0  0  0  0  0  0  0  0  0  0  0  0
   21.5110   50.6544   17.0512 H   0  0  0  0  0  0  0  0  0  0  0  0
   16.4125   44.9764   17.3536 C   0  0  0  0  0  0  0  0  0  0  0  0
   15.3533   44.2764   17.9550 O   0  0  0  0  0  0  0  0  0  0  0  0
   14.2703   43.9599   17.1247 C   0  0  0  0  0  0  0  0  0  0  0  0
   12.9112   44.2304   17.5201 C   0  0  0  0  0  0  0  0  0  0  0  0
   12.0479   43.9300   16.4744 C   0  0  0  0  0  0  0  0  0  0  0  0
   12.8105   43.2226   15.1075 S   0  0  0  0  0  0  0  0  0  0  0  0
   14.2036   43.3750   15.9010 N   0  0  0  0  0  0  0  0  0  0  0  0
   12.5135   44.8269   18.6937 C   0  0  0  0  0  0  0  0  0  0  0  0
   11.1496   45.0022   18.9292 C   0  0  0  0  0  0  0  0  0  0  0  0
   10.2370   44.7054   17.9108 C   0  0  0  0  0  0  0  0  0  0  0  0
   10.6613   44.1251   16.7231 C   0  0  0  0  0  0  0  0  0  0  0  0
   12.7667   44.1139   14.0236 O   0  0  0  0  0  0  0  0  0  0  0  0
   12.4178   41.8212   14.9810 O   0  0  0  0  0  0  0  0  0  0  0  0
  1  2  1  0  0  0
  1  6  1  0  0  0
  2  3  1  0  0  0
  2 22  1  0  0  0
  3  4  2  0  0  0
  3  7  1  0  0  0
  4  5  1  0  0  0
  4  9  1  0  0  0
  5  6  1  0  0  0
  7  8  1  0  0  0
  8  9  2  0  0  0
  8 14  1  0  0  0
  9 10  1  0  0  0
 10 11  2  0  0  0
 10 12  1  0  0  0
 14 15  1  0  0  0
 15 18  1  0  0  0
 15 16  2  0  0  0
 18 19  2  0  0  0
 18 20  1  0  0  0
 22 23  1  0  0  0
 23 24  1  0  0  0
 24 25  1  0  0  0
 24 28  2  0  0  0
 25 26  2  0  0  0
 25 29  1  0  0  0
 26 27  1  0  0  0
 26 32  1  0  0  0
 27 28  1  0  0  0
 27 33  2  0  0  0
 27 34  2  0  0  0
 29 30  2  0  0  0
 30 31  1  0  0  0
 31 32  2  0  0  0
 12 13  1  0  0  0
 14 17  1  0  0  0
 20 21  1  0  0  0
M  END
> <minimizedAffinity>
-7.88608

$$$$
1L8G_DBD_A_322


 34 37  0  0  0  0  0  0  0  0999 V2000
   17.5587   47.3173   18.5840 O   0  0  0  0  0  0  0  0  0  0  0  0
   17.5227   46.2375   19.5044 C   0  0  0  0  0  0  0  0  0  0  0  0
   18.9172   45.8369   19.8568 C   0  0  0  0  0  0  0  0  0  0  0  0
   20.0253   46.3246   19.2792 C   0  0  0  0  0  0  0  0  0  0  0  0
   19.9574   47.4075   18.2594 C   0  0  0  0  0  0  0  0  0  0  0  0
   18.6797   48.1647   18.6216 C   0  0  0  0  0  0  0  0  0  0  0  0
   19.2136   44.8128   21.1910 S   0  0  0  0  0  0  0  0  0  0  0  0
   20.9032   45.0600   20.9317 C   0  0  0  0  0  0  0  0  0  0  0  0
   21.2665   45.8256   19.8955 C   0  0  0  0  0  0  0  0  0  0  0  0
   22.7058   46.0458   19.4816 C   0  0  0  0  0  0  0  0  0  0  0  0
   23.0697   45.7004   18.3964 O   0  0  0  0  0  0  0  0  0  0  0  0
   23.6082   46.6257   20.2751 O   0  0  0  0  0  0  0  0  0  0  0  0
   23.3631   46.9108   21.1334 H   0  0  0  0  0  0  0  0  0  0  0  0
   21.8945   44.4162   21.7595 N   0  0  0  0  0  0  0  0  0  0  0  0
   22.2725   44.7914   22.9811 C   0  0  0  0  0  0  0  0  0  0  0  0
   21.9277   45.8288   23.5681 O   0  0  0  0  0  0  0  0  0  0  0  0
   22.3357   43.6201   21.3842 H   0  0  0  0  0  0  0  0  0  0  0  0
   23.2872   43.8475   23.6533 C   0  0  0  0  0  0  0  0  0  0  0  0
   22.9980   42.8852   24.2947 O   0  0  0  0  0  0  0  0  0  0  0  0
   24.5768   44.2198   23.6273 O   0  0  0  0  0  0  0  0  0  0  0  0
   24.8375   44.9717   23.1327 H   0  0  0  0  0  0  0  0  0  0  0  0
   16.7648   45.2048   18.7426 C   0  0  0  0  0  0  0  0  0  0  0  0
   15.4079   45.5181   18.9283 O   0  0  0  0  0  0  0  0  0  0  0  0
   14.5007   44.8641   18.0846 C   0  0  0  0  0  0  0  0  0  0  0  0
   13.0819   44.8904   18.3359 C   0  0  0  0  0  0  0  0  0  0  0  0
   12.4074   44.2688   17.2929 C   0  0  0  0  0  0  0  0  0  0  0  0
   13.4314   43.5565   16.1121 S   0  0  0  0  0  0  0  0  0  0  0  0
   14.6776   44.1130   16.9672 N   0  0  0  0  0  0  0  0  0  0  0  0
   12.4554   45.5464   19.3695 C   0  0  0  0  0  0  0  0  0  0  0  0
   11.0673   45.4570   19.4781 C   0  0  0  0  0  0  0  0  0  0  0  0
   10.3413   44.8323   18.4580 C   0  0  0  0  0  0  0  0  0  0  0  0
   10.9920   44.1957   17.4098 C   0  0  0  0  0  0  0  0  0  0  0  0
   13.3199   44.2571   14.9005 O   0  0  0  0  0  0  0  0  0  0  0  0
   13.3432   42.1000   16.1817 O   0  0  0  0  0  0  0  0  0  0  0  0
  1  2  1  0  0  0
  1  6  1  0  0  0
  2  3  1  0  0  0
  2 22  1  0  0  0
  3  4  2  0  0  0
  3  7  1  0  0  0
  4  5  1  0  0  0
  4  9  1  0  0  0
  5  6  1  0  0  0
  7  8  1  0  0  0
  8  9  2  0  0  0
  8 14  1  0  0  0
  9 10  1  0  0  0
 10 11  2  0  0  0
 10 12  1  0  0  0
 14 15  1  0  0  0
 15 18  1  0  0  0
 15 16  2  0  0  0
 18 19  2  0  0  0
 18 20  1  0  0  0
 22 23  1  0  0  0
 23 24  1  0  0  0
 24 25  1  0  0  0
 24 28  2  0  0  0
 25 26  2  0  0  0
 25 29  1  0  0  0
 26 27  1  0  0  0
 26 32  1  0  0  0
 27 28  1  0  0  0
 27 33  2  0  0  0
 27 34  2  0  0  0
 29 30  2  0  0  0
 30 31  1  0  0  0
 31 32  2  0  0  0
 12 13  1  0  0  0
 14 17  1  0  0  0
 20 21  1  0  0  0
M  END
> <minimizedAffinity>
-7.67779

$$$$
