2NSL_C2R_A_300


 29 30  0  0  0  0  0  0  0  0999 V2000
   12.9932  -13.5159  -12.6031 C   0  0  0  0  0  0  0  0  0  0  0  0
   11.9958  -14.1132  -13.4355 O   0  0  0  0  0  0  0  0  0  0  0  0
   12.3874  -12.3686  -11.7950 C   0  0  0  0  0  0  0  0  0  0  0  0
   11.2687  -11.8244  -12.5000 O   0  0  0  0  0  0  0  0  0  0  0  0
   13.5275  -11.3457  -11.7517 C   0  0  0  0  0  0  0  0  0  0  0  0
   14.6165  -11.9296  -12.4874 O   0  0  0  0  0  0  0  0  0  0  0  0
   13.9531  -12.7192  -13.4830 C   0  0  0  0  0  0  0  0  0  0  0  0
   11.5791  -13.4291  -13.9825 H   0  0  0  0  0  0  0  0  0  0  0  0
   11.5484  -11.5490  -13.3870 H   0  0  0  0  0  0  0  0  0  0  0  0
   14.8457  -13.6647  -14.1885 N   0  0  0  0  0  0  0  0  0  0  0  0
   14.6151  -14.2200  -15.3733 C   0  0  0  0  0  0  0  0  0  0  0  0
   15.6147  -15.1545  -15.5945 C   0  0  0  0  0  0  0  0  0  0  0  0
   16.4367  -15.1227  -14.5507 N   0  0  0  0  0  0  0  0  0  0  0  0
   15.9600  -14.2109  -13.7030 C   0  0  0  0  0  0  0  0  0  0  0  0
   13.6414  -13.8897  -16.2185 N   0  0  0  0  0  0  0  0  0  0  0  0
   12.9773  -13.2094  -15.9628 H   0  0  0  0  0  0  0  0  0  0  0  0
   13.5853  -14.3257  -17.0994 H   0  0  0  0  0  0  0  0  0  0  0  0
   15.6877  -16.1272  -16.7729 C   0  0  0  0  0  0  0  0  0  0  0  0
   14.6102  -16.5084  -17.2800 O   0  0  0  0  0  0  0  0  0  0  0  0
   16.8197  -16.4962  -17.1562 O   0  0  0  0  0  0  0  0  0  0  0  0
   13.7956  -16.1912  -16.9427 H   0  0  0  0  0  0  0  0  0  0  0  0
   13.9635  -11.0864  -10.3084 C   0  0  0  0  0  0  0  0  0  0  0  0
   14.8339  -12.1291   -9.8633 O   0  0  0  0  0  0  0  0  0  0  0  0
   15.9161  -11.8474   -8.7051 P   0  0  0  0  0  0  0  0  0  0  0  0
   15.0613  -11.4256   -7.4080 O   0  0  0  0  0  0  0  0  0  0  0  0
   16.7144  -10.5247   -9.1565 O   0  0  0  0  0  0  0  0  0  0  0  0
   16.8051  -13.0040   -8.4596 O   0  0  0  0  0  0  0  0  0  0  0  0
   17.3843  -10.3078   -8.4893 H   0  0  0  0  0  0  0  0  0  0  0  0
   17.4356  -12.7835   -7.7562 H   0  0  0  0  0  0  0  0  0  0  0  0
 24 25  2  0  0  0
 24 26  1  0  0  0
 24 27  1  0  0  0
 24 23  1  0  0  0
 23 22  1  0  0  0
  1  2  1  0  0  0
  1  3  1  0  0  0
  1  7  1  0  0  0
  3  4  1  0  0  0
  3  5  1  0  0  0
 22  5  1  0  0  0
  5  6  1  0  0  0
  6  7  1  0  0  0
  7 10  1  0  0  0
 10 11  1  0  0  0
 10 14  1  0  0  0
 11 12  2  0  0  0
 11 15  1  0  0  0
 12 13  1  0  0  0
 12 18  1  0  0  0
 13 14  2  0  0  0
 18 19  1  0  0  0
 18 20  2  0  0  0
 26 28  1  0  0  0
 27 29  1  0  0  0
  2  8  1  0  0  0
  4  9  1  0  0  0
 15 16  1  0  0  0
 15 17  1  0  0  0
 19 21  1  0  0  0
M  END
> <minimizedAffinity>
-8.89938

$$$$
2NSL_C2R_A_300


 29 30  0  0  0  0  0  0  0  0999 V2000
   14.7327  -12.3713  -12.7888 C   0  0  0  0  0  0  0  0  0  0  0  0
   16.0293  -12.4533  -12.1918 O   0  0  0  0  0  0  0  0  0  0  0  0
   13.7011  -11.9308  -11.7504 C   0  0  0  0  0  0  0  0  0  0  0  0
   14.1382  -12.3201  -10.4458 O   0  0  0  0  0  0  0  0  0  0  0  0
   12.4571  -12.7329  -12.1473 C   0  0  0  0  0  0  0  0  0  0  0  0
   12.8368  -13.5202  -13.2892 O   0  0  0  0  0  0  0  0  0  0  0  0
   14.2259  -13.7862  -13.0565 C   0  0  0  0  0  0  0  0  0  0  0  0
   15.9906  -13.0295  -11.4125 H   0  0  0  0  0  0  0  0  0  0  0  0
   14.2981  -13.2767  -10.4304 H   0  0  0  0  0  0  0  0  0  0  0  0
   14.9362  -14.3294  -14.2351 N   0  0  0  0  0  0  0  0  0  0  0  0
   14.4361  -14.4524  -15.4598 C   0  0  0  0  0  0  0  0  0  0  0  0
   15.3661  -15.1451  -16.2194 C   0  0  0  0  0  0  0  0  0  0  0  0
   16.4135  -15.4010  -15.4423 N   0  0  0  0  0  0  0  0  0  0  0  0
   16.1414  -14.8979  -14.2382 C   0  0  0  0  0  0  0  0  0  0  0  0
   13.2843  -13.9444  -15.8918 N   0  0  0  0  0  0  0  0  0  0  0  0
   12.6917  -13.4671  -15.2670 H   0  0  0  0  0  0  0  0  0  0  0  0
   13.0248  -14.0459  -16.8360 H   0  0  0  0  0  0  0  0  0  0  0  0
   15.1678  -15.6287  -17.6571 C   0  0  0  0  0  0  0  0  0  0  0  0
   14.6320  -14.8409  -18.4670 O   0  0  0  0  0  0  0  0  0  0  0  0
   15.5416  -16.7883  -17.9399 O   0  0  0  0  0  0  0  0  0  0  0  0
   14.3758  -13.9841  -18.1874 H   0  0  0  0  0  0  0  0  0  0  0  0
   11.3108  -11.7944  -12.5288 C   0  0  0  0  0  0  0  0  0  0  0  0
   10.1252  -12.1513  -11.8148 O   0  0  0  0  0  0  0  0  0  0  0  0
    9.7802  -11.4502  -10.4071 P   0  0  0  0  0  0  0  0  0  0  0  0
   11.0145  -10.4631  -10.1019 O   0  0  0  0  0  0  0  0  0  0  0  0
    9.8628  -12.6152   -9.2996 O   0  0  0  0  0  0  0  0  0  0  0  0
    8.4745  -10.7552  -10.4193 O   0  0  0  0  0  0  0  0  0  0  0  0
    9.6621  -12.2454   -8.4257 H   0  0  0  0  0  0  0  0  0  0  0  0
    8.3150  -10.3515   -9.5518 H   0  0  0  0  0  0  0  0  0  0  0  0
 24 25  2  0  0  0
 24 26  1  0  0  0
 24 27  1  0  0  0
 24 23  1  0  0  0
 23 22  1  0  0  0
  1  2  1  0  0  0
  1  3  1  0  0  0
  1  7  1  0  0  0
  3  4  1  0  0  0
  3  5  1  0  0  0
 22  5  1  0  0  0
  5  6  1  0  0  0
  6  7  1  0  0  0
  7 10  1  0  0  0
 10 11  1  0  0  0
 10 14  1  0  0  0
 11 12  2  0  0  0
 11 15  1  0  0  0
 12 13  1  0  0  0
 12 18  1  0  0  0
 13 14  2  0  0  0
 18 19  1  0  0  0
 18 20  2  0  0  0
 26 28  1  0  0  0
 27 29  1  0  0  0
  2  8  1  0  0  0
  4  9  1  0  0  0
 15 16  1  0  0  0
 15 17  1  0  0  0
 19 21  1  0  0  0
M  END
> <minimizedAffinity>
-8.25888

$$$$
2NSL_C2R_A_300


 29 30  0  0  0  0  0  0  0  0999 V2000
   14.8182  -11.9702  -12.2212 C   0  0  0  0  0  0  0  0  0  0  0  0
   15.6506  -12.5362  -11.2058 O   0  0  0  0  0  0  0  0  0  0  0  0
   13.6771  -11.1763  -11.5857 C   0  0  0  0  0  0  0  0  0  0  0  0
   13.3900  -11.7050  -10.2884 O   0  0  0  0  0  0  0  0  0  0  0  0
   12.5049  -11.4495  -12.5340 C   0  0  0  0  0  0  0  0  0  0  0  0
   13.0150  -12.3189  -13.5597 O   0  0  0  0  0  0  0  0  0  0  0  0
   14.0089  -13.0892  -12.8718 C   0  0  0  0  0  0  0  0  0  0  0  0
   15.1064  -13.0574  -10.5950 H   0  0  0  0  0  0  0  0  0  0  0  0
   13.1904  -12.6514  -10.3619 H   0  0  0  0  0  0  0  0  0  0  0  0
   14.8983  -13.8569  -13.7709 N   0  0  0  0  0  0  0  0  0  0  0  0
   14.5533  -14.3999  -14.9333 C   0  0  0  0  0  0  0  0  0  0  0  0
   15.6285  -15.1567  -15.3724 C   0  0  0  0  0  0  0  0  0  0  0  0
   16.6034  -15.0321  -14.4778 N   0  0  0  0  0  0  0  0  0  0  0  0
   16.1484  -14.2370  -13.5093 C   0  0  0  0  0  0  0  0  0  0  0  0
   13.4106  -14.1981  -15.5853 N   0  0  0  0  0  0  0  0  0  0  0  0
   12.7062  -13.6404  -15.1829 H   0  0  0  0  0  0  0  0  0  0  0  0
   13.2699  -14.6064  -16.4700 H   0  0  0  0  0  0  0  0  0  0  0  0
   15.6426  -16.0640  -16.6040 C   0  0  0  0  0  0  0  0  0  0  0  0
   16.7549  -16.4016  -17.0649 O   0  0  0  0  0  0  0  0  0  0  0  0
   14.5421  -16.4080  -17.0884 O   0  0  0  0  0  0  0  0  0  0  0  0
   17.5424  -16.1071  -16.6513 H   0  0  0  0  0  0  0  0  0  0  0  0
   12.0082  -10.1473  -13.1648 C   0  0  0  0  0  0  0  0  0  0  0  0
   12.8797   -9.7519  -14.2264 O   0  0  0  0  0  0  0  0  0  0  0  0
   13.2000   -8.1946  -14.4798 P   0  0  0  0  0  0  0  0  0  0  0  0
   14.0971   -7.7285  -13.2271 O   0  0  0  0  0  0  0  0  0  0  0  0
   11.7958   -7.4228  -14.3281 O   0  0  0  0  0  0  0  0  0  0  0  0
   13.8565   -7.9504  -15.7827 O   0  0  0  0  0  0  0  0  0  0  0  0
   11.9316   -6.4732  -14.4720 H   0  0  0  0  0  0  0  0  0  0  0  0
   14.0272   -7.0011  -15.8858 H   0  0  0  0  0  0  0  0  0  0  0  0
 24 25  2  0  0  0
 24 26  1  0  0  0
 24 27  1  0  0  0
 24 23  1  0  0  0
 23 22  1  0  0  0
  1  2  1  0  0  0
  1  3  1  0  0  0
  1  7  1  0  0  0
  3  4  1  0  0  0
  3  5  1  0  0  0
 22  5  1  0  0  0
  5  6  1  0  0  0
  6  7  1  0  0  0
  7 10  1  0  0  0
 10 11  1  0  0  0
 10 14  1  0  0  0
 11 12  2  0  0  0
 11 15  1  0  0  0
 12 13  1  0  0  0
 12 18  1  0  0  0
 13 14  2  0  0  0
 18 19  1  0  0  0
 18 20  2  0  0  0
 26 28  1  0  0  0
 27 29  1  0  0  0
  2  8  1  0  0  0
  4  9  1  0  0  0
 15 16  1  0  0  0
 15 17  1  0  0  0
 19 21  1  0  0  0
M  END
> <minimizedAffinity>
-8.22372

$$$$
2NSL_C2R_A_300


 29 30  0  0  0  0  0  0  0  0999 V2000
   11.7249  -11.9162  -12.7184 C   0  0  0  0  0  0  0  0  0  0  0  0
   10.5113  -11.8261  -11.9679 O   0  0  0  0  0  0  0  0  0  0  0  0
   12.5918  -13.0562  -12.1844 C   0  0  0  0  0  0  0  0  0  0  0  0
   12.2944  -13.2777  -10.8033 O   0  0  0  0  0  0  0  0  0  0  0  0
   14.0119  -12.4999  -12.3319 C   0  0  0  0  0  0  0  0  0  0  0  0
   13.8688  -11.1814  -12.8880 O   0  0  0  0  0  0  0  0  0  0  0  0
   12.6175  -10.7335  -12.3511 C   0  0  0  0  0  0  0  0  0  0  0  0
   10.7201  -11.7473  -11.0239 H   0  0  0  0  0  0  0  0  0  0  0  0
   12.4181  -12.4520  -10.3095 H   0  0  0  0  0  0  0  0  0  0  0  0
   12.0871   -9.5175  -13.0059 N   0  0  0  0  0  0  0  0  0  0  0  0
   12.4935   -9.0154  -14.1668 C   0  0  0  0  0  0  0  0  0  0  0  0
   11.8554   -7.7966  -14.3373 C   0  0  0  0  0  0  0  0  0  0  0  0
   11.0620   -7.6051  -13.2884 N   0  0  0  0  0  0  0  0  0  0  0  0
   11.2096   -8.6597  -12.4865 C   0  0  0  0  0  0  0  0  0  0  0  0
   13.3107   -9.6074  -15.0347 N   0  0  0  0  0  0  0  0  0  0  0  0
   13.7146  -10.4781  -14.8155 H   0  0  0  0  0  0  0  0  0  0  0  0
   13.5114   -9.1745  -15.8959 H   0  0  0  0  0  0  0  0  0  0  0  0
   12.1113   -6.8016  -15.4706 C   0  0  0  0  0  0  0  0  0  0  0  0
   11.1192   -6.3512  -16.0842 O   0  0  0  0  0  0  0  0  0  0  0  0
   13.2981   -6.5028  -15.7284 O   0  0  0  0  0  0  0  0  0  0  0  0
   10.2553   -6.6181  -15.8380 H   0  0  0  0  0  0  0  0  0  0  0  0
   14.8353  -13.3714  -13.2821 C   0  0  0  0  0  0  0  0  0  0  0  0
   14.5925  -12.9862  -14.6368 O   0  0  0  0  0  0  0  0  0  0  0  0
   14.9503  -13.9883  -15.8450 P   0  0  0  0  0  0  0  0  0  0  0  0
   16.5113  -14.3392  -15.6676 O   0  0  0  0  0  0  0  0  0  0  0  0
   14.8452  -13.1138  -17.1922 O   0  0  0  0  0  0  0  0  0  0  0  0
   14.0874  -15.1895  -15.8664 O   0  0  0  0  0  0  0  0  0  0  0  0
   15.0527  -13.6726  -17.9574 H   0  0  0  0  0  0  0  0  0  0  0  0
   14.3428  -15.7580  -16.6097 H   0  0  0  0  0  0  0  0  0  0  0  0
 24 25  2  0  0  0
 24 26  1  0  0  0
 24 27  1  0  0  0
 24 23  1  0  0  0
 23 22  1  0  0  0
  1  2  1  0  0  0
  1  3  1  0  0  0
  1  7  1  0  0  0
  3  4  1  0  0  0
  3  5  1  0  0  0
 22  5  1  0  0  0
  5  6  1  0  0  0
  6  7  1  0  0  0
  7 10  1  0  0  0
 10 11  1  0  0  0
 10 14  1  0  0  0
 11 12  2  0  0  0
 11 15  1  0  0  0
 12 13  1  0  0  0
 12 18  1  0  0  0
 13 14  2  0  0  0
 18 19  1  0  0  0
 18 20  2  0  0  0
 26 28  1  0  0  0
 27 29  1  0  0  0
  2  8  1  0  0  0
  4  9  1  0  0  0
 15 16  1  0  0  0
 15 17  1  0  0  0
 19 21  1  0  0  0
M  END
> <minimizedAffinity>
-8.08401

$$$$
2NSL_C2R_A_300


 29 30  0  0  0  0  0  0  0  0999 V2000
   12.5725  -12.8157  -13.2632 C   0  0  0  0  0  0  0  0  0  0  0  0
   12.0433  -13.0628  -11.9581 O   0  0  0  0  0  0  0  0  0  0  0  0
   13.0312  -14.1259  -13.9029 C   0  0  0  0  0  0  0  0  0  0  0  0
   13.3867  -15.0598  -12.8800 O   0  0  0  0  0  0  0  0  0  0  0  0
   14.2802  -13.7030  -14.6834 C   0  0  0  0  0  0  0  0  0  0  0  0
   14.4409  -12.2935  -14.4470 O   0  0  0  0  0  0  0  0  0  0  0  0
   13.9254  -12.1229  -13.1205 C   0  0  0  0  0  0  0  0  0  0  0  0
   12.6978  -13.5459  -11.4299 H   0  0  0  0  0  0  0  0  0  0  0  0
   14.0631  -14.6682  -12.3056 H   0  0  0  0  0  0  0  0  0  0  0  0
   13.6977  -10.7103  -12.7447 N   0  0  0  0  0  0  0  0  0  0  0  0
   13.4727   -9.7055  -13.5842 C   0  0  0  0  0  0  0  0  0  0  0  0
   13.4715   -8.5360  -12.8399 C   0  0  0  0  0  0  0  0  0  0  0  0
   13.6707   -8.8656  -11.5680 N   0  0  0  0  0  0  0  0  0  0  0  0
   13.8046  -10.1912  -11.5220 C   0  0  0  0  0  0  0  0  0  0  0  0
   13.2273   -9.8124  -14.8880 N   0  0  0  0  0  0  0  0  0  0  0  0
   13.2533  -10.6951  -15.3231 H   0  0  0  0  0  0  0  0  0  0  0  0
   13.0197   -9.0086  -15.4173 H   0  0  0  0  0  0  0  0  0  0  0  0
   13.3763   -7.1162  -13.4014 C   0  0  0  0  0  0  0  0  0  0  0  0
   12.5189   -6.3518  -12.9075 O   0  0  0  0  0  0  0  0  0  0  0  0
   14.1526   -6.8025  -14.3305 O   0  0  0  0  0  0  0  0  0  0  0  0
   11.9686   -6.6525  -12.2113 H   0  0  0  0  0  0  0  0  0  0  0  0
   14.0902  -13.9542  -16.1804 C   0  0  0  0  0  0  0  0  0  0  0  0
   15.3124  -14.4157  -16.7602 O   0  0  0  0  0  0  0  0  0  0  0  0
   15.3984  -15.8821  -17.4192 P   0  0  0  0  0  0  0  0  0  0  0  0
   14.3237  -16.7776  -16.6228 O   0  0  0  0  0  0  0  0  0  0  0  0
   16.8435  -16.4651  -17.0161 O   0  0  0  0  0  0  0  0  0  0  0  0
   15.1678  -15.8669  -18.8802 O   0  0  0  0  0  0  0  0  0  0  0  0
   16.9493  -17.3538  -17.3901 H   0  0  0  0  0  0  0  0  0  0  0  0
   15.2301  -16.7707  -19.2268 H   0  0  0  0  0  0  0  0  0  0  0  0
 24 25  2  0  0  0
 24 26  1  0  0  0
 24 27  1  0  0  0
 24 23  1  0  0  0
 23 22  1  0  0  0
  1  2  1  0  0  0
  1  3  1  0  0  0
  1  7  1  0  0  0
  3  4  1  0  0  0
  3  5  1  0  0  0
 22  5  1  0  0  0
  5  6  1  0  0  0
  6  7  1  0  0  0
  7 10  1  0  0  0
 10 11  1  0  0  0
 10 14  1  0  0  0
 11 12  2  0  0  0
 11 15  1  0  0  0
 12 13  1  0  0  0
 12 18  1  0  0  0
 13 14  2  0  0  0
 18 19  1  0  0  0
 18 20  2  0  0  0
 26 28  1  0  0  0
 27 29  1  0  0  0
  2  8  1  0  0  0
  4  9  1  0  0  0
 15 16  1  0  0  0
 15 17  1  0  0  0
 19 21  1  0  0  0
M  END
> <minimizedAffinity>
-7.97480

$$$$
2NSL_C2R_A_300


 29 30  0  0  0  0  0  0  0  0999 V2000
   13.4679  -12.6005  -13.6904 C   0  0  0  0  0  0  0  0  0  0  0  0
   12.0948  -12.4483  -13.3221 O   0  0  0  0  0  0  0  0  0  0  0  0
   13.6884  -13.9600  -14.3534 C   0  0  0  0  0  0  0  0  0  0  0  0
   12.7093  -14.8884  -13.8799 O   0  0  0  0  0  0  0  0  0  0  0  0
   15.0785  -14.3616  -13.8490 C   0  0  0  0  0  0  0  0  0  0  0  0
   15.5174  -13.2923  -12.9934 O   0  0  0  0  0  0  0  0  0  0  0  0
   14.2954  -12.8056  -12.4240 C   0  0  0  0  0  0  0  0  0  0  0  0
   11.8227  -13.1990  -12.7714 H   0  0  0  0  0  0  0  0  0  0  0  0
   12.7491  -14.9346  -12.9118 H   0  0  0  0  0  0  0  0  0  0  0  0
   14.4343  -11.5053  -11.7323 N   0  0  0  0  0  0  0  0  0  0  0  0
   14.6963  -11.3316  -10.4415 C   0  0  0  0  0  0  0  0  0  0  0  0
   14.5857   -9.9757  -10.1750 C   0  0  0  0  0  0  0  0  0  0  0  0
   14.2846   -9.3625  -11.3150 N   0  0  0  0  0  0  0  0  0  0  0  0
   14.1976  -10.3030  -12.2558 C   0  0  0  0  0  0  0  0  0  0  0  0
   15.0626  -12.2785   -9.5808 N   0  0  0  0  0  0  0  0  0  0  0  0
   15.1096  -13.2176   -9.8727 H   0  0  0  0  0  0  0  0  0  0  0  0
   15.2867  -12.0398   -8.6523 H   0  0  0  0  0  0  0  0  0  0  0  0
   14.6774   -9.3230   -8.7945 C   0  0  0  0  0  0  0  0  0  0  0  0
   14.8425   -8.0845   -8.7466 O   0  0  0  0  0  0  0  0  0  0  0  0
   14.5942  -10.0651   -7.7912 O   0  0  0  0  0  0  0  0  0  0  0  0
   14.8963   -7.5880   -9.5395 H   0  0  0  0  0  0  0  0  0  0  0  0
   16.0519  -14.5156  -15.0190 C   0  0  0  0  0  0  0  0  0  0  0  0
   15.3317  -14.5829  -16.2517 O   0  0  0  0  0  0  0  0  0  0  0  0
   15.3066  -15.9468  -17.1068 P   0  0  0  0  0  0  0  0  0  0  0  0
   16.8279  -16.4726  -17.1267 O   0  0  0  0  0  0  0  0  0  0  0  0
   14.9693  -15.5150  -18.6202 O   0  0  0  0  0  0  0  0  0  0  0  0
   14.3581  -16.9442  -16.5648 O   0  0  0  0  0  0  0  0  0  0  0  0
   14.9416  -16.3045  -19.1831 H   0  0  0  0  0  0  0  0  0  0  0  0
   14.3811  -17.7438  -17.1134 H   0  0  0  0  0  0  0  0  0  0  0  0
 24 25  2  0  0  0
 24 26  1  0  0  0
 24 27  1  0  0  0
 24 23  1  0  0  0
 23 22  1  0  0  0
  1  2  1  0  0  0
  1  3  1  0  0  0
  1  7  1  0  0  0
  3  4  1  0  0  0
  3  5  1  0  0  0
 22  5  1  0  0  0
  5  6  1  0  0  0
  6  7  1  0  0  0
  7 10  1  0  0  0
 10 11  1  0  0  0
 10 14  1  0  0  0
 11 12  2  0  0  0
 11 15  1  0  0  0
 12 13  1  0  0  0
 12 18  1  0  0  0
 13 14  2  0  0  0
 18 19  1  0  0  0
 18 20  2  0  0  0
 26 28  1  0  0  0
 27 29  1  0  0  0
  2  8  1  0  0  0
  4  9  1  0  0  0
 15 16  1  0  0  0
 15 17  1  0  0  0
 19 21  1  0  0  0
M  END
> <minimizedAffinity>
-7.93858

$$$$
2NSL_C2R_A_300


 29 30  0  0  0  0  0  0  0  0999 V2000
   12.9614  -13.3851  -12.9000 C   0  0  0  0  0  0  0  0  0  0  0  0
   11.9246  -14.2397  -13.3888 O   0  0  0  0  0  0  0  0  0  0  0  0
   12.3564  -12.1426  -12.2468 C   0  0  0  0  0  0  0  0  0  0  0  0
   11.0774  -11.8715  -12.8261 O   0  0  0  0  0  0  0  0  0  0  0  0
   13.3495  -11.0404  -12.6304 C   0  0  0  0  0  0  0  0  0  0  0  0
   14.3679  -11.6777  -13.4209 O   0  0  0  0  0  0  0  0  0  0  0  0
   13.6554  -12.7264  -14.0895 C   0  0  0  0  0  0  0  0  0  0  0  0
   11.3407  -13.7358  -13.9769 H   0  0  0  0  0  0  0  0  0  0  0  0
   11.1707  -11.7799  -13.7872 H   0  0  0  0  0  0  0  0  0  0  0  0
   14.5324  -13.7249  -14.7396 N   0  0  0  0  0  0  0  0  0  0  0  0
   14.4543  -14.1275  -16.0032 C   0  0  0  0  0  0  0  0  0  0  0  0
   15.3476  -15.1759  -16.1599 C   0  0  0  0  0  0  0  0  0  0  0  0
   15.9598  -15.3635  -14.9953 N   0  0  0  0  0  0  0  0  0  0  0  0
   15.4573  -14.4733  -14.1396 C   0  0  0  0  0  0  0  0  0  0  0  0
   13.7048  -13.5792  -16.9567 N   0  0  0  0  0  0  0  0  0  0  0  0
   13.0990  -12.8343  -16.7392 H   0  0  0  0  0  0  0  0  0  0  0  0
   13.7561  -13.9186  -17.8794 H   0  0  0  0  0  0  0  0  0  0  0  0
   15.5100  -16.0354  -17.4150 C   0  0  0  0  0  0  0  0  0  0  0  0
   16.6092  -16.6045  -17.5920 O   0  0  0  0  0  0  0  0  0  0  0  0
   14.5392  -16.1117  -18.1999 O   0  0  0  0  0  0  0  0  0  0  0  0
   17.2954  -16.5043  -16.9619 H   0  0  0  0  0  0  0  0  0  0  0  0
   13.9801  -10.4252  -11.3798 C   0  0  0  0  0  0  0  0  0  0  0  0
   13.4928   -9.0955  -11.1872 O   0  0  0  0  0  0  0  0  0  0  0  0
   14.1652   -8.1333  -10.0853 P   0  0  0  0  0  0  0  0  0  0  0  0
   15.4278   -8.9501   -9.5110 O   0  0  0  0  0  0  0  0  0  0  0  0
   13.1102   -8.0427   -8.8730 O   0  0  0  0  0  0  0  0  0  0  0  0
   14.5341   -6.8090  -10.6312 O   0  0  0  0  0  0  0  0  0  0  0  0
   13.4673   -7.4707   -8.1757 H   0  0  0  0  0  0  0  0  0  0  0  0
   14.9333   -6.2701   -9.9304 H   0  0  0  0  0  0  0  0  0  0  0  0
 24 25  2  0  0  0
 24 26  1  0  0  0
 24 27  1  0  0  0
 24 23  1  0  0  0
 23 22  1  0  0  0
  1  2  1  0  0  0
  1  3  1  0  0  0
  1  7  1  0  0  0
  3  4  1  0  0  0
  3  5  1  0  0  0
 22  5  1  0  0  0
  5  6  1  0  0  0
  6  7  1  0  0  0
  7 10  1  0  0  0
 10 11  1  0  0  0
 10 14  1  0  0  0
 11 12  2  0  0  0
 11 15  1  0  0  0
 12 13  1  0  0  0
 12 18  1  0  0  0
 13 14  2  0  0  0
 18 19  1  0  0  0
 18 20  2  0  0  0
 26 28  1  0  0  0
 27 29  1  0  0  0
  2  8  1  0  0  0
  4  9  1  0  0  0
 15 16  1  0  0  0
 15 17  1  0  0  0
 19 21  1  0  0  0
M  END
> <minimizedAffinity>
-7.63628

$$$$
2NSL_C2R_A_300


 29 30  0  0  0  0  0  0  0  0999 V2000
   14.6466  -11.2142  -11.4225 C   0  0  0  0  0  0  0  0  0  0  0  0
   15.8966  -11.6418  -10.8758 O   0  0  0  0  0  0  0  0  0  0  0  0
   13.7670  -10.6179  -10.3239 C   0  0  0  0  0  0  0  0  0  0  0  0
   14.1213  -11.1910   -9.0626 O   0  0  0  0  0  0  0  0  0  0  0  0
   12.3615  -11.0738  -10.7303 C   0  0  0  0  0  0  0  0  0  0  0  0
   12.5239  -11.8453  -11.9330 O   0  0  0  0  0  0  0  0  0  0  0  0
   13.8139  -12.4471  -11.7646 C   0  0  0  0  0  0  0  0  0  0  0  0
   15.7355  -12.2465  -10.1347 H   0  0  0  0  0  0  0  0  0  0  0  0
   14.0497  -12.1570   -9.1148 H   0  0  0  0  0  0  0  0  0  0  0  0
   14.3546  -13.0572  -12.9991 N   0  0  0  0  0  0  0  0  0  0  0  0
   14.1885  -12.5978  -14.2346 C   0  0  0  0  0  0  0  0  0  0  0  0
   14.7164  -13.5415  -15.1020 C   0  0  0  0  0  0  0  0  0  0  0  0
   15.2097  -14.5341  -14.3687 N   0  0  0  0  0  0  0  0  0  0  0  0
   14.9859  -14.2271  -13.0909 C   0  0  0  0  0  0  0  0  0  0  0  0
   13.6710  -11.4184  -14.5703 N   0  0  0  0  0  0  0  0  0  0  0  0
   13.3206  -10.8182  -13.8731 H   0  0  0  0  0  0  0  0  0  0  0  0
   13.6386  -11.1463  -15.5159 H   0  0  0  0  0  0  0  0  0  0  0  0
   14.6369  -13.4993  -16.6291 C   0  0  0  0  0  0  0  0  0  0  0  0
   14.3229  -12.4142  -17.1653 O   0  0  0  0  0  0  0  0  0  0  0  0
   14.8785  -14.5543  -17.2558 O   0  0  0  0  0  0  0  0  0  0  0  0
   14.1549  -11.6606  -16.6344 H   0  0  0  0  0  0  0  0  0  0  0  0
   11.4646   -9.8669  -11.0115 C   0  0  0  0  0  0  0  0  0  0  0  0
   12.2275   -8.8163  -11.6089 O   0  0  0  0  0  0  0  0  0  0  0  0
   12.1467   -8.5517  -13.1949 P   0  0  0  0  0  0  0  0  0  0  0  0
   13.6729   -8.4235  -13.6901 O   0  0  0  0  0  0  0  0  0  0  0  0
   11.5024   -7.0869  -13.3677 O   0  0  0  0  0  0  0  0  0  0  0  0
   11.3933   -9.6032  -13.9125 O   0  0  0  0  0  0  0  0  0  0  0  0
   11.4300   -6.8747  -14.3114 H   0  0  0  0  0  0  0  0  0  0  0  0
   11.3741   -9.3976  -14.8602 H   0  0  0  0  0  0  0  0  0  0  0  0
 24 25  2  0  0  0
 24 26  1  0  0  0
 24 27  1  0  0  0
 24 23  1  0  0  0
 23 22  1  0  0  0
  1  2  1  0  0  0
  1  3  1  0  0  0
  1  7  1  0  0  0
  3  4  1  0  0  0
  3  5  1  0  0  0
 22  5  1  0  0  0
  5  6  1  0  0  0
  6  7  1  0  0  0
  7 10  1  0  0  0
 10 11  1  0  0  0
 10 14  1  0  0  0
 11 12  2  0  0  0
 11 15  1  0  0  0
 12 13  1  0  0  0
 12 18  1  0  0  0
 13 14  2  0  0  0
 18 19  1  0  0  0
 18 20  2  0  0  0
 26 28  1  0  0  0
 27 29  1  0  0  0
  2  8  1  0  0  0
  4  9  1  0  0  0
 15 16  1  0  0  0
 15 17  1  0  0  0
 19 21  1  0  0  0
M  END
> <minimizedAffinity>
-7.41349

$$$$
2NSL_C2R_A_300


 29 30  0  0  0  0  0  0  0  0999 V2000
   12.3746  -12.8747  -13.6371 C   0  0  0  0  0  0  0  0  0  0  0  0
   11.5340  -13.0282  -12.4908 O   0  0  0  0  0  0  0  0  0  0  0  0
   13.2447  -14.1176  -13.8231 C   0  0  0  0  0  0  0  0  0  0  0  0
   13.4463  -14.7549  -12.5590 O   0  0  0  0  0  0  0  0  0  0  0  0
   14.5666  -13.5328  -14.3318 C   0  0  0  0  0  0  0  0  0  0  0  0
   14.3779  -12.1083  -14.3884 O   0  0  0  0  0  0  0  0  0  0  0  0
   13.4643  -11.8559  -13.3131 C   0  0  0  0  0  0  0  0  0  0  0  0
   12.0784  -13.2419  -11.7169 H   0  0  0  0  0  0  0  0  0  0  0  0
   13.8310  -14.1200  -11.9346 H   0  0  0  0  0  0  0  0  0  0  0  0
   12.8700  -10.5013  -13.3390 N   0  0  0  0  0  0  0  0  0  0  0  0
   12.1030   -9.9670  -12.3949 C   0  0  0  0  0  0  0  0  0  0  0  0
   11.6327   -8.7563  -12.8793 C   0  0  0  0  0  0  0  0  0  0  0  0
   12.1465   -8.5783  -14.0919 N   0  0  0  0  0  0  0  0  0  0  0  0
   12.8995   -9.6453  -14.3598 C   0  0  0  0  0  0  0  0  0  0  0  0
   11.8834  -10.4720  -11.1833 N   0  0  0  0  0  0  0  0  0  0  0  0
   12.2654  -11.3455  -10.9374 H   0  0  0  0  0  0  0  0  0  0  0  0
   11.3390   -9.9722  -10.5329 H   0  0  0  0  0  0  0  0  0  0  0  0
   10.6129   -7.8495  -12.1879 C   0  0  0  0  0  0  0  0  0  0  0  0
   10.6157   -6.6358  -12.4888 O   0  0  0  0  0  0  0  0  0  0  0  0
    9.8413   -8.3695  -11.3521 O   0  0  0  0  0  0  0  0  0  0  0  0
   11.2225   -6.3123  -13.1252 H   0  0  0  0  0  0  0  0  0  0  0  0
   14.8876  -14.0642  -15.7300 C   0  0  0  0  0  0  0  0  0  0  0  0
   14.7357  -15.4850  -15.7624 O   0  0  0  0  0  0  0  0  0  0  0  0
   15.3290  -16.3395  -16.9912 P   0  0  0  0  0  0  0  0  0  0  0  0
   15.0895  -17.8825  -16.6001 O   0  0  0  0  0  0  0  0  0  0  0  0
   16.9228  -16.1179  -16.9565 O   0  0  0  0  0  0  0  0  0  0  0  0
   14.7221  -15.9720  -18.2891 O   0  0  0  0  0  0  0  0  0  0  0  0
   17.3342  -16.6144  -17.6812 H   0  0  0  0  0  0  0  0  0  0  0  0
   15.1121  -16.5133  -18.9933 H   0  0  0  0  0  0  0  0  0  0  0  0
 24 25  2  0  0  0
 24 26  1  0  0  0
 24 27  1  0  0  0
 24 23  1  0  0  0
 23 22  1  0  0  0
  1  2  1  0  0  0
  1  3  1  0  0  0
  1  7  1  0  0  0
  3  4  1  0  0  0
  3  5  1  0  0  0
 22  5  1  0  0  0
  5  6  1  0  0  0
  6  7  1  0  0  0
  7 10  1  0  0  0
 10 11  1  0  0  0
 10 14  1  0  0  0
 11 12  2  0  0  0
 11 15  1  0  0  0
 12 13  1  0  0  0
 12 18  1  0  0  0
 13 14  2  0  0  0
 18 19  1  0  0  0
 18 20  2  0  0  0
 26 28  1  0  0  0
 27 29  1  0  0  0
  2  8  1  0  0  0
  4  9  1  0  0  0
 15 16  1  0  0  0
 15 17  1  0  0  0
 19 21  1  0  0  0
M  END
> <minimizedAffinity>
-7.39278

$$$$
2NSL_C2R_A_300


 29 30  0  0  0  0  0  0  0  0999 V2000
   14.3629  -13.1076  -12.5609 C   0  0  0  0  0  0  0  0  0  0  0  0
   15.1524  -12.4050  -11.5979 O   0  0  0  0  0  0  0  0  0  0  0  0
   15.2504  -14.0241  -13.4027 C   0  0  0  0  0  0  0  0  0  0  0  0
   16.5789  -13.4969  -13.4461 O   0  0  0  0  0  0  0  0  0  0  0  0
   14.6068  -13.9378  -14.7907 C   0  0  0  0  0  0  0  0  0  0  0  0
   13.4897  -13.0419  -14.6581 O   0  0  0  0  0  0  0  0  0  0  0  0
   13.9228  -12.1260  -13.6441 C   0  0  0  0  0  0  0  0  0  0  0  0
   15.8749  -11.9408  -12.0489 H   0  0  0  0  0  0  0  0  0  0  0  0
   16.5550  -12.5878  -13.7835 H   0  0  0  0  0  0  0  0  0  0  0  0
   12.8389  -11.2769  -13.1030 N   0  0  0  0  0  0  0  0  0  0  0  0
   12.8331   -9.9489  -13.0639 C   0  0  0  0  0  0  0  0  0  0  0  0
   11.7152   -9.5606  -12.3418 C   0  0  0  0  0  0  0  0  0  0  0  0
   11.0616  -10.6614  -11.9848 N   0  0  0  0  0  0  0  0  0  0  0  0
   11.7534  -11.6991  -12.4556 C   0  0  0  0  0  0  0  0  0  0  0  0
   13.7044   -9.1423  -13.6652 N   0  0  0  0  0  0  0  0  0  0  0  0
   14.4693   -9.5218  -14.1553 H   0  0  0  0  0  0  0  0  0  0  0  0
   13.5841   -8.1663  -13.6199 H   0  0  0  0  0  0  0  0  0  0  0  0
   11.3658   -8.1289  -11.9317 C   0  0  0  0  0  0  0  0  0  0  0  0
   12.3102   -7.3500  -11.6770 O   0  0  0  0  0  0  0  0  0  0  0  0
   10.1557   -7.8203  -11.8624 O   0  0  0  0  0  0  0  0  0  0  0  0
   13.1956   -7.6478  -11.7495 H   0  0  0  0  0  0  0  0  0  0  0  0
   14.1112  -15.3134  -15.2406 C   0  0  0  0  0  0  0  0  0  0  0  0
   14.3012  -15.4677  -16.6487 O   0  0  0  0  0  0  0  0  0  0  0  0
   15.4976  -16.3852  -17.2133 P   0  0  0  0  0  0  0  0  0  0  0  0
   16.8438  -15.7885  -16.5631 O   0  0  0  0  0  0  0  0  0  0  0  0
   15.5918  -16.0707  -18.7890 O   0  0  0  0  0  0  0  0  0  0  0  0
   15.3031  -17.8222  -16.9209 O   0  0  0  0  0  0  0  0  0  0  0  0
   16.3023  -16.6009  -19.1826 H   0  0  0  0  0  0  0  0  0  0  0  0
   16.0479  -18.3290  -17.2805 H   0  0  0  0  0  0  0  0  0  0  0  0
 24 25  2  0  0  0
 24 26  1  0  0  0
 24 27  1  0  0  0
 24 23  1  0  0  0
 23 22  1  0  0  0
  1  2  1  0  0  0
  1  3  1  0  0  0
  1  7  1  0  0  0
  3  4  1  0  0  0
  3  5  1  0  0  0
 22  5  1  0  0  0
  5  6  1  0  0  0
  6  7  1  0  0  0
  7 10  1  0  0  0
 10 11  1  0  0  0
 10 14  1  0  0  0
 11 12  2  0  0  0
 11 15  1  0  0  0
 12 13  1  0  0  0
 12 18  1  0  0  0
 13 14  2  0  0  0
 18 19  1  0  0  0
 18 20  2  0  0  0
 26 28  1  0  0  0
 27 29  1  0  0  0
  2  8  1  0  0  0
  4  9  1  0  0  0
 15 16  1  0  0  0
 15 17  1  0  0  0
 19 21  1  0  0  0
M  END
> <minimizedAffinity>
-7.33101

$$$$
