3L4Y_NR4_A_1001


 34 34  0  0  0  0  0  0  0  0999 V2000
   -2.5492  -20.7790  -21.0659 C   0  0  0  0  0  0  0  0  0  0  0  0
   -2.5911  -19.0500  -22.6748 O   0  0  0  0  0  0  0  0  0  0  0  0
   -2.9742  -19.3569  -21.3462 C   0  0  0  0  0  0  0  0  0  0  0  0
   -2.8520  -18.1395  -22.8843 H   0  0  0  0  0  0  0  0  0  0  0  0
   -2.2409  -18.4644  -20.3746 C   0  0  0  0  0  0  0  0  0  0  0  0
    0.9770  -14.9337  -20.8113 O   0  0  0  0  0  0  0  0  0  0  0  0
   -0.2478  -14.8030  -18.2213 O   0  0  0  0  0  0  0  0  0  0  0  0
   -1.1883  -15.9632  -21.6239 C   0  0  0  0  0  0  0  0  0  0  0  0
   -0.2062  -15.7292  -20.4661 C   0  0  0  0  0  0  0  0  0  0  0  0
   -1.0459  -15.0024  -19.3994 C   0  0  0  0  0  0  0  0  0  0  0  0
   -2.1714  -16.0178  -19.0711 C   0  0  0  0  0  0  0  0  0  0  0  0
   -2.6123  -16.7434  -20.6860 S   0  0  0  0  0  0  0  0  0  0  0  0
    1.4967  -15.4020  -21.4833 H   0  0  0  0  0  0  0  0  0  0  0  0
    0.4605  -14.1690  -18.4141 H   0  0  0  0  0  0  0  0  0  0  0  0
   -3.7403  -14.1386  -18.8436 O   0  0  0  0  0  0  0  0  0  0  0  0
   -3.3101  -15.3546  -18.2461 C   0  0  0  0  0  0  0  0  0  0  0  0
   -4.4492  -13.7485  -18.3086 H   0  0  0  0  0  0  0  0  0  0  0  0
   -3.6134  -21.5236  -23.0635 O   0  0  0  0  0  0  0  0  0  0  0  0
   -2.3477  -21.3796  -22.4292 C   0  0  0  0  0  0  0  0  0  0  0  0
   -3.4914  -21.9108  -23.9444 H   0  0  0  0  0  0  0  0  0  0  0  0
   -2.3887  -23.7525  -22.1296 O   0  0  0  0  0  0  0  0  0  0  0  0
   -1.5349  -22.6381  -22.3124 C   0  0  0  0  0  0  0  0  0  0  0  0
   -1.8556  -24.5594  -22.0554 H   0  0  0  0  0  0  0  0  0  0  0  0
   -0.7499  -21.5443  -24.2234 O   0  0  0  0  0  0  0  0  0  0  0  0
   -0.7423  -22.8244  -23.5774 C   0  0  0  0  0  0  0  0  0  0  0  0
   -0.2505  -21.5979  -25.0532 H   0  0  0  0  0  0  0  0  0  0  0  0
   -2.5279  -23.4348  -25.1083 O   0  0  0  0  0  0  0  0  0  0  0  0
   -1.3504  -23.9466  -24.4179 C   0  0  0  0  0  0  0  0  0  0  0  0
   -2.9207  -24.1412  -25.6448 H   0  0  0  0  0  0  0  0  0  0  0  0
   -3.5730  -21.4422  -20.2844 O   0  0  0  0  0  0  0  0  0  0  0  0
   -3.0525  -23.5647  -19.1608 O   0  0  0  0  0  0  0  0  0  0  0  0
   -1.8075  -21.6033  -18.5924 O   0  0  0  0  0  0  0  0  0  0  0  0
   -4.1009  -21.7810  -17.9932 O   0  0  0  0  0  0  0  0  0  0  0  0
   -3.1213  -22.0890  -19.0266 S   0  0  0  0  0  0  0  0  0  0  0  0
 27 28  1  0  0  0
 15 16  1  0  0  0
 24 25  1  0  0  0
  6  9  1  0  0  0
  2  3  1  0  0  0
 21 22  1  0  0  0
  7 10  1  0  0  0
 18 19  1  0  0  0
 31 34  1  0  0  0
 32 34  2  0  0  0
 33 34  2  0  0  0
 28 25  1  0  0  0
 16 11  1  0  0  0
  8  9  1  0  0  0
  8 12  1  0  0  0
  5  3  1  0  0  0
  5 12  1  0  0  0
 30  1  1  0  0  0
 30 34  1  0  0  0
 25 22  1  0  0  0
  9 10  1  0  0  0
  3  1  1  0  0  0
 22 19  1  0  0  0
 10 11  1  0  0  0
 19  1  1  0  0  0
 11 12  1  0  0  0
 27 29  1  0  0  0
 15 17  1  0  0  0
 24 26  1  0  0  0
  6 13  1  0  0  0
  2  4  1  0  0  0
 21 23  1  0  0  0
  7 14  1  0  0  0
 18 20  1  0  0  0
M  CHG 1  12   1
M  CHG 1  31  -1
M  END
> <minimizedAffinity>
-7.29784

$$$$
3L4Y_NR4_A_1001


 34 34  0  0  0  0  0  0  0  0999 V2000
   -3.2937  -20.7368  -21.4595 C   0  0  0  0  0  0  0  0  0  0  0  0
   -5.3404  -20.1334  -22.4730 O   0  0  0  0  0  0  0  0  0  0  0  0
   -4.5421  -21.2535  -22.1350 C   0  0  0  0  0  0  0  0  0  0  0  0
   -6.1522  -20.4350  -22.9100 H   0  0  0  0  0  0  0  0  0  0  0  0
   -5.2672  -22.1275  -21.1408 C   0  0  0  0  0  0  0  0  0  0  0  0
   -2.7795  -25.5244  -23.4395 O   0  0  0  0  0  0  0  0  0  0  0  0
   -4.0132  -23.7773  -25.3503 O   0  0  0  0  0  0  0  0  0  0  0  0
   -4.7071  -24.9627  -21.8975 C   0  0  0  0  0  0  0  0  0  0  0  0
   -3.7904  -24.5339  -23.0533 C   0  0  0  0  0  0  0  0  0  0  0  0
   -4.7558  -24.2716  -24.2239 C   0  0  0  0  0  0  0  0  0  0  0  0
   -5.6681  -23.1353  -23.6929 C   0  0  0  0  0  0  0  0  0  0  0  0
   -5.9588  -23.5673  -21.9443 S   0  0  0  0  0  0  0  0  0  0  0  0
   -2.1785  -25.6804  -22.6942 H   0  0  0  0  0  0  0  0  0  0  0  0
   -3.4380  -24.4797  -25.6919 H   0  0  0  0  0  0  0  0  0  0  0  0
   -6.5464  -22.4451  -25.8831 O   0  0  0  0  0  0  0  0  0  0  0  0
   -6.9143  -22.9377  -24.6013 C   0  0  0  0  0  0  0  0  0  0  0  0
   -7.3419  -22.3319  -26.4265 H   0  0  0  0  0  0  0  0  0  0  0  0
   -2.6589  -19.1249  -23.0953 O   0  0  0  0  0  0  0  0  0  0  0  0
   -3.2596  -19.2764  -21.8142 C   0  0  0  0  0  0  0  0  0  0  0  0
   -2.6333  -18.1844  -23.3312 H   0  0  0  0  0  0  0  0  0  0  0  0
   -1.3014  -18.9775  -20.4733 O   0  0  0  0  0  0  0  0  0  0  0  0
   -2.6147  -18.5003  -20.7007 C   0  0  0  0  0  0  0  0  0  0  0  0
   -0.8934  -18.4711  -19.7535 H   0  0  0  0  0  0  0  0  0  0  0  0
   -1.3422  -16.9094  -21.8470 O   0  0  0  0  0  0  0  0  0  0  0  0
   -2.5529  -17.0490  -21.0915 C   0  0  0  0  0  0  0  0  0  0  0  0
   -1.2429  -15.9873  -22.1312 H   0  0  0  0  0  0  0  0  0  0  0  0
   -1.3542  -16.2926  -19.1177 O   0  0  0  0  0  0  0  0  0  0  0  0
   -2.6112  -16.1663  -19.8453 C   0  0  0  0  0  0  0  0  0  0  0  0
   -1.3825  -15.7351  -18.3244 H   0  0  0  0  0  0  0  0  0  0  0  0
   -2.1451  -21.4782  -21.9388 O   0  0  0  0  0  0  0  0  0  0  0  0
   -1.3756  -23.6762  -21.1544 O   0  0  0  0  0  0  0  0  0  0  0  0
    0.0313  -21.7662  -20.8498 O   0  0  0  0  0  0  0  0  0  0  0  0
   -1.9926  -21.9707  -19.6199 O   0  0  0  0  0  0  0  0  0  0  0  0
   -1.3641  -22.2128  -20.9118 S   0  0  0  0  0  0  0  0  0  0  0  0
 27 28  1  0  0  0
 15 16  1  0  0  0
 24 25  1  0  0  0
  6  9  1  0  0  0
  2  3  1  0  0  0
 21 22  1  0  0  0
  7 10  1  0  0  0
 18 19  1  0  0  0
 31 34  1  0  0  0
 32 34  2  0  0  0
 33 34  2  0  0  0
 28 25  1  0  0  0
 16 11  1  0  0  0
  8  9  1  0  0  0
  8 12  1  0  0  0
  5  3  1  0  0  0
  5 12  1  0  0  0
 30  1  1  0  0  0
 30 34  1  0  0  0
 25 22  1  0  0  0
  9 10  1  0  0  0
  3  1  1  0  0  0
 22 19  1  0  0  0
 10 11  1  0  0  0
 19  1  1  0  0  0
 11 12  1  0  0  0
 27 29  1  0  0  0
 15 17  1  0  0  0
 24 26  1  0  0  0
  6 13  1  0  0  0
  2  4  1  0  0  0
 21 23  1  0  0  0
  7 14  1  0  0  0
 18 20  1  0  0  0
M  CHG 1  12   1
M  CHG 1  31  -1
M  END
> <minimizedAffinity>
-6.73934

$$$$
3L4Y_NR4_A_1001


 34 34  0  0  0  0  0  0  0  0999 V2000
   -2.0342  -23.7848  -23.6035 C   0  0  0  0  0  0  0  0  0  0  0  0
   -2.2580  -21.4838  -23.1187 O   0  0  0  0  0  0  0  0  0  0  0  0
   -3.0109  -22.6538  -23.3838 C   0  0  0  0  0  0  0  0  0  0  0  0
   -2.8604  -20.7377  -22.9729 H   0  0  0  0  0  0  0  0  0  0  0  0
   -3.8560  -23.0106  -22.1851 C   0  0  0  0  0  0  0  0  0  0  0  0
   -5.8906  -27.3377  -22.5697 O   0  0  0  0  0  0  0  0  0  0  0  0
   -5.2548  -26.3388  -25.1819 O   0  0  0  0  0  0  0  0  0  0  0  0
   -6.1314  -24.9192  -21.8616 C   0  0  0  0  0  0  0  0  0  0  0  0
   -5.4764  -25.9486  -22.7951 C   0  0  0  0  0  0  0  0  0  0  0  0
   -5.8854  -25.4917  -24.2076 C   0  0  0  0  0  0  0  0  0  0  0  0
   -5.2772  -24.0692  -24.3180 C   0  0  0  0  0  0  0  0  0  0  0  0
   -5.5464  -23.3321  -22.6709 S   0  0  0  0  0  0  0  0  0  0  0  0
   -5.6274  -27.6129  -21.6776 H   0  0  0  0  0  0  0  0  0  0  0  0
   -5.6271  -27.2326  -25.1227 H   0  0  0  0  0  0  0  0  0  0  0  0
   -6.7033  -22.2470  -25.1490 O   0  0  0  0  0  0  0  0  0  0  0  0
   -5.8423  -23.3052  -25.5486 C   0  0  0  0  0  0  0  0  0  0  0  0
   -7.0398  -21.7895  -25.9354 H   0  0  0  0  0  0  0  0  0  0  0  0
    0.2150  -23.1630  -24.0845 O   0  0  0  0  0  0  0  0  0  0  0  0
   -0.7407  -23.2711  -23.0356 C   0  0  0  0  0  0  0  0  0  0  0  0
    1.0531  -22.8318  -23.7254 H   0  0  0  0  0  0  0  0  0  0  0  0
    0.4679  -25.2051  -22.3139 O   0  0  0  0  0  0  0  0  0  0  0  0
   -0.3273  -24.1221  -21.8681 C   0  0  0  0  0  0  0  0  0  0  0  0
    0.7297  -25.7483  -21.5541 H   0  0  0  0  0  0  0  0  0  0  0  0
    0.2402  -21.9237  -21.3121 O   0  0  0  0  0  0  0  0  0  0  0  0
    0.4737  -23.2808  -20.9123 C   0  0  0  0  0  0  0  0  0  0  0  0
    0.7337  -21.3255  -20.7294 H   0  0  0  0  0  0  0  0  0  0  0  0
    2.5585  -23.1385  -22.1524 O   0  0  0  0  0  0  0  0  0  0  0  0
    1.9442  -23.6949  -20.9532 C   0  0  0  0  0  0  0  0  0  0  0  0
    3.4929  -23.3966  -22.1865 H   0  0  0  0  0  0  0  0  0  0  0  0
   -1.9660  -24.0942  -25.0171 O   0  0  0  0  0  0  0  0  0  0  0  0
   -2.6254  -25.8994  -26.5485 O   0  0  0  0  0  0  0  0  0  0  0  0
   -0.4122  -25.8832  -25.6420 O   0  0  0  0  0  0  0  0  0  0  0  0
   -2.2790  -26.3154  -24.2353 O   0  0  0  0  0  0  0  0  0  0  0  0
   -1.8083  -25.5283  -25.3673 S   0  0  0  0  0  0  0  0  0  0  0  0
 27 28  1  0  0  0
 15 16  1  0  0  0
 24 25  1  0  0  0
  6  9  1  0  0  0
  2  3  1  0  0  0
 21 22  1  0  0  0
  7 10  1  0  0  0
 18 19  1  0  0  0
 31 34  1  0  0  0
 32 34  2  0  0  0
 33 34  2  0  0  0
 28 25  1  0  0  0
 16 11  1  0  0  0
  8  9  1  0  0  0
  8 12  1  0  0  0
  5  3  1  0  0  0
  5 12  1  0  0  0
 30  1  1  0  0  0
 30 34  1  0  0  0
 25 22  1  0  0  0
  9 10  1  0  0  0
  3  1  1  0  0  0
 22 19  1  0  0  0
 10 11  1  0  0  0
 19  1  1  0  0  0
 11 12  1  0  0  0
 27 29  1  0  0  0
 15 17  1  0  0  0
 24 26  1  0  0  0
  6 13  1  0  0  0
  2  4  1  0  0  0
 21 23  1  0  0  0
  7 14  1  0  0  0
 18 20  1  0  0  0
M  CHG 1  12   1
M  CHG 1  31  -1
M  END
> <minimizedAffinity>
-6.55608

$$$$
3L4Y_NR4_A_1001


 34 34  0  0  0  0  0  0  0  0999 V2000
   -3.2025  -20.5273  -20.9804 C   0  0  0  0  0  0  0  0  0  0  0  0
   -2.6442  -19.2521  -22.8888 O   0  0  0  0  0  0  0  0  0  0  0  0
   -3.1796  -19.1421  -21.5822 C   0  0  0  0  0  0  0  0  0  0  0  0
   -2.6170  -18.3750  -23.3021 H   0  0  0  0  0  0  0  0  0  0  0  0
   -2.2797  -18.2885  -20.7220 C   0  0  0  0  0  0  0  0  0  0  0  0
    1.1901  -14.9762  -20.7514 O   0  0  0  0  0  0  0  0  0  0  0  0
   -0.3686  -14.7143  -18.3582 O   0  0  0  0  0  0  0  0  0  0  0  0
   -0.9049  -15.8851  -21.8439 C   0  0  0  0  0  0  0  0  0  0  0  0
   -0.0785  -15.6886  -20.5639 C   0  0  0  0  0  0  0  0  0  0  0  0
   -1.0081  -14.8882  -19.6331 C   0  0  0  0  0  0  0  0  0  0  0  0
   -2.2316  -15.8240  -19.4517 C   0  0  0  0  0  0  0  0  0  0  0  0
   -2.4921  -16.5546  -21.1031 S   0  0  0  0  0  0  0  0  0  0  0  0
    1.7658  -15.4903  -21.3390 H   0  0  0  0  0  0  0  0  0  0  0  0
    0.3993  -14.1302  -18.4586 H   0  0  0  0  0  0  0  0  0  0  0  0
   -3.1526  -14.7395  -17.4466 O   0  0  0  0  0  0  0  0  0  0  0  0
   -3.4275  -15.0735  -18.8008 C   0  0  0  0  0  0  0  0  0  0  0  0
   -3.9142  -14.2735  -17.0675 H   0  0  0  0  0  0  0  0  0  0  0  0
   -0.9449  -21.2635  -21.1763 O   0  0  0  0  0  0  0  0  0  0  0  0
   -1.8736  -20.6512  -20.2887 C   0  0  0  0  0  0  0  0  0  0  0  0
   -0.0843  -21.3470  -20.7367 H   0  0  0  0  0  0  0  0  0  0  0  0
   -2.9466  -22.4298  -19.1024 O   0  0  0  0  0  0  0  0  0  0  0  0
   -2.0544  -21.3392  -18.9651 C   0  0  0  0  0  0  0  0  0  0  0  0
   -3.0570  -22.8673  -18.2437 H   0  0  0  0  0  0  0  0  0  0  0  0
   -0.5640  -23.1342  -19.1109 O   0  0  0  0  0  0  0  0  0  0  0  0
   -0.7192  -21.8485  -18.4951 C   0  0  0  0  0  0  0  0  0  0  0  0
    0.2856  -23.5194  -18.8453 H   0  0  0  0  0  0  0  0  0  0  0  0
   -0.1933  -20.5988  -16.4786 O   0  0  0  0  0  0  0  0  0  0  0  0
   -0.6782  -21.8836  -16.9678 C   0  0  0  0  0  0  0  0  0  0  0  0
   -0.1640  -20.6121  -15.5092 H   0  0  0  0  0  0  0  0  0  0  0  0
   -3.4047  -21.5049  -22.0301 O   0  0  0  0  0  0  0  0  0  0  0  0
   -4.6985  -23.5442  -22.4840 O   0  0  0  0  0  0  0  0  0  0  0  0
   -5.4959  -21.9916  -20.8489 O   0  0  0  0  0  0  0  0  0  0  0  0
   -5.4956  -21.4086  -23.1533 O   0  0  0  0  0  0  0  0  0  0  0  0
   -4.7582  -22.1097  -22.1107 S   0  0  0  0  0  0  0  0  0  0  0  0
 27 28  1  0  0  0
 15 16  1  0  0  0
 24 25  1  0  0  0
  6  9  1  0  0  0
  2  3  1  0  0  0
 21 22  1  0  0  0
  7 10  1  0  0  0
 18 19  1  0  0  0
 31 34  1  0  0  0
 32 34  2  0  0  0
 33 34  2  0  0  0
 28 25  1  0  0  0
 16 11  1  0  0  0
  8  9  1  0  0  0
  8 12  1  0  0  0
  5  3  1  0  0  0
  5 12  1  0  0  0
 30  1  1  0  0  0
 30 34  1  0  0  0
 25 22  1  0  0  0
  9 10  1  0  0  0
  3  1  1  0  0  0
 22 19  1  0  0  0
 10 11  1  0  0  0
 19  1  1  0  0  0
 11 12  1  0  0  0
 27 29  1  0  0  0
 15 17  1  0  0  0
 24 26  1  0  0  0
  6 13  1  0  0  0
  2  4  1  0  0  0
 21 23  1  0  0  0
  7 14  1  0  0  0
 18 20  1  0  0  0
M  CHG 1  12   1
M  CHG 1  31  -1
M  END
> <minimizedAffinity>
-6.52749

$$$$
3L4Y_NR4_A_1001


 34 34  0  0  0  0  0  0  0  0999 V2000
   -1.7159  -23.2202  -23.0252 C   0  0  0  0  0  0  0  0  0  0  0  0
    0.3574  -23.0169  -24.1386 O   0  0  0  0  0  0  0  0  0  0  0  0
   -0.3047  -22.6901  -22.9300 C   0  0  0  0  0  0  0  0  0  0  0  0
    1.2694  -22.6880  -24.1068 H   0  0  0  0  0  0  0  0  0  0  0  0
    0.3630  -23.3840  -21.7676 C   0  0  0  0  0  0  0  0  0  0  0  0
    0.8943  -24.4526  -17.1213 O   0  0  0  0  0  0  0  0  0  0  0  0
   -1.6765  -23.2533  -17.5441 O   0  0  0  0  0  0  0  0  0  0  0  0
    1.6914  -23.0994  -19.1068 C   0  0  0  0  0  0  0  0  0  0  0  0
    0.5326  -23.8068  -18.3879 C   0  0  0  0  0  0  0  0  0  0  0  0
   -0.4982  -22.6895  -18.1426 C   0  0  0  0  0  0  0  0  0  0  0  0
   -0.8514  -22.2027  -19.5722 C   0  0  0  0  0  0  0  0  0  0  0  0
    0.7405  -22.2207  -20.4633 S   0  0  0  0  0  0  0  0  0  0  0  0
    1.5433  -25.1535  -17.2896 H   0  0  0  0  0  0  0  0  0  0  0  0
   -1.4682  -23.5619  -16.6483 H   0  0  0  0  0  0  0  0  0  0  0  0
   -1.6979  -20.2630  -20.8235 O   0  0  0  0  0  0  0  0  0  0  0  0
   -1.6401  -20.8633  -19.5362 C   0  0  0  0  0  0  0  0  0  0  0  0
   -2.1945  -19.4315  -20.7705 H   0  0  0  0  0  0  0  0  0  0  0  0
   -2.4624  -23.3513  -25.2841 O   0  0  0  0  0  0  0  0  0  0  0  0
   -1.7182  -24.0397  -24.2854 C   0  0  0  0  0  0  0  0  0  0  0  0
   -2.4683  -23.8744  -26.1009 H   0  0  0  0  0  0  0  0  0  0  0  0
   -3.5903  -25.5168  -24.0963 O   0  0  0  0  0  0  0  0  0  0  0  0
   -2.1817  -25.4361  -23.9799 C   0  0  0  0  0  0  0  0  0  0  0  0
   -3.8799  -26.4209  -23.8975 H   0  0  0  0  0  0  0  0  0  0  0  0
   -0.4598  -25.6571  -25.5453 O   0  0  0  0  0  0  0  0  0  0  0  0
   -1.5491  -26.3843  -24.9616 C   0  0  0  0  0  0  0  0  0  0  0  0
   -0.0066  -26.2187  -26.1935 H   0  0  0  0  0  0  0  0  0  0  0  0
   -2.7134  -25.8653  -27.0303 O   0  0  0  0  0  0  0  0  0  0  0  0
   -2.5886  -26.8628  -25.9745 C   0  0  0  0  0  0  0  0  0  0  0  0
   -3.3718  -26.1611  -27.6783 H   0  0  0  0  0  0  0  0  0  0  0  0
   -2.6463  -22.1100  -23.0522 O   0  0  0  0  0  0  0  0  0  0  0  0
   -4.0121  -23.5764  -21.6300 O   0  0  0  0  0  0  0  0  0  0  0  0
   -4.5149  -21.2402  -21.7266 O   0  0  0  0  0  0  0  0  0  0  0  0
   -4.8944  -22.6257  -23.6204 O   0  0  0  0  0  0  0  0  0  0  0  0
   -3.9986  -22.3745  -22.4994 S   0  0  0  0  0  0  0  0  0  0  0  0
 27 28  1  0  0  0
 15 16  1  0  0  0
 24 25  1  0  0  0
  6  9  1  0  0  0
  2  3  1  0  0  0
 21 22  1  0  0  0
  7 10  1  0  0  0
 18 19  1  0  0  0
 31 34  1  0  0  0
 32 34  2  0  0  0
 33 34  2  0  0  0
 28 25  1  0  0  0
 16 11  1  0  0  0
  8  9  1  0  0  0
  8 12  1  0  0  0
  5  3  1  0  0  0
  5 12  1  0  0  0
 30  1  1  0  0  0
 30 34  1  0  0  0
 25 22  1  0  0  0
  9 10  1  0  0  0
  3  1  1  0  0  0
 22 19  1  0  0  0
 10 11  1  0  0  0
 19  1  1  0  0  0
 11 12  1  0  0  0
 27 29  1  0  0  0
 15 17  1  0  0  0
 24 26  1  0  0  0
  6 13  1  0  0  0
  2  4  1  0  0  0
 21 23  1  0  0  0
  7 14  1  0  0  0
 18 20  1  0  0  0
M  CHG 1  12   1
M  CHG 1  31  -1
M  END
> <minimizedAffinity>
-6.40626

$$$$
3L4Y_NR4_A_1001


 34 34  0  0  0  0  0  0  0  0999 V2000
   -2.2163  -20.7159  -19.4725 C   0  0  0  0  0  0  0  0  0  0  0  0
   -2.5646  -20.0578  -21.7143 O   0  0  0  0  0  0  0  0  0  0  0  0
   -2.5980  -19.5733  -20.3838 C   0  0  0  0  0  0  0  0  0  0  0  0
   -2.8062  -19.3436  -22.3246 H   0  0  0  0  0  0  0  0  0  0  0  0
   -1.5689  -18.4843  -20.2013 C   0  0  0  0  0  0  0  0  0  0  0  0
    0.9587  -14.4798  -20.9675 O   0  0  0  0  0  0  0  0  0  0  0  0
   -0.2666  -14.3623  -18.3770 O   0  0  0  0  0  0  0  0  0  0  0  0
   -0.9863  -15.9440  -21.6616 C   0  0  0  0  0  0  0  0  0  0  0  0
   -0.0612  -15.4445  -20.5416 C   0  0  0  0  0  0  0  0  0  0  0  0
   -1.0169  -14.7965  -19.5228 C   0  0  0  0  0  0  0  0  0  0  0  0
   -1.9404  -15.9678  -19.0973 C   0  0  0  0  0  0  0  0  0  0  0  0
   -2.2450  -16.8890  -20.6424 S   0  0  0  0  0  0  0  0  0  0  0  0
    1.5535  -14.8999  -21.6082 H   0  0  0  0  0  0  0  0  0  0  0  0
    0.3156  -13.6291  -18.6306 H   0  0  0  0  0  0  0  0  0  0  0  0
   -3.4999  -14.1169  -18.6648 O   0  0  0  0  0  0  0  0  0  0  0  0
   -3.1790  -15.4555  -18.3096 C   0  0  0  0  0  0  0  0  0  0  0  0
   -4.2744  -13.8250  -18.1591 H   0  0  0  0  0  0  0  0  0  0  0  0
   -2.6788  -22.7922  -20.5460 O   0  0  0  0  0  0  0  0  0  0  0  0
   -1.6951  -21.7735  -20.4050 C   0  0  0  0  0  0  0  0  0  0  0  0
   -2.3495  -23.4788  -21.1469 H   0  0  0  0  0  0  0  0  0  0  0  0
   -0.4604  -23.4852  -19.2791 O   0  0  0  0  0  0  0  0  0  0  0  0
   -0.3442  -22.2380  -19.9388 C   0  0  0  0  0  0  0  0  0  0  0  0
    0.4157  -23.7767  -18.9820 H   0  0  0  0  0  0  0  0  0  0  0  0
   -0.2647  -22.0919  -22.2704 O   0  0  0  0  0  0  0  0  0  0  0  0
    0.5563  -22.3925  -21.1338 C   0  0  0  0  0  0  0  0  0  0  0  0
    0.2622  -22.1743  -23.0807 H   0  0  0  0  0  0  0  0  0  0  0  0
    2.4922  -23.7272  -21.7467 O   0  0  0  0  0  0  0  0  0  0  0  0
    1.1599  -23.7963  -21.1589 C   0  0  0  0  0  0  0  0  0  0  0  0
    2.8832  -24.6147  -21.7667 H   0  0  0  0  0  0  0  0  0  0  0  0
   -3.3763  -21.1327  -18.7113 O   0  0  0  0  0  0  0  0  0  0  0  0
   -2.9913  -23.1974  -17.4357 O   0  0  0  0  0  0  0  0  0  0  0  0
   -1.8822  -21.1859  -16.7696 O   0  0  0  0  0  0  0  0  0  0  0  0
   -4.2359  -21.3966  -16.5126 O   0  0  0  0  0  0  0  0  0  0  0  0
   -3.1067  -21.7197  -17.3746 S   0  0  0  0  0  0  0  0  0  0  0  0
 27 28  1  0  0  0
 15 16  1  0  0  0
 24 25  1  0  0  0
  6  9  1  0  0  0
  2  3  1  0  0  0
 21 22  1  0  0  0
  7 10  1  0  0  0
 18 19  1  0  0  0
 31 34  1  0  0  0
 32 34  2  0  0  0
 33 34  2  0  0  0
 28 25  1  0  0  0
 16 11  1  0  0  0
  8  9  1  0  0  0
  8 12  1  0  0  0
  5  3  1  0  0  0
  5 12  1  0  0  0
 30  1  1  0  0  0
 30 34  1  0  0  0
 25 22  1  0  0  0
  9 10  1  0  0  0
  3  1  1  0  0  0
 22 19  1  0  0  0
 10 11  1  0  0  0
 19  1  1  0  0  0
 11 12  1  0  0  0
 27 29  1  0  0  0
 15 17  1  0  0  0
 24 26  1  0  0  0
  6 13  1  0  0  0
  2  4  1  0  0  0
 21 23  1  0  0  0
  7 14  1  0  0  0
 18 20  1  0  0  0
M  CHG 1  12   1
M  CHG 1  31  -1
M  END
> <minimizedAffinity>
-6.27122

$$$$
3L4Y_NR4_A_1001


 34 34  0  0  0  0  0  0  0  0999 V2000
   -2.6181  -19.5175  -20.6528 C   0  0  0  0  0  0  0  0  0  0  0  0
   -0.9861  -21.2217  -20.5420 O   0  0  0  0  0  0  0  0  0  0  0  0
   -1.4328  -20.0503  -19.8829 C   0  0  0  0  0  0  0  0  0  0  0  0
   -0.2227  -21.5878  -20.0686 H   0  0  0  0  0  0  0  0  0  0  0  0
   -1.9101  -20.3870  -18.4911 C   0  0  0  0  0  0  0  0  0  0  0  0
   -2.2456  -22.3666  -14.1345 O   0  0  0  0  0  0  0  0  0  0  0  0
    0.5063  -21.8269  -14.7358 O   0  0  0  0  0  0  0  0  0  0  0  0
   -2.5906  -22.6221  -16.6293 C   0  0  0  0  0  0  0  0  0  0  0  0
   -1.8010  -21.9807  -15.4782 C   0  0  0  0  0  0  0  0  0  0  0  0
   -0.3502  -22.4399  -15.7132 C   0  0  0  0  0  0  0  0  0  0  0  0
   -0.0077  -21.8571  -17.1091 C   0  0  0  0  0  0  0  0  0  0  0  0
   -1.5336  -22.0865  -18.0827 S   0  0  0  0  0  0  0  0  0  0  0  0
   -3.1598  -22.0719  -13.9993 H   0  0  0  0  0  0  0  0  0  0  0  0
    0.3016  -22.1837  -13.8573 H   0  0  0  0  0  0  0  0  0  0  0  0
    1.4985  -23.7981  -17.2013 O   0  0  0  0  0  0  0  0  0  0  0  0
    1.3043  -22.4713  -17.6735 C   0  0  0  0  0  0  0  0  0  0  0  0
    2.3224  -24.1546  -17.5688 H   0  0  0  0  0  0  0  0  0  0  0  0
   -2.5994  -20.3017  -22.9026 O   0  0  0  0  0  0  0  0  0  0  0  0
   -2.9929  -20.6415  -21.5779 C   0  0  0  0  0  0  0  0  0  0  0  0
   -2.8381  -21.0229  -23.5059 H   0  0  0  0  0  0  0  0  0  0  0  0
   -5.2237  -20.3055  -22.3731 O   0  0  0  0  0  0  0  0  0  0  0  0
   -4.4463  -20.9794  -21.4007 C   0  0  0  0  0  0  0  0  0  0  0  0
   -6.1596  -20.5295  -22.2509 H   0  0  0  0  0  0  0  0  0  0  0  0
   -3.3140  -23.0245  -21.4094 O   0  0  0  0  0  0  0  0  0  0  0  0
   -4.6244  -22.4639  -21.5668 C   0  0  0  0  0  0  0  0  0  0  0  0
   -3.3610  -23.9885  -21.5064 H   0  0  0  0  0  0  0  0  0  0  0  0
   -4.2606  -22.6461  -23.9625 O   0  0  0  0  0  0  0  0  0  0  0  0
   -5.2704  -22.7675  -22.9181 C   0  0  0  0  0  0  0  0  0  0  0  0
   -4.6622  -22.8374  -24.8245 H   0  0  0  0  0  0  0  0  0  0  0  0
   -2.2377  -18.3008  -21.3409 O   0  0  0  0  0  0  0  0  0  0  0  0
   -3.0642  -16.0184  -20.9587 O   0  0  0  0  0  0  0  0  0  0  0  0
   -2.4003  -17.3517  -19.0874 O   0  0  0  0  0  0  0  0  0  0  0  0
   -0.7755  -16.5670  -20.6348 O   0  0  0  0  0  0  0  0  0  0  0  0
   -2.1329  -17.0794  -20.5033 S   0  0  0  0  0  0  0  0  0  0  0  0
 27 28  1  0  0  0
 15 16  1  0  0  0
 24 25  1  0  0  0
  6  9  1  0  0  0
  2  3  1  0  0  0
 21 22  1  0  0  0
  7 10  1  0  0  0
 18 19  1  0  0  0
 31 34  1  0  0  0
 32 34  2  0  0  0
 33 34  2  0  0  0
 28 25  1  0  0  0
 16 11  1  0  0  0
  8  9  1  0  0  0
  8 12  1  0  0  0
  5  3  1  0  0  0
  5 12  1  0  0  0
 30  1  1  0  0  0
 30 34  1  0  0  0
 25 22  1  0  0  0
  9 10  1  0  0  0
  3  1  1  0  0  0
 22 19  1  0  0  0
 10 11  1  0  0  0
 19  1  1  0  0  0
 11 12  1  0  0  0
 27 29  1  0  0  0
 15 17  1  0  0  0
 24 26  1  0  0  0
  6 13  1  0  0  0
  2  4  1  0  0  0
 21 23  1  0  0  0
  7 14  1  0  0  0
 18 20  1  0  0  0
M  CHG 1  12   1
M  CHG 1  31  -1
M  END
> <minimizedAffinity>
-6.22654

$$$$
3L4Y_NR4_A_1001


 34 34  0  0  0  0  0  0  0  0999 V2000
   -2.4021  -20.8099  -21.2645 C   0  0  0  0  0  0  0  0  0  0  0  0
   -2.8008  -19.0829  -22.8260 O   0  0  0  0  0  0  0  0  0  0  0  0
   -2.9481  -19.4147  -21.4570 C   0  0  0  0  0  0  0  0  0  0  0  0
   -3.1440  -18.1889  -22.9807 H   0  0  0  0  0  0  0  0  0  0  0  0
   -2.1218  -18.4826  -20.6044 C   0  0  0  0  0  0  0  0  0  0  0  0
    1.0773  -14.9120  -20.7729 O   0  0  0  0  0  0  0  0  0  0  0  0
   -0.4265  -14.7412  -18.3367 O   0  0  0  0  0  0  0  0  0  0  0  0
   -0.9716  -15.9944  -21.7923 C   0  0  0  0  0  0  0  0  0  0  0  0
   -0.1260  -15.7182  -20.5399 C   0  0  0  0  0  0  0  0  0  0  0  0
   -1.0874  -14.9804  -19.5899 C   0  0  0  0  0  0  0  0  0  0  0  0
   -2.2286  -16.0058  -19.3620 C   0  0  0  0  0  0  0  0  0  0  0  0
   -2.4796  -16.7754  -20.9971 S   0  0  0  0  0  0  0  0  0  0  0  0
    1.6739  -15.3874  -21.3721 H   0  0  0  0  0  0  0  0  0  0  0  0
    0.2903  -14.1006  -18.4663 H   0  0  0  0  0  0  0  0  0  0  0  0
   -3.1060  -14.7432  -17.4434 O   0  0  0  0  0  0  0  0  0  0  0  0
   -3.4598  -15.3420  -18.6833 C   0  0  0  0  0  0  0  0  0  0  0  0
   -3.8917  -14.3382  -17.0441 H   0  0  0  0  0  0  0  0  0  0  0  0
   -3.0438  -21.7297  -23.3667 O   0  0  0  0  0  0  0  0  0  0  0  0
   -3.3825  -21.6926  -21.9850 C   0  0  0  0  0  0  0  0  0  0  0  0
   -3.6725  -22.2978  -23.8386 H   0  0  0  0  0  0  0  0  0  0  0  0
   -5.5060  -21.0423  -22.8738 O   0  0  0  0  0  0  0  0  0  0  0  0
   -4.7847  -21.2509  -21.6737 C   0  0  0  0  0  0  0  0  0  0  0  0
   -6.4090  -20.7577  -22.6630 H   0  0  0  0  0  0  0  0  0  0  0  0
   -5.1321  -22.0422  -19.5017 O   0  0  0  0  0  0  0  0  0  0  0  0
   -5.4650  -22.3236  -20.8677 C   0  0  0  0  0  0  0  0  0  0  0  0
   -5.5444  -22.7045  -18.9253 H   0  0  0  0  0  0  0  0  0  0  0  0
   -4.4716  -24.4413  -20.2094 O   0  0  0  0  0  0  0  0  0  0  0  0
   -5.0143  -23.7040  -21.3439 C   0  0  0  0  0  0  0  0  0  0  0  0
   -4.1828  -25.3196  -20.5028 H   0  0  0  0  0  0  0  0  0  0  0  0
   -2.2962  -21.0942  -19.8479 O   0  0  0  0  0  0  0  0  0  0  0  0
   -0.7765  -21.8495  -18.0706 O   0  0  0  0  0  0  0  0  0  0  0  0
   -1.7463  -23.4631  -19.5458 O   0  0  0  0  0  0  0  0  0  0  0  0
   -0.1280  -21.9215  -20.3550 O   0  0  0  0  0  0  0  0  0  0  0  0
   -1.2609  -22.0824  -19.4533 S   0  0  0  0  0  0  0  0  0  0  0  0
 27 28  1  0  0  0
 15 16  1  0  0  0
 24 25  1  0  0  0
  6  9  1  0  0  0
  2  3  1  0  0  0
 21 22  1  0  0  0
  7 10  1  0  0  0
 18 19  1  0  0  0
 31 34  1  0  0  0
 32 34  2  0  0  0
 33 34  2  0  0  0
 28 25  1  0  0  0
 16 11  1  0  0  0
  8  9  1  0  0  0
  8 12  1  0  0  0
  5  3  1  0  0  0
  5 12  1  0  0  0
 30  1  1  0  0  0
 30 34  1  0  0  0
 25 22  1  0  0  0
  9 10  1  0  0  0
  3  1  1  0  0  0
 22 19  1  0  0  0
 10 11  1  0  0  0
 19  1  1  0  0  0
 11 12  1  0  0  0
 27 29  1  0  0  0
 15 17  1  0  0  0
 24 26  1  0  0  0
  6 13  1  0  0  0
  2  4  1  0  0  0
 21 23  1  0  0  0
  7 14  1  0  0  0
 18 20  1  0  0  0
M  CHG 1  12   1
M  CHG 1  31  -1
M  END
> <minimizedAffinity>
-6.22388

$$$$
3L4Y_NR4_A_1001


 34 34  0  0  0  0  0  0  0  0999 V2000
   -3.2540  -22.3117  -20.9436 C   0  0  0  0  0  0  0  0  0  0  0  0
   -5.6113  -22.4462  -20.8717 O   0  0  0  0  0  0  0  0  0  0  0  0
   -4.4774  -22.9599  -21.5474 C   0  0  0  0  0  0  0  0  0  0  0  0
   -6.4152  -22.8457  -21.2392 H   0  0  0  0  0  0  0  0  0  0  0  0
   -4.3639  -24.4471  -21.3156 C   0  0  0  0  0  0  0  0  0  0  0  0
   -0.6541  -25.4083  -24.2009 O   0  0  0  0  0  0  0  0  0  0  0  0
   -2.1828  -23.2401  -25.2906 O   0  0  0  0  0  0  0  0  0  0  0  0
   -2.8144  -26.2166  -23.1576 C   0  0  0  0  0  0  0  0  0  0  0  0
   -1.9724  -25.0398  -23.6734 C   0  0  0  0  0  0  0  0  0  0  0  0
   -2.8366  -24.4151  -24.7842 C   0  0  0  0  0  0  0  0  0  0  0  0
   -4.1269  -23.9836  -24.0393 C   0  0  0  0  0  0  0  0  0  0  0  0
   -4.4458  -25.3406  -22.8622 S   0  0  0  0  0  0  0  0  0  0  0  0
   -0.1202  -25.8002  -23.4921 H   0  0  0  0  0  0  0  0  0  0  0  0
   -1.3733  -23.4971  -25.7591 H   0  0  0  0  0  0  0  0  0  0  0  0
   -4.9924  -24.1268  -26.3361 O   0  0  0  0  0  0  0  0  0  0  0  0
   -5.2612  -23.6159  -25.0370 C   0  0  0  0  0  0  0  0  0  0  0  0
   -5.7149  -23.8826  -26.9355 H   0  0  0  0  0  0  0  0  0  0  0  0
   -1.9430  -21.4652  -22.7441 O   0  0  0  0  0  0  0  0  0  0  0  0
   -2.9846  -21.1308  -21.8338 C   0  0  0  0  0  0  0  0  0  0  0  0
   -1.7634  -20.7074  -23.3223 H   0  0  0  0  0  0  0  0  0  0  0  0
   -1.3649  -19.7933  -20.6893 O   0  0  0  0  0  0  0  0  0  0  0  0
   -2.7427  -19.9086  -20.9936 C   0  0  0  0  0  0  0  0  0  0  0  0
   -1.2186  -19.0023  -20.1472 H   0  0  0  0  0  0  0  0  0  0  0  0
   -2.7520  -18.9219  -23.1127 O   0  0  0  0  0  0  0  0  0  0  0  0
   -3.1824  -18.6938  -21.7641 C   0  0  0  0  0  0  0  0  0  0  0  0
   -3.0078  -18.1673  -23.6659 H   0  0  0  0  0  0  0  0  0  0  0  0
   -1.4507  -16.9961  -21.9193 O   0  0  0  0  0  0  0  0  0  0  0  0
   -2.5982  -17.4309  -21.1322 C   0  0  0  0  0  0  0  0  0  0  0  0
   -1.0733  -16.1943  -21.5250 H   0  0  0  0  0  0  0  0  0  0  0  0
   -2.1693  -23.2713  -20.9070 O   0  0  0  0  0  0  0  0  0  0  0  0
   -0.0758  -22.4355  -19.9286 O   0  0  0  0  0  0  0  0  0  0  0  0
   -2.0006  -22.6907  -18.5321 O   0  0  0  0  0  0  0  0  0  0  0  0
   -0.8955  -24.6039  -19.4088 O   0  0  0  0  0  0  0  0  0  0  0  0
   -1.3037  -23.2363  -19.7013 S   0  0  0  0  0  0  0  0  0  0  0  0
 27 28  1  0  0  0
 15 16  1  0  0  0
 24 25  1  0  0  0
  6  9  1  0  0  0
  2  3  1  0  0  0
 21 22  1  0  0  0
  7 10  1  0  0  0
 18 19  1  0  0  0
 31 34  1  0  0  0
 32 34  2  0  0  0
 33 34  2  0  0  0
 28 25  1  0  0  0
 16 11  1  0  0  0
  8  9  1  0  0  0
  8 12  1  0  0  0
  5  3  1  0  0  0
  5 12  1  0  0  0
 30  1  1  0  0  0
 30 34  1  0  0  0
 25 22  1  0  0  0
  9 10  1  0  0  0
  3  1  1  0  0  0
 22 19  1  0  0  0
 10 11  1  0  0  0
 19  1  1  0  0  0
 11 12  1  0  0  0
 27 29  1  0  0  0
 15 17  1  0  0  0
 24 26  1  0  0  0
  6 13  1  0  0  0
  2  4  1  0  0  0
 21 23  1  0  0  0
  7 14  1  0  0  0
 18 20  1  0  0  0
M  CHG 1  12   1
M  CHG 1  31  -1
M  END
> <minimizedAffinity>
-6.08927

$$$$
3L4Y_NR4_A_1001


 34 34  0  0  0  0  0  0  0  0999 V2000
   -2.7200  -25.1515  -23.1356 C   0  0  0  0  0  0  0  0  0  0  0  0
   -2.8960  -26.8827  -21.5380 O   0  0  0  0  0  0  0  0  0  0  0  0
   -2.6613  -25.4917  -21.6650 C   0  0  0  0  0  0  0  0  0  0  0  0
   -2.8642  -27.1318  -20.6011 H   0  0  0  0  0  0  0  0  0  0  0  0
   -3.7565  -24.7148  -20.9756 C   0  0  0  0  0  0  0  0  0  0  0  0
   -4.9700  -20.1932  -22.0215 O   0  0  0  0  0  0  0  0  0  0  0  0
   -2.4201  -20.7982  -23.1867 O   0  0  0  0  0  0  0  0  0  0  0  0
   -4.3947  -21.8919  -20.2348 C   0  0  0  0  0  0  0  0  0  0  0  0
   -4.2271  -21.4125  -21.6847 C   0  0  0  0  0  0  0  0  0  0  0  0
   -2.7131  -21.1730  -21.8309 C   0  0  0  0  0  0  0  0  0  0  0  0
   -2.0976  -22.5703  -21.5577 C   0  0  0  0  0  0  0  0  0  0  0  0
   -3.1001  -23.2478  -20.1921 S   0  0  0  0  0  0  0  0  0  0  0  0
   -5.9212  -20.3572  -21.9255 H   0  0  0  0  0  0  0  0  0  0  0  0
   -2.8003  -19.9249  -23.3701 H   0  0  0  0  0  0  0  0  0  0  0  0
    0.1241  -22.3220  -22.5810 O   0  0  0  0  0  0  0  0  0  0  0  0
   -0.5601  -22.4806  -21.3450 C   0  0  0  0  0  0  0  0  0  0  0  0
    1.0787  -22.2692  -22.4176 H   0  0  0  0  0  0  0  0  0  0  0  0
   -4.4830  -26.3480  -24.2021 O   0  0  0  0  0  0  0  0  0  0  0  0
   -4.1876  -25.1700  -23.4604 C   0  0  0  0  0  0  0  0  0  0  0  0
   -5.4290  -26.3670  -24.4156 H   0  0  0  0  0  0  0  0  0  0  0  0
   -3.4587  -23.3119  -24.7788 O   0  0  0  0  0  0  0  0  0  0  0  0
   -4.5765  -23.8760  -24.1182 C   0  0  0  0  0  0  0  0  0  0  0  0
   -3.7191  -22.4778  -25.1999 H   0  0  0  0  0  0  0  0  0  0  0  0
   -4.9970  -24.1955  -26.3953 O   0  0  0  0  0  0  0  0  0  0  0  0
   -5.6604  -24.1487  -25.1250 C   0  0  0  0  0  0  0  0  0  0  0  0
   -5.6474  -24.3697  -27.0935 H   0  0  0  0  0  0  0  0  0  0  0  0
   -6.7130  -22.2645  -26.2416 O   0  0  0  0  0  0  0  0  0  0  0  0
   -6.7459  -23.0769  -25.0316 C   0  0  0  0  0  0  0  0  0  0  0  0
   -7.3993  -21.5810  -26.1909 H   0  0  0  0  0  0  0  0  0  0  0  0
   -1.9467  -26.1206  -23.8850 O   0  0  0  0  0  0  0  0  0  0  0  0
   -0.6719  -24.2190  -24.7781 O   0  0  0  0  0  0  0  0  0  0  0  0
   -0.0266  -26.4438  -25.3730 O   0  0  0  0  0  0  0  0  0  0  0  0
   -2.0668  -25.5319  -26.1833 O   0  0  0  0  0  0  0  0  0  0  0  0
   -1.1715  -25.5919  -25.0356 S   0  0  0  0  0  0  0  0  0  0  0  0
 27 28  1  0  0  0
 15 16  1  0  0  0
 24 25  1  0  0  0
  6  9  1  0  0  0
  2  3  1  0  0  0
 21 22  1  0  0  0
  7 10  1  0  0  0
 18 19  1  0  0  0
 31 34  1  0  0  0
 32 34  2  0  0  0
 33 34  2  0  0  0
 28 25  1  0  0  0
 16 11  1  0  0  0
  8  9  1  0  0  0
  8 12  1  0  0  0
  5  3  1  0  0  0
  5 12  1  0  0  0
 30  1  1  0  0  0
 30 34  1  0  0  0
 25 22  1  0  0  0
  9 10  1  0  0  0
  3  1  1  0  0  0
 22 19  1  0  0  0
 10 11  1  0  0  0
 19  1  1  0  0  0
 11 12  1  0  0  0
 27 29  1  0  0  0
 15 17  1  0  0  0
 24 26  1  0  0  0
  6 13  1  0  0  0
  2  4  1  0  0  0
 21 23  1  0  0  0
  7 14  1  0  0  0
 18 20  1  0  0  0
M  CHG 1  12   1
M  CHG 1  31  -1
M  END
> <minimizedAffinity>
-6.05012

$$$$
