1YDA_AZM_A_264


 16 16  0  0  0  0  0  0  0  0999 V2000
   -4.4309    2.3227   13.1237 C   0  0  0  0  0  0  0  0  0  0  0  0
   -4.9056    1.9816   15.3177 C   0  0  0  0  0  0  0  0  0  0  0  0
   -4.6837    0.8486   14.7489 N   0  0  0  0  0  0  0  0  0  0  0  0
   -4.3914    1.0590   13.4285 N   0  0  0  0  0  0  0  0  0  0  0  0
   -4.8474    3.3960   14.3597 S   0  0  0  0  0  0  0  0  0  0  0  0
   -4.6656    1.7534   10.4558 N   0  0  0  0  0  0  0  0  0  0  0  0
   -4.8176    4.0047   11.3377 O   0  0  0  0  0  0  0  0  0  0  0  0
   -2.7106    3.4656   11.1033 O   0  0  0  0  0  0  0  0  0  0  0  0
   -3.9949    2.8032   11.4714 S   0  0  0  0  0  0  0  0  0  0  0  0
   -5.5320    1.3966   10.8587 H   0  0  0  0  0  0  0  0  0  0  0  0
   -4.0220    0.9790   10.2931 H   0  0  0  0  0  0  0  0  0  0  0  0
   -6.3099    1.7731   17.1341 C   0  0  0  0  0  0  0  0  0  0  0  0
   -6.4521    1.7307   18.6539 C   0  0  0  0  0  0  0  0  0  0  0  0
   -5.0703    1.9157   16.6143 N   0  0  0  0  0  0  0  0  0  0  0  0
   -7.3356    1.6866   16.4586 O   0  0  0  0  0  0  0  0  0  0  0  0
   -4.2900    1.9701   17.2121 H   0  0  0  0  0  0  0  0  0  0  0  0
  1  4  2  0  0  0
  1  9  1  0  0  0
  1  5  1  0  0  0
  2  3  2  0  0  0
  2 14  1  0  0  0
  2  5  1  0  0  0
 12 13  1  0  0  0
 12 14  1  0  0  0
 12 15  2  0  0  0
  6  9  1  0  0  0
  3  4  1  0  0  0
  7  9  2  0  0  0
  8  9  2  0  0  0
  6 10  1  0  0  0
  6 11  1  0  0  0
 14 16  1  0  0  0
M  END
> <minimizedAffinity>
-6.87690

$$$$
1YDA_AZM_A_264


 16 16  0  0  0  0  0  0  0  0999 V2000
   -5.2541    1.5249   15.6537 C   0  0  0  0  0  0  0  0  0  0  0  0
   -4.5870    2.2525   13.6091 C   0  0  0  0  0  0  0  0  0  0  0  0
   -4.4056    0.9809   13.6885 N   0  0  0  0  0  0  0  0  0  0  0  0
   -4.8151    0.5451   14.9197 N   0  0  0  0  0  0  0  0  0  0  0  0
   -5.2020    3.0717   14.9774 S   0  0  0  0  0  0  0  0  0  0  0  0
   -6.2846    2.5294   17.9832 N   0  0  0  0  0  0  0  0  0  0  0  0
   -7.2052    0.5848   16.8695 O   0  0  0  0  0  0  0  0  0  0  0  0
   -5.4887   -0.0260   18.0801 O   0  0  0  0  0  0  0  0  0  0  0  0
   -5.9112    1.1443   17.2583 S   0  0  0  0  0  0  0  0  0  0  0  0
   -6.5501    3.2199   17.2810 H   0  0  0  0  0  0  0  0  0  0  0  0
   -5.4765    2.8686   18.5051 H   0  0  0  0  0  0  0  0  0  0  0  0
   -3.1579    3.3436   12.1661 C   0  0  0  0  0  0  0  0  0  0  0  0
   -2.9412    3.9497   10.7814 C   0  0  0  0  0  0  0  0  0  0  0  0
   -4.3501    2.7625   12.4274 N   0  0  0  0  0  0  0  0  0  0  0  0
   -2.2374    3.4255   12.9796 O   0  0  0  0  0  0  0  0  0  0  0  0
   -5.0413    2.7228   11.7275 H   0  0  0  0  0  0  0  0  0  0  0  0
  1  4  2  0  0  0
  1  9  1  0  0  0
  1  5  1  0  0  0
  2  3  2  0  0  0
  2 14  1  0  0  0
  2  5  1  0  0  0
 12 13  1  0  0  0
 12 14  1  0  0  0
 12 15  2  0  0  0
  6  9  1  0  0  0
  3  4  1  0  0  0
  7  9  2  0  0  0
  8  9  2  0  0  0
  6 10  1  0  0  0
  6 11  1  0  0  0
 14 16  1  0  0  0
M  END
> <minimizedAffinity>
-6.84048

$$$$
1YDA_AZM_A_264


 16 16  0  0  0  0  0  0  0  0999 V2000
   -4.7890    2.5703   14.7161 C   0  0  0  0  0  0  0  0  0  0  0  0
   -4.6887    4.5102   13.5406 C   0  0  0  0  0  0  0  0  0  0  0  0
   -4.8871    3.5308   12.7296 N   0  0  0  0  0  0  0  0  0  0  0  0
   -4.9537    2.3643   13.4425 N   0  0  0  0  0  0  0  0  0  0  0  0
   -4.5077    4.1625   15.2044 S   0  0  0  0  0  0  0  0  0  0  0  0
   -6.4321    1.1491   16.3827 N   0  0  0  0  0  0  0  0  0  0  0  0
   -4.8865    0.0919   14.8456 O   0  0  0  0  0  0  0  0  0  0  0  0
   -3.8118    0.6703   16.6610 O   0  0  0  0  0  0  0  0  0  0  0  0
   -4.9282    1.1845   15.8167 S   0  0  0  0  0  0  0  0  0  0  0  0
   -7.0675    1.5349   15.6842 H   0  0  0  0  0  0  0  0  0  0  0  0
   -6.4873    1.7047   17.2363 H   0  0  0  0  0  0  0  0  0  0  0  0
   -5.8794    6.4131   13.0153 C   0  0  0  0  0  0  0  0  0  0  0  0
   -5.8910    7.7762   12.3272 C   0  0  0  0  0  0  0  0  0  0  0  0
   -4.7352    5.6940   12.9847 N   0  0  0  0  0  0  0  0  0  0  0  0
   -6.9190    6.0329   13.5543 O   0  0  0  0  0  0  0  0  0  0  0  0
   -3.9355    6.0616   12.5435 H   0  0  0  0  0  0  0  0  0  0  0  0
  1  4  2  0  0  0
  1  9  1  0  0  0
  1  5  1  0  0  0
  2  3  2  0  0  0
  2 14  1  0  0  0
  2  5  1  0  0  0
 12 13  1  0  0  0
 12 14  1  0  0  0
 12 15  2  0  0  0
  6  9  1  0  0  0
  3  4  1  0  0  0
  7  9  2  0  0  0
  8  9  2  0  0  0
  6 10  1  0  0  0
  6 11  1  0  0  0
 14 16  1  0  0  0
M  END
> <minimizedAffinity>
-6.44084

$$$$
1YDA_AZM_A_264


 16 16  0  0  0  0  0  0  0  0999 V2000
   -5.0636    2.6112   16.1340 C   0  0  0  0  0  0  0  0  0  0  0  0
   -4.5005    4.6451   15.2968 C   0  0  0  0  0  0  0  0  0  0  0  0
   -3.4549    3.8957   15.3339 N   0  0  0  0  0  0  0  0  0  0  0  0
   -3.7997    2.6687   15.8327 N   0  0  0  0  0  0  0  0  0  0  0  0
   -5.9743    4.0122   15.8877 S   0  0  0  0  0  0  0  0  0  0  0  0
   -4.6528   -0.0850   16.3770 N   0  0  0  0  0  0  0  0  0  0  0  0
   -5.5803    1.2691   18.1590 O   0  0  0  0  0  0  0  0  0  0  0  0
   -7.1731    0.7377   16.7569 O   0  0  0  0  0  0  0  0  0  0  0  0
   -5.7195    1.0682   16.7172 S   0  0  0  0  0  0  0  0  0  0  0  0
   -3.7115    0.3076   16.3911 H   0  0  0  0  0  0  0  0  0  0  0  0
   -4.8482   -0.4667   15.4515 H   0  0  0  0  0  0  0  0  0  0  0  0
   -4.5542    5.9440   13.3928 C   0  0  0  0  0  0  0  0  0  0  0  0
   -4.2987    7.3087   12.7571 C   0  0  0  0  0  0  0  0  0  0  0  0
   -4.3183    5.8039   14.7164 N   0  0  0  0  0  0  0  0  0  0  0  0
   -4.9523    5.0358   12.6630 O   0  0  0  0  0  0  0  0  0  0  0  0
   -4.0088    6.5748   15.2447 H   0  0  0  0  0  0  0  0  0  0  0  0
  1  4  2  0  0  0
  1  9  1  0  0  0
  1  5  1  0  0  0
  2  3  2  0  0  0
  2 14  1  0  0  0
  2  5  1  0  0  0
 12 13  1  0  0  0
 12 14  1  0  0  0
 12 15  2  0  0  0
  6  9  1  0  0  0
  3  4  1  0  0  0
  7  9  2  0  0  0
  8  9  2  0  0  0
  6 10  1  0  0  0
  6 11  1  0  0  0
 14 16  1  0  0  0
M  END
> <minimizedAffinity>
-6.35820

$$$$
1YDA_AZM_A_264


 16 16  0  0  0  0  0  0  0  0999 V2000
   -5.0035    2.8277   15.3516 C   0  0  0  0  0  0  0  0  0  0  0  0
   -4.8505    4.8610   14.3528 C   0  0  0  0  0  0  0  0  0  0  0  0
   -5.2505    5.0119   15.5667 N   0  0  0  0  0  0  0  0  0  0  0  0
   -5.3350    3.7849   16.1673 N   0  0  0  0  0  0  0  0  0  0  0  0
   -4.5849    3.2736   13.7772 S   0  0  0  0  0  0  0  0  0  0  0  0
   -6.4486    0.7928   16.4777 N   0  0  0  0  0  0  0  0  0  0  0  0
   -4.8223    0.4329   14.7184 O   0  0  0  0  0  0  0  0  0  0  0  0
   -3.7867    0.5469   16.6419 O   0  0  0  0  0  0  0  0  0  0  0  0
   -4.9682    1.1661   15.9753 S   0  0  0  0  0  0  0  0  0  0  0  0
   -7.1351    1.2997   15.9191 H   0  0  0  0  0  0  0  0  0  0  0  0
   -6.5502    1.0522   17.4589 H   0  0  0  0  0  0  0  0  0  0  0  0
   -3.3692    6.5172   13.7385 C   0  0  0  0  0  0  0  0  0  0  0  0
   -3.1455    7.8381   13.0057 C   0  0  0  0  0  0  0  0  0  0  0  0
   -4.6090    5.9792   13.7172 N   0  0  0  0  0  0  0  0  0  0  0  0
   -2.4089    6.0144   14.3223 O   0  0  0  0  0  0  0  0  0  0  0  0
   -5.3316    6.4293   13.2227 H   0  0  0  0  0  0  0  0  0  0  0  0
  1  4  2  0  0  0
  1  9  1  0  0  0
  1  5  1  0  0  0
  2  3  2  0  0  0
  2 14  1  0  0  0
  2  5  1  0  0  0
 12 13  1  0  0  0
 12 14  1  0  0  0
 12 15  2  0  0  0
  6  9  1  0  0  0
  3  4  1  0  0  0
  7  9  2  0  0  0
  8  9  2  0  0  0
  6 10  1  0  0  0
  6 11  1  0  0  0
 14 16  1  0  0  0
M  END
> <minimizedAffinity>
-6.09290

$$$$
1YDA_AZM_A_264


 16 16  0  0  0  0  0  0  0  0999 V2000
   -5.2036    1.7848   15.8380 C   0  0  0  0  0  0  0  0  0  0  0  0
   -4.1002    2.5053   13.9892 C   0  0  0  0  0  0  0  0  0  0  0  0
   -4.2772    1.2331   13.9105 N   0  0  0  0  0  0  0  0  0  0  0  0
   -4.9484    0.8037   15.0233 N   0  0  0  0  0  0  0  0  0  0  0  0
   -4.6507    3.3164   15.3895 S   0  0  0  0  0  0  0  0  0  0  0  0
   -7.4629    0.6274   16.8643 N   0  0  0  0  0  0  0  0  0  0  0  0
   -5.2890    0.4241   17.9140 O   0  0  0  0  0  0  0  0  0  0  0  0
   -6.1934    2.3285   18.4974 O   0  0  0  0  0  0  0  0  0  0  0  0
   -6.1461    1.4385   17.3019 S   0  0  0  0  0  0  0  0  0  0  0  0
   -7.2594    0.0713   16.0338 H   0  0  0  0  0  0  0  0  0  0  0  0
   -8.2144    1.2853   16.6572 H   0  0  0  0  0  0  0  0  0  0  0  0
   -4.2367    2.9844   11.7383 C   0  0  0  0  0  0  0  0  0  0  0  0
   -3.5748    3.6087   10.5118 C   0  0  0  0  0  0  0  0  0  0  0  0
   -3.5804    3.0490   12.9182 N   0  0  0  0  0  0  0  0  0  0  0  0
   -5.3320    2.4429   11.5867 O   0  0  0  0  0  0  0  0  0  0  0  0
   -2.7099    3.5057   12.9720 H   0  0  0  0  0  0  0  0  0  0  0  0
  1  4  2  0  0  0
  1  9  1  0  0  0
  1  5  1  0  0  0
  2  3  2  0  0  0
  2 14  1  0  0  0
  2  5  1  0  0  0
 12 13  1  0  0  0
 12 14  1  0  0  0
 12 15  2  0  0  0
  6  9  1  0  0  0
  3  4  1  0  0  0
  7  9  2  0  0  0
  8  9  2  0  0  0
  6 10  1  0  0  0
  6 11  1  0  0  0
 14 16  1  0  0  0
M  END
> <minimizedAffinity>
-5.95576

$$$$
1YDA_AZM_A_264


 16 16  0  0  0  0  0  0  0  0999 V2000
   -4.6825    2.0425   14.2980 C   0  0  0  0  0  0  0  0  0  0  0  0
   -4.2448    2.8572   12.2244 C   0  0  0  0  0  0  0  0  0  0  0  0
   -4.1737    1.5725   12.2008 N   0  0  0  0  0  0  0  0  0  0  0  0
   -4.4447    1.0849   13.4507 N   0  0  0  0  0  0  0  0  0  0  0  0
   -4.5818    3.6243   13.7143 S   0  0  0  0  0  0  0  0  0  0  0  0
   -3.9481    0.7268   16.5843 N   0  0  0  0  0  0  0  0  0  0  0  0
   -5.0033    2.9076   16.6040 O   0  0  0  0  0  0  0  0  0  0  0  0
   -6.5425    1.3663   16.4029 O   0  0  0  0  0  0  0  0  0  0  0  0
   -5.1398    1.6036   15.9561 S   0  0  0  0  0  0  0  0  0  0  0  0
   -3.0605    1.0150   16.1726 H   0  0  0  0  0  0  0  0  0  0  0  0
   -4.1108   -0.2602   16.3851 H   0  0  0  0  0  0  0  0  0  0  0  0
   -2.9589    3.9966   10.6873 C   0  0  0  0  0  0  0  0  0  0  0  0
   -2.8845    4.6771    9.3222 C   0  0  0  0  0  0  0  0  0  0  0  0
   -4.1300    3.4295   11.0531 N   0  0  0  0  0  0  0  0  0  0  0  0
   -1.9489    4.0095   11.3912 O   0  0  0  0  0  0  0  0  0  0  0  0
   -4.8980    3.4469   10.4373 H   0  0  0  0  0  0  0  0  0  0  0  0
  1  4  2  0  0  0
  1  9  1  0  0  0
  1  5  1  0  0  0
  2  3  2  0  0  0
  2 14  1  0  0  0
  2  5  1  0  0  0
 12 13  1  0  0  0
 12 14  1  0  0  0
 12 15  2  0  0  0
  6  9  1  0  0  0
  3  4  1  0  0  0
  7  9  2  0  0  0
  8  9  2  0  0  0
  6 10  1  0  0  0
  6 11  1  0  0  0
 14 16  1  0  0  0
M  END
> <minimizedAffinity>
-5.85609

$$$$
1YDA_AZM_A_264


 16 16  0  0  0  0  0  0  0  0999 V2000
   -3.4308    3.3269   13.2598 C   0  0  0  0  0  0  0  0  0  0  0  0
   -4.8773    2.4647   14.7827 C   0  0  0  0  0  0  0  0  0  0  0  0
   -4.7116    1.6192   13.8267 N   0  0  0  0  0  0  0  0  0  0  0  0
   -3.8341    2.1396   12.9144 N   0  0  0  0  0  0  0  0  0  0  0  0
   -4.0694    3.9679   14.6860 S   0  0  0  0  0  0  0  0  0  0  0  0
   -1.6626    5.4067   13.0483 N   0  0  0  0  0  0  0  0  0  0  0  0
   -1.1350    3.1546   12.3279 O   0  0  0  0  0  0  0  0  0  0  0  0
   -2.2662    4.1665   10.7525 O   0  0  0  0  0  0  0  0  0  0  0  0
   -2.2193    4.1322   12.2426 S   0  0  0  0  0  0  0  0  0  0  0  0
   -1.6991    5.2182   14.0500 H   0  0  0  0  0  0  0  0  0  0  0  0
   -2.2375    6.2217   12.8345 H   0  0  0  0  0  0  0  0  0  0  0  0
   -5.0571    1.1785   16.6875 C   0  0  0  0  0  0  0  0  0  0  0  0
   -5.9486    0.6673   17.8170 C   0  0  0  0  0  0  0  0  0  0  0  0
   -5.5989    2.0220   15.7808 N   0  0  0  0  0  0  0  0  0  0  0  0
   -3.8906    0.7861   16.6541 O   0  0  0  0  0  0  0  0  0  0  0  0
   -6.5378    2.3038   15.8713 H   0  0  0  0  0  0  0  0  0  0  0  0
  1  4  2  0  0  0
  1  9  1  0  0  0
  1  5  1  0  0  0
  2  3  2  0  0  0
  2 14  1  0  0  0
  2  5  1  0  0  0
 12 13  1  0  0  0
 12 14  1  0  0  0
 12 15  2  0  0  0
  6  9  1  0  0  0
  3  4  1  0  0  0
  7  9  2  0  0  0
  8  9  2  0  0  0
  6 10  1  0  0  0
  6 11  1  0  0  0
 14 16  1  0  0  0
M  END
> <minimizedAffinity>
-5.84261

$$$$
1YDA_AZM_A_264


 16 16  0  0  0  0  0  0  0  0999 V2000
   -4.7726    2.9893   15.3140 C   0  0  0  0  0  0  0  0  0  0  0  0
   -4.8224    5.1255   14.5466 C   0  0  0  0  0  0  0  0  0  0  0  0
   -3.6104    4.6936   14.5249 N   0  0  0  0  0  0  0  0  0  0  0  0
   -3.5854    3.4036   14.9818 N   0  0  0  0  0  0  0  0  0  0  0  0
   -6.0422    4.0912   15.1499 S   0  0  0  0  0  0  0  0  0  0  0  0
   -4.6458    0.3497   14.5973 N   0  0  0  0  0  0  0  0  0  0  0  0
   -3.7692    1.1856   16.6954 O   0  0  0  0  0  0  0  0  0  0  0  0
   -5.9235    0.8621   16.8946 O   0  0  0  0  0  0  0  0  0  0  0  0
   -4.9565    1.3071   15.8503 S   0  0  0  0  0  0  0  0  0  0  0  0
   -3.9685    0.8022   13.9833 H   0  0  0  0  0  0  0  0  0  0  0  0
   -5.5081    0.1741   14.0815 H   0  0  0  0  0  0  0  0  0  0  0  0
   -5.2573    6.4215   12.6901 C   0  0  0  0  0  0  0  0  0  0  0  0
   -5.4127    7.8238   12.1061 C   0  0  0  0  0  0  0  0  0  0  0  0
   -4.9877    6.3076   14.0098 N   0  0  0  0  0  0  0  0  0  0  0  0
   -5.3745    5.4642   11.9248 O   0  0  0  0  0  0  0  0  0  0  0  0
   -4.9156    7.1153   14.5681 H   0  0  0  0  0  0  0  0  0  0  0  0
  1  4  2  0  0  0
  1  9  1  0  0  0
  1  5  1  0  0  0
  2  3  2  0  0  0
  2 14  1  0  0  0
  2  5  1  0  0  0
 12 13  1  0  0  0
 12 14  1  0  0  0
 12 15  2  0  0  0
  6  9  1  0  0  0
  3  4  1  0  0  0
  7  9  2  0  0  0
  8  9  2  0  0  0
  6 10  1  0  0  0
  6 11  1  0  0  0
 14 16  1  0  0  0
M  END
> <minimizedAffinity>
-5.77056

$$$$
1YDA_AZM_A_264


 16 16  0  0  0  0  0  0  0  0999 V2000
   -4.9710    2.6948   14.7424 C   0  0  0  0  0  0  0  0  0  0  0  0
   -4.9879    4.7383   13.7531 C   0  0  0  0  0  0  0  0  0  0  0  0
   -5.6357    4.7975   14.8635 N   0  0  0  0  0  0  0  0  0  0  0  0
   -5.6176    3.5658   15.4600 N   0  0  0  0  0  0  0  0  0  0  0  0
   -4.3404    3.2318   13.2704 S   0  0  0  0  0  0  0  0  0  0  0  0
   -3.7381    1.1371   16.6268 N   0  0  0  0  0  0  0  0  0  0  0  0
   -6.0707    0.8757   16.0269 O   0  0  0  0  0  0  0  0  0  0  0  0
   -4.8309   -0.1859   14.5705 O   0  0  0  0  0  0  0  0  0  0  0  0
   -4.7652    1.0561   15.3932 S   0  0  0  0  0  0  0  0  0  0  0  0
   -3.8208    2.0477   17.0789 H   0  0  0  0  0  0  0  0  0  0  0  0
   -2.7853    1.0127   16.2847 H   0  0  0  0  0  0  0  0  0  0  0  0
   -3.6915    6.5989   13.3378 C   0  0  0  0  0  0  0  0  0  0  0  0
   -3.5660    7.9518   12.6408 C   0  0  0  0  0  0  0  0  0  0  0  0
   -4.8285    5.8912   13.1547 N   0  0  0  0  0  0  0  0  0  0  0  0
   -2.7527    6.2262   14.0419 O   0  0  0  0  0  0  0  0  0  0  0  0
   -5.5380    6.2438   12.5703 H   0  0  0  0  0  0  0  0  0  0  0  0
  1  4  2  0  0  0
  1  9  1  0  0  0
  1  5  1  0  0  0
  2  3  2  0  0  0
  2 14  1  0  0  0
  2  5  1  0  0  0
 12 13  1  0  0  0
 12 14  1  0  0  0
 12 15  2  0  0  0
  6  9  1  0  0  0
  3  4  1  0  0  0
  7  9  2  0  0  0
  8  9  2  0  0  0
  6 10  1  0  0  0
  6 11  1  0  0  0
 14 16  1  0  0  0
M  END
> <minimizedAffinity>
-5.59337

$$$$
