4NP2_2L1_A_201


 18 20  0  0  0  0  0  0  0  0999 V2000
    8.8281   -4.1699   -1.2149 C   0  0  0  0  0  0  0  0  0  0  0  0
    9.7870   -3.6729   -2.3345 C   0  0  0  0  0  0  0  0  0  0  0  0
   11.1383   -3.6098   -1.8589 C   0  0  0  0  0  0  0  0  0  0  0  0
   12.0834   -2.9324   -2.6556 C   0  0  0  0  0  0  0  0  0  0  0  0
   13.4251   -2.8484   -2.2574 C   0  0  0  0  0  0  0  0  0  0  0  0
   13.8356   -3.4280   -1.0585 C   0  0  0  0  0  0  0  0  0  0  0  0
   12.9068   -4.1010   -0.2458 C   0  0  0  0  0  0  0  0  0  0  0  0
   11.5589   -4.2111   -0.6387 C   0  0  0  0  0  0  0  0  0  0  0  0
   10.6554   -4.9076    0.2288 C   0  0  0  0  0  0  0  0  0  0  0  0
    9.4172   -5.3232   -0.4822 N   0  0  0  0  0  0  0  0  0  0  0  0
    8.4245   -5.9017    0.4540 C   0  0  0  0  0  0  0  0  0  0  0  0
    7.7814   -7.1807   -0.1306 C   0  0  0  0  0  0  0  0  0  0  0  0
    7.8365   -7.5611   -1.4032 N   0  0  0  0  0  0  0  0  0  0  0  0
    7.1441   -8.7079   -1.5091 C   0  0  0  0  0  0  0  0  0  0  0  0
    6.6645   -9.0376   -0.2961 N   0  0  0  0  0  0  0  0  0  0  0  0
    7.0597   -8.0813    0.5415 C   0  0  0  0  0  0  0  0  0  0  0  0
    6.7320   -8.0407    2.0351 C   0  0  0  0  0  0  0  0  0  0  0  0
    8.2992   -7.0897   -2.1332 H   0  0  0  0  0  0  0  0  0  0  0  0
  5  6  2  0  0  0
  5  4  1  0  0  0
  6  7  1  0  0  0
  4  3  2  0  0  0
  7  8  2  0  0  0
  3  8  1  0  0  0
  3  2  1  0  0  0
  8  9  1  0  0  0
  2  1  1  0  0  0
  9 10  1  0  0  0
  1 10  1  0  0  0
 10 11  1  0  0  0
 11 12  1  0  0  0
 17 16  1  0  0  0
 12 16  2  0  0  0
 12 13  1  0  0  0
 16 15  1  0  0  0
 13 14  1  0  0  0
 15 14  2  0  0  0
 13 18  1  0  0  0
M  END
> <minimizedAffinity>
-6.18398

$$$$
4NP2_2L1_A_201


 18 20  0  0  0  0  0  0  0  0999 V2000
   13.3111   -2.9217   -2.3022 C   0  0  0  0  0  0  0  0  0  0  0  0
   11.8036   -2.8296   -2.6750 C   0  0  0  0  0  0  0  0  0  0  0  0
   11.0266   -3.7442   -1.8901 C   0  0  0  0  0  0  0  0  0  0  0  0
    9.6934   -3.9780   -2.2836 C   0  0  0  0  0  0  0  0  0  0  0  0
    8.8736   -4.8473   -1.5503 C   0  0  0  0  0  0  0  0  0  0  0  0
    9.3761   -5.4996   -0.4260 C   0  0  0  0  0  0  0  0  0  0  0  0
   10.7055   -5.2861   -0.0220 C   0  0  0  0  0  0  0  0  0  0  0  0
   11.5378   -4.4024   -0.7356 C   0  0  0  0  0  0  0  0  0  0  0  0
   12.8845   -4.2231   -0.2794 C   0  0  0  0  0  0  0  0  0  0  0  0
   13.4922   -2.9810   -0.8265 N   0  0  0  0  0  0  0  0  0  0  0  0
   14.9296   -2.8838   -0.4784 C   0  0  0  0  0  0  0  0  0  0  0  0
   15.3073   -1.4458   -0.0531 C   0  0  0  0  0  0  0  0  0  0  0  0
   15.2835   -0.3754   -0.8412 N   0  0  0  0  0  0  0  0  0  0  0  0
   15.6953    0.6721   -0.1071 C   0  0  0  0  0  0  0  0  0  0  0  0
   15.9696    0.2461    1.1393 N   0  0  0  0  0  0  0  0  0  0  0  0
   15.7328   -1.0638    1.1538 C   0  0  0  0  0  0  0  0  0  0  0  0
   15.9205   -1.9701    2.3717 C   0  0  0  0  0  0  0  0  0  0  0  0
   15.0139   -0.3541   -1.7878 H   0  0  0  0  0  0  0  0  0  0  0  0
  5  6  2  0  0  0
  5  4  1  0  0  0
  6  7  1  0  0  0
  4  3  2  0  0  0
  7  8  2  0  0  0
  3  8  1  0  0  0
  3  2  1  0  0  0
  8  9  1  0  0  0
  2  1  1  0  0  0
  9 10  1  0  0  0
  1 10  1  0  0  0
 10 11  1  0  0  0
 11 12  1  0  0  0
 17 16  1  0  0  0
 12 16  2  0  0  0
 12 13  1  0  0  0
 16 15  1  0  0  0
 13 14  1  0  0  0
 15 14  2  0  0  0
 13 18  1  0  0  0
M  END
> <minimizedAffinity>
-6.15238

$$$$
4NP2_2L1_A_201


 18 20  0  0  0  0  0  0  0  0999 V2000
    8.8219   -4.1327   -1.2398 C   0  0  0  0  0  0  0  0  0  0  0  0
    9.8049   -3.6692   -2.3529 C   0  0  0  0  0  0  0  0  0  0  0  0
   11.1498   -3.6187   -1.8581 C   0  0  0  0  0  0  0  0  0  0  0  0
   12.1169   -2.9692   -2.6515 C   0  0  0  0  0  0  0  0  0  0  0  0
   13.4537   -2.8990   -2.2346 C   0  0  0  0  0  0  0  0  0  0  0  0
   13.8374   -3.4647   -1.0203 C   0  0  0  0  0  0  0  0  0  0  0  0
   12.8863   -4.1097   -0.2107 C   0  0  0  0  0  0  0  0  0  0  0  0
   11.5429   -4.2059   -0.6219 C   0  0  0  0  0  0  0  0  0  0  0  0
   10.6159   -4.8739    0.2432 C   0  0  0  0  0  0  0  0  0  0  0  0
    9.3821   -5.2825   -0.4795 N   0  0  0  0  0  0  0  0  0  0  0  0
    8.3669   -5.8300    0.4511 C   0  0  0  0  0  0  0  0  0  0  0  0
    9.0016   -6.8236    1.4518 C   0  0  0  0  0  0  0  0  0  0  0  0
    9.3003   -6.5585    2.7198 N   0  0  0  0  0  0  0  0  0  0  0  0
    9.8482   -7.6683    3.2430 C   0  0  0  0  0  0  0  0  0  0  0  0
    9.8830   -8.6223    2.2949 N   0  0  0  0  0  0  0  0  0  0  0  0
    9.3644   -8.0827    1.1938 C   0  0  0  0  0  0  0  0  0  0  0  0
    9.2130   -8.8081   -0.1443 C   0  0  0  0  0  0  0  0  0  0  0  0
    9.1482   -5.7064    3.1889 H   0  0  0  0  0  0  0  0  0  0  0  0
  5  6  2  0  0  0
  5  4  1  0  0  0
  6  7  1  0  0  0
  4  3  2  0  0  0
  7  8  2  0  0  0
  3  8  1  0  0  0
  3  2  1  0  0  0
  8  9  1  0  0  0
  2  1  1  0  0  0
  9 10  1  0  0  0
  1 10  1  0  0  0
 10 11  1  0  0  0
 11 12  1  0  0  0
 17 16  1  0  0  0
 12 16  2  0  0  0
 12 13  1  0  0  0
 16 15  1  0  0  0
 13 14  1  0  0  0
 15 14  2  0  0  0
 13 18  1  0  0  0
M  END
> <minimizedAffinity>
-5.97628

$$$$
4NP2_2L1_A_201


 18 20  0  0  0  0  0  0  0  0999 V2000
   10.7901   -6.3959    1.3959 C   0  0  0  0  0  0  0  0  0  0  0  0
   11.7647   -5.3779    0.7372 C   0  0  0  0  0  0  0  0  0  0  0  0
   11.1335   -4.7021   -0.3587 C   0  0  0  0  0  0  0  0  0  0  0  0
   11.9521   -3.9487   -1.2242 C   0  0  0  0  0  0  0  0  0  0  0  0
   11.3968   -3.2495   -2.3051 C   0  0  0  0  0  0  0  0  0  0  0  0
   10.0243   -3.3027   -2.5406 C   0  0  0  0  0  0  0  0  0  0  0  0
    9.1920   -4.0551   -1.6938 C   0  0  0  0  0  0  0  0  0  0  0  0
    9.7297   -4.7488   -0.5926 C   0  0  0  0  0  0  0  0  0  0  0  0
    8.8349   -5.5005    0.2370 C   0  0  0  0  0  0  0  0  0  0  0  0
    9.4351   -5.8042    1.5633 N   0  0  0  0  0  0  0  0  0  0  0  0
    8.5695   -6.7114    2.3533 C   0  0  0  0  0  0  0  0  0  0  0  0
    7.6814   -7.5811    1.4333 C   0  0  0  0  0  0  0  0  0  0  0  0
    6.4678   -7.2561    0.9986 N   0  0  0  0  0  0  0  0  0  0  0  0
    6.0256   -8.2765    0.2443 C   0  0  0  0  0  0  0  0  0  0  0  0
    6.9724   -9.2319    0.2106 N   0  0  0  0  0  0  0  0  0  0  0  0
    7.9839   -8.7909    0.9554 C   0  0  0  0  0  0  0  0  0  0  0  0
    9.2809   -9.5614    1.2081 C   0  0  0  0  0  0  0  0  0  0  0  0
    5.9826   -6.4219    1.1934 H   0  0  0  0  0  0  0  0  0  0  0  0
  5  6  2  0  0  0
  5  4  1  0  0  0
  6  7  1  0  0  0
  4  3  2  0  0  0
  7  8  2  0  0  0
  3  8  1  0  0  0
  3  2  1  0  0  0
  8  9  1  0  0  0
  2  1  1  0  0  0
  9 10  1  0  0  0
  1 10  1  0  0  0
 10 11  1  0  0  0
 11 12  1  0  0  0
 17 16  1  0  0  0
 12 16  2  0  0  0
 12 13  1  0  0  0
 16 15  1  0  0  0
 13 14  1  0  0  0
 15 14  2  0  0  0
 13 18  1  0  0  0
M  END
> <minimizedAffinity>
-5.89098

$$$$
4NP2_2L1_A_201


 18 20  0  0  0  0  0  0  0  0999 V2000
    8.1256   -5.6180    0.4480 C   0  0  0  0  0  0  0  0  0  0  0  0
    7.6331   -6.9917    0.9870 C   0  0  0  0  0  0  0  0  0  0  0  0
    7.3092   -7.8777   -0.0929 C   0  0  0  0  0  0  0  0  0  0  0  0
    6.6017   -9.0572    0.2158 C   0  0  0  0  0  0  0  0  0  0  0  0
    6.2685   -9.9749   -0.7904 C   0  0  0  0  0  0  0  0  0  0  0  0
    6.6265   -9.7220   -2.1132 C   0  0  0  0  0  0  0  0  0  0  0  0
    7.3251   -8.5476   -2.4427 C   0  0  0  0  0  0  0  0  0  0  0  0
    7.6844   -7.6234   -1.4427 C   0  0  0  0  0  0  0  0  0  0  0  0
    8.3955   -6.4428   -1.8355 C   0  0  0  0  0  0  0  0  0  0  0  0
    9.0774   -5.7992   -0.6813 N   0  0  0  0  0  0  0  0  0  0  0  0
    9.6777   -4.4993   -1.0643 C   0  0  0  0  0  0  0  0  0  0  0  0
   11.1389   -4.3893   -0.5703 C   0  0  0  0  0  0  0  0  0  0  0  0
   11.6084   -4.8847    0.5705 N   0  0  0  0  0  0  0  0  0  0  0  0
   12.9117   -4.5647    0.6402 C   0  0  0  0  0  0  0  0  0  0  0  0
   13.2473   -3.8732   -0.4641 N   0  0  0  0  0  0  0  0  0  0  0  0
   12.1408   -3.7668   -1.1967 C   0  0  0  0  0  0  0  0  0  0  0  0
   12.0526   -3.0452   -2.5425 C   0  0  0  0  0  0  0  0  0  0  0  0
   11.0960   -5.3924    1.2405 H   0  0  0  0  0  0  0  0  0  0  0  0
  5  6  2  0  0  0
  5  4  1  0  0  0
  6  7  1  0  0  0
  4  3  2  0  0  0
  7  8  2  0  0  0
  3  8  1  0  0  0
  3  2  1  0  0  0
  8  9  1  0  0  0
  2  1  1  0  0  0
  9 10  1  0  0  0
  1 10  1  0  0  0
 10 11  1  0  0  0
 11 12  1  0  0  0
 17 16  1  0  0  0
 12 16  2  0  0  0
 12 13  1  0  0  0
 16 15  1  0  0  0
 13 14  1  0  0  0
 15 14  2  0  0  0
 13 18  1  0  0  0
M  END
> <minimizedAffinity>
-5.85711

$$$$
4NP2_2L1_A_201


 18 20  0  0  0  0  0  0  0  0999 V2000
    8.2396   -4.7004    0.1574 C   0  0  0  0  0  0  0  0  0  0  0  0
    8.5895   -4.1365   -1.2496 C   0  0  0  0  0  0  0  0  0  0  0  0
    9.9988   -3.9006   -1.3693 C   0  0  0  0  0  0  0  0  0  0  0  0
   10.4466   -3.1476   -2.4735 C   0  0  0  0  0  0  0  0  0  0  0  0
   11.8130   -2.8948   -2.6596 C   0  0  0  0  0  0  0  0  0  0  0  0
   12.7443   -3.3795   -1.7433 C   0  0  0  0  0  0  0  0  0  0  0  0
   12.3172   -4.1256   -0.6311 C   0  0  0  0  0  0  0  0  0  0  0  0
   10.9505   -4.4049   -0.4380 C   0  0  0  0  0  0  0  0  0  0  0  0
   10.5716   -5.1694    0.7135 C   0  0  0  0  0  0  0  0  0  0  0  0
    9.2107   -5.7507    0.5669 N   0  0  0  0  0  0  0  0  0  0  0  0
    8.7650   -6.4060    1.8194 C   0  0  0  0  0  0  0  0  0  0  0  0
    8.2191   -7.8266    1.5454 C   0  0  0  0  0  0  0  0  0  0  0  0
    6.9480   -8.1331    1.3053 N   0  0  0  0  0  0  0  0  0  0  0  0
    6.8815   -9.4646    1.1372 C   0  0  0  0  0  0  0  0  0  0  0  0
    8.1173   -9.9799    1.2698 N   0  0  0  0  0  0  0  0  0  0  0  0
    8.9295   -8.9574    1.5292 C   0  0  0  0  0  0  0  0  0  0  0  0
   10.4360   -9.0789    1.7645 C   0  0  0  0  0  0  0  0  0  0  0  0
    6.1945   -7.5011    1.2591 H   0  0  0  0  0  0  0  0  0  0  0  0
  5  6  2  0  0  0
  5  4  1  0  0  0
  6  7  1  0  0  0
  4  3  2  0  0  0
  7  8  2  0  0  0
  3  8  1  0  0  0
  3  2  1  0  0  0
  8  9  1  0  0  0
  2  1  1  0  0  0
  9 10  1  0  0  0
  1 10  1  0  0  0
 10 11  1  0  0  0
 11 12  1  0  0  0
 17 16  1  0  0  0
 12 16  2  0  0  0
 12 13  1  0  0  0
 16 15  1  0  0  0
 13 14  1  0  0  0
 15 14  2  0  0  0
 13 18  1  0  0  0
M  END
> <minimizedAffinity>
-5.81013

$$$$
4NP2_2L1_A_201


 18 20  0  0  0  0  0  0  0  0999 V2000
    8.9395   -6.6258    2.3859 C   0  0  0  0  0  0  0  0  0  0  0  0
    9.1496   -8.1603    2.5321 C   0  0  0  0  0  0  0  0  0  0  0  0
    8.2024   -8.8837    1.7347 C   0  0  0  0  0  0  0  0  0  0  0  0
    8.0816  -10.2705    1.9564 C   0  0  0  0  0  0  0  0  0  0  0  0
    7.1869  -11.0402    1.1995 C   0  0  0  0  0  0  0  0  0  0  0  0
    6.3974  -10.4353    0.2236 C   0  0  0  0  0  0  0  0  0  0  0  0
    6.4971   -9.0522   -0.0072 C   0  0  0  0  0  0  0  0  0  0  0  0
    7.4034   -8.2665    0.7307 C   0  0  0  0  0  0  0  0  0  0  0  0
    7.4630   -6.8616    0.4542 C   0  0  0  0  0  0  0  0  0  0  0  0
    8.7202   -6.2515    0.9627 N   0  0  0  0  0  0  0  0  0  0  0  0
    8.7045   -4.7770    0.8131 C   0  0  0  0  0  0  0  0  0  0  0  0
    9.4572   -4.3349   -0.4633 C   0  0  0  0  0  0  0  0  0  0  0  0
    8.8920   -3.8554   -1.5669 N   0  0  0  0  0  0  0  0  0  0  0  0
    9.8770   -3.6078   -2.4468 C   0  0  0  0  0  0  0  0  0  0  0  0
   11.0541   -3.9319   -1.8813 N   0  0  0  0  0  0  0  0  0  0  0  0
   10.7771   -4.3862   -0.6610 C   0  0  0  0  0  0  0  0  0  0  0  0
   11.8202   -4.8805    0.3426 C   0  0  0  0  0  0  0  0  0  0  0  0
    7.9294   -3.7087   -1.7126 H   0  0  0  0  0  0  0  0  0  0  0  0
  5  6  2  0  0  0
  5  4  1  0  0  0
  6  7  1  0  0  0
  4  3  2  0  0  0
  7  8  2  0  0  0
  3  8  1  0  0  0
  3  2  1  0  0  0
  8  9  1  0  0  0
  2  1  1  0  0  0
  9 10  1  0  0  0
  1 10  1  0  0  0
 10 11  1  0  0  0
 11 12  1  0  0  0
 17 16  1  0  0  0
 12 16  2  0  0  0
 12 13  1  0  0  0
 16 15  1  0  0  0
 13 14  1  0  0  0
 15 14  2  0  0  0
 13 18  1  0  0  0
M  END
> <minimizedAffinity>
-5.64901

$$$$
4NP2_2L1_A_201


 18 20  0  0  0  0  0  0  0  0999 V2000
    6.7544   -7.9297    1.5747 C   0  0  0  0  0  0  0  0  0  0  0  0
    6.3239   -8.9780    0.5090 C   0  0  0  0  0  0  0  0  0  0  0  0
    6.7131   -8.5590   -0.8060 C   0  0  0  0  0  0  0  0  0  0  0  0
    6.1703   -9.2562   -1.9043 C   0  0  0  0  0  0  0  0  0  0  0  0
    6.5225   -8.9089   -3.2162 C   0  0  0  0  0  0  0  0  0  0  0  0
    7.4088   -7.8587   -3.4470 C   0  0  0  0  0  0  0  0  0  0  0  0
    7.9547   -7.1458   -2.3654 C   0  0  0  0  0  0  0  0  0  0  0  0
    7.6267   -7.4924   -1.0405 C   0  0  0  0  0  0  0  0  0  0  0  0
    8.2121   -6.7312    0.0235 C   0  0  0  0  0  0  0  0  0  0  0  0
    8.1408   -7.4521    1.3222 N   0  0  0  0  0  0  0  0  0  0  0  0
    8.6042   -6.5974    2.4409 C   0  0  0  0  0  0  0  0  0  0  0  0
   10.0815   -6.8882    2.7938 C   0  0  0  0  0  0  0  0  0  0  0  0
   11.1012   -6.0588    2.5949 N   0  0  0  0  0  0  0  0  0  0  0  0
   12.2141   -6.6839    3.0150 C   0  0  0  0  0  0  0  0  0  0  0  0
   11.8780   -7.9014    3.4786 N   0  0  0  0  0  0  0  0  0  0  0  0
   10.5601   -8.0148    3.3278 C   0  0  0  0  0  0  0  0  0  0  0  0
    9.7414   -9.2475    3.7150 C   0  0  0  0  0  0  0  0  0  0  0  0
   11.0504   -5.1537    2.2108 H   0  0  0  0  0  0  0  0  0  0  0  0
  5  6  2  0  0  0
  5  4  1  0  0  0
  6  7  1  0  0  0
  4  3  2  0  0  0
  7  8  2  0  0  0
  3  8  1  0  0  0
  3  2  1  0  0  0
  8  9  1  0  0  0
  2  1  1  0  0  0
  9 10  1  0  0  0
  1 10  1  0  0  0
 10 11  1  0  0  0
 11 12  1  0  0  0
 17 16  1  0  0  0
 12 16  2  0  0  0
 12 13  1  0  0  0
 16 15  1  0  0  0
 13 14  1  0  0  0
 15 14  2  0  0  0
 13 18  1  0  0  0
M  END
> <minimizedAffinity>
-5.12427

$$$$
4NP2_2L1_A_201


 18 20  0  0  0  0  0  0  0  0999 V2000
    7.1837   -8.6714   -0.3797 C   0  0  0  0  0  0  0  0  0  0  0  0
    7.8810   -7.8515   -1.5030 C   0  0  0  0  0  0  0  0  0  0  0  0
    8.2094   -6.5332   -1.0443 C   0  0  0  0  0  0  0  0  0  0  0  0
    8.5997   -5.5814   -2.0080 C   0  0  0  0  0  0  0  0  0  0  0  0
    8.9506   -4.2791   -1.6252 C   0  0  0  0  0  0  0  0  0  0  0  0
    8.9057   -3.9095   -0.2824 C   0  0  0  0  0  0  0  0  0  0  0  0
    8.5111   -4.8417    0.6930 C   0  0  0  0  0  0  0  0  0  0  0  0
    8.1729   -6.1594    0.3291 C   0  0  0  0  0  0  0  0  0  0  0  0
    7.7773   -7.0676    1.3647 C   0  0  0  0  0  0  0  0  0  0  0  0
    7.8760   -8.4845    0.9240 N   0  0  0  0  0  0  0  0  0  0  0  0
    7.3189   -9.4071    1.9414 C   0  0  0  0  0  0  0  0  0  0  0  0
    8.2105  -10.6591    2.1111 C   0  0  0  0  0  0  0  0  0  0  0  0
    9.3999  -10.6861    2.7042 N   0  0  0  0  0  0  0  0  0  0  0  0
    9.8558  -11.9481    2.6310 C   0  0  0  0  0  0  0  0  0  0  0  0
    8.9415  -12.7024    1.9943 N   0  0  0  0  0  0  0  0  0  0  0  0
    7.9364  -11.8906    1.6731 C   0  0  0  0  0  0  0  0  0  0  0  0
    6.6738  -12.3207    0.9244 C   0  0  0  0  0  0  0  0  0  0  0  0
    9.8616   -9.9226    3.1203 H   0  0  0  0  0  0  0  0  0  0  0  0
  5  6  2  0  0  0
  5  4  1  0  0  0
  6  7  1  0  0  0
  4  3  2  0  0  0
  7  8  2  0  0  0
  3  8  1  0  0  0
  3  2  1  0  0  0
  8  9  1  0  0  0
  2  1  1  0  0  0
  9 10  1  0  0  0
  1 10  1  0  0  0
 10 11  1  0  0  0
 11 12  1  0  0  0
 17 16  1  0  0  0
 12 16  2  0  0  0
 12 13  1  0  0  0
 16 15  1  0  0  0
 13 14  1  0  0  0
 15 14  2  0  0  0
 13 18  1  0  0  0
M  END
> <minimizedAffinity>
-4.98696

$$$$
4NP2_2L1_A_201


 18 20  0  0  0  0  0  0  0  0999 V2000
    7.0189   -8.5731   -1.0693 C   0  0  0  0  0  0  0  0  0  0  0  0
    7.8349   -7.6047   -1.9729 C   0  0  0  0  0  0  0  0  0  0  0  0
    8.2211   -6.4309   -1.2454 C   0  0  0  0  0  0  0  0  0  0  0  0
    8.7306   -5.3414   -1.9805 C   0  0  0  0  0  0  0  0  0  0  0  0
    9.1427   -4.1700   -1.3295 C   0  0  0  0  0  0  0  0  0  0  0  0
    9.0415   -4.0685    0.0566 C   0  0  0  0  0  0  0  0  0  0  0  0
    8.5284   -5.1408    0.8069 C   0  0  0  0  0  0  0  0  0  0  0  0
    8.1268   -6.3319    0.1719 C   0  0  0  0  0  0  0  0  0  0  0  0
    7.6107   -7.3926    0.9858 C   0  0  0  0  0  0  0  0  0  0  0  0
    7.6423   -8.6989    0.2759 N   0  0  0  0  0  0  0  0  0  0  0  0
    6.9654   -9.7576    1.0617 C   0  0  0  0  0  0  0  0  0  0  0  0
    6.9154  -11.0908    0.2798 C   0  0  0  0  0  0  0  0  0  0  0  0
    5.8270  -11.6288   -0.2618 N   0  0  0  0  0  0  0  0  0  0  0  0
    6.1947  -12.7882   -0.8331 C   0  0  0  0  0  0  0  0  0  0  0  0
    7.5157  -12.9629   -0.6466 N   0  0  0  0  0  0  0  0  0  0  0  0
    7.9437  -11.9111    0.0483 C   0  0  0  0  0  0  0  0  0  0  0  0
    9.3895  -11.6930    0.4976 C   0  0  0  0  0  0  0  0  0  0  0  0
    4.9193  -11.2481   -0.2470 H   0  0  0  0  0  0  0  0  0  0  0  0
  5  6  2  0  0  0
  5  4  1  0  0  0
  6  7  1  0  0  0
  4  3  2  0  0  0
  7  8  2  0  0  0
  3  8  1  0  0  0
  3  2  1  0  0  0
  8  9  1  0  0  0
  2  1  1  0  0  0
  9 10  1  0  0  0
  1 10  1  0  0  0
 10 11  1  0  0  0
 11 12  1  0  0  0
 17 16  1  0  0  0
 12 16  2  0  0  0
 12 13  1  0  0  0
 16 15  1  0  0  0
 13 14  1  0  0  0
 15 14  2  0  0  0
 13 18  1  0  0  0
M  END
> <minimizedAffinity>
-4.97327

$$$$
