4ABD_SW2_A_1252


 15 16  0  0  0  0  0  0  0  0999 V2000
    1.6377  -15.0057   17.1604 C   0  0  0  0  0  0  0  0  0  0  0  0
    0.9907  -15.6030   16.1027 C   0  0  0  0  0  0  0  0  0  0  0  0
    0.9534  -15.0435   14.8475 C   0  0  0  0  0  0  0  0  0  0  0  0
    1.5362  -13.7912   14.6048 C   0  0  0  0  0  0  0  0  0  0  0  0
    2.1764  -13.1962   15.6638 C   0  0  0  0  0  0  0  0  0  0  0  0
    2.2703  -13.7972   16.8947 C   0  0  0  0  0  0  0  0  0  0  0  0
    2.8426  -11.9547   15.3599 N   0  0  0  0  0  0  0  0  0  0  0  0
    3.9193  -11.4040   16.0030 C   0  0  0  0  0  0  0  0  0  0  0  0
    4.3229  -10.2203   15.3973 C   0  0  0  0  0  0  0  0  0  0  0  0
    3.3722  -10.1377   14.3546 C   0  0  0  0  0  0  0  0  0  0  0  0
    2.4347  -11.1286   14.3359 C   0  0  0  0  0  0  0  0  0  0  0  0
    1.8019  -15.8117   18.4251 C   0  0  0  0  0  0  0  0  0  0  0  0
    3.0209  -15.4119   19.1767 N   0  0  0  0  0  0  0  0  0  0  0  0
    2.9481  -14.4307   19.4454 H   0  0  0  0  0  0  0  0  0  0  0  0
    3.8424  -15.5428   18.5865 H   0  0  0  0  0  0  0  0  0  0  0  0
 12 13  1  0  0  0
 12  1  1  0  0  0
  1  2  2  0  0  0
  1  6  1  0  0  0
  7  5  1  0  0  0
  7  8  1  0  0  0
  7 11  1  0  0  0
  2  3  1  0  0  0
  3  4  2  0  0  0
  4  5  1  0  0  0
  5  6  2  0  0  0
  8  9  2  0  0  0
  9 10  1  0  0  0
 10 11  2  0  0  0
 13 14  1  0  0  0
 13 15  1  0  0  0
M  END
> <minimizedAffinity>
-5.93687

$$$$
4ABD_SW2_A_1252


 15 16  0  0  0  0  0  0  0  0999 V2000
    1.8794  -14.6552   17.2707 C   0  0  0  0  0  0  0  0  0  0  0  0
    1.3610  -15.4860   16.3038 C   0  0  0  0  0  0  0  0  0  0  0  0
    1.2995  -15.1289   14.9776 C   0  0  0  0  0  0  0  0  0  0  0  0
    1.7191  -13.8580   14.5587 C   0  0  0  0  0  0  0  0  0  0  0  0
    2.2309  -13.0301   15.5271 C   0  0  0  0  0  0  0  0  0  0  0  0
    2.3550  -13.4236   16.8367 C   0  0  0  0  0  0  0  0  0  0  0  0
    2.7369  -11.7673   15.0510 N   0  0  0  0  0  0  0  0  0  0  0  0
    2.3245  -11.0617   13.9518 C   0  0  0  0  0  0  0  0  0  0  0  0
    3.0085   -9.8579   13.8339 C   0  0  0  0  0  0  0  0  0  0  0  0
    3.8580   -9.9432   14.9603 C   0  0  0  0  0  0  0  0  0  0  0  0
    3.7638  -11.0984   15.6799 C   0  0  0  0  0  0  0  0  0  0  0  0
    2.0990  -15.2346   18.6462 C   0  0  0  0  0  0  0  0  0  0  0  0
    2.0985  -16.7212   18.6224 N   0  0  0  0  0  0  0  0  0  0  0  0
    2.8565  -17.0520   18.0254 H   0  0  0  0  0  0  0  0  0  0  0  0
    1.2069  -17.0551   18.2562 H   0  0  0  0  0  0  0  0  0  0  0  0
 12 13  1  0  0  0
 12  1  1  0  0  0
  1  2  2  0  0  0
  1  6  1  0  0  0
  7  5  1  0  0  0
  7  8  1  0  0  0
  7 11  1  0  0  0
  2  3  1  0  0  0
  3  4  2  0  0  0
  4  5  1  0  0  0
  5  6  2  0  0  0
  8  9  2  0  0  0
  9 10  1  0  0  0
 10 11  2  0  0  0
 13 14  1  0  0  0
 13 15  1  0  0  0
M  END
> <minimizedAffinity>
-5.83559

$$$$
4ABD_SW2_A_1252


 15 16  0  0  0  0  0  0  0  0999 V2000
    1.7874  -11.4719   12.8398 C   0  0  0  0  0  0  0  0  0  0  0  0
    2.5800  -10.4929   13.3941 C   0  0  0  0  0  0  0  0  0  0  0  0
    3.1060  -10.5962   14.6600 C   0  0  0  0  0  0  0  0  0  0  0  0
    2.8038  -11.6985   15.4727 C   0  0  0  0  0  0  0  0  0  0  0  0
    2.0086  -12.6707   14.9179 C   0  0  0  0  0  0  0  0  0  0  0  0
    1.5480  -12.5920   13.6267 C   0  0  0  0  0  0  0  0  0  0  0  0
    1.7911  -13.8317   15.7438 N   0  0  0  0  0  0  0  0  0  0  0  0
    2.3422  -14.1023   16.9682 C   0  0  0  0  0  0  0  0  0  0  0  0
    1.8593  -15.2959   17.4910 C   0  0  0  0  0  0  0  0  0  0  0  0
    0.9891  -15.6896   16.4491 C   0  0  0  0  0  0  0  0  0  0  0  0
    0.9661  -14.8664   15.3615 C   0  0  0  0  0  0  0  0  0  0  0  0
    1.4526  -11.3537   11.3735 C   0  0  0  0  0  0  0  0  0  0  0  0
    1.8086  -12.5896   10.6275 N   0  0  0  0  0  0  0  0  0  0  0  0
    1.2783  -13.3768   11.0010 H   0  0  0  0  0  0  0  0  0  0  0  0
    2.8068  -12.7730   10.7300 H   0  0  0  0  0  0  0  0  0  0  0  0
 12 13  1  0  0  0
 12  1  1  0  0  0
  1  2  2  0  0  0
  1  6  1  0  0  0
  7  5  1  0  0  0
  7  8  1  0  0  0
  7 11  1  0  0  0
  2  3  1  0  0  0
  3  4  2  0  0  0
  4  5  1  0  0  0
  5  6  2  0  0  0
  8  9  2  0  0  0
  9 10  1  0  0  0
 10 11  2  0  0  0
 13 14  1  0  0  0
 13 15  1  0  0  0
M  END
> <minimizedAffinity>
-5.74007

$$$$
4ABD_SW2_A_1252


 15 16  0  0  0  0  0  0  0  0999 V2000
    1.6834  -14.6388   16.9557 C   0  0  0  0  0  0  0  0  0  0  0  0
    1.1555  -15.0411   15.7501 C   0  0  0  0  0  0  0  0  0  0  0  0
    1.2610  -14.2843   14.6073 C   0  0  0  0  0  0  0  0  0  0  0  0
    1.8733  -13.0230   14.6385 C   0  0  0  0  0  0  0  0  0  0  0  0
    2.3942  -12.6228   15.8443 C   0  0  0  0  0  0  0  0  0  0  0  0
    2.3475  -13.4180   16.9627 C   0  0  0  0  0  0  0  0  0  0  0  0
    3.0961  -11.3642   15.8229 N   0  0  0  0  0  0  0  0  0  0  0  0
    3.3788  -10.5825   14.7342 C   0  0  0  0  0  0  0  0  0  0  0  0
    4.0270   -9.4103   15.1041 C   0  0  0  0  0  0  0  0  0  0  0  0
    4.0992   -9.5969   16.5032 C   0  0  0  0  0  0  0  0  0  0  0  0
    3.6035  -10.7817   16.9634 C   0  0  0  0  0  0  0  0  0  0  0  0
    1.7016  -15.6432   18.0812 C   0  0  0  0  0  0  0  0  0  0  0  0
    2.8416  -15.4100   19.0069 N   0  0  0  0  0  0  0  0  0  0  0  0
    2.7567  -14.4831   19.4240 H   0  0  0  0  0  0  0  0  0  0  0  0
    3.7181  -15.4708   18.4888 H   0  0  0  0  0  0  0  0  0  0  0  0
 12 13  1  0  0  0
 12  1  1  0  0  0
  1  2  2  0  0  0
  1  6  1  0  0  0
  7  5  1  0  0  0
  7  8  1  0  0  0
  7 11  1  0  0  0
  2  3  1  0  0  0
  3  4  2  0  0  0
  4  5  1  0  0  0
  5  6  2  0  0  0
  8  9  2  0  0  0
  9 10  1  0  0  0
 10 11  2  0  0  0
 13 14  1  0  0  0
 13 15  1  0  0  0
M  END
> <minimizedAffinity>
-5.35959

$$$$
4ABD_SW2_A_1252


 15 16  0  0  0  0  0  0  0  0999 V2000
    1.8060  -14.2873   15.7126 C   0  0  0  0  0  0  0  0  0  0  0  0
    2.7180  -13.6049   16.4850 C   0  0  0  0  0  0  0  0  0  0  0  0
    3.1695  -12.3480   16.1588 C   0  0  0  0  0  0  0  0  0  0  0  0
    2.7532  -11.7233   14.9742 C   0  0  0  0  0  0  0  0  0  0  0  0
    1.8472  -12.4095   14.2037 C   0  0  0  0  0  0  0  0  0  0  0  0
    1.3473  -13.6331   14.5755 C   0  0  0  0  0  0  0  0  0  0  0  0
    1.3700  -11.7035   13.0413 N   0  0  0  0  0  0  0  0  0  0  0  0
    1.7827  -11.8532   11.7438 C   0  0  0  0  0  0  0  0  0  0  0  0
    1.0588  -11.0377   10.8824 C   0  0  0  0  0  0  0  0  0  0  0  0
    0.2008  -10.3994   11.8066 C   0  0  0  0  0  0  0  0  0  0  0  0
    0.3977  -10.7306   13.1153 C   0  0  0  0  0  0  0  0  0  0  0  0
    1.2189  -15.5557   16.2804 C   0  0  0  0  0  0  0  0  0  0  0  0
    1.9058  -15.9658   17.5337 N   0  0  0  0  0  0  0  0  0  0  0  0
    1.7954  -15.2350   18.2366 H   0  0  0  0  0  0  0  0  0  0  0  0
    2.8979  -16.1101   17.3460 H   0  0  0  0  0  0  0  0  0  0  0  0
 12 13  1  0  0  0
 12  1  1  0  0  0
  1  2  2  0  0  0
  1  6  1  0  0  0
  7  5  1  0  0  0
  7  8  1  0  0  0
  7 11  1  0  0  0
  2  3  1  0  0  0
  3  4  2  0  0  0
  4  5  1  0  0  0
  5  6  2  0  0  0
  8  9  2  0  0  0
  9 10  1  0  0  0
 10 11  2  0  0  0
 13 14  1  0  0  0
 13 15  1  0  0  0
M  END
> <minimizedAffinity>
-5.20090

$$$$
4ABD_SW2_A_1252


 15 16  0  0  0  0  0  0  0  0999 V2000
    1.6078  -14.0925   15.8224 C   0  0  0  0  0  0  0  0  0  0  0  0
    2.5442  -13.4725   16.6178 C   0  0  0  0  0  0  0  0  0  0  0  0
    2.4948  -12.1298   16.9086 C   0  0  0  0  0  0  0  0  0  0  0  0
    1.5013  -11.3128   16.3498 C   0  0  0  0  0  0  0  0  0  0  0  0
    0.5719  -11.9341   15.5525 C   0  0  0  0  0  0  0  0  0  0  0  0
    0.5881  -13.2885   15.3272 C   0  0  0  0  0  0  0  0  0  0  0  0
   -0.4872  -11.0852   15.0677 N   0  0  0  0  0  0  0  0  0  0  0  0
   -1.1135  -11.1414   13.8508 C   0  0  0  0  0  0  0  0  0  0  0  0
   -2.1254  -10.1937   13.7552 C   0  0  0  0  0  0  0  0  0  0  0  0
   -2.0145   -9.5826   15.0248 C   0  0  0  0  0  0  0  0  0  0  0  0
   -1.0069  -10.0519   15.8158 C   0  0  0  0  0  0  0  0  0  0  0  0
    1.6355  -15.5994   15.7541 C   0  0  0  0  0  0  0  0  0  0  0  0
    0.7268  -16.2115   16.7592 N   0  0  0  0  0  0  0  0  0  0  0  0
   -0.2316  -15.9136   16.5770 H   0  0  0  0  0  0  0  0  0  0  0  0
    1.0037  -15.9129   17.6944 H   0  0  0  0  0  0  0  0  0  0  0  0
 12 13  1  0  0  0
 12  1  1  0  0  0
  1  2  2  0  0  0
  1  6  1  0  0  0
  7  5  1  0  0  0
  7  8  1  0  0  0
  7 11  1  0  0  0
  2  3  1  0  0  0
  3  4  2  0  0  0
  4  5  1  0  0  0
  5  6  2  0  0  0
  8  9  2  0  0  0
  9 10  1  0  0  0
 10 11  2  0  0  0
 13 14  1  0  0  0
 13 15  1  0  0  0
M  END
> <minimizedAffinity>
-5.01584

$$$$
4ABD_SW2_A_1252


 15 16  0  0  0  0  0  0  0  0999 V2000
    3.6342  -10.6222   15.4654 C   0  0  0  0  0  0  0  0  0  0  0  0
    3.1003  -10.2720   14.2463 C   0  0  0  0  0  0  0  0  0  0  0  0
    2.1956  -11.0643   13.5802 C   0  0  0  0  0  0  0  0  0  0  0  0
    1.8168  -12.3104   14.1003 C   0  0  0  0  0  0  0  0  0  0  0  0
    2.3555  -12.6586   15.3143 C   0  0  0  0  0  0  0  0  0  0  0  0
    3.2021  -11.8275   16.0057 C   0  0  0  0  0  0  0  0  0  0  0  0
    1.8773  -13.9019   15.8647 N   0  0  0  0  0  0  0  0  0  0  0  0
    2.2225  -14.4753   17.0597 C   0  0  0  0  0  0  0  0  0  0  0  0
    1.5187  -15.6529   17.2811 C   0  0  0  0  0  0  0  0  0  0  0  0
    0.7464  -15.7071   16.0985 C   0  0  0  0  0  0  0  0  0  0  0  0
    0.9769  -14.7058   15.2011 C   0  0  0  0  0  0  0  0  0  0  0  0
    4.4398   -9.5804   16.2014 C   0  0  0  0  0  0  0  0  0  0  0  0
    3.9600   -9.4000   17.5971 N   0  0  0  0  0  0  0  0  0  0  0  0
    4.0564  -10.2787   18.1060 H   0  0  0  0  0  0  0  0  0  0  0  0
    2.9794   -9.1195   17.5858 H   0  0  0  0  0  0  0  0  0  0  0  0
 12 13  1  0  0  0
 12  1  1  0  0  0
  1  2  2  0  0  0
  1  6  1  0  0  0
  7  5  1  0  0  0
  7  8  1  0  0  0
  7 11  1  0  0  0
  2  3  1  0  0  0
  3  4  2  0  0  0
  4  5  1  0  0  0
  5  6  2  0  0  0
  8  9  2  0  0  0
  9 10  1  0  0  0
 10 11  2  0  0  0
 13 14  1  0  0  0
 13 15  1  0  0  0
M  END
> <minimizedAffinity>
-4.96657

$$$$
4ABD_SW2_A_1252


 15 16  0  0  0  0  0  0  0  0999 V2000
    1.9209  -10.7570   12.9204 C   0  0  0  0  0  0  0  0  0  0  0  0
    2.7860   -9.9004   13.5621 C   0  0  0  0  0  0  0  0  0  0  0  0
    3.4012  -10.2226   14.7486 C   0  0  0  0  0  0  0  0  0  0  0  0
    3.1225  -11.4370   15.3923 C   0  0  0  0  0  0  0  0  0  0  0  0
    2.2549  -12.2867   14.7514 C   0  0  0  0  0  0  0  0  0  0  0  0
    1.7023  -11.9861   13.5310 C   0  0  0  0  0  0  0  0  0  0  0  0
    2.0597  -13.5630   15.3920 N   0  0  0  0  0  0  0  0  0  0  0  0
    2.3986  -13.9176   16.6709 C   0  0  0  0  0  0  0  0  0  0  0  0
    2.0094  -15.2205   16.9576 C   0  0  0  0  0  0  0  0  0  0  0  0
    1.4261  -15.5834   15.7224 C   0  0  0  0  0  0  0  0  0  0  0  0
    1.4895  -14.6359   14.7429 C   0  0  0  0  0  0  0  0  0  0  0  0
    1.4819  -10.3912   11.5241 C   0  0  0  0  0  0  0  0  0  0  0  0
    2.3702   -9.3628   10.9208 N   0  0  0  0  0  0  0  0  0  0  0  0
    3.3202   -9.7287   10.8579 H   0  0  0  0  0  0  0  0  0  0  0  0
    2.3661   -8.5258   11.5038 H   0  0  0  0  0  0  0  0  0  0  0  0
 12 13  1  0  0  0
 12  1  1  0  0  0
  1  2  2  0  0  0
  1  6  1  0  0  0
  7  5  1  0  0  0
  7  8  1  0  0  0
  7 11  1  0  0  0
  2  3  1  0  0  0
  3  4  2  0  0  0
  4  5  1  0  0  0
  5  6  2  0  0  0
  8  9  2  0  0  0
  9 10  1  0  0  0
 10 11  2  0  0  0
 13 14  1  0  0  0
 13 15  1  0  0  0
M  END
> <minimizedAffinity>
-4.91633

$$$$
4ABD_SW2_A_1252


 15 16  0  0  0  0  0  0  0  0999 V2000
    1.0135   -9.7095   16.4394 C   0  0  0  0  0  0  0  0  0  0  0  0
    0.0450   -9.4702   15.4914 C   0  0  0  0  0  0  0  0  0  0  0  0
   -0.5371  -10.4772   14.7585 C   0  0  0  0  0  0  0  0  0  0  0  0
   -0.1188  -11.8070   14.9114 C   0  0  0  0  0  0  0  0  0  0  0  0
    0.8512  -12.0411   15.8546 C   0  0  0  0  0  0  0  0  0  0  0  0
    1.3742  -11.0377   16.6323 C   0  0  0  0  0  0  0  0  0  0  0  0
    1.1942  -13.4270   16.0521 N   0  0  0  0  0  0  0  0  0  0  0  0
    1.9306  -13.9693   17.0718 C   0  0  0  0  0  0  0  0  0  0  0  0
    2.0126  -15.3520   16.9607 C   0  0  0  0  0  0  0  0  0  0  0  0
    1.2645  -15.5512   15.7781 C   0  0  0  0  0  0  0  0  0  0  0  0
    0.8075  -14.4161   15.1749 C   0  0  0  0  0  0  0  0  0  0  0  0
    1.4174   -8.5621   17.3317 C   0  0  0  0  0  0  0  0  0  0  0  0
    1.9025   -9.0389   18.6538 N   0  0  0  0  0  0  0  0  0  0  0  0
    2.7240   -9.6290   18.5219 H   0  0  0  0  0  0  0  0  0  0  0  0
    1.1672   -9.5772   19.1118 H   0  0  0  0  0  0  0  0  0  0  0  0
 12 13  1  0  0  0
 12  1  1  0  0  0
  1  2  2  0  0  0
  1  6  1  0  0  0
  7  5  1  0  0  0
  7  8  1  0  0  0
  7 11  1  0  0  0
  2  3  1  0  0  0
  3  4  2  0  0  0
  4  5  1  0  0  0
  5  6  2  0  0  0
  8  9  2  0  0  0
  9 10  1  0  0  0
 10 11  2  0  0  0
 13 14  1  0  0  0
 13 15  1  0  0  0
M  END
> <minimizedAffinity>
-4.84227

$$$$
4ABD_SW2_A_1252


 15 16  0  0  0  0  0  0  0  0999 V2000
    2.1327  -13.5780   15.8659 C   0  0  0  0  0  0  0  0  0  0  0  0
    1.2537  -13.4611   14.8134 C   0  0  0  0  0  0  0  0  0  0  0  0
    1.3094  -12.4215   13.9156 C   0  0  0  0  0  0  0  0  0  0  0  0
    2.2463  -11.3898   14.0728 C   0  0  0  0  0  0  0  0  0  0  0  0
    3.1181  -11.5074   15.1270 C   0  0  0  0  0  0  0  0  0  0  0  0
    3.1008  -12.5870   15.9752 C   0  0  0  0  0  0  0  0  0  0  0  0
    4.1259  -10.4801   15.2082 N   0  0  0  0  0  0  0  0  0  0  0  0
    5.2522  -10.4731   15.9876 C   0  0  0  0  0  0  0  0  0  0  0  0
    6.0191   -9.3362   15.7632 C   0  0  0  0  0  0  0  0  0  0  0  0
    5.2236   -8.6874   14.7916 C   0  0  0  0  0  0  0  0  0  0  0  0
    4.0539   -9.3151   14.4769 C   0  0  0  0  0  0  0  0  0  0  0  0
    2.1179  -14.8671   16.6495 C   0  0  0  0  0  0  0  0  0  0  0  0
    1.8474  -16.0385   15.7748 N   0  0  0  0  0  0  0  0  0  0  0  0
    2.5827  -16.1150   15.0720 H   0  0  0  0  0  0  0  0  0  0  0  0
    0.9464  -15.9167   15.3124 H   0  0  0  0  0  0  0  0  0  0  0  0
 12 13  1  0  0  0
 12  1  1  0  0  0
  1  2  2  0  0  0
  1  6  1  0  0  0
  7  5  1  0  0  0
  7  8  1  0  0  0
  7 11  1  0  0  0
  2  3  1  0  0  0
  3  4  2  0  0  0
  4  5  1  0  0  0
  5  6  2  0  0  0
  8  9  2  0  0  0
  9 10  1  0  0  0
 10 11  2  0  0  0
 13 14  1  0  0  0
 13 15  1  0  0  0
M  END
> <minimizedAffinity>
-4.65803

$$$$
