4M13_1E0_A_701


 31 33  0  0  0  0  0  0  0  0999 V2000
   -4.9426    8.3125   13.3336 N   0  0  0  0  0  0  0  0  0  0  0  0
   -6.0186    7.6166   13.7476 N   0  0  0  0  0  0  0  0  0  0  0  0
   -5.5320    6.6997   14.6409 C   0  0  0  0  0  0  0  0  0  0  0  0
   -4.1074    6.8386   14.7667 C   0  0  0  0  0  0  0  0  0  0  0  0
   -3.7410    7.8846   13.9130 C   0  0  0  0  0  0  0  0  0  0  0  0
   -5.0646    9.4272   12.4360 C   0  0  0  0  0  0  0  0  0  0  0  0
   -4.4389    9.3461   11.2172 C   0  0  0  0  0  0  0  0  0  0  0  0
   -4.5444   10.4272   10.3169 C   0  0  0  0  0  0  0  0  0  0  0  0
   -5.2680   11.5380   10.6545 C   0  0  0  0  0  0  0  0  0  0  0  0
   -5.8196   10.5695   12.8292 C   0  0  0  0  0  0  0  0  0  0  0  0
   -5.9069   11.6311   11.9135 C   0  0  0  0  0  0  0  0  0  0  0  0
   -6.6362   12.7985   12.2732 C   0  0  0  0  0  0  0  0  0  0  0  0
   -7.2561   12.8899   13.4813 C   0  0  0  0  0  0  0  0  0  0  0  0
   -7.1733   11.7933   14.3932 C   0  0  0  0  0  0  0  0  0  0  0  0
   -6.4645   10.6625   14.0883 C   0  0  0  0  0  0  0  0  0  0  0  0
   -7.8481   12.0129   15.5529 O   0  0  0  0  0  0  0  0  0  0  0  0
   -7.7384   11.0230   16.5618 C   0  0  0  0  0  0  0  0  0  0  0  0
   -7.2210   11.7596   17.8010 C   0  0  0  0  0  0  0  0  0  0  0  0
   -7.7084   13.1989   17.8174 C   0  0  0  0  0  0  0  0  0  0  0  0
   -3.3284    6.0329   15.5835 N   0  0  0  0  0  0  0  0  0  0  0  0
   -1.9309    6.1597   15.6471 C   0  0  0  0  0  0  0  0  0  0  0  0
   -1.2893    5.2821   16.5146 N   0  0  0  0  0  0  0  0  0  0  0  0
   -1.2912    6.9926   14.9931 O   0  0  0  0  0  0  0  0  0  0  0  0
   -3.7697    5.3491   16.1374 H   0  0  0  0  0  0  0  0  0  0  0  0
   -0.3101    5.3131   16.6109 H   0  0  0  0  0  0  0  0  0  0  0  0
   -1.8145    4.6299   17.0323 H   0  0  0  0  0  0  0  0  0  0  0  0
   -6.3734    5.7331   15.3490 C   0  0  0  0  0  0  0  0  0  0  0  0
   -7.7230    5.7381   15.0884 N   0  0  0  0  0  0  0  0  0  0  0  0
   -5.8916    4.9389   16.1658 O   0  0  0  0  0  0  0  0  0  0  0  0
   -8.0961    6.3744   14.4364 H   0  0  0  0  0  0  0  0  0  0  0  0
   -8.3165    5.1053   15.5538 H   0  0  0  0  0  0  0  0  0  0  0  0
  8  9  2  0  0  0
  8  7  1  0  0  0
  9 11  1  0  0  0
  7  6  2  0  0  0
 11 12  2  0  0  0
 11 10  1  0  0  0
 12 13  1  0  0  0
  6 10  1  0  0  0
  6  1  1  0  0  0
 10 15  2  0  0  0
  1  2  1  0  0  0
  1  5  1  0  0  0
 13 14  2  0  0  0
  2  3  2  0  0  0
  5  4  2  0  0  0
 15 14  1  0  0  0
 14 16  1  0  0  0
  3  4  1  0  0  0
  3 27  1  0  0  0
  4 20  1  0  0  0
 23 21  2  0  0  0
 28 27  1  0  0  0
 27 29  2  0  0  0
 16 17  1  0  0  0
 20 21  1  0  0  0
 21 22  1  0  0  0
 17 18  1  0  0  0
 18 19  1  0  0  0
 20 24  1  0  0  0
 22 25  1  0  0  0
 22 26  1  0  0  0
 28 30  1  0  0  0
 28 31  1  0  0  0
M  END
> <minimizedAffinity>
-11.59314

$$$$
4M13_1E0_A_701


 31 33  0  0  0  0  0  0  0  0999 V2000
   -4.3072    8.6192   13.3454 N   0  0  0  0  0  0  0  0  0  0  0  0
   -3.0325    8.4361   13.7392 N   0  0  0  0  0  0  0  0  0  0  0  0
   -3.0595    7.3251   14.5396 C   0  0  0  0  0  0  0  0  0  0  0  0
   -4.4011    6.8211   14.6422 C   0  0  0  0  0  0  0  0  0  0  0  0
   -5.1968    7.6704   13.8659 C   0  0  0  0  0  0  0  0  0  0  0  0
   -4.6697    9.6579   12.4219 C   0  0  0  0  0  0  0  0  0  0  0  0
   -4.1089    9.6328   11.1695 C   0  0  0  0  0  0  0  0  0  0  0  0
   -4.4495   10.6410   10.2433 C   0  0  0  0  0  0  0  0  0  0  0  0
   -5.3334   11.6260   10.5896 C   0  0  0  0  0  0  0  0  0  0  0  0
   -5.5868   10.6709   12.8247 C   0  0  0  0  0  0  0  0  0  0  0  0
   -5.9070   11.6624   11.8827 C   0  0  0  0  0  0  0  0  0  0  0  0
   -6.8051   12.7030   12.2497 C   0  0  0  0  0  0  0  0  0  0  0  0
   -7.3625   12.7388   13.4906 C   0  0  0  0  0  0  0  0  0  0  0  0
   -7.0409   11.7119   14.4304 C   0  0  0  0  0  0  0  0  0  0  0  0
   -6.1663   10.7062   14.1181 C   0  0  0  0  0  0  0  0  0  0  0  0
   -7.6771   11.8626   15.6223 O   0  0  0  0  0  0  0  0  0  0  0  0
   -7.7437   10.7263   16.4675 C   0  0  0  0  0  0  0  0  0  0  0  0
   -7.7699   11.2809   17.8949 C   0  0  0  0  0  0  0  0  0  0  0  0
   -7.5337   12.7821   17.8962 C   0  0  0  0  0  0  0  0  0  0  0  0
   -4.7477    5.7151   15.4036 N   0  0  0  0  0  0  0  0  0  0  0  0
   -5.9384    5.0015   15.1888 C   0  0  0  0  0  0  0  0  0  0  0  0
   -6.1446    3.9142   16.0312 N   0  0  0  0  0  0  0  0  0  0  0  0
   -6.7601    5.2941   14.3115 O   0  0  0  0  0  0  0  0  0  0  0  0
   -4.1388    5.4202   16.1188 H   0  0  0  0  0  0  0  0  0  0  0  0
   -6.9579    3.3672   15.9388 H   0  0  0  0  0  0  0  0  0  0  0  0
   -5.4772    3.6915   16.7198 H   0  0  0  0  0  0  0  0  0  0  0  0
   -1.8708    6.7593   15.1806 C   0  0  0  0  0  0  0  0  0  0  0  0
   -1.8993    5.4324   15.5383 N   0  0  0  0  0  0  0  0  0  0  0  0
   -0.8708    7.4518   15.4047 O   0  0  0  0  0  0  0  0  0  0  0  0
   -2.7005    4.8903   15.3552 H   0  0  0  0  0  0  0  0  0  0  0  0
   -1.1186    5.0242   15.9777 H   0  0  0  0  0  0  0  0  0  0  0  0
  8  9  2  0  0  0
  8  7  1  0  0  0
  9 11  1  0  0  0
  7  6  2  0  0  0
 11 12  2  0  0  0
 11 10  1  0  0  0
 12 13  1  0  0  0
  6 10  1  0  0  0
  6  1  1  0  0  0
 10 15  2  0  0  0
  1  2  1  0  0  0
  1  5  1  0  0  0
 13 14  2  0  0  0
  2  3  2  0  0  0
  5  4  2  0  0  0
 15 14  1  0  0  0
 14 16  1  0  0  0
  3  4  1  0  0  0
  3 27  1  0  0  0
  4 20  1  0  0  0
 23 21  2  0  0  0
 28 27  1  0  0  0
 27 29  2  0  0  0
 16 17  1  0  0  0
 20 21  1  0  0  0
 21 22  1  0  0  0
 17 18  1  0  0  0
 18 19  1  0  0  0
 20 24  1  0  0  0
 22 25  1  0  0  0
 22 26  1  0  0  0
 28 30  1  0  0  0
 28 31  1  0  0  0
M  END
> <minimizedAffinity>
-10.24799

$$$$
