5D3X_4IP_A_501


 38 38  0  0  0  0  0  0  0  0999 V2000
    6.7032    8.5027    6.1367 C   0  0  0  0  0  0  0  0  0  0  0  0
    5.2494    8.1322    5.8987 C   0  0  0  0  0  0  0  0  0  0  0  0
    4.8470    7.0915    6.7660 O   0  0  0  0  0  0  0  0  0  0  0  0
    5.0443    7.7352    4.4361 C   0  0  0  0  0  0  0  0  0  0  0  0
    6.2656    7.0903    3.7178 C   0  0  0  0  0  0  0  0  0  0  0  0
    7.5645    6.8387    4.5376 C   0  0  0  0  0  0  0  0  0  0  0  0
    7.5521    7.2593    5.9938 C   0  0  0  0  0  0  0  0  0  0  0  0
    8.8905    7.5718    6.3356 O   0  0  0  0  0  0  0  0  0  0  0  0
    5.3855    6.3028    6.5964 H   0  0  0  0  0  0  0  0  0  0  0  0
    9.2190    8.2713    5.7494 H   0  0  0  0  0  0  0  0  0  0  0  0
    6.8780    9.0991    7.4087 O   0  0  0  0  0  0  0  0  0  0  0  0
    7.4632   10.5717    7.4974 P   0  0  0  0  0  0  0  0  0  0  0  0
    8.9406   10.5675    7.1588 O   0  0  0  0  0  0  0  0  0  0  0  0
    7.2669   11.1245    8.8919 O   0  0  0  0  0  0  0  0  0  0  0  0
    6.7255   11.4403    6.5022 O   0  0  0  0  0  0  0  0  0  0  0  0
    7.7398   10.5677    9.5300 H   0  0  0  0  0  0  0  0  0  0  0  0
    6.8514   11.0860    5.6081 H   0  0  0  0  0  0  0  0  0  0  0  0
    3.7484    7.1745    4.2436 O   0  0  0  0  0  0  0  0  0  0  0  0
    2.7683    8.1097    3.3770 P   0  0  0  0  0  0  0  0  0  0  0  0
    1.9773    7.3259    2.3547 O   0  0  0  0  0  0  0  0  0  0  0  0
    3.6523    9.1345    2.7234 O   0  0  0  0  0  0  0  0  0  0  0  0
    1.8229    8.7833    4.3508 O   0  0  0  0  0  0  0  0  0  0  0  0
    4.2534    8.6941    2.1024 H   0  0  0  0  0  0  0  0  0  0  0  0
    1.2570    8.1145    4.7672 H   0  0  0  0  0  0  0  0  0  0  0  0
    6.1764    6.0990    2.6793 O   0  0  0  0  0  0  0  0  0  0  0  0
    5.9592    5.9677    1.1043 P   0  0  0  0  0  0  0  0  0  0  0  0
    7.1721    6.4664    0.3350 O   0  0  0  0  0  0  0  0  0  0  0  0
    4.7943    6.9212    0.8913 O   0  0  0  0  0  0  0  0  0  0  0  0
    5.5171    4.5622    0.7387 O   0  0  0  0  0  0  0  0  0  0  0  0
    7.3907    7.3662    0.6239 H   0  0  0  0  0  0  0  0  0  0  0  0
    5.0678    7.8226    1.1226 H   0  0  0  0  0  0  0  0  0  0  0  0
    8.0663    5.5141    4.4146 O   0  0  0  0  0  0  0  0  0  0  0  0
    9.4452    5.3142    3.6532 P   0  0  0  0  0  0  0  0  0  0  0  0
   10.5173    6.1190    4.3441 O   0  0  0  0  0  0  0  0  0  0  0  0
    9.8194    3.8507    3.6749 O   0  0  0  0  0  0  0  0  0  0  0  0
    9.3191    5.8275    2.2414 O   0  0  0  0  0  0  0  0  0  0  0  0
   10.6180    5.8070    5.2571 H   0  0  0  0  0  0  0  0  0  0  0  0
    9.0788    6.7671    2.2593 H   0  0  0  0  0  0  0  0  0  0  0  0
  1 11  1  0  0  0
  1  2  1  0  0  0
  1  7  1  0  0  0
 11 12  1  0  0  0
  2  3  1  0  0  0
  2  4  1  0  0  0
  4 18  1  0  0  0
  4  5  1  0  0  0
 18 19  1  0  0  0
  5 25  1  0  0  0
  5  6  1  0  0  0
 25 26  1  0  0  0
  6 32  1  0  0  0
  6  7  1  0  0  0
 32 33  1  0  0  0
  7  8  1  0  0  0
 12 13  2  0  0  0
 12 14  1  0  0  0
 12 15  1  0  0  0
 19 20  2  0  0  0
 19 21  1  0  0  0
 19 22  1  0  0  0
 26 27  1  0  0  0
 26 28  1  0  0  0
 26 29  2  0  0  0
 33 34  1  0  0  0
 33 35  2  0  0  0
 33 36  1  0  0  0
  3  9  1  0  0  0
  8 10  1  0  0  0
 14 16  1  0  0  0
 15 17  1  0  0  0
 21 23  1  0  0  0
 22 24  1  0  0  0
 27 30  1  0  0  0
 28 31  1  0  0  0
 34 37  1  0  0  0
 36 38  1  0  0  0
M  END
> <minimizedAffinity>
-6.85702

$$$$
5D3X_4IP_A_501


 38 38  0  0  0  0  0  0  0  0999 V2000
    8.9230    7.0756    4.5363 C   0  0  0  0  0  0  0  0  0  0  0  0
    8.0969    7.5237    5.7298 C   0  0  0  0  0  0  0  0  0  0  0  0
    7.6708    6.4127    6.4923 O   0  0  0  0  0  0  0  0  0  0  0  0
    6.9022    8.3526    5.2563 C   0  0  0  0  0  0  0  0  0  0  0  0
    6.3339    8.0042    3.8496 C   0  0  0  0  0  0  0  0  0  0  0  0
    6.9650    6.8178    3.0641 C   0  0  0  0  0  0  0  0  0  0  0  0
    8.1140    6.0857    3.7285 C   0  0  0  0  0  0  0  0  0  0  0  0
    8.9219    5.5707    2.6855 O   0  0  0  0  0  0  0  0  0  0  0  0
    7.1128    5.8392    5.9441 H   0  0  0  0  0  0  0  0  0  0  0  0
    9.2227    6.2990    2.1198 H   0  0  0  0  0  0  0  0  0  0  0  0
   10.1557    6.5145    4.9485 O   0  0  0  0  0  0  0  0  0  0  0  0
   11.4246    6.6617    4.0065 P   0  0  0  0  0  0  0  0  0  0  0  0
   11.1763    7.7290    2.9594 O   0  0  0  0  0  0  0  0  0  0  0  0
   11.7192    5.3440    3.3239 O   0  0  0  0  0  0  0  0  0  0  0  0
   12.6085    7.0640    4.8583 O   0  0  0  0  0  0  0  0  0  0  0  0
   10.9601    5.0860    2.7778 H   0  0  0  0  0  0  0  0  0  0  0  0
   12.4198    7.9088    5.2960 H   0  0  0  0  0  0  0  0  0  0  0  0
    5.9985    8.5930    6.3316 O   0  0  0  0  0  0  0  0  0  0  0  0
    5.7201   10.1544    6.5974 P   0  0  0  0  0  0  0  0  0  0  0  0
    5.1209   10.4098    7.9616 O   0  0  0  0  0  0  0  0  0  0  0  0
    4.7974   10.5988    5.4974 O   0  0  0  0  0  0  0  0  0  0  0  0
    7.0514   10.8682    6.4799 O   0  0  0  0  0  0  0  0  0  0  0  0
    3.9486   10.1368    5.5810 H   0  0  0  0  0  0  0  0  0  0  0  0
    7.6395   10.5751    7.1935 H   0  0  0  0  0  0  0  0  0  0  0  0
    4.9514    8.1245    3.4710 O   0  0  0  0  0  0  0  0  0  0  0  0
    3.5020    7.5990    3.8813 P   0  0  0  0  0  0  0  0  0  0  0  0
    2.8064    8.5713    4.8206 O   0  0  0  0  0  0  0  0  0  0  0  0
    3.8569    6.3279    4.6363 O   0  0  0  0  0  0  0  0  0  0  0  0
    2.6961    7.2298    2.6489 O   0  0  0  0  0  0  0  0  0  0  0  0
    3.3823    8.7563    5.5789 H   0  0  0  0  0  0  0  0  0  0  0  0
    4.3725    6.5543    5.4262 H   0  0  0  0  0  0  0  0  0  0  0  0
    6.0079    5.8868    2.5758 O   0  0  0  0  0  0  0  0  0  0  0  0
    5.8088    5.7880    1.0035 P   0  0  0  0  0  0  0  0  0  0  0  0
    4.5894    6.5807    0.6048 O   0  0  0  0  0  0  0  0  0  0  0  0
    7.0268    6.3520    0.3102 O   0  0  0  0  0  0  0  0  0  0  0  0
    5.5732    4.3504    0.6159 O   0  0  0  0  0  0  0  0  0  0  0  0
    4.7166    7.5120    0.8443 H   0  0  0  0  0  0  0  0  0  0  0  0
    4.7869    4.0164    1.0753 H   0  0  0  0  0  0  0  0  0  0  0  0
  1 11  1  0  0  0
  1  2  1  0  0  0
  1  7  1  0  0  0
 11 12  1  0  0  0
  2  3  1  0  0  0
  2  4  1  0  0  0
  4 18  1  0  0  0
  4  5  1  0  0  0
 18 19  1  0  0  0
  5 25  1  0  0  0
  5  6  1  0  0  0
 25 26  1  0  0  0
  6 32  1  0  0  0
  6  7  1  0  0  0
 32 33  1  0  0  0
  7  8  1  0  0  0
 12 13  2  0  0  0
 12 14  1  0  0  0
 12 15  1  0  0  0
 19 20  2  0  0  0
 19 21  1  0  0  0
 19 22  1  0  0  0
 26 27  1  0  0  0
 26 28  1  0  0  0
 26 29  2  0  0  0
 33 34  1  0  0  0
 33 35  2  0  0  0
 33 36  1  0  0  0
  3  9  1  0  0  0
  8 10  1  0  0  0
 14 16  1  0  0  0
 15 17  1  0  0  0
 21 23  1  0  0  0
 22 24  1  0  0  0
 27 30  1  0  0  0
 28 31  1  0  0  0
 34 37  1  0  0  0
 36 38  1  0  0  0
M  END
> <minimizedAffinity>
-6.45659

$$$$
5D3X_4IP_A_501


 38 38  0  0  0  0  0  0  0  0999 V2000
    9.7207    7.1326    1.8490 C   0  0  0  0  0  0  0  0  0  0  0  0
   10.1937    6.9138    3.2759 C   0  0  0  0  0  0  0  0  0  0  0  0
   10.2982    5.5345    3.5653 O   0  0  0  0  0  0  0  0  0  0  0  0
    9.2435    7.6071    4.2531 C   0  0  0  0  0  0  0  0  0  0  0  0
    7.7567    7.7222    3.8065 C   0  0  0  0  0  0  0  0  0  0  0  0
    7.3334    7.0799    2.4534 C   0  0  0  0  0  0  0  0  0  0  0  0
    8.4179    6.3913    1.6490 C   0  0  0  0  0  0  0  0  0  0  0  0
    8.0352    6.4882    0.2888 O   0  0  0  0  0  0  0  0  0  0  0  0
    9.4268    5.1181    3.4747 H   0  0  0  0  0  0  0  0  0  0  0  0
    7.9301    7.4221    0.0483 H   0  0  0  0  0  0  0  0  0  0  0  0
   10.6983    6.7119    0.9154 O   0  0  0  0  0  0  0  0  0  0  0  0
   11.5734    7.8048    0.1681 P   0  0  0  0  0  0  0  0  0  0  0  0
   12.5999    7.1325   -0.7216 O   0  0  0  0  0  0  0  0  0  0  0  0
   12.2790    8.6831    1.1779 O   0  0  0  0  0  0  0  0  0  0  0  0
   10.6544    8.6533   -0.6831 O   0  0  0  0  0  0  0  0  0  0  0  0
   12.8683    8.1392    1.7236 H   0  0  0  0  0  0  0  0  0  0  0  0
   10.2020    8.0902   -1.3306 H   0  0  0  0  0  0  0  0  0  0  0  0
    9.5394    7.2312    5.5954 O   0  0  0  0  0  0  0  0  0  0  0  0
    9.8907    8.4789    6.5474 P   0  0  0  0  0  0  0  0  0  0  0  0
    8.7221    8.8915    7.4129 O   0  0  0  0  0  0  0  0  0  0  0  0
   10.3150    9.5890    5.6274 O   0  0  0  0  0  0  0  0  0  0  0  0
   11.0530    8.0554    7.4223 O   0  0  0  0  0  0  0  0  0  0  0  0
    9.5650    9.8530    5.0718 H   0  0  0  0  0  0  0  0  0  0  0  0
   10.7696    7.3392    8.0120 H   0  0  0  0  0  0  0  0  0  0  0  0
    6.6286    7.7031    4.6990 O   0  0  0  0  0  0  0  0  0  0  0  0
    6.0459    6.8958    5.9454 P   0  0  0  0  0  0  0  0  0  0  0  0
    7.1522    6.1918    6.7148 O   0  0  0  0  0  0  0  0  0  0  0  0
    5.1783    5.8636    5.2430 O   0  0  0  0  0  0  0  0  0  0  0  0
    5.1584    7.7875    6.7951 O   0  0  0  0  0  0  0  0  0  0  0  0
    7.6720    5.6446    6.1055 H   0  0  0  0  0  0  0  0  0  0  0  0
    5.7374    5.2888    4.6973 H   0  0  0  0  0  0  0  0  0  0  0  0
    6.1913    6.2394    2.5563 O   0  0  0  0  0  0  0  0  0  0  0  0
    4.9050    6.6343    1.7133 P   0  0  0  0  0  0  0  0  0  0  0  0
    3.6675    6.2152    2.4665 O   0  0  0  0  0  0  0  0  0  0  0  0
    4.8861    8.1303    1.5035 O   0  0  0  0  0  0  0  0  0  0  0  0
    4.9189    5.8960    0.3991 O   0  0  0  0  0  0  0  0  0  0  0  0
    3.6353    6.6779    3.3184 H   0  0  0  0  0  0  0  0  0  0  0  0
    4.9308    4.9404    0.5652 H   0  0  0  0  0  0  0  0  0  0  0  0
  1 11  1  0  0  0
  1  2  1  0  0  0
  1  7  1  0  0  0
 11 12  1  0  0  0
  2  3  1  0  0  0
  2  4  1  0  0  0
  4 18  1  0  0  0
  4  5  1  0  0  0
 18 19  1  0  0  0
  5 25  1  0  0  0
  5  6  1  0  0  0
 25 26  1  0  0  0
  6 32  1  0  0  0
  6  7  1  0  0  0
 32 33  1  0  0  0
  7  8  1  0  0  0
 12 13  2  0  0  0
 12 14  1  0  0  0
 12 15  1  0  0  0
 19 20  2  0  0  0
 19 21  1  0  0  0
 19 22  1  0  0  0
 26 27  1  0  0  0
 26 28  1  0  0  0
 26 29  2  0  0  0
 33 34  1  0  0  0
 33 35  2  0  0  0
 33 36  1  0  0  0
  3  9  1  0  0  0
  8 10  1  0  0  0
 14 16  1  0  0  0
 15 17  1  0  0  0
 21 23  1  0  0  0
 22 24  1  0  0  0
 27 30  1  0  0  0
 28 31  1  0  0  0
 34 37  1  0  0  0
 36 38  1  0  0  0
M  END
> <minimizedAffinity>
-6.39680

$$$$
5D3X_4IP_A_501


 38 38  0  0  0  0  0  0  0  0999 V2000
    4.8979    8.2682    5.7292 C   0  0  0  0  0  0  0  0  0  0  0  0
    4.7521    7.1004    4.7688 C   0  0  0  0  0  0  0  0  0  0  0  0
    4.7510    5.8718    5.4672 O   0  0  0  0  0  0  0  0  0  0  0  0
    5.8722    7.1370    3.7283 C   0  0  0  0  0  0  0  0  0  0  0  0
    7.2229    7.7587    4.1891 C   0  0  0  0  0  0  0  0  0  0  0  0
    7.3600    8.2315    5.6657 C   0  0  0  0  0  0  0  0  0  0  0  0
    6.1463    8.0639    6.5580 C   0  0  0  0  0  0  0  0  0  0  0  0
    6.2218    9.0831    7.5385 O   0  0  0  0  0  0  0  0  0  0  0  0
    5.5931    5.7661    5.9368 H   0  0  0  0  0  0  0  0  0  0  0  0
    6.2463    9.9495    7.1031 H   0  0  0  0  0  0  0  0  0  0  0  0
    3.7530    8.4010    6.5514 O   0  0  0  0  0  0  0  0  0  0  0  0
    2.8834    9.7253    6.4564 P   0  0  0  0  0  0  0  0  0  0  0  0
    1.8430    9.7467    7.5584 O   0  0  0  0  0  0  0  0  0  0  0  0
    2.1948    9.7979    5.1112 O   0  0  0  0  0  0  0  0  0  0  0  0
    3.8044   10.9149    6.6163 O   0  0  0  0  0  0  0  0  0  0  0  0
    1.6043    9.0353    5.0086 H   0  0  0  0  0  0  0  0  0  0  0  0
    4.2459   10.8684    7.4787 H   0  0  0  0  0  0  0  0  0  0  0  0
    5.8850    5.9368    2.9601 O   0  0  0  0  0  0  0  0  0  0  0  0
    5.6887    6.1836    1.3831 P   0  0  0  0  0  0  0  0  0  0  0  0
    4.6116    7.2024    1.0880 O   0  0  0  0  0  0  0  0  0  0  0  0
    5.3536    4.8408    0.7972 O   0  0  0  0  0  0  0  0  0  0  0  0
    7.0176    6.6704    0.8419 O   0  0  0  0  0  0  0  0  0  0  0  0
    4.5020    4.5378    1.1493 H   0  0  0  0  0  0  0  0  0  0  0  0
    7.2250    7.5369    1.2254 H   0  0  0  0  0  0  0  0  0  0  0  0
    8.5178    7.3512    3.7132 O   0  0  0  0  0  0  0  0  0  0  0  0
    9.3854    6.0394    3.4458 P   0  0  0  0  0  0  0  0  0  0  0  0
    8.6781    4.7945    3.9572 O   0  0  0  0  0  0  0  0  0  0  0  0
   10.6078    6.3194    4.3053 O   0  0  0  0  0  0  0  0  0  0  0  0
    9.8136    5.9664    1.9911 O   0  0  0  0  0  0  0  0  0  0  0  0
    8.4378    4.9188    4.8887 H   0  0  0  0  0  0  0  0  0  0  0  0
   10.3435    6.3678    5.2374 H   0  0  0  0  0  0  0  0  0  0  0  0
    8.5200    7.7301    6.3173 O   0  0  0  0  0  0  0  0  0  0  0  0
    9.6712    8.7635    6.6751 P   0  0  0  0  0  0  0  0  0  0  0  0
    9.0562   10.0172    7.2449 O   0  0  0  0  0  0  0  0  0  0  0  0
   10.5964    8.1454    7.6969 O   0  0  0  0  0  0  0  0  0  0  0  0
   10.4148    9.1424    5.4198 O   0  0  0  0  0  0  0  0  0  0  0  0
    8.5706    9.7993    8.0559 H   0  0  0  0  0  0  0  0  0  0  0  0
    9.7966    9.5356    4.7840 H   0  0  0  0  0  0  0  0  0  0  0  0
  1 11  1  0  0  0
  1  2  1  0  0  0
  1  7  1  0  0  0
 11 12  1  0  0  0
  2  3  1  0  0  0
  2  4  1  0  0  0
  4 18  1  0  0  0
  4  5  1  0  0  0
 18 19  1  0  0  0
  5 25  1  0  0  0
  5  6  1  0  0  0
 25 26  1  0  0  0
  6 32  1  0  0  0
  6  7  1  0  0  0
 32 33  1  0  0  0
  7  8  1  0  0  0
 12 13  2  0  0  0
 12 14  1  0  0  0
 12 15  1  0  0  0
 19 20  2  0  0  0
 19 21  1  0  0  0
 19 22  1  0  0  0
 26 27  1  0  0  0
 26 28  1  0  0  0
 26 29  2  0  0  0
 33 34  1  0  0  0
 33 35  2  0  0  0
 33 36  1  0  0  0
  3  9  1  0  0  0
  8 10  1  0  0  0
 14 16  1  0  0  0
 15 17  1  0  0  0
 21 23  1  0  0  0
 22 24  1  0  0  0
 27 30  1  0  0  0
 28 31  1  0  0  0
 34 37  1  0  0  0
 36 38  1  0  0  0
M  END
> <minimizedAffinity>
-6.30402

$$$$
5D3X_4IP_A_501


 38 38  0  0  0  0  0  0  0  0999 V2000
    7.3927    6.6454    3.3824 C   0  0  0  0  0  0  0  0  0  0  0  0
    8.5067    6.0858    2.5145 C   0  0  0  0  0  0  0  0  0  0  0  0
    8.9312    4.8251    2.9919 O   0  0  0  0  0  0  0  0  0  0  0  0
    9.6740    7.0723    2.4626 C   0  0  0  0  0  0  0  0  0  0  0  0
    9.8774    7.9683    3.7192 C   0  0  0  0  0  0  0  0  0  0  0  0
    8.9391    7.7589    4.9433 C   0  0  0  0  0  0  0  0  0  0  0  0
    7.8698    6.6921    4.8167 C   0  0  0  0  0  0  0  0  0  0  0  0
    6.7963    7.0954    5.6479 O   0  0  0  0  0  0  0  0  0  0  0  0
    9.2770    4.9204    3.8932 H   0  0  0  0  0  0  0  0  0  0  0  0
    6.4832    7.9704    5.3699 H   0  0  0  0  0  0  0  0  0  0  0  0
    6.2117    5.8743    3.2600 O   0  0  0  0  0  0  0  0  0  0  0  0
    5.1903    6.2062    2.0915 P   0  0  0  0  0  0  0  0  0  0  0  0
    5.5633    7.5173    1.4289 O   0  0  0  0  0  0  0  0  0  0  0  0
    3.7847    6.3016    2.6430 O   0  0  0  0  0  0  0  0  0  0  0  0
    5.2560    5.0935    1.0684 O   0  0  0  0  0  0  0  0  0  0  0  0
    3.7425    7.0150    3.2989 H   0  0  0  0  0  0  0  0  0  0  0  0
    6.1571    5.0323    0.7148 H   0  0  0  0  0  0  0  0  0  0  0  0
   10.8100    6.4759    1.8424 O   0  0  0  0  0  0  0  0  0  0  0  0
   11.4570    7.3835    0.6831 P   0  0  0  0  0  0  0  0  0  0  0  0
   12.3010    6.5774   -0.2776 O   0  0  0  0  0  0  0  0  0  0  0  0
   12.2722    8.4300    1.3895 O   0  0  0  0  0  0  0  0  0  0  0  0
   10.3097    8.0337   -0.0630 O   0  0  0  0  0  0  0  0  0  0  0  0
   13.0036    8.0044    1.8638 H   0  0  0  0  0  0  0  0  0  0  0  0
    9.7898    7.3510   -0.5152 H   0  0  0  0  0  0  0  0  0  0  0  0
   11.1509    8.4433    4.1902 O   0  0  0  0  0  0  0  0  0  0  0  0
   12.6305    7.9312    4.4960 P   0  0  0  0  0  0  0  0  0  0  0  0
   12.8203    6.4899    4.0509 O   0  0  0  0  0  0  0  0  0  0  0  0
   12.6544    8.0021    6.0145 O   0  0  0  0  0  0  0  0  0  0  0  0
   13.6592    8.9009    3.9425 O   0  0  0  0  0  0  0  0  0  0  0  0
   12.1279    5.9362    4.4443 H   0  0  0  0  0  0  0  0  0  0  0  0
   11.9996    7.3852    6.3773 H   0  0  0  0  0  0  0  0  0  0  0  0
    9.6355    7.6107    6.1740 O   0  0  0  0  0  0  0  0  0  0  0  0
    9.4815    8.7649    7.2535 P   0  0  0  0  0  0  0  0  0  0  0  0
    9.9611    8.2625    8.5922 O   0  0  0  0  0  0  0  0  0  0  0  0
   10.3122    9.9548    6.8335 O   0  0  0  0  0  0  0  0  0  0  0  0
    8.0263    9.1330    7.3920 O   0  0  0  0  0  0  0  0  0  0  0  0
   10.8978    8.0183    8.5292 H   0  0  0  0  0  0  0  0  0  0  0  0
    7.5193    8.3513    7.6618 H   0  0  0  0  0  0  0  0  0  0  0  0
  1 11  1  0  0  0
  1  2  1  0  0  0
  1  7  1  0  0  0
 11 12  1  0  0  0
  2  3  1  0  0  0
  2  4  1  0  0  0
  4 18  1  0  0  0
  4  5  1  0  0  0
 18 19  1  0  0  0
  5 25  1  0  0  0
  5  6  1  0  0  0
 25 26  1  0  0  0
  6 32  1  0  0  0
  6  7  1  0  0  0
 32 33  1  0  0  0
  7  8  1  0  0  0
 12 13  2  0  0  0
 12 14  1  0  0  0
 12 15  1  0  0  0
 19 20  2  0  0  0
 19 21  1  0  0  0
 19 22  1  0  0  0
 26 27  1  0  0  0
 26 28  1  0  0  0
 26 29  2  0  0  0
 33 34  1  0  0  0
 33 35  2  0  0  0
 33 36  1  0  0  0
  3  9  1  0  0  0
  8 10  1  0  0  0
 14 16  1  0  0  0
 15 17  1  0  0  0
 21 23  1  0  0  0
 22 24  1  0  0  0
 27 30  1  0  0  0
 28 31  1  0  0  0
 34 37  1  0  0  0
 36 38  1  0  0  0
M  END
> <minimizedAffinity>
-6.06934

$$$$
5D3X_4IP_A_501


 38 38  0  0  0  0  0  0  0  0999 V2000
    3.6161    8.1358    2.5462 C   0  0  0  0  0  0  0  0  0  0  0  0
    4.6384    7.1150    2.0768 C   0  0  0  0  0  0  0  0  0  0  0  0
    4.1927    5.7996    2.3385 O   0  0  0  0  0  0  0  0  0  0  0  0
    5.9866    7.3793    2.7485 C   0  0  0  0  0  0  0  0  0  0  0  0
    5.9379    8.0153    4.1685 C   0  0  0  0  0  0  0  0  0  0  0  0
    4.5490    8.2737    4.8218 C   0  0  0  0  0  0  0  0  0  0  0  0
    3.3255    7.8957    4.0108 C   0  0  0  0  0  0  0  0  0  0  0  0
    2.2839    8.7621    4.4233 O   0  0  0  0  0  0  0  0  0  0  0  0
    4.0740    5.6825    3.2940 H   0  0  0  0  0  0  0  0  0  0  0  0
    2.5540    9.6829    4.2815 H   0  0  0  0  0  0  0  0  0  0  0  0
    2.4330    8.0691    1.7715 O   0  0  0  0  0  0  0  0  0  0  0  0
    2.3010    8.9863    0.4829 P   0  0  0  0  0  0  0  0  0  0  0  0
    1.0749    9.8703    0.5949 O   0  0  0  0  0  0  0  0  0  0  0  0
    2.1911    8.1260   -0.7567 O   0  0  0  0  0  0  0  0  0  0  0  0
    3.5356    9.8553    0.3858 O   0  0  0  0  0  0  0  0  0  0  0  0
    1.3995    7.5688   -0.6945 H   0  0  0  0  0  0  0  0  0  0  0  0
    3.6061   10.4069    1.1805 H   0  0  0  0  0  0  0  0  0  0  0  0
    6.8930    6.3089    2.4965 O   0  0  0  0  0  0  0  0  0  0  0  0
    8.1037    6.7118    1.5175 P   0  0  0  0  0  0  0  0  0  0  0  0
    8.5123    8.1591    1.6705 O   0  0  0  0  0  0  0  0  0  0  0  0
    7.6190    6.4194    0.1253 O   0  0  0  0  0  0  0  0  0  0  0  0
    9.2712    5.8098    1.8621 O   0  0  0  0  0  0  0  0  0  0  0  0
    6.8722    7.0013   -0.0860 H   0  0  0  0  0  0  0  0  0  0  0  0
    9.5768    6.0058    2.7617 H   0  0  0  0  0  0  0  0  0  0  0  0
    6.8991    7.7700    5.2102 O   0  0  0  0  0  0  0  0  0  0  0  0
    8.4731    7.6581    5.4452 P   0  0  0  0  0  0  0  0  0  0  0  0
    9.2401    8.5649    4.4961 O   0  0  0  0  0  0  0  0  0  0  0  0
    8.7200    6.2052    5.0715 O   0  0  0  0  0  0  0  0  0  0  0  0
    8.8119    7.8527    6.9122 O   0  0  0  0  0  0  0  0  0  0  0  0
    8.9690    8.3808    3.5832 H   0  0  0  0  0  0  0  0  0  0  0  0
    8.5059    6.0713    4.1350 H   0  0  0  0  0  0  0  0  0  0  0  0
    4.4386    7.7606    6.1431 O   0  0  0  0  0  0  0  0  0  0  0  0
    4.4956    8.7966    7.3451 P   0  0  0  0  0  0  0  0  0  0  0  0
    5.9293    9.1924    7.5943 O   0  0  0  0  0  0  0  0  0  0  0  0
    3.6884   10.0221    6.9859 O   0  0  0  0  0  0  0  0  0  0  0  0
    3.9718    8.1424    8.5981 O   0  0  0  0  0  0  0  0  0  0  0  0
    6.2903    9.6169    6.8003 H   0  0  0  0  0  0  0  0  0  0  0  0
    4.5082    7.3607    8.8031 H   0  0  0  0  0  0  0  0  0  0  0  0
  1 11  1  0  0  0
  1  2  1  0  0  0
  1  7  1  0  0  0
 11 12  1  0  0  0
  2  3  1  0  0  0
  2  4  1  0  0  0
  4 18  1  0  0  0
  4  5  1  0  0  0
 18 19  1  0  0  0
  5 25  1  0  0  0
  5  6  1  0  0  0
 25 26  1  0  0  0
  6 32  1  0  0  0
  6  7  1  0  0  0
 32 33  1  0  0  0
  7  8  1  0  0  0
 12 13  2  0  0  0
 12 14  1  0  0  0
 12 15  1  0  0  0
 19 20  2  0  0  0
 19 21  1  0  0  0
 19 22  1  0  0  0
 26 27  1  0  0  0
 26 28  1  0  0  0
 26 29  2  0  0  0
 33 34  1  0  0  0
 33 35  2  0  0  0
 33 36  1  0  0  0
  3  9  1  0  0  0
  8 10  1  0  0  0
 14 16  1  0  0  0
 15 17  1  0  0  0
 21 23  1  0  0  0
 22 24  1  0  0  0
 27 30  1  0  0  0
 28 31  1  0  0  0
 34 37  1  0  0  0
 36 38  1  0  0  0
M  END
> <minimizedAffinity>
-6.04973

$$$$
5D3X_4IP_A_501


 38 38  0  0  0  0  0  0  0  0999 V2000
    2.4943    9.0538    2.4064 C   0  0  0  0  0  0  0  0  0  0  0  0
    2.8991    9.9415    3.5707 C   0  0  0  0  0  0  0  0  0  0  0  0
    3.5709   11.0972    3.1123 O   0  0  0  0  0  0  0  0  0  0  0  0
    3.7714    9.1540    4.5493 C   0  0  0  0  0  0  0  0  0  0  0  0
    4.6448    8.0199    3.9373 C   0  0  0  0  0  0  0  0  0  0  0  0
    4.6213    7.8113    2.3951 C   0  0  0  0  0  0  0  0  0  0  0  0
    3.7253    8.7310    1.5894 C   0  0  0  0  0  0  0  0  0  0  0  0
    3.3373    8.0078    0.4352 O   0  0  0  0  0  0  0  0  0  0  0  0
    4.3789   10.8368    2.6431 H   0  0  0  0  0  0  0  0  0  0  0  0
    2.8878    7.1906    0.7016 H   0  0  0  0  0  0  0  0  0  0  0  0
    1.4998    9.6733    1.6118 O   0  0  0  0  0  0  0  0  0  0  0  0
    0.0972    8.9532    1.4297 P   0  0  0  0  0  0  0  0  0  0  0  0
   -0.6720    8.9712    2.7356 O   0  0  0  0  0  0  0  0  0  0  0  0
    0.3032    7.5218    0.9852 O   0  0  0  0  0  0  0  0  0  0  0  0
   -0.6907    9.7000    0.3760 O   0  0  0  0  0  0  0  0  0  0  0  0
    0.8083    7.0429    1.6608 H   0  0  0  0  0  0  0  0  0  0  0  0
   -0.8227   10.6177    0.6609 H   0  0  0  0  0  0  0  0  0  0  0  0
    4.3417   10.0213    5.5256 O   0  0  0  0  0  0  0  0  0  0  0  0
    3.5956    9.9619    6.9490 P   0  0  0  0  0  0  0  0  0  0  0  0
    2.1598    9.5045    6.8295 O   0  0  0  0  0  0  0  0  0  0  0  0
    3.6870   11.3503    7.5173 O   0  0  0  0  0  0  0  0  0  0  0  0
    4.3725    8.9925    7.8165 O   0  0  0  0  0  0  0  0  0  0  0  0
    3.1871   11.9631    6.9556 H   0  0  0  0  0  0  0  0  0  0  0  0
    4.3076    8.1001    7.4420 H   0  0  0  0  0  0  0  0  0  0  0  0
    5.9312    7.6151    4.4379 O   0  0  0  0  0  0  0  0  0  0  0  0
    6.6581    7.1910    5.7932 P   0  0  0  0  0  0  0  0  0  0  0  0
    7.7833    6.2025    5.5317 O   0  0  0  0  0  0  0  0  0  0  0  0
    5.5242    6.4896    6.5238 O   0  0  0  0  0  0  0  0  0  0  0  0
    7.0704    8.4173    6.5876 O   0  0  0  0  0  0  0  0  0  0  0  0
    7.4417    5.4513    5.0220 H   0  0  0  0  0  0  0  0  0  0  0  0
    5.2539    5.7040    6.0230 H   0  0  0  0  0  0  0  0  0  0  0  0
    5.9157    7.7526    1.8100 O   0  0  0  0  0  0  0  0  0  0  0  0
    6.4415    6.3365    1.3204 P   0  0  0  0  0  0  0  0  0  0  0  0
    7.1227    5.6338    2.4678 O   0  0  0  0  0  0  0  0  0  0  0  0
    5.2718    5.5079    0.8434 O   0  0  0  0  0  0  0  0  0  0  0  0
    7.4600    6.5293    0.2259 O   0  0  0  0  0  0  0  0  0  0  0  0
    6.4863    5.4977    3.1872 H   0  0  0  0  0  0  0  0  0  0  0  0
    8.1971    7.0635    0.5606 H   0  0  0  0  0  0  0  0  0  0  0  0
  1 11  1  0  0  0
  1  2  1  0  0  0
  1  7  1  0  0  0
 11 12  1  0  0  0
  2  3  1  0  0  0
  2  4  1  0  0  0
  4 18  1  0  0  0
  4  5  1  0  0  0
 18 19  1  0  0  0
  5 25  1  0  0  0
  5  6  1  0  0  0
 25 26  1  0  0  0
  6 32  1  0  0  0
  6  7  1  0  0  0
 32 33  1  0  0  0
  7  8  1  0  0  0
 12 13  2  0  0  0
 12 14  1  0  0  0
 12 15  1  0  0  0
 19 20  2  0  0  0
 19 21  1  0  0  0
 19 22  1  0  0  0
 26 27  1  0  0  0
 26 28  1  0  0  0
 26 29  2  0  0  0
 33 34  1  0  0  0
 33 35  2  0  0  0
 33 36  1  0  0  0
  3  9  1  0  0  0
  8 10  1  0  0  0
 14 16  1  0  0  0
 15 17  1  0  0  0
 21 23  1  0  0  0
 22 24  1  0  0  0
 27 30  1  0  0  0
 28 31  1  0  0  0
 34 37  1  0  0  0
 36 38  1  0  0  0
M  END
> <minimizedAffinity>
-6.02264

$$$$
5D3X_4IP_A_501


 38 38  0  0  0  0  0  0  0  0999 V2000
    7.3516    6.7703    3.0864 C   0  0  0  0  0  0  0  0  0  0  0  0
    8.6204    5.9646    3.3061 C   0  0  0  0  0  0  0  0  0  0  0  0
    8.4584    5.0520    4.3730 O   0  0  0  0  0  0  0  0  0  0  0  0
    9.7981    6.9051    3.5650 C   0  0  0  0  0  0  0  0  0  0  0  0
    9.4618    8.2588    4.2562 C   0  0  0  0  0  0  0  0  0  0  0  0
    7.9909    8.5302    4.6869 C   0  0  0  0  0  0  0  0  0  0  0  0
    6.9740    7.4475    4.3848 C   0  0  0  0  0  0  0  0  0  0  0  0
    5.7271    8.0988    4.2207 O   0  0  0  0  0  0  0  0  0  0  0  0
    8.2718    5.5400    5.1903 H   0  0  0  0  0  0  0  0  0  0  0  0
    5.7957    8.7537    3.5084 H   0  0  0  0  0  0  0  0  0  0  0  0
    6.2999    5.9501    2.6116 O   0  0  0  0  0  0  0  0  0  0  0  0
    5.9308    5.9837    1.0683 P   0  0  0  0  0  0  0  0  0  0  0  0
    4.7725    6.9316    0.8293 O   0  0  0  0  0  0  0  0  0  0  0  0
    5.5538    4.5971    0.5951 O   0  0  0  0  0  0  0  0  0  0  0  0
    7.1393    6.4682    0.2979 O   0  0  0  0  0  0  0  0  0  0  0  0
    4.7789    4.2864    1.0890 H   0  0  0  0  0  0  0  0  0  0  0  0
    7.3811    7.3572    0.6012 H   0  0  0  0  0  0  0  0  0  0  0  0
   10.9435    6.1722    3.9912 O   0  0  0  0  0  0  0  0  0  0  0  0
   12.2003    6.3132    2.9977 P   0  0  0  0  0  0  0  0  0  0  0  0
   12.9175    7.6342    3.1583 O   0  0  0  0  0  0  0  0  0  0  0  0
   11.6455    6.1515    1.6103 O   0  0  0  0  0  0  0  0  0  0  0  0
   13.1466    5.1735    3.3157 O   0  0  0  0  0  0  0  0  0  0  0  0
   11.0413    6.8852    1.4161 H   0  0  0  0  0  0  0  0  0  0  0  0
   13.4992    5.2866    4.2123 H   0  0  0  0  0  0  0  0  0  0  0  0
   10.3415    8.9642    5.1494 O   0  0  0  0  0  0  0  0  0  0  0  0
   11.2356    8.7328    6.4503 P   0  0  0  0  0  0  0  0  0  0  0  0
   12.4912    7.9397    6.1248 O   0  0  0  0  0  0  0  0  0  0  0  0
   10.3019    7.8824    7.2969 O   0  0  0  0  0  0  0  0  0  0  0  0
   11.4898   10.0464    7.1675 O   0  0  0  0  0  0  0  0  0  0  0  0
   12.2463    7.1187    5.6700 H   0  0  0  0  0  0  0  0  0  0  0  0
   10.1336    7.0402    6.8461 H   0  0  0  0  0  0  0  0  0  0  0  0
    7.8641    8.9584    6.0367 O   0  0  0  0  0  0  0  0  0  0  0  0
    7.4679   10.4739    6.2968 P   0  0  0  0  0  0  0  0  0  0  0  0
    6.5574   10.9477    5.1918 O   0  0  0  0  0  0  0  0  0  0  0  0
    6.7515   10.5816    7.6226 O   0  0  0  0  0  0  0  0  0  0  0  0
    8.7088   11.3294    6.2726 O   0  0  0  0  0  0  0  0  0  0  0  0
    5.7493   10.4114    5.1864 H   0  0  0  0  0  0  0  0  0  0  0  0
    9.1463   11.2400    5.4115 H   0  0  0  0  0  0  0  0  0  0  0  0
  1 11  1  0  0  0
  1  2  1  0  0  0
  1  7  1  0  0  0
 11 12  1  0  0  0
  2  3  1  0  0  0
  2  4  1  0  0  0
  4 18  1  0  0  0
  4  5  1  0  0  0
 18 19  1  0  0  0
  5 25  1  0  0  0
  5  6  1  0  0  0
 25 26  1  0  0  0
  6 32  1  0  0  0
  6  7  1  0  0  0
 32 33  1  0  0  0
  7  8  1  0  0  0
 12 13  2  0  0  0
 12 14  1  0  0  0
 12 15  1  0  0  0
 19 20  2  0  0  0
 19 21  1  0  0  0
 19 22  1  0  0  0
 26 27  1  0  0  0
 26 28  1  0  0  0
 26 29  2  0  0  0
 33 34  1  0  0  0
 33 35  2  0  0  0
 33 36  1  0  0  0
  3  9  1  0  0  0
  8 10  1  0  0  0
 14 16  1  0  0  0
 15 17  1  0  0  0
 21 23  1  0  0  0
 22 24  1  0  0  0
 27 30  1  0  0  0
 28 31  1  0  0  0
 34 37  1  0  0  0
 36 38  1  0  0  0
M  END
> <minimizedAffinity>
-5.95236

$$$$
5D3X_4IP_A_501


 38 38  0  0  0  0  0  0  0  0999 V2000
    5.9327    8.4415    6.0552 C   0  0  0  0  0  0  0  0  0  0  0  0
    5.5688    7.1123    5.4162 C   0  0  0  0  0  0  0  0  0  0  0  0
    6.2683    6.0498    6.0318 O   0  0  0  0  0  0  0  0  0  0  0  0
    5.8558    7.1588    3.9148 C   0  0  0  0  0  0  0  0  0  0  0  0
    7.0238    8.0835    3.4632 C   0  0  0  0  0  0  0  0  0  0  0  0
    7.8453    8.8321    4.5529 C   0  0  0  0  0  0  0  0  0  0  0  0
    7.4338    8.6155    5.9956 C   0  0  0  0  0  0  0  0  0  0  0  0
    7.7908    9.7920    6.6986 O   0  0  0  0  0  0  0  0  0  0  0  0
    7.2225    6.1821    5.9180 H   0  0  0  0  0  0  0  0  0  0  0  0
    7.3484   10.5558    6.2964 H   0  0  0  0  0  0  0  0  0  0  0  0
    5.4609    8.5151    7.3880 O   0  0  0  0  0  0  0  0  0  0  0  0
    4.1058    9.2857    7.6862 P   0  0  0  0  0  0  0  0  0  0  0  0
    3.1641    9.1615    6.5051 O   0  0  0  0  0  0  0  0  0  0  0  0
    4.3889   10.7475    7.9542 O   0  0  0  0  0  0  0  0  0  0  0  0
    3.4610    8.6651    8.9060 O   0  0  0  0  0  0  0  0  0  0  0  0
    4.8023   11.1455    7.1721 H   0  0  0  0  0  0  0  0  0  0  0  0
    3.2795    7.7278    8.7342 H   0  0  0  0  0  0  0  0  0  0  0  0
    5.7331    5.8612    3.3385 O   0  0  0  0  0  0  0  0  0  0  0  0
    4.4526    5.7054    2.3782 P   0  0  0  0  0  0  0  0  0  0  0  0
    4.0651    4.2602    2.1628 O   0  0  0  0  0  0  0  0  0  0  0  0
    4.8264    6.3750    1.0856 O   0  0  0  0  0  0  0  0  0  0  0  0
    3.3102    6.4501    3.0385 O   0  0  0  0  0  0  0  0  0  0  0  0
    5.5578    5.8915    0.6707 H   0  0  0  0  0  0  0  0  0  0  0  0
    3.0763    6.0108    3.8711 H   0  0  0  0  0  0  0  0  0  0  0  0
    7.8774    7.8335    2.3327 O   0  0  0  0  0  0  0  0  0  0  0  0
    8.3965    6.6405    1.4094 P   0  0  0  0  0  0  0  0  0  0  0  0
    7.5073    6.4576    0.1898 O   0  0  0  0  0  0  0  0  0  0  0  0
    8.2272    5.4542    2.3451 O   0  0  0  0  0  0  0  0  0  0  0  0
    9.8715    6.8099    1.0925 O   0  0  0  0  0  0  0  0  0  0  0  0
    6.5854    6.3566    0.4740 H   0  0  0  0  0  0  0  0  0  0  0  0
    7.2869    5.3382    2.5533 H   0  0  0  0  0  0  0  0  0  0  0  0
    9.2511    8.6709    4.4151 O   0  0  0  0  0  0  0  0  0  0  0  0
    9.9282    7.4347    5.1463 P   0  0  0  0  0  0  0  0  0  0  0  0
   10.2280    7.8051    6.5772 O   0  0  0  0  0  0  0  0  0  0  0  0
    8.9811    6.2580    5.1170 O   0  0  0  0  0  0  0  0  0  0  0  0
   11.2346    7.1046    4.4705 O   0  0  0  0  0  0  0  0  0  0  0  0
    9.4009    8.0225    7.0350 H   0  0  0  0  0  0  0  0  0  0  0  0
   11.8206    7.8768    4.5048 H   0  0  0  0  0  0  0  0  0  0  0  0
  1 11  1  0  0  0
  1  2  1  0  0  0
  1  7  1  0  0  0
 11 12  1  0  0  0
  2  3  1  0  0  0
  2  4  1  0  0  0
  4 18  1  0  0  0
  4  5  1  0  0  0
 18 19  1  0  0  0
  5 25  1  0  0  0
  5  6  1  0  0  0
 25 26  1  0  0  0
  6 32  1  0  0  0
  6  7  1  0  0  0
 32 33  1  0  0  0
  7  8  1  0  0  0
 12 13  2  0  0  0
 12 14  1  0  0  0
 12 15  1  0  0  0
 19 20  2  0  0  0
 19 21  1  0  0  0
 19 22  1  0  0  0
 26 27  1  0  0  0
 26 28  1  0  0  0
 26 29  2  0  0  0
 33 34  1  0  0  0
 33 35  2  0  0  0
 33 36  1  0  0  0
  3  9  1  0  0  0
  8 10  1  0  0  0
 14 16  1  0  0  0
 15 17  1  0  0  0
 21 23  1  0  0  0
 22 24  1  0  0  0
 27 30  1  0  0  0
 28 31  1  0  0  0
 34 37  1  0  0  0
 36 38  1  0  0  0
M  END
> <minimizedAffinity>
-5.90847

$$$$
5D3X_4IP_A_501


 38 38  0  0  0  0  0  0  0  0999 V2000
    8.3070    7.5680    4.9946 C   0  0  0  0  0  0  0  0  0  0  0  0
    7.4060    7.5432    6.2173 C   0  0  0  0  0  0  0  0  0  0  0  0
    7.3500    6.2458    6.7748 O   0  0  0  0  0  0  0  0  0  0  0  0
    6.0080    8.0396    5.8460 C   0  0  0  0  0  0  0  0  0  0  0  0
    5.5462    7.7728    4.3835 C   0  0  0  0  0  0  0  0  0  0  0  0
    6.4923    6.9783    3.4367 C   0  0  0  0  0  0  0  0  0  0  0  0
    7.8209    6.5276    4.0106 C   0  0  0  0  0  0  0  0  0  0  0  0
    8.7277    6.4592    2.9247 O   0  0  0  0  0  0  0  0  0  0  0  0
    6.9819    5.6293    6.1227 H   0  0  0  0  0  0  0  0  0  0  0  0
    8.7835    7.3271    2.4950 H   0  0  0  0  0  0  0  0  0  0  0  0
    9.6590    7.3448    5.3502 O   0  0  0  0  0  0  0  0  0  0  0  0
   10.6732    8.5655    5.3350 P   0  0  0  0  0  0  0  0  0  0  0  0
    9.9123    9.8762    5.3295 O   0  0  0  0  0  0  0  0  0  0  0  0
   11.5570    8.4900    4.1094 O   0  0  0  0  0  0  0  0  0  0  0  0
   11.5300    8.4910    6.5798 O   0  0  0  0  0  0  0  0  0  0  0  0
   11.0078    8.5377    3.3113 H   0  0  0  0  0  0  0  0  0  0  0  0
   10.9635    8.5393    7.3656 H   0  0  0  0  0  0  0  0  0  0  0  0
    5.0937    7.8158    6.9159 O   0  0  0  0  0  0  0  0  0  0  0  0
    4.5756    9.1710    7.6097 P   0  0  0  0  0  0  0  0  0  0  0  0
    3.7967   10.0469    6.6551 O   0  0  0  0  0  0  0  0  0  0  0  0
    5.8068    9.8672    8.1179 O   0  0  0  0  0  0  0  0  0  0  0  0
    3.6912    8.7643    8.7708 O   0  0  0  0  0  0  0  0  0  0  0  0
    6.3661   10.1235    7.3680 H   0  0  0  0  0  0  0  0  0  0  0  0
    2.8999    8.3162    8.4330 H   0  0  0  0  0  0  0  0  0  0  0  0
    4.1854    7.5315    3.9844 O   0  0  0  0  0  0  0  0  0  0  0  0
    2.8957    8.2996    3.4442 P   0  0  0  0  0  0  0  0  0  0  0  0
    2.0709    8.8681    4.5879 O   0  0  0  0  0  0  0  0  0  0  0  0
    2.1344    7.1607    2.7848 O   0  0  0  0  0  0  0  0  0  0  0  0
    3.2806    9.3135    2.3819 O   0  0  0  0  0  0  0  0  0  0  0  0
    1.8666    8.1624    5.2211 H   0  0  0  0  0  0  0  0  0  0  0  0
    1.8841    6.5074    3.4567 H   0  0  0  0  0  0  0  0  0  0  0  0
    5.8531    5.8958    2.7726 O   0  0  0  0  0  0  0  0  0  0  0  0
    5.6765    5.9961    1.1977 P   0  0  0  0  0  0  0  0  0  0  0  0
    6.9260    6.5852    0.5926 O   0  0  0  0  0  0  0  0  0  0  0  0
    5.4449    4.6142    0.6329 O   0  0  0  0  0  0  0  0  0  0  0  0
    4.5283    6.9190    0.8783 O   0  0  0  0  0  0  0  0  0  0  0  0
    7.6815    6.0080    0.7848 H   0  0  0  0  0  0  0  0  0  0  0  0
    4.7048    7.7963    1.2526 H   0  0  0  0  0  0  0  0  0  0  0  0
  1 11  1  0  0  0
  1  2  1  0  0  0
  1  7  1  0  0  0
 11 12  1  0  0  0
  2  3  1  0  0  0
  2  4  1  0  0  0
  4 18  1  0  0  0
  4  5  1  0  0  0
 18 19  1  0  0  0
  5 25  1  0  0  0
  5  6  1  0  0  0
 25 26  1  0  0  0
  6 32  1  0  0  0
  6  7  1  0  0  0
 32 33  1  0  0  0
  7  8  1  0  0  0
 12 13  2  0  0  0
 12 14  1  0  0  0
 12 15  1  0  0  0
 19 20  2  0  0  0
 19 21  1  0  0  0
 19 22  1  0  0  0
 26 27  1  0  0  0
 26 28  1  0  0  0
 26 29  2  0  0  0
 33 34  1  0  0  0
 33 35  2  0  0  0
 33 36  1  0  0  0
  3  9  1  0  0  0
  8 10  1  0  0  0
 14 16  1  0  0  0
 15 17  1  0  0  0
 21 23  1  0  0  0
 22 24  1  0  0  0
 27 30  1  0  0  0
 28 31  1  0  0  0
 34 37  1  0  0  0
 36 38  1  0  0  0
M  END
> <minimizedAffinity>
-5.86871

$$$$
