3F34_DIE_A_2001


 12 12  0  0  0  0  0  0  0  0999 V2000
   34.6939    0.2345   35.3010 C   0  0  0  0  0  0  0  0  0  0  0  0
   35.3899   -0.5497   36.2061 C   0  0  0  0  0  0  0  0  0  0  0  0
   34.7316   -1.2615   37.1990 C   0  0  0  0  0  0  0  0  0  0  0  0
   33.3533   -1.1914   37.3168 C   0  0  0  0  0  0  0  0  0  0  0  0
   32.6247   -0.4033   36.4334 C   0  0  0  0  0  0  0  0  0  0  0  0
   33.3028    0.3002   35.4369 C   0  0  0  0  0  0  0  0  0  0  0  0
   32.5782    1.0667   34.5752 O   0  0  0  0  0  0  0  0  0  0  0  0
   33.0118    1.5480   33.8982 H   0  0  0  0  0  0  0  0  0  0  0  0
   37.0574    0.9741   34.5040 C   0  0  0  0  0  0  0  0  0  0  0  0
   35.5412    0.9869   34.2505 C   0  0  0  0  0  0  0  0  0  0  0  0
   31.0971   -0.3611   36.6048 C   0  0  0  0  0  0  0  0  0  0  0  0
   30.3976   -1.3562   35.6721 C   0  0  0  0  0  0  0  0  0  0  0  0
  9 10  1  0  0  0
 10  1  1  0  0  0
  1  2  2  0  0  0
  1  6  1  0  0  0
  2  3  1  0  0  0
  3  4  2  0  0  0
  4  5  1  0  0  0
  5 11  1  0  0  0
  5  6  2  0  0  0
 11 12  1  0  0  0
  6  7  1  0  0  0
  7  8  1  0  0  0
M  END
> <minimizedAffinity>
-6.43543

$$$$
3F34_DIE_A_2001


 12 12  0  0  0  0  0  0  0  0999 V2000
   36.4410    0.3955   32.6055 C   0  0  0  0  0  0  0  0  0  0  0  0
   37.2967    1.2008   33.3388 C   0  0  0  0  0  0  0  0  0  0  0  0
   37.1896    1.2980   34.7190 C   0  0  0  0  0  0  0  0  0  0  0  0
   36.2068    0.5969   35.3980 C   0  0  0  0  0  0  0  0  0  0  0  0
   35.3226   -0.2103   34.6918 C   0  0  0  0  0  0  0  0  0  0  0  0
   35.4495   -0.3013   33.3050 C   0  0  0  0  0  0  0  0  0  0  0  0
   34.5794   -1.0977   32.6239 O   0  0  0  0  0  0  0  0  0  0  0  0
   34.6454   -1.1744   31.6924 H   0  0  0  0  0  0  0  0  0  0  0  0
   35.6524    1.2228   30.2684 C   0  0  0  0  0  0  0  0  0  0  0  0
   36.6544    0.3811   31.0752 C   0  0  0  0  0  0  0  0  0  0  0  0
   34.2513   -0.9695   35.4922 C   0  0  0  0  0  0  0  0  0  0  0  0
   34.5542   -0.9544   36.9947 C   0  0  0  0  0  0  0  0  0  0  0  0
  9 10  1  0  0  0
 10  1  1  0  0  0
  1  2  2  0  0  0
  1  6  1  0  0  0
  2  3  1  0  0  0
  3  4  2  0  0  0
  4  5  1  0  0  0
  5 11  1  0  0  0
  5  6  2  0  0  0
 11 12  1  0  0  0
  6  7  1  0  0  0
  7  8  1  0  0  0
M  END
> <minimizedAffinity>
-6.42588

$$$$
3F34_DIE_A_2001


 12 12  0  0  0  0  0  0  0  0999 V2000
   33.2787   -0.9976   35.7777 C   0  0  0  0  0  0  0  0  0  0  0  0
   33.3493   -0.3257   36.9869 C   0  0  0  0  0  0  0  0  0  0  0  0
   34.4997    0.3490   37.3707 C   0  0  0  0  0  0  0  0  0  0  0  0
   35.6172    0.3532   36.5524 C   0  0  0  0  0  0  0  0  0  0  0  0
   35.5854   -0.3222   35.3379 C   0  0  0  0  0  0  0  0  0  0  0  0
   34.4178   -0.9895   34.9651 C   0  0  0  0  0  0  0  0  0  0  0  0
   34.3973   -1.6453   33.7715 O   0  0  0  0  0  0  0  0  0  0  0  0
   33.6244   -2.1003   33.5002 H   0  0  0  0  0  0  0  0  0  0  0  0
   30.6803   -0.9648   35.9024 C   0  0  0  0  0  0  0  0  0  0  0  0
   31.9477   -1.7198   35.4701 C   0  0  0  0  0  0  0  0  0  0  0  0
   36.8509   -0.2851   34.4651 C   0  0  0  0  0  0  0  0  0  0  0  0
   37.1163    1.1214   33.9167 C   0  0  0  0  0  0  0  0  0  0  0  0
  9 10  1  0  0  0
 10  1  1  0  0  0
  1  2  2  0  0  0
  1  6  1  0  0  0
  2  3  1  0  0  0
  3  4  2  0  0  0
  4  5  1  0  0  0
  5 11  1  0  0  0
  5  6  2  0  0  0
 11 12  1  0  0  0
  6  7  1  0  0  0
  7  8  1  0  0  0
M  END
> <minimizedAffinity>
-6.32003

$$$$
3F34_DIE_A_2001


 12 12  0  0  0  0  0  0  0  0999 V2000
   35.7902    0.9613   33.2916 C   0  0  0  0  0  0  0  0  0  0  0  0
   36.9923    0.2772   33.3644 C   0  0  0  0  0  0  0  0  0  0  0  0
   37.3717   -0.3932   34.5187 C   0  0  0  0  0  0  0  0  0  0  0  0
   36.5559   -0.3808   35.6381 C   0  0  0  0  0  0  0  0  0  0  0  0
   35.3485    0.3072   35.6041 C   0  0  0  0  0  0  0  0  0  0  0  0
   34.9801    0.9700   34.4325 C   0  0  0  0  0  0  0  0  0  0  0  0
   33.7935    1.6382   34.4099 O   0  0  0  0  0  0  0  0  0  0  0  0
   33.5252    2.0905   33.6344 H   0  0  0  0  0  0  0  0  0  0  0  0
   36.0161    0.9663   30.6998 C   0  0  0  0  0  0  0  0  0  0  0  0
   35.4871    1.6771   31.9561 C   0  0  0  0  0  0  0  0  0  0  0  0
   34.4783    0.2884   36.8717 C   0  0  0  0  0  0  0  0  0  0  0  0
   33.8766   -1.0989   37.1218 C   0  0  0  0  0  0  0  0  0  0  0  0
  9 10  1  0  0  0
 10  1  1  0  0  0
  1  2  2  0  0  0
  1  6  1  0  0  0
  2  3  1  0  0  0
  3  4  2  0  0  0
  4  5  1  0  0  0
  5 11  1  0  0  0
  5  6  2  0  0  0
 11 12  1  0  0  0
  6  7  1  0  0  0
  7  8  1  0  0  0
M  END
> <minimizedAffinity>
-6.31537

$$$$
3F34_DIE_A_2001


 12 12  0  0  0  0  0  0  0  0999 V2000
   35.6648   -0.1195   35.3658 C   0  0  0  0  0  0  0  0  0  0  0  0
   35.6055    0.6370   36.5246 C   0  0  0  0  0  0  0  0  0  0  0  0
   34.4652    0.6565   37.3153 C   0  0  0  0  0  0  0  0  0  0  0  0
   33.3464   -0.0751   36.9522 C   0  0  0  0  0  0  0  0  0  0  0  0
   33.3670   -0.8348   35.7883 C   0  0  0  0  0  0  0  0  0  0  0  0
   34.5247   -0.8479   35.0091 C   0  0  0  0  0  0  0  0  0  0  0  0
   34.5341   -1.5983   33.8725 O   0  0  0  0  0  0  0  0  0  0  0  0
   35.3002   -1.6225   33.3334 H   0  0  0  0  0  0  0  0  0  0  0  0
   37.0995    1.1407   33.5989 C   0  0  0  0  0  0  0  0  0  0  0  0
   36.9852   -0.0485   34.5663 C   0  0  0  0  0  0  0  0  0  0  0  0
   32.1007   -1.6307   35.4309 C   0  0  0  0  0  0  0  0  0  0  0  0
   30.8494   -1.0141   36.0661 C   0  0  0  0  0  0  0  0  0  0  0  0
  9 10  1  0  0  0
 10  1  1  0  0  0
  1  2  2  0  0  0
  1  6  1  0  0  0
  2  3  1  0  0  0
  3  4  2  0  0  0
  4  5  1  0  0  0
  5 11  1  0  0  0
  5  6  2  0  0  0
 11 12  1  0  0  0
  6  7  1  0  0  0
  7  8  1  0  0  0
M  END
> <minimizedAffinity>
-6.31512

$$$$
3F34_DIE_A_2001


 12 12  0  0  0  0  0  0  0  0999 V2000
   35.4063   -0.0888   35.7054 C   0  0  0  0  0  0  0  0  0  0  0  0
   36.5080   -0.9071   35.5184 C   0  0  0  0  0  0  0  0  0  0  0  0
   37.2228   -0.8934   34.3290 C   0  0  0  0  0  0  0  0  0  0  0  0
   36.8381   -0.0643   33.2882 C   0  0  0  0  0  0  0  0  0  0  0  0
   35.7291    0.7603   33.4371 C   0  0  0  0  0  0  0  0  0  0  0  0
   35.0263    0.7383   34.6426 C   0  0  0  0  0  0  0  0  0  0  0  0
   33.9431    1.5528   34.7780 O   0  0  0  0  0  0  0  0  0  0  0  0
   33.4558    1.5551   35.5783 H   0  0  0  0  0  0  0  0  0  0  0  0
   33.5149   -1.1974   37.1061 C   0  0  0  0  0  0  0  0  0  0  0  0
   34.6881   -0.2047   37.0687 C   0  0  0  0  0  0  0  0  0  0  0  0
   35.3448    1.6634   32.2533 C   0  0  0  0  0  0  0  0  0  0  0  0
   35.9535    1.1602   30.9396 C   0  0  0  0  0  0  0  0  0  0  0  0
  9 10  1  0  0  0
 10  1  1  0  0  0
  1  2  2  0  0  0
  1  6  1  0  0  0
  2  3  1  0  0  0
  3  4  2  0  0  0
  4  5  1  0  0  0
  5 11  1  0  0  0
  5  6  2  0  0  0
 11 12  1  0  0  0
  6  7  1  0  0  0
  7  8  1  0  0  0
M  END
> <minimizedAffinity>
-6.29769

$$$$
3F34_DIE_A_2001


 12 12  0  0  0  0  0  0  0  0999 V2000
   35.9447    0.2969   33.5479 C   0  0  0  0  0  0  0  0  0  0  0  0
   34.9312    1.2151   33.3286 C   0  0  0  0  0  0  0  0  0  0  0  0
   33.8938    1.3746   34.2364 C   0  0  0  0  0  0  0  0  0  0  0  0
   33.8410    0.6021   35.3849 C   0  0  0  0  0  0  0  0  0  0  0  0
   34.8347   -0.3384   35.6299 C   0  0  0  0  0  0  0  0  0  0  0  0
   35.8739   -0.4804   34.7093 C   0  0  0  0  0  0  0  0  0  0  0  0
   36.8436   -1.4030   34.9614 O   0  0  0  0  0  0  0  0  0  0  0  0
   37.5512   -1.5160   34.3576 H   0  0  0  0  0  0  0  0  0  0  0  0
   36.5792    0.5933   31.0423 C   0  0  0  0  0  0  0  0  0  0  0  0
   37.0361    0.2053   32.4579 C   0  0  0  0  0  0  0  0  0  0  0  0
   34.7316   -1.1690   36.9200 C   0  0  0  0  0  0  0  0  0  0  0  0
   33.2761   -1.3272   37.3736 C   0  0  0  0  0  0  0  0  0  0  0  0
  9 10  1  0  0  0
 10  1  1  0  0  0
  1  2  2  0  0  0
  1  6  1  0  0  0
  2  3  1  0  0  0
  3  4  2  0  0  0
  4  5  1  0  0  0
  5 11  1  0  0  0
  5  6  2  0  0  0
 11 12  1  0  0  0
  6  7  1  0  0  0
  7  8  1  0  0  0
M  END
> <minimizedAffinity>
-6.13345

$$$$
3F34_DIE_A_2001


 12 12  0  0  0  0  0  0  0  0999 V2000
   33.6397   -0.2439   35.8952 C   0  0  0  0  0  0  0  0  0  0  0  0
   33.4011   -1.1840   34.9064 C   0  0  0  0  0  0  0  0  0  0  0  0
   34.3013   -1.3839   33.8693 C   0  0  0  0  0  0  0  0  0  0  0  0
   35.4613   -0.6309   33.7915 C   0  0  0  0  0  0  0  0  0  0  0  0
   35.7256    0.3307   34.7599 C   0  0  0  0  0  0  0  0  0  0  0  0
   34.8124    0.5132   35.7993 C   0  0  0  0  0  0  0  0  0  0  0  0
   35.0835    1.4562   36.7440 O   0  0  0  0  0  0  0  0  0  0  0  0
   34.4850    1.5965   37.4512 H   0  0  0  0  0  0  0  0  0  0  0  0
   31.1614   -0.6177   36.5930 C   0  0  0  0  0  0  0  0  0  0  0  0
   32.5566   -0.1077   36.9888 C   0  0  0  0  0  0  0  0  0  0  0  0
   37.0278    1.1382   34.6298 C   0  0  0  0  0  0  0  0  0  0  0  0
   37.3908    1.3896   33.1620 C   0  0  0  0  0  0  0  0  0  0  0  0
  9 10  1  0  0  0
 10  1  1  0  0  0
  1  2  2  0  0  0
  1  6  1  0  0  0
  2  3  1  0  0  0
  3  4  2  0  0  0
  4  5  1  0  0  0
  5 11  1  0  0  0
  5  6  2  0  0  0
 11 12  1  0  0  0
  6  7  1  0  0  0
  7  8  1  0  0  0
M  END
> <minimizedAffinity>
-6.12926

$$$$
3F34_DIE_A_2001


 12 12  0  0  0  0  0  0  0  0999 V2000
   35.6547    0.3299   34.8084 C   0  0  0  0  0  0  0  0  0  0  0  0
   35.3944   -0.6298   33.8442 C   0  0  0  0  0  0  0  0  0  0  0  0
   34.2477   -1.4098   33.8944 C   0  0  0  0  0  0  0  0  0  0  0  0
   33.3374   -1.2543   34.9268 C   0  0  0  0  0  0  0  0  0  0  0  0
   33.5741   -0.3095   35.9186 C   0  0  0  0  0  0  0  0  0  0  0  0
   34.7291    0.4706   35.8482 C   0  0  0  0  0  0  0  0  0  0  0  0
   34.9489    1.3952   36.8240 O   0  0  0  0  0  0  0  0  0  0  0  0
   35.7175    1.9305   36.7976 H   0  0  0  0  0  0  0  0  0  0  0  0
   37.4028    1.3854   33.1963 C   0  0  0  0  0  0  0  0  0  0  0  0
   36.9699    1.1251   34.6483 C   0  0  0  0  0  0  0  0  0  0  0  0
   32.5321   -0.1743   37.0413 C   0  0  0  0  0  0  0  0  0  0  0  0
   31.1384   -0.6064   36.5719 C   0  0  0  0  0  0  0  0  0  0  0  0
  9 10  1  0  0  0
 10  1  1  0  0  0
  1  2  2  0  0  0
  1  6  1  0  0  0
  2  3  1  0  0  0
  3  4  2  0  0  0
  4  5  1  0  0  0
  5 11  1  0  0  0
  5  6  2  0  0  0
 11 12  1  0  0  0
  6  7  1  0  0  0
  7  8  1  0  0  0
M  END
> <minimizedAffinity>
-6.11047

$$$$
3F34_DIE_A_2001


 12 12  0  0  0  0  0  0  0  0999 V2000
   35.2201   -0.1885   34.5777 C   0  0  0  0  0  0  0  0  0  0  0  0
   36.1203    0.5762   35.3011 C   0  0  0  0  0  0  0  0  0  0  0  0
   37.1478    1.2664   34.6735 C   0  0  0  0  0  0  0  0  0  0  0  0
   37.3057    1.1935   33.2994 C   0  0  0  0  0  0  0  0  0  0  0  0
   36.4280    0.4245   32.5441 C   0  0  0  0  0  0  0  0  0  0  0  0
   35.3966   -0.2573   33.1913 C   0  0  0  0  0  0  0  0  0  0  0  0
   34.5409   -1.0053   32.4406 O   0  0  0  0  0  0  0  0  0  0  0  0
   33.8409   -1.4718   32.8533 H   0  0  0  0  0  0  0  0  0  0  0  0
   32.7446   -0.2487   35.3756 C   0  0  0  0  0  0  0  0  0  0  0  0
   34.1285   -0.9180   35.3924 C   0  0  0  0  0  0  0  0  0  0  0  0
   36.6446    0.3784   31.0224 C   0  0  0  0  0  0  0  0  0  0  0  0
   35.7005    1.3379   30.2893 C   0  0  0  0  0  0  0  0  0  0  0  0
  9 10  1  0  0  0
 10  1  1  0  0  0
  1  2  2  0  0  0
  1  6  1  0  0  0
  2  3  1  0  0  0
  3  4  2  0  0  0
  4  5  1  0  0  0
  5 11  1  0  0  0
  5  6  2  0  0  0
 11 12  1  0  0  0
  6  7  1  0  0  0
  7  8  1  0  0  0
M  END
> <minimizedAffinity>
-6.08382

$$$$
