1V2R_ANH_T_800


 35 36  0  0  0  0  0  0  0  0999 V2000
   -2.1179   17.6897   17.4815 C   0  0  0  0  0  0  0  0  0  0  0  0
   -1.5568   18.8514   18.2543 N   0  0  0  0  0  0  0  0  0  0  0  0
   -0.3084   18.9042   18.7496 C   0  0  0  0  0  0  0  0  0  0  0  0
    0.4453   17.9303   18.7737 O   0  0  0  0  0  0  0  0  0  0  0  0
   -2.1442   19.6264   18.4080 H   0  0  0  0  0  0  0  0  0  0  0  0
    0.1877   20.2207   19.3343 C   0  0  0  0  0  0  0  0  0  0  0  0
    1.0434   20.9436   18.3630 N   0  0  0  0  0  0  0  0  0  0  0  0
    0.6633   21.8866   18.2817 H   0  0  0  0  0  0  0  0  0  0  0  0
    2.6904   21.1090   18.6483 S   0  0  0  0  0  0  0  0  0  0  0  0
    2.9700   22.6669   18.7918 O   0  0  0  0  0  0  0  0  0  0  0  0
    2.8792   20.2318   19.9339 O   0  0  0  0  0  0  0  0  0  0  0  0
    6.0377   18.7953   14.2061 C   0  0  0  0  0  0  0  0  0  0  0  0
    5.1506   19.3119   15.2721 C   0  0  0  0  0  0  0  0  0  0  0  0
    3.7812   18.8926   15.4015 C   0  0  0  0  0  0  0  0  0  0  0  0
    2.9737   19.4361   16.4597 C   0  0  0  0  0  0  0  0  0  0  0  0
    3.5810   20.3944   17.3487 C   0  0  0  0  0  0  0  0  0  0  0  0
    4.9322   20.7973   17.2080 C   0  0  0  0  0  0  0  0  0  0  0  0
    5.7008   20.2549   16.1751 C   0  0  0  0  0  0  0  0  0  0  0  0
   -3.1707   18.0189   16.3138 C   0  0  0  0  0  0  0  0  0  0  0  0
   -2.7796   18.7248   15.3530 O   0  0  0  0  0  0  0  0  0  0  0  0
   -4.5136   17.5091   16.3965 O   0  0  0  0  0  0  0  0  0  0  0  0
   -5.7411   18.2890   16.6612 C   0  0  0  0  0  0  0  0  0  0  0  0
   -2.7448   16.6947   18.4637 C   0  0  0  0  0  0  0  0  0  0  0  0
   -2.3216   15.2359   18.3180 C   0  0  0  0  0  0  0  0  0  0  0  0
   -1.7161   14.5924   19.4242 C   0  0  0  0  0  0  0  0  0  0  0  0
   -1.3011   13.2343   19.3433 C   0  0  0  0  0  0  0  0  0  0  0  0
   -1.4964   12.5097   18.1384 C   0  0  0  0  0  0  0  0  0  0  0  0
   -2.1146   13.1121   16.9567 C   0  0  0  0  0  0  0  0  0  0  0  0
   -2.5245   14.5031   17.0839 C   0  0  0  0  0  0  0  0  0  0  0  0
   -2.2981   12.3670   15.7727 C   0  0  0  0  0  0  0  0  0  0  0  0
   -3.0174   12.7515   14.7356 N   0  0  0  0  0  0  0  0  0  0  0  0
   -1.7692   11.1674   15.5488 N   0  0  0  0  0  0  0  0  0  0  0  0
   -3.4752   13.6230   14.7499 H   0  0  0  0  0  0  0  0  0  0  0  0
   -3.0963   12.1669   13.9474 H   0  0  0  0  0  0  0  0  0  0  0  0
   -1.2034   10.7433   16.2338 H   0  0  0  0  0  0  0  0  0  0  0  0
  2  1  1  0  0  0
  2  3  1  0  0  0
  1 23  1  0  0  0
  1 19  1  0  0  0
 23 24  1  0  0  0
 19 20  2  0  0  0
 19 21  1  0  0  0
 21 22  1  0  0  0
 24 25  2  0  0  0
 24 29  1  0  0  0
 25 26  1  0  0  0
 26 27  2  0  0  0
 27 28  1  0  0  0
 28 29  2  0  0  0
 28 30  1  0  0  0
 30 31  1  0  0  0
 30 32  2  0  0  0
  3  6  1  0  0  0
  3  4  2  0  0  0
  6  7  1  0  0  0
  7  9  1  0  0  0
 12 13  1  0  0  0
 13 14  1  0  0  0
 13 18  2  0  0  0
 14 15  2  0  0  0
 15 16  1  0  0  0
 16 17  2  0  0  0
 16  9  1  0  0  0
 17 18  1  0  0  0
  9 10  2  0  0  0
  9 11  2  0  0  0
  2  5  1  0  0  0
 31 33  1  0  0  0
 31 34  1  0  0  0
 32 35  1  0  0  0
  7  8  1  0  0  0
M  END
> <minimizedAffinity>
-7.88512

$$$$
1V2R_ANH_T_800


 35 36  0  0  0  0  0  0  0  0999 V2000
   -2.3044   17.7939   17.5756 C   0  0  0  0  0  0  0  0  0  0  0  0
   -1.0667   18.2206   18.3155 N   0  0  0  0  0  0  0  0  0  0  0  0
    0.1783   17.8127   18.0151 C   0  0  0  0  0  0  0  0  0  0  0  0
    0.4122   16.9070   17.2138 O   0  0  0  0  0  0  0  0  0  0  0  0
   -1.1758   18.8413   19.0719 H   0  0  0  0  0  0  0  0  0  0  0  0
    1.3530   18.4808   18.7186 C   0  0  0  0  0  0  0  0  0  0  0  0
    1.1762   19.9521   18.7655 N   0  0  0  0  0  0  0  0  0  0  0  0
    1.8187   20.3025   19.4761 H   0  0  0  0  0  0  0  0  0  0  0  0
    1.4289   20.8772   17.3866 S   0  0  0  0  0  0  0  0  0  0  0  0
    0.1252   20.7196   16.4915 O   0  0  0  0  0  0  0  0  0  0  0  0
    1.7022   22.2936   18.0006 O   0  0  0  0  0  0  0  0  0  0  0  0
    6.2213   18.8193   14.3718 C   0  0  0  0  0  0  0  0  0  0  0  0
    5.0980   19.3719   15.1612 C   0  0  0  0  0  0  0  0  0  0  0  0
    5.3055   20.2495   16.2813 C   0  0  0  0  0  0  0  0  0  0  0  0
    4.1689   20.7491   17.0065 C   0  0  0  0  0  0  0  0  0  0  0  0
    2.8574   20.3349   16.5753 C   0  0  0  0  0  0  0  0  0  0  0  0
    2.6695   19.4694   15.4692 C   0  0  0  0  0  0  0  0  0  0  0  0
    3.7870   18.9977   14.7759 C   0  0  0  0  0  0  0  0  0  0  0  0
   -3.3519   18.9406   17.1654 C   0  0  0  0  0  0  0  0  0  0  0  0
   -3.0673   20.1272   17.4578 O   0  0  0  0  0  0  0  0  0  0  0  0
   -4.5709   18.5871   16.4878 O   0  0  0  0  0  0  0  0  0  0  0  0
   -5.6092   19.5156   15.9932 C   0  0  0  0  0  0  0  0  0  0  0  0
   -3.0259   16.7166   18.3921 C   0  0  0  0  0  0  0  0  0  0  0  0
   -2.4922   15.2930   18.2631 C   0  0  0  0  0  0  0  0  0  0  0  0
   -1.8114   14.7222   19.3654 C   0  0  0  0  0  0  0  0  0  0  0  0
   -1.2922   13.3996   19.2995 C   0  0  0  0  0  0  0  0  0  0  0  0
   -1.4581   12.6370   18.1136 C   0  0  0  0  0  0  0  0  0  0  0  0
   -2.1501   13.1644   16.9370 C   0  0  0  0  0  0  0  0  0  0  0  0
   -2.6656   14.5211   17.0484 C   0  0  0  0  0  0  0  0  0  0  0  0
   -2.3021   12.3829   15.7722 C   0  0  0  0  0  0  0  0  0  0  0  0
   -1.7895   11.1808   15.5903 N   0  0  0  0  0  0  0  0  0  0  0  0
   -2.9835   12.7624   14.6949 N   0  0  0  0  0  0  0  0  0  0  0  0
   -1.2551   10.7606   16.3024 H   0  0  0  0  0  0  0  0  0  0  0  0
   -1.9415   10.7040   14.7424 H   0  0  0  0  0  0  0  0  0  0  0  0
   -3.4271   13.6411   14.6772 H   0  0  0  0  0  0  0  0  0  0  0  0
  2  1  1  0  0  0
  2  3  1  0  0  0
  1 23  1  0  0  0
  1 19  1  0  0  0
 23 24  1  0  0  0
 19 20  2  0  0  0
 19 21  1  0  0  0
 21 22  1  0  0  0
 24 25  2  0  0  0
 24 29  1  0  0  0
 25 26  1  0  0  0
 26 27  2  0  0  0
 27 28  1  0  0  0
 28 29  2  0  0  0
 28 30  1  0  0  0
 30 31  1  0  0  0
 30 32  2  0  0  0
  3  6  1  0  0  0
  3  4  2  0  0  0
  6  7  1  0  0  0
  7  9  1  0  0  0
 12 13  1  0  0  0
 13 14  1  0  0  0
 13 18  2  0  0  0
 14 15  2  0  0  0
 15 16  1  0  0  0
 16 17  2  0  0  0
 16  9  1  0  0  0
 17 18  1  0  0  0
  9 10  2  0  0  0
  9 11  2  0  0  0
  2  5  1  0  0  0
 31 33  1  0  0  0
 31 34  1  0  0  0
 32 35  1  0  0  0
  7  8  1  0  0  0
M  END
> <minimizedAffinity>
-7.66474

$$$$
1V2R_ANH_T_800


 35 36  0  0  0  0  0  0  0  0999 V2000
   -3.2796   17.3106   17.6028 C   0  0  0  0  0  0  0  0  0  0  0  0
   -2.1169   18.1127   17.0865 N   0  0  0  0  0  0  0  0  0  0  0  0
   -2.1694   18.9294   16.0203 C   0  0  0  0  0  0  0  0  0  0  0  0
   -3.1302   18.9663   15.2503 O   0  0  0  0  0  0  0  0  0  0  0  0
   -1.2585   18.0342   17.5620 H   0  0  0  0  0  0  0  0  0  0  0  0
   -0.9746   19.8302   15.7337 C   0  0  0  0  0  0  0  0  0  0  0  0
    0.2988   19.0851   15.8803 N   0  0  0  0  0  0  0  0  0  0  0  0
    0.7945   19.1733   14.9932 H   0  0  0  0  0  0  0  0  0  0  0  0
    1.3888   19.5052   17.0872 S   0  0  0  0  0  0  0  0  0  0  0  0
    2.7788   18.8445   16.6908 O   0  0  0  0  0  0  0  0  0  0  0  0
    1.3109   21.0707   17.0538 O   0  0  0  0  0  0  0  0  0  0  0  0
   -0.4969   17.2983   22.3659 C   0  0  0  0  0  0  0  0  0  0  0  0
   -0.0739   17.9148   21.0886 C   0  0  0  0  0  0  0  0  0  0  0  0
   -0.4877   19.2358   20.6996 C   0  0  0  0  0  0  0  0  0  0  0  0
   -0.0414   19.7739   19.4432 C   0  0  0  0  0  0  0  0  0  0  0  0
    0.8052   18.9495   18.6180 C   0  0  0  0  0  0  0  0  0  0  0  0
    1.2045   17.6494   19.0157 C   0  0  0  0  0  0  0  0  0  0  0  0
    0.7626   17.1462   20.2418 C   0  0  0  0  0  0  0  0  0  0  0  0
   -4.5981   18.1178   18.0388 C   0  0  0  0  0  0  0  0  0  0  0  0
   -4.5135   18.8928   19.0220 O   0  0  0  0  0  0  0  0  0  0  0  0
   -5.8237   17.9346   17.3078 O   0  0  0  0  0  0  0  0  0  0  0  0
   -7.1752   17.7520   17.8782 C   0  0  0  0  0  0  0  0  0  0  0  0
   -2.8053   16.4437   18.7738 C   0  0  0  0  0  0  0  0  0  0  0  0
   -2.1928   15.0926   18.4164 C   0  0  0  0  0  0  0  0  0  0  0  0
   -1.2251   14.5359   19.2871 C   0  0  0  0  0  0  0  0  0  0  0  0
   -0.6208   13.2802   19.0021 C   0  0  0  0  0  0  0  0  0  0  0  0
   -0.9915   12.5711   17.8295 C   0  0  0  0  0  0  0  0  0  0  0  0
   -1.9836   13.0876   16.8859 C   0  0  0  0  0  0  0  0  0  0  0  0
   -2.5768   14.3751   17.2169 C   0  0  0  0  0  0  0  0  0  0  0  0
   -2.3343   12.3599   15.7291 C   0  0  0  0  0  0  0  0  0  0  0  0
   -1.8105   11.2034   15.3699 N   0  0  0  0  0  0  0  0  0  0  0  0
   -3.2428   12.7516   14.8402 N   0  0  0  0  0  0  0  0  0  0  0  0
   -1.1194   10.7810   15.9295 H   0  0  0  0  0  0  0  0  0  0  0  0
   -2.1108   10.7629   14.5422 H   0  0  0  0  0  0  0  0  0  0  0  0
   -3.7243   13.6005   14.9698 H   0  0  0  0  0  0  0  0  0  0  0  0
  2  1  1  0  0  0
  2  3  1  0  0  0
  1 23  1  0  0  0
  1 19  1  0  0  0
 23 24  1  0  0  0
 19 20  2  0  0  0
 19 21  1  0  0  0
 21 22  1  0  0  0
 24 25  2  0  0  0
 24 29  1  0  0  0
 25 26  1  0  0  0
 26 27  2  0  0  0
 27 28  1  0  0  0
 28 29  2  0  0  0
 28 30  1  0  0  0
 30 31  1  0  0  0
 30 32  2  0  0  0
  3  6  1  0  0  0
  3  4  2  0  0  0
  6  7  1  0  0  0
  7  9  1  0  0  0
 12 13  1  0  0  0
 13 14  1  0  0  0
 13 18  2  0  0  0
 14 15  2  0  0  0
 15 16  1  0  0  0
 16 17  2  0  0  0
 16  9  1  0  0  0
 17 18  1  0  0  0
  9 10  2  0  0  0
  9 11  2  0  0  0
  2  5  1  0  0  0
 31 33  1  0  0  0
 31 34  1  0  0  0
 32 35  1  0  0  0
  7  8  1  0  0  0
M  END
> <minimizedAffinity>
-7.57344

$$$$
1V2R_ANH_T_800


 35 36  0  0  0  0  0  0  0  0999 V2000
   -3.3343   17.5078   17.2744 C   0  0  0  0  0  0  0  0  0  0  0  0
   -2.0806   18.3120   17.0670 N   0  0  0  0  0  0  0  0  0  0  0  0
   -1.8402   19.0836   15.9930 C   0  0  0  0  0  0  0  0  0  0  0  0
   -2.5481   19.0695   14.9850 O   0  0  0  0  0  0  0  0  0  0  0  0
   -1.3884   18.2705   17.7659 H   0  0  0  0  0  0  0  0  0  0  0  0
   -0.6205   19.9964   16.0106 C   0  0  0  0  0  0  0  0  0  0  0  0
    0.1451   19.8347   17.2699 N   0  0  0  0  0  0  0  0  0  0  0  0
   -0.5304   19.5945   17.9955 H   0  0  0  0  0  0  0  0  0  0  0  0
    1.3818   18.7022   17.3666 S   0  0  0  0  0  0  0  0  0  0  0  0
    0.7176   17.3497   17.8717 O   0  0  0  0  0  0  0  0  0  0  0  0
    1.9396   18.7160   15.9015 O   0  0  0  0  0  0  0  0  0  0  0  0
    5.5495   20.5118   21.3222 C   0  0  0  0  0  0  0  0  0  0  0  0
    4.5634   20.1181   20.2912 C   0  0  0  0  0  0  0  0  0  0  0  0
    4.5628   20.6894   18.9716 C   0  0  0  0  0  0  0  0  0  0  0  0
    3.5745   20.2629   18.0183 C   0  0  0  0  0  0  0  0  0  0  0  0
    2.6130   19.2748   18.4386 C   0  0  0  0  0  0  0  0  0  0  0  0
    2.6270   18.7212   19.7428 C   0  0  0  0  0  0  0  0  0  0  0  0
    3.5977   19.1466   20.6531 C   0  0  0  0  0  0  0  0  0  0  0  0
   -4.7196   18.3138   17.3807 C   0  0  0  0  0  0  0  0  0  0  0  0
   -5.7047   17.8748   16.7392 O   0  0  0  0  0  0  0  0  0  0  0  0
   -4.7969   19.5001   18.1912 O   0  0  0  0  0  0  0  0  0  0  0  0
   -4.6727   20.8980   17.7271 C   0  0  0  0  0  0  0  0  0  0  0  0
   -3.1621   16.6292   18.5178 C   0  0  0  0  0  0  0  0  0  0  0  0
   -2.4923   15.2744   18.3068 C   0  0  0  0  0  0  0  0  0  0  0  0
   -1.6272   14.7822   19.3136 C   0  0  0  0  0  0  0  0  0  0  0  0
   -0.9757   13.5262   19.1684 C   0  0  0  0  0  0  0  0  0  0  0  0
   -1.1944   12.7513   17.9993 C   0  0  0  0  0  0  0  0  0  0  0  0
   -2.0745   13.1992   16.9193 C   0  0  0  0  0  0  0  0  0  0  0  0
   -2.7209   14.4894   17.1098 C   0  0  0  0  0  0  0  0  0  0  0  0
   -2.2749   12.4069   15.7692 C   0  0  0  0  0  0  0  0  0  0  0  0
   -1.7693   11.2035   15.5767 N   0  0  0  0  0  0  0  0  0  0  0  0
   -3.0018   12.7760   14.7183 N   0  0  0  0  0  0  0  0  0  0  0  0
   -1.2047   10.7902   16.2693 H   0  0  0  0  0  0  0  0  0  0  0  0
   -1.9565   10.7189   14.7405 H   0  0  0  0  0  0  0  0  0  0  0  0
   -3.4467   13.6543   14.7115 H   0  0  0  0  0  0  0  0  0  0  0  0
  2  1  1  0  0  0
  2  3  1  0  0  0
  1 23  1  0  0  0
  1 19  1  0  0  0
 23 24  1  0  0  0
 19 20  2  0  0  0
 19 21  1  0  0  0
 21 22  1  0  0  0
 24 25  2  0  0  0
 24 29  1  0  0  0
 25 26  1  0  0  0
 26 27  2  0  0  0
 27 28  1  0  0  0
 28 29  2  0  0  0
 28 30  1  0  0  0
 30 31  1  0  0  0
 30 32  2  0  0  0
  3  6  1  0  0  0
  3  4  2  0  0  0
  6  7  1  0  0  0
  7  9  1  0  0  0
 12 13  1  0  0  0
 13 14  1  0  0  0
 13 18  2  0  0  0
 14 15  2  0  0  0
 15 16  1  0  0  0
 16 17  2  0  0  0
 16  9  1  0  0  0
 17 18  1  0  0  0
  9 10  2  0  0  0
  9 11  2  0  0  0
  2  5  1  0  0  0
 31 33  1  0  0  0
 31 34  1  0  0  0
 32 35  1  0  0  0
  7  8  1  0  0  0
M  END
> <minimizedAffinity>
-7.57055

$$$$
1V2R_ANH_T_800


 35 36  0  0  0  0  0  0  0  0999 V2000
   -3.3441   17.4801   16.9703 C   0  0  0  0  0  0  0  0  0  0  0  0
   -2.1951   18.4433   16.8540 N   0  0  0  0  0  0  0  0  0  0  0  0
   -1.9322   19.4242   17.7345 C   0  0  0  0  0  0  0  0  0  0  0  0
   -2.7114   19.7460   18.6326 O   0  0  0  0  0  0  0  0  0  0  0  0
   -1.5942   18.3489   16.0799 H   0  0  0  0  0  0  0  0  0  0  0  0
   -0.6238   20.1930   17.5987 C   0  0  0  0  0  0  0  0  0  0  0  0
    0.1968   19.6518   16.4889 N   0  0  0  0  0  0  0  0  0  0  0  0
    0.7140   20.4381   16.0956 H   0  0  0  0  0  0  0  0  0  0  0  0
    1.3166   18.4348   16.7824 S   0  0  0  0  0  0  0  0  0  0  0  0
    0.4822   17.1189   17.0955 O   0  0  0  0  0  0  0  0  0  0  0  0
    2.1532   18.4471   15.4566 O   0  0  0  0  0  0  0  0  0  0  0  0
    5.0121   20.2611   21.1755 C   0  0  0  0  0  0  0  0  0  0  0  0
    4.0735   19.7522   20.1506 C   0  0  0  0  0  0  0  0  0  0  0  0
    3.2290   18.6116   20.3818 C   0  0  0  0  0  0  0  0  0  0  0  0
    2.3409   18.1685   19.3414 C   0  0  0  0  0  0  0  0  0  0  0  0
    2.3446   18.8939   18.0960 C   0  0  0  0  0  0  0  0  0  0  0  0
    3.1829   20.0164   17.8836 C   0  0  0  0  0  0  0  0  0  0  0  0
    4.0362   20.4329   18.9085 C   0  0  0  0  0  0  0  0  0  0  0  0
   -4.8286   18.0866   16.8771 C   0  0  0  0  0  0  0  0  0  0  0  0
   -5.0487   18.9691   16.0127 O   0  0  0  0  0  0  0  0  0  0  0  0
   -5.8517   17.6153   17.7723 O   0  0  0  0  0  0  0  0  0  0  0  0
   -6.9247   18.4212   18.3920 C   0  0  0  0  0  0  0  0  0  0  0  0
   -3.2005   16.6891   18.2747 C   0  0  0  0  0  0  0  0  0  0  0  0
   -2.5579   15.3092   18.1670 C   0  0  0  0  0  0  0  0  0  0  0  0
   -1.8617   14.7968   19.2881 C   0  0  0  0  0  0  0  0  0  0  0  0
   -1.2427   13.5170   19.2425 C   0  0  0  0  0  0  0  0  0  0  0  0
   -1.3230   12.7385   18.0582 C   0  0  0  0  0  0  0  0  0  0  0  0
   -2.0255   13.2065   16.8627 C   0  0  0  0  0  0  0  0  0  0  0  0
   -2.6445   14.5208   16.9537 C   0  0  0  0  0  0  0  0  0  0  0  0
   -2.0910   12.4102   15.6998 C   0  0  0  0  0  0  0  0  0  0  0  0
   -1.3702   11.3278   15.4772 N   0  0  0  0  0  0  0  0  0  0  0  0
   -2.8915   12.6529   14.6657 N   0  0  0  0  0  0  0  0  0  0  0  0
   -0.7266   11.0171   16.1544 H   0  0  0  0  0  0  0  0  0  0  0  0
   -1.4759   10.8307   14.6340 H   0  0  0  0  0  0  0  0  0  0  0  0
   -3.4944   13.4310   14.6818 H   0  0  0  0  0  0  0  0  0  0  0  0
  2  1  1  0  0  0
  2  3  1  0  0  0
  1 23  1  0  0  0
  1 19  1  0  0  0
 23 24  1  0  0  0
 19 20  2  0  0  0
 19 21  1  0  0  0
 21 22  1  0  0  0
 24 25  2  0  0  0
 24 29  1  0  0  0
 25 26  1  0  0  0
 26 27  2  0  0  0
 27 28  1  0  0  0
 28 29  2  0  0  0
 28 30  1  0  0  0
 30 31  1  0  0  0
 30 32  2  0  0  0
  3  6  1  0  0  0
  3  4  2  0  0  0
  6  7  1  0  0  0
  7  9  1  0  0  0
 12 13  1  0  0  0
 13 14  1  0  0  0
 13 18  2  0  0  0
 14 15  2  0  0  0
 15 16  1  0  0  0
 16 17  2  0  0  0
 16  9  1  0  0  0
 17 18  1  0  0  0
  9 10  2  0  0  0
  9 11  2  0  0  0
  2  5  1  0  0  0
 31 33  1  0  0  0
 31 34  1  0  0  0
 32 35  1  0  0  0
  7  8  1  0  0  0
M  END
> <minimizedAffinity>
-7.49545

$$$$
1V2R_ANH_T_800


 35 36  0  0  0  0  0  0  0  0999 V2000
    0.5863   17.4321   18.5185 C   0  0  0  0  0  0  0  0  0  0  0  0
   -0.7387   17.5591   17.8187 N   0  0  0  0  0  0  0  0  0  0  0  0
   -1.3992   16.5369   17.2481 C   0  0  0  0  0  0  0  0  0  0  0  0
   -0.8994   15.4229   17.0855 O   0  0  0  0  0  0  0  0  0  0  0  0
   -1.1507   18.4522   17.7755 H   0  0  0  0  0  0  0  0  0  0  0  0
   -2.8206   16.7740   16.7536 C   0  0  0  0  0  0  0  0  0  0  0  0
   -2.8364   17.7367   15.6262 N   0  0  0  0  0  0  0  0  0  0  0  0
   -3.5547   17.4166   14.9767 H   0  0  0  0  0  0  0  0  0  0  0  0
   -3.1329   19.3653   15.9107 S   0  0  0  0  0  0  0  0  0  0  0  0
   -4.3330   19.7800   14.9549 O   0  0  0  0  0  0  0  0  0  0  0  0
   -3.4178   19.3711   17.4524 O   0  0  0  0  0  0  0  0  0  0  0  0
    1.8517   22.6591   15.1384 C   0  0  0  0  0  0  0  0  0  0  0  0
    0.6364   21.8214   15.2468 C   0  0  0  0  0  0  0  0  0  0  0  0
    0.1258   21.0623   14.1373 C   0  0  0  0  0  0  0  0  0  0  0  0
   -1.0616   20.2703   14.3109 C   0  0  0  0  0  0  0  0  0  0  0  0
   -1.6972   20.2807   15.6045 C   0  0  0  0  0  0  0  0  0  0  0  0
   -1.1814   21.0341   16.6881 C   0  0  0  0  0  0  0  0  0  0  0  0
   -0.0246   21.7945   16.4997 C   0  0  0  0  0  0  0  0  0  0  0  0
    0.5807   16.8268   20.0064 C   0  0  0  0  0  0  0  0  0  0  0  0
    0.2506   15.6248   20.1496 O   0  0  0  0  0  0  0  0  0  0  0  0
    0.9442   17.6621   21.1201 O   0  0  0  0  0  0  0  0  0  0  0  0
    0.0219   18.3691   22.0337 C   0  0  0  0  0  0  0  0  0  0  0  0
    1.2761   18.8002   18.5303 C   0  0  0  0  0  0  0  0  0  0  0  0
    2.2325   19.0905   17.3772 C   0  0  0  0  0  0  0  0  0  0  0  0
    1.9710   18.5030   16.1159 C   0  0  0  0  0  0  0  0  0  0  0  0
    2.8301   18.7384   15.0070 C   0  0  0  0  0  0  0  0  0  0  0  0
    3.9663   19.5751   15.1626 C   0  0  0  0  0  0  0  0  0  0  0  0
    4.2968   20.2136   16.4372 C   0  0  0  0  0  0  0  0  0  0  0  0
    3.3907   19.9459   17.5446 C   0  0  0  0  0  0  0  0  0  0  0  0
    5.4318   21.0423   16.5623 C   0  0  0  0  0  0  0  0  0  0  0  0
    6.3360   20.9548   17.5191 N   0  0  0  0  0  0  0  0  0  0  0  0
    5.7372   22.0314   15.7271 N   0  0  0  0  0  0  0  0  0  0  0  0
    6.2481   20.2670   18.2180 H   0  0  0  0  0  0  0  0  0  0  0  0
    7.0986   21.5773   17.5343 H   0  0  0  0  0  0  0  0  0  0  0  0
    5.1547   22.2229   14.9569 H   0  0  0  0  0  0  0  0  0  0  0  0
  2  1  1  0  0  0
  2  3  1  0  0  0
  1 23  1  0  0  0
  1 19  1  0  0  0
 23 24  1  0  0  0
 19 20  2  0  0  0
 19 21  1  0  0  0
 21 22  1  0  0  0
 24 25  2  0  0  0
 24 29  1  0  0  0
 25 26  1  0  0  0
 26 27  2  0  0  0
 27 28  1  0  0  0
 28 29  2  0  0  0
 28 30  1  0  0  0
 30 31  1  0  0  0
 30 32  2  0  0  0
  3  6  1  0  0  0
  3  4  2  0  0  0
  6  7  1  0  0  0
  7  9  1  0  0  0
 12 13  1  0  0  0
 13 14  1  0  0  0
 13 18  2  0  0  0
 14 15  2  0  0  0
 15 16  1  0  0  0
 16 17  2  0  0  0
 16  9  1  0  0  0
 17 18  1  0  0  0
  9 10  2  0  0  0
  9 11  2  0  0  0
  2  5  1  0  0  0
 31 33  1  0  0  0
 31 34  1  0  0  0
 32 35  1  0  0  0
  7  8  1  0  0  0
M  END
> <minimizedAffinity>
-7.34487

$$$$
1V2R_ANH_T_800


 35 36  0  0  0  0  0  0  0  0999 V2000
   -1.9171   17.6223   17.1997 C   0  0  0  0  0  0  0  0  0  0  0  0
   -1.2460   18.5428   16.2180 N   0  0  0  0  0  0  0  0  0  0  0  0
   -1.8966   19.3080   15.3248 C   0  0  0  0  0  0  0  0  0  0  0  0
   -3.1027   19.1983   15.1001 O   0  0  0  0  0  0  0  0  0  0  0  0
   -0.2626   18.5880   16.2303 H   0  0  0  0  0  0  0  0  0  0  0  0
   -1.1015   20.3386   14.5330 C   0  0  0  0  0  0  0  0  0  0  0  0
   -0.5295   19.7375   13.3043 N   0  0  0  0  0  0  0  0  0  0  0  0
   -1.1268   20.0274   12.5300 H   0  0  0  0  0  0  0  0  0  0  0  0
    1.0506   20.0836   12.8519 S   0  0  0  0  0  0  0  0  0  0  0  0
    1.4893   18.9442   11.8345 O   0  0  0  0  0  0  0  0  0  0  0  0
    0.9048   21.5339   12.2747 O   0  0  0  0  0  0  0  0  0  0  0  0
    4.6348   20.5759   17.6688 C   0  0  0  0  0  0  0  0  0  0  0  0
    3.7355   20.3742   16.5108 C   0  0  0  0  0  0  0  0  0  0  0  0
    3.0828   19.1186   16.2553 C   0  0  0  0  0  0  0  0  0  0  0  0
    2.2228   18.9905   15.1101 C   0  0  0  0  0  0  0  0  0  0  0  0
    2.0593   20.1401   14.2563 C   0  0  0  0  0  0  0  0  0  0  0  0
    2.7095   21.3707   14.5218 C   0  0  0  0  0  0  0  0  0  0  0  0
    3.5384   21.4755   15.6416 C   0  0  0  0  0  0  0  0  0  0  0  0
   -2.9307   18.2821   18.2569 C   0  0  0  0  0  0  0  0  0  0  0  0
   -2.4420   18.9492   19.2007 O   0  0  0  0  0  0  0  0  0  0  0  0
   -4.3487   18.0940   18.1021 O   0  0  0  0  0  0  0  0  0  0  0  0
   -5.4200   18.9512   18.6522 C   0  0  0  0  0  0  0  0  0  0  0  0
   -0.8437   16.8298   17.9530 C   0  0  0  0  0  0  0  0  0  0  0  0
   -1.0011   15.3121   17.9656 C   0  0  0  0  0  0  0  0  0  0  0  0
   -0.5421   14.5927   19.0953 C   0  0  0  0  0  0  0  0  0  0  0  0
   -0.6625   13.1769   19.1595 C   0  0  0  0  0  0  0  0  0  0  0  0
   -1.2521   12.4713   18.0780 C   0  0  0  0  0  0  0  0  0  0  0  0
   -1.7469   13.1507   16.8800 C   0  0  0  0  0  0  0  0  0  0  0  0
   -1.6041   14.5992   16.8569 C   0  0  0  0  0  0  0  0  0  0  0  0
   -2.3305   12.4238   15.8209 C   0  0  0  0  0  0  0  0  0  0  0  0
   -1.9040   11.2587   15.3720 N   0  0  0  0  0  0  0  0  0  0  0  0
   -3.3926   12.8250   15.1282 N   0  0  0  0  0  0  0  0  0  0  0  0
   -1.1208   10.8286   15.7856 H   0  0  0  0  0  0  0  0  0  0  0  0
   -2.3688   10.8194   14.6236 H   0  0  0  0  0  0  0  0  0  0  0  0
   -3.8274   13.6811   15.3456 H   0  0  0  0  0  0  0  0  0  0  0  0
  2  1  1  0  0  0
  2  3  1  0  0  0
  1 23  1  0  0  0
  1 19  1  0  0  0
 23 24  1  0  0  0
 19 20  2  0  0  0
 19 21  1  0  0  0
 21 22  1  0  0  0
 24 25  2  0  0  0
 24 29  1  0  0  0
 25 26  1  0  0  0
 26 27  2  0  0  0
 27 28  1  0  0  0
 28 29  2  0  0  0
 28 30  1  0  0  0
 30 31  1  0  0  0
 30 32  2  0  0  0
  3  6  1  0  0  0
  3  4  2  0  0  0
  6  7  1  0  0  0
  7  9  1  0  0  0
 12 13  1  0  0  0
 13 14  1  0  0  0
 13 18  2  0  0  0
 14 15  2  0  0  0
 15 16  1  0  0  0
 16 17  2  0  0  0
 16  9  1  0  0  0
 17 18  1  0  0  0
  9 10  2  0  0  0
  9 11  2  0  0  0
  2  5  1  0  0  0
 31 33  1  0  0  0
 31 34  1  0  0  0
 32 35  1  0  0  0
  7  8  1  0  0  0
M  END
> <minimizedAffinity>
-7.23763

$$$$
1V2R_ANH_T_800


 35 36  0  0  0  0  0  0  0  0999 V2000
    1.6139   18.0952   18.4035 C   0  0  0  0  0  0  0  0  0  0  0  0
    0.1387   18.1321   18.1136 N   0  0  0  0  0  0  0  0  0  0  0  0
   -0.6582   19.1874   18.3545 C   0  0  0  0  0  0  0  0  0  0  0  0
   -0.2935   20.1689   19.0032 O   0  0  0  0  0  0  0  0  0  0  0  0
   -0.2715   17.3282   17.7203 H   0  0  0  0  0  0  0  0  0  0  0  0
   -2.0869   19.1564   17.8263 C   0  0  0  0  0  0  0  0  0  0  0  0
   -2.4567   17.7930   17.3761 N   0  0  0  0  0  0  0  0  0  0  0  0
   -1.6365   17.4051   16.9101 H   0  0  0  0  0  0  0  0  0  0  0  0
   -2.9674   16.6453   18.4911 S   0  0  0  0  0  0  0  0  0  0  0  0
   -2.5591   17.1953   19.9252 O   0  0  0  0  0  0  0  0  0  0  0  0
   -4.5002   16.5558   18.1744 O   0  0  0  0  0  0  0  0  0  0  0  0
   -0.2294   11.3715   17.5007 C   0  0  0  0  0  0  0  0  0  0  0  0
   -0.9517   12.6514   17.6747 C   0  0  0  0  0  0  0  0  0  0  0  0
   -1.9567   13.0979   16.7481 C   0  0  0  0  0  0  0  0  0  0  0  0
   -2.6188   14.3537   16.9760 C   0  0  0  0  0  0  0  0  0  0  0  0
   -2.2333   15.1200   18.1343 C   0  0  0  0  0  0  0  0  0  0  0  0
   -1.2410   14.6661   19.0383 C   0  0  0  0  0  0  0  0  0  0  0  0
   -0.6119   13.4415   18.8006 C   0  0  0  0  0  0  0  0  0  0  0  0
    2.0616   17.8171   19.9209 C   0  0  0  0  0  0  0  0  0  0  0  0
    3.2557   18.0453   20.2316 O   0  0  0  0  0  0  0  0  0  0  0  0
    1.1021   17.3189   20.8702 O   0  0  0  0  0  0  0  0  0  0  0  0
    0.3011   18.1187   21.8209 C   0  0  0  0  0  0  0  0  0  0  0  0
    2.2493   19.4026   17.9189 C   0  0  0  0  0  0  0  0  0  0  0  0
    2.7685   19.4164   16.4841 C   0  0  0  0  0  0  0  0  0  0  0  0
    1.8326   19.5073   15.4258 C   0  0  0  0  0  0  0  0  0  0  0  0
    2.2611   19.5228   14.0696 C   0  0  0  0  0  0  0  0  0  0  0  0
    3.6464   19.4477   13.7686 C   0  0  0  0  0  0  0  0  0  0  0  0
    4.6677   19.3512   14.8123 C   0  0  0  0  0  0  0  0  0  0  0  0
    4.1849   19.3391   16.1855 C   0  0  0  0  0  0  0  0  0  0  0  0
    6.0380   19.2800   14.4839 C   0  0  0  0  0  0  0  0  0  0  0  0
    6.7205   18.1651   14.3045 N   0  0  0  0  0  0  0  0  0  0  0  0
    6.8277   20.3370   14.3162 N   0  0  0  0  0  0  0  0  0  0  0  0
    6.2720   17.2934   14.3951 H   0  0  0  0  0  0  0  0  0  0  0  0
    7.6782   18.2049   14.0800 H   0  0  0  0  0  0  0  0  0  0  0  0
    6.4622   21.2455   14.4175 H   0  0  0  0  0  0  0  0  0  0  0  0
  2  1  1  0  0  0
  2  3  1  0  0  0
  1 23  1  0  0  0
  1 19  1  0  0  0
 23 24  1  0  0  0
 19 20  2  0  0  0
 19 21  1  0  0  0
 21 22  1  0  0  0
 24 25  2  0  0  0
 24 29  1  0  0  0
 25 26  1  0  0  0
 26 27  2  0  0  0
 27 28  1  0  0  0
 28 29  2  0  0  0
 28 30  1  0  0  0
 30 31  1  0  0  0
 30 32  2  0  0  0
  3  6  1  0  0  0
  3  4  2  0  0  0
  6  7  1  0  0  0
  7  9  1  0  0  0
 12 13  1  0  0  0
 13 14  1  0  0  0
 13 18  2  0  0  0
 14 15  2  0  0  0
 15 16  1  0  0  0
 16 17  2  0  0  0
 16  9  1  0  0  0
 17 18  1  0  0  0
  9 10  2  0  0  0
  9 11  2  0  0  0
  2  5  1  0  0  0
 31 33  1  0  0  0
 31 34  1  0  0  0
 32 35  1  0  0  0
  7  8  1  0  0  0
M  END
> <minimizedAffinity>
-7.13622

$$$$
1V2R_ANH_T_800


 35 36  0  0  0  0  0  0  0  0999 V2000
   -0.2716   17.3426   20.1880 C   0  0  0  0  0  0  0  0  0  0  0  0
    0.7115   18.0324   19.2827 N   0  0  0  0  0  0  0  0  0  0  0  0
    0.5725   19.2883   18.8244 C   0  0  0  0  0  0  0  0  0  0  0  0
   -0.4647   19.9395   18.9564 O   0  0  0  0  0  0  0  0  0  0  0  0
    1.5117   17.5296   19.0069 H   0  0  0  0  0  0  0  0  0  0  0  0
    1.7405   19.9259   18.0824 C   0  0  0  0  0  0  0  0  0  0  0  0
    1.4359   21.3312   17.7211 N   0  0  0  0  0  0  0  0  0  0  0  0
    1.7356   21.9080   18.5071 H   0  0  0  0  0  0  0  0  0  0  0  0
    2.1051   22.0117   16.3390 S   0  0  0  0  0  0  0  0  0  0  0  0
    0.9316   22.1142   15.2721 O   0  0  0  0  0  0  0  0  0  0  0  0
    2.6792   23.3602   16.8956 O   0  0  0  0  0  0  0  0  0  0  0  0
    6.4915   18.4889   14.1848 C   0  0  0  0  0  0  0  0  0  0  0  0
    5.4700   19.3837   14.7733 C   0  0  0  0  0  0  0  0  0  0  0  0
    5.7310   20.1854   15.9381 C   0  0  0  0  0  0  0  0  0  0  0  0
    4.6924   21.0321   16.4594 C   0  0  0  0  0  0  0  0  0  0  0  0
    3.4187   21.0317   15.7849 C   0  0  0  0  0  0  0  0  0  0  0  0
    3.1771   20.2359   14.6377 C   0  0  0  0  0  0  0  0  0  0  0  0
    4.2006   19.4224   14.1451 C   0  0  0  0  0  0  0  0  0  0  0  0
   -0.1905   17.6762   21.7572 C   0  0  0  0  0  0  0  0  0  0  0  0
   -0.1822   16.7136   22.5620 O   0  0  0  0  0  0  0  0  0  0  0  0
   -0.1335   19.0454   22.1957 O   0  0  0  0  0  0  0  0  0  0  0  0
    0.9754   19.6949   22.9260 C   0  0  0  0  0  0  0  0  0  0  0  0
   -0.1574   15.8282   19.9850 C   0  0  0  0  0  0  0  0  0  0  0  0
   -1.0680   15.2126   18.9266 C   0  0  0  0  0  0  0  0  0  0  0  0
   -2.2281   15.9231   18.5347 C   0  0  0  0  0  0  0  0  0  0  0  0
   -3.1126   15.3956   17.5536 C   0  0  0  0  0  0  0  0  0  0  0  0
   -2.8310   14.1393   16.9554 C   0  0  0  0  0  0  0  0  0  0  0  0
   -1.6511   13.3513   17.3136 C   0  0  0  0  0  0  0  0  0  0  0  0
   -0.7733   13.9290   18.3209 C   0  0  0  0  0  0  0  0  0  0  0  0
   -1.3952   12.1063   16.7009 C   0  0  0  0  0  0  0  0  0  0  0  0
   -2.1282   11.5622   15.7483 N   0  0  0  0  0  0  0  0  0  0  0  0
   -0.3756   11.3105   17.0108 N   0  0  0  0  0  0  0  0  0  0  0  0
   -2.9232   12.0335   15.4091 H   0  0  0  0  0  0  0  0  0  0  0  0
   -1.8801   10.6849   15.3767 H   0  0  0  0  0  0  0  0  0  0  0  0
    0.2648   11.5799   17.7084 H   0  0  0  0  0  0  0  0  0  0  0  0
  2  1  1  0  0  0
  2  3  1  0  0  0
  1 23  1  0  0  0
  1 19  1  0  0  0
 23 24  1  0  0  0
 19 20  2  0  0  0
 19 21  1  0  0  0
 21 22  1  0  0  0
 24 25  2  0  0  0
 24 29  1  0  0  0
 25 26  1  0  0  0
 26 27  2  0  0  0
 27 28  1  0  0  0
 28 29  2  0  0  0
 28 30  1  0  0  0
 30 31  1  0  0  0
 30 32  2  0  0  0
  3  6  1  0  0  0
  3  4  2  0  0  0
  6  7  1  0  0  0
  7  9  1  0  0  0
 12 13  1  0  0  0
 13 14  1  0  0  0
 13 18  2  0  0  0
 14 15  2  0  0  0
 15 16  1  0  0  0
 16 17  2  0  0  0
 16  9  1  0  0  0
 17 18  1  0  0  0
  9 10  2  0  0  0
  9 11  2  0  0  0
  2  5  1  0  0  0
 31 33  1  0  0  0
 31 34  1  0  0  0
 32 35  1  0  0  0
  7  8  1  0  0  0
M  END
> <minimizedAffinity>
-7.12133

$$$$
1V2R_ANH_T_800


 35 36  0  0  0  0  0  0  0  0999 V2000
   -2.9315   17.3881   17.4689 C   0  0  0  0  0  0  0  0  0  0  0  0
   -1.5764   17.6328   16.8644 N   0  0  0  0  0  0  0  0  0  0  0  0
   -0.5002   18.0507   17.5527 C   0  0  0  0  0  0  0  0  0  0  0  0
   -0.5613   18.4470   18.7173 O   0  0  0  0  0  0  0  0  0  0  0  0
   -1.4703   17.4761   15.8982 H   0  0  0  0  0  0  0  0  0  0  0  0
    0.8526   18.0624   16.8520 C   0  0  0  0  0  0  0  0  0  0  0  0
    1.9358   18.4284   17.7958 N   0  0  0  0  0  0  0  0  0  0  0  0
    2.6146   17.6674   17.7732 H   0  0  0  0  0  0  0  0  0  0  0  0
    2.7990   19.8529   17.5791 S   0  0  0  0  0  0  0  0  0  0  0  0
    3.7232   19.6319   16.3052 O   0  0  0  0  0  0  0  0  0  0  0  0
    1.6450   20.9057   17.4458 O   0  0  0  0  0  0  0  0  0  0  0  0
    6.0993   21.3209   22.4003 C   0  0  0  0  0  0  0  0  0  0  0  0
    5.2564   20.8937   21.2613 C   0  0  0  0  0  0  0  0  0  0  0  0
    4.4428   19.7091   21.3102 C   0  0  0  0  0  0  0  0  0  0  0  0
    3.6488   19.3505   20.1664 C   0  0  0  0  0  0  0  0  0  0  0  0
    3.7125   20.2030   19.0059 C   0  0  0  0  0  0  0  0  0  0  0  0
    4.5192   21.3674   18.9734 C   0  0  0  0  0  0  0  0  0  0  0  0
    5.2808   21.7000   20.0965 C   0  0  0  0  0  0  0  0  0  0  0  0
   -3.7683   18.6721   17.9500 C   0  0  0  0  0  0  0  0  0  0  0  0
   -3.7203   18.9823   19.1649 O   0  0  0  0  0  0  0  0  0  0  0  0
   -4.5418   19.4209   16.9955 O   0  0  0  0  0  0  0  0  0  0  0  0
   -4.0769   19.9381   15.6911 C   0  0  0  0  0  0  0  0  0  0  0  0
   -2.7852   16.4104   18.6396 C   0  0  0  0  0  0  0  0  0  0  0  0
   -2.1664   15.0528   18.3196 C   0  0  0  0  0  0  0  0  0  0  0  0
   -1.2270   14.5058   19.2266 C   0  0  0  0  0  0  0  0  0  0  0  0
   -0.6183   13.2446   18.9774 C   0  0  0  0  0  0  0  0  0  0  0  0
   -0.9559   12.5201   17.8042 C   0  0  0  0  0  0  0  0  0  0  0  0
   -1.9176   13.0261   16.8240 C   0  0  0  0  0  0  0  0  0  0  0  0
   -2.5164   14.3196   17.1191 C   0  0  0  0  0  0  0  0  0  0  0  0
   -2.2356   12.2832   15.6674 C   0  0  0  0  0  0  0  0  0  0  0  0
   -1.8551   11.0420   15.4319 N   0  0  0  0  0  0  0  0  0  0  0  0
   -2.9624   12.7439   14.6533 N   0  0  0  0  0  0  0  0  0  0  0  0
   -1.3074   10.5611   16.0936 H   0  0  0  0  0  0  0  0  0  0  0  0
   -2.1189   10.5968   14.5944 H   0  0  0  0  0  0  0  0  0  0  0  0
   -3.3211   13.6603   14.6810 H   0  0  0  0  0  0  0  0  0  0  0  0
  2  1  1  0  0  0
  2  3  1  0  0  0
  1 23  1  0  0  0
  1 19  1  0  0  0
 23 24  1  0  0  0
 19 20  2  0  0  0
 19 21  1  0  0  0
 21 22  1  0  0  0
 24 25  2  0  0  0
 24 29  1  0  0  0
 25 26  1  0  0  0
 26 27  2  0  0  0
 27 28  1  0  0  0
 28 29  2  0  0  0
 28 30  1  0  0  0
 30 31  1  0  0  0
 30 32  2  0  0  0
  3  6  1  0  0  0
  3  4  2  0  0  0
  6  7  1  0  0  0
  7  9  1  0  0  0
 12 13  1  0  0  0
 13 14  1  0  0  0
 13 18  2  0  0  0
 14 15  2  0  0  0
 15 16  1  0  0  0
 16 17  2  0  0  0
 16  9  1  0  0  0
 17 18  1  0  0  0
  9 10  2  0  0  0
  9 11  2  0  0  0
  2  5  1  0  0  0
 31 33  1  0  0  0
 31 34  1  0  0  0
 32 35  1  0  0  0
  7  8  1  0  0  0
M  END
> <minimizedAffinity>
-6.96620

$$$$
