5D21_56N_A_902


 22 23  0  0  0  0  0  0  0  0999 V2000
    2.2541  -16.8648  -51.2665 O   0  0  0  0  0  0  0  0  0  0  0  0
    2.3998  -18.7231  -49.0576 O   0  0  0  0  0  0  0  0  0  0  0  0
    0.8099  -17.5522  -47.3203 O   0  0  0  0  0  0  0  0  0  0  0  0
   -0.8429  -16.2956  -49.4786 O   0  0  0  0  0  0  0  0  0  0  0  0
    0.0019  -16.3498  -50.6089 C   0  0  0  0  0  0  0  0  0  0  0  0
    1.3626  -16.8478  -50.1621 C   0  0  0  0  0  0  0  0  0  0  0  0
    1.1780  -18.2282  -49.5689 C   0  0  0  0  0  0  0  0  0  0  0  0
    0.1843  -18.1901  -48.4270 C   0  0  0  0  0  0  0  0  0  0  0  0
   -1.1161  -17.5279  -48.8573 C   0  0  0  0  0  0  0  0  0  0  0  0
    2.3481  -15.9665  -51.6200 H   0  0  0  0  0  0  0  0  0  0  0  0
    3.0575  -18.7586  -49.7697 H   0  0  0  0  0  0  0  0  0  0  0  0
    1.6293  -18.0210  -47.0977 H   0  0  0  0  0  0  0  0  0  0  0  0
   -2.0545  -17.3195  -47.6886 C   0  0  0  0  0  0  0  0  0  0  0  0
   -3.3645  -17.6963  -48.0705 O   0  0  0  0  0  0  0  0  0  0  0  0
   -3.6513  -17.1530  -48.8212 H   0  0  0  0  0  0  0  0  0  0  0  0
    0.1522  -15.0759  -51.1650 O   0  0  0  0  0  0  0  0  0  0  0  0
   -0.7910  -14.7837  -52.1666 C   0  0  0  0  0  0  0  0  0  0  0  0
   -1.5438  -15.7678  -52.8102 C   0  0  0  0  0  0  0  0  0  0  0  0
   -2.4557  -15.4025  -53.7904 C   0  0  0  0  0  0  0  0  0  0  0  0
   -2.6103  -14.0580  -54.1203 C   0  0  0  0  0  0  0  0  0  0  0  0
   -1.8619  -13.0853  -53.4774 C   0  0  0  0  0  0  0  0  0  0  0  0
   -0.9526  -13.4491  -52.5013 C   0  0  0  0  0  0  0  0  0  0  0  0
 20 21  2  0  0  0
 20 19  1  0  0  0
 21 22  1  0  0  0
 19 18  2  0  0  0
 22 17  2  0  0  0
 18 17  1  0  0  0
 17 16  1  0  0  0
 16  5  1  0  0  0
  1  6  1  0  0  0
  5  6  1  0  0  0
  5  4  1  0  0  0
  6  7  1  0  0  0
  4  9  1  0  0  0
  7  2  1  0  0  0
  7  8  1  0  0  0
  9  8  1  0  0  0
  9 13  1  0  0  0
  8  3  1  0  0  0
 14 13  1  0  0  0
  1 10  1  0  0  0
  2 11  1  0  0  0
  3 12  1  0  0  0
 14 15  1  0  0  0
M  END
> <minimizedAffinity>
-6.51405

$$$$
5D21_56N_A_902


 22 23  0  0  0  0  0  0  0  0999 V2000
   -1.2195  -19.2849  -47.6760 O   0  0  0  0  0  0  0  0  0  0  0  0
    0.4254  -16.9193  -47.4486 O   0  0  0  0  0  0  0  0  0  0  0  0
    2.2743  -17.4273  -49.2487 O   0  0  0  0  0  0  0  0  0  0  0  0
    0.3964  -19.0661  -50.9091 O   0  0  0  0  0  0  0  0  0  0  0  0
   -0.6353  -19.3965  -50.0033 C   0  0  0  0  0  0  0  0  0  0  0  0
   -0.2263  -18.9215  -48.6227 C   0  0  0  0  0  0  0  0  0  0  0  0
   -0.0351  -17.4213  -48.6875 C   0  0  0  0  0  0  0  0  0  0  0  0
    0.9913  -17.0587  -49.7399 C   0  0  0  0  0  0  0  0  0  0  0  0
    0.6463  -17.6921  -51.0795 C   0  0  0  0  0  0  0  0  0  0  0  0
   -1.3147  -20.2501  -47.6616 H   0  0  0  0  0  0  0  0  0  0  0  0
   -0.2147  -17.1376  -46.7532 H   0  0  0  0  0  0  0  0  0  0  0  0
    2.4315  -16.9919  -48.3963 H   0  0  0  0  0  0  0  0  0  0  0  0
    1.7480  -17.4904  -52.0971 C   0  0  0  0  0  0  0  0  0  0  0  0
    2.4362  -16.2880  -51.8061 O   0  0  0  0  0  0  0  0  0  0  0  0
    1.8159  -15.5433  -51.8437 H   0  0  0  0  0  0  0  0  0  0  0  0
   -0.8217  -20.7815  -49.9630 O   0  0  0  0  0  0  0  0  0  0  0  0
   -2.0442  -21.2018  -50.5172 C   0  0  0  0  0  0  0  0  0  0  0  0
   -2.3491  -21.0660  -51.8729 C   0  0  0  0  0  0  0  0  0  0  0  0
   -3.5777  -21.5037  -52.3469 C   0  0  0  0  0  0  0  0  0  0  0  0
   -4.4924  -22.0745  -51.4648 C   0  0  0  0  0  0  0  0  0  0  0  0
   -4.1841  -22.2082  -50.1207 C   0  0  0  0  0  0  0  0  0  0  0  0
   -2.9604  -21.7714  -49.6480 C   0  0  0  0  0  0  0  0  0  0  0  0
 20 21  2  0  0  0
 20 19  1  0  0  0
 21 22  1  0  0  0
 19 18  2  0  0  0
 22 17  2  0  0  0
 18 17  1  0  0  0
 17 16  1  0  0  0
 16  5  1  0  0  0
  1  6  1  0  0  0
  5  6  1  0  0  0
  5  4  1  0  0  0
  6  7  1  0  0  0
  4  9  1  0  0  0
  7  2  1  0  0  0
  7  8  1  0  0  0
  9  8  1  0  0  0
  9 13  1  0  0  0
  8  3  1  0  0  0
 14 13  1  0  0  0
  1 10  1  0  0  0
  2 11  1  0  0  0
  3 12  1  0  0  0
 14 15  1  0  0  0
M  END
> <minimizedAffinity>
-6.05008

$$$$
5D21_56N_A_902


 22 23  0  0  0  0  0  0  0  0999 V2000
    1.4721  -17.5849  -51.6167 O   0  0  0  0  0  0  0  0  0  0  0  0
    2.2749  -18.2602  -48.9236 O   0  0  0  0  0  0  0  0  0  0  0  0
    0.4690  -16.9544  -47.5270 O   0  0  0  0  0  0  0  0  0  0  0  0
   -1.5758  -17.1876  -49.7026 O   0  0  0  0  0  0  0  0  0  0  0  0
   -0.8010  -17.4712  -50.8486 C   0  0  0  0  0  0  0  0  0  0  0  0
    0.6635  -17.3569  -50.4727 C   0  0  0  0  0  0  0  0  0  0  0  0
    0.9407  -18.3665  -49.3795 C   0  0  0  0  0  0  0  0  0  0  0  0
    0.0300  -18.1322  -48.1928 C   0  0  0  0  0  0  0  0  0  0  0  0
   -1.4277  -18.0805  -48.6255 C   0  0  0  0  0  0  0  0  0  0  0  0
    1.2681  -16.9215  -52.2943 H   0  0  0  0  0  0  0  0  0  0  0  0
    2.8826  -18.4064  -49.6654 H   0  0  0  0  0  0  0  0  0  0  0  0
    1.4017  -17.0518  -47.2789 H   0  0  0  0  0  0  0  0  0  0  0  0
   -2.3378  -17.6719  -47.4877 C   0  0  0  0  0  0  0  0  0  0  0  0
   -3.6700  -17.5979  -47.9608 O   0  0  0  0  0  0  0  0  0  0  0  0
   -3.7239  -16.9429  -48.6742 H   0  0  0  0  0  0  0  0  0  0  0  0
   -1.0762  -16.5485  -51.8621 O   0  0  0  0  0  0  0  0  0  0  0  0
   -2.0598  -16.9838  -52.7684 C   0  0  0  0  0  0  0  0  0  0  0  0
   -2.1802  -18.3136  -53.1763 C   0  0  0  0  0  0  0  0  0  0  0  0
   -3.1763  -18.6678  -54.0752 C   0  0  0  0  0  0  0  0  0  0  0  0
   -4.0453  -17.6928  -54.5595 C   0  0  0  0  0  0  0  0  0  0  0  0
   -3.9223  -16.3749  -54.1503 C   0  0  0  0  0  0  0  0  0  0  0  0
   -2.9294  -16.0214  -53.2553 C   0  0  0  0  0  0  0  0  0  0  0  0
 20 21  2  0  0  0
 20 19  1  0  0  0
 21 22  1  0  0  0
 19 18  2  0  0  0
 22 17  2  0  0  0
 18 17  1  0  0  0
 17 16  1  0  0  0
 16  5  1  0  0  0
  1  6  1  0  0  0
  5  6  1  0  0  0
  5  4  1  0  0  0
  6  7  1  0  0  0
  4  9  1  0  0  0
  7  2  1  0  0  0
  7  8  1  0  0  0
  9  8  1  0  0  0
  9 13  1  0  0  0
  8  3  1  0  0  0
 14 13  1  0  0  0
  1 10  1  0  0  0
  2 11  1  0  0  0
  3 12  1  0  0  0
 14 15  1  0  0  0
M  END
> <minimizedAffinity>
-5.97781

$$$$
5D21_56N_A_902


 22 23  0  0  0  0  0  0  0  0999 V2000
    1.7844  -18.6473  -52.3893 O   0  0  0  0  0  0  0  0  0  0  0  0
    3.7742  -20.3861  -53.5601 O   0  0  0  0  0  0  0  0  0  0  0  0
    5.5390  -20.4996  -51.6134 O   0  0  0  0  0  0  0  0  0  0  0  0
    3.4456  -20.0871  -49.5119 O   0  0  0  0  0  0  0  0  0  0  0  0
    2.3664  -19.5298  -50.2323 C   0  0  0  0  0  0  0  0  0  0  0  0
    2.8310  -19.2576  -51.6497 C   0  0  0  0  0  0  0  0  0  0  0  0
    3.2532  -20.5771  -52.2596 C   0  0  0  0  0  0  0  0  0  0  0  0
    4.3336  -21.2303  -51.4236 C   0  0  0  0  0  0  0  0  0  0  0  0
    3.9073  -21.3357  -49.9670 C   0  0  0  0  0  0  0  0  0  0  0  0
    1.5404  -17.8069  -51.9709 H   0  0  0  0  0  0  0  0  0  0  0  0
    3.1013  -19.9677  -54.1197 H   0  0  0  0  0  0  0  0  0  0  0  0
    5.7537  -20.4698  -52.5589 H   0  0  0  0  0  0  0  0  0  0  0  0
    5.0367  -21.8209  -49.0844 C   0  0  0  0  0  0  0  0  0  0  0  0
    5.5991  -20.7173  -48.3991 O   0  0  0  0  0  0  0  0  0  0  0  0
    5.9392  -20.0762  -49.0427 H   0  0  0  0  0  0  0  0  0  0  0  0
    1.9670  -18.3220  -49.6526 O   0  0  0  0  0  0  0  0  0  0  0  0
    0.6513  -18.3434  -49.1560 C   0  0  0  0  0  0  0  0  0  0  0  0
   -0.2241  -19.4093  -49.3726 C   0  0  0  0  0  0  0  0  0  0  0  0
   -1.5092  -19.3584  -48.8514 C   0  0  0  0  0  0  0  0  0  0  0  0
   -1.9108  -18.2448  -48.1173 C   0  0  0  0  0  0  0  0  0  0  0  0
   -1.0377  -17.1904  -47.9041 C   0  0  0  0  0  0  0  0  0  0  0  0
    0.2426  -17.2405  -48.4240 C   0  0  0  0  0  0  0  0  0  0  0  0
 20 21  2  0  0  0
 20 19  1  0  0  0
 21 22  1  0  0  0
 19 18  2  0  0  0
 22 17  2  0  0  0
 18 17  1  0  0  0
 17 16  1  0  0  0
 16  5  1  0  0  0
  1  6  1  0  0  0
  5  6  1  0  0  0
  5  4  1  0  0  0
  6  7  1  0  0  0
  4  9  1  0  0  0
  7  2  1  0  0  0
  7  8  1  0  0  0
  9  8  1  0  0  0
  9 13  1  0  0  0
  8  3  1  0  0  0
 14 13  1  0  0  0
  1 10  1  0  0  0
  2 11  1  0  0  0
  3 12  1  0  0  0
 14 15  1  0  0  0
M  END
> <minimizedAffinity>
-5.49650

$$$$
5D21_56N_A_902


 22 23  0  0  0  0  0  0  0  0999 V2000
    1.8394  -16.9725  -52.1946 O   0  0  0  0  0  0  0  0  0  0  0  0
   -0.2381  -15.2871  -51.1005 O   0  0  0  0  0  0  0  0  0  0  0  0
   -1.9526  -17.0966  -50.2618 O   0  0  0  0  0  0  0  0  0  0  0  0
    0.2093  -19.1093  -49.7680 O   0  0  0  0  0  0  0  0  0  0  0  0
    1.2866  -18.6268  -50.5430 C   0  0  0  0  0  0  0  0  0  0  0  0
    0.7934  -17.4504  -51.3627 C   0  0  0  0  0  0  0  0  0  0  0  0
    0.3110  -16.3860  -50.4005 C   0  0  0  0  0  0  0  0  0  0  0  0
   -0.7676  -16.9368  -49.4917 C   0  0  0  0  0  0  0  0  0  0  0  0
   -0.3059  -18.2165  -48.8105 C   0  0  0  0  0  0  0  0  0  0  0  0
    2.1224  -17.6789  -52.7961 H   0  0  0  0  0  0  0  0  0  0  0  0
    0.4330  -14.9129  -51.6925 H   0  0  0  0  0  0  0  0  0  0  0  0
   -2.1916  -16.2484  -50.6672 H   0  0  0  0  0  0  0  0  0  0  0  0
   -1.4267  -18.8782  -48.0385 C   0  0  0  0  0  0  0  0  0  0  0  0
   -2.1593  -17.8880  -47.3408 O   0  0  0  0  0  0  0  0  0  0  0  0
   -1.5699  -17.4221  -46.7271 H   0  0  0  0  0  0  0  0  0  0  0  0
    1.7415  -19.6204  -51.4150 O   0  0  0  0  0  0  0  0  0  0  0  0
    3.0346  -20.0849  -51.1142 C   0  0  0  0  0  0  0  0  0  0  0  0
    3.3972  -20.5540  -49.8502 C   0  0  0  0  0  0  0  0  0  0  0  0
    4.6939  -20.9959  -49.6286 C   0  0  0  0  0  0  0  0  0  0  0  0
    5.6187  -20.9672  -50.6700 C   0  0  0  0  0  0  0  0  0  0  0  0
    5.2531  -20.5020  -51.9228 C   0  0  0  0  0  0  0  0  0  0  0  0
    3.9614  -20.0609  -52.1437 C   0  0  0  0  0  0  0  0  0  0  0  0
 20 21  2  0  0  0
 20 19  1  0  0  0
 21 22  1  0  0  0
 19 18  2  0  0  0
 22 17  2  0  0  0
 18 17  1  0  0  0
 17 16  1  0  0  0
 16  5  1  0  0  0
  1  6  1  0  0  0
  5  6  1  0  0  0
  5  4  1  0  0  0
  6  7  1  0  0  0
  4  9  1  0  0  0
  7  2  1  0  0  0
  7  8  1  0  0  0
  9  8  1  0  0  0
  9 13  1  0  0  0
  8  3  1  0  0  0
 14 13  1  0  0  0
  1 10  1  0  0  0
  2 11  1  0  0  0
  3 12  1  0  0  0
 14 15  1  0  0  0
M  END
> <minimizedAffinity>
-5.27583

$$$$
5D21_56N_A_902


 22 23  0  0  0  0  0  0  0  0999 V2000
    1.3198  -17.9501  -53.3940 O   0  0  0  0  0  0  0  0  0  0  0  0
   -0.6607  -19.6726  -52.1839 O   0  0  0  0  0  0  0  0  0  0  0  0
    0.0307  -19.5182  -49.6511 O   0  0  0  0  0  0  0  0  0  0  0  0
    1.1310  -16.7526  -49.9820 O   0  0  0  0  0  0  0  0  0  0  0  0
    1.3369  -16.6486  -51.3751 C   0  0  0  0  0  0  0  0  0  0  0  0
    1.0708  -18.0053  -51.9977 C   0  0  0  0  0  0  0  0  0  0  0  0
   -0.3655  -18.3779  -51.6983 C   0  0  0  0  0  0  0  0  0  0  0  0
   -0.6167  -18.3794  -50.2051 C   0  0  0  0  0  0  0  0  0  0  0  0
   -0.1799  -17.0642  -49.5772 C   0  0  0  0  0  0  0  0  0  0  0  0
    2.2467  -17.7094  -53.5479 H   0  0  0  0  0  0  0  0  0  0  0  0
   -0.5082  -19.7013  -53.1414 H   0  0  0  0  0  0  0  0  0  0  0  0
   -0.2908  -20.3197  -50.0929 H   0  0  0  0  0  0  0  0  0  0  0  0
   -0.2563  -17.1097  -48.0666 C   0  0  0  0  0  0  0  0  0  0  0  0
    0.8632  -17.8160  -47.5649 O   0  0  0  0  0  0  0  0  0  0  0  0
    0.8616  -18.7187  -47.9199 H   0  0  0  0  0  0  0  0  0  0  0  0
    2.6593  -16.2840  -51.6452 O   0  0  0  0  0  0  0  0  0  0  0  0
    2.7748  -15.1084  -52.4085 C   0  0  0  0  0  0  0  0  0  0  0  0
    1.6903  -14.2734  -52.6844 C   0  0  0  0  0  0  0  0  0  0  0  0
    1.8819  -13.1295  -53.4463 C   0  0  0  0  0  0  0  0  0  0  0  0
    3.1540  -12.8268  -53.9264 C   0  0  0  0  0  0  0  0  0  0  0  0
    4.2270  -13.6581  -53.6484 C   0  0  0  0  0  0  0  0  0  0  0  0
    4.0363  -14.7984  -52.8900 C   0  0  0  0  0  0  0  0  0  0  0  0
 20 21  2  0  0  0
 20 19  1  0  0  0
 21 22  1  0  0  0
 19 18  2  0  0  0
 22 17  2  0  0  0
 18 17  1  0  0  0
 17 16  1  0  0  0
 16  5  1  0  0  0
  1  6  1  0  0  0
  5  6  1  0  0  0
  5  4  1  0  0  0
  6  7  1  0  0  0
  4  9  1  0  0  0
  7  2  1  0  0  0
  7  8  1  0  0  0
  9  8  1  0  0  0
  9 13  1  0  0  0
  8  3  1  0  0  0
 14 13  1  0  0  0
  1 10  1  0  0  0
  2 11  1  0  0  0
  3 12  1  0  0  0
 14 15  1  0  0  0
M  END
> <minimizedAffinity>
-5.25218

$$$$
5D21_56N_A_902


 22 23  0  0  0  0  0  0  0  0999 V2000
    2.0162  -16.3870  -49.8267 O   0  0  0  0  0  0  0  0  0  0  0  0
    0.4360  -17.1448  -47.5285 O   0  0  0  0  0  0  0  0  0  0  0  0
   -1.7281  -18.0726  -48.7002 O   0  0  0  0  0  0  0  0  0  0  0  0
   -0.2049  -18.9320  -51.1313 O   0  0  0  0  0  0  0  0  0  0  0  0
    0.9865  -18.1780  -51.0525 C   0  0  0  0  0  0  0  0  0  0  0  0
    0.8545  -17.1990  -49.9022 C   0  0  0  0  0  0  0  0  0  0  0  0
    0.6465  -17.9999  -48.6346 C   0  0  0  0  0  0  0  0  0  0  0  0
   -0.5687  -18.8942  -48.7614 C   0  0  0  0  0  0  0  0  0  0  0  0
   -0.4905  -19.7457  -50.0198 C   0  0  0  0  0  0  0  0  0  0  0  0
    2.1175  -15.8898  -50.6535 H   0  0  0  0  0  0  0  0  0  0  0  0
    1.2014  -16.5584  -47.4229 H   0  0  0  0  0  0  0  0  0  0  0  0
   -1.7169  -17.5582  -47.8779 H   0  0  0  0  0  0  0  0  0  0  0  0
   -1.7718  -20.5145  -50.2589 C   0  0  0  0  0  0  0  0  0  0  0  0
   -2.4694  -20.6491  -49.0344 O   0  0  0  0  0  0  0  0  0  0  0  0
   -1.9153  -21.1269  -48.3976 H   0  0  0  0  0  0  0  0  0  0  0  0
    1.1843  -17.4566  -52.2335 O   0  0  0  0  0  0  0  0  0  0  0  0
    2.4534  -17.6524  -52.8074 C   0  0  0  0  0  0  0  0  0  0  0  0
    3.2000  -16.6152  -53.3696 C   0  0  0  0  0  0  0  0  0  0  0  0
    4.4455  -16.8859  -53.9185 C   0  0  0  0  0  0  0  0  0  0  0  0
    4.9369  -18.1892  -53.9016 C   0  0  0  0  0  0  0  0  0  0  0  0
    4.1925  -19.2145  -53.3412 C   0  0  0  0  0  0  0  0  0  0  0  0
    2.9511  -18.9453  -52.7949 C   0  0  0  0  0  0  0  0  0  0  0  0
 20 21  2  0  0  0
 20 19  1  0  0  0
 21 22  1  0  0  0
 19 18  2  0  0  0
 22 17  2  0  0  0
 18 17  1  0  0  0
 17 16  1  0  0  0
 16  5  1  0  0  0
  1  6  1  0  0  0
  5  6  1  0  0  0
  5  4  1  0  0  0
  6  7  1  0  0  0
  4  9  1  0  0  0
  7  2  1  0  0  0
  7  8  1  0  0  0
  9  8  1  0  0  0
  9 13  1  0  0  0
  8  3  1  0  0  0
 14 13  1  0  0  0
  1 10  1  0  0  0
  2 11  1  0  0  0
  3 12  1  0  0  0
 14 15  1  0  0  0
M  END
> <minimizedAffinity>
-5.20208

$$$$
5D21_56N_A_902


 22 23  0  0  0  0  0  0  0  0999 V2000
    2.4910  -16.8806  -51.9101 O   0  0  0  0  0  0  0  0  0  0  0  0
    3.1900  -14.3976  -53.2137 O   0  0  0  0  0  0  0  0  0  0  0  0
    0.8937  -13.7590  -54.3255 O   0  0  0  0  0  0  0  0  0  0  0  0
   -0.6792  -15.1537  -52.1925 O   0  0  0  0  0  0  0  0  0  0  0  0
    0.2641  -16.0304  -51.6130 C   0  0  0  0  0  0  0  0  0  0  0  0
    1.5368  -15.9702  -52.4349 C   0  0  0  0  0  0  0  0  0  0  0  0
    2.0434  -14.5442  -52.3994 C   0  0  0  0  0  0  0  0  0  0  0  0
    0.9880  -13.5895  -52.9164 C   0  0  0  0  0  0  0  0  0  0  0  0
   -0.3327  -13.7901  -52.1884 C   0  0  0  0  0  0  0  0  0  0  0  0
    2.1335  -17.7815  -51.9486 H   0  0  0  0  0  0  0  0  0  0  0  0
    3.8852  -14.9993  -52.9046 H   0  0  0  0  0  0  0  0  0  0  0  0
    1.7653  -13.6182  -54.7272 H   0  0  0  0  0  0  0  0  0  0  0  0
   -1.4458  -12.9732  -52.8078 C   0  0  0  0  0  0  0  0  0  0  0  0
   -1.8439  -11.9639  -51.8985 O   0  0  0  0  0  0  0  0  0  0  0  0
   -2.1572  -12.3739  -51.0771 H   0  0  0  0  0  0  0  0  0  0  0  0
   -0.2176  -17.3427  -51.6296 O   0  0  0  0  0  0  0  0  0  0  0  0
   -0.7020  -17.7807  -50.3839 C   0  0  0  0  0  0  0  0  0  0  0  0
   -0.9810  -16.9092  -49.3294 C   0  0  0  0  0  0  0  0  0  0  0  0
   -1.4561  -17.4160  -48.1281 C   0  0  0  0  0  0  0  0  0  0  0  0
   -1.6500  -18.7884  -47.9882 C   0  0  0  0  0  0  0  0  0  0  0  0
   -1.3728  -19.6486  -49.0384 C   0  0  0  0  0  0  0  0  0  0  0  0
   -0.8987  -19.1440  -50.2352 C   0  0  0  0  0  0  0  0  0  0  0  0
 20 21  2  0  0  0
 20 19  1  0  0  0
 21 22  1  0  0  0
 19 18  2  0  0  0
 22 17  2  0  0  0
 18 17  1  0  0  0
 17 16  1  0  0  0
 16  5  1  0  0  0
  1  6  1  0  0  0
  5  6  1  0  0  0
  5  4  1  0  0  0
  6  7  1  0  0  0
  4  9  1  0  0  0
  7  2  1  0  0  0
  7  8  1  0  0  0
  9  8  1  0  0  0
  9 13  1  0  0  0
  8  3  1  0  0  0
 14 13  1  0  0  0
  1 10  1  0  0  0
  2 11  1  0  0  0
  3 12  1  0  0  0
 14 15  1  0  0  0
M  END
> <minimizedAffinity>
-4.89407

$$$$
5D21_56N_A_902


 22 23  0  0  0  0  0  0  0  0999 V2000
    1.5144  -18.7253  -53.6644 O   0  0  0  0  0  0  0  0  0  0  0  0
   -0.6167  -16.8911  -52.9952 O   0  0  0  0  0  0  0  0  0  0  0  0
   -1.4990  -17.9534  -50.7568 O   0  0  0  0  0  0  0  0  0  0  0  0
    1.1906  -19.0806  -50.0754 O   0  0  0  0  0  0  0  0  0  0  0  0
    1.8667  -19.0819  -51.3152 C   0  0  0  0  0  0  0  0  0  0  0  0
    0.8800  -18.6835  -52.3954 C   0  0  0  0  0  0  0  0  0  0  0  0
    0.3710  -17.2960  -52.0680 C   0  0  0  0  0  0  0  0  0  0  0  0
   -0.2544  -17.2681  -50.6893 C   0  0  0  0  0  0  0  0  0  0  0  0
    0.6978  -17.8346  -49.6467 C   0  0  0  0  0  0  0  0  0  0  0  0
    1.8268  -19.6266  -53.8402 H   0  0  0  0  0  0  0  0  0  0  0  0
   -0.2428  -16.8995  -53.8902 H   0  0  0  0  0  0  0  0  0  0  0  0
   -2.0566  -17.5448  -51.4372 H   0  0  0  0  0  0  0  0  0  0  0  0
    0.0306  -17.9806  -48.2964 C   0  0  0  0  0  0  0  0  0  0  0  0
    0.6404  -17.0931  -47.3774 O   0  0  0  0  0  0  0  0  0  0  0  0
    1.5839  -17.3049  -47.3008 H   0  0  0  0  0  0  0  0  0  0  0  0
    2.3526  -20.3609  -51.6027 O   0  0  0  0  0  0  0  0  0  0  0  0
    3.6703  -20.5755  -51.1603 C   0  0  0  0  0  0  0  0  0  0  0  0
    4.7859  -20.3817  -51.9773 C   0  0  0  0  0  0  0  0  0  0  0  0
    6.0563  -20.6150  -51.4701 C   0  0  0  0  0  0  0  0  0  0  0  0
    6.2042  -21.0389  -50.1514 C   0  0  0  0  0  0  0  0  0  0  0  0
    5.0939  -21.2281  -49.3446 C   0  0  0  0  0  0  0  0  0  0  0  0
    3.8279  -20.9966  -49.8498 C   0  0  0  0  0  0  0  0  0  0  0  0
 20 21  2  0  0  0
 20 19  1  0  0  0
 21 22  1  0  0  0
 19 18  2  0  0  0
 22 17  2  0  0  0
 18 17  1  0  0  0
 17 16  1  0  0  0
 16  5  1  0  0  0
  1  6  1  0  0  0
  5  6  1  0  0  0
  5  4  1  0  0  0
  6  7  1  0  0  0
  4  9  1  0  0  0
  7  2  1  0  0  0
  7  8  1  0  0  0
  9  8  1  0  0  0
  9 13  1  0  0  0
  8  3  1  0  0  0
 14 13  1  0  0  0
  1 10  1  0  0  0
  2 11  1  0  0  0
  3 12  1  0  0  0
 14 15  1  0  0  0
M  END
> <minimizedAffinity>
-4.74694

$$$$
5D21_56N_A_902


 22 23  0  0  0  0  0  0  0  0999 V2000
    1.0456  -18.4458  -53.4615 O   0  0  0  0  0  0  0  0  0  0  0  0
    2.3354  -19.7875  -51.2503 O   0  0  0  0  0  0  0  0  0  0  0  0
    2.2905  -17.8922  -49.4274 O   0  0  0  0  0  0  0  0  0  0  0  0
   -0.2038  -16.6798  -50.5577 O   0  0  0  0  0  0  0  0  0  0  0  0
   -0.2501  -17.1955  -51.8715 C   0  0  0  0  0  0  0  0  0  0  0  0
    1.0356  -17.9570  -52.1290 C   0  0  0  0  0  0  0  0  0  0  0  0
    1.1177  -19.0811  -51.1185 C   0  0  0  0  0  0  0  0  0  0  0  0
    1.0535  -18.5362  -49.7072 C   0  0  0  0  0  0  0  0  0  0  0  0
   -0.1582  -17.6344  -49.5252 C   0  0  0  0  0  0  0  0  0  0  0  0
    0.9919  -17.7003  -54.0798 H   0  0  0  0  0  0  0  0  0  0  0  0
    2.4039  -20.1490  -52.1478 H   0  0  0  0  0  0  0  0  0  0  0  0
    3.0188  -18.5186  -49.5619 H   0  0  0  0  0  0  0  0  0  0  0  0
   -0.1453  -16.9400  -48.1808 C   0  0  0  0  0  0  0  0  0  0  0  0
    0.6565  -17.6825  -47.2810 O   0  0  0  0  0  0  0  0  0  0  0  0
    0.2914  -18.5759  -47.1842 H   0  0  0  0  0  0  0  0  0  0  0  0
   -0.3469  -16.1543  -52.7993 O   0  0  0  0  0  0  0  0  0  0  0  0
   -1.6715  -15.8126  -53.1265 C   0  0  0  0  0  0  0  0  0  0  0  0
   -2.7394  -16.7020  -52.9927 C   0  0  0  0  0  0  0  0  0  0  0  0
   -4.0200  -16.2928  -53.3369 C   0  0  0  0  0  0  0  0  0  0  0  0
   -4.2255  -14.9993  -53.8111 C   0  0  0  0  0  0  0  0  0  0  0  0
   -3.1623  -14.1203  -53.9406 C   0  0  0  0  0  0  0  0  0  0  0  0
   -1.8861  -14.5279  -53.5985 C   0  0  0  0  0  0  0  0  0  0  0  0
 20 21  2  0  0  0
 20 19  1  0  0  0
 21 22  1  0  0  0
 19 18  2  0  0  0
 22 17  2  0  0  0
 18 17  1  0  0  0
 17 16  1  0  0  0
 16  5  1  0  0  0
  1  6  1  0  0  0
  5  6  1  0  0  0
  5  4  1  0  0  0
  6  7  1  0  0  0
  4  9  1  0  0  0
  7  2  1  0  0  0
  7  8  1  0  0  0
  9  8  1  0  0  0
  9 13  1  0  0  0
  8  3  1  0  0  0
 14 13  1  0  0  0
  1 10  1  0  0  0
  2 11  1  0  0  0
  3 12  1  0  0  0
 14 15  1  0  0  0
M  END
> <minimizedAffinity>
-4.69074

$$$$
