5T8P_774_A_701


 19 21  0  0  0  0  0  0  0  0999 V2000
   28.8126   55.6893   -4.4984 C   0  0  0  0  0  0  0  0  0  0  0  0
   29.1663   54.6767   -5.3644 C   0  0  0  0  0  0  0  0  0  0  0  0
   28.7482   53.7308    1.0425 C   0  0  0  0  0  0  0  0  0  0  0  0
   29.4181   52.5346    0.8859 C   0  0  0  0  0  0  0  0  0  0  0  0
   28.5308   54.4407   -0.1740 C   0  0  0  0  0  0  0  0  0  0  0  0
   28.7517   55.4237   -3.1475 C   0  0  0  0  0  0  0  0  0  0  0  0
   29.0526   54.1547   -2.6772 C   0  0  0  0  0  0  0  0  0  0  0  0
   29.0464   53.7803   -1.2751 C   0  0  0  0  0  0  0  0  0  0  0  0
   29.4450   53.4494   -4.8072 C   0  0  0  0  0  0  0  0  0  0  0  0
   27.8353   55.7344   -0.1860 C   0  0  0  0  0  0  0  0  0  0  0  0
   27.2891   56.1332   -1.5325 C   0  0  0  0  0  0  0  0  0  0  0  0
   29.3981   53.1612   -3.4989 N   0  0  0  0  0  0  0  0  0  0  0  0
   28.3984   56.4898   -2.3448 O   0  0  0  0  0  0  0  0  0  0  0  0
   29.7780   52.3011   -0.7741 S   0  0  0  0  0  0  0  0  0  0  0  0
   29.8244   52.3323   -5.6773 C   0  0  0  0  0  0  0  0  0  0  0  0
   30.3315   51.2587   -4.9836 N   0  0  0  0  0  0  0  0  0  0  0  0
   29.6539   52.3799   -6.8879 O   0  0  0  0  0  0  0  0  0  0  0  0
   30.6192   50.4512   -5.4678 H   0  0  0  0  0  0  0  0  0  0  0  0
   30.4069   51.2975   -4.0027 H   0  0  0  0  0  0  0  0  0  0  0  0
 17 15  2  0  0  0
 15 16  1  0  0  0
 15  9  1  0  0  0
  2  9  2  0  0  0
  2  1  1  0  0  0
  9 12  1  0  0  0
  1  6  2  0  0  0
 12  7  2  0  0  0
  6  7  1  0  0  0
  6 13  1  0  0  0
  7  8  1  0  0  0
 13 11  1  0  0  0
 11 10  1  0  0  0
  8 14  1  0  0  0
  8  5  2  0  0  0
 14  4  1  0  0  0
 10  5  1  0  0  0
  5  3  1  0  0  0
  4  3  2  0  0  0
 16 18  1  0  0  0
 16 19  1  0  0  0
M  END
> <minimizedAffinity>
-8.02114

$$$$
5T8P_774_A_701


 19 21  0  0  0  0  0  0  0  0999 V2000
   28.3469   55.1084   -0.4809 C   0  0  0  0  0  0  0  0  0  0  0  0
   27.5254   56.1827   -0.7482 C   0  0  0  0  0  0  0  0  0  0  0  0
   30.2223   52.6568   -5.4823 C   0  0  0  0  0  0  0  0  0  0  0  0
   29.8806   53.6459   -6.3816 C   0  0  0  0  0  0  0  0  0  0  0  0
   29.8240   52.9259   -4.1406 C   0  0  0  0  0  0  0  0  0  0  0  0
   28.8952   54.4074   -1.5331 C   0  0  0  0  0  0  0  0  0  0  0  0
   28.6244   54.7919   -2.8372 C   0  0  0  0  0  0  0  0  0  0  0  0
   29.1734   54.1402   -4.0119 C   0  0  0  0  0  0  0  0  0  0  0  0
   27.3116   56.4892   -2.0729 C   0  0  0  0  0  0  0  0  0  0  0  0
   30.1128   51.9777   -3.0566 C   0  0  0  0  0  0  0  0  0  0  0  0
   29.2642   52.1647   -1.8256 C   0  0  0  0  0  0  0  0  0  0  0  0
   27.8328   55.8295   -3.1170 N   0  0  0  0  0  0  0  0  0  0  0  0
   29.7125   53.3506   -1.1850 O   0  0  0  0  0  0  0  0  0  0  0  0
   29.0690   54.9083   -5.5525 S   0  0  0  0  0  0  0  0  0  0  0  0
   26.4452   57.6194   -2.4204 C   0  0  0  0  0  0  0  0  0  0  0  0
   26.7614   58.1864   -3.6327 N   0  0  0  0  0  0  0  0  0  0  0  0
   25.5233   57.9639   -1.6936 O   0  0  0  0  0  0  0  0  0  0  0  0
   26.2438   58.9542   -3.9670 H   0  0  0  0  0  0  0  0  0  0  0  0
   27.5054   57.8244   -4.1663 H   0  0  0  0  0  0  0  0  0  0  0  0
 17 15  2  0  0  0
 15 16  1  0  0  0
 15  9  1  0  0  0
  2  9  2  0  0  0
  2  1  1  0  0  0
  9 12  1  0  0  0
  1  6  2  0  0  0
 12  7  2  0  0  0
  6  7  1  0  0  0
  6 13  1  0  0  0
  7  8  1  0  0  0
 13 11  1  0  0  0
 11 10  1  0  0  0
  8 14  1  0  0  0
  8  5  2  0  0  0
 14  4  1  0  0  0
 10  5  1  0  0  0
  5  3  1  0  0  0
  4  3  2  0  0  0
 16 18  1  0  0  0
 16 19  1  0  0  0
M  END
> <minimizedAffinity>
-7.77348

$$$$
5T8P_774_A_701


 19 21  0  0  0  0  0  0  0  0999 V2000
   29.9816   52.0845   -2.9938 C   0  0  0  0  0  0  0  0  0  0  0  0
   29.8389   52.8236   -4.1486 C   0  0  0  0  0  0  0  0  0  0  0  0
   27.9481   55.0834    1.6337 C   0  0  0  0  0  0  0  0  0  0  0  0
   27.2490   56.0828    0.9883 C   0  0  0  0  0  0  0  0  0  0  0  0
   28.6405   54.1974    0.7581 C   0  0  0  0  0  0  0  0  0  0  0  0
   29.5505   52.6198   -1.7993 C   0  0  0  0  0  0  0  0  0  0  0  0
   28.9751   53.8808   -1.7733 C   0  0  0  0  0  0  0  0  0  0  0  0
   28.4639   54.5211   -0.5755 C   0  0  0  0  0  0  0  0  0  0  0  0
   29.2590   54.0658   -4.0258 C   0  0  0  0  0  0  0  0  0  0  0  0
   29.4313   53.0752    1.2806 C   0  0  0  0  0  0  0  0  0  0  0  0
   30.4422   52.5227    0.3094 C   0  0  0  0  0  0  0  0  0  0  0  0
   28.8269   54.6118   -2.8803 N   0  0  0  0  0  0  0  0  0  0  0  0
   29.7201   51.8166   -0.6894 O   0  0  0  0  0  0  0  0  0  0  0  0
   27.4533   55.9125   -0.7055 S   0  0  0  0  0  0  0  0  0  0  0  0
   29.0826   54.8999   -5.2182 C   0  0  0  0  0  0  0  0  0  0  0  0
   28.1480   55.8938   -5.0457 N   0  0  0  0  0  0  0  0  0  0  0  0
   29.7480   54.7177   -6.2286 O   0  0  0  0  0  0  0  0  0  0  0  0
   27.9481   56.5149   -5.7829 H   0  0  0  0  0  0  0  0  0  0  0  0
   27.6787   55.9842   -4.1849 H   0  0  0  0  0  0  0  0  0  0  0  0
 17 15  2  0  0  0
 15 16  1  0  0  0
 15  9  1  0  0  0
  2  9  2  0  0  0
  2  1  1  0  0  0
  9 12  1  0  0  0
  1  6  2  0  0  0
 12  7  2  0  0  0
  6  7  1  0  0  0
  6 13  1  0  0  0
  7  8  1  0  0  0
 13 11  1  0  0  0
 11 10  1  0  0  0
  8 14  1  0  0  0
  8  5  2  0  0  0
 14  4  1  0  0  0
 10  5  1  0  0  0
  5  3  1  0  0  0
  4  3  2  0  0  0
 16 18  1  0  0  0
 16 19  1  0  0  0
M  END
> <minimizedAffinity>
-7.69873

$$$$
5T8P_774_A_701


 19 21  0  0  0  0  0  0  0  0999 V2000
   27.3086   55.5849   -0.7949 C   0  0  0  0  0  0  0  0  0  0  0  0
   27.8375   54.9972    0.3344 C   0  0  0  0  0  0  0  0  0  0  0  0
   29.6881   53.2518   -5.6360 C   0  0  0  0  0  0  0  0  0  0  0  0
   30.2882   52.1321   -5.0973 C   0  0  0  0  0  0  0  0  0  0  0  0
   29.0615   54.0969   -4.6747 C   0  0  0  0  0  0  0  0  0  0  0  0
   27.7386   55.1608   -2.0337 C   0  0  0  0  0  0  0  0  0  0  0  0
   28.6833   54.1508   -2.1303 C   0  0  0  0  0  0  0  0  0  0  0  0
   29.1799   53.6136   -3.3836 C   0  0  0  0  0  0  0  0  0  0  0  0
   28.7714   54.0048    0.1412 C   0  0  0  0  0  0  0  0  0  0  0  0
   28.3728   55.3296   -5.0794 C   0  0  0  0  0  0  0  0  0  0  0  0
   28.1663   56.3206   -3.9632 C   0  0  0  0  0  0  0  0  0  0  0  0
   29.2067   53.5685   -1.0493 N   0  0  0  0  0  0  0  0  0  0  0  0
   27.1570   55.7912   -3.1154 O   0  0  0  0  0  0  0  0  0  0  0  0
   30.0661   52.1342   -3.3972 S   0  0  0  0  0  0  0  0  0  0  0  0
   29.3719   53.3441    1.3037 C   0  0  0  0  0  0  0  0  0  0  0  0
   29.5831   54.2001    2.3591 N   0  0  0  0  0  0  0  0  0  0  0  0
   29.6088   52.1437    1.3039 O   0  0  0  0  0  0  0  0  0  0  0  0
   29.9826   53.8635    3.1936 H   0  0  0  0  0  0  0  0  0  0  0  0
   29.3349   55.1495    2.2801 H   0  0  0  0  0  0  0  0  0  0  0  0
 17 15  2  0  0  0
 15 16  1  0  0  0
 15  9  1  0  0  0
  2  9  2  0  0  0
  2  1  1  0  0  0
  9 12  1  0  0  0
  1  6  2  0  0  0
 12  7  2  0  0  0
  6  7  1  0  0  0
  6 13  1  0  0  0
  7  8  1  0  0  0
 13 11  1  0  0  0
 11 10  1  0  0  0
  8 14  1  0  0  0
  8  5  2  0  0  0
 14  4  1  0  0  0
 10  5  1  0  0  0
  5  3  1  0  0  0
  4  3  2  0  0  0
 16 18  1  0  0  0
 16 19  1  0  0  0
M  END
> <minimizedAffinity>
-7.54097

$$$$
5T8P_774_A_701


 19 21  0  0  0  0  0  0  0  0999 V2000
   29.2931   53.4282    0.9092 C   0  0  0  0  0  0  0  0  0  0  0  0
   28.5191   54.3135    1.6287 C   0  0  0  0  0  0  0  0  0  0  0  0
   28.9499   54.5959   -4.8406 C   0  0  0  0  0  0  0  0  0  0  0  0
   28.3745   55.8494   -4.8008 C   0  0  0  0  0  0  0  0  0  0  0  0
   29.1081   53.9862   -3.5622 C   0  0  0  0  0  0  0  0  0  0  0  0
   29.3482   53.5493   -0.4625 C   0  0  0  0  0  0  0  0  0  0  0  0
   28.6382   54.5565   -1.0976 C   0  0  0  0  0  0  0  0  0  0  0  0
   28.6518   54.7872   -2.5304 C   0  0  0  0  0  0  0  0  0  0  0  0
   27.8478   55.2786    0.9129 C   0  0  0  0  0  0  0  0  0  0  0  0
   29.7074   52.6523   -3.4245 C   0  0  0  0  0  0  0  0  0  0  0  0
   29.4017   51.9661   -2.1182 C   0  0  0  0  0  0  0  0  0  0  0  0
   27.8842   55.4241   -0.4192 N   0  0  0  0  0  0  0  0  0  0  0  0
   30.1501   52.6317   -1.1110 O   0  0  0  0  0  0  0  0  0  0  0  0
   28.0368   56.2651   -3.1720 S   0  0  0  0  0  0  0  0  0  0  0  0
   27.0065   56.2472    1.6221 C   0  0  0  0  0  0  0  0  0  0  0  0
   27.0373   56.0878    2.9876 N   0  0  0  0  0  0  0  0  0  0  0  0
   26.3877   57.1151    1.0216 O   0  0  0  0  0  0  0  0  0  0  0  0
   26.5086   56.6848    3.5649 H   0  0  0  0  0  0  0  0  0  0  0  0
   27.5881   55.3767    3.3880 H   0  0  0  0  0  0  0  0  0  0  0  0
 17 15  2  0  0  0
 15 16  1  0  0  0
 15  9  1  0  0  0
  2  9  2  0  0  0
  2  1  1  0  0  0
  9 12  1  0  0  0
  1  6  2  0  0  0
 12  7  2  0  0  0
  6  7  1  0  0  0
  6 13  1  0  0  0
  7  8  1  0  0  0
 13 11  1  0  0  0
 11 10  1  0  0  0
  8 14  1  0  0  0
  8  5  2  0  0  0
 14  4  1  0  0  0
 10  5  1  0  0  0
  5  3  1  0  0  0
  4  3  2  0  0  0
 16 18  1  0  0  0
 16 19  1  0  0  0
M  END
> <minimizedAffinity>
-7.40026

$$$$
5T8P_774_A_701


 19 21  0  0  0  0  0  0  0  0999 V2000
   26.4776   57.3096   -1.6958 C   0  0  0  0  0  0  0  0  0  0  0  0
   26.2539   57.6624   -0.3820 C   0  0  0  0  0  0  0  0  0  0  0  0
   29.8168   52.4822   -1.9909 C   0  0  0  0  0  0  0  0  0  0  0  0
   29.7363   52.0499   -0.6830 C   0  0  0  0  0  0  0  0  0  0  0  0
   29.1452   53.7143   -2.2400 C   0  0  0  0  0  0  0  0  0  0  0  0
   27.2359   56.1917   -1.9685 C   0  0  0  0  0  0  0  0  0  0  0  0
   27.7537   55.4357   -0.9283 C   0  0  0  0  0  0  0  0  0  0  0  0
   28.5386   54.2282   -1.1076 C   0  0  0  0  0  0  0  0  0  0  0  0
   26.8095   56.8540    0.5835 C   0  0  0  0  0  0  0  0  0  0  0  0
   29.1296   54.3147   -3.5804 C   0  0  0  0  0  0  0  0  0  0  0  0
   28.7936   55.7835   -3.5989 C   0  0  0  0  0  0  0  0  0  0  0  0
   27.5478   55.7597    0.3501 N   0  0  0  0  0  0  0  0  0  0  0  0
   27.4083   55.8993   -3.3067 O   0  0  0  0  0  0  0  0  0  0  0  0
   28.8215   53.1767    0.2297 S   0  0  0  0  0  0  0  0  0  0  0  0
   26.6088   57.1792    1.9986 C   0  0  0  0  0  0  0  0  0  0  0  0
   27.0176   56.1748    2.8443 N   0  0  0  0  0  0  0  0  0  0  0  0
   26.1559   58.2611    2.3468 O   0  0  0  0  0  0  0  0  0  0  0  0
   26.9294   56.2853    3.8186 H   0  0  0  0  0  0  0  0  0  0  0  0
   27.3983   55.3452    2.4755 H   0  0  0  0  0  0  0  0  0  0  0  0
 17 15  2  0  0  0
 15 16  1  0  0  0
 15  9  1  0  0  0
  2  9  2  0  0  0
  2  1  1  0  0  0
  9 12  1  0  0  0
  1  6  2  0  0  0
 12  7  2  0  0  0
  6  7  1  0  0  0
  6 13  1  0  0  0
  7  8  1  0  0  0
 13 11  1  0  0  0
 11 10  1  0  0  0
  8 14  1  0  0  0
  8  5  2  0  0  0
 14  4  1  0  0  0
 10  5  1  0  0  0
  5  3  1  0  0  0
  4  3  2  0  0  0
 16 18  1  0  0  0
 16 19  1  0  0  0
M  END
> <minimizedAffinity>
-7.29760

$$$$
5T8P_774_A_701


 19 21  0  0  0  0  0  0  0  0999 V2000
   27.9155   55.4715   -4.7142 C   0  0  0  0  0  0  0  0  0  0  0  0
   27.3451   56.6568   -4.3017 C   0  0  0  0  0  0  0  0  0  0  0  0
   29.7258   52.3375   -0.0836 C   0  0  0  0  0  0  0  0  0  0  0  0
   29.0763   53.0074    0.9330 C   0  0  0  0  0  0  0  0  0  0  0  0
   29.5404   52.9144   -1.3735 C   0  0  0  0  0  0  0  0  0  0  0  0
   28.3936   54.5934   -3.7657 C   0  0  0  0  0  0  0  0  0  0  0  0
   28.2887   54.9046   -2.4188 C   0  0  0  0  0  0  0  0  0  0  0  0
   28.7336   54.0381   -1.3430 C   0  0  0  0  0  0  0  0  0  0  0  0
   27.2866   56.8812   -2.9451 C   0  0  0  0  0  0  0  0  0  0  0  0
   30.1600   52.3239   -2.5672 C   0  0  0  0  0  0  0  0  0  0  0  0
   30.2572   53.2602   -3.7439 C   0  0  0  0  0  0  0  0  0  0  0  0
   27.7390   56.0461   -1.9991 N   0  0  0  0  0  0  0  0  0  0  0  0
   28.9427   53.4257   -4.2562 O   0  0  0  0  0  0  0  0  0  0  0  0
   28.2344   54.3497    0.2781 S   0  0  0  0  0  0  0  0  0  0  0  0
   26.6935   58.1251   -2.4453 C   0  0  0  0  0  0  0  0  0  0  0  0
   25.5265   57.9217   -1.7468 N   0  0  0  0  0  0  0  0  0  0  0  0
   27.2363   59.2072   -2.6226 O   0  0  0  0  0  0  0  0  0  0  0  0
   25.0414   58.6886   -1.3649 H   0  0  0  0  0  0  0  0  0  0  0  0
   25.1762   57.0093   -1.6287 H   0  0  0  0  0  0  0  0  0  0  0  0
 17 15  2  0  0  0
 15 16  1  0  0  0
 15  9  1  0  0  0
  2  9  2  0  0  0
  2  1  1  0  0  0
  9 12  1  0  0  0
  1  6  2  0  0  0
 12  7  2  0  0  0
  6  7  1  0  0  0
  6 13  1  0  0  0
  7  8  1  0  0  0
 13 11  1  0  0  0
 11 10  1  0  0  0
  8 14  1  0  0  0
  8  5  2  0  0  0
 14  4  1  0  0  0
 10  5  1  0  0  0
  5  3  1  0  0  0
  4  3  2  0  0  0
 16 18  1  0  0  0
 16 19  1  0  0  0
M  END
> <minimizedAffinity>
-7.28051

$$$$
5T8P_774_A_701


 19 21  0  0  0  0  0  0  0  0999 V2000
   29.5877   52.3811   -2.1073 C   0  0  0  0  0  0  0  0  0  0  0  0
   30.1223   52.3252   -3.3767 C   0  0  0  0  0  0  0  0  0  0  0  0
   26.6754   57.4250   -1.3207 C   0  0  0  0  0  0  0  0  0  0  0  0
   26.5802   57.8578   -2.6274 C   0  0  0  0  0  0  0  0  0  0  0  0
   27.4152   56.2177   -1.1588 C   0  0  0  0  0  0  0  0  0  0  0  0
   28.8575   53.4897   -1.7371 C   0  0  0  0  0  0  0  0  0  0  0  0
   28.6627   54.5235   -2.6399 C   0  0  0  0  0  0  0  0  0  0  0  0
   27.8877   55.7180   -2.3594 C   0  0  0  0  0  0  0  0  0  0  0  0
   29.8792   53.3987   -4.2030 C   0  0  0  0  0  0  0  0  0  0  0  0
   27.6098   55.6166    0.1672 C   0  0  0  0  0  0  0  0  0  0  0  0
   28.7526   54.6375    0.2434 C   0  0  0  0  0  0  0  0  0  0  0  0
   29.1709   54.4882   -3.8736 N   0  0  0  0  0  0  0  0  0  0  0  0
   28.3484   53.4680   -0.4540 O   0  0  0  0  0  0  0  0  0  0  0  0
   27.4083   56.7578   -3.6491 S   0  0  0  0  0  0  0  0  0  0  0  0
   30.4239   53.3986   -5.5639 C   0  0  0  0  0  0  0  0  0  0  0  0
   30.2670   52.1925   -6.2057 N   0  0  0  0  0  0  0  0  0  0  0  0
   30.9240   54.4031   -6.0514 O   0  0  0  0  0  0  0  0  0  0  0  0
   30.5963   52.0783   -7.1264 H   0  0  0  0  0  0  0  0  0  0  0  0
   29.8253   51.4432   -5.7444 H   0  0  0  0  0  0  0  0  0  0  0  0
 17 15  2  0  0  0
 15 16  1  0  0  0
 15  9  1  0  0  0
  2  9  2  0  0  0
  2  1  1  0  0  0
  9 12  1  0  0  0
  1  6  2  0  0  0
 12  7  2  0  0  0
  6  7  1  0  0  0
  6 13  1  0  0  0
  7  8  1  0  0  0
 13 11  1  0  0  0
 11 10  1  0  0  0
  8 14  1  0  0  0
  8  5  2  0  0  0
 14  4  1  0  0  0
 10  5  1  0  0  0
  5  3  1  0  0  0
  4  3  2  0  0  0
 16 18  1  0  0  0
 16 19  1  0  0  0
M  END
> <minimizedAffinity>
-7.27857

$$$$
5T8P_774_A_701


 19 21  0  0  0  0  0  0  0  0999 V2000
   30.2470   52.3993   -2.8402 C   0  0  0  0  0  0  0  0  0  0  0  0
   30.1773   51.9951   -1.5241 C   0  0  0  0  0  0  0  0  0  0  0  0
   27.0528   57.2621   -3.6719 C   0  0  0  0  0  0  0  0  0  0  0  0
   26.8445   57.6438   -2.3624 C   0  0  0  0  0  0  0  0  0  0  0  0
   27.7629   56.0348   -3.8155 C   0  0  0  0  0  0  0  0  0  0  0  0
   29.5667   53.5330   -3.2289 C   0  0  0  0  0  0  0  0  0  0  0  0
   28.8333   54.2533   -2.2988 C   0  0  0  0  0  0  0  0  0  0  0  0
   28.1066   55.4733   -2.5986 C   0  0  0  0  0  0  0  0  0  0  0  0
   29.4234   52.7709   -0.6732 C   0  0  0  0  0  0  0  0  0  0  0  0
   28.0721   55.4856   -5.1423 C   0  0  0  0  0  0  0  0  0  0  0  0
   28.4043   54.0158   -5.1438 C   0  0  0  0  0  0  0  0  0  0  0  0
   28.7540   53.8794   -1.0199 N   0  0  0  0  0  0  0  0  0  0  0  0
   29.6918   53.8775   -4.5599 O   0  0  0  0  0  0  0  0  0  0  0  0
   27.5372   56.4756   -1.3159 S   0  0  0  0  0  0  0  0  0  0  0  0
   29.3090   52.3906    0.7379 C   0  0  0  0  0  0  0  0  0  0  0  0
   28.9918   53.4493    1.5561 N   0  0  0  0  0  0  0  0  0  0  0  0
   29.4520   51.2306    1.0998 O   0  0  0  0  0  0  0  0  0  0  0  0
   28.8895   53.3091    2.5252 H   0  0  0  0  0  0  0  0  0  0  0  0
   28.8670   54.3475    1.1728 H   0  0  0  0  0  0  0  0  0  0  0  0
 17 15  2  0  0  0
 15 16  1  0  0  0
 15  9  1  0  0  0
  2  9  2  0  0  0
  2  1  1  0  0  0
  9 12  1  0  0  0
  1  6  2  0  0  0
 12  7  2  0  0  0
  6  7  1  0  0  0
  6 13  1  0  0  0
  7  8  1  0  0  0
 13 11  1  0  0  0
 11 10  1  0  0  0
  8 14  1  0  0  0
  8  5  2  0  0  0
 14  4  1  0  0  0
 10  5  1  0  0  0
  5  3  1  0  0  0
  4  3  2  0  0  0
 16 18  1  0  0  0
 16 19  1  0  0  0
M  END
> <minimizedAffinity>
-6.81831

$$$$
5T8P_774_A_701


 19 21  0  0  0  0  0  0  0  0999 V2000
   26.8341   56.4657    0.4928 C   0  0  0  0  0  0  0  0  0  0  0  0
   27.5480   55.6427    1.3375 C   0  0  0  0  0  0  0  0  0  0  0  0
   28.3178   55.4561   -5.1038 C   0  0  0  0  0  0  0  0  0  0  0  0
   28.9952   54.2621   -4.9647 C   0  0  0  0  0  0  0  0  0  0  0  0
   27.8739   56.0213   -3.8731 C   0  0  0  0  0  0  0  0  0  0  0  0
   27.0387   56.3686   -0.8666 C   0  0  0  0  0  0  0  0  0  0  0  0
   27.9455   55.4466   -1.3662 C   0  0  0  0  0  0  0  0  0  0  0  0
   28.2124   55.2457   -2.7784 C   0  0  0  0  0  0  0  0  0  0  0  0
   28.4273   54.7606    0.7518 C   0  0  0  0  0  0  0  0  0  0  0  0
   27.1333   57.2894   -3.8416 C   0  0  0  0  0  0  0  0  0  0  0  0
   27.1311   57.9739   -2.4992 C   0  0  0  0  0  0  0  0  0  0  0  0
   28.6455   54.6402   -0.5653 N   0  0  0  0  0  0  0  0  0  0  0  0
   26.2816   57.2196   -1.6466 O   0  0  0  0  0  0  0  0  0  0  0  0
   29.0729   53.8462   -3.3031 S   0  0  0  0  0  0  0  0  0  0  0  0
   29.2169   53.8613    1.5983 C   0  0  0  0  0  0  0  0  0  0  0  0
   29.7123   54.4785    2.7230 N   0  0  0  0  0  0  0  0  0  0  0  0
   29.3622   52.6804    1.3133 O   0  0  0  0  0  0  0  0  0  0  0  0
   30.2581   53.9685    3.3643 H   0  0  0  0  0  0  0  0  0  0  0  0
   29.5210   55.4302    2.8869 H   0  0  0  0  0  0  0  0  0  0  0  0
 17 15  2  0  0  0
 15 16  1  0  0  0
 15  9  1  0  0  0
  2  9  2  0  0  0
  2  1  1  0  0  0
  9 12  1  0  0  0
  1  6  2  0  0  0
 12  7  2  0  0  0
  6  7  1  0  0  0
  6 13  1  0  0  0
  7  8  1  0  0  0
 13 11  1  0  0  0
 11 10  1  0  0  0
  8 14  1  0  0  0
  8  5  2  0  0  0
 14  4  1  0  0  0
 10  5  1  0  0  0
  5  3  1  0  0  0
  4  3  2  0  0  0
 16 18  1  0  0  0
 16 19  1  0  0  0
M  END
> <minimizedAffinity>
-6.50530

$$$$
