2W8J_PLS_A_1420


 28 28  0  0  0  0  0  0  0  0999 V2000
    4.0130   16.7859   35.0462 N   0  0  0  0  0  0  0  0  0  0  0  0
    5.1524   16.8334   35.7534 C   0  0  0  0  0  0  0  0  0  0  0  0
    5.0601   17.1524   37.2305 C   0  0  0  0  0  0  0  0  0  0  0  0
    6.3670   16.5877   35.1214 C   0  0  0  0  0  0  0  0  0  0  0  0
    7.5115   16.6463   35.8597 O   0  0  0  0  0  0  0  0  0  0  0  0
    6.4022   16.3039   33.7500 C   0  0  0  0  0  0  0  0  0  0  0  0
    5.1932   16.2623   33.0555 C   0  0  0  0  0  0  0  0  0  0  0  0
    4.0092   16.5010   33.7388 C   0  0  0  0  0  0  0  0  0  0  0  0
    7.4686   16.8375   36.7760 H   0  0  0  0  0  0  0  0  0  0  0  0
    7.6725   16.0523   33.0104 C   0  0  0  0  0  0  0  0  0  0  0  0
    8.3344   14.9789   33.1290 N   0  0  0  0  0  0  0  0  0  0  0  0
    8.6415   14.9653   34.1016 H   0  0  0  0  0  0  0  0  0  0  0  0
    9.5148   14.5808   32.3539 C   0  0  0  0  0  0  0  0  0  0  0  0
    9.0630   14.1645   30.9640 C   0  0  0  0  0  0  0  0  0  0  0  0
    8.6173   14.9973   30.1399 O   0  0  0  0  0  0  0  0  0  0  0  0
    9.1802   12.9645   30.6243 O   0  0  0  0  0  0  0  0  0  0  0  0
    9.5125   12.3354   31.2340 H   0  0  0  0  0  0  0  0  0  0  0  0
   10.2892   13.4173   32.9785 C   0  0  0  0  0  0  0  0  0  0  0  0
   11.5309   13.2049   32.3012 O   0  0  0  0  0  0  0  0  0  0  0  0
   11.3591   12.9879   31.3716 H   0  0  0  0  0  0  0  0  0  0  0  0
    5.1151   15.9668   31.5760 C   0  0  0  0  0  0  0  0  0  0  0  0
    5.0453   17.1890   30.8343 O   0  0  0  0  0  0  0  0  0  0  0  0
    5.3243   17.2373   29.2388 P   0  0  0  0  0  0  0  0  0  0  0  0
    4.7763   18.5526   28.7707 O   0  0  0  0  0  0  0  0  0  0  0  0
    4.6149   16.0311   28.6871 O   0  0  0  0  0  0  0  0  0  0  0  0
    6.8200   17.1951   29.1703 O   0  0  0  0  0  0  0  0  0  0  0  0
    3.6564   16.1513   28.7753 H   0  0  0  0  0  0  0  0  0  0  0  0
    7.1841   18.0113   29.5473 H   0  0  0  0  0  0  0  0  0  0  0  0
 11 13  1  0  0  0
 11 10  1  0  0  0
 13 18  1  0  0  0
 13 14  1  0  0  0
 18 19  1  0  0  0
 14 15  2  0  0  0
 14 16  1  0  0  0
  1  2  2  0  0  0
  1  8  1  0  0  0
  2  3  1  0  0  0
  2  4  1  0  0  0
  4  5  1  0  0  0
  4  6  2  0  0  0
  6 10  1  0  0  0
  6  7  1  0  0  0
  7  8  2  0  0  0
  7 21  1  0  0  0
 21 22  1  0  0  0
 22 23  1  0  0  0
 23 24  2  0  0  0
 23 25  1  0  0  0
 23 26  1  0  0  0
 11 12  1  0  0  0
 19 20  1  0  0  0
 16 17  1  0  0  0
  5  9  1  0  0  0
 25 27  1  0  0  0
 26 28  1  0  0  0
M  END
> <minimizedAffinity>
-8.91713

$$$$
2W8J_PLS_A_1420


 28 28  0  0  0  0  0  0  0  0999 V2000
    5.2970   16.4105   35.3862 N   0  0  0  0  0  0  0  0  0  0  0  0
    6.3950   15.6443   35.4751 C   0  0  0  0  0  0  0  0  0  0  0  0
    6.6791   14.9586   36.7947 C   0  0  0  0  0  0  0  0  0  0  0  0
    7.2263   15.4995   34.3691 C   0  0  0  0  0  0  0  0  0  0  0  0
    8.3384   14.7198   34.4851 O   0  0  0  0  0  0  0  0  0  0  0  0
    6.9254   16.1603   33.1711 C   0  0  0  0  0  0  0  0  0  0  0  0
    5.7725   16.9440   33.1236 C   0  0  0  0  0  0  0  0  0  0  0  0
    4.9711   17.0418   34.2523 C   0  0  0  0  0  0  0  0  0  0  0  0
    8.5237   14.2853   35.2944 H   0  0  0  0  0  0  0  0  0  0  0  0
    7.7865   16.0627   31.9574 C   0  0  0  0  0  0  0  0  0  0  0  0
    7.6712   15.1307   31.1075 N   0  0  0  0  0  0  0  0  0  0  0  0
    7.3651   14.3202   31.6458 H   0  0  0  0  0  0  0  0  0  0  0  0
    8.7158   14.6185   30.2136 C   0  0  0  0  0  0  0  0  0  0  0  0
    8.0634   14.1611   28.9196 C   0  0  0  0  0  0  0  0  0  0  0  0
    6.8386   13.9022   28.8556 O   0  0  0  0  0  0  0  0  0  0  0  0
    8.7640   14.0828   27.8841 O   0  0  0  0  0  0  0  0  0  0  0  0
    9.6804   14.2745   27.9228 H   0  0  0  0  0  0  0  0  0  0  0  0
    9.4977   13.4415   30.8025 C   0  0  0  0  0  0  0  0  0  0  0  0
    9.2284   12.2351   30.0828 O   0  0  0  0  0  0  0  0  0  0  0  0
    8.2826   12.0279   30.1414 H   0  0  0  0  0  0  0  0  0  0  0  0
    5.3537   17.7001   31.8845 C   0  0  0  0  0  0  0  0  0  0  0  0
    5.0026   16.7818   30.8442 O   0  0  0  0  0  0  0  0  0  0  0  0
    5.2092   17.1448   29.2785 P   0  0  0  0  0  0  0  0  0  0  0  0
    4.5796   18.4927   29.0881 O   0  0  0  0  0  0  0  0  0  0  0  0
    4.5343   16.0271   28.5317 O   0  0  0  0  0  0  0  0  0  0  0  0
    6.7008   17.1982   29.1527 O   0  0  0  0  0  0  0  0  0  0  0  0
    3.5760   16.0758   28.6736 H   0  0  0  0  0  0  0  0  0  0  0  0
    7.0419   17.9475   29.6656 H   0  0  0  0  0  0  0  0  0  0  0  0
 11 13  1  0  0  0
 11 10  1  0  0  0
 13 18  1  0  0  0
 13 14  1  0  0  0
 18 19  1  0  0  0
 14 15  2  0  0  0
 14 16  1  0  0  0
  1  2  2  0  0  0
  1  8  1  0  0  0
  2  3  1  0  0  0
  2  4  1  0  0  0
  4  5  1  0  0  0
  4  6  2  0  0  0
  6 10  1  0  0  0
  6  7  1  0  0  0
  7  8  2  0  0  0
  7 21  1  0  0  0
 21 22  1  0  0  0
 22 23  1  0  0  0
 23 24  2  0  0  0
 23 25  1  0  0  0
 23 26  1  0  0  0
 11 12  1  0  0  0
 19 20  1  0  0  0
 16 17  1  0  0  0
  5  9  1  0  0  0
 25 27  1  0  0  0
 26 28  1  0  0  0
M  END
> <minimizedAffinity>
-8.86212

$$$$
2W8J_PLS_A_1420


 28 28  0  0  0  0  0  0  0  0999 V2000
    9.5929   13.7938   30.5885 N   0  0  0  0  0  0  0  0  0  0  0  0
    9.5902   14.0762   31.9004 C   0  0  0  0  0  0  0  0  0  0  0  0
   10.7537   13.5860   32.7360 C   0  0  0  0  0  0  0  0  0  0  0  0
    8.5381   14.8037   32.4470 C   0  0  0  0  0  0  0  0  0  0  0  0
    8.5551   15.0741   33.7830 O   0  0  0  0  0  0  0  0  0  0  0  0
    7.4795   15.2294   31.6342 C   0  0  0  0  0  0  0  0  0  0  0  0
    7.5255   14.9155   30.2758 C   0  0  0  0  0  0  0  0  0  0  0  0
    8.6065   14.1997   29.7807 C   0  0  0  0  0  0  0  0  0  0  0  0
    9.2716   14.7814   34.3111 H   0  0  0  0  0  0  0  0  0  0  0  0
    6.3132   15.9938   32.1627 C   0  0  0  0  0  0  0  0  0  0  0  0
    6.3875   16.7395   33.1840 N   0  0  0  0  0  0  0  0  0  0  0  0
    7.2431   16.4512   33.6585 H   0  0  0  0  0  0  0  0  0  0  0  0
    5.3899   16.8746   34.2513 C   0  0  0  0  0  0  0  0  0  0  0  0
    5.1513   15.5058   34.8665 C   0  0  0  0  0  0  0  0  0  0  0  0
    6.0941   14.8128   35.3161 O   0  0  0  0  0  0  0  0  0  0  0  0
    3.9762   15.0824   34.9621 O   0  0  0  0  0  0  0  0  0  0  0  0
    3.2654   15.5939   34.6287 H   0  0  0  0  0  0  0  0  0  0  0  0
    4.0474   17.4255   33.7637 C   0  0  0  0  0  0  0  0  0  0  0  0
    4.2212   18.6699   33.0802 O   0  0  0  0  0  0  0  0  0  0  0  0
    4.6115   19.3196   33.6857 H   0  0  0  0  0  0  0  0  0  0  0  0
    6.4383   15.3237   29.3096 C   0  0  0  0  0  0  0  0  0  0  0  0
    6.5602   16.7141   28.9923 O   0  0  0  0  0  0  0  0  0  0  0  0
    5.2617   17.6497   28.7389 P   0  0  0  0  0  0  0  0  0  0  0  0
    5.7274   18.7548   27.8382 O   0  0  0  0  0  0  0  0  0  0  0  0
    4.8357   18.0969   30.1104 O   0  0  0  0  0  0  0  0  0  0  0  0
    4.3206   16.7156   28.0423 O   0  0  0  0  0  0  0  0  0  0  0  0
    5.5050   18.6953   30.4778 H   0  0  0  0  0  0  0  0  0  0  0  0
    4.6795   16.4853   27.1710 H   0  0  0  0  0  0  0  0  0  0  0  0
 11 13  1  0  0  0
 11 10  1  0  0  0
 13 18  1  0  0  0
 13 14  1  0  0  0
 18 19  1  0  0  0
 14 15  2  0  0  0
 14 16  1  0  0  0
  1  2  2  0  0  0
  1  8  1  0  0  0
  2  3  1  0  0  0
  2  4  1  0  0  0
  4  5  1  0  0  0
  4  6  2  0  0  0
  6 10  1  0  0  0
  6  7  1  0  0  0
  7  8  2  0  0  0
  7 21  1  0  0  0
 21 22  1  0  0  0
 22 23  1  0  0  0
 23 24  2  0  0  0
 23 25  1  0  0  0
 23 26  1  0  0  0
 11 12  1  0  0  0
 19 20  1  0  0  0
 16 17  1  0  0  0
  5  9  1  0  0  0
 25 27  1  0  0  0
 26 28  1  0  0  0
M  END
> <minimizedAffinity>
-8.85803

$$$$
2W8J_PLS_A_1420


 28 28  0  0  0  0  0  0  0  0999 V2000
    7.1878   15.3510   29.9365 N   0  0  0  0  0  0  0  0  0  0  0  0
    8.2281   14.8858   30.6449 C   0  0  0  0  0  0  0  0  0  0  0  0
    9.2751   14.0685   29.9182 C   0  0  0  0  0  0  0  0  0  0  0  0
    8.3173   15.1663   32.0045 C   0  0  0  0  0  0  0  0  0  0  0  0
    9.3809   14.6788   32.7040 O   0  0  0  0  0  0  0  0  0  0  0  0
    7.3192   15.9210   32.6345 C   0  0  0  0  0  0  0  0  0  0  0  0
    6.2577   16.3862   31.8583 C   0  0  0  0  0  0  0  0  0  0  0  0
    6.2262   16.0890   30.5031 C   0  0  0  0  0  0  0  0  0  0  0  0
   10.0390   14.1760   32.2658 H   0  0  0  0  0  0  0  0  0  0  0  0
    7.3460   16.2381   34.0914 C   0  0  0  0  0  0  0  0  0  0  0  0
    7.4006   15.3443   34.9872 N   0  0  0  0  0  0  0  0  0  0  0  0
    6.5982   14.7412   34.8063 H   0  0  0  0  0  0  0  0  0  0  0  0
    7.3988   15.5507   36.4398 C   0  0  0  0  0  0  0  0  0  0  0  0
    6.8034   14.3196   37.1025 C   0  0  0  0  0  0  0  0  0  0  0  0
    6.9537   14.0932   38.3263 O   0  0  0  0  0  0  0  0  0  0  0  0
    6.1109   13.5367   36.4122 O   0  0  0  0  0  0  0  0  0  0  0  0
    5.9933   13.6983   35.4968 H   0  0  0  0  0  0  0  0  0  0  0  0
    6.5909   16.7743   36.8798 C   0  0  0  0  0  0  0  0  0  0  0  0
    5.3237   16.3863   37.4176 O   0  0  0  0  0  0  0  0  0  0  0  0
    4.8142   15.9172   36.7385 H   0  0  0  0  0  0  0  0  0  0  0  0
    5.1279   17.2073   32.4343 C   0  0  0  0  0  0  0  0  0  0  0  0
    4.0379   16.3545   32.7996 O   0  0  0  0  0  0  0  0  0  0  0  0
    3.4533   16.3148   34.3104 P   0  0  0  0  0  0  0  0  0  0  0  0
    4.1289   15.1533   34.9765 O   0  0  0  0  0  0  0  0  0  0  0  0
    1.9660   16.1632   34.1440 O   0  0  0  0  0  0  0  0  0  0  0  0
    3.9107   17.6272   34.8691 O   0  0  0  0  0  0  0  0  0  0  0  0
    1.7693   15.2865   33.7785 H   0  0  0  0  0  0  0  0  0  0  0  0
    4.8782   17.6293   34.9386 H   0  0  0  0  0  0  0  0  0  0  0  0
 11 13  1  0  0  0
 11 10  1  0  0  0
 13 18  1  0  0  0
 13 14  1  0  0  0
 18 19  1  0  0  0
 14 15  2  0  0  0
 14 16  1  0  0  0
  1  2  2  0  0  0
  1  8  1  0  0  0
  2  3  1  0  0  0
  2  4  1  0  0  0
  4  5  1  0  0  0
  4  6  2  0  0  0
  6 10  1  0  0  0
  6  7  1  0  0  0
  7  8  2  0  0  0
  7 21  1  0  0  0
 21 22  1  0  0  0
 22 23  1  0  0  0
 23 24  2  0  0  0
 23 25  1  0  0  0
 23 26  1  0  0  0
 11 12  1  0  0  0
 19 20  1  0  0  0
 16 17  1  0  0  0
  5  9  1  0  0  0
 25 27  1  0  0  0
 26 28  1  0  0  0
M  END
> <minimizedAffinity>
-8.53036

$$$$
2W8J_PLS_A_1420


 28 28  0  0  0  0  0  0  0  0999 V2000
    4.6640   17.3613   31.2660 N   0  0  0  0  0  0  0  0  0  0  0  0
    5.6585   17.1964   30.3802 C   0  0  0  0  0  0  0  0  0  0  0  0
    5.3928   17.5638   28.9357 C   0  0  0  0  0  0  0  0  0  0  0  0
    6.8877   16.7047   30.8071 C   0  0  0  0  0  0  0  0  0  0  0  0
    7.8811   16.5413   29.8880 O   0  0  0  0  0  0  0  0  0  0  0  0
    7.0834   16.3714   32.1537 C   0  0  0  0  0  0  0  0  0  0  0  0
    6.0227   16.5618   33.0394 C   0  0  0  0  0  0  0  0  0  0  0  0
    4.8224   17.0692   32.5621 C   0  0  0  0  0  0  0  0  0  0  0  0
    7.7322   16.7696   28.9916 H   0  0  0  0  0  0  0  0  0  0  0  0
    8.3695   15.8207   32.6700 C   0  0  0  0  0  0  0  0  0  0  0  0
    8.7289   14.6215   32.4775 N   0  0  0  0  0  0  0  0  0  0  0  0
    8.8353   14.2256   33.4115 H   0  0  0  0  0  0  0  0  0  0  0  0
    9.9086   14.1630   31.7355 C   0  0  0  0  0  0  0  0  0  0  0  0
    9.4628   13.6927   30.3610 C   0  0  0  0  0  0  0  0  0  0  0  0
    9.5069   14.4472   29.3609 O   0  0  0  0  0  0  0  0  0  0  0  0
    9.0822   12.5075   30.2216 O   0  0  0  0  0  0  0  0  0  0  0  0
    9.0462   11.9366   30.9637 H   0  0  0  0  0  0  0  0  0  0  0  0
   10.6506   13.0133   32.4220 C   0  0  0  0  0  0  0  0  0  0  0  0
   12.0253   13.3451   32.6360 O   0  0  0  0  0  0  0  0  0  0  0  0
   12.4541   13.5132   31.7822 H   0  0  0  0  0  0  0  0  0  0  0  0
    6.1236   16.2354   34.5110 C   0  0  0  0  0  0  0  0  0  0  0  0
    5.6876   17.3525   35.2926 O   0  0  0  0  0  0  0  0  0  0  0  0
    4.4935   17.2204   36.3800 P   0  0  0  0  0  0  0  0  0  0  0  0
    3.8604   18.5780   36.4543 O   0  0  0  0  0  0  0  0  0  0  0  0
    5.1731   16.7761   37.6462 O   0  0  0  0  0  0  0  0  0  0  0  0
    3.5871   16.2114   35.7446 O   0  0  0  0  0  0  0  0  0  0  0  0
    5.7350   17.4928   37.9802 H   0  0  0  0  0  0  0  0  0  0  0  0
    3.1982   16.5878   34.9396 H   0  0  0  0  0  0  0  0  0  0  0  0
 11 13  1  0  0  0
 11 10  1  0  0  0
 13 18  1  0  0  0
 13 14  1  0  0  0
 18 19  1  0  0  0
 14 15  2  0  0  0
 14 16  1  0  0  0
  1  2  2  0  0  0
  1  8  1  0  0  0
  2  3  1  0  0  0
  2  4  1  0  0  0
  4  5  1  0  0  0
  4  6  2  0  0  0
  6 10  1  0  0  0
  6  7  1  0  0  0
  7  8  2  0  0  0
  7 21  1  0  0  0
 21 22  1  0  0  0
 22 23  1  0  0  0
 23 24  2  0  0  0
 23 25  1  0  0  0
 23 26  1  0  0  0
 11 12  1  0  0  0
 19 20  1  0  0  0
 16 17  1  0  0  0
  5  9  1  0  0  0
 25 27  1  0  0  0
 26 28  1  0  0  0
M  END
> <minimizedAffinity>
-8.22326

$$$$
2W8J_PLS_A_1420


 28 28  0  0  0  0  0  0  0  0999 V2000
    7.4720   16.0998   29.4880 N   0  0  0  0  0  0  0  0  0  0  0  0
    6.4522   16.8888   29.8598 C   0  0  0  0  0  0  0  0  0  0  0  0
    5.6597   17.5860   28.7744 C   0  0  0  0  0  0  0  0  0  0  0  0
    6.1528   17.0384   31.2100 C   0  0  0  0  0  0  0  0  0  0  0  0
    5.1153   17.8489   31.5635 O   0  0  0  0  0  0  0  0  0  0  0  0
    6.9201   16.3783   32.1786 C   0  0  0  0  0  0  0  0  0  0  0  0
    7.9687   15.5664   31.7461 C   0  0  0  0  0  0  0  0  0  0  0  0
    8.2141   15.4415   30.3859 C   0  0  0  0  0  0  0  0  0  0  0  0
    4.6130   18.2824   30.9019 H   0  0  0  0  0  0  0  0  0  0  0  0
    6.6636   16.5139   33.6414 C   0  0  0  0  0  0  0  0  0  0  0  0
    5.7028   15.9317   34.2264 N   0  0  0  0  0  0  0  0  0  0  0  0
    5.1716   15.4849   33.4789 H   0  0  0  0  0  0  0  0  0  0  0  0
    4.6919   16.5507   35.0910 C   0  0  0  0  0  0  0  0  0  0  0  0
    3.4108   16.7214   34.2918 C   0  0  0  0  0  0  0  0  0  0  0  0
    3.1743   17.7673   33.6427 O   0  0  0  0  0  0  0  0  0  0  0  0
    2.5933   15.7732   34.2504 O   0  0  0  0  0  0  0  0  0  0  0  0
    2.7621   14.9876   34.7325 H   0  0  0  0  0  0  0  0  0  0  0  0
    5.1098   17.9206   35.6318 C   0  0  0  0  0  0  0  0  0  0  0  0
    4.0088   18.5809   36.2623 O   0  0  0  0  0  0  0  0  0  0  0  0
    3.2992   18.7162   35.6150 H   0  0  0  0  0  0  0  0  0  0  0  0
    8.8594   14.8098   32.7034 C   0  0  0  0  0  0  0  0  0  0  0  0
    9.9458   14.2080   31.9917 O   0  0  0  0  0  0  0  0  0  0  0  0
   10.9315   13.1285   32.6908 P   0  0  0  0  0  0  0  0  0  0  0  0
   12.2860   13.7720   32.7152 O   0  0  0  0  0  0  0  0  0  0  0  0
   10.8360   11.9024   31.8247 O   0  0  0  0  0  0  0  0  0  0  0  0
   10.3466   12.9974   34.0635 O   0  0  0  0  0  0  0  0  0  0  0  0
   11.2392   12.0841   30.9614 H   0  0  0  0  0  0  0  0  0  0  0  0
   10.4555   13.8338   34.5425 H   0  0  0  0  0  0  0  0  0  0  0  0
 11 13  1  0  0  0
 11 10  1  0  0  0
 13 18  1  0  0  0
 13 14  1  0  0  0
 18 19  1  0  0  0
 14 15  2  0  0  0
 14 16  1  0  0  0
  1  2  2  0  0  0
  1  8  1  0  0  0
  2  3  1  0  0  0
  2  4  1  0  0  0
  4  5  1  0  0  0
  4  6  2  0  0  0
  6 10  1  0  0  0
  6  7  1  0  0  0
  7  8  2  0  0  0
  7 21  1  0  0  0
 21 22  1  0  0  0
 22 23  1  0  0  0
 23 24  2  0  0  0
 23 25  1  0  0  0
 23 26  1  0  0  0
 11 12  1  0  0  0
 19 20  1  0  0  0
 16 17  1  0  0  0
  5  9  1  0  0  0
 25 27  1  0  0  0
 26 28  1  0  0  0
M  END
> <minimizedAffinity>
-8.21684

$$$$
2W8J_PLS_A_1420


 28 28  0  0  0  0  0  0  0  0999 V2000
    7.6048   15.2887   34.2477 N   0  0  0  0  0  0  0  0  0  0  0  0
    8.0392   15.2918   32.9781 C   0  0  0  0  0  0  0  0  0  0  0  0
    9.3047   14.5251   32.6573 C   0  0  0  0  0  0  0  0  0  0  0  0
    7.3242   15.9842   32.0062 C   0  0  0  0  0  0  0  0  0  0  0  0
    7.7877   15.9767   30.7243 O   0  0  0  0  0  0  0  0  0  0  0  0
    6.1622   16.6856   32.3533 C   0  0  0  0  0  0  0  0  0  0  0  0
    5.7465   16.6524   33.6844 C   0  0  0  0  0  0  0  0  0  0  0  0
    6.4899   15.9338   34.6101 C   0  0  0  0  0  0  0  0  0  0  0  0
    8.5668   15.5019   30.5106 H   0  0  0  0  0  0  0  0  0  0  0  0
    5.3633   17.4637   31.3632 C   0  0  0  0  0  0  0  0  0  0  0  0
    5.8466   17.8848   30.2707 N   0  0  0  0  0  0  0  0  0  0  0  0
    5.5434   18.8566   30.2062 H   0  0  0  0  0  0  0  0  0  0  0  0
    5.6184   17.3276   28.9328 C   0  0  0  0  0  0  0  0  0  0  0  0
    4.8688   18.3559   28.1021 C   0  0  0  0  0  0  0  0  0  0  0  0
    3.6418   18.5598   28.2575 O   0  0  0  0  0  0  0  0  0  0  0  0
    5.5068   19.0435   27.2717 O   0  0  0  0  0  0  0  0  0  0  0  0
    6.4242   18.8977   27.1491 H   0  0  0  0  0  0  0  0  0  0  0  0
    4.8054   16.0305   28.9441 C   0  0  0  0  0  0  0  0  0  0  0  0
    5.6628   14.8882   29.0203 O   0  0  0  0  0  0  0  0  0  0  0  0
    6.2475   14.8706   28.2466 H   0  0  0  0  0  0  0  0  0  0  0  0
    4.5100   17.3730   34.1684 C   0  0  0  0  0  0  0  0  0  0  0  0
    4.8508   18.2784   35.2234 O   0  0  0  0  0  0  0  0  0  0  0  0
    4.4161   18.0024   36.7598 P   0  0  0  0  0  0  0  0  0  0  0  0
    3.5310   16.7923   36.7199 O   0  0  0  0  0  0  0  0  0  0  0  0
    3.7294   19.2666   37.1988 O   0  0  0  0  0  0  0  0  0  0  0  0
    5.7292   17.7169   37.4214 O   0  0  0  0  0  0  0  0  0  0  0  0
    2.8927   19.3639   36.7177 H   0  0  0  0  0  0  0  0  0  0  0  0
    6.0920   16.8866   37.0751 H   0  0  0  0  0  0  0  0  0  0  0  0
 11 13  1  0  0  0
 11 10  1  0  0  0
 13 18  1  0  0  0
 13 14  1  0  0  0
 18 19  1  0  0  0
 14 15  2  0  0  0
 14 16  1  0  0  0
  1  2  2  0  0  0
  1  8  1  0  0  0
  2  3  1  0  0  0
  2  4  1  0  0  0
  4  5  1  0  0  0
  4  6  2  0  0  0
  6 10  1  0  0  0
  6  7  1  0  0  0
  7  8  2  0  0  0
  7 21  1  0  0  0
 21 22  1  0  0  0
 22 23  1  0  0  0
 23 24  2  0  0  0
 23 25  1  0  0  0
 23 26  1  0  0  0
 11 12  1  0  0  0
 19 20  1  0  0  0
 16 17  1  0  0  0
  5  9  1  0  0  0
 25 27  1  0  0  0
 26 28  1  0  0  0
M  END
> <minimizedAffinity>
-8.12990

$$$$
2W8J_PLS_A_1420


 28 28  0  0  0  0  0  0  0  0999 V2000
    8.6922   14.4789   30.9946 N   0  0  0  0  0  0  0  0  0  0  0  0
    7.7715   14.6816   30.0397 C   0  0  0  0  0  0  0  0  0  0  0  0
    8.0479   14.1311   28.6566 C   0  0  0  0  0  0  0  0  0  0  0  0
    6.6052   15.3766   30.3426 C   0  0  0  0  0  0  0  0  0  0  0  0
    5.6868   15.5741   29.3547 O   0  0  0  0  0  0  0  0  0  0  0  0
    6.3977   15.8736   31.6358 C   0  0  0  0  0  0  0  0  0  0  0  0
    7.3804   15.6370   32.5971 C   0  0  0  0  0  0  0  0  0  0  0  0
    8.5181   14.9251   32.2440 C   0  0  0  0  0  0  0  0  0  0  0  0
    5.8425   15.2342   28.4955 H   0  0  0  0  0  0  0  0  0  0  0  0
    5.1794   16.6438   32.0184 C   0  0  0  0  0  0  0  0  0  0  0  0
    5.1001   17.3147   33.0898 N   0  0  0  0  0  0  0  0  0  0  0  0
    5.7368   16.8514   33.7381 H   0  0  0  0  0  0  0  0  0  0  0  0
    3.8899   17.5828   33.8748 C   0  0  0  0  0  0  0  0  0  0  0  0
    4.3051   18.0866   35.2470 C   0  0  0  0  0  0  0  0  0  0  0  0
    3.5722   17.9366   36.2528 O   0  0  0  0  0  0  0  0  0  0  0  0
    5.4274   18.6273   35.3784 O   0  0  0  0  0  0  0  0  0  0  0  0
    5.9818   18.7434   34.6319 H   0  0  0  0  0  0  0  0  0  0  0  0
    3.0002   16.3510   34.0615 C   0  0  0  0  0  0  0  0  0  0  0  0
    3.6196   15.3973   34.9289 O   0  0  0  0  0  0  0  0  0  0  0  0
    4.4600   15.1061   34.5418 H   0  0  0  0  0  0  0  0  0  0  0  0
    7.2600   16.1277   34.0209 C   0  0  0  0  0  0  0  0  0  0  0  0
    6.6230   15.1339   34.8305 O   0  0  0  0  0  0  0  0  0  0  0  0
    6.7617   15.1296   36.4450 P   0  0  0  0  0  0  0  0  0  0  0  0
    6.8319   13.6851   36.8423 O   0  0  0  0  0  0  0  0  0  0  0  0
    5.5408   15.8564   36.9384 O   0  0  0  0  0  0  0  0  0  0  0  0
    8.0651   15.8357   36.6597 O   0  0  0  0  0  0  0  0  0  0  0  0
    4.7513   15.3234   36.7556 H   0  0  0  0  0  0  0  0  0  0  0  0
    8.7887   15.2920   36.3108 H   0  0  0  0  0  0  0  0  0  0  0  0
 11 13  1  0  0  0
 11 10  1  0  0  0
 13 18  1  0  0  0
 13 14  1  0  0  0
 18 19  1  0  0  0
 14 15  2  0  0  0
 14 16  1  0  0  0
  1  2  2  0  0  0
  1  8  1  0  0  0
  2  3  1  0  0  0
  2  4  1  0  0  0
  4  5  1  0  0  0
  4  6  2  0  0  0
  6 10  1  0  0  0
  6  7  1  0  0  0
  7  8  2  0  0  0
  7 21  1  0  0  0
 21 22  1  0  0  0
 22 23  1  0  0  0
 23 24  2  0  0  0
 23 25  1  0  0  0
 23 26  1  0  0  0
 11 12  1  0  0  0
 19 20  1  0  0  0
 16 17  1  0  0  0
  5  9  1  0  0  0
 25 27  1  0  0  0
 26 28  1  0  0  0
M  END
> <minimizedAffinity>
-7.78745

$$$$
2W8J_PLS_A_1420


 28 28  0  0  0  0  0  0  0  0999 V2000
    8.9185   14.2053   33.9517 N   0  0  0  0  0  0  0  0  0  0  0  0
    9.2800   14.3730   32.6703 C   0  0  0  0  0  0  0  0  0  0  0  0
   10.3085   13.4247   32.0913 C   0  0  0  0  0  0  0  0  0  0  0  0
    8.7059   15.3938   31.9197 C   0  0  0  0  0  0  0  0  0  0  0  0
    9.0926   15.5473   30.6216 O   0  0  0  0  0  0  0  0  0  0  0  0
    7.7634   16.2512   32.5021 C   0  0  0  0  0  0  0  0  0  0  0  0
    7.4158   16.0380   33.8360 C   0  0  0  0  0  0  0  0  0  0  0  0
    8.0090   14.9953   34.5339 C   0  0  0  0  0  0  0  0  0  0  0  0
    9.7243   14.9643   30.2488 H   0  0  0  0  0  0  0  0  0  0  0  0
    7.1276   17.3762   31.7578 C   0  0  0  0  0  0  0  0  0  0  0  0
    6.8863   17.3274   30.5154 N   0  0  0  0  0  0  0  0  0  0  0  0
    6.9958   18.2873   30.1882 H   0  0  0  0  0  0  0  0  0  0  0  0
    5.6572   16.8470   29.8742 C   0  0  0  0  0  0  0  0  0  0  0  0
    5.9029   15.4425   29.3487 C   0  0  0  0  0  0  0  0  0  0  0  0
    6.9753   15.1309   28.7794 O   0  0  0  0  0  0  0  0  0  0  0  0
    5.0250   14.5673   29.5292 O   0  0  0  0  0  0  0  0  0  0  0  0
    4.2204   14.7914   29.9539 H   0  0  0  0  0  0  0  0  0  0  0  0
    5.1957   17.7250   28.7081 C   0  0  0  0  0  0  0  0  0  0  0  0
    4.4080   16.9735   27.7804 O   0  0  0  0  0  0  0  0  0  0  0  0
    4.9397   16.2473   27.4187 H   0  0  0  0  0  0  0  0  0  0  0  0
    6.4122   16.9021   34.5629 C   0  0  0  0  0  0  0  0  0  0  0  0
    5.2025   16.1694   34.7840 O   0  0  0  0  0  0  0  0  0  0  0  0
    3.9937   16.1705   33.7049 P   0  0  0  0  0  0  0  0  0  0  0  0
    2.7665   15.7729   34.4700 O   0  0  0  0  0  0  0  0  0  0  0  0
    4.4193   15.1875   32.6489 O   0  0  0  0  0  0  0  0  0  0  0  0
    3.9469   17.6038   33.2726 O   0  0  0  0  0  0  0  0  0  0  0  0
    4.4186   14.2920   33.0216 H   0  0  0  0  0  0  0  0  0  0  0  0
    3.6636   18.1570   34.0173 H   0  0  0  0  0  0  0  0  0  0  0  0
 11 13  1  0  0  0
 11 10  1  0  0  0
 13 18  1  0  0  0
 13 14  1  0  0  0
 18 19  1  0  0  0
 14 15  2  0  0  0
 14 16  1  0  0  0
  1  2  2  0  0  0
  1  8  1  0  0  0
  2  3  1  0  0  0
  2  4  1  0  0  0
  4  5  1  0  0  0
  4  6  2  0  0  0
  6 10  1  0  0  0
  6  7  1  0  0  0
  7  8  2  0  0  0
  7 21  1  0  0  0
 21 22  1  0  0  0
 22 23  1  0  0  0
 23 24  2  0  0  0
 23 25  1  0  0  0
 23 26  1  0  0  0
 11 12  1  0  0  0
 19 20  1  0  0  0
 16 17  1  0  0  0
  5  9  1  0  0  0
 25 27  1  0  0  0
 26 28  1  0  0  0
M  END
> <minimizedAffinity>
-7.56911

$$$$
2W8J_PLS_A_1420


 28 28  0  0  0  0  0  0  0  0999 V2000
    7.3757   16.1758   29.4289 N   0  0  0  0  0  0  0  0  0  0  0  0
    6.3518   16.9617   29.7956 C   0  0  0  0  0  0  0  0  0  0  0  0
    5.5659   17.6607   28.7066 C   0  0  0  0  0  0  0  0  0  0  0  0
    6.0423   17.1068   31.1441 C   0  0  0  0  0  0  0  0  0  0  0  0
    5.0007   17.9142   31.4924 O   0  0  0  0  0  0  0  0  0  0  0  0
    6.8038   16.4451   32.1161 C   0  0  0  0  0  0  0  0  0  0  0  0
    7.8570   15.6365   31.6889 C   0  0  0  0  0  0  0  0  0  0  0  0
    8.1126   15.5162   30.3302 C   0  0  0  0  0  0  0  0  0  0  0  0
    4.5024   18.3488   30.8284 H   0  0  0  0  0  0  0  0  0  0  0  0
    6.5365   16.5759   33.5774 C   0  0  0  0  0  0  0  0  0  0  0  0
    5.8375   17.5124   34.0660 N   0  0  0  0  0  0  0  0  0  0  0  0
    6.4752   18.0275   34.6729 H   0  0  0  0  0  0  0  0  0  0  0  0
    4.6014   17.3761   34.8445 C   0  0  0  0  0  0  0  0  0  0  0  0
    4.5427   18.5047   35.8604 C   0  0  0  0  0  0  0  0  0  0  0  0
    3.6667   18.5389   36.7564 O   0  0  0  0  0  0  0  0  0  0  0  0
    5.4195   19.3985   35.8223 O   0  0  0  0  0  0  0  0  0  0  0  0
    6.0780   19.3808   35.1560 H   0  0  0  0  0  0  0  0  0  0  0  0
    4.4978   16.0455   35.5944 C   0  0  0  0  0  0  0  0  0  0  0  0
    5.2331   16.0890   36.8205 O   0  0  0  0  0  0  0  0  0  0  0  0
    6.1696   16.2555   36.6302 H   0  0  0  0  0  0  0  0  0  0  0  0
    8.7423   14.8787   32.6504 C   0  0  0  0  0  0  0  0  0  0  0  0
    9.8252   14.2665   31.9423 O   0  0  0  0  0  0  0  0  0  0  0  0
   10.8747   13.2749   32.6776 P   0  0  0  0  0  0  0  0  0  0  0  0
   12.2026   13.9692   32.6127 O   0  0  0  0  0  0  0  0  0  0  0  0
   10.8010   11.9900   31.8990 O   0  0  0  0  0  0  0  0  0  0  0  0
   10.3392   13.2155   34.0752 O   0  0  0  0  0  0  0  0  0  0  0  0
   11.1690   12.1278   31.0122 H   0  0  0  0  0  0  0  0  0  0  0  0
   10.4297   14.0860   34.4934 H   0  0  0  0  0  0  0  0  0  0  0  0
 11 13  1  0  0  0
 11 10  1  0  0  0
 13 18  1  0  0  0
 13 14  1  0  0  0
 18 19  1  0  0  0
 14 15  2  0  0  0
 14 16  1  0  0  0
  1  2  2  0  0  0
  1  8  1  0  0  0
  2  3  1  0  0  0
  2  4  1  0  0  0
  4  5  1  0  0  0
  4  6  2  0  0  0
  6 10  1  0  0  0
  6  7  1  0  0  0
  7  8  2  0  0  0
  7 21  1  0  0  0
 21 22  1  0  0  0
 22 23  1  0  0  0
 23 24  2  0  0  0
 23 25  1  0  0  0
 23 26  1  0  0  0
 11 12  1  0  0  0
 19 20  1  0  0  0
 16 17  1  0  0  0
  5  9  1  0  0  0
 25 27  1  0  0  0
 26 28  1  0  0  0
M  END
> <minimizedAffinity>
-7.54343

$$$$
