4BI6_PGA_A_401


 12 11  0  0  0  0  0  0  0  0999 V2000
   -3.3605  -18.8087  -34.9493 P   0  0  0  0  0  0  0  0  0  0  0  0
   -2.4343  -17.7548  -35.4926 O   0  0  0  0  0  0  0  0  0  0  0  0
   -4.5839  -18.9716  -35.8207 O   0  0  0  0  0  0  0  0  0  0  0  0
   -3.7727  -18.5425  -33.5213 O   0  0  0  0  0  0  0  0  0  0  0  0
   -4.3092  -19.1420  -36.7352 H   0  0  0  0  0  0  0  0  0  0  0  0
   -2.9812  -18.4394  -32.9702 H   0  0  0  0  0  0  0  0  0  0  0  0
   -2.5679  -20.2125  -34.9895 O   0  0  0  0  0  0  0  0  0  0  0  0
   -1.6370  -20.5066  -36.0127 C   0  0  0  0  0  0  0  0  0  0  0  0
   -2.3499  -21.2603  -37.1120 C   0  0  0  0  0  0  0  0  0  0  0  0
   -1.7659  -21.5694  -38.1636 O   0  0  0  0  0  0  0  0  0  0  0  0
   -3.5458  -21.5879  -36.9795 O   0  0  0  0  0  0  0  0  0  0  0  0
   -4.0081  -21.3662  -36.1953 H   0  0  0  0  0  0  0  0  0  0  0  0
  1  7  1  0  0  0
  1  2  2  0  0  0
  1  3  1  0  0  0
  1  4  1  0  0  0
  7  8  1  0  0  0
  8  9  1  0  0  0
  9 10  2  0  0  0
  9 11  1  0  0  0
  3  5  1  0  0  0
  4  6  1  0  0  0
 11 12  1  0  0  0
M  END
> <minimizedAffinity>
-6.03568

$$$$
4BI6_PGA_A_401


 12 11  0  0  0  0  0  0  0  0999 V2000
   -0.7503  -20.6039  -35.7968 P   0  0  0  0  0  0  0  0  0  0  0  0
    0.0565  -19.3478  -35.9838 O   0  0  0  0  0  0  0  0  0  0  0  0
    0.1126  -21.7493  -35.3215 O   0  0  0  0  0  0  0  0  0  0  0  0
   -1.5031  -21.0041  -37.0431 O   0  0  0  0  0  0  0  0  0  0  0  0
    0.5917  -21.4828  -34.5213 H   0  0  0  0  0  0  0  0  0  0  0  0
   -2.0537  -20.2629  -37.3403 H   0  0  0  0  0  0  0  0  0  0  0  0
   -1.8269  -20.3149  -34.6314 O   0  0  0  0  0  0  0  0  0  0  0  0
   -2.5661  -19.1100  -34.5905 C   0  0  0  0  0  0  0  0  0  0  0  0
   -3.7876  -19.2630  -35.4675 C   0  0  0  0  0  0  0  0  0  0  0  0
   -4.1496  -20.3779  -35.8781 O   0  0  0  0  0  0  0  0  0  0  0  0
   -4.4583  -18.2641  -35.7951 O   0  0  0  0  0  0  0  0  0  0  0  0
   -4.2056  -17.4121  -35.4980 H   0  0  0  0  0  0  0  0  0  0  0  0
  1  7  1  0  0  0
  1  2  2  0  0  0
  1  3  1  0  0  0
  1  4  1  0  0  0
  7  8  1  0  0  0
  8  9  1  0  0  0
  9 10  2  0  0  0
  9 11  1  0  0  0
  3  5  1  0  0  0
  4  6  1  0  0  0
 11 12  1  0  0  0
M  END
> <minimizedAffinity>
-5.47586

$$$$
4BI6_PGA_A_401


 12 11  0  0  0  0  0  0  0  0999 V2000
   -2.3623  -19.6183  -35.3043 P   0  0  0  0  0  0  0  0  0  0  0  0
   -2.3886  -18.1155  -35.3719 O   0  0  0  0  0  0  0  0  0  0  0  0
   -3.6671  -20.2156  -35.7767 O   0  0  0  0  0  0  0  0  0  0  0  0
   -2.0248  -20.1340  -33.9259 O   0  0  0  0  0  0  0  0  0  0  0  0
   -3.8751  -19.8786  -36.6622 H   0  0  0  0  0  0  0  0  0  0  0  0
   -1.1863  -19.7452  -33.6315 H   0  0  0  0  0  0  0  0  0  0  0  0
   -1.2200  -20.1255  -36.3234 O   0  0  0  0  0  0  0  0  0  0  0  0
   -0.8294  -21.4836  -36.3790 C   0  0  0  0  0  0  0  0  0  0  0  0
   -1.2656  -22.0575  -37.7076 C   0  0  0  0  0  0  0  0  0  0  0  0
   -0.6679  -23.0173  -38.2215 O   0  0  0  0  0  0  0  0  0  0  0  0
   -2.2416  -21.5733  -38.3142 O   0  0  0  0  0  0  0  0  0  0  0  0
   -2.7090  -20.8489  -37.9471 H   0  0  0  0  0  0  0  0  0  0  0  0
  1  7  1  0  0  0
  1  2  2  0  0  0
  1  3  1  0  0  0
  1  4  1  0  0  0
  7  8  1  0  0  0
  8  9  1  0  0  0
  9 10  2  0  0  0
  9 11  1  0  0  0
  3  5  1  0  0  0
  4  6  1  0  0  0
 11 12  1  0  0  0
M  END
> <minimizedAffinity>
-5.39325

$$$$
4BI6_PGA_A_401


 12 11  0  0  0  0  0  0  0  0999 V2000
   -3.4466  -18.2517  -34.8300 P   0  0  0  0  0  0  0  0  0  0  0  0
   -3.2383  -19.0658  -33.5820 O   0  0  0  0  0  0  0  0  0  0  0  0
   -3.6893  -16.7961  -34.5062 O   0  0  0  0  0  0  0  0  0  0  0  0
   -4.5649  -18.7843  -35.6935 O   0  0  0  0  0  0  0  0  0  0  0  0
   -2.9664  -16.4633  -33.9517 H   0  0  0  0  0  0  0  0  0  0  0  0
   -4.4003  -19.7185  -35.8959 H   0  0  0  0  0  0  0  0  0  0  0  0
   -2.0791  -18.3191  -35.6820 O   0  0  0  0  0  0  0  0  0  0  0  0
   -0.9640  -19.0635  -35.2321 C   0  0  0  0  0  0  0  0  0  0  0  0
   -1.0846  -20.4769  -35.7539 C   0  0  0  0  0  0  0  0  0  0  0  0
   -1.6800  -20.7222  -36.8159 O   0  0  0  0  0  0  0  0  0  0  0  0
   -0.5832  -21.4278  -35.1220 O   0  0  0  0  0  0  0  0  0  0  0  0
   -0.1289  -21.2685  -34.3181 H   0  0  0  0  0  0  0  0  0  0  0  0
  1  7  1  0  0  0
  1  2  2  0  0  0
  1  3  1  0  0  0
  1  4  1  0  0  0
  7  8  1  0  0  0
  8  9  1  0  0  0
  9 10  2  0  0  0
  9 11  1  0  0  0
  3  5  1  0  0  0
  4  6  1  0  0  0
 11 12  1  0  0  0
M  END
> <minimizedAffinity>
-5.32705

$$$$
4BI6_PGA_A_401


 12 11  0  0  0  0  0  0  0  0999 V2000
   -0.9731  -20.5605  -35.7120 P   0  0  0  0  0  0  0  0  0  0  0  0
   -0.1452  -21.7241  -35.2386 O   0  0  0  0  0  0  0  0  0  0  0  0
   -1.7568  -20.9095  -36.9556 O   0  0  0  0  0  0  0  0  0  0  0  0
   -0.1494  -19.3175  -35.9499 O   0  0  0  0  0  0  0  0  0  0  0  0
   -2.2822  -21.7085  -36.7930 H   0  0  0  0  0  0  0  0  0  0  0  0
    0.3497  -19.1017  -35.1466 H   0  0  0  0  0  0  0  0  0  0  0  0
   -2.0503  -20.2352  -34.5568 O   0  0  0  0  0  0  0  0  0  0  0  0
   -2.5412  -18.9248  -34.3519 C   0  0  0  0  0  0  0  0  0  0  0  0
   -3.6599  -18.6691  -35.3356 C   0  0  0  0  0  0  0  0  0  0  0  0
   -3.8911  -17.5267  -35.7646 O   0  0  0  0  0  0  0  0  0  0  0  0
   -4.3745  -19.6090  -35.7369 O   0  0  0  0  0  0  0  0  0  0  0  0
   -4.2200  -20.4800  -35.4279 H   0  0  0  0  0  0  0  0  0  0  0  0
  1  7  1  0  0  0
  1  2  2  0  0  0
  1  3  1  0  0  0
  1  4  1  0  0  0
  7  8  1  0  0  0
  8  9  1  0  0  0
  9 10  2  0  0  0
  9 11  1  0  0  0
  3  5  1  0  0  0
  4  6  1  0  0  0
 11 12  1  0  0  0
M  END
> <minimizedAffinity>
-5.30007

$$$$
4BI6_PGA_A_401


 12 11  0  0  0  0  0  0  0  0999 V2000
   -2.1366  -21.4280  -37.1232 P   0  0  0  0  0  0  0  0  0  0  0  0
   -1.2401  -22.4502  -36.4789 O   0  0  0  0  0  0  0  0  0  0  0  0
   -3.5868  -21.6658  -36.7731 O   0  0  0  0  0  0  0  0  0  0  0  0
   -1.9683  -21.3676  -38.6226 O   0  0  0  0  0  0  0  0  0  0  0  0
   -3.6847  -21.7031  -35.8087 H   0  0  0  0  0  0  0  0  0  0  0  0
   -1.0348  -21.2147  -38.8373 H   0  0  0  0  0  0  0  0  0  0  0  0
   -1.7390  -19.9883  -36.5152 O   0  0  0  0  0  0  0  0  0  0  0  0
   -2.0146  -19.6529  -35.1692 C   0  0  0  0  0  0  0  0  0  0  0  0
   -3.1478  -18.6530  -35.1431 C   0  0  0  0  0  0  0  0  0  0  0  0
   -2.9620  -17.4791  -34.7822 O   0  0  0  0  0  0  0  0  0  0  0  0
   -4.2971  -18.9926  -35.4874 O   0  0  0  0  0  0  0  0  0  0  0  0
   -4.4626  -19.8725  -35.7636 H   0  0  0  0  0  0  0  0  0  0  0  0
  1  7  1  0  0  0
  1  2  2  0  0  0
  1  3  1  0  0  0
  1  4  1  0  0  0
  7  8  1  0  0  0
  8  9  1  0  0  0
  9 10  2  0  0  0
  9 11  1  0  0  0
  3  5  1  0  0  0
  4  6  1  0  0  0
 11 12  1  0  0  0
M  END
> <minimizedAffinity>
-4.78834

$$$$
4BI6_PGA_A_401


 12 11  0  0  0  0  0  0  0  0999 V2000
   -0.8483  -22.6667  -37.7458 P   0  0  0  0  0  0  0  0  0  0  0  0
    0.5555  -22.5094  -38.2635 O   0  0  0  0  0  0  0  0  0  0  0  0
   -1.2814  -24.1141  -37.7540 O   0  0  0  0  0  0  0  0  0  0  0  0
   -1.8464  -21.8226  -38.5016 O   0  0  0  0  0  0  0  0  0  0  0  0
   -0.6346  -24.6479  -37.2665 H   0  0  0  0  0  0  0  0  0  0  0  0
   -1.5600  -20.8959  -38.4908 H   0  0  0  0  0  0  0  0  0  0  0  0
   -0.8496  -22.1873  -36.2061 O   0  0  0  0  0  0  0  0  0  0  0  0
   -0.2746  -20.9558  -35.8150 C   0  0  0  0  0  0  0  0  0  0  0  0
   -1.3868  -19.9833  -35.4959 C   0  0  0  0  0  0  0  0  0  0  0  0
   -2.5560  -20.2031  -35.8528 O   0  0  0  0  0  0  0  0  0  0  0  0
   -1.1470  -18.9361  -34.8629 O   0  0  0  0  0  0  0  0  0  0  0  0
   -0.2730  -18.7477  -34.5827 H   0  0  0  0  0  0  0  0  0  0  0  0
  1  7  1  0  0  0
  1  2  2  0  0  0
  1  3  1  0  0  0
  1  4  1  0  0  0
  7  8  1  0  0  0
  8  9  1  0  0  0
  9 10  2  0  0  0
  9 11  1  0  0  0
  3  5  1  0  0  0
  4  6  1  0  0  0
 11 12  1  0  0  0
M  END
> <minimizedAffinity>
-4.65733

$$$$
4BI6_PGA_A_401


 12 11  0  0  0  0  0  0  0  0999 V2000
   -1.4607  -20.1327  -35.4011 P   0  0  0  0  0  0  0  0  0  0  0  0
   -2.4322  -20.5898  -36.4550 O   0  0  0  0  0  0  0  0  0  0  0  0
   -2.1619  -19.8281  -34.0980 O   0  0  0  0  0  0  0  0  0  0  0  0
   -0.6419  -18.9423  -35.8399 O   0  0  0  0  0  0  0  0  0  0  0  0
   -2.6848  -20.5979  -33.8245 H   0  0  0  0  0  0  0  0  0  0  0  0
   -0.1959  -19.1474  -36.6766 H   0  0  0  0  0  0  0  0  0  0  0  0
   -0.4516  -21.3573  -35.1135 O   0  0  0  0  0  0  0  0  0  0  0  0
    0.4453  -21.8236  -36.1026 C   0  0  0  0  0  0  0  0  0  0  0  0
    0.8339  -23.2460  -35.7700 C   0  0  0  0  0  0  0  0  0  0  0  0
    1.3916  -23.5264  -34.6962 O   0  0  0  0  0  0  0  0  0  0  0  0
    0.5979  -24.1691  -36.5743 O   0  0  0  0  0  0  0  0  0  0  0  0
    0.1780  -23.9830  -37.3910 H   0  0  0  0  0  0  0  0  0  0  0  0
  1  7  1  0  0  0
  1  2  2  0  0  0
  1  3  1  0  0  0
  1  4  1  0  0  0
  7  8  1  0  0  0
  8  9  1  0  0  0
  9 10  2  0  0  0
  9 11  1  0  0  0
  3  5  1  0  0  0
  4  6  1  0  0  0
 11 12  1  0  0  0
M  END
> <minimizedAffinity>
-4.58045

$$$$
4BI6_PGA_A_401


 12 11  0  0  0  0  0  0  0  0999 V2000
   -2.4706  -19.5403  -35.2759 P   0  0  0  0  0  0  0  0  0  0  0  0
   -2.5390  -18.0378  -35.3132 O   0  0  0  0  0  0  0  0  0  0  0  0
   -3.7679  -20.1641  -35.7348 O   0  0  0  0  0  0  0  0  0  0  0  0
   -2.0921  -20.0730  -33.9147 O   0  0  0  0  0  0  0  0  0  0  0  0
   -4.0025  -19.8160  -36.6093 H   0  0  0  0  0  0  0  0  0  0  0  0
   -1.2588  -19.6671  -33.6289 H   0  0  0  0  0  0  0  0  0  0  0  0
   -1.3354  -19.9962  -36.3267 O   0  0  0  0  0  0  0  0  0  0  0  0
   -1.0583  -21.3617  -36.5689 C   0  0  0  0  0  0  0  0  0  0  0  0
    0.3317  -21.6697  -36.0612 C   0  0  0  0  0  0  0  0  0  0  0  0
    1.3183  -21.0271  -36.4564 O   0  0  0  0  0  0  0  0  0  0  0  0
    0.5121  -22.5810  -35.2294 O   0  0  0  0  0  0  0  0  0  0  0  0
   -0.2164  -23.0802  -34.9159 H   0  0  0  0  0  0  0  0  0  0  0  0
  1  7  1  0  0  0
  1  2  2  0  0  0
  1  3  1  0  0  0
  1  4  1  0  0  0
  7  8  1  0  0  0
  8  9  1  0  0  0
  9 10  2  0  0  0
  9 11  1  0  0  0
  3  5  1  0  0  0
  4  6  1  0  0  0
 11 12  1  0  0  0
M  END
> <minimizedAffinity>
-4.57293

$$$$
4BI6_PGA_A_401


 12 11  0  0  0  0  0  0  0  0999 V2000
   -1.4834  -20.0789  -35.3608 P   0  0  0  0  0  0  0  0  0  0  0  0
   -0.6319  -18.9458  -35.8655 O   0  0  0  0  0  0  0  0  0  0  0  0
   -2.5175  -20.4905  -36.3823 O   0  0  0  0  0  0  0  0  0  0  0  0
   -2.1519  -19.7640  -34.0440 O   0  0  0  0  0  0  0  0  0  0  0  0
   -2.0788  -20.6906  -37.2240 H   0  0  0  0  0  0  0  0  0  0  0  0
   -1.4804  -19.5010  -33.3953 H   0  0  0  0  0  0  0  0  0  0  0  0
   -0.5133  -21.3481  -35.1402 O   0  0  0  0  0  0  0  0  0  0  0  0
    0.4495  -21.7192  -36.1073 C   0  0  0  0  0  0  0  0  0  0  0  0
    0.9087  -23.1293  -35.8151 C   0  0  0  0  0  0  0  0  0  0  0  0
    0.9195  -23.9993  -36.7014 O   0  0  0  0  0  0  0  0  0  0  0  0
    1.2886  -23.4447  -34.6700 O   0  0  0  0  0  0  0  0  0  0  0  0
    1.2898  -22.8061  -33.9843 H   0  0  0  0  0  0  0  0  0  0  0  0
  1  7  1  0  0  0
  1  2  2  0  0  0
  1  3  1  0  0  0
  1  4  1  0  0  0
  7  8  1  0  0  0
  8  9  1  0  0  0
  9 10  2  0  0  0
  9 11  1  0  0  0
  3  5  1  0  0  0
  4  6  1  0  0  0
 11 12  1  0  0  0
M  END
> <minimizedAffinity>
-4.54355

$$$$
