3TF6_DBH_A_216


 12 12  0  0  0  0  0  0  0  0999 V2000
   27.3412   78.7789   62.9788 C   0  0  0  0  0  0  0  0  0  0  0  0
   28.2988   79.7544   63.1440 C   0  0  0  0  0  0  0  0  0  0  0  0
   28.1992   80.9458   62.4659 C   0  0  0  0  0  0  0  0  0  0  0  0
   26.2739   78.9968   62.1093 C   0  0  0  0  0  0  0  0  0  0  0  0
   25.3307   78.0151   61.9542 O   0  0  0  0  0  0  0  0  0  0  0  0
   26.1694   80.1999   61.3953 C   0  0  0  0  0  0  0  0  0  0  0  0
   27.1483   81.1687   61.5907 C   0  0  0  0  0  0  0  0  0  0  0  0
   25.1341   80.4483   60.4943 O   0  0  0  0  0  0  0  0  0  0  0  0
   25.4055   77.2136   62.4337 H   0  0  0  0  0  0  0  0  0  0  0  0
   24.4695   79.8027   60.3548 H   0  0  0  0  0  0  0  0  0  0  0  0
   27.4750   77.4926   63.7598 C   0  0  0  0  0  0  0  0  0  0  0  0
   27.4169   76.3818   63.1722 O   0  0  0  0  0  0  0  0  0  0  0  0
 11 12  2  0  0  0
 11  1  1  0  0  0
  1  2  2  0  0  0
  1  4  1  0  0  0
  2  3  1  0  0  0
  3  7  2  0  0  0
  4  5  1  0  0  0
  4  6  2  0  0  0
  6  7  1  0  0  0
  6  8  1  0  0  0
  5  9  1  0  0  0
  8 10  1  0  0  0
M  END
> <minimizedAffinity>
-5.90061

$$$$
3TF6_DBH_A_216


 12 12  0  0  0  0  0  0  0  0999 V2000
   28.1358   80.1302   62.6730 C   0  0  0  0  0  0  0  0  0  0  0  0
   27.9099   78.9015   63.2517 C   0  0  0  0  0  0  0  0  0  0  0  0
   26.7879   78.1773   62.9263 C   0  0  0  0  0  0  0  0  0  0  0  0
   27.2146   80.6468   61.7634 C   0  0  0  0  0  0  0  0  0  0  0  0
   27.4529   81.8719   61.1980 O   0  0  0  0  0  0  0  0  0  0  0  0
   26.0549   79.9282   61.4363 C   0  0  0  0  0  0  0  0  0  0  0  0
   25.8601   78.6862   62.0316 C   0  0  0  0  0  0  0  0  0  0  0  0
   25.0937   80.4198   60.5534 O   0  0  0  0  0  0  0  0  0  0  0  0
   28.2291   82.3474   61.4202 H   0  0  0  0  0  0  0  0  0  0  0  0
   25.2147   81.2552   60.1467 H   0  0  0  0  0  0  0  0  0  0  0  0
   29.3925   80.8840   63.0401 C   0  0  0  0  0  0  0  0  0  0  0  0
   30.1171   81.3887   62.1441 O   0  0  0  0  0  0  0  0  0  0  0  0
 11 12  2  0  0  0
 11  1  1  0  0  0
  1  2  2  0  0  0
  1  4  1  0  0  0
  2  3  1  0  0  0
  3  7  2  0  0  0
  4  5  1  0  0  0
  4  6  2  0  0  0
  6  7  1  0  0  0
  6  8  1  0  0  0
  5  9  1  0  0  0
  8 10  1  0  0  0
M  END
> <minimizedAffinity>
-5.89564

$$$$
3TF6_DBH_A_216


 12 12  0  0  0  0  0  0  0  0999 V2000
   27.6395   80.5506   62.1464 C   0  0  0  0  0  0  0  0  0  0  0  0
   26.5470   80.8315   61.3570 C   0  0  0  0  0  0  0  0  0  0  0  0
   25.5647   79.8882   61.1711 C   0  0  0  0  0  0  0  0  0  0  0  0
   27.7552   79.2987   62.7482 C   0  0  0  0  0  0  0  0  0  0  0  0
   28.8497   79.0341   63.5289 O   0  0  0  0  0  0  0  0  0  0  0  0
   26.7705   78.3189   62.5517 C   0  0  0  0  0  0  0  0  0  0  0  0
   25.6750   78.6366   61.7557 C   0  0  0  0  0  0  0  0  0  0  0  0
   26.8603   77.0445   63.1114 O   0  0  0  0  0  0  0  0  0  0  0  0
   29.5042   79.6923   63.6566 H   0  0  0  0  0  0  0  0  0  0  0  0
   27.5939   76.8197   63.6492 H   0  0  0  0  0  0  0  0  0  0  0  0
   28.6855   81.6226   62.3439 C   0  0  0  0  0  0  0  0  0  0  0  0
   29.8868   81.4037   62.0410 O   0  0  0  0  0  0  0  0  0  0  0  0
 11 12  2  0  0  0
 11  1  1  0  0  0
  1  2  2  0  0  0
  1  4  1  0  0  0
  2  3  1  0  0  0
  3  7  2  0  0  0
  4  5  1  0  0  0
  4  6  2  0  0  0
  6  7  1  0  0  0
  6  8  1  0  0  0
  5  9  1  0  0  0
  8 10  1  0  0  0
M  END
> <minimizedAffinity>
-5.79601

$$$$
3TF6_DBH_A_216


 12 12  0  0  0  0  0  0  0  0999 V2000
   26.8793   78.5363   62.7860 C   0  0  0  0  0  0  0  0  0  0  0  0
   25.7131   78.4350   62.0610 C   0  0  0  0  0  0  0  0  0  0  0  0
   25.3382   79.4439   61.2061 C   0  0  0  0  0  0  0  0  0  0  0  0
   27.6753   79.6737   62.6615 C   0  0  0  0  0  0  0  0  0  0  0  0
   28.8315   79.7600   63.3916 O   0  0  0  0  0  0  0  0  0  0  0  0
   27.2956   80.7203   61.8079 C   0  0  0  0  0  0  0  0  0  0  0  0
   26.1164   80.5839   61.0829 C   0  0  0  0  0  0  0  0  0  0  0  0
   28.0472   81.8876   61.6745 O   0  0  0  0  0  0  0  0  0  0  0  0
   29.0801   79.0580   63.9602 H   0  0  0  0  0  0  0  0  0  0  0  0
   28.8432   81.9902   62.1581 H   0  0  0  0  0  0  0  0  0  0  0  0
   27.2673   77.3955   63.6972 C   0  0  0  0  0  0  0  0  0  0  0  0
   27.4632   76.2445   63.2287 O   0  0  0  0  0  0  0  0  0  0  0  0
 11 12  2  0  0  0
 11  1  1  0  0  0
  1  2  2  0  0  0
  1  4  1  0  0  0
  2  3  1  0  0  0
  3  7  2  0  0  0
  4  5  1  0  0  0
  4  6  2  0  0  0
  6  7  1  0  0  0
  6  8  1  0  0  0
  5  9  1  0  0  0
  8 10  1  0  0  0
M  END
> <minimizedAffinity>
-5.72297

$$$$
3TF6_DBH_A_216


 12 12  0  0  0  0  0  0  0  0999 V2000
   26.7309   79.2693   62.1336 C   0  0  0  0  0  0  0  0  0  0  0  0
   27.6584   78.9610   63.1033 C   0  0  0  0  0  0  0  0  0  0  0  0
   28.6468   79.8591   63.4283 C   0  0  0  0  0  0  0  0  0  0  0  0
   26.8040   80.4928   61.4698 C   0  0  0  0  0  0  0  0  0  0  0  0
   25.8749   80.7835   60.5057 O   0  0  0  0  0  0  0  0  0  0  0  0
   27.8189   81.4115   61.7767 C   0  0  0  0  0  0  0  0  0  0  0  0
   28.7354   81.0737   62.7671 C   0  0  0  0  0  0  0  0  0  0  0  0
   27.9462   82.6343   61.1180 O   0  0  0  0  0  0  0  0  0  0  0  0
   25.1992   80.1662   60.3049 H   0  0  0  0  0  0  0  0  0  0  0  0
   27.3344   82.8720   60.4492 H   0  0  0  0  0  0  0  0  0  0  0  0
   25.6468   78.2643   61.8221 C   0  0  0  0  0  0  0  0  0  0  0  0
   24.5236   78.6478   61.4049 O   0  0  0  0  0  0  0  0  0  0  0  0
 11 12  2  0  0  0
 11  1  1  0  0  0
  1  2  2  0  0  0
  1  4  1  0  0  0
  2  3  1  0  0  0
  3  7  2  0  0  0
  4  5  1  0  0  0
  4  6  2  0  0  0
  6  7  1  0  0  0
  6  8  1  0  0  0
  5  9  1  0  0  0
  8 10  1  0  0  0
M  END
> <minimizedAffinity>
-5.49727

$$$$
3TF6_DBH_A_216


 12 12  0  0  0  0  0  0  0  0999 V2000
   27.1388   79.5898   62.2992 C   0  0  0  0  0  0  0  0  0  0  0  0
   26.9044   80.7350   61.5717 C   0  0  0  0  0  0  0  0  0  0  0  0
   27.8164   81.7633   61.5840 C   0  0  0  0  0  0  0  0  0  0  0  0
   28.3003   79.4797   63.0619 C   0  0  0  0  0  0  0  0  0  0  0  0
   28.5176   78.3345   63.7820 O   0  0  0  0  0  0  0  0  0  0  0  0
   29.2310   80.5288   63.1000 C   0  0  0  0  0  0  0  0  0  0  0  0
   28.9691   81.6689   62.3473 C   0  0  0  0  0  0  0  0  0  0  0  0
   30.3916   80.4723   63.8713 O   0  0  0  0  0  0  0  0  0  0  0  0
   27.8926   77.6370   63.7527 H   0  0  0  0  0  0  0  0  0  0  0  0
   30.5780   79.7092   64.3821 H   0  0  0  0  0  0  0  0  0  0  0  0
   26.1225   78.4736   62.2408 C   0  0  0  0  0  0  0  0  0  0  0  0
   26.4833   77.2967   61.9811 O   0  0  0  0  0  0  0  0  0  0  0  0
 11 12  2  0  0  0
 11  1  1  0  0  0
  1  2  2  0  0  0
  1  4  1  0  0  0
  2  3  1  0  0  0
  3  7  2  0  0  0
  4  5  1  0  0  0
  4  6  2  0  0  0
  6  7  1  0  0  0
  6  8  1  0  0  0
  5  9  1  0  0  0
  8 10  1  0  0  0
M  END
> <minimizedAffinity>
-5.37024

$$$$
3TF6_DBH_A_216


 12 12  0  0  0  0  0  0  0  0999 V2000
   26.8271   80.2988   61.7377 C   0  0  0  0  0  0  0  0  0  0  0  0
   27.6191   81.4185   61.6156 C   0  0  0  0  0  0  0  0  0  0  0  0
   28.8126   81.5009   62.2924 C   0  0  0  0  0  0  0  0  0  0  0  0
   27.2325   79.2508   62.5623 C   0  0  0  0  0  0  0  0  0  0  0  0
   26.4320   78.1445   62.6748 O   0  0  0  0  0  0  0  0  0  0  0  0
   28.4386   79.3289   63.2748 C   0  0  0  0  0  0  0  0  0  0  0  0
   29.2200   80.4696   63.1234 C   0  0  0  0  0  0  0  0  0  0  0  0
   28.8684   78.3164   64.1323 O   0  0  0  0  0  0  0  0  0  0  0  0
   25.6275   78.0978   62.1966 H   0  0  0  0  0  0  0  0  0  0  0  0
   28.3499   77.5436   64.2418 H   0  0  0  0  0  0  0  0  0  0  0  0
   25.5339   80.2378   60.9593 C   0  0  0  0  0  0  0  0  0  0  0  0
   24.7257   79.2908   61.1403 O   0  0  0  0  0  0  0  0  0  0  0  0
 11 12  2  0  0  0
 11  1  1  0  0  0
  1  2  2  0  0  0
  1  4  1  0  0  0
  2  3  1  0  0  0
  3  7  2  0  0  0
  4  5  1  0  0  0
  4  6  2  0  0  0
  6  7  1  0  0  0
  6  8  1  0  0  0
  5  9  1  0  0  0
  8 10  1  0  0  0
M  END
> <minimizedAffinity>
-5.36494

$$$$
3TF6_DBH_A_216


 12 12  0  0  0  0  0  0  0  0999 V2000
   26.9628   80.1870   61.8736 C   0  0  0  0  0  0  0  0  0  0  0  0
   27.0651   79.0558   62.6517 C   0  0  0  0  0  0  0  0  0  0  0  0
   28.1361   78.8901   63.4972 C   0  0  0  0  0  0  0  0  0  0  0  0
   27.9575   81.1615   61.9346 C   0  0  0  0  0  0  0  0  0  0  0  0
   27.8420   82.2803   61.1521 O   0  0  0  0  0  0  0  0  0  0  0  0
   29.0664   80.9972   62.7781 C   0  0  0  0  0  0  0  0  0  0  0  0
   29.1361   79.8474   63.5577 C   0  0  0  0  0  0  0  0  0  0  0  0
   30.0980   81.9332   62.8493 O   0  0  0  0  0  0  0  0  0  0  0  0
   27.0992   82.3847   60.5907 H   0  0  0  0  0  0  0  0  0  0  0  0
   30.0614   82.7113   62.3285 H   0  0  0  0  0  0  0  0  0  0  0  0
   25.7586   80.3415   60.9745 C   0  0  0  0  0  0  0  0  0  0  0  0
   24.8005   79.5296   61.0482 O   0  0  0  0  0  0  0  0  0  0  0  0
 11 12  2  0  0  0
 11  1  1  0  0  0
  1  2  2  0  0  0
  1  4  1  0  0  0
  2  3  1  0  0  0
  3  7  2  0  0  0
  4  5  1  0  0  0
  4  6  2  0  0  0
  6  7  1  0  0  0
  6  8  1  0  0  0
  5  9  1  0  0  0
  8 10  1  0  0  0
M  END
> <minimizedAffinity>
-5.26940

$$$$
3TF6_DBH_A_216


 12 12  0  0  0  0  0  0  0  0999 V2000
   28.0446   79.6575   63.1187 C   0  0  0  0  0  0  0  0  0  0  0  0
   28.2389   80.8868   62.5297 C   0  0  0  0  0  0  0  0  0  0  0  0
   27.3591   81.3473   61.5794 C   0  0  0  0  0  0  0  0  0  0  0  0
   26.9578   78.8719   62.7387 C   0  0  0  0  0  0  0  0  0  0  0  0
   26.7798   77.6501   63.3327 O   0  0  0  0  0  0  0  0  0  0  0  0
   26.0623   79.3200   61.7561 C   0  0  0  0  0  0  0  0  0  0  0  0
   26.2814   80.5699   61.1863 C   0  0  0  0  0  0  0  0  0  0  0  0
   24.9785   78.5548   61.3259 O   0  0  0  0  0  0  0  0  0  0  0  0
   27.3810   77.3559   63.9884 H   0  0  0  0  0  0  0  0  0  0  0  0
   24.8215   77.7114   61.7028 H   0  0  0  0  0  0  0  0  0  0  0  0
   29.0217   79.1978   64.1752 C   0  0  0  0  0  0  0  0  0  0  0  0
   29.6321   78.1053   64.0461 O   0  0  0  0  0  0  0  0  0  0  0  0
 11 12  2  0  0  0
 11  1  1  0  0  0
  1  2  2  0  0  0
  1  4  1  0  0  0
  2  3  1  0  0  0
  3  7  2  0  0  0
  4  5  1  0  0  0
  4  6  2  0  0  0
  6  7  1  0  0  0
  6  8  1  0  0  0
  5  9  1  0  0  0
  8 10  1  0  0  0
M  END
> <minimizedAffinity>
-5.18693

$$$$
3TF6_DBH_A_216


 12 12  0  0  0  0  0  0  0  0999 V2000
   27.2855   79.2207   62.7298 C   0  0  0  0  0  0  0  0  0  0  0  0
   26.4983   80.0111   61.9228 C   0  0  0  0  0  0  0  0  0  0  0  0
   26.9794   81.2043   61.4390 C   0  0  0  0  0  0  0  0  0  0  0  0
   28.5711   79.6401   63.0676 C   0  0  0  0  0  0  0  0  0  0  0  0
   29.3410   78.8431   63.8734 O   0  0  0  0  0  0  0  0  0  0  0  0
   29.0687   80.8647   62.5975 C   0  0  0  0  0  0  0  0  0  0  0  0
   28.2518   81.6362   61.7774 C   0  0  0  0  0  0  0  0  0  0  0  0
   30.3377   81.3358   62.9338 O   0  0  0  0  0  0  0  0  0  0  0  0
   29.0035   78.0262   64.1845 H   0  0  0  0  0  0  0  0  0  0  0  0
   30.8962   80.8244   63.4855 H   0  0  0  0  0  0  0  0  0  0  0  0
   26.7278   77.9058   63.2221 C   0  0  0  0  0  0  0  0  0  0  0  0
   27.4915   76.9278   63.4294 O   0  0  0  0  0  0  0  0  0  0  0  0
 11 12  2  0  0  0
 11  1  1  0  0  0
  1  2  2  0  0  0
  1  4  1  0  0  0
  2  3  1  0  0  0
  3  7  2  0  0  0
  4  5  1  0  0  0
  4  6  2  0  0  0
  6  7  1  0  0  0
  6  8  1  0  0  0
  5  9  1  0  0  0
  8 10  1  0  0  0
M  END
> <minimizedAffinity>
-5.16868

$$$$
