6EIJ_B5Z_A_501


 36 40  0  0  0  0  0  0  0  0999 V2000
    3.8223  -15.4706   44.3507 C   0  0  0  0  0  0  0  0  0  0  0  0
    3.8655  -16.6879   43.6314 C   0  0  0  0  0  0  0  0  0  0  0  0
    2.7457  -14.6019   44.1275 C   0  0  0  0  0  0  0  0  0  0  0  0
    1.7585  -14.9443   43.1947 C   0  0  0  0  0  0  0  0  0  0  0  0
    1.8197  -16.1496   42.4880 C   0  0  0  0  0  0  0  0  0  0  0  0
    2.8863  -17.0310   42.7003 C   0  0  0  0  0  0  0  0  0  0  0  0
    8.8048  -16.1410   47.5261 C   0  0  0  0  0  0  0  0  0  0  0  0
    8.0742  -15.0509   47.8462 N   0  0  0  0  0  0  0  0  0  0  0  0
    8.0791  -16.9128   46.3901 S   0  0  0  0  0  0  0  0  0  0  0  0
    6.8568  -15.9686   46.2124 C   0  0  0  0  0  0  0  0  0  0  0  0
    5.8444  -16.0883   45.3524 N   0  0  0  0  0  0  0  0  0  0  0  0
    6.9522  -14.9465   47.0876 C   0  0  0  0  0  0  0  0  0  0  0  0
    5.9713  -14.0231   47.0743 C   0  0  0  0  0  0  0  0  0  0  0  0
    4.8878  -14.1265   46.1809 C   0  0  0  0  0  0  0  0  0  0  0  0
    4.8424  -15.2081   45.2821 C   0  0  0  0  0  0  0  0  0  0  0  0
    9.9375  -17.7883   48.7173 C   0  0  0  0  0  0  0  0  0  0  0  0
    8.9143  -18.4221   48.9366 O   0  0  0  0  0  0  0  0  0  0  0  0
    9.9451  -16.6249   48.0424 N   0  0  0  0  0  0  0  0  0  0  0  0
   10.7873  -16.1283   47.9271 H   0  0  0  0  0  0  0  0  0  0  0  0
   11.9985  -19.4164   48.6094 C   0  0  0  0  0  0  0  0  0  0  0  0
   11.2381  -19.6453   49.7841 C   0  0  0  0  0  0  0  0  0  0  0  0
   11.2887  -18.3444   49.2465 C   0  0  0  0  0  0  0  0  0  0  0  0
    2.9990  -18.2026   42.0420 N   0  0  0  0  0  0  0  0  0  0  0  0
    2.5326  -19.3378   42.6218 C   0  0  0  0  0  0  0  0  0  0  0  0
    2.0072  -19.3223   43.7359 O   0  0  0  0  0  0  0  0  0  0  0  0
    2.6640  -20.5097   41.9585 N   0  0  0  0  0  0  0  0  0  0  0  0
    3.4151  -18.2341   41.1503 H   0  0  0  0  0  0  0  0  0  0  0  0
    3.1238  -20.5331   41.0882 H   0  0  0  0  0  0  0  0  0  0  0  0
    2.1252  -21.7389   42.5313 C   0  0  0  0  0  0  0  0  0  0  0  0
    3.2121  -22.7331   42.9111 C   0  0  0  0  0  0  0  0  0  0  0  0
    3.6348  -22.5003   44.3244 N   0  0  0  0  0  0  0  0  0  0  0  0
    5.0901  -22.1997   44.3764 C   0  0  0  0  0  0  0  0  0  0  0  0
    5.6181  -22.0430   45.8317 C   0  0  0  0  0  0  0  0  0  0  0  0
    4.6878  -22.6275   46.8007 O   0  0  0  0  0  0  0  0  0  0  0  0
    4.3183  -23.9025   46.3405 C   0  0  0  0  0  0  0  0  0  0  0  0
    3.2649  -23.6056   45.2624 C   0  0  0  0  0  0  0  0  0  0  0  0
 20 21  1  0  0  0
 20 22  1  0  0  0
 21 22  1  0  0  0
 22 16  1  0  0  0
 16 17  2  0  0  0
 16 18  1  0  0  0
 18  7  1  0  0  0
  7  8  2  0  0  0
  7  9  1  0  0  0
  8 12  1  0  0  0
  9 10  1  0  0  0
 10 11  2  0  0  0
 10 12  1  0  0  0
 11 15  1  0  0  0
 12 13  2  0  0  0
 13 14  1  0  0  0
 14 15  2  0  0  0
 15  1  1  0  0  0
  1  2  2  0  0  0
  1  3  1  0  0  0
  2  6  1  0  0  0
  3  4  2  0  0  0
  4  5  1  0  0  0
  5  6  2  0  0  0
  6 23  1  0  0  0
 23 24  1  0  0  0
 24 25  2  0  0  0
 24 26  1  0  0  0
 26 29  1  0  0  0
 29 30  1  0  0  0
 30 31  1  0  0  0
 31 32  1  0  0  0
 31 36  1  0  0  0
 32 33  1  0  0  0
 33 34  1  0  0  0
 34 35  1  0  0  0
 35 36  1  0  0  0
 18 19  1  0  0  0
 23 27  1  0  0  0
 26 28  1  0  0  0
M  END
> <minimizedAffinity>
-9.66317

$$$$
6EIJ_B5Z_A_501


 36 40  0  0  0  0  0  0  0  0999 V2000
    3.8355  -15.4741   44.3173 C   0  0  0  0  0  0  0  0  0  0  0  0
    3.9347  -16.6576   43.5487 C   0  0  0  0  0  0  0  0  0  0  0  0
    2.7199  -14.6476   44.1280 C   0  0  0  0  0  0  0  0  0  0  0  0
    1.7494  -14.9965   43.1803 C   0  0  0  0  0  0  0  0  0  0  0  0
    1.8661  -16.1677   42.4248 C   0  0  0  0  0  0  0  0  0  0  0  0
    2.9722  -17.0069   42.6026 C   0  0  0  0  0  0  0  0  0  0  0  0
    8.8089  -16.0815   47.5195 C   0  0  0  0  0  0  0  0  0  0  0  0
    8.0512  -15.0135   47.8513 N   0  0  0  0  0  0  0  0  0  0  0  0
    8.1094  -16.8514   46.3660 S   0  0  0  0  0  0  0  0  0  0  0  0
    6.8670  -15.9326   46.1939 C   0  0  0  0  0  0  0  0  0  0  0  0
    5.8639  -16.0615   45.3245 N   0  0  0  0  0  0  0  0  0  0  0  0
    6.9327  -14.9227   47.0859 C   0  0  0  0  0  0  0  0  0  0  0  0
    5.9310  -14.0217   47.0797 C   0  0  0  0  0  0  0  0  0  0  0  0
    4.8567  -14.1355   46.1766 C   0  0  0  0  0  0  0  0  0  0  0  0
    4.8426  -15.2034   45.2605 C   0  0  0  0  0  0  0  0  0  0  0  0
    9.9667  -17.7119   48.7098 C   0  0  0  0  0  0  0  0  0  0  0  0
    8.9537  -18.3629   48.9264 O   0  0  0  0  0  0  0  0  0  0  0  0
    9.9562  -16.5474   48.0368 N   0  0  0  0  0  0  0  0  0  0  0  0
   10.7903  -16.0368   47.9236 H   0  0  0  0  0  0  0  0  0  0  0  0
   12.1321  -19.1902   48.5197 C   0  0  0  0  0  0  0  0  0  0  0  0
   11.3361  -19.6036   49.6179 C   0  0  0  0  0  0  0  0  0  0  0  0
   11.3260  -18.2466   49.2401 C   0  0  0  0  0  0  0  0  0  0  0  0
    3.1388  -18.1440   41.8969 N   0  0  0  0  0  0  0  0  0  0  0  0
    2.6314  -19.3063   42.3806 C   0  0  0  0  0  0  0  0  0  0  0  0
    2.0207  -19.3462   43.4497 O   0  0  0  0  0  0  0  0  0  0  0  0
    2.8170  -20.4434   41.6714 N   0  0  0  0  0  0  0  0  0  0  0  0
    3.6233  -18.1312   41.0400 H   0  0  0  0  0  0  0  0  0  0  0  0
    3.3433  -20.4237   40.8396 H   0  0  0  0  0  0  0  0  0  0  0  0
    2.2381  -21.6991   42.1379 C   0  0  0  0  0  0  0  0  0  0  0  0
    1.7896  -22.5971   40.9947 C   0  0  0  0  0  0  0  0  0  0  0  0
    0.3382  -22.3755   40.7212 N   0  0  0  0  0  0  0  0  0  0  0  0
   -0.3724  -23.6803   40.6612 C   0  0  0  0  0  0  0  0  0  0  0  0
   -1.8736  -23.5283   40.2813 C   0  0  0  0  0  0  0  0  0  0  0  0
   -2.1383  -22.2224   39.6724 O   0  0  0  0  0  0  0  0  0  0  0  0
   -1.1578  -21.9873   38.6942 C   0  0  0  0  0  0  0  0  0  0  0  0
    0.0656  -21.5415   39.5094 C   0  0  0  0  0  0  0  0  0  0  0  0
 20 21  1  0  0  0
 20 22  1  0  0  0
 21 22  1  0  0  0
 22 16  1  0  0  0
 16 17  2  0  0  0
 16 18  1  0  0  0
 18  7  1  0  0  0
  7  8  2  0  0  0
  7  9  1  0  0  0
  8 12  1  0  0  0
  9 10  1  0  0  0
 10 11  2  0  0  0
 10 12  1  0  0  0
 11 15  1  0  0  0
 12 13  2  0  0  0
 13 14  1  0  0  0
 14 15  2  0  0  0
 15  1  1  0  0  0
  1  2  2  0  0  0
  1  3  1  0  0  0
  2  6  1  0  0  0
  3  4  2  0  0  0
  4  5  1  0  0  0
  5  6  2  0  0  0
  6 23  1  0  0  0
 23 24  1  0  0  0
 24 25  2  0  0  0
 24 26  1  0  0  0
 26 29  1  0  0  0
 29 30  1  0  0  0
 30 31  1  0  0  0
 31 32  1  0  0  0
 31 36  1  0  0  0
 32 33  1  0  0  0
 33 34  1  0  0  0
 34 35  1  0  0  0
 35 36  1  0  0  0
 18 19  1  0  0  0
 23 27  1  0  0  0
 26 28  1  0  0  0
M  END
> <minimizedAffinity>
-9.62434

$$$$
6EIJ_B5Z_A_501


 36 40  0  0  0  0  0  0  0  0999 V2000
    5.1353  -15.5921   45.2445 C   0  0  0  0  0  0  0  0  0  0  0  0
    4.8396  -16.5096   44.2092 C   0  0  0  0  0  0  0  0  0  0  0  0
    4.2506  -14.5283   45.4656 C   0  0  0  0  0  0  0  0  0  0  0  0
    3.1175  -14.3868   44.6545 C   0  0  0  0  0  0  0  0  0  0  0  0
    2.8433  -15.3000   43.6314 C   0  0  0  0  0  0  0  0  0  0  0  0
    3.7143  -16.3706   43.3981 C   0  0  0  0  0  0  0  0  0  0  0  0
    9.8790  -18.3234   47.5673 C   0  0  0  0  0  0  0  0  0  0  0  0
    9.6320  -17.0950   48.0719 N   0  0  0  0  0  0  0  0  0  0  0  0
    8.7966  -18.6533   46.5032 S   0  0  0  0  0  0  0  0  0  0  0  0
    7.9836  -17.3303   46.5815 C   0  0  0  0  0  0  0  0  0  0  0  0
    6.9026  -16.9875   45.8797 N   0  0  0  0  0  0  0  0  0  0  0  0
    8.5420  -16.5180   47.5026 C   0  0  0  0  0  0  0  0  0  0  0  0
    7.9643  -15.3178   47.7048 C   0  0  0  0  0  0  0  0  0  0  0  0
    6.8194  -14.9313   46.9820 C   0  0  0  0  0  0  0  0  0  0  0  0
    6.2832  -15.8134   46.0259 C   0  0  0  0  0  0  0  0  0  0  0  0
   10.6770  -20.0171   48.9494 C   0  0  0  0  0  0  0  0  0  0  0  0
    9.7352  -19.9154   49.7236 O   0  0  0  0  0  0  0  0  0  0  0  0
   10.8212  -19.2305   47.8679 N   0  0  0  0  0  0  0  0  0  0  0  0
   11.6180  -19.3203   47.2967 H   0  0  0  0  0  0  0  0  0  0  0  0
   13.1164  -20.7751   49.5701 C   0  0  0  0  0  0  0  0  0  0  0  0
   12.7776  -21.1957   48.2591 C   0  0  0  0  0  0  0  0  0  0  0  0
   11.7602  -21.0959   49.2281 C   0  0  0  0  0  0  0  0  0  0  0  0
    3.5025  -17.2763   42.4215 N   0  0  0  0  0  0  0  0  0  0  0  0
    2.8481  -18.4287   42.7150 C   0  0  0  0  0  0  0  0  0  0  0  0
    2.4418  -18.6660   43.8534 O   0  0  0  0  0  0  0  0  0  0  0  0
    2.6539  -19.3366   41.7308 N   0  0  0  0  0  0  0  0  0  0  0  0
    3.8192  -17.1034   41.5055 H   0  0  0  0  0  0  0  0  0  0  0  0
    3.0167  -19.1710   40.8306 H   0  0  0  0  0  0  0  0  0  0  0  0
    1.9076  -20.5609   42.0018 C   0  0  0  0  0  0  0  0  0  0  0  0
    2.7046  -21.8158   41.6790 C   0  0  0  0  0  0  0  0  0  0  0  0
    3.3423  -22.3401   42.9235 N   0  0  0  0  0  0  0  0  0  0  0  0
    2.3978  -22.2240   44.0660 C   0  0  0  0  0  0  0  0  0  0  0  0
    3.0340  -22.6624   45.4166 C   0  0  0  0  0  0  0  0  0  0  0  0
    4.4964  -22.6841   45.3332 O   0  0  0  0  0  0  0  0  0  0  0  0
    4.9198  -21.4857   44.7344 C   0  0  0  0  0  0  0  0  0  0  0  0
    4.6681  -21.7218   43.2374 C   0  0  0  0  0  0  0  0  0  0  0  0
 20 21  1  0  0  0
 20 22  1  0  0  0
 21 22  1  0  0  0
 22 16  1  0  0  0
 16 17  2  0  0  0
 16 18  1  0  0  0
 18  7  1  0  0  0
  7  8  2  0  0  0
  7  9  1  0  0  0
  8 12  1  0  0  0
  9 10  1  0  0  0
 10 11  2  0  0  0
 10 12  1  0  0  0
 11 15  1  0  0  0
 12 13  2  0  0  0
 13 14  1  0  0  0
 14 15  2  0  0  0
 15  1  1  0  0  0
  1  2  2  0  0  0
  1  3  1  0  0  0
  2  6  1  0  0  0
  3  4  2  0  0  0
  4  5  1  0  0  0
  5  6  2  0  0  0
  6 23  1  0  0  0
 23 24  1  0  0  0
 24 25  2  0  0  0
 24 26  1  0  0  0
 26 29  1  0  0  0
 29 30  1  0  0  0
 30 31  1  0  0  0
 31 32  1  0  0  0
 31 36  1  0  0  0
 32 33  1  0  0  0
 33 34  1  0  0  0
 34 35  1  0  0  0
 35 36  1  0  0  0
 18 19  1  0  0  0
 23 27  1  0  0  0
 26 28  1  0  0  0
M  END
> <minimizedAffinity>
-9.22346

$$$$
6EIJ_B5Z_A_501


 36 40  0  0  0  0  0  0  0  0999 V2000
    5.0061  -15.6105   45.0094 C   0  0  0  0  0  0  0  0  0  0  0  0
    4.8010  -16.6451   44.0668 C   0  0  0  0  0  0  0  0  0  0  0  0
    4.0910  -14.5499   45.0451 C   0  0  0  0  0  0  0  0  0  0  0  0
    3.0180  -14.5274   44.1452 C   0  0  0  0  0  0  0  0  0  0  0  0
    2.8334  -15.5560   43.2157 C   0  0  0  0  0  0  0  0  0  0  0  0
    3.7358  -16.6249   43.1678 C   0  0  0  0  0  0  0  0  0  0  0  0
    9.6221  -17.9441   47.9427 C   0  0  0  0  0  0  0  0  0  0  0  0
    9.3120  -16.6774   48.2949 N   0  0  0  0  0  0  0  0  0  0  0  0
    8.6291  -18.4149   46.8450 S   0  0  0  0  0  0  0  0  0  0  0  0
    7.7841  -17.1154   46.7239 C   0  0  0  0  0  0  0  0  0  0  0  0
    6.7510  -16.8795   45.9141 N   0  0  0  0  0  0  0  0  0  0  0  0
    8.2550  -16.1953   47.5909 C   0  0  0  0  0  0  0  0  0  0  0  0
    7.6382  -14.9979   47.6226 C   0  0  0  0  0  0  0  0  0  0  0  0
    6.5420  -14.7227   46.7827 C   0  0  0  0  0  0  0  0  0  0  0  0
    6.0973  -15.7152   45.8899 C   0  0  0  0  0  0  0  0  0  0  0  0
   11.8417  -18.3904   48.4810 C   0  0  0  0  0  0  0  0  0  0  0  0
   12.2217  -17.2931   48.0958 O   0  0  0  0  0  0  0  0  0  0  0  0
   10.5587  -18.7869   48.4047 N   0  0  0  0  0  0  0  0  0  0  0  0
   10.3067  -19.6955   48.6878 H   0  0  0  0  0  0  0  0  0  0  0  0
   13.5591  -20.3721   48.2970 C   0  0  0  0  0  0  0  0  0  0  0  0
   12.4772  -20.7216   49.1442 C   0  0  0  0  0  0  0  0  0  0  0  0
   12.8851  -19.3750   49.0784 C   0  0  0  0  0  0  0  0  0  0  0  0
    3.6099  -17.6393   42.2880 N   0  0  0  0  0  0  0  0  0  0  0  0
    2.7911  -18.6798   42.5867 C   0  0  0  0  0  0  0  0  0  0  0  0
    2.1589  -18.7184   43.6432 O   0  0  0  0  0  0  0  0  0  0  0  0
    2.6837  -19.6989   41.7033 N   0  0  0  0  0  0  0  0  0  0  0  0
    4.1067  -17.6253   41.4381 H   0  0  0  0  0  0  0  0  0  0  0  0
    3.2217  -19.6936   40.8788 H   0  0  0  0  0  0  0  0  0  0  0  0
    1.7714  -20.8059   41.9709 C   0  0  0  0  0  0  0  0  0  0  0  0
    1.1266  -21.3520   40.7058 C   0  0  0  0  0  0  0  0  0  0  0  0
   -0.0366  -22.2161   41.0671 N   0  0  0  0  0  0  0  0  0  0  0  0
    0.3790  -23.2354   42.0667 C   0  0  0  0  0  0  0  0  0  0  0  0
   -0.7625  -24.2338   42.4149 C   0  0  0  0  0  0  0  0  0  0  0  0
   -1.8189  -24.2084   41.4002 O   0  0  0  0  0  0  0  0  0  0  0  0
   -1.2133  -24.2759   40.1343 C   0  0  0  0  0  0  0  0  0  0  0  0
   -0.7213  -22.8408   39.8927 C   0  0  0  0  0  0  0  0  0  0  0  0
 20 21  1  0  0  0
 20 22  1  0  0  0
 21 22  1  0  0  0
 22 16  1  0  0  0
 16 17  2  0  0  0
 16 18  1  0  0  0
 18  7  1  0  0  0
  7  8  2  0  0  0
  7  9  1  0  0  0
  8 12  1  0  0  0
  9 10  1  0  0  0
 10 11  2  0  0  0
 10 12  1  0  0  0
 11 15  1  0  0  0
 12 13  2  0  0  0
 13 14  1  0  0  0
 14 15  2  0  0  0
 15  1  1  0  0  0
  1  2  2  0  0  0
  1  3  1  0  0  0
  2  6  1  0  0  0
  3  4  2  0  0  0
  4  5  1  0  0  0
  5  6  2  0  0  0
  6 23  1  0  0  0
 23 24  1  0  0  0
 24 25  2  0  0  0
 24 26  1  0  0  0
 26 29  1  0  0  0
 29 30  1  0  0  0
 30 31  1  0  0  0
 31 32  1  0  0  0
 31 36  1  0  0  0
 32 33  1  0  0  0
 33 34  1  0  0  0
 34 35  1  0  0  0
 35 36  1  0  0  0
 18 19  1  0  0  0
 23 27  1  0  0  0
 26 28  1  0  0  0
M  END
> <minimizedAffinity>
-9.12258

$$$$
6EIJ_B5Z_A_501


 36 40  0  0  0  0  0  0  0  0999 V2000
    3.8065  -15.4160   44.3386 C   0  0  0  0  0  0  0  0  0  0  0  0
    3.9013  -16.5821   43.5434 C   0  0  0  0  0  0  0  0  0  0  0  0
    2.6844  -14.5915   44.1820 C   0  0  0  0  0  0  0  0  0  0  0  0
    1.7031  -14.9249   43.2398 C   0  0  0  0  0  0  0  0  0  0  0  0
    1.8155  -16.0789   42.4577 C   0  0  0  0  0  0  0  0  0  0  0  0
    2.9280  -16.9159   42.6027 C   0  0  0  0  0  0  0  0  0  0  0  0
    8.7966  -16.0957   47.5000 C   0  0  0  0  0  0  0  0  0  0  0  0
    8.0562  -15.0181   47.8393 N   0  0  0  0  0  0  0  0  0  0  0  0
    8.0775  -16.8543   46.3510 S   0  0  0  0  0  0  0  0  0  0  0  0
    6.8464  -15.9185   46.1902 C   0  0  0  0  0  0  0  0  0  0  0  0
    5.8346  -16.0324   45.3287 N   0  0  0  0  0  0  0  0  0  0  0  0
    6.9329  -14.9109   47.0830 C   0  0  0  0  0  0  0  0  0  0  0  0
    5.9435  -13.9964   47.0862 C   0  0  0  0  0  0  0  0  0  0  0  0
    4.8606  -14.0943   46.1916 C   0  0  0  0  0  0  0  0  0  0  0  0
    4.8246  -15.1605   45.2741 C   0  0  0  0  0  0  0  0  0  0  0  0
    9.9445  -17.7516   48.6645 C   0  0  0  0  0  0  0  0  0  0  0  0
    8.9268  -18.3971   48.8754 O   0  0  0  0  0  0  0  0  0  0  0  0
    9.9416  -16.5780   48.0073 N   0  0  0  0  0  0  0  0  0  0  0  0
   10.7795  -16.0728   47.8985 H   0  0  0  0  0  0  0  0  0  0  0  0
   12.1127  -19.2198   48.4334 C   0  0  0  0  0  0  0  0  0  0  0  0
   11.3101  -19.6746   49.5102 C   0  0  0  0  0  0  0  0  0  0  0  0
   11.3010  -18.3045   49.1833 C   0  0  0  0  0  0  0  0  0  0  0  0
    3.0908  -18.0367   41.8705 N   0  0  0  0  0  0  0  0  0  0  0  0
    2.5893  -19.2104   42.3322 C   0  0  0  0  0  0  0  0  0  0  0  0
    1.9873  -19.2754   43.4050 O   0  0  0  0  0  0  0  0  0  0  0  0
    2.7711  -20.3311   41.5963 N   0  0  0  0  0  0  0  0  0  0  0  0
    3.5683  -18.0038   41.0102 H   0  0  0  0  0  0  0  0  0  0  0  0
    3.2906  -20.2918   40.7609 H   0  0  0  0  0  0  0  0  0  0  0  0
    2.1981  -21.5980   42.0391 C   0  0  0  0  0  0  0  0  0  0  0  0
    3.2366  -22.5297   42.6457 C   0  0  0  0  0  0  0  0  0  0  0  0
    2.8759  -23.9476   42.3459 N   0  0  0  0  0  0  0  0  0  0  0  0
    3.7775  -24.4897   41.2951 C   0  0  0  0  0  0  0  0  0  0  0  0
    3.3940  -25.9346   40.8634 C   0  0  0  0  0  0  0  0  0  0  0  0
    2.0245  -26.2639   41.2659 O   0  0  0  0  0  0  0  0  0  0  0  0
    1.1898  -25.1955   40.8977 C   0  0  0  0  0  0  0  0  0  0  0  0
    1.4354  -24.1505   41.9966 C   0  0  0  0  0  0  0  0  0  0  0  0
 20 21  1  0  0  0
 20 22  1  0  0  0
 21 22  1  0  0  0
 22 16  1  0  0  0
 16 17  2  0  0  0
 16 18  1  0  0  0
 18  7  1  0  0  0
  7  8  2  0  0  0
  7  9  1  0  0  0
  8 12  1  0  0  0
  9 10  1  0  0  0
 10 11  2  0  0  0
 10 12  1  0  0  0
 11 15  1  0  0  0
 12 13  2  0  0  0
 13 14  1  0  0  0
 14 15  2  0  0  0
 15  1  1  0  0  0
  1  2  2  0  0  0
  1  3  1  0  0  0
  2  6  1  0  0  0
  3  4  2  0  0  0
  4  5  1  0  0  0
  5  6  2  0  0  0
  6 23  1  0  0  0
 23 24  1  0  0  0
 24 25  2  0  0  0
 24 26  1  0  0  0
 26 29  1  0  0  0
 29 30  1  0  0  0
 30 31  1  0  0  0
 31 32  1  0  0  0
 31 36  1  0  0  0
 32 33  1  0  0  0
 33 34  1  0  0  0
 34 35  1  0  0  0
 35 36  1  0  0  0
 18 19  1  0  0  0
 23 27  1  0  0  0
 26 28  1  0  0  0
M  END
> <minimizedAffinity>
-8.99148

$$$$
6EIJ_B5Z_A_501


 36 40  0  0  0  0  0  0  0  0999 V2000
    4.8589  -15.8029   45.3230 C   0  0  0  0  0  0  0  0  0  0  0  0
    6.1210  -16.4357   45.4116 C   0  0  0  0  0  0  0  0  0  0  0  0
    4.6267  -14.6653   46.1074 C   0  0  0  0  0  0  0  0  0  0  0  0
    5.6293  -14.1968   46.9659 C   0  0  0  0  0  0  0  0  0  0  0  0
    6.8697  -14.8380   47.0453 C   0  0  0  0  0  0  0  0  0  0  0  0
    7.1204  -15.9739   46.2668 C   0  0  0  0  0  0  0  0  0  0  0  0
    2.0828  -19.6346   41.7217 C   0  0  0  0  0  0  0  0  0  0  0  0
    1.5330  -18.4016   41.7651 N   0  0  0  0  0  0  0  0  0  0  0  0
    3.3231  -19.6618   42.6563 S   0  0  0  0  0  0  0  0  0  0  0  0
    3.2550  -18.1975   43.1746 C   0  0  0  0  0  0  0  0  0  0  0  0
    4.0682  -17.5946   44.0429 N   0  0  0  0  0  0  0  0  0  0  0  0
    2.2043  -17.5717   42.6052 C   0  0  0  0  0  0  0  0  0  0  0  0
    1.9901  -16.2849   42.9419 C   0  0  0  0  0  0  0  0  0  0  0  0
    2.8352  -15.6215   43.8521 C   0  0  0  0  0  0  0  0  0  0  0  0
    3.9115  -16.3244   44.4242 C   0  0  0  0  0  0  0  0  0  0  0  0
    1.0231  -21.7012   41.5727 C   0  0  0  0  0  0  0  0  0  0  0  0
    0.6696  -21.6750   42.7437 O   0  0  0  0  0  0  0  0  0  0  0  0
    1.7567  -20.7244   41.0097 N   0  0  0  0  0  0  0  0  0  0  0  0
    2.0544  -20.8090   40.0751 H   0  0  0  0  0  0  0  0  0  0  0  0
   -0.4610  -22.8752   39.7481 C   0  0  0  0  0  0  0  0  0  0  0  0
   -0.6285  -23.4994   41.0101 C   0  0  0  0  0  0  0  0  0  0  0  0
    0.6154  -22.9178   40.6961 C   0  0  0  0  0  0  0  0  0  0  0  0
    8.2951  -16.6351   46.3087 N   0  0  0  0  0  0  0  0  0  0  0  0
    8.3250  -17.9066   46.7828 C   0  0  0  0  0  0  0  0  0  0  0  0
    7.3029  -18.4714   47.1749 O   0  0  0  0  0  0  0  0  0  0  0  0
    9.5112  -18.5553   46.8338 N   0  0  0  0  0  0  0  0  0  0  0  0
    9.1221  -16.2002   45.9986 H   0  0  0  0  0  0  0  0  0  0  0  0
   10.3369  -18.0920   46.5640 H   0  0  0  0  0  0  0  0  0  0  0  0
    9.5684  -19.9408   47.2883 C   0  0  0  0  0  0  0  0  0  0  0  0
   10.8222  -20.2406   48.0960 C   0  0  0  0  0  0  0  0  0  0  0  0
   11.1173  -19.0964   49.0093 N   0  0  0  0  0  0  0  0  0  0  0  0
   12.5026  -18.6074   48.7796 C   0  0  0  0  0  0  0  0  0  0  0  0
   12.9110  -17.4772   49.7680 C   0  0  0  0  0  0  0  0  0  0  0  0
   12.0255  -17.4458   50.9347 O   0  0  0  0  0  0  0  0  0  0  0  0
   11.8865  -18.7584   51.4158 C   0  0  0  0  0  0  0  0  0  0  0  0
   10.8671  -19.3888   50.4550 C   0  0  0  0  0  0  0  0  0  0  0  0
 20 21  1  0  0  0
 20 22  1  0  0  0
 21 22  1  0  0  0
 22 16  1  0  0  0
 16 17  2  0  0  0
 16 18  1  0  0  0
 18  7  1  0  0  0
  7  8  2  0  0  0
  7  9  1  0  0  0
  8 12  1  0  0  0
  9 10  1  0  0  0
 10 11  2  0  0  0
 10 12  1  0  0  0
 11 15  1  0  0  0
 12 13  2  0  0  0
 13 14  1  0  0  0
 14 15  2  0  0  0
 15  1  1  0  0  0
  1  2  2  0  0  0
  1  3  1  0  0  0
  2  6  1  0  0  0
  3  4  2  0  0  0
  4  5  1  0  0  0
  5  6  2  0  0  0
  6 23  1  0  0  0
 23 24  1  0  0  0
 24 25  2  0  0  0
 24 26  1  0  0  0
 26 29  1  0  0  0
 29 30  1  0  0  0
 30 31  1  0  0  0
 31 32  1  0  0  0
 31 36  1  0  0  0
 32 33  1  0  0  0
 33 34  1  0  0  0
 34 35  1  0  0  0
 35 36  1  0  0  0
 18 19  1  0  0  0
 23 27  1  0  0  0
 26 28  1  0  0  0
M  END
> <minimizedAffinity>
-8.81361

$$$$
6EIJ_B5Z_A_501


 36 40  0  0  0  0  0  0  0  0999 V2000
    2.7601  -17.8208   42.8351 C   0  0  0  0  0  0  0  0  0  0  0  0
    4.1147  -17.6559   43.2078 C   0  0  0  0  0  0  0  0  0  0  0  0
    1.9782  -16.6747   42.6388 C   0  0  0  0  0  0  0  0  0  0  0  0
    2.5421  -15.4073   42.8323 C   0  0  0  0  0  0  0  0  0  0  0  0
    3.8820  -15.2626   43.2064 C   0  0  0  0  0  0  0  0  0  0  0  0
    4.6789  -16.3962   43.4040 C   0  0  0  0  0  0  0  0  0  0  0  0
    0.2642  -22.5283   40.1956 C   0  0  0  0  0  0  0  0  0  0  0  0
    0.6227  -22.7275   41.4826 N   0  0  0  0  0  0  0  0  0  0  0  0
    0.6222  -21.0704   39.7971 S   0  0  0  0  0  0  0  0  0  0  0  0
    1.2416  -20.6068   41.1457 C   0  0  0  0  0  0  0  0  0  0  0  0
    1.7601  -19.4150   41.4451 N   0  0  0  0  0  0  0  0  0  0  0  0
    1.1903  -21.6225   42.0321 C   0  0  0  0  0  0  0  0  0  0  0  0
    1.6876  -21.3982   43.2640 C   0  0  0  0  0  0  0  0  0  0  0  0
    2.2365  -20.1484   43.6097 C   0  0  0  0  0  0  0  0  0  0  0  0
    2.2738  -19.1261   42.6435 C   0  0  0  0  0  0  0  0  0  0  0  0
   -1.6859  -23.4369   39.3083 C   0  0  0  0  0  0  0  0  0  0  0  0
   -2.3982  -22.8612   40.1195 O   0  0  0  0  0  0  0  0  0  0  0  0
   -0.3448  -23.3340   39.3118 N   0  0  0  0  0  0  0  0  0  0  0  0
    0.1901  -23.8497   38.6660 H   0  0  0  0  0  0  0  0  0  0  0  0
   -2.7121  -23.8550   36.9245 C   0  0  0  0  0  0  0  0  0  0  0  0
   -3.6963  -24.0212   37.9317 C   0  0  0  0  0  0  0  0  0  0  0  0
   -2.3554  -24.3331   38.2296 C   0  0  0  0  0  0  0  0  0  0  0  0
    5.9739  -16.3154   43.7714 N   0  0  0  0  0  0  0  0  0  0  0  0
    6.3091  -16.5145   45.0716 C   0  0  0  0  0  0  0  0  0  0  0  0
    5.4571  -16.7687   45.9241 O   0  0  0  0  0  0  0  0  0  0  0  0
    7.6097  -16.4166   45.4315 N   0  0  0  0  0  0  0  0  0  0  0  0
    6.6689  -16.1141   43.1037 H   0  0  0  0  0  0  0  0  0  0  0  0
    8.2878  -16.1691   44.7621 H   0  0  0  0  0  0  0  0  0  0  0  0
    8.0086  -16.6776   46.8108 C   0  0  0  0  0  0  0  0  0  0  0  0
    8.7094  -18.0179   46.9737 C   0  0  0  0  0  0  0  0  0  0  0  0
    7.7905  -18.9878   47.6409 N   0  0  0  0  0  0  0  0  0  0  0  0
    8.5189  -19.7280   48.7050 C   0  0  0  0  0  0  0  0  0  0  0  0
    7.6452  -20.8268   49.3763 C   0  0  0  0  0  0  0  0  0  0  0  0
    6.4832  -21.1610   48.5492 O   0  0  0  0  0  0  0  0  0  0  0  0
    6.9240  -21.3494   47.2286 C   0  0  0  0  0  0  0  0  0  0  0  0
    7.0951  -19.9180   46.6977 C   0  0  0  0  0  0  0  0  0  0  0  0
 20 21  1  0  0  0
 20 22  1  0  0  0
 21 22  1  0  0  0
 22 16  1  0  0  0
 16 17  2  0  0  0
 16 18  1  0  0  0
 18  7  1  0  0  0
  7  8  2  0  0  0
  7  9  1  0  0  0
  8 12  1  0  0  0
  9 10  1  0  0  0
 10 11  2  0  0  0
 10 12  1  0  0  0
 11 15  1  0  0  0
 12 13  2  0  0  0
 13 14  1  0  0  0
 14 15  2  0  0  0
 15  1  1  0  0  0
  1  2  2  0  0  0
  1  3  1  0  0  0
  2  6  1  0  0  0
  3  4  2  0  0  0
  4  5  1  0  0  0
  5  6  2  0  0  0
  6 23  1  0  0  0
 23 24  1  0  0  0
 24 25  2  0  0  0
 24 26  1  0  0  0
 26 29  1  0  0  0
 29 30  1  0  0  0
 30 31  1  0  0  0
 31 32  1  0  0  0
 31 36  1  0  0  0
 32 33  1  0  0  0
 33 34  1  0  0  0
 34 35  1  0  0  0
 35 36  1  0  0  0
 18 19  1  0  0  0
 23 27  1  0  0  0
 26 28  1  0  0  0
M  END
> <minimizedAffinity>
-8.54041

$$$$
6EIJ_B5Z_A_501


 36 40  0  0  0  0  0  0  0  0999 V2000
   10.1398  -19.2228   48.4151 C   0  0  0  0  0  0  0  0  0  0  0  0
    9.9694  -20.4930   47.8162 C   0  0  0  0  0  0  0  0  0  0  0  0
   11.0648  -19.0970   49.4601 C   0  0  0  0  0  0  0  0  0  0  0  0
   11.7773  -20.2211   49.8965 C   0  0  0  0  0  0  0  0  0  0  0  0
   11.5923  -21.4709   49.2967 C   0  0  0  0  0  0  0  0  0  0  0  0
   10.6747  -21.6147   48.2495 C   0  0  0  0  0  0  0  0  0  0  0  0
    6.2070  -16.1701   45.1637 C   0  0  0  0  0  0  0  0  0  0  0  0
    6.9688  -15.4140   45.9837 N   0  0  0  0  0  0  0  0  0  0  0  0
    6.6215  -17.6581   45.3276 S   0  0  0  0  0  0  0  0  0  0  0  0
    7.7275  -17.4735   46.4045 C   0  0  0  0  0  0  0  0  0  0  0  0
    8.4756  -18.4136   46.9835 N   0  0  0  0  0  0  0  0  0  0  0  0
    7.8439  -16.1631   46.7036 C   0  0  0  0  0  0  0  0  0  0  0  0
    8.7620  -15.8153   47.6263 C   0  0  0  0  0  0  0  0  0  0  0  0
    9.5692  -16.7858   48.2502 C   0  0  0  0  0  0  0  0  0  0  0  0
    9.3998  -18.1401   47.9080 C   0  0  0  0  0  0  0  0  0  0  0  0
    4.1689  -15.1563   44.6799 C   0  0  0  0  0  0  0  0  0  0  0  0
    3.9629  -14.8673   45.8508 O   0  0  0  0  0  0  0  0  0  0  0  0
    5.2589  -15.8327   44.2758 N   0  0  0  0  0  0  0  0  0  0  0  0
    5.3613  -16.0805   43.3285 H   0  0  0  0  0  0  0  0  0  0  0  0
    1.9658  -15.5159   43.2917 C   0  0  0  0  0  0  0  0  0  0  0  0
    3.1011  -15.5179   42.4422 C   0  0  0  0  0  0  0  0  0  0  0  0
    3.1243  -14.7316   43.6107 C   0  0  0  0  0  0  0  0  0  0  0  0
   10.4516  -22.7968   47.6400 N   0  0  0  0  0  0  0  0  0  0  0  0
    9.3325  -23.5013   47.9463 C   0  0  0  0  0  0  0  0  0  0  0  0
    8.5148  -23.0847   48.7680 O   0  0  0  0  0  0  0  0  0  0  0  0
    9.1261  -24.6928   47.3395 N   0  0  0  0  0  0  0  0  0  0  0  0
   11.0935  -23.1451   46.9798 H   0  0  0  0  0  0  0  0  0  0  0  0
    9.7992  -25.0503   46.7163 H   0  0  0  0  0  0  0  0  0  0  0  0
    7.9070  -25.4487   47.6074 C   0  0  0  0  0  0  0  0  0  0  0  0
    6.9684  -25.4889   46.4109 C   0  0  0  0  0  0  0  0  0  0  0  0
    6.0315  -24.3274   46.4677 N   0  0  0  0  0  0  0  0  0  0  0  0
    4.6516  -24.7711   46.1358 C   0  0  0  0  0  0  0  0  0  0  0  0
    3.6395  -23.5906   46.0801 C   0  0  0  0  0  0  0  0  0  0  0  0
    4.3291  -22.3046   45.9505 O   0  0  0  0  0  0  0  0  0  0  0  0
    5.2961  -22.4251   44.9384 C   0  0  0  0  0  0  0  0  0  0  0  0
    6.4533  -23.1611   45.6308 C   0  0  0  0  0  0  0  0  0  0  0  0
 20 21  1  0  0  0
 20 22  1  0  0  0
 21 22  1  0  0  0
 22 16  1  0  0  0
 16 17  2  0  0  0
 16 18  1  0  0  0
 18  7  1  0  0  0
  7  8  2  0  0  0
  7  9  1  0  0  0
  8 12  1  0  0  0
  9 10  1  0  0  0
 10 11  2  0  0  0
 10 12  1  0  0  0
 11 15  1  0  0  0
 12 13  2  0  0  0
 13 14  1  0  0  0
 14 15  2  0  0  0
 15  1  1  0  0  0
  1  2  2  0  0  0
  1  3  1  0  0  0
  2  6  1  0  0  0
  3  4  2  0  0  0
  4  5  1  0  0  0
  5  6  2  0  0  0
  6 23  1  0  0  0
 23 24  1  0  0  0
 24 25  2  0  0  0
 24 26  1  0  0  0
 26 29  1  0  0  0
 29 30  1  0  0  0
 30 31  1  0  0  0
 31 32  1  0  0  0
 31 36  1  0  0  0
 32 33  1  0  0  0
 33 34  1  0  0  0
 34 35  1  0  0  0
 35 36  1  0  0  0
 18 19  1  0  0  0
 23 27  1  0  0  0
 26 28  1  0  0  0
M  END
> <minimizedAffinity>
-8.52237

$$$$
6EIJ_B5Z_A_501


 36 40  0  0  0  0  0  0  0  0999 V2000
    5.0672  -15.9371   45.3899 C   0  0  0  0  0  0  0  0  0  0  0  0
    6.3347  -16.5561   45.4955 C   0  0  0  0  0  0  0  0  0  0  0  0
    4.8131  -14.8006   46.1693 C   0  0  0  0  0  0  0  0  0  0  0  0
    5.7998  -14.3199   47.0393 C   0  0  0  0  0  0  0  0  0  0  0  0
    7.0459  -14.9477   47.1354 C   0  0  0  0  0  0  0  0  0  0  0  0
    7.3185  -16.0822   46.3622 C   0  0  0  0  0  0  0  0  0  0  0  0
    1.8667  -19.9245   42.3543 C   0  0  0  0  0  0  0  0  0  0  0  0
    1.6526  -18.6395   41.9972 N   0  0  0  0  0  0  0  0  0  0  0  0
    2.9318  -19.9582   43.4844 S   0  0  0  0  0  0  0  0  0  0  0  0
    3.1798  -18.4289   43.6149 C   0  0  0  0  0  0  0  0  0  0  0  0
    4.0065  -17.7990   44.4507 N   0  0  0  0  0  0  0  0  0  0  0  0
    2.4054  -17.7743   42.7251 C   0  0  0  0  0  0  0  0  0  0  0  0
    2.4902  -16.4300   42.6977 C   0  0  0  0  0  0  0  0  0  0  0  0
    3.3580  -15.7387   43.5648 C   0  0  0  0  0  0  0  0  0  0  0  0
    4.1367  -16.4702   44.4804 C   0  0  0  0  0  0  0  0  0  0  0  0
    0.9671  -21.1495   40.5920 C   0  0  0  0  0  0  0  0  0  0  0  0
    0.9964  -20.1934   39.8294 O   0  0  0  0  0  0  0  0  0  0  0  0
    1.3616  -21.0720   41.8755 N   0  0  0  0  0  0  0  0  0  0  0  0
    1.2798  -21.8571   42.4639 H   0  0  0  0  0  0  0  0  0  0  0  0
    1.2684  -23.4409   39.3394 C   0  0  0  0  0  0  0  0  0  0  0  0
    0.3372  -22.6153   38.6599 C   0  0  0  0  0  0  0  0  0  0  0  0
    0.4448  -22.5133   40.0607 C   0  0  0  0  0  0  0  0  0  0  0  0
    8.4995  -16.7307   46.4199 N   0  0  0  0  0  0  0  0  0  0  0  0
    8.6971  -17.6663   47.3832 C   0  0  0  0  0  0  0  0  0  0  0  0
    7.8212  -17.9378   48.2058 O   0  0  0  0  0  0  0  0  0  0  0  0
    9.8909  -18.3004   47.4407 N   0  0  0  0  0  0  0  0  0  0  0  0
    9.2109  -16.5276   45.7703 H   0  0  0  0  0  0  0  0  0  0  0  0
   10.6090  -18.0541   46.8139 H   0  0  0  0  0  0  0  0  0  0  0  0
   10.1155  -19.3486   48.4307 C   0  0  0  0  0  0  0  0  0  0  0  0
   10.7135  -20.6088   47.8234 C   0  0  0  0  0  0  0  0  0  0  0  0
    9.8926  -21.7935   48.2143 N   0  0  0  0  0  0  0  0  0  0  0  0
   10.5493  -23.0430   47.7469 C   0  0  0  0  0  0  0  0  0  0  0  0
    9.6967  -24.3123   48.0352 C   0  0  0  0  0  0  0  0  0  0  0  0
    8.2999  -23.9641   48.3064 O   0  0  0  0  0  0  0  0  0  0  0  0
    7.8721  -23.0627   47.3173 C   0  0  0  0  0  0  0  0  0  0  0  0
    8.4654  -21.7204   47.7716 C   0  0  0  0  0  0  0  0  0  0  0  0
 20 21  1  0  0  0
 20 22  1  0  0  0
 21 22  1  0  0  0
 22 16  1  0  0  0
 16 17  2  0  0  0
 16 18  1  0  0  0
 18  7  1  0  0  0
  7  8  2  0  0  0
  7  9  1  0  0  0
  8 12  1  0  0  0
  9 10  1  0  0  0
 10 11  2  0  0  0
 10 12  1  0  0  0
 11 15  1  0  0  0
 12 13  2  0  0  0
 13 14  1  0  0  0
 14 15  2  0  0  0
 15  1  1  0  0  0
  1  2  2  0  0  0
  1  3  1  0  0  0
  2  6  1  0  0  0
  3  4  2  0  0  0
  4  5  1  0  0  0
  5  6  2  0  0  0
  6 23  1  0  0  0
 23 24  1  0  0  0
 24 25  2  0  0  0
 24 26  1  0  0  0
 26 29  1  0  0  0
 29 30  1  0  0  0
 30 31  1  0  0  0
 31 32  1  0  0  0
 31 36  1  0  0  0
 32 33  1  0  0  0
 33 34  1  0  0  0
 34 35  1  0  0  0
 35 36  1  0  0  0
 18 19  1  0  0  0
 23 27  1  0  0  0
 26 28  1  0  0  0
M  END
> <minimizedAffinity>
-8.47875

$$$$
6EIJ_B5Z_A_501


 36 40  0  0  0  0  0  0  0  0999 V2000
    3.4817  -17.0196   44.2894 C   0  0  0  0  0  0  0  0  0  0  0  0
    4.3892  -16.6717   45.3173 C   0  0  0  0  0  0  0  0  0  0  0  0
    2.8263  -15.9895   43.6017 C   0  0  0  0  0  0  0  0  0  0  0  0
    3.0659  -14.6557   43.9554 C   0  0  0  0  0  0  0  0  0  0  0  0
    3.9623  -14.3297   44.9783 C   0  0  0  0  0  0  0  0  0  0  0  0
    4.6283  -15.3455   45.6741 C   0  0  0  0  0  0  0  0  0  0  0  0
    1.7194  -21.9306   41.4374 C   0  0  0  0  0  0  0  0  0  0  0  0
    2.3991  -22.1565   42.5826 N   0  0  0  0  0  0  0  0  0  0  0  0
    1.5986  -20.3970   41.2224 S   0  0  0  0  0  0  0  0  0  0  0  0
    2.3709  -19.9241   42.4862 C   0  0  0  0  0  0  0  0  0  0  0  0
    2.6266  -18.6735   42.8727 N   0  0  0  0  0  0  0  0  0  0  0  0
    2.7797  -21.0015   43.1876 C   0  0  0  0  0  0  0  0  0  0  0  0
    3.4709  -20.7787   44.3225 C   0  0  0  0  0  0  0  0  0  0  0  0
    3.7511  -19.4691   44.7575 C   0  0  0  0  0  0  0  0  0  0  0  0
    3.3094  -18.3809   43.9825 C   0  0  0  0  0  0  0  0  0  0  0  0
   -0.0703  -23.2845   40.8212 C   0  0  0  0  0  0  0  0  0  0  0  0
   -0.6829  -23.0531   41.8546 O   0  0  0  0  0  0  0  0  0  0  0  0
    1.1485  -22.7762   40.5656 N   0  0  0  0  0  0  0  0  0  0  0  0
    1.6219  -23.0246   39.7389 H   0  0  0  0  0  0  0  0  0  0  0  0
   -0.4606  -25.6206   39.6806 C   0  0  0  0  0  0  0  0  0  0  0  0
    0.1543  -24.7168   38.7776 C   0  0  0  0  0  0  0  0  0  0  0  0
   -0.7220  -24.2117   39.7580 C   0  0  0  0  0  0  0  0  0  0  0  0
    5.4973  -15.0888   46.6729 N   0  0  0  0  0  0  0  0  0  0  0  0
    6.7805  -15.5175   46.5635 C   0  0  0  0  0  0  0  0  0  0  0  0
    7.1702  -16.1351   45.5715 O   0  0  0  0  0  0  0  0  0  0  0  0
    7.6399  -15.2671   47.5780 N   0  0  0  0  0  0  0  0  0  0  0  0
    5.2040  -14.5957   47.4730 H   0  0  0  0  0  0  0  0  0  0  0  0
    7.3212  -14.8139   48.3918 H   0  0  0  0  0  0  0  0  0  0  0  0
    9.0387  -15.6680   47.4675 C   0  0  0  0  0  0  0  0  0  0  0  0
    9.4090  -16.7751   48.4430 C   0  0  0  0  0  0  0  0  0  0  0  0
    9.3140  -18.0996   47.7598 N   0  0  0  0  0  0  0  0  0  0  0  0
    8.1702  -18.8741   48.3102 C   0  0  0  0  0  0  0  0  0  0  0  0
    8.0725  -20.3067   47.7106 C   0  0  0  0  0  0  0  0  0  0  0  0
    9.3331  -20.7063   47.0803 O   0  0  0  0  0  0  0  0  0  0  0  0
   10.3815  -20.4052   47.9658 C   0  0  0  0  0  0  0  0  0  0  0  0
   10.5823  -18.8928   47.7862 C   0  0  0  0  0  0  0  0  0  0  0  0
 20 21  1  0  0  0
 20 22  1  0  0  0
 21 22  1  0  0  0
 22 16  1  0  0  0
 16 17  2  0  0  0
 16 18  1  0  0  0
 18  7  1  0  0  0
  7  8  2  0  0  0
  7  9  1  0  0  0
  8 12  1  0  0  0
  9 10  1  0  0  0
 10 11  2  0  0  0
 10 12  1  0  0  0
 11 15  1  0  0  0
 12 13  2  0  0  0
 13 14  1  0  0  0
 14 15  2  0  0  0
 15  1  1  0  0  0
  1  2  2  0  0  0
  1  3  1  0  0  0
  2  6  1  0  0  0
  3  4  2  0  0  0
  4  5  1  0  0  0
  5  6  2  0  0  0
  6 23  1  0  0  0
 23 24  1  0  0  0
 24 25  2  0  0  0
 24 26  1  0  0  0
 26 29  1  0  0  0
 29 30  1  0  0  0
 30 31  1  0  0  0
 31 32  1  0  0  0
 31 36  1  0  0  0
 32 33  1  0  0  0
 33 34  1  0  0  0
 34 35  1  0  0  0
 35 36  1  0  0  0
 18 19  1  0  0  0
 23 27  1  0  0  0
 26 28  1  0  0  0
M  END
> <minimizedAffinity>
-8.39896

$$$$
