1Y6R_MTM_A_233


 27 29  0  0  0  0  0  0  0  0999 V2000
   56.7431   73.9807   19.6506 C   0  0  0  0  0  0  0  0  0  0  0  0
   56.7139   73.6078   18.3053 C   0  0  0  0  0  0  0  0  0  0  0  0
   55.5351   73.8263   17.6948 N   0  0  0  0  0  0  0  0  0  0  0  0
   54.7440   74.3632   18.6705 C   0  0  0  0  0  0  0  0  0  0  0  0
   53.3856   74.8135   18.7057 C   0  0  0  0  0  0  0  0  0  0  0  0
   52.5767   74.7623   17.6392 N   0  0  0  0  0  0  0  0  0  0  0  0
   52.9150   75.3126   19.9115 N   0  0  0  0  0  0  0  0  0  0  0  0
   53.7129   75.3661   21.0023 C   0  0  0  0  0  0  0  0  0  0  0  0
   55.0020   74.9681   21.0822 N   0  0  0  0  0  0  0  0  0  0  0  0
   55.4574   74.4760   19.8815 C   0  0  0  0  0  0  0  0  0  0  0  0
   55.2967   73.6412   16.7577 H   0  0  0  0  0  0  0  0  0  0  0  0
   51.6177   74.9516   17.9305 H   0  0  0  0  0  0  0  0  0  0  0  0
   52.6274   73.8345   17.2183 H   0  0  0  0  0  0  0  0  0  0  0  0
   51.9861   75.6327   19.9742 H   0  0  0  0  0  0  0  0  0  0  0  0
   57.7883   71.8137   21.9084 C   0  0  0  0  0  0  0  0  0  0  0  0
   58.2740   72.4223   20.6654 N   0  0  0  0  0  0  0  0  0  0  0  0
   57.6816   74.1952   22.0978 C   0  0  0  0  0  0  0  0  0  0  0  0
   58.5647   75.2727   22.5294 O   0  0  0  0  0  0  0  0  0  0  0  0
   57.9126   72.8846   22.9792 C   0  0  0  0  0  0  0  0  0  0  0  0
   59.2761   72.8659   23.5586 O   0  0  0  0  0  0  0  0  0  0  0  0
   57.9381   73.8404   20.5850 C   0  0  0  0  0  0  0  0  0  0  0  0
   57.8506   71.9379   19.8739 H   0  0  0  0  0  0  0  0  0  0  0  0
   59.4883   74.9939   22.4283 H   0  0  0  0  0  0  0  0  0  0  0  0
   59.9306   72.9533   22.8481 H   0  0  0  0  0  0  0  0  0  0  0  0
   56.3630   71.3317   21.6389 C   0  0  0  0  0  0  0  0  0  0  0  0
   55.3059   70.1384   23.8987 C   0  0  0  0  0  0  0  0  0  0  0  0
   55.9789   69.6861   22.2640 S   0  0  0  0  0  0  0  0  0  0  0  0
 26 27  1  0  0  0
 27 25  1  0  0  0
 25 15  1  0  0  0
 15 16  1  0  0  0
 15 19  1  0  0  0
 16 21  1  0  0  0
 17 18  1  0  0  0
 17 19  1  0  0  0
 17 21  1  0  0  0
 19 20  1  0  0  0
 21  1  1  0  0  0
  1  2  2  0  0  0
  1 10  1  0  0  0
  2  3  1  0  0  0
  3  4  1  0  0  0
  4  5  1  0  0  0
  4 10  2  0  0  0
  5  6  1  0  0  0
  5  7  1  0  0  0
  7  8  1  0  0  0
  8  9  2  0  0  0
  9 10  1  0  0  0
 16 22  1  0  0  0
 18 23  1  0  0  0
 20 24  1  0  0  0
  3 11  1  0  0  0
  6 12  1  0  0  0
  6 13  1  0  0  0
  7 14  1  0  0  0
M  END
> <minimizedAffinity>
-10.29320

$$$$
