5KR1_017_B_101


 42 45  0  0  0  0  0  0  0  0999 V2000
   -5.4501   -1.1643  -16.1045 C   0  0  0  0  0  0  0  0  0  0  0  0
   -5.3156   -0.1453  -17.0441 O   0  0  0  0  0  0  0  0  0  0  0  0
   -6.1835    0.2519  -17.2169 H   0  0  0  0  0  0  0  0  0  0  0  0
   -6.3493   -2.2728  -16.6530 C   0  0  0  0  0  0  0  0  0  0  0  0
   -6.0336   -3.5723  -16.0076 N   0  0  0  0  0  0  0  0  0  0  0  0
   -7.2534   -4.2505  -15.0670 S   0  0  0  0  0  0  0  0  0  0  0  0
   -8.0670   -3.2029  -14.5406 O   0  0  0  0  0  0  0  0  0  0  0  0
   -6.6453   -4.9874  -14.0091 O   0  0  0  0  0  0  0  0  0  0  0  0
  -10.6855   -7.8676  -18.4175 N   0  0  0  0  0  0  0  0  0  0  0  0
   -9.8260   -7.0377  -17.6245 C   0  0  0  0  0  0  0  0  0  0  0  0
  -10.3437   -5.8621  -17.1098 C   0  0  0  0  0  0  0  0  0  0  0  0
   -9.5371   -5.0346  -16.3424 C   0  0  0  0  0  0  0  0  0  0  0  0
   -8.2174   -5.3826  -16.0988 C   0  0  0  0  0  0  0  0  0  0  0  0
   -7.6849   -6.5597  -16.6077 C   0  0  0  0  0  0  0  0  0  0  0  0
   -8.5063   -7.3960  -17.3815 C   0  0  0  0  0  0  0  0  0  0  0  0
  -11.6183   -7.5976  -18.5792 H   0  0  0  0  0  0  0  0  0  0  0  0
  -10.3427   -8.7075  -18.8001 H   0  0  0  0  0  0  0  0  0  0  0  0
   -5.0917   -4.5101  -16.6315 C   0  0  0  0  0  0  0  0  0  0  0  0
   -3.5957   -4.1627  -16.4040 C   0  0  0  0  0  0  0  0  0  0  0  0
   -3.2518   -4.3504  -14.9331 C   0  0  0  0  0  0  0  0  0  0  0  0
   -2.7513   -5.0878  -17.2503 C   0  0  0  0  0  0  0  0  0  0  0  0
   -5.9655   -0.5820  -14.7920 C   0  0  0  0  0  0  0  0  0  0  0  0
   -4.9714    0.3270  -14.3359 N   0  0  0  0  0  0  0  0  0  0  0  0
   -3.8969   -0.0539  -13.4608 C   0  0  0  0  0  0  0  0  0  0  0  0
   -3.7852   -1.1688  -12.9692 O   0  0  0  0  0  0  0  0  0  0  0  0
   -5.0219    1.2637  -14.6345 H   0  0  0  0  0  0  0  0  0  0  0  0
   -2.9663    0.9939  -13.2264 O   0  0  0  0  0  0  0  0  0  0  0  0
   -2.2306    1.0239  -12.0467 C   0  0  0  0  0  0  0  0  0  0  0  0
   -0.9337    1.6353  -12.3780 C   0  0  0  0  0  0  0  0  0  0  0  0
   -1.1833    2.9252  -12.3644 O   0  0  0  0  0  0  0  0  0  0  0  0
   -2.2555    3.1433  -11.2207 C   0  0  0  0  0  0  0  0  0  0  0  0
   -3.2878    4.0538  -11.8434 O   0  0  0  0  0  0  0  0  0  0  0  0
   -4.5619    3.2703  -11.8953 C   0  0  0  0  0  0  0  0  0  0  0  0
   -4.3779    2.2590  -11.1312 C   0  0  0  0  0  0  0  0  0  0  0  0
   -2.7932    2.0303  -10.9949 C   0  0  0  0  0  0  0  0  0  0  0  0
   -7.2459    0.2400  -14.9133 C   0  0  0  0  0  0  0  0  0  0  0  0
   -7.8630    1.8619  -13.2067 C   0  0  0  0  0  0  0  0  0  0  0  0
   -8.2933    2.2990  -11.9483 C   0  0  0  0  0  0  0  0  0  0  0  0
   -8.6069    1.3699  -10.9655 C   0  0  0  0  0  0  0  0  0  0  0  0
   -8.4932    0.0105  -11.2389 C   0  0  0  0  0  0  0  0  0  0  0  0
   -8.0613   -0.4275  -12.4921 C   0  0  0  0  0  0  0  0  0  0  0  0
   -7.7494    0.5014  -13.4781 C   0  0  0  0  0  0  0  0  0  0  0  0
  9 10  1  0  0  0
 10 11  2  0  0  0
 10 15  1  0  0  0
 11 12  1  0  0  0
 12 13  2  0  0  0
 13 14  1  0  0  0
 13  6  1  0  0  0
 14 15  2  0  0  0
  6  7  2  0  0  0
  6  8  2  0  0  0
  6  5  1  0  0  0
  5 18  1  0  0  0
  5  4  1  0  0  0
 18 19  1  0  0  0
 19 20  1  0  0  0
 19 21  1  0  0  0
  4  1  1  0  0  0
  1  2  1  0  0  0
  1 22  1  0  0  0
 22 23  1  0  0  0
 22 36  1  0  0  0
 23 24  1  0  0  0
 24 25  2  0  0  0
 24 27  1  0  0  0
 27 28  1  0  0  0
 28 29  1  0  0  0
 28 35  1  0  0  0
 29 30  1  0  0  0
 30 31  1  0  0  0
 31 32  1  0  0  0
 31 35  1  0  0  0
 32 33  1  0  0  0
 33 34  1  0  0  0
 34 35  1  0  0  0
 36 42  1  0  0  0
 37 38  2  0  0  0
 37 42  1  0  0  0
 38 39  1  0  0  0
 39 40  2  0  0  0
 40 41  1  0  0  0
 41 42  2  0  0  0
  9 16  1  0  0  0
  9 17  1  0  0  0
  2  3  1  0  0  0
 23 26  1  0  0  0
M  END
> <minimizedAffinity>
-10.07207

$$$$
5KR1_017_B_101


 42 45  0  0  0  0  0  0  0  0999 V2000
   -5.4118   -1.0464  -15.9187 C   0  0  0  0  0  0  0  0  0  0  0  0
   -5.1050    0.0026  -16.7818 O   0  0  0  0  0  0  0  0  0  0  0  0
   -5.9178    0.4779  -17.0148 H   0  0  0  0  0  0  0  0  0  0  0  0
   -6.3340   -2.0490  -16.6134 C   0  0  0  0  0  0  0  0  0  0  0  0
   -6.0700   -3.4277  -16.1292 N   0  0  0  0  0  0  0  0  0  0  0  0
   -4.4615   -3.9228  -16.1374 S   0  0  0  0  0  0  0  0  0  0  0  0
   -3.9484   -3.8474  -14.8079 O   0  0  0  0  0  0  0  0  0  0  0  0
   -3.7311   -3.0565  -17.0024 O   0  0  0  0  0  0  0  0  0  0  0  0
   -4.4273   -9.4774  -18.4253 N   0  0  0  0  0  0  0  0  0  0  0  0
   -4.3972   -8.1660  -17.8459 C   0  0  0  0  0  0  0  0  0  0  0  0
   -5.2539   -7.2056  -18.3545 C   0  0  0  0  0  0  0  0  0  0  0  0
   -5.2463   -5.9259  -17.8192 C   0  0  0  0  0  0  0  0  0  0  0  0
   -4.3795   -5.6112  -16.7840 C   0  0  0  0  0  0  0  0  0  0  0  0
   -3.5153   -6.5650  -16.2628 C   0  0  0  0  0  0  0  0  0  0  0  0
   -3.5289   -7.8603  -16.8059 C   0  0  0  0  0  0  0  0  0  0  0  0
   -5.0495   -9.6759  -19.1619 H   0  0  0  0  0  0  0  0  0  0  0  0
   -3.8258  -10.1792  -18.0864 H   0  0  0  0  0  0  0  0  0  0  0  0
   -6.9394   -4.0477  -15.1215 C   0  0  0  0  0  0  0  0  0  0  0  0
   -7.9830   -5.0415  -15.6990 C   0  0  0  0  0  0  0  0  0  0  0  0
   -8.2592   -6.1346  -14.6764 C   0  0  0  0  0  0  0  0  0  0  0  0
   -9.2569   -4.2844  -15.9973 C   0  0  0  0  0  0  0  0  0  0  0  0
   -6.0104   -0.4882  -14.6314 C   0  0  0  0  0  0  0  0  0  0  0  0
   -5.0873    0.4768  -14.1424 N   0  0  0  0  0  0  0  0  0  0  0  0
   -3.9208    0.1344  -13.3758 C   0  0  0  0  0  0  0  0  0  0  0  0
   -3.6597   -1.0037  -13.0098 O   0  0  0  0  0  0  0  0  0  0  0  0
   -5.2557    1.4267  -14.3388 H   0  0  0  0  0  0  0  0  0  0  0  0
   -3.0906    1.2511  -13.0888 O   0  0  0  0  0  0  0  0  0  0  0  0
   -2.3725    1.3003  -11.8989 C   0  0  0  0  0  0  0  0  0  0  0  0
   -1.0883    1.9471  -12.2119 C   0  0  0  0  0  0  0  0  0  0  0  0
   -1.3732    3.2298  -12.2013 O   0  0  0  0  0  0  0  0  0  0  0  0
   -2.4669    3.4176  -11.0726 C   0  0  0  0  0  0  0  0  0  0  0  0
   -3.5149    4.3000  -11.7093 O   0  0  0  0  0  0  0  0  0  0  0  0
   -4.7662    3.4821  -11.7794 C   0  0  0  0  0  0  0  0  0  0  0  0
   -4.5654    2.4756  -11.0131 C   0  0  0  0  0  0  0  0  0  0  0  0
   -2.9770    2.2902  -10.8547 C   0  0  0  0  0  0  0  0  0  0  0  0
   -7.3287    0.2605  -14.8081 C   0  0  0  0  0  0  0  0  0  0  0  0
   -7.9667    1.7564  -12.9973 C   0  0  0  0  0  0  0  0  0  0  0  0
   -8.4772    2.1053  -11.7415 C   0  0  0  0  0  0  0  0  0  0  0  0
   -8.9620    1.1174  -10.8951 C   0  0  0  0  0  0  0  0  0  0  0  0
   -8.9389   -0.2128  -11.3021 C   0  0  0  0  0  0  0  0  0  0  0  0
   -8.4274   -0.5635  -12.5528 C   0  0  0  0  0  0  0  0  0  0  0  0
   -7.9439    0.4249  -13.4025 C   0  0  0  0  0  0  0  0  0  0  0  0
  9 10  1  0  0  0
 10 11  2  0  0  0
 10 15  1  0  0  0
 11 12  1  0  0  0
 12 13  2  0  0  0
 13 14  1  0  0  0
 13  6  1  0  0  0
 14 15  2  0  0  0
  6  7  2  0  0  0
  6  8  2  0  0  0
  6  5  1  0  0  0
  5 18  1  0  0  0
  5  4  1  0  0  0
 18 19  1  0  0  0
 19 20  1  0  0  0
 19 21  1  0  0  0
  4  1  1  0  0  0
  1  2  1  0  0  0
  1 22  1  0  0  0
 22 23  1  0  0  0
 22 36  1  0  0  0
 23 24  1  0  0  0
 24 25  2  0  0  0
 24 27  1  0  0  0
 27 28  1  0  0  0
 28 29  1  0  0  0
 28 35  1  0  0  0
 29 30  1  0  0  0
 30 31  1  0  0  0
 31 32  1  0  0  0
 31 35  1  0  0  0
 32 33  1  0  0  0
 33 34  1  0  0  0
 34 35  1  0  0  0
 36 42  1  0  0  0
 37 38  2  0  0  0
 37 42  1  0  0  0
 38 39  1  0  0  0
 39 40  2  0  0  0
 40 41  1  0  0  0
 41 42  2  0  0  0
  9 16  1  0  0  0
  9 17  1  0  0  0
  2  3  1  0  0  0
 23 26  1  0  0  0
M  END
> <minimizedAffinity>
-9.63058

$$$$
5KR1_017_B_101


 42 45  0  0  0  0  0  0  0  0999 V2000
   -3.9817    0.4745  -13.6741 C   0  0  0  0  0  0  0  0  0  0  0  0
   -2.7194   -0.0922  -13.8314 O   0  0  0  0  0  0  0  0  0  0  0  0
   -2.6650   -0.9097  -13.3122 H   0  0  0  0  0  0  0  0  0  0  0  0
   -4.2102    0.8564  -12.2111 C   0  0  0  0  0  0  0  0  0  0  0  0
   -3.9660    2.3062  -12.0030 N   0  0  0  0  0  0  0  0  0  0  0  0
   -5.1928    3.1633  -11.2330 S   0  0  0  0  0  0  0  0  0  0  0  0
   -5.2933    4.4580  -11.8249 O   0  0  0  0  0  0  0  0  0  0  0  0
   -4.8627    3.2727   -9.8506 O   0  0  0  0  0  0  0  0  0  0  0  0
  -10.3919    0.2545  -12.0062 N   0  0  0  0  0  0  0  0  0  0  0  0
   -9.1448    0.9238  -11.7756 C   0  0  0  0  0  0  0  0  0  0  0  0
   -8.6859    1.8037  -12.7399 C   0  0  0  0  0  0  0  0  0  0  0  0
   -7.4809    2.4639  -12.5494 C   0  0  0  0  0  0  0  0  0  0  0  0
   -6.7386    2.2368  -11.4006 C   0  0  0  0  0  0  0  0  0  0  0  0
   -7.1873    1.3577  -10.4240 C   0  0  0  0  0  0  0  0  0  0  0  0
   -8.4096    0.6940  -10.6199 C   0  0  0  0  0  0  0  0  0  0  0  0
  -10.8994    0.4298  -12.8313 H   0  0  0  0  0  0  0  0  0  0  0  0
  -10.7405   -0.3803  -11.3393 H   0  0  0  0  0  0  0  0  0  0  0  0
   -2.6014    2.8191  -11.8278 C   0  0  0  0  0  0  0  0  0  0  0  0
   -1.6400    1.8460  -11.0937 C   0  0  0  0  0  0  0  0  0  0  0  0
   -0.4234    1.5816  -11.9695 C   0  0  0  0  0  0  0  0  0  0  0  0
   -1.2071    2.4844   -9.7936 C   0  0  0  0  0  0  0  0  0  0  0  0
   -5.0410   -0.4862  -14.2053 C   0  0  0  0  0  0  0  0  0  0  0  0
   -4.3400   -1.5605  -14.8192 N   0  0  0  0  0  0  0  0  0  0  0  0
   -4.4065   -1.8432  -16.2267 C   0  0  0  0  0  0  0  0  0  0  0  0
   -5.1291   -1.2376  -17.0068 O   0  0  0  0  0  0  0  0  0  0  0  0
   -3.7813   -2.1393  -14.2517 H   0  0  0  0  0  0  0  0  0  0  0  0
   -3.5407   -2.8954  -16.6290 O   0  0  0  0  0  0  0  0  0  0  0  0
   -3.9899   -4.2115  -16.6208 C   0  0  0  0  0  0  0  0  0  0  0  0
   -3.6145   -4.7896  -17.9210 C   0  0  0  0  0  0  0  0  0  0  0  0
   -2.3529   -5.1212  -17.7634 O   0  0  0  0  0  0  0  0  0  0  0  0
   -2.2166   -5.5892  -16.2575 C   0  0  0  0  0  0  0  0  0  0  0  0
   -0.9683   -4.8978  -15.7616 O   0  0  0  0  0  0  0  0  0  0  0  0
   -1.4078   -3.9644  -14.6776 C   0  0  0  0  0  0  0  0  0  0  0  0
   -2.6011   -4.3199  -14.3772 C   0  0  0  0  0  0  0  0  0  0  0  0
   -3.2021   -5.1255  -15.6310 C   0  0  0  0  0  0  0  0  0  0  0  0
   -5.9187   -1.1298  -13.1351 C   0  0  0  0  0  0  0  0  0  0  0  0
   -7.6099   -2.1434  -14.5620 C   0  0  0  0  0  0  0  0  0  0  0  0
   -8.2921   -3.1855  -15.2010 C   0  0  0  0  0  0  0  0  0  0  0  0
   -7.8705   -4.4964  -15.0246 C   0  0  0  0  0  0  0  0  0  0  0  0
   -6.7711   -4.7651  -14.2153 C   0  0  0  0  0  0  0  0  0  0  0  0
   -6.0911   -3.7278  -13.5747 C   0  0  0  0  0  0  0  0  0  0  0  0
   -6.5105   -2.4144  -13.7523 C   0  0  0  0  0  0  0  0  0  0  0  0
  9 10  1  0  0  0
 10 11  2  0  0  0
 10 15  1  0  0  0
 11 12  1  0  0  0
 12 13  2  0  0  0
 13 14  1  0  0  0
 13  6  1  0  0  0
 14 15  2  0  0  0
  6  7  2  0  0  0
  6  8  2  0  0  0
  6  5  1  0  0  0
  5 18  1  0  0  0
  5  4  1  0  0  0
 18 19  1  0  0  0
 19 20  1  0  0  0
 19 21  1  0  0  0
  4  1  1  0  0  0
  1  2  1  0  0  0
  1 22  1  0  0  0
 22 23  1  0  0  0
 22 36  1  0  0  0
 23 24  1  0  0  0
 24 25  2  0  0  0
 24 27  1  0  0  0
 27 28  1  0  0  0
 28 29  1  0  0  0
 28 35  1  0  0  0
 29 30  1  0  0  0
 30 31  1  0  0  0
 31 32  1  0  0  0
 31 35  1  0  0  0
 32 33  1  0  0  0
 33 34  1  0  0  0
 34 35  1  0  0  0
 36 42  1  0  0  0
 37 38  2  0  0  0
 37 42  1  0  0  0
 38 39  1  0  0  0
 39 40  2  0  0  0
 40 41  1  0  0  0
 41 42  2  0  0  0
  9 16  1  0  0  0
  9 17  1  0  0  0
  2  3  1  0  0  0
 23 26  1  0  0  0
M  END
> <minimizedAffinity>
-9.62008

$$$$
5KR1_017_B_101


 42 45  0  0  0  0  0  0  0  0999 V2000
   -5.9560   -3.1893  -16.3325 C   0  0  0  0  0  0  0  0  0  0  0  0
   -6.7724   -2.3695  -17.1077 O   0  0  0  0  0  0  0  0  0  0  0  0
   -7.6382   -2.7915  -17.2230 H   0  0  0  0  0  0  0  0  0  0  0  0
   -5.7149   -4.5203  -17.0457 C   0  0  0  0  0  0  0  0  0  0  0  0
   -4.2982   -4.9420  -16.9048 N   0  0  0  0  0  0  0  0  0  0  0  0
   -3.8248   -6.2731  -17.8195 S   0  0  0  0  0  0  0  0  0  0  0  0
   -3.2945   -7.2689  -16.9456 O   0  0  0  0  0  0  0  0  0  0  0  0
   -2.8313   -5.8470  -18.7489 O   0  0  0  0  0  0  0  0  0  0  0  0
   -8.5074   -8.1722  -21.0685 N   0  0  0  0  0  0  0  0  0  0  0  0
   -7.4129   -7.7382  -20.2498 C   0  0  0  0  0  0  0  0  0  0  0  0
   -6.3477   -7.1031  -20.8636 C   0  0  0  0  0  0  0  0  0  0  0  0
   -5.2713   -6.6750  -20.1005 C   0  0  0  0  0  0  0  0  0  0  0  0
   -5.2620   -6.8892  -18.7308 C   0  0  0  0  0  0  0  0  0  0  0  0
   -6.3245   -7.5240  -18.1012 C   0  0  0  0  0  0  0  0  0  0  0  0
   -7.4137   -7.9527  -18.8776 C   0  0  0  0  0  0  0  0  0  0  0  0
   -8.4896   -8.0115  -22.0396 H   0  0  0  0  0  0  0  0  0  0  0  0
   -9.2765   -8.6307  -20.6594 H   0  0  0  0  0  0  0  0  0  0  0  0
   -3.2521   -3.9618  -16.5876 C   0  0  0  0  0  0  0  0  0  0  0  0
   -2.5129   -4.2239  -15.2477 C   0  0  0  0  0  0  0  0  0  0  0  0
   -1.1069   -4.7302  -15.5374 C   0  0  0  0  0  0  0  0  0  0  0  0
   -2.4419   -2.9273  -14.4739 C   0  0  0  0  0  0  0  0  0  0  0  0
   -6.5765   -3.3649  -14.9500 C   0  0  0  0  0  0  0  0  0  0  0  0
   -6.1272   -2.2683  -14.1638 N   0  0  0  0  0  0  0  0  0  0  0  0
   -5.4748   -2.4245  -12.8928 C   0  0  0  0  0  0  0  0  0  0  0  0
   -5.3180   -3.5042  -12.3389 O   0  0  0  0  0  0  0  0  0  0  0  0
   -6.2702   -1.3569  -14.5074 H   0  0  0  0  0  0  0  0  0  0  0  0
   -5.0194   -1.1967  -12.3416 O   0  0  0  0  0  0  0  0  0  0  0  0
   -5.5785    0.0064  -12.7585 C   0  0  0  0  0  0  0  0  0  0  0  0
   -6.3706    0.5139  -11.6269 C   0  0  0  0  0  0  0  0  0  0  0  0
   -5.4780    1.0897  -10.8534 O   0  0  0  0  0  0  0  0  0  0  0  0
   -4.4053    1.7206  -11.8314 C   0  0  0  0  0  0  0  0  0  0  0  0
   -3.0751    1.3272  -11.2329 O   0  0  0  0  0  0  0  0  0  0  0  0
   -2.4093    0.4392  -12.2368 C   0  0  0  0  0  0  0  0  0  0  0  0
   -3.0667    0.5929  -13.3251 C   0  0  0  0  0  0  0  0  0  0  0  0
   -4.5265    1.1445  -12.9415 C   0  0  0  0  0  0  0  0  0  0  0  0
   -8.1008   -3.2940  -14.9166 C   0  0  0  0  0  0  0  0  0  0  0  0
   -9.6033   -4.5079  -16.3974 C   0  0  0  0  0  0  0  0  0  0  0  0
  -10.2106   -5.6332  -16.9670 C   0  0  0  0  0  0  0  0  0  0  0  0
   -9.8356   -6.9038  -16.5518 C   0  0  0  0  0  0  0  0  0  0  0  0
   -8.8571   -7.0498  -15.5736 C   0  0  0  0  0  0  0  0  0  0  0  0
   -8.2524   -5.9288  -15.0019 C   0  0  0  0  0  0  0  0  0  0  0  0
   -8.6250   -4.6560  -15.4184 C   0  0  0  0  0  0  0  0  0  0  0  0
  9 10  1  0  0  0
 10 11  2  0  0  0
 10 15  1  0  0  0
 11 12  1  0  0  0
 12 13  2  0  0  0
 13 14  1  0  0  0
 13  6  1  0  0  0
 14 15  2  0  0  0
  6  7  2  0  0  0
  6  8  2  0  0  0
  6  5  1  0  0  0
  5 18  1  0  0  0
  5  4  1  0  0  0
 18 19  1  0  0  0
 19 20  1  0  0  0
 19 21  1  0  0  0
  4  1  1  0  0  0
  1  2  1  0  0  0
  1 22  1  0  0  0
 22 23  1  0  0  0
 22 36  1  0  0  0
 23 24  1  0  0  0
 24 25  2  0  0  0
 24 27  1  0  0  0
 27 28  1  0  0  0
 28 29  1  0  0  0
 28 35  1  0  0  0
 29 30  1  0  0  0
 30 31  1  0  0  0
 31 32  1  0  0  0
 31 35  1  0  0  0
 32 33  1  0  0  0
 33 34  1  0  0  0
 34 35  1  0  0  0
 36 42  1  0  0  0
 37 38  2  0  0  0
 37 42  1  0  0  0
 38 39  1  0  0  0
 39 40  2  0  0  0
 40 41  1  0  0  0
 41 42  2  0  0  0
  9 16  1  0  0  0
  9 17  1  0  0  0
  2  3  1  0  0  0
 23 26  1  0  0  0
M  END
> <minimizedAffinity>
-9.04830

$$$$
5KR1_017_B_101


 42 45  0  0  0  0  0  0  0  0999 V2000
   -7.2510   -2.0051  -15.4124 C   0  0  0  0  0  0  0  0  0  0  0  0
   -6.8726   -0.7561  -15.8984 O   0  0  0  0  0  0  0  0  0  0  0  0
   -6.0766   -0.4555  -15.4326 H   0  0  0  0  0  0  0  0  0  0  0  0
   -7.6093   -1.9079  -13.9290 C   0  0  0  0  0  0  0  0  0  0  0  0
   -6.9023   -0.7680  -13.2920 N   0  0  0  0  0  0  0  0  0  0  0  0
   -7.8336    0.5956  -12.9667 S   0  0  0  0  0  0  0  0  0  0  0  0
   -9.1888    0.1933  -12.7712 O   0  0  0  0  0  0  0  0  0  0  0  0
   -7.7334    1.4818  -14.0788 O   0  0  0  0  0  0  0  0  0  0  0  0
   -5.4279    3.4336   -8.2500 N   0  0  0  0  0  0  0  0  0  0  0  0
   -6.0305    2.7267   -9.3425 C   0  0  0  0  0  0  0  0  0  0  0  0
   -5.6754    3.0866  -10.6306 C   0  0  0  0  0  0  0  0  0  0  0  0
   -6.2436    2.4255  -11.7096 C   0  0  0  0  0  0  0  0  0  0  0  0
   -7.1671    1.4138  -11.4962 C   0  0  0  0  0  0  0  0  0  0  0  0
   -7.5319    1.0411  -10.2093 C   0  0  0  0  0  0  0  0  0  0  0  0
   -6.9515    1.7113   -9.1198 C   0  0  0  0  0  0  0  0  0  0  0  0
   -4.7770    4.1507   -8.4269 H   0  0  0  0  0  0  0  0  0  0  0  0
   -5.6652    3.2018   -7.3230 H   0  0  0  0  0  0  0  0  0  0  0  0
   -5.7504   -0.9979  -12.4110 C   0  0  0  0  0  0  0  0  0  0  0  0
   -4.3708   -0.8402  -13.1052 C   0  0  0  0  0  0  0  0  0  0  0  0
   -4.4449    0.2869  -14.1256 C   0  0  0  0  0  0  0  0  0  0  0  0
   -3.3357   -0.5127  -12.0533 C   0  0  0  0  0  0  0  0  0  0  0  0
   -6.1413   -3.0155  -15.6861 C   0  0  0  0  0  0  0  0  0  0  0  0
   -6.7270   -4.0602  -16.4529 N   0  0  0  0  0  0  0  0  0  0  0  0
   -7.2681   -5.2575  -15.8706 C   0  0  0  0  0  0  0  0  0  0  0  0
   -7.2038   -5.5204  -14.6772 O   0  0  0  0  0  0  0  0  0  0  0  0
   -6.7635   -3.9582  -17.4314 H   0  0  0  0  0  0  0  0  0  0  0  0
   -7.8960   -6.1085  -16.8194 O   0  0  0  0  0  0  0  0  0  0  0  0
   -9.0279   -6.8346  -16.4654 C   0  0  0  0  0  0  0  0  0  0  0  0
  -10.1733   -5.9228  -16.6141 C   0  0  0  0  0  0  0  0  0  0  0  0
  -10.4379   -5.9601  -17.9006 O   0  0  0  0  0  0  0  0  0  0  0  0
  -10.1307   -7.4435  -18.3595 C   0  0  0  0  0  0  0  0  0  0  0  0
   -9.3357   -7.2845  -19.6343 O   0  0  0  0  0  0  0  0  0  0  0  0
   -7.9801   -7.8550  -19.3576 C   0  0  0  0  0  0  0  0  0  0  0  0
   -8.1007   -8.5234  -18.2717 C   0  0  0  0  0  0  0  0  0  0  0  0
   -9.3849   -7.9576  -17.4887 C   0  0  0  0  0  0  0  0  0  0  0  0
   -4.9857   -2.4868  -16.5315 C   0  0  0  0  0  0  0  0  0  0  0  0
   -3.1744   -3.9715  -17.1939 C   0  0  0  0  0  0  0  0  0  0  0  0
   -2.0329   -4.7617  -17.0144 C   0  0  0  0  0  0  0  0  0  0  0  0
   -1.4510   -4.8577  -15.7576 C   0  0  0  0  0  0  0  0  0  0  0  0
   -2.0054   -4.1659  -14.6854 C   0  0  0  0  0  0  0  0  0  0  0  0
   -3.1456   -3.3798  -14.8614 C   0  0  0  0  0  0  0  0  0  0  0  0
   -3.7280   -3.2806  -16.1197 C   0  0  0  0  0  0  0  0  0  0  0  0
  9 10  1  0  0  0
 10 11  2  0  0  0
 10 15  1  0  0  0
 11 12  1  0  0  0
 12 13  2  0  0  0
 13 14  1  0  0  0
 13  6  1  0  0  0
 14 15  2  0  0  0
  6  7  2  0  0  0
  6  8  2  0  0  0
  6  5  1  0  0  0
  5 18  1  0  0  0
  5  4  1  0  0  0
 18 19  1  0  0  0
 19 20  1  0  0  0
 19 21  1  0  0  0
  4  1  1  0  0  0
  1  2  1  0  0  0
  1 22  1  0  0  0
 22 23  1  0  0  0
 22 36  1  0  0  0
 23 24  1  0  0  0
 24 25  2  0  0  0
 24 27  1  0  0  0
 27 28  1  0  0  0
 28 29  1  0  0  0
 28 35  1  0  0  0
 29 30  1  0  0  0
 30 31  1  0  0  0
 31 32  1  0  0  0
 31 35  1  0  0  0
 32 33  1  0  0  0
 33 34  1  0  0  0
 34 35  1  0  0  0
 36 42  1  0  0  0
 37 38  2  0  0  0
 37 42  1  0  0  0
 38 39  1  0  0  0
 39 40  2  0  0  0
 40 41  1  0  0  0
 41 42  2  0  0  0
  9 16  1  0  0  0
  9 17  1  0  0  0
  2  3  1  0  0  0
 23 26  1  0  0  0
M  END
> <minimizedAffinity>
-8.93113

$$$$
5KR1_017_B_101


 42 45  0  0  0  0  0  0  0  0999 V2000
   -6.4943   -2.0441  -13.6724 C   0  0  0  0  0  0  0  0  0  0  0  0
   -7.8673   -2.2274  -13.8169 O   0  0  0  0  0  0  0  0  0  0  0  0
   -8.1333   -1.9813  -14.7167 H   0  0  0  0  0  0  0  0  0  0  0  0
   -6.1363   -0.5691  -13.8582 C   0  0  0  0  0  0  0  0  0  0  0  0
   -5.3816   -0.0604  -12.6849 N   0  0  0  0  0  0  0  0  0  0  0  0
   -3.7544    0.2847  -12.9410 S   0  0  0  0  0  0  0  0  0  0  0  0
   -3.5489    0.5368  -14.3305 O   0  0  0  0  0  0  0  0  0  0  0  0
   -2.9868   -0.8406  -12.5208 O   0  0  0  0  0  0  0  0  0  0  0  0
   -2.0725    4.8808   -9.4572 N   0  0  0  0  0  0  0  0  0  0  0  0
   -2.5139    3.8131  -10.3067 C   0  0  0  0  0  0  0  0  0  0  0  0
   -1.7877    2.6352  -10.3090 C   0  0  0  0  0  0  0  0  0  0  0  0
   -2.1856    1.5848  -11.1228 C   0  0  0  0  0  0  0  0  0  0  0  0
   -3.3020    1.7189  -11.9339 C   0  0  0  0  0  0  0  0  0  0  0  0
   -4.0410    2.8944  -11.9410 C   0  0  0  0  0  0  0  0  0  0  0  0
   -3.6361    3.9542  -11.1128 C   0  0  0  0  0  0  0  0  0  0  0  0
   -1.2747    4.7628   -8.8926 H   0  0  0  0  0  0  0  0  0  0  0  0
   -2.5673    5.7317   -9.4387 H   0  0  0  0  0  0  0  0  0  0  0  0
   -6.0575    0.7162  -11.6380 C   0  0  0  0  0  0  0  0  0  0  0  0
   -7.5616    0.9872  -11.9108 C   0  0  0  0  0  0  0  0  0  0  0  0
   -8.4050    0.1883  -10.9271 C   0  0  0  0  0  0  0  0  0  0  0  0
   -7.8262    2.4646  -11.7315 C   0  0  0  0  0  0  0  0  0  0  0  0
   -5.7535   -2.9578  -14.6437 C   0  0  0  0  0  0  0  0  0  0  0  0
   -6.7432   -3.5483  -15.4768 N   0  0  0  0  0  0  0  0  0  0  0  0
   -6.7359   -4.9370  -15.8469 C   0  0  0  0  0  0  0  0  0  0  0  0
   -5.8407   -5.7147  -15.5453 O   0  0  0  0  0  0  0  0  0  0  0  0
   -7.4696   -2.9774  -15.8170 H   0  0  0  0  0  0  0  0  0  0  0  0
   -7.8801   -5.3241  -16.5951 O   0  0  0  0  0  0  0  0  0  0  0  0
   -8.9939   -5.8476  -15.9477 C   0  0  0  0  0  0  0  0  0  0  0  0
  -10.1153   -4.9430  -16.2472 C   0  0  0  0  0  0  0  0  0  0  0  0
  -10.5141   -5.3233  -17.4400 O   0  0  0  0  0  0  0  0  0  0  0  0
  -10.3098   -6.8924  -17.4812 C   0  0  0  0  0  0  0  0  0  0  0  0
   -9.6472   -7.1492  -18.8145 O   0  0  0  0  0  0  0  0  0  0  0  0
   -8.2914   -7.7044  -18.5095 C   0  0  0  0  0  0  0  0  0  0  0  0
   -8.3215   -8.0316  -17.2715 C   0  0  0  0  0  0  0  0  0  0  0  0
   -9.4958   -7.1876  -16.5707 C   0  0  0  0  0  0  0  0  0  0  0  0
   -4.7942   -2.2437  -15.5922 C   0  0  0  0  0  0  0  0  0  0  0  0
   -2.8471   -3.3717  -14.6649 C   0  0  0  0  0  0  0  0  0  0  0  0
   -1.7120   -4.1908  -14.6781 C   0  0  0  0  0  0  0  0  0  0  0  0
   -1.3345   -4.8276  -15.8526 C   0  0  0  0  0  0  0  0  0  0  0  0
   -2.0885   -4.6487  -17.0081 C   0  0  0  0  0  0  0  0  0  0  0  0
   -3.2191   -3.8297  -16.9980 C   0  0  0  0  0  0  0  0  0  0  0  0
   -3.5998   -3.1934  -15.8221 C   0  0  0  0  0  0  0  0  0  0  0  0
  9 10  1  0  0  0
 10 11  2  0  0  0
 10 15  1  0  0  0
 11 12  1  0  0  0
 12 13  2  0  0  0
 13 14  1  0  0  0
 13  6  1  0  0  0
 14 15  2  0  0  0
  6  7  2  0  0  0
  6  8  2  0  0  0
  6  5  1  0  0  0
  5 18  1  0  0  0
  5  4  1  0  0  0
 18 19  1  0  0  0
 19 20  1  0  0  0
 19 21  1  0  0  0
  4  1  1  0  0  0
  1  2  1  0  0  0
  1 22  1  0  0  0
 22 23  1  0  0  0
 22 36  1  0  0  0
 23 24  1  0  0  0
 24 25  2  0  0  0
 24 27  1  0  0  0
 27 28  1  0  0  0
 28 29  1  0  0  0
 28 35  1  0  0  0
 29 30  1  0  0  0
 30 31  1  0  0  0
 31 32  1  0  0  0
 31 35  1  0  0  0
 32 33  1  0  0  0
 33 34  1  0  0  0
 34 35  1  0  0  0
 36 42  1  0  0  0
 37 38  2  0  0  0
 37 42  1  0  0  0
 38 39  1  0  0  0
 39 40  2  0  0  0
 40 41  1  0  0  0
 41 42  2  0  0  0
  9 16  1  0  0  0
  9 17  1  0  0  0
  2  3  1  0  0  0
 23 26  1  0  0  0
M  END
> <minimizedAffinity>
-8.74130

$$$$
5KR1_017_B_101


 42 45  0  0  0  0  0  0  0  0999 V2000
   -6.8095   -3.1843  -14.7627 C   0  0  0  0  0  0  0  0  0  0  0  0
   -7.8057   -2.5831  -13.9975 O   0  0  0  0  0  0  0  0  0  0  0  0
   -7.5867   -2.6690  -13.0565 H   0  0  0  0  0  0  0  0  0  0  0  0
   -6.7371   -4.6802  -14.4539 C   0  0  0  0  0  0  0  0  0  0  0  0
   -7.2099   -5.4788  -15.6130 N   0  0  0  0  0  0  0  0  0  0  0  0
   -8.7128   -6.2170  -15.4431 S   0  0  0  0  0  0  0  0  0  0  0  0
   -9.7257   -5.2119  -15.4615 O   0  0  0  0  0  0  0  0  0  0  0  0
   -8.7296   -6.9174  -14.2016 O   0  0  0  0  0  0  0  0  0  0  0  0
   -9.6575   -9.9979  -20.0149 N   0  0  0  0  0  0  0  0  0  0  0  0
   -9.3982   -9.1303  -18.9030 C   0  0  0  0  0  0  0  0  0  0  0  0
  -10.0422   -7.9061  -18.8636 C   0  0  0  0  0  0  0  0  0  0  0  0
   -9.8096   -7.0416  -17.8040 C   0  0  0  0  0  0  0  0  0  0  0  0
   -8.9311   -7.4018  -16.7938 C   0  0  0  0  0  0  0  0  0  0  0  0
   -8.2789   -8.6274  -16.8194 C   0  0  0  0  0  0  0  0  0  0  0  0
   -8.5201   -9.5008  -17.8927 C   0  0  0  0  0  0  0  0  0  0  0  0
  -10.2832   -9.7186  -20.7218 H   0  0  0  0  0  0  0  0  0  0  0  0
   -9.2099  -10.8730  -20.0713 H   0  0  0  0  0  0  0  0  0  0  0  0
   -6.8048   -5.1284  -16.9801 C   0  0  0  0  0  0  0  0  0  0  0  0
   -5.5328   -5.8646  -17.4804 C   0  0  0  0  0  0  0  0  0  0  0  0
   -5.0158   -6.7827  -16.3818 C   0  0  0  0  0  0  0  0  0  0  0  0
   -5.8951   -6.6790  -18.7013 C   0  0  0  0  0  0  0  0  0  0  0  0
   -5.4835   -2.4683  -14.5257 C   0  0  0  0  0  0  0  0  0  0  0  0
   -5.7736   -1.3422  -13.7070 N   0  0  0  0  0  0  0  0  0  0  0  0
   -5.1876   -0.0461  -13.9126 C   0  0  0  0  0  0  0  0  0  0  0  0
   -4.3322    0.1855  -14.7563 O   0  0  0  0  0  0  0  0  0  0  0  0
   -6.4074   -1.4562  -12.9623 H   0  0  0  0  0  0  0  0  0  0  0  0
   -5.7068    0.9487  -13.0411 O   0  0  0  0  0  0  0  0  0  0  0  0
   -5.9662    0.6444  -11.7092 C   0  0  0  0  0  0  0  0  0  0  0  0
   -5.1298    1.5478  -10.9031 C   0  0  0  0  0  0  0  0  0  0  0  0
   -5.8150    2.6687  -10.8772 O   0  0  0  0  0  0  0  0  0  0  0  0
   -7.3384    2.2402  -10.8461 C   0  0  0  0  0  0  0  0  0  0  0  0
   -7.9991    3.1303  -11.8726 O   0  0  0  0  0  0  0  0  0  0  0  0
   -8.5115    2.2233  -12.9470 C   0  0  0  0  0  0  0  0  0  0  0  0
   -8.4687    1.0424  -12.4530 C   0  0  0  0  0  0  0  0  0  0  0  0
   -7.4013    1.0527  -11.2518 C   0  0  0  0  0  0  0  0  0  0  0  0
   -4.4455   -3.2782  -13.7534 C   0  0  0  0  0  0  0  0  0  0  0  0
   -3.6517   -3.2614  -16.0542 C   0  0  0  0  0  0  0  0  0  0  0  0
   -2.8120   -3.5938  -17.1238 C   0  0  0  0  0  0  0  0  0  0  0  0
   -1.7158   -4.4184  -16.9098 C   0  0  0  0  0  0  0  0  0  0  0  0
   -1.4583   -4.9072  -15.6330 C   0  0  0  0  0  0  0  0  0  0  0  0
   -2.2961   -4.5795  -14.5654 C   0  0  0  0  0  0  0  0  0  0  0  0
   -3.3926   -3.7518  -14.7775 C   0  0  0  0  0  0  0  0  0  0  0  0
  9 10  1  0  0  0
 10 11  2  0  0  0
 10 15  1  0  0  0
 11 12  1  0  0  0
 12 13  2  0  0  0
 13 14  1  0  0  0
 13  6  1  0  0  0
 14 15  2  0  0  0
  6  7  2  0  0  0
  6  8  2  0  0  0
  6  5  1  0  0  0
  5 18  1  0  0  0
  5  4  1  0  0  0
 18 19  1  0  0  0
 19 20  1  0  0  0
 19 21  1  0  0  0
  4  1  1  0  0  0
  1  2  1  0  0  0
  1 22  1  0  0  0
 22 23  1  0  0  0
 22 36  1  0  0  0
 23 24  1  0  0  0
 24 25  2  0  0  0
 24 27  1  0  0  0
 27 28  1  0  0  0
 28 29  1  0  0  0
 28 35  1  0  0  0
 29 30  1  0  0  0
 30 31  1  0  0  0
 31 32  1  0  0  0
 31 35  1  0  0  0
 32 33  1  0  0  0
 33 34  1  0  0  0
 34 35  1  0  0  0
 36 42  1  0  0  0
 37 38  2  0  0  0
 37 42  1  0  0  0
 38 39  1  0  0  0
 39 40  2  0  0  0
 40 41  1  0  0  0
 41 42  2  0  0  0
  9 16  1  0  0  0
  9 17  1  0  0  0
  2  3  1  0  0  0
 23 26  1  0  0  0
M  END
> <minimizedAffinity>
-8.72200

$$$$
5KR1_017_B_101


 42 45  0  0  0  0  0  0  0  0999 V2000
   -5.8818   -3.1699  -15.7519 C   0  0  0  0  0  0  0  0  0  0  0  0
   -6.1593   -2.7528  -17.0513 O   0  0  0  0  0  0  0  0  0  0  0  0
   -6.7055   -3.4202  -17.4954 H   0  0  0  0  0  0  0  0  0  0  0  0
   -5.0734   -4.4676  -15.7754 C   0  0  0  0  0  0  0  0  0  0  0  0
   -3.6501   -4.1936  -16.0981 N   0  0  0  0  0  0  0  0  0  0  0  0
   -2.6668   -3.7528  -14.8054 S   0  0  0  0  0  0  0  0  0  0  0  0
   -1.3133   -3.6931  -15.2541 O   0  0  0  0  0  0  0  0  0  0  0  0
   -2.8082   -4.7338  -13.7808 O   0  0  0  0  0  0  0  0  0  0  0  0
   -4.6403    1.4265  -12.4884 N   0  0  0  0  0  0  0  0  0  0  0  0
   -4.1571    0.2158  -13.0860 C   0  0  0  0  0  0  0  0  0  0  0  0
   -4.1897   -0.9445  -12.3327 C   0  0  0  0  0  0  0  0  0  0  0  0
   -3.7255   -2.1317  -12.8798 C   0  0  0  0  0  0  0  0  0  0  0  0
   -3.2259   -2.1519  -14.1729 C   0  0  0  0  0  0  0  0  0  0  0  0
   -3.1883   -0.9956  -14.9409 C   0  0  0  0  0  0  0  0  0  0  0  0
   -3.6625    0.2034  -14.3837 C   0  0  0  0  0  0  0  0  0  0  0  0
   -4.9873    1.4164  -11.5672 H   0  0  0  0  0  0  0  0  0  0  0  0
   -4.6249    2.2679  -12.9994 H   0  0  0  0  0  0  0  0  0  0  0  0
   -2.9902   -4.8766  -17.2179 C   0  0  0  0  0  0  0  0  0  0  0  0
   -3.7810   -6.0851  -17.7875 C   0  0  0  0  0  0  0  0  0  0  0  0
   -3.3832   -6.3096  -19.2395 C   0  0  0  0  0  0  0  0  0  0  0  0
   -3.4458   -7.3105  -16.9684 C   0  0  0  0  0  0  0  0  0  0  0  0
   -7.1850   -3.3008  -14.9698 C   0  0  0  0  0  0  0  0  0  0  0  0
   -7.2202   -2.2096  -14.0587 N   0  0  0  0  0  0  0  0  0  0  0  0
   -7.3885   -0.8431  -14.4713 C   0  0  0  0  0  0  0  0  0  0  0  0
   -7.4376   -0.4891  -15.6415 O   0  0  0  0  0  0  0  0  0  0  0  0
   -7.1246   -2.3995  -13.0974 H   0  0  0  0  0  0  0  0  0  0  0  0
   -7.5008    0.0619  -13.3818 O   0  0  0  0  0  0  0  0  0  0  0  0
   -8.6705    0.1098  -12.6311 C   0  0  0  0  0  0  0  0  0  0  0  0
   -8.4008   -0.6314  -11.3887 C   0  0  0  0  0  0  0  0  0  0  0  0
   -7.7708    0.2409  -10.6345 O   0  0  0  0  0  0  0  0  0  0  0  0
   -8.4153    1.6463  -10.9732 C   0  0  0  0  0  0  0  0  0  0  0  0
   -7.2321    2.5703  -11.1424 O   0  0  0  0  0  0  0  0  0  0  0  0
   -7.2547    3.0245  -12.5682 C   0  0  0  0  0  0  0  0  0  0  0  0
   -8.4138    2.7102  -13.0135 C   0  0  0  0  0  0  0  0  0  0  0  0
   -8.9934    1.5350  -12.0833 C   0  0  0  0  0  0  0  0  0  0  0  0
   -8.4533   -3.1731  -15.8094 C   0  0  0  0  0  0  0  0  0  0  0  0
  -10.0630   -4.6111  -16.9340 C   0  0  0  0  0  0  0  0  0  0  0  0
  -10.6335   -5.8212  -17.3461 C   0  0  0  0  0  0  0  0  0  0  0  0
  -10.0383   -7.0225  -16.9857 C   0  0  0  0  0  0  0  0  0  0  0  0
   -8.8774   -7.0152  -16.2189 C   0  0  0  0  0  0  0  0  0  0  0  0
   -8.3085   -5.8097  -15.8042 C   0  0  0  0  0  0  0  0  0  0  0  0
   -8.9018   -4.6059  -16.1664 C   0  0  0  0  0  0  0  0  0  0  0  0
  9 10  1  0  0  0
 10 11  2  0  0  0
 10 15  1  0  0  0
 11 12  1  0  0  0
 12 13  2  0  0  0
 13 14  1  0  0  0
 13  6  1  0  0  0
 14 15  2  0  0  0
  6  7  2  0  0  0
  6  8  2  0  0  0
  6  5  1  0  0  0
  5 18  1  0  0  0
  5  4  1  0  0  0
 18 19  1  0  0  0
 19 20  1  0  0  0
 19 21  1  0  0  0
  4  1  1  0  0  0
  1  2  1  0  0  0
  1 22  1  0  0  0
 22 23  1  0  0  0
 22 36  1  0  0  0
 23 24  1  0  0  0
 24 25  2  0  0  0
 24 27  1  0  0  0
 27 28  1  0  0  0
 28 29  1  0  0  0
 28 35  1  0  0  0
 29 30  1  0  0  0
 30 31  1  0  0  0
 31 32  1  0  0  0
 31 35  1  0  0  0
 32 33  1  0  0  0
 33 34  1  0  0  0
 34 35  1  0  0  0
 36 42  1  0  0  0
 37 38  2  0  0  0
 37 42  1  0  0  0
 38 39  1  0  0  0
 39 40  2  0  0  0
 40 41  1  0  0  0
 41 42  2  0  0  0
  9 16  1  0  0  0
  9 17  1  0  0  0
  2  3  1  0  0  0
 23 26  1  0  0  0
M  END
> <minimizedAffinity>
-8.62754

$$$$
5KR1_017_B_101


 42 45  0  0  0  0  0  0  0  0999 V2000
   -4.5801   -2.1745  -15.2000 C   0  0  0  0  0  0  0  0  0  0  0  0
   -3.5583   -1.3824  -15.7176 O   0  0  0  0  0  0  0  0  0  0  0  0
   -3.9409   -0.6731  -16.2574 H   0  0  0  0  0  0  0  0  0  0  0  0
   -5.3558   -2.8436  -16.3353 C   0  0  0  0  0  0  0  0  0  0  0  0
   -5.6054   -4.2748  -16.0280 N   0  0  0  0  0  0  0  0  0  0  0  0
   -4.5519   -5.3810  -16.7344 S   0  0  0  0  0  0  0  0  0  0  0  0
   -3.9985   -6.2091  -15.7124 O   0  0  0  0  0  0  0  0  0  0  0  0
   -3.5207   -4.6552  -17.3992 O   0  0  0  0  0  0  0  0  0  0  0  0
   -7.4017   -8.5476  -20.9700 N   0  0  0  0  0  0  0  0  0  0  0  0
   -6.7636   -7.7974  -19.9277 C   0  0  0  0  0  0  0  0  0  0  0  0
   -5.4805   -7.3291  -20.1495 C   0  0  0  0  0  0  0  0  0  0  0  0
   -4.8335   -6.6039  -19.1597 C   0  0  0  0  0  0  0  0  0  0  0  0
   -5.4689   -6.3561  -17.9527 C   0  0  0  0  0  0  0  0  0  0  0  0
   -6.7567   -6.8186  -17.7167 C   0  0  0  0  0  0  0  0  0  0  0  0
   -7.4090   -7.5497  -18.7231 C   0  0  0  0  0  0  0  0  0  0  0  0
   -6.9289   -8.7134  -21.8174 H   0  0  0  0  0  0  0  0  0  0  0  0
   -8.3127   -8.8969  -20.8381 H   0  0  0  0  0  0  0  0  0  0  0  0
   -6.2112   -4.6729  -14.7512 C   0  0  0  0  0  0  0  0  0  0  0  0
   -7.7624   -4.6121  -14.7309 C   0  0  0  0  0  0  0  0  0  0  0  0
   -8.2558   -3.8923  -15.9781 C   0  0  0  0  0  0  0  0  0  0  0  0
   -8.3006   -6.0244  -14.7069 C   0  0  0  0  0  0  0  0  0  0  0  0
   -5.4709   -1.3292  -14.2950 C   0  0  0  0  0  0  0  0  0  0  0  0
   -4.6310   -0.3418  -13.7103 N   0  0  0  0  0  0  0  0  0  0  0  0
   -3.8692   -0.5639  -12.5120 C   0  0  0  0  0  0  0  0  0  0  0  0
   -3.9344   -1.5890  -11.8471 O   0  0  0  0  0  0  0  0  0  0  0  0
   -4.5682    0.5378  -14.1481 H   0  0  0  0  0  0  0  0  0  0  0  0
   -3.0217    0.5258  -12.1761 O   0  0  0  0  0  0  0  0  0  0  0  0
   -3.4033    1.8277  -12.4817 C   0  0  0  0  0  0  0  0  0  0  0  0
   -4.5148    2.1611  -11.5769 C   0  0  0  0  0  0  0  0  0  0  0  0
   -3.9161    2.5004  -10.4575 O   0  0  0  0  0  0  0  0  0  0  0  0
   -2.5778    3.2268  -10.8893 C   0  0  0  0  0  0  0  0  0  0  0  0
   -1.5180    2.6196  -10.0002 O   0  0  0  0  0  0  0  0  0  0  0  0
   -0.5711    1.8989  -10.9077 C   0  0  0  0  0  0  0  0  0  0  0  0
   -0.8379    2.3164  -12.0888 C   0  0  0  0  0  0  0  0  0  0  0  0
   -2.3376    2.8935  -12.0768 C   0  0  0  0  0  0  0  0  0  0  0  0
   -6.5698   -0.5547  -15.0178 C   0  0  0  0  0  0  0  0  0  0  0  0
   -8.0470   -0.9321  -13.1206 C   0  0  0  0  0  0  0  0  0  0  0  0
   -8.9176   -0.5793  -12.0828 C   0  0  0  0  0  0  0  0  0  0  0  0
   -9.2211    0.7572  -11.8613 C   0  0  0  0  0  0  0  0  0  0  0  0
   -8.6561    1.7370  -12.6715 C   0  0  0  0  0  0  0  0  0  0  0  0
   -7.7900    1.3872  -13.7091 C   0  0  0  0  0  0  0  0  0  0  0  0
   -7.4831    0.0495  -13.9305 C   0  0  0  0  0  0  0  0  0  0  0  0
  9 10  1  0  0  0
 10 11  2  0  0  0
 10 15  1  0  0  0
 11 12  1  0  0  0
 12 13  2  0  0  0
 13 14  1  0  0  0
 13  6  1  0  0  0
 14 15  2  0  0  0
  6  7  2  0  0  0
  6  8  2  0  0  0
  6  5  1  0  0  0
  5 18  1  0  0  0
  5  4  1  0  0  0
 18 19  1  0  0  0
 19 20  1  0  0  0
 19 21  1  0  0  0
  4  1  1  0  0  0
  1  2  1  0  0  0
  1 22  1  0  0  0
 22 23  1  0  0  0
 22 36  1  0  0  0
 23 24  1  0  0  0
 24 25  2  0  0  0
 24 27  1  0  0  0
 27 28  1  0  0  0
 28 29  1  0  0  0
 28 35  1  0  0  0
 29 30  1  0  0  0
 30 31  1  0  0  0
 31 32  1  0  0  0
 31 35  1  0  0  0
 32 33  1  0  0  0
 33 34  1  0  0  0
 34 35  1  0  0  0
 36 42  1  0  0  0
 37 38  2  0  0  0
 37 42  1  0  0  0
 38 39  1  0  0  0
 39 40  2  0  0  0
 40 41  1  0  0  0
 41 42  2  0  0  0
  9 16  1  0  0  0
  9 17  1  0  0  0
  2  3  1  0  0  0
 23 26  1  0  0  0
M  END
> <minimizedAffinity>
-8.40258

$$$$
5KR1_017_B_101


 42 45  0  0  0  0  0  0  0  0999 V2000
   -6.1171   -4.1080  -15.1719 C   0  0  0  0  0  0  0  0  0  0  0  0
   -6.6573   -4.0421  -13.8900 O   0  0  0  0  0  0  0  0  0  0  0  0
   -7.5050   -3.5717  -13.9201 H   0  0  0  0  0  0  0  0  0  0  0  0
   -5.8306   -2.7008  -15.6969 C   0  0  0  0  0  0  0  0  0  0  0  0
   -4.4875   -2.2414  -15.2609 N   0  0  0  0  0  0  0  0  0  0  0  0
   -4.4103   -0.6976  -14.5952 S   0  0  0  0  0  0  0  0  0  0  0  0
   -4.1069    0.2370  -15.6302 O   0  0  0  0  0  0  0  0  0  0  0  0
   -3.3878   -0.6891  -13.6020 O   0  0  0  0  0  0  0  0  0  0  0  0
   -9.7201    0.7441  -12.1834 N   0  0  0  0  0  0  0  0  0  0  0  0
   -8.4431    0.3692  -12.7173 C   0  0  0  0  0  0  0  0  0  0  0  0
   -8.0687    0.8876  -13.9445 C   0  0  0  0  0  0  0  0  0  0  0  0
   -6.8417    0.5412  -14.4909 C   0  0  0  0  0  0  0  0  0  0  0  0
   -5.9989   -0.3254  -13.8119 C   0  0  0  0  0  0  0  0  0  0  0  0
   -6.3608   -0.8522  -12.5792 C   0  0  0  0  0  0  0  0  0  0  0  0
   -7.6029   -0.4959  -12.0285 C   0  0  0  0  0  0  0  0  0  0  0  0
  -10.3025    1.3586  -12.6858 H   0  0  0  0  0  0  0  0  0  0  0  0
  -10.0144    0.3870  -11.3144 H   0  0  0  0  0  0  0  0  0  0  0  0
   -3.4796   -3.2036  -14.7983 C   0  0  0  0  0  0  0  0  0  0  0  0
   -2.2545   -3.3516  -15.7404 C   0  0  0  0  0  0  0  0  0  0  0  0
   -1.4186   -4.5444  -15.2981 C   0  0  0  0  0  0  0  0  0  0  0  0
   -2.7535   -3.5696  -17.1506 C   0  0  0  0  0  0  0  0  0  0  0  0
   -7.0556   -4.8967  -16.0800 C   0  0  0  0  0  0  0  0  0  0  0  0
   -6.2675   -5.3612  -17.1688 N   0  0  0  0  0  0  0  0  0  0  0  0
   -5.0478   -6.1022  -16.9996 C   0  0  0  0  0  0  0  0  0  0  0  0
   -4.5389   -6.3314  -15.9107 O   0  0  0  0  0  0  0  0  0  0  0  0
   -6.5727   -5.1654  -18.0841 H   0  0  0  0  0  0  0  0  0  0  0  0
   -4.4905   -6.5527  -18.2265 O   0  0  0  0  0  0  0  0  0  0  0  0
   -4.0994   -7.8794  -18.3708 C   0  0  0  0  0  0  0  0  0  0  0  0
   -5.3152   -8.6933  -18.2133 C   0  0  0  0  0  0  0  0  0  0  0  0
   -5.8856   -8.6357  -19.3956 O   0  0  0  0  0  0  0  0  0  0  0  0
   -4.6998   -8.5996  -20.4433 C   0  0  0  0  0  0  0  0  0  0  0  0
   -5.0853   -7.5028  -21.4081 O   0  0  0  0  0  0  0  0  0  0  0  0
   -4.0411   -6.4392  -21.2736 C   0  0  0  0  0  0  0  0  0  0  0  0
   -3.0740   -6.9823  -20.6331 C   0  0  0  0  0  0  0  0  0  0  0  0
   -3.6662   -8.2395  -19.8262 C   0  0  0  0  0  0  0  0  0  0  0  0
   -7.6582   -6.1488  -15.4484 C   0  0  0  0  0  0  0  0  0  0  0  0
   -9.7717   -5.7972  -16.6031 C   0  0  0  0  0  0  0  0  0  0  0  0
  -10.8372   -6.1154  -17.4533 C   0  0  0  0  0  0  0  0  0  0  0  0
  -10.8393   -7.3258  -18.1334 C   0  0  0  0  0  0  0  0  0  0  0  0
   -9.7810   -8.2134  -17.9664 C   0  0  0  0  0  0  0  0  0  0  0  0
   -8.7189   -7.8994  -17.1166 C   0  0  0  0  0  0  0  0  0  0  0  0
   -8.7140   -6.6868  -16.4370 C   0  0  0  0  0  0  0  0  0  0  0  0
  9 10  1  0  0  0
 10 11  2  0  0  0
 10 15  1  0  0  0
 11 12  1  0  0  0
 12 13  2  0  0  0
 13 14  1  0  0  0
 13  6  1  0  0  0
 14 15  2  0  0  0
  6  7  2  0  0  0
  6  8  2  0  0  0
  6  5  1  0  0  0
  5 18  1  0  0  0
  5  4  1  0  0  0
 18 19  1  0  0  0
 19 20  1  0  0  0
 19 21  1  0  0  0
  4  1  1  0  0  0
  1  2  1  0  0  0
  1 22  1  0  0  0
 22 23  1  0  0  0
 22 36  1  0  0  0
 23 24  1  0  0  0
 24 25  2  0  0  0
 24 27  1  0  0  0
 27 28  1  0  0  0
 28 29  1  0  0  0
 28 35  1  0  0  0
 29 30  1  0  0  0
 30 31  1  0  0  0
 31 32  1  0  0  0
 31 35  1  0  0  0
 32 33  1  0  0  0
 33 34  1  0  0  0
 34 35  1  0  0  0
 36 42  1  0  0  0
 37 38  2  0  0  0
 37 42  1  0  0  0
 38 39  1  0  0  0
 39 40  2  0  0  0
 40 41  1  0  0  0
 41 42  2  0  0  0
  9 16  1  0  0  0
  9 17  1  0  0  0
  2  3  1  0  0  0
 23 26  1  0  0  0
M  END
> <minimizedAffinity>
-8.33372

$$$$
