3ZI0_FM8_A_501


 34 36  0  0  0  0  0  0  0  0999 V2000
   43.8262   19.8777   23.8800 C   0  0  0  0  0  0  0  0  0  0  0  0
   43.9049   20.2358   25.1731 N   0  0  0  0  0  0  0  0  0  0  0  0
   44.2895   18.8175   23.4587 O   0  0  0  0  0  0  0  0  0  0  0  0
   44.4997   19.3547   26.0252 O   0  0  0  0  0  0  0  0  0  0  0  0
   44.8187   18.5869   25.5255 H   0  0  0  0  0  0  0  0  0  0  0  0
   43.1441   20.8286   22.8733 C   0  0  0  0  0  0  0  0  0  0  0  0
   41.7886   20.6819   22.5315 C   0  0  0  0  0  0  0  0  0  0  0  0
   41.2309   21.5635   21.5975 C   0  0  0  0  0  0  0  0  0  0  0  0
   41.9995   22.5654   20.9971 C   0  0  0  0  0  0  0  0  0  0  0  0
   43.3403   22.6881   21.3274 C   0  0  0  0  0  0  0  0  0  0  0  0
   43.9131   21.8196   22.2590 C   0  0  0  0  0  0  0  0  0  0  0  0
   40.8420   19.6279   23.1230 C   0  0  0  0  0  0  0  0  0  0  0  0
   40.6969   18.5155   22.1676 N   0  0  0  0  0  0  0  0  0  0  0  0
   41.6258   17.8091   21.7688 N   0  0  0  0  0  0  0  0  0  0  0  0
   39.8149   17.1257   20.8190 N   0  0  0  0  0  0  0  0  0  0  0  0
   41.1267   16.9147   20.9162 C   0  0  0  0  0  0  0  0  0  0  0  0
   39.5395   18.1481   21.6242 C   0  0  0  0  0  0  0  0  0  0  0  0
   43.3477   21.4827   25.7404 C   0  0  0  0  0  0  0  0  0  0  0  0
   41.9095   21.3276   26.2917 C   0  0  0  0  0  0  0  0  0  0  0  0
   41.3422   22.6905   26.7377 C   0  0  0  0  0  0  0  0  0  0  0  0
   37.8874   22.4692   22.7880 Cl  0  0  0  0  0  0  0  0  0  0  0  0
   38.1565   25.5894   22.4900 Cl  0  0  0  0  0  0  0  0  0  0  0  0
   40.4976   23.3940   25.6564 C   0  0  0  0  0  0  0  0  0  0  0  0
   39.6490   22.6849   24.8069 C   0  0  0  0  0  0  0  0  0  0  0  0
   38.9320   23.3656   23.8314 C   0  0  0  0  0  0  0  0  0  0  0  0
   39.0546   24.7503   23.7041 C   0  0  0  0  0  0  0  0  0  0  0  0
   39.8981   25.4679   24.5525 C   0  0  0  0  0  0  0  0  0  0  0  0
   40.6201   24.7751   25.5244 C   0  0  0  0  0  0  0  0  0  0  0  0
   40.4598   22.6389   28.3596 P   0  0  0  0  0  0  0  0  0  0  0  0
   38.9385   23.1288   28.2533 O   0  0  0  0  0  0  0  0  0  0  0  0
   40.3571   21.0385   28.4752 O   0  0  0  0  0  0  0  0  0  0  0  0
   41.1890   23.1727   29.5402 O   0  0  0  0  0  0  0  0  0  0  0  0
   39.8816   20.6886   27.7056 H   0  0  0  0  0  0  0  0  0  0  0  0
   41.2518   24.1382   29.4720 H   0  0  0  0  0  0  0  0  0  0  0  0
  6  1  1  0  0  0
  3  1  2  0  0  0
  1  2  1  0  0  0
  2 18  1  0  0  0
  2  4  1  0  0  0
 25 21  1  0  0  0
 18 19  1  0  0  0
 12 13  1  0  0  0
 14 13  1  0  0  0
 13 17  1  0  0  0
 22 26  1  0  0  0
 20 19  1  0  0  0
 14 16  2  0  0  0
 23 20  1  0  0  0
 20 29  1  0  0  0
 16 15  1  0  0  0
 17 15  2  0  0  0
 28 23  2  0  0  0
 23 24  1  0  0  0
 25 24  2  0  0  0
 26 25  1  0  0  0
 27 26  2  0  0  0
 27 28  1  0  0  0
 11  6  2  0  0  0
  6  7  1  0  0  0
  8  7  2  0  0  0
  7 12  1  0  0  0
  9  8  1  0  0  0
 10  9  2  0  0  0
 10 11  1  0  0  0
 30 29  2  0  0  0
 32 29  1  0  0  0
 29 31  1  0  0  0
  4  5  1  0  0  0
 31 33  1  0  0  0
 32 34  1  0  0  0
M  END
> <minimizedAffinity>
-7.95290

$$$$
3ZI0_FM8_A_501


 34 36  0  0  0  0  0  0  0  0999 V2000
   40.9572   20.1524   22.5944 C   0  0  0  0  0  0  0  0  0  0  0  0
   39.7955   20.5933   23.1067 N   0  0  0  0  0  0  0  0  0  0  0  0
   41.0463   19.0909   21.9769 O   0  0  0  0  0  0  0  0  0  0  0  0
   38.6911   19.8256   22.8894 O   0  0  0  0  0  0  0  0  0  0  0  0
   38.9446   19.0245   22.4048 H   0  0  0  0  0  0  0  0  0  0  0  0
   42.2370   20.9925   22.7925 C   0  0  0  0  0  0  0  0  0  0  0  0
   43.0634   20.8132   23.9153 C   0  0  0  0  0  0  0  0  0  0  0  0
   44.2007   21.6187   24.0494 C   0  0  0  0  0  0  0  0  0  0  0  0
   44.5124   22.5970   23.1002 C   0  0  0  0  0  0  0  0  0  0  0  0
   43.6793   22.7782   22.0070 C   0  0  0  0  0  0  0  0  0  0  0  0
   42.5421   21.9822   21.8552 C   0  0  0  0  0  0  0  0  0  0  0  0
   42.8314   19.7730   25.0202 C   0  0  0  0  0  0  0  0  0  0  0  0
   43.8791   18.7398   24.9417 N   0  0  0  0  0  0  0  0  0  0  0  0
   44.7020   18.5078   25.8306 N   0  0  0  0  0  0  0  0  0  0  0  0
   45.0914   17.1585   24.1946 N   0  0  0  0  0  0  0  0  0  0  0  0
   45.4914   17.5185   25.4133 C   0  0  0  0  0  0  0  0  0  0  0  0
   44.0559   17.9379   23.8951 C   0  0  0  0  0  0  0  0  0  0  0  0
   39.6229   21.8684   23.8357 C   0  0  0  0  0  0  0  0  0  0  0  0
   39.5196   21.6989   25.3709 C   0  0  0  0  0  0  0  0  0  0  0  0
   40.7741   22.2592   26.0711 C   0  0  0  0  0  0  0  0  0  0  0  0
   43.8541   26.3358   24.8549 Cl  0  0  0  0  0  0  0  0  0  0  0  0
   41.4087   28.2378   25.4019 Cl  0  0  0  0  0  0  0  0  0  0  0  0
   40.9716   23.7750   25.8691 C   0  0  0  0  0  0  0  0  0  0  0  0
   42.1972   24.3131   25.4783 C   0  0  0  0  0  0  0  0  0  0  0  0
   42.3274   25.6887   25.3384 C   0  0  0  0  0  0  0  0  0  0  0  0
   41.2388   26.5280   25.5816 C   0  0  0  0  0  0  0  0  0  0  0  0
   40.0079   25.9978   25.9689 C   0  0  0  0  0  0  0  0  0  0  0  0
   39.8884   24.6155   26.1143 C   0  0  0  0  0  0  0  0  0  0  0  0
   40.9090   21.7898   27.8526 P   0  0  0  0  0  0  0  0  0  0  0  0
   39.8751   22.5842   28.7828 O   0  0  0  0  0  0  0  0  0  0  0  0
   40.2745   20.3188   27.7156 O   0  0  0  0  0  0  0  0  0  0  0  0
   42.2795   21.6847   28.4193 O   0  0  0  0  0  0  0  0  0  0  0  0
   39.3802   20.3856   27.3459 H   0  0  0  0  0  0  0  0  0  0  0  0
   42.6638   22.5714   28.5027 H   0  0  0  0  0  0  0  0  0  0  0  0
  6  1  1  0  0  0
  3  1  2  0  0  0
  1  2  1  0  0  0
  2 18  1  0  0  0
  2  4  1  0  0  0
 25 21  1  0  0  0
 18 19  1  0  0  0
 12 13  1  0  0  0
 14 13  1  0  0  0
 13 17  1  0  0  0
 22 26  1  0  0  0
 20 19  1  0  0  0
 14 16  2  0  0  0
 23 20  1  0  0  0
 20 29  1  0  0  0
 16 15  1  0  0  0
 17 15  2  0  0  0
 28 23  2  0  0  0
 23 24  1  0  0  0
 25 24  2  0  0  0
 26 25  1  0  0  0
 27 26  2  0  0  0
 27 28  1  0  0  0
 11  6  2  0  0  0
  6  7  1  0  0  0
  8  7  2  0  0  0
  7 12  1  0  0  0
  9  8  1  0  0  0
 10  9  2  0  0  0
 10 11  1  0  0  0
 30 29  2  0  0  0
 32 29  1  0  0  0
 29 31  1  0  0  0
  4  5  1  0  0  0
 31 33  1  0  0  0
 32 34  1  0  0  0
M  END
> <minimizedAffinity>
-7.47831

$$$$
3ZI0_FM8_A_501


 34 36  0  0  0  0  0  0  0  0999 V2000
   39.0255   21.6627   22.5656 C   0  0  0  0  0  0  0  0  0  0  0  0
   39.4226   20.3790   22.5377 N   0  0  0  0  0  0  0  0  0  0  0  0
   37.8378   21.9864   22.5956 O   0  0  0  0  0  0  0  0  0  0  0  0
   38.4480   19.4277   22.5752 O   0  0  0  0  0  0  0  0  0  0  0  0
   37.5778   19.8563   22.5798 H   0  0  0  0  0  0  0  0  0  0  0  0
   40.0879   22.7824   22.5460 C   0  0  0  0  0  0  0  0  0  0  0  0
   40.1859   23.7164   23.5918 C   0  0  0  0  0  0  0  0  0  0  0  0
   41.1576   24.7210   23.5082 C   0  0  0  0  0  0  0  0  0  0  0  0
   42.0108   24.8144   22.4043 C   0  0  0  0  0  0  0  0  0  0  0  0
   41.8919   23.8995   21.3696 C   0  0  0  0  0  0  0  0  0  0  0  0
   40.9304   22.8890   21.4370 C   0  0  0  0  0  0  0  0  0  0  0  0
   39.3131   23.7165   24.8547 C   0  0  0  0  0  0  0  0  0  0  0  0
   39.8180   22.6993   25.7937 N   0  0  0  0  0  0  0  0  0  0  0  0
   40.9131   22.7499   26.3587 N   0  0  0  0  0  0  0  0  0  0  0  0
   39.9238   20.9398   26.9859 N   0  0  0  0  0  0  0  0  0  0  0  0
   41.0324   21.6655   27.1241 C   0  0  0  0  0  0  0  0  0  0  0  0
   39.1445   21.6047   26.1372 C   0  0  0  0  0  0  0  0  0  0  0  0
   40.8316   19.9301   22.5247 C   0  0  0  0  0  0  0  0  0  0  0  0
   41.6329   20.3577   23.7783 C   0  0  0  0  0  0  0  0  0  0  0  0
   43.1452   20.1471   23.5619 C   0  0  0  0  0  0  0  0  0  0  0  0
   44.5637   24.5603   26.0309 Cl  0  0  0  0  0  0  0  0  0  0  0  0
   46.3615   25.2705   23.5489 Cl  0  0  0  0  0  0  0  0  0  0  0  0
   43.9653   21.4521   23.6068 C   0  0  0  0  0  0  0  0  0  0  0  0
   43.9094   22.3206   24.6963 C   0  0  0  0  0  0  0  0  0  0  0  0
   44.6474   23.4969   24.6723 C   0  0  0  0  0  0  0  0  0  0  0  0
   45.4441   23.8067   23.5688 C   0  0  0  0  0  0  0  0  0  0  0  0
   45.5091   22.9414   22.4764 C   0  0  0  0  0  0  0  0  0  0  0  0
   44.7586   21.7659   22.5059 C   0  0  0  0  0  0  0  0  0  0  0  0
   43.8820   18.8461   24.6466 P   0  0  0  0  0  0  0  0  0  0  0  0
   44.7211   19.4581   25.8659 O   0  0  0  0  0  0  0  0  0  0  0  0
   42.5076   18.3492   25.3169 O   0  0  0  0  0  0  0  0  0  0  0  0
   44.5429   17.6995   23.9692 O   0  0  0  0  0  0  0  0  0  0  0  0
   42.0751   19.0962   25.7594 H   0  0  0  0  0  0  0  0  0  0  0  0
   45.3723   17.9976   23.5642 H   0  0  0  0  0  0  0  0  0  0  0  0
  6  1  1  0  0  0
  3  1  2  0  0  0
  1  2  1  0  0  0
  2 18  1  0  0  0
  2  4  1  0  0  0
 25 21  1  0  0  0
 18 19  1  0  0  0
 12 13  1  0  0  0
 14 13  1  0  0  0
 13 17  1  0  0  0
 22 26  1  0  0  0
 20 19  1  0  0  0
 14 16  2  0  0  0
 23 20  1  0  0  0
 20 29  1  0  0  0
 16 15  1  0  0  0
 17 15  2  0  0  0
 28 23  2  0  0  0
 23 24  1  0  0  0
 25 24  2  0  0  0
 26 25  1  0  0  0
 27 26  2  0  0  0
 27 28  1  0  0  0
 11  6  2  0  0  0
  6  7  1  0  0  0
  8  7  2  0  0  0
  7 12  1  0  0  0
  9  8  1  0  0  0
 10  9  2  0  0  0
 10 11  1  0  0  0
 30 29  2  0  0  0
 32 29  1  0  0  0
 29 31  1  0  0  0
  4  5  1  0  0  0
 31 33  1  0  0  0
 32 34  1  0  0  0
M  END
> <minimizedAffinity>
-7.15834

$$$$
3ZI0_FM8_A_501


 34 36  0  0  0  0  0  0  0  0999 V2000
   43.1753   21.3919   22.2886 C   0  0  0  0  0  0  0  0  0  0  0  0
   43.8591   21.7918   23.3744 N   0  0  0  0  0  0  0  0  0  0  0  0
   43.7229   20.8640   21.3204 O   0  0  0  0  0  0  0  0  0  0  0  0
   45.2019   21.5613   23.3809 O   0  0  0  0  0  0  0  0  0  0  0  0
   45.4646   21.1566   22.5394 H   0  0  0  0  0  0  0  0  0  0  0  0
   41.6479   21.6093   22.2358 C   0  0  0  0  0  0  0  0  0  0  0  0
   40.7511   20.5953   22.6143 C   0  0  0  0  0  0  0  0  0  0  0  0
   39.3763   20.8455   22.5264 C   0  0  0  0  0  0  0  0  0  0  0  0
   38.8906   22.0704   22.0585 C   0  0  0  0  0  0  0  0  0  0  0  0
   39.7845   23.0561   21.6695 C   0  0  0  0  0  0  0  0  0  0  0  0
   41.1593   22.8254   21.7529 C   0  0  0  0  0  0  0  0  0  0  0  0
   41.1594   19.2145   23.1466 C   0  0  0  0  0  0  0  0  0  0  0  0
   40.8891   18.1974   22.1152 N   0  0  0  0  0  0  0  0  0  0  0  0
   41.7582   17.6038   21.4723 N   0  0  0  0  0  0  0  0  0  0  0  0
   39.8349   16.8923   20.8061 N   0  0  0  0  0  0  0  0  0  0  0  0
   41.1498   16.7672   20.6320 C   0  0  0  0  0  0  0  0  0  0  0  0
   39.6688   17.8051   21.7594 C   0  0  0  0  0  0  0  0  0  0  0  0
   43.2543   22.4089   24.5746 C   0  0  0  0  0  0  0  0  0  0  0  0
   42.7867   21.3818   25.6343 C   0  0  0  0  0  0  0  0  0  0  0  0
   41.8984   22.0567   26.6989 C   0  0  0  0  0  0  0  0  0  0  0  0
   41.7454   27.3039   26.8667 Cl  0  0  0  0  0  0  0  0  0  0  0  0
   39.3298   27.2134   24.8534 Cl  0  0  0  0  0  0  0  0  0  0  0  0
   41.2852   23.3940   26.2371 C   0  0  0  0  0  0  0  0  0  0  0  0
   41.7561   24.6209   26.7036 C   0  0  0  0  0  0  0  0  0  0  0  0
   41.1485   25.7944   26.2763 C   0  0  0  0  0  0  0  0  0  0  0  0
   40.0775   25.7485   25.3822 C   0  0  0  0  0  0  0  0  0  0  0  0
   39.6028   24.5256   24.9073 C   0  0  0  0  0  0  0  0  0  0  0  0
   40.2142   23.3516   25.3478 C   0  0  0  0  0  0  0  0  0  0  0  0
   40.6186   20.9388   27.4232 P   0  0  0  0  0  0  0  0  0  0  0  0
   39.1483   21.2335   26.8605 O   0  0  0  0  0  0  0  0  0  0  0  0
   41.0766   19.5986   26.6622 O   0  0  0  0  0  0  0  0  0  0  0  0
   40.6735   20.7150   28.8920 O   0  0  0  0  0  0  0  0  0  0  0  0
   41.0414   19.7430   25.7036 H   0  0  0  0  0  0  0  0  0  0  0  0
   40.3974   21.5227   29.3527 H   0  0  0  0  0  0  0  0  0  0  0  0
  6  1  1  0  0  0
  3  1  2  0  0  0
  1  2  1  0  0  0
  2 18  1  0  0  0
  2  4  1  0  0  0
 25 21  1  0  0  0
 18 19  1  0  0  0
 12 13  1  0  0  0
 14 13  1  0  0  0
 13 17  1  0  0  0
 22 26  1  0  0  0
 20 19  1  0  0  0
 14 16  2  0  0  0
 23 20  1  0  0  0
 20 29  1  0  0  0
 16 15  1  0  0  0
 17 15  2  0  0  0
 28 23  2  0  0  0
 23 24  1  0  0  0
 25 24  2  0  0  0
 26 25  1  0  0  0
 27 26  2  0  0  0
 27 28  1  0  0  0
 11  6  2  0  0  0
  6  7  1  0  0  0
  8  7  2  0  0  0
  7 12  1  0  0  0
  9  8  1  0  0  0
 10  9  2  0  0  0
 10 11  1  0  0  0
 30 29  2  0  0  0
 32 29  1  0  0  0
 29 31  1  0  0  0
  4  5  1  0  0  0
 31 33  1  0  0  0
 32 34  1  0  0  0
M  END
> <minimizedAffinity>
-6.86381

$$$$
3ZI0_FM8_A_501


 34 36  0  0  0  0  0  0  0  0999 V2000
   42.6701   19.6559   24.7178 C   0  0  0  0  0  0  0  0  0  0  0  0
   43.8049   20.1754   24.2192 N   0  0  0  0  0  0  0  0  0  0  0  0
   42.5905   18.4884   25.1012 O   0  0  0  0  0  0  0  0  0  0  0  0
   44.8951   19.3593   24.1793 O   0  0  0  0  0  0  0  0  0  0  0  0
   44.6510   18.4776   24.5016 H   0  0  0  0  0  0  0  0  0  0  0  0
   41.4089   20.5417   24.8059 C   0  0  0  0  0  0  0  0  0  0  0  0
   40.7196   20.9500   23.6510 C   0  0  0  0  0  0  0  0  0  0  0  0
   39.5931   21.7692   23.7939 C   0  0  0  0  0  0  0  0  0  0  0  0
   39.1599   22.1930   25.0540 C   0  0  0  0  0  0  0  0  0  0  0  0
   39.8592   21.8001   26.1847 C   0  0  0  0  0  0  0  0  0  0  0  0
   40.9835   20.9808   26.0617 C   0  0  0  0  0  0  0  0  0  0  0  0
   41.0925   20.5489   22.2169 C   0  0  0  0  0  0  0  0  0  0  0  0
   40.7787   19.1234   22.0146 N   0  0  0  0  0  0  0  0  0  0  0  0
   41.6187   18.2431   21.8136 N   0  0  0  0  0  0  0  0  0  0  0  0
   39.6705   17.3193   21.8010 N   0  0  0  0  0  0  0  0  0  0  0  0
   40.9755   17.0844   21.6725 C   0  0  0  0  0  0  0  0  0  0  0  0
   39.5454   18.6246   22.0246 C   0  0  0  0  0  0  0  0  0  0  0  0
   43.9667   21.5737   23.7659 C   0  0  0  0  0  0  0  0  0  0  0  0
   44.2226   22.5760   24.9176 C   0  0  0  0  0  0  0  0  0  0  0  0
   44.2445   24.0250   24.3902 C   0  0  0  0  0  0  0  0  0  0  0  0
   40.8281   25.9560   20.8995 Cl  0  0  0  0  0  0  0  0  0  0  0  0
   38.7470   26.2709   23.2376 Cl  0  0  0  0  0  0  0  0  0  0  0  0
   42.8473   24.5821   24.0509 C   0  0  0  0  0  0  0  0  0  0  0  0
   42.5010   24.9645   22.7554 C   0  0  0  0  0  0  0  0  0  0  0  0
   41.2374   25.4867   22.5107 C   0  0  0  0  0  0  0  0  0  0  0  0
   40.3176   25.6235   23.5517 C   0  0  0  0  0  0  0  0  0  0  0  0
   40.6544   25.2394   24.8499 C   0  0  0  0  0  0  0  0  0  0  0  0
   41.9283   24.7231   25.0879 C   0  0  0  0  0  0  0  0  0  0  0  0
   45.1999   25.1940   25.4544 P   0  0  0  0  0  0  0  0  0  0  0  0
   44.3542   26.4908   25.8647 O   0  0  0  0  0  0  0  0  0  0  0  0
   45.2094   24.2866   26.7817 O   0  0  0  0  0  0  0  0  0  0  0  0
   46.5996   25.4854   25.0464 O   0  0  0  0  0  0  0  0  0  0  0  0
   44.2968   24.0956   27.0493 H   0  0  0  0  0  0  0  0  0  0  0  0
   46.5957   26.0328   24.2456 H   0  0  0  0  0  0  0  0  0  0  0  0
  6  1  1  0  0  0
  3  1  2  0  0  0
  1  2  1  0  0  0
  2 18  1  0  0  0
  2  4  1  0  0  0
 25 21  1  0  0  0
 18 19  1  0  0  0
 12 13  1  0  0  0
 14 13  1  0  0  0
 13 17  1  0  0  0
 22 26  1  0  0  0
 20 19  1  0  0  0
 14 16  2  0  0  0
 23 20  1  0  0  0
 20 29  1  0  0  0
 16 15  1  0  0  0
 17 15  2  0  0  0
 28 23  2  0  0  0
 23 24  1  0  0  0
 25 24  2  0  0  0
 26 25  1  0  0  0
 27 26  2  0  0  0
 27 28  1  0  0  0
 11  6  2  0  0  0
  6  7  1  0  0  0
  8  7  2  0  0  0
  7 12  1  0  0  0
  9  8  1  0  0  0
 10  9  2  0  0  0
 10 11  1  0  0  0
 30 29  2  0  0  0
 32 29  1  0  0  0
 29 31  1  0  0  0
  4  5  1  0  0  0
 31 33  1  0  0  0
 32 34  1  0  0  0
M  END
> <minimizedAffinity>
-6.75446

$$$$
3ZI0_FM8_A_501


 34 36  0  0  0  0  0  0  0  0999 V2000
   41.8358   20.1987   25.2233 C   0  0  0  0  0  0  0  0  0  0  0  0
   40.9407   20.6912   26.0965 N   0  0  0  0  0  0  0  0  0  0  0  0
   42.3877   19.1101   25.3861 O   0  0  0  0  0  0  0  0  0  0  0  0
   40.6354   19.9162   27.1747 O   0  0  0  0  0  0  0  0  0  0  0  0
   41.1702   19.1073   27.1532 H   0  0  0  0  0  0  0  0  0  0  0  0
   42.2041   21.0251   23.9726 C   0  0  0  0  0  0  0  0  0  0  0  0
   41.3921   21.0172   22.8253 C   0  0  0  0  0  0  0  0  0  0  0  0
   41.7888   21.7721   21.7148 C   0  0  0  0  0  0  0  0  0  0  0  0
   42.9751   22.5122   21.7273 C   0  0  0  0  0  0  0  0  0  0  0  0
   43.7780   22.4967   22.8574 C   0  0  0  0  0  0  0  0  0  0  0  0
   43.3970   21.7518   23.9755 C   0  0  0  0  0  0  0  0  0  0  0  0
   40.0685   20.2514   22.6905 C   0  0  0  0  0  0  0  0  0  0  0  0
   40.3316   18.9284   22.0974 N   0  0  0  0  0  0  0  0  0  0  0  0
   41.4306   18.3689   22.0928 N   0  0  0  0  0  0  0  0  0  0  0  0
   40.0236   17.0799   21.0891 N   0  0  0  0  0  0  0  0  0  0  0  0
   41.2946   17.1985   21.4702 C   0  0  0  0  0  0  0  0  0  0  0  0
   39.4063   18.1861   21.4950 C   0  0  0  0  0  0  0  0  0  0  0  0
   40.2296   21.9787   25.9426 C   0  0  0  0  0  0  0  0  0  0  0  0
   40.1595   22.8110   27.2459 C   0  0  0  0  0  0  0  0  0  0  0  0
   40.7142   24.2322   27.0206 C   0  0  0  0  0  0  0  0  0  0  0  0
   38.0189   25.0982   22.5967 Cl  0  0  0  0  0  0  0  0  0  0  0  0
   40.7120   25.9764   21.2281 Cl  0  0  0  0  0  0  0  0  0  0  0  0
   40.6674   24.6895   25.5487 C   0  0  0  0  0  0  0  0  0  0  0  0
   39.4801   24.6994   24.8174 C   0  0  0  0  0  0  0  0  0  0  0  0
   39.4997   25.0942   23.4860 C   0  0  0  0  0  0  0  0  0  0  0  0
   40.6974   25.4837   22.8839 C   0  0  0  0  0  0  0  0  0  0  0  0
   41.8889   25.4807   23.6094 C   0  0  0  0  0  0  0  0  0  0  0  0
   41.8611   25.0755   24.9440 C   0  0  0  0  0  0  0  0  0  0  0  0
   39.9925   25.5044   28.1487 P   0  0  0  0  0  0  0  0  0  0  0  0
   39.6381   26.8721   27.3942 O   0  0  0  0  0  0  0  0  0  0  0  0
   38.5698   24.7879   28.3664 O   0  0  0  0  0  0  0  0  0  0  0  0
   40.6570   25.6914   29.4655 O   0  0  0  0  0  0  0  0  0  0  0  0
   38.1348   24.6651   27.5082 H   0  0  0  0  0  0  0  0  0  0  0  0
   41.5156   26.1237   29.3359 H   0  0  0  0  0  0  0  0  0  0  0  0
  6  1  1  0  0  0
  3  1  2  0  0  0
  1  2  1  0  0  0
  2 18  1  0  0  0
  2  4  1  0  0  0
 25 21  1  0  0  0
 18 19  1  0  0  0
 12 13  1  0  0  0
 14 13  1  0  0  0
 13 17  1  0  0  0
 22 26  1  0  0  0
 20 19  1  0  0  0
 14 16  2  0  0  0
 23 20  1  0  0  0
 20 29  1  0  0  0
 16 15  1  0  0  0
 17 15  2  0  0  0
 28 23  2  0  0  0
 23 24  1  0  0  0
 25 24  2  0  0  0
 26 25  1  0  0  0
 27 26  2  0  0  0
 27 28  1  0  0  0
 11  6  2  0  0  0
  6  7  1  0  0  0
  8  7  2  0  0  0
  7 12  1  0  0  0
  9  8  1  0  0  0
 10  9  2  0  0  0
 10 11  1  0  0  0
 30 29  2  0  0  0
 32 29  1  0  0  0
 29 31  1  0  0  0
  4  5  1  0  0  0
 31 33  1  0  0  0
 32 34  1  0  0  0
M  END
> <minimizedAffinity>
-6.70567

$$$$
3ZI0_FM8_A_501


 34 36  0  0  0  0  0  0  0  0999 V2000
   41.2993   21.1577   26.6015 C   0  0  0  0  0  0  0  0  0  0  0  0
   41.8295   22.0629   27.4417 N   0  0  0  0  0  0  0  0  0  0  0  0
   41.1010   19.9878   26.9302 O   0  0  0  0  0  0  0  0  0  0  0  0
   42.1183   21.6416   28.7048 O   0  0  0  0  0  0  0  0  0  0  0  0
   41.9162   20.6963   28.7845 H   0  0  0  0  0  0  0  0  0  0  0  0
   40.9334   21.5852   25.1640 C   0  0  0  0  0  0  0  0  0  0  0  0
   41.9190   21.7417   24.1741 C   0  0  0  0  0  0  0  0  0  0  0  0
   41.5275   22.1503   22.8934 C   0  0  0  0  0  0  0  0  0  0  0  0
   40.1875   22.4157   22.5949 C   0  0  0  0  0  0  0  0  0  0  0  0
   39.2267   22.2769   23.5846 C   0  0  0  0  0  0  0  0  0  0  0  0
   39.5981   21.8676   24.8670 C   0  0  0  0  0  0  0  0  0  0  0  0
   43.4176   21.4773   24.3763 C   0  0  0  0  0  0  0  0  0  0  0  0
   43.6513   20.0233   24.4267 N   0  0  0  0  0  0  0  0  0  0  0  0
   44.3174   19.4506   25.2923 N   0  0  0  0  0  0  0  0  0  0  0  0
   43.5970   17.9592   23.9120 N   0  0  0  0  0  0  0  0  0  0  0  0
   44.3161   18.1466   25.0177 C   0  0  0  0  0  0  0  0  0  0  0  0
   43.1677   19.1610   23.5366 C   0  0  0  0  0  0  0  0  0  0  0  0
   42.0685   23.4845   27.1117 C   0  0  0  0  0  0  0  0  0  0  0  0
   40.8401   24.3949   27.3537 C   0  0  0  0  0  0  0  0  0  0  0  0
   41.0892   25.8123   26.7996 C   0  0  0  0  0  0  0  0  0  0  0  0
   38.0227   25.9168   22.5369 Cl  0  0  0  0  0  0  0  0  0  0  0  0
   40.6204   26.1514   20.7779 Cl  0  0  0  0  0  0  0  0  0  0  0  0
   40.9255   25.9172   25.2699 C   0  0  0  0  0  0  0  0  0  0  0  0
   39.6723   25.8872   24.6590 C   0  0  0  0  0  0  0  0  0  0  0  0
   39.5839   25.9570   23.2747 C   0  0  0  0  0  0  0  0  0  0  0  0
   40.7398   26.0618   22.4991 C   0  0  0  0  0  0  0  0  0  0  0  0
   41.9972   26.0967   23.1023 C   0  0  0  0  0  0  0  0  0  0  0  0
   42.0769   26.0184   24.4929 C   0  0  0  0  0  0  0  0  0  0  0  0
   40.1419   27.1347   27.6747 P   0  0  0  0  0  0  0  0  0  0  0  0
   38.7189   26.6283   28.2077 O   0  0  0  0  0  0  0  0  0  0  0  0
   41.0629   27.1963   28.9911 O   0  0  0  0  0  0  0  0  0  0  0  0
   40.1084   28.4757   27.0333 O   0  0  0  0  0  0  0  0  0  0  0  0
   41.0859   26.3221   29.4108 H   0  0  0  0  0  0  0  0  0  0  0  0
   39.5530   28.4403   26.2388 H   0  0  0  0  0  0  0  0  0  0  0  0
  6  1  1  0  0  0
  3  1  2  0  0  0
  1  2  1  0  0  0
  2 18  1  0  0  0
  2  4  1  0  0  0
 25 21  1  0  0  0
 18 19  1  0  0  0
 12 13  1  0  0  0
 14 13  1  0  0  0
 13 17  1  0  0  0
 22 26  1  0  0  0
 20 19  1  0  0  0
 14 16  2  0  0  0
 23 20  1  0  0  0
 20 29  1  0  0  0
 16 15  1  0  0  0
 17 15  2  0  0  0
 28 23  2  0  0  0
 23 24  1  0  0  0
 25 24  2  0  0  0
 26 25  1  0  0  0
 27 26  2  0  0  0
 27 28  1  0  0  0
 11  6  2  0  0  0
  6  7  1  0  0  0
  8  7  2  0  0  0
  7 12  1  0  0  0
  9  8  1  0  0  0
 10  9  2  0  0  0
 10 11  1  0  0  0
 30 29  2  0  0  0
 32 29  1  0  0  0
 29 31  1  0  0  0
  4  5  1  0  0  0
 31 33  1  0  0  0
 32 34  1  0  0  0
M  END
> <minimizedAffinity>
-6.70350

$$$$
3ZI0_FM8_A_501


 34 36  0  0  0  0  0  0  0  0999 V2000
   43.8951   20.4819   24.0578 C   0  0  0  0  0  0  0  0  0  0  0  0
   43.6956   20.9440   25.3040 N   0  0  0  0  0  0  0  0  0  0  0  0
   44.5275   19.4505   23.8290 O   0  0  0  0  0  0  0  0  0  0  0  0
   44.2009   20.2018   26.3287 O   0  0  0  0  0  0  0  0  0  0  0  0
   44.6792   19.4381   25.9695 H   0  0  0  0  0  0  0  0  0  0  0  0
   43.3268   21.2719   22.8595 C   0  0  0  0  0  0  0  0  0  0  0  0
   41.9950   21.1083   22.4409 C   0  0  0  0  0  0  0  0  0  0  0  0
   41.5426   21.8385   21.3351 C   0  0  0  0  0  0  0  0  0  0  0  0
   42.3925   22.7058   20.6419 C   0  0  0  0  0  0  0  0  0  0  0  0
   43.7096   22.8442   21.0519 C   0  0  0  0  0  0  0  0  0  0  0  0
   44.1777   22.1261   22.1544 C   0  0  0  0  0  0  0  0  0  0  0  0
   40.9663   20.1931   23.1198 C   0  0  0  0  0  0  0  0  0  0  0  0
   40.8113   18.9628   22.3237 N   0  0  0  0  0  0  0  0  0  0  0  0
   41.7170   18.1575   22.0956 N   0  0  0  0  0  0  0  0  0  0  0  0
   39.9293   17.4407   21.1263 N   0  0  0  0  0  0  0  0  0  0  0  0
   41.2166   17.1764   21.3450 C   0  0  0  0  0  0  0  0  0  0  0  0
   39.6692   18.5826   21.7572 C   0  0  0  0  0  0  0  0  0  0  0  0
   42.9264   22.1612   25.6412 C   0  0  0  0  0  0  0  0  0  0  0  0
   43.8055   23.3381   26.1296 C   0  0  0  0  0  0  0  0  0  0  0  0
   43.9846   24.3892   25.0156 C   0  0  0  0  0  0  0  0  0  0  0  0
   40.5358   26.0222   21.4067 Cl  0  0  0  0  0  0  0  0  0  0  0  0
   38.8968   27.3926   23.7159 Cl  0  0  0  0  0  0  0  0  0  0  0  0
   42.6825   25.1274   24.6450 C   0  0  0  0  0  0  0  0  0  0  0  0
   42.2364   25.2184   23.3269 C   0  0  0  0  0  0  0  0  0  0  0  0
   41.0710   25.9197   23.0458 C   0  0  0  0  0  0  0  0  0  0  0  0
   40.3472   26.5251   24.0744 C   0  0  0  0  0  0  0  0  0  0  0  0
   40.7841   26.4353   25.3962 C   0  0  0  0  0  0  0  0  0  0  0  0
   41.9597   25.7355   25.6685 C   0  0  0  0  0  0  0  0  0  0  0  0
   45.3710   25.5717   25.3187 P   0  0  0  0  0  0  0  0  0  0  0  0
   44.9621   27.0932   25.0300 O   0  0  0  0  0  0  0  0  0  0  0  0
   45.3783   25.4572   26.9224 O   0  0  0  0  0  0  0  0  0  0  0  0
   46.7080   25.1912   24.7912 O   0  0  0  0  0  0  0  0  0  0  0  0
   44.5066   25.7051   27.2682 H   0  0  0  0  0  0  0  0  0  0  0  0
   46.7053   25.2597   23.8236 H   0  0  0  0  0  0  0  0  0  0  0  0
  6  1  1  0  0  0
  3  1  2  0  0  0
  1  2  1  0  0  0
  2 18  1  0  0  0
  2  4  1  0  0  0
 25 21  1  0  0  0
 18 19  1  0  0  0
 12 13  1  0  0  0
 14 13  1  0  0  0
 13 17  1  0  0  0
 22 26  1  0  0  0
 20 19  1  0  0  0
 14 16  2  0  0  0
 23 20  1  0  0  0
 20 29  1  0  0  0
 16 15  1  0  0  0
 17 15  2  0  0  0
 28 23  2  0  0  0
 23 24  1  0  0  0
 25 24  2  0  0  0
 26 25  1  0  0  0
 27 26  2  0  0  0
 27 28  1  0  0  0
 11  6  2  0  0  0
  6  7  1  0  0  0
  8  7  2  0  0  0
  7 12  1  0  0  0
  9  8  1  0  0  0
 10  9  2  0  0  0
 10 11  1  0  0  0
 30 29  2  0  0  0
 32 29  1  0  0  0
 29 31  1  0  0  0
  4  5  1  0  0  0
 31 33  1  0  0  0
 32 34  1  0  0  0
M  END
> <minimizedAffinity>
-6.65592

$$$$
3ZI0_FM8_A_501


 34 36  0  0  0  0  0  0  0  0999 V2000
   40.9980   22.4476   27.6448 C   0  0  0  0  0  0  0  0  0  0  0  0
   40.1054   21.5323   27.2301 N   0  0  0  0  0  0  0  0  0  0  0  0
   41.6427   22.3174   28.6857 O   0  0  0  0  0  0  0  0  0  0  0  0
   39.9566   20.4183   28.0002 O   0  0  0  0  0  0  0  0  0  0  0  0
   40.5243   20.4885   28.7836 H   0  0  0  0  0  0  0  0  0  0  0  0
   41.2224   23.7201   26.8003 C   0  0  0  0  0  0  0  0  0  0  0  0
   42.4801   24.0197   26.2487 C   0  0  0  0  0  0  0  0  0  0  0  0
   42.6265   25.1987   25.5079 C   0  0  0  0  0  0  0  0  0  0  0  0
   41.5549   26.0781   25.3251 C   0  0  0  0  0  0  0  0  0  0  0  0
   40.3241   25.7819   25.8903 C   0  0  0  0  0  0  0  0  0  0  0  0
   40.1586   24.6090   26.6300 C   0  0  0  0  0  0  0  0  0  0  0  0
   43.7284   23.1350   26.3747 C   0  0  0  0  0  0  0  0  0  0  0  0
   44.1388   22.6811   25.0342 N   0  0  0  0  0  0  0  0  0  0  0  0
   43.5356   21.8389   24.3649 N   0  0  0  0  0  0  0  0  0  0  0  0
   45.2522   22.4849   23.2314 N   0  0  0  0  0  0  0  0  0  0  0  0
   44.1934   21.6766   23.2173 C   0  0  0  0  0  0  0  0  0  0  0  0
   45.2142   23.1313   24.3934 C   0  0  0  0  0  0  0  0  0  0  0  0
   39.3205   21.6227   25.9800 C   0  0  0  0  0  0  0  0  0  0  0  0
   40.1591   21.3887   24.7000 C   0  0  0  0  0  0  0  0  0  0  0  0
   39.3330   21.7042   23.4366 C   0  0  0  0  0  0  0  0  0  0  0  0
   42.2110   25.6292   21.4628 Cl  0  0  0  0  0  0  0  0  0  0  0  0
   39.6838   27.4878   21.6984 Cl  0  0  0  0  0  0  0  0  0  0  0  0
   39.4582   23.1665   22.9636 C   0  0  0  0  0  0  0  0  0  0  0  0
   40.6547   23.6796   22.4638 C   0  0  0  0  0  0  0  0  0  0  0  0
   40.7196   25.0122   22.0779 C   0  0  0  0  0  0  0  0  0  0  0  0
   39.5949   25.8322   22.1838 C   0  0  0  0  0  0  0  0  0  0  0  0
   38.3929   25.3259   22.6788 C   0  0  0  0  0  0  0  0  0  0  0  0
   38.3389   23.9883   23.0711 C   0  0  0  0  0  0  0  0  0  0  0  0
   39.6066   20.5171   22.0481 P   0  0  0  0  0  0  0  0  0  0  0  0
   41.0860   19.9034   22.0398 O   0  0  0  0  0  0  0  0  0  0  0  0
   38.6850   19.3307   22.6211 O   0  0  0  0  0  0  0  0  0  0  0  0
   39.1097   20.9235   20.7070 O   0  0  0  0  0  0  0  0  0  0  0  0
   39.0078   19.0643   23.4961 H   0  0  0  0  0  0  0  0  0  0  0  0
   39.6647   21.6393   20.3599 H   0  0  0  0  0  0  0  0  0  0  0  0
  6  1  1  0  0  0
  3  1  2  0  0  0
  1  2  1  0  0  0
  2 18  1  0  0  0
  2  4  1  0  0  0
 25 21  1  0  0  0
 18 19  1  0  0  0
 12 13  1  0  0  0
 14 13  1  0  0  0
 13 17  1  0  0  0
 22 26  1  0  0  0
 20 19  1  0  0  0
 14 16  2  0  0  0
 23 20  1  0  0  0
 20 29  1  0  0  0
 16 15  1  0  0  0
 17 15  2  0  0  0
 28 23  2  0  0  0
 23 24  1  0  0  0
 25 24  2  0  0  0
 26 25  1  0  0  0
 27 26  2  0  0  0
 27 28  1  0  0  0
 11  6  2  0  0  0
  6  7  1  0  0  0
  8  7  2  0  0  0
  7 12  1  0  0  0
  9  8  1  0  0  0
 10  9  2  0  0  0
 10 11  1  0  0  0
 30 29  2  0  0  0
 32 29  1  0  0  0
 29 31  1  0  0  0
  4  5  1  0  0  0
 31 33  1  0  0  0
 32 34  1  0  0  0
M  END
> <minimizedAffinity>
-6.64910

$$$$
3ZI0_FM8_A_501


 34 36  0  0  0  0  0  0  0  0999 V2000
   42.7301   19.5246   23.2821 C   0  0  0  0  0  0  0  0  0  0  0  0
   42.8817   19.5535   24.6172 N   0  0  0  0  0  0  0  0  0  0  0  0
   42.8496   18.4896   22.6259 O   0  0  0  0  0  0  0  0  0  0  0  0
   43.1475   18.3696   25.2367 O   0  0  0  0  0  0  0  0  0  0  0  0
   43.2236   17.6670   24.5723 H   0  0  0  0  0  0  0  0  0  0  0  0
   42.4074   20.8336   22.5302 C   0  0  0  0  0  0  0  0  0  0  0  0
   43.4019   21.7924   22.2707 C   0  0  0  0  0  0  0  0  0  0  0  0
   43.0440   22.9690   21.6013 C   0  0  0  0  0  0  0  0  0  0  0  0
   41.7238   23.2057   21.2064 C   0  0  0  0  0  0  0  0  0  0  0  0
   40.7476   22.2616   21.4852 C   0  0  0  0  0  0  0  0  0  0  0  0
   41.0865   21.0808   22.1495 C   0  0  0  0  0  0  0  0  0  0  0  0
   44.8828   21.6472   22.6484 C   0  0  0  0  0  0  0  0  0  0  0  0
   45.2917   22.8055   23.4623 N   0  0  0  0  0  0  0  0  0  0  0  0
   44.7648   23.1338   24.5279 N   0  0  0  0  0  0  0  0  0  0  0  0
   46.3389   24.5442   24.1018 N   0  0  0  0  0  0  0  0  0  0  0  0
   45.3864   24.2240   24.9764 C   0  0  0  0  0  0  0  0  0  0  0  0
   46.2808   23.6327   23.1346 C   0  0  0  0  0  0  0  0  0  0  0  0
   42.7275   20.7592   25.4596 C   0  0  0  0  0  0  0  0  0  0  0  0
   41.3019   20.9381   26.0358 C   0  0  0  0  0  0  0  0  0  0  0  0
   41.0723   22.3932   26.4919 C   0  0  0  0  0  0  0  0  0  0  0  0
   37.2482   22.9339   22.9326 Cl  0  0  0  0  0  0  0  0  0  0  0  0
   38.2560   25.8697   22.4203 Cl  0  0  0  0  0  0  0  0  0  0  0  0
   40.3143   23.2535   25.4609 C   0  0  0  0  0  0  0  0  0  0  0  0
   39.2244   22.7578   24.7461 C   0  0  0  0  0  0  0  0  0  0  0  0
   38.5955   23.5669   23.8087 C   0  0  0  0  0  0  0  0  0  0  0  0
   39.0464   24.8690   23.5860 C   0  0  0  0  0  0  0  0  0  0  0  0
   40.1334   25.3744   24.2996 C   0  0  0  0  0  0  0  0  0  0  0  0
   40.7637   24.5521   25.2337 C   0  0  0  0  0  0  0  0  0  0  0  0
   40.3275   22.5407   28.1758 P   0  0  0  0  0  0  0  0  0  0  0  0
   40.7727   21.3550   29.1563 O   0  0  0  0  0  0  0  0  0  0  0  0
   41.1916   23.8066   28.6614 O   0  0  0  0  0  0  0  0  0  0  0  0
   38.8806   22.8756   28.2451 O   0  0  0  0  0  0  0  0  0  0  0  0
   42.1360   23.5898   28.6168 H   0  0  0  0  0  0  0  0  0  0  0  0
   38.3577   22.1128   27.9524 H   0  0  0  0  0  0  0  0  0  0  0  0
  6  1  1  0  0  0
  3  1  2  0  0  0
  1  2  1  0  0  0
  2 18  1  0  0  0
  2  4  1  0  0  0
 25 21  1  0  0  0
 18 19  1  0  0  0
 12 13  1  0  0  0
 14 13  1  0  0  0
 13 17  1  0  0  0
 22 26  1  0  0  0
 20 19  1  0  0  0
 14 16  2  0  0  0
 23 20  1  0  0  0
 20 29  1  0  0  0
 16 15  1  0  0  0
 17 15  2  0  0  0
 28 23  2  0  0  0
 23 24  1  0  0  0
 25 24  2  0  0  0
 26 25  1  0  0  0
 27 26  2  0  0  0
 27 28  1  0  0  0
 11  6  2  0  0  0
  6  7  1  0  0  0
  8  7  2  0  0  0
  7 12  1  0  0  0
  9  8  1  0  0  0
 10  9  2  0  0  0
 10 11  1  0  0  0
 30 29  2  0  0  0
 32 29  1  0  0  0
 29 31  1  0  0  0
  4  5  1  0  0  0
 31 33  1  0  0  0
 32 34  1  0  0  0
M  END
> <minimizedAffinity>
-6.61636

$$$$
