3LXE_TOR_A_262


 24 26  0  0  0  0  0  0  0  0999 V2000
  -20.0081   36.9636   43.9046 C   0  0  0  0  0  0  0  0  0  0  0  0
  -18.7809   36.7394   43.0517 C   0  0  0  0  0  0  0  0  0  0  0  0
  -18.9364   37.3533   41.6668 C   0  0  0  0  0  0  0  0  0  0  0  0
  -18.5681   35.3067   42.9410 O   0  0  0  0  0  0  0  0  0  0  0  0
  -17.5927   37.1409   43.7702 O   0  0  0  0  0  0  0  0  0  0  0  0
  -16.5120   36.2840   43.3836 C   0  0  0  0  0  0  0  0  0  0  0  0
  -15.4199   36.3227   44.4620 C   0  0  0  0  0  0  0  0  0  0  0  0
  -14.2398   35.8141   43.8564 O   0  0  0  0  0  0  0  0  0  0  0  0
  -13.4933   34.9814   44.7557 C   0  0  0  0  0  0  0  0  0  0  0  0
  -12.2661   35.6933   45.3298 C   0  0  0  0  0  0  0  0  0  0  0  0
  -13.2077   33.6831   44.0573 C   0  0  0  0  0  0  0  0  0  0  0  0
  -14.4151   34.7114   45.8217 O   0  0  0  0  0  0  0  0  0  0  0  0
  -15.6149   35.4727   45.7471 C   0  0  0  0  0  0  0  0  0  0  0  0
  -16.7637   34.4752   45.7091 C   0  0  0  0  0  0  0  0  0  0  0  0
  -17.0990   34.0472   44.3655 O   0  0  0  0  0  0  0  0  0  0  0  0
  -17.2344   34.9105   43.2425 C   0  0  0  0  0  0  0  0  0  0  0  0
  -16.7048   33.9865   42.1724 C   0  0  0  0  0  0  0  0  0  0  0  0
  -16.0093   34.7301   41.1277 O   0  0  0  0  0  0  0  0  0  0  0  0
  -16.3866   34.5383   39.6136 S   0  0  0  0  0  0  0  0  0  0  0  0
  -15.4554   33.5705   39.1638 O   0  0  0  0  0  0  0  0  0  0  0  0
  -17.7752   34.2434   39.6975 O   0  0  0  0  0  0  0  0  0  0  0  0
  -16.1467   35.9104   38.8506 N   0  0  0  0  0  0  0  0  0  0  0  0
  -15.1460   36.1019   38.8021 H   0  0  0  0  0  0  0  0  0  0  0  0
  -16.6133   36.6652   39.3536 H   0  0  0  0  0  0  0  0  0  0  0  0
  1  2  1  0  0  0
  2  3  1  0  0  0
  2  4  1  0  0  0
  2  5  1  0  0  0
  4 16  1  0  0  0
  5  6  1  0  0  0
  6  7  1  0  0  0
  6 16  1  0  0  0
  7  8  1  0  0  0
  7 13  1  0  0  0
  8  9  1  0  0  0
  9 10  1  0  0  0
  9 11  1  0  0  0
  9 12  1  0  0  0
 12 13  1  0  0  0
 13 14  1  0  0  0
 14 15  1  0  0  0
 15 16  1  0  0  0
 16 17  1  0  0  0
 17 18  1  0  0  0
 18 19  1  0  0  0
 19 20  2  0  0  0
 19 21  2  0  0  0
 19 22  1  0  0  0
 22 23  1  0  0  0
 22 24  1  0  0  0
M  END
> <minimizedAffinity>
-8.17593

$$$$
3LXE_TOR_A_262


 24 26  0  0  0  0  0  0  0  0999 V2000
  -12.0755   36.6652   45.2324 C   0  0  0  0  0  0  0  0  0  0  0  0
  -13.0635   35.5875   44.8502 C   0  0  0  0  0  0  0  0  0  0  0  0
  -12.3955   34.4576   44.0783 C   0  0  0  0  0  0  0  0  0  0  0  0
  -14.1021   36.1993   44.0394 O   0  0  0  0  0  0  0  0  0  0  0  0
  -13.8240   35.1734   46.0075 O   0  0  0  0  0  0  0  0  0  0  0  0
  -15.1464   34.8208   45.5846 C   0  0  0  0  0  0  0  0  0  0  0  0
  -16.1003   34.8873   46.7858 C   0  0  0  0  0  0  0  0  0  0  0  0
  -17.2578   34.1492   46.4203 O   0  0  0  0  0  0  0  0  0  0  0  0
  -18.4613   34.7748   46.8891 C   0  0  0  0  0  0  0  0  0  0  0  0
  -19.0424   34.0758   48.1204 C   0  0  0  0  0  0  0  0  0  0  0  0
  -19.4020   34.9019   45.7257 C   0  0  0  0  0  0  0  0  0  0  0  0
  -18.0418   36.0961   47.2593 O   0  0  0  0  0  0  0  0  0  0  0  0
  -16.6305   36.2757   47.2370 C   0  0  0  0  0  0  0  0  0  0  0  0
  -16.3517   37.4288   46.2837 C   0  0  0  0  0  0  0  0  0  0  0  0
  -16.1940   37.0017   44.9077 O   0  0  0  0  0  0  0  0  0  0  0  0
  -15.4188   35.8872   44.4815 C   0  0  0  0  0  0  0  0  0  0  0  0
  -16.2724   35.4396   43.3193 C   0  0  0  0  0  0  0  0  0  0  0  0
  -15.5073   34.6217   42.3847 O   0  0  0  0  0  0  0  0  0  0  0  0
  -16.2081   33.9245   41.1622 S   0  0  0  0  0  0  0  0  0  0  0  0
  -15.1396   33.6879   40.2631 O   0  0  0  0  0  0  0  0  0  0  0  0
  -16.8913   32.8502   41.7957 O   0  0  0  0  0  0  0  0  0  0  0  0
  -17.2389   34.9450   40.5154 N   0  0  0  0  0  0  0  0  0  0  0  0
  -16.7283   35.7059   40.0674 H   0  0  0  0  0  0  0  0  0  0  0  0
  -17.8443   35.3241   41.2435 H   0  0  0  0  0  0  0  0  0  0  0  0
  1  2  1  0  0  0
  2  3  1  0  0  0
  2  4  1  0  0  0
  2  5  1  0  0  0
  4 16  1  0  0  0
  5  6  1  0  0  0
  6  7  1  0  0  0
  6 16  1  0  0  0
  7  8  1  0  0  0
  7 13  1  0  0  0
  8  9  1  0  0  0
  9 10  1  0  0  0
  9 11  1  0  0  0
  9 12  1  0  0  0
 12 13  1  0  0  0
 13 14  1  0  0  0
 14 15  1  0  0  0
 15 16  1  0  0  0
 16 17  1  0  0  0
 17 18  1  0  0  0
 18 19  1  0  0  0
 19 20  2  0  0  0
 19 21  2  0  0  0
 19 22  1  0  0  0
 22 23  1  0  0  0
 22 24  1  0  0  0
M  END
> <minimizedAffinity>
-8.11936

$$$$
3LXE_TOR_A_262


 24 26  0  0  0  0  0  0  0  0999 V2000
  -20.2859   37.3801   42.6777 C   0  0  0  0  0  0  0  0  0  0  0  0
  -18.8097   37.2475   42.9722 C   0  0  0  0  0  0  0  0  0  0  0  0
  -17.9569   37.8506   41.8642 C   0  0  0  0  0  0  0  0  0  0  0  0
  -18.5079   35.8343   43.1205 O   0  0  0  0  0  0  0  0  0  0  0  0
  -18.5198   37.7334   44.3023 O   0  0  0  0  0  0  0  0  0  0  0  0
  -17.4467   36.9582   44.8494 C   0  0  0  0  0  0  0  0  0  0  0  0
  -17.4627   37.0747   46.3802 C   0  0  0  0  0  0  0  0  0  0  0  0
  -16.1817   36.6546   46.8281 O   0  0  0  0  0  0  0  0  0  0  0  0
  -16.2642   35.8770   48.0314 C   0  0  0  0  0  0  0  0  0  0  0  0
  -15.8597   36.6756   49.2728 C   0  0  0  0  0  0  0  0  0  0  0  0
  -15.4974   34.6042   47.8152 C   0  0  0  0  0  0  0  0  0  0  0  0
  -17.6553   35.5388   48.1291 O   0  0  0  0  0  0  0  0  0  0  0  0
  -18.4754   36.2106   47.1801 C   0  0  0  0  0  0  0  0  0  0  0  0
  -19.1949   35.1321   46.3831 C   0  0  0  0  0  0  0  0  0  0  0  0
  -18.4424   34.6830   45.2286 O   0  0  0  0  0  0  0  0  0  0  0  0
  -17.7763   35.5359   44.3047 C   0  0  0  0  0  0  0  0  0  0  0  0
  -16.5928   34.6548   43.9848 C   0  0  0  0  0  0  0  0  0  0  0  0
  -16.0839   34.9185   42.6433 O   0  0  0  0  0  0  0  0  0  0  0  0
  -16.3013   33.8832   41.4802 S   0  0  0  0  0  0  0  0  0  0  0  0
  -14.9895   33.6494   41.0001 O   0  0  0  0  0  0  0  0  0  0  0  0
  -17.0396   32.8613   42.1380 O   0  0  0  0  0  0  0  0  0  0  0  0
  -17.1751   34.5683   40.3447 N   0  0  0  0  0  0  0  0  0  0  0  0
  -16.6271   35.2967   39.8869 H   0  0  0  0  0  0  0  0  0  0  0  0
  -18.0097   34.9815   40.7607 H   0  0  0  0  0  0  0  0  0  0  0  0
  1  2  1  0  0  0
  2  3  1  0  0  0
  2  4  1  0  0  0
  2  5  1  0  0  0
  4 16  1  0  0  0
  5  6  1  0  0  0
  6  7  1  0  0  0
  6 16  1  0  0  0
  7  8  1  0  0  0
  7 13  1  0  0  0
  8  9  1  0  0  0
  9 10  1  0  0  0
  9 11  1  0  0  0
  9 12  1  0  0  0
 12 13  1  0  0  0
 13 14  1  0  0  0
 14 15  1  0  0  0
 15 16  1  0  0  0
 16 17  1  0  0  0
 17 18  1  0  0  0
 18 19  1  0  0  0
 19 20  2  0  0  0
 19 21  2  0  0  0
 19 22  1  0  0  0
 22 23  1  0  0  0
 22 24  1  0  0  0
M  END
> <minimizedAffinity>
-7.34182

$$$$
3LXE_TOR_A_262


 24 26  0  0  0  0  0  0  0  0999 V2000
  -12.9684   33.2605   44.2725 C   0  0  0  0  0  0  0  0  0  0  0  0
  -13.4074   34.6974   44.4342 C   0  0  0  0  0  0  0  0  0  0  0  0
  -12.2187   35.6473   44.4937 C   0  0  0  0  0  0  0  0  0  0  0  0
  -14.1841   34.7933   45.6581 O   0  0  0  0  0  0  0  0  0  0  0  0
  -14.4079   35.0287   43.4450 O   0  0  0  0  0  0  0  0  0  0  0  0
  -15.3229   35.9710   44.0165 C   0  0  0  0  0  0  0  0  0  0  0  0
  -16.6407   35.9434   43.2293 C   0  0  0  0  0  0  0  0  0  0  0  0
  -17.3277   37.1436   43.5548 O   0  0  0  0  0  0  0  0  0  0  0  0
  -18.7394   36.9297   43.6990 C   0  0  0  0  0  0  0  0  0  0  0  0
  -19.5323   37.4203   42.4853 C   0  0  0  0  0  0  0  0  0  0  0  0
  -19.1651   37.5124   45.0158 C   0  0  0  0  0  0  0  0  0  0  0  0
  -18.8647   35.5032   43.7905 O   0  0  0  0  0  0  0  0  0  0  0  0
  -17.6555   34.8040   43.5197 C   0  0  0  0  0  0  0  0  0  0  0  0
  -17.3580   33.9539   44.7464 C   0  0  0  0  0  0  0  0  0  0  0  0
  -16.5813   34.6563   45.7485 O   0  0  0  0  0  0  0  0  0  0  0  0
  -15.4331   35.4533   45.4822 C   0  0  0  0  0  0  0  0  0  0  0  0
  -15.6272   36.5059   46.5471 C   0  0  0  0  0  0  0  0  0  0  0  0
  -14.9262   36.1510   47.7761 O   0  0  0  0  0  0  0  0  0  0  0  0
  -15.6928   36.0651   49.1460 S   0  0  0  0  0  0  0  0  0  0  0  0
  -14.8459   35.2592   49.9456 O   0  0  0  0  0  0  0  0  0  0  0  0
  -15.9026   37.4393   49.4457 O   0  0  0  0  0  0  0  0  0  0  0  0
  -17.0764   35.3218   48.9102 N   0  0  0  0  0  0  0  0  0  0  0  0
  -16.9026   34.3396   48.6971 H   0  0  0  0  0  0  0  0  0  0  0  0
  -17.5676   35.7573   48.1296 H   0  0  0  0  0  0  0  0  0  0  0  0
  1  2  1  0  0  0
  2  3  1  0  0  0
  2  4  1  0  0  0
  2  5  1  0  0  0
  4 16  1  0  0  0
  5  6  1  0  0  0
  6  7  1  0  0  0
  6 16  1  0  0  0
  7  8  1  0  0  0
  7 13  1  0  0  0
  8  9  1  0  0  0
  9 10  1  0  0  0
  9 11  1  0  0  0
  9 12  1  0  0  0
 12 13  1  0  0  0
 13 14  1  0  0  0
 14 15  1  0  0  0
 15 16  1  0  0  0
 16 17  1  0  0  0
 17 18  1  0  0  0
 18 19  1  0  0  0
 19 20  2  0  0  0
 19 21  2  0  0  0
 19 22  1  0  0  0
 22 23  1  0  0  0
 22 24  1  0  0  0
M  END
> <minimizedAffinity>
-7.29964

$$$$
3LXE_TOR_A_262


 24 26  0  0  0  0  0  0  0  0999 V2000
  -13.9122   35.2992   44.6474 C   0  0  0  0  0  0  0  0  0  0  0  0
  -15.0963   34.9486   43.7765 C   0  0  0  0  0  0  0  0  0  0  0  0
  -14.7308   33.9200   42.7147 C   0  0  0  0  0  0  0  0  0  0  0  0
  -15.5661   36.1703   43.1464 O   0  0  0  0  0  0  0  0  0  0  0  0
  -16.2356   34.6045   44.5967 O   0  0  0  0  0  0  0  0  0  0  0  0
  -17.4280   35.0280   43.9254 C   0  0  0  0  0  0  0  0  0  0  0  0
  -18.5668   35.1637   44.9461 C   0  0  0  0  0  0  0  0  0  0  0  0
  -19.7757   35.1709   44.2001 O   0  0  0  0  0  0  0  0  0  0  0  0
  -20.7269   36.1046   44.7319 C   0  0  0  0  0  0  0  0  0  0  0  0
  -21.8360   35.4178   45.5323 C   0  0  0  0  0  0  0  0  0  0  0  0
  -21.2012   36.9766   43.6053 C   0  0  0  0  0  0  0  0  0  0  0  0
  -19.9499   36.9209   45.6200 O   0  0  0  0  0  0  0  0  0  0  0  0
  -18.6262   36.4416   45.8268 C   0  0  0  0  0  0  0  0  0  0  0  0
  -17.6855   37.5665   45.4198 C   0  0  0  0  0  0  0  0  0  0  0  0
  -17.3425   37.5374   44.0118 O   0  0  0  0  0  0  0  0  0  0  0  0
  -16.9684   36.3724   43.2855 C   0  0  0  0  0  0  0  0  0  0  0  0
  -17.5852   36.7203   41.9521 C   0  0  0  0  0  0  0  0  0  0  0  0
  -17.6183   35.5621   41.0659 O   0  0  0  0  0  0  0  0  0  0  0  0
  -17.1989   35.6894   39.5561 S   0  0  0  0  0  0  0  0  0  0  0  0
  -18.2500   35.0357   38.8676 O   0  0  0  0  0  0  0  0  0  0  0  0
  -16.9939   37.0909   39.4308 O   0  0  0  0  0  0  0  0  0  0  0  0
  -15.8391   34.8988   39.3364 N   0  0  0  0  0  0  0  0  0  0  0  0
  -16.0089   33.8974   39.4305 H   0  0  0  0  0  0  0  0  0  0  0  0
  -15.1569   35.1950   40.0345 H   0  0  0  0  0  0  0  0  0  0  0  0
  1  2  1  0  0  0
  2  3  1  0  0  0
  2  4  1  0  0  0
  2  5  1  0  0  0
  4 16  1  0  0  0
  5  6  1  0  0  0
  6  7  1  0  0  0
  6 16  1  0  0  0
  7  8  1  0  0  0
  7 13  1  0  0  0
  8  9  1  0  0  0
  9 10  1  0  0  0
  9 11  1  0  0  0
  9 12  1  0  0  0
 12 13  1  0  0  0
 13 14  1  0  0  0
 14 15  1  0  0  0
 15 16  1  0  0  0
 16 17  1  0  0  0
 17 18  1  0  0  0
 18 19  1  0  0  0
 19 20  2  0  0  0
 19 21  2  0  0  0
 19 22  1  0  0  0
 22 23  1  0  0  0
 22 24  1  0  0  0
M  END
> <minimizedAffinity>
-7.28874

$$$$
3LXE_TOR_A_262


 24 26  0  0  0  0  0  0  0  0999 V2000
  -12.5172   36.3053   44.9951 C   0  0  0  0  0  0  0  0  0  0  0  0
  -13.6229   35.3596   44.5872 C   0  0  0  0  0  0  0  0  0  0  0  0
  -13.1052   34.2354   43.7000 C   0  0  0  0  0  0  0  0  0  0  0  0
  -14.6318   36.1288   43.8797 O   0  0  0  0  0  0  0  0  0  0  0  0
  -14.3672   34.9299   45.7494 O   0  0  0  0  0  0  0  0  0  0  0  0
  -15.7357   34.7386   45.3720 C   0  0  0  0  0  0  0  0  0  0  0  0
  -16.6229   34.8008   46.6234 C   0  0  0  0  0  0  0  0  0  0  0  0
  -17.8629   34.2067   46.2662 O   0  0  0  0  0  0  0  0  0  0  0  0
  -18.9764   34.9048   46.8427 C   0  0  0  0  0  0  0  0  0  0  0  0
  -19.5671   34.1696   48.0481 C   0  0  0  0  0  0  0  0  0  0  0  0
  -19.9518   35.2115   45.7431 C   0  0  0  0  0  0  0  0  0  0  0  0
  -18.4123   36.1473   47.2867 O   0  0  0  0  0  0  0  0  0  0  0  0
  -16.9927   36.1934   47.2031 C   0  0  0  0  0  0  0  0  0  0  0  0
  -16.6451   37.3862   46.3241 C   0  0  0  0  0  0  0  0  0  0  0  0
  -16.5929   37.0553   44.9139 O   0  0  0  0  0  0  0  0  0  0  0  0
  -15.9515   35.9092   44.3664 C   0  0  0  0  0  0  0  0  0  0  0  0
  -16.8969   35.6373   43.2211 C   0  0  0  0  0  0  0  0  0  0  0  0
  -17.9625   36.6318   43.1667 O   0  0  0  0  0  0  0  0  0  0  0  0
  -18.3137   37.3652   41.8211 S   0  0  0  0  0  0  0  0  0  0  0  0
  -19.7296   37.3995   41.8264 O   0  0  0  0  0  0  0  0  0  0  0  0
  -17.5460   38.5569   41.9332 O   0  0  0  0  0  0  0  0  0  0  0  0
  -17.8022   36.4769   40.6079 N   0  0  0  0  0  0  0  0  0  0  0  0
  -18.3656   35.6290   40.5461 H   0  0  0  0  0  0  0  0  0  0  0  0
  -16.8252   36.2257   40.7587 H   0  0  0  0  0  0  0  0  0  0  0  0
  1  2  1  0  0  0
  2  3  1  0  0  0
  2  4  1  0  0  0
  2  5  1  0  0  0
  4 16  1  0  0  0
  5  6  1  0  0  0
  6  7  1  0  0  0
  6 16  1  0  0  0
  7  8  1  0  0  0
  7 13  1  0  0  0
  8  9  1  0  0  0
  9 10  1  0  0  0
  9 11  1  0  0  0
  9 12  1  0  0  0
 12 13  1  0  0  0
 13 14  1  0  0  0
 14 15  1  0  0  0
 15 16  1  0  0  0
 16 17  1  0  0  0
 17 18  1  0  0  0
 18 19  1  0  0  0
 19 20  2  0  0  0
 19 21  2  0  0  0
 19 22  1  0  0  0
 22 23  1  0  0  0
 22 24  1  0  0  0
M  END
> <minimizedAffinity>
-7.23271

$$$$
3LXE_TOR_A_262


 24 26  0  0  0  0  0  0  0  0999 V2000
  -14.6924   33.7468   42.1891 C   0  0  0  0  0  0  0  0  0  0  0  0
  -15.9673   34.0842   42.9269 C   0  0  0  0  0  0  0  0  0  0  0  0
  -17.1834   33.4383   42.2766 C   0  0  0  0  0  0  0  0  0  0  0  0
  -16.1130   35.5295   42.9315 O   0  0  0  0  0  0  0  0  0  0  0  0
  -15.8132   33.8172   44.3391 O   0  0  0  0  0  0  0  0  0  0  0  0
  -16.5842   34.7754   45.0733 C   0  0  0  0  0  0  0  0  0  0  0  0
  -16.0519   34.8643   46.5106 C   0  0  0  0  0  0  0  0  0  0  0  0
  -17.0736   35.4832   47.2794 O   0  0  0  0  0  0  0  0  0  0  0  0
  -16.5364   36.4008   48.2432 C   0  0  0  0  0  0  0  0  0  0  0  0
  -16.5392   35.8271   49.6620 C   0  0  0  0  0  0  0  0  0  0  0  0
  -17.2515   37.7117   48.0849 C   0  0  0  0  0  0  0  0  0  0  0  0
  -15.1782   36.5893   47.8205 O   0  0  0  0  0  0  0  0  0  0  0  0
  -14.7755   35.7076   46.7789 C   0  0  0  0  0  0  0  0  0  0  0  0
  -14.3081   36.5808   45.6234 C   0  0  0  0  0  0  0  0  0  0  0  0
  -15.3816   36.9533   44.7236 O   0  0  0  0  0  0  0  0  0  0  0  0
  -16.3748   36.0651   44.2242 C   0  0  0  0  0  0  0  0  0  0  0  0
  -17.5401   37.0236   44.1711 C   0  0  0  0  0  0  0  0  0  0  0  0
  -18.4785   36.6581   43.1158 O   0  0  0  0  0  0  0  0  0  0  0  0
  -18.5455   37.4783   41.7762 S   0  0  0  0  0  0  0  0  0  0  0  0
  -19.9337   37.5498   41.5047 O   0  0  0  0  0  0  0  0  0  0  0  0
  -17.7982   38.6406   42.1120 O   0  0  0  0  0  0  0  0  0  0  0  0
  -17.8165   36.6497   40.6341 N   0  0  0  0  0  0  0  0  0  0  0  0
  -18.3686   35.8221   40.4094 H   0  0  0  0  0  0  0  0  0  0  0  0
  -16.8924   36.3643   40.9582 H   0  0  0  0  0  0  0  0  0  0  0  0
  1  2  1  0  0  0
  2  3  1  0  0  0
  2  4  1  0  0  0
  2  5  1  0  0  0
  4 16  1  0  0  0
  5  6  1  0  0  0
  6  7  1  0  0  0
  6 16  1  0  0  0
  7  8  1  0  0  0
  7 13  1  0  0  0
  8  9  1  0  0  0
  9 10  1  0  0  0
  9 11  1  0  0  0
  9 12  1  0  0  0
 12 13  1  0  0  0
 13 14  1  0  0  0
 14 15  1  0  0  0
 15 16  1  0  0  0
 16 17  1  0  0  0
 17 18  1  0  0  0
 18 19  1  0  0  0
 19 20  2  0  0  0
 19 21  2  0  0  0
 19 22  1  0  0  0
 22 23  1  0  0  0
 22 24  1  0  0  0
M  END
> <minimizedAffinity>
-6.95127

$$$$
3LXE_TOR_A_262


 24 26  0  0  0  0  0  0  0  0999 V2000
  -20.6572   35.7017   45.0540 C   0  0  0  0  0  0  0  0  0  0  0  0
  -19.4558   35.5964   45.9646 C   0  0  0  0  0  0  0  0  0  0  0  0
  -19.8651   35.4075   47.4191 C   0  0  0  0  0  0  0  0  0  0  0  0
  -18.6762   36.8136   45.8200 O   0  0  0  0  0  0  0  0  0  0  0  0
  -18.5280   34.6116   45.4561 O   0  0  0  0  0  0  0  0  0  0  0  0
  -17.1957   35.0291   45.7761 C   0  0  0  0  0  0  0  0  0  0  0  0
  -16.2029   34.3290   44.8374 C   0  0  0  0  0  0  0  0  0  0  0  0
  -14.9250   34.4431   45.4474 O   0  0  0  0  0  0  0  0  0  0  0  0
  -13.8926   34.6963   44.4834 C   0  0  0  0  0  0  0  0  0  0  0  0
  -13.0580   33.4500   44.1790 C   0  0  0  0  0  0  0  0  0  0  0  0
  -13.1085   35.8905   44.9456 C   0  0  0  0  0  0  0  0  0  0  0  0
  -14.6107   35.0753   43.3002 O   0  0  0  0  0  0  0  0  0  0  0  0
  -16.0177   34.8894   43.4007 C   0  0  0  0  0  0  0  0  0  0  0  0
  -16.6577   36.2443   43.1347 C   0  0  0  0  0  0  0  0  0  0  0  0
  -16.8038   37.0475   44.3324 O   0  0  0  0  0  0  0  0  0  0  0  0
  -17.2938   36.5719   45.5807 C   0  0  0  0  0  0  0  0  0  0  0  0
  -16.4447   37.4149   46.5015 C   0  0  0  0  0  0  0  0  0  0  0  0
  -16.9003   37.3125   47.8834 O   0  0  0  0  0  0  0  0  0  0  0  0
  -16.0253   36.5870   48.9696 S   0  0  0  0  0  0  0  0  0  0  0  0
  -15.6876   37.6287   49.8678 O   0  0  0  0  0  0  0  0  0  0  0  0
  -16.8800   35.5209   49.3635 O   0  0  0  0  0  0  0  0  0  0  0  0
  -14.7106   36.0285   48.2753 N   0  0  0  0  0  0  0  0  0  0  0  0
  -14.1132   36.8086   48.0014 H   0  0  0  0  0  0  0  0  0  0  0  0
  -14.9658   35.4889   47.4482 H   0  0  0  0  0  0  0  0  0  0  0  0
  1  2  1  0  0  0
  2  3  1  0  0  0
  2  4  1  0  0  0
  2  5  1  0  0  0
  4 16  1  0  0  0
  5  6  1  0  0  0
  6  7  1  0  0  0
  6 16  1  0  0  0
  7  8  1  0  0  0
  7 13  1  0  0  0
  8  9  1  0  0  0
  9 10  1  0  0  0
  9 11  1  0  0  0
  9 12  1  0  0  0
 12 13  1  0  0  0
 13 14  1  0  0  0
 14 15  1  0  0  0
 15 16  1  0  0  0
 16 17  1  0  0  0
 17 18  1  0  0  0
 18 19  1  0  0  0
 19 20  2  0  0  0
 19 21  2  0  0  0
 19 22  1  0  0  0
 22 23  1  0  0  0
 22 24  1  0  0  0
M  END
> <minimizedAffinity>
-6.89667

$$$$
3LXE_TOR_A_262


 24 26  0  0  0  0  0  0  0  0999 V2000
  -20.0968   37.3850   42.6081 C   0  0  0  0  0  0  0  0  0  0  0  0
  -18.6492   37.1670   42.9826 C   0  0  0  0  0  0  0  0  0  0  0  0
  -17.7070   37.5882   41.8628 C   0  0  0  0  0  0  0  0  0  0  0  0
  -18.4711   35.7563   43.2798 O   0  0  0  0  0  0  0  0  0  0  0  0
  -18.3718   37.7586   44.2719 O   0  0  0  0  0  0  0  0  0  0  0  0
  -17.3885   36.9599   44.9405 C   0  0  0  0  0  0  0  0  0  0  0  0
  -17.4542   37.2290   46.4506 C   0  0  0  0  0  0  0  0  0  0  0  0
  -16.2306   36.7563   46.9961 O   0  0  0  0  0  0  0  0  0  0  0  0
  -16.4237   36.1112   48.2633 C   0  0  0  0  0  0  0  0  0  0  0  0
  -16.0030   36.9951   49.4398 C   0  0  0  0  0  0  0  0  0  0  0  0
  -15.7569   34.7670   48.2064 C   0  0  0  0  0  0  0  0  0  0  0  0
  -17.8407   35.8945   48.3280 O   0  0  0  0  0  0  0  0  0  0  0  0
  -18.5651   36.5308   47.2816 C   0  0  0  0  0  0  0  0  0  0  0  0
  -19.3398   35.4382   46.5591 C   0  0  0  0  0  0  0  0  0  0  0  0
  -18.5827   34.8188   45.4895 O   0  0  0  0  0  0  0  0  0  0  0  0
  -17.8131   35.5207   44.5201 C   0  0  0  0  0  0  0  0  0  0  0  0
  -16.6949   34.5221   44.3418 C   0  0  0  0  0  0  0  0  0  0  0  0
  -15.5902   35.0947   43.5806 O   0  0  0  0  0  0  0  0  0  0  0  0
  -14.1069   34.9552   44.0827 S   0  0  0  0  0  0  0  0  0  0  0  0
  -13.4534   34.3159   43.0008 O   0  0  0  0  0  0  0  0  0  0  0  0
  -13.7975   36.2954   44.4439 O   0  0  0  0  0  0  0  0  0  0  0  0
  -14.0871   34.0086   45.3577 N   0  0  0  0  0  0  0  0  0  0  0  0
  -14.3112   33.0542   45.0761 H   0  0  0  0  0  0  0  0  0  0  0  0
  -14.7776   34.3346   46.0340 H   0  0  0  0  0  0  0  0  0  0  0  0
  1  2  1  0  0  0
  2  3  1  0  0  0
  2  4  1  0  0  0
  2  5  1  0  0  0
  4 16  1  0  0  0
  5  6  1  0  0  0
  6  7  1  0  0  0
  6 16  1  0  0  0
  7  8  1  0  0  0
  7 13  1  0  0  0
  8  9  1  0  0  0
  9 10  1  0  0  0
  9 11  1  0  0  0
  9 12  1  0  0  0
 12 13  1  0  0  0
 13 14  1  0  0  0
 14 15  1  0  0  0
 15 16  1  0  0  0
 16 17  1  0  0  0
 17 18  1  0  0  0
 18 19  1  0  0  0
 19 20  2  0  0  0
 19 21  2  0  0  0
 19 22  1  0  0  0
 22 23  1  0  0  0
 22 24  1  0  0  0
M  END
> <minimizedAffinity>
-6.73201

$$$$
3LXE_TOR_A_262


 24 26  0  0  0  0  0  0  0  0999 V2000
  -22.7166   36.7100   45.9776 C   0  0  0  0  0  0  0  0  0  0  0  0
  -21.3486   36.9630   45.3875 C   0  0  0  0  0  0  0  0  0  0  0  0
  -21.4049   37.9637   44.2410 C   0  0  0  0  0  0  0  0  0  0  0  0
  -20.8226   35.6937   44.9160 O   0  0  0  0  0  0  0  0  0  0  0  0
  -20.4040   37.2824   46.4339 O   0  0  0  0  0  0  0  0  0  0  0  0
  -19.1186   36.7708   46.0627 C   0  0  0  0  0  0  0  0  0  0  0  0
  -18.2481   36.6199   47.3182 C   0  0  0  0  0  0  0  0  0  0  0  0
  -16.9052   36.5197   46.8658 O   0  0  0  0  0  0  0  0  0  0  0  0
  -16.1546   35.5617   47.6261 C   0  0  0  0  0  0  0  0  0  0  0  0
  -15.2148   36.2237   48.6365 C   0  0  0  0  0  0  0  0  0  0  0  0
  -15.4920   34.6202   46.6620 C   0  0  0  0  0  0  0  0  0  0  0  0
  -17.1581   34.8239   48.3387 O   0  0  0  0  0  0  0  0  0  0  0  0
  -18.4636   35.3785   48.2264 C   0  0  0  0  0  0  0  0  0  0  0  0
  -19.3539   34.2872   47.6499 C   0  0  0  0  0  0  0  0  0  0  0  0
  -19.3698   34.2749   46.2006 O   0  0  0  0  0  0  0  0  0  0  0  0
  -19.5018   35.4261   45.3748 C   0  0  0  0  0  0  0  0  0  0  0  0
  -18.6231   34.9918   44.2263 C   0  0  0  0  0  0  0  0  0  0  0  0
  -18.6766   35.9495   43.1274 O   0  0  0  0  0  0  0  0  0  0  0  0
  -17.3700   36.6488   42.6025 S   0  0  0  0  0  0  0  0  0  0  0  0
  -16.9924   35.8495   41.4958 O   0  0  0  0  0  0  0  0  0  0  0  0
  -17.8104   37.9896   42.4285 O   0  0  0  0  0  0  0  0  0  0  0  0
  -16.2568   36.5629   43.7321 N   0  0  0  0  0  0  0  0  0  0  0  0
  -15.9559   35.5943   43.8400 H   0  0  0  0  0  0  0  0  0  0  0  0
  -16.6414   36.8998   44.6147 H   0  0  0  0  0  0  0  0  0  0  0  0
  1  2  1  0  0  0
  2  3  1  0  0  0
  2  4  1  0  0  0
  2  5  1  0  0  0
  4 16  1  0  0  0
  5  6  1  0  0  0
  6  7  1  0  0  0
  6 16  1  0  0  0
  7  8  1  0  0  0
  7 13  1  0  0  0
  8  9  1  0  0  0
  9 10  1  0  0  0
  9 11  1  0  0  0
  9 12  1  0  0  0
 12 13  1  0  0  0
 13 14  1  0  0  0
 14 15  1  0  0  0
 15 16  1  0  0  0
 16 17  1  0  0  0
 17 18  1  0  0  0
 18 19  1  0  0  0
 19 20  2  0  0  0
 19 21  2  0  0  0
 19 22  1  0  0  0
 22 23  1  0  0  0
 22 24  1  0  0  0
M  END
> <minimizedAffinity>
-6.46850

$$$$
