5EL9_5DL_A_303


 16 16  0  0  0  0  0  0  0  0999 V2000
  -40.5433  -22.4010    9.7526 C   0  0  0  0  0  0  0  0  0  0  0  0
  -41.6128  -21.4533    9.9173 O   0  0  0  0  0  0  0  0  0  0  0  0
  -41.4589  -20.9279   10.7180 H   0  0  0  0  0  0  0  0  0  0  0  0
  -40.4806  -23.3609   10.9506 C   0  0  0  0  0  0  0  0  0  0  0  0
  -41.1119  -21.3921   12.7027 O   0  0  0  0  0  0  0  0  0  0  0  0
  -41.4404  -22.8370   12.4233 P   0  0  0  0  0  0  0  0  0  0  0  0
  -41.0416  -23.6979   13.5901 O   0  0  0  0  0  0  0  0  0  0  0  0
  -42.8968  -22.9789   12.0122 O   0  0  0  0  0  0  0  0  0  0  0  0
  -41.6092  -21.0919   13.4796 H   0  0  0  0  0  0  0  0  0  0  0  0
  -43.4683  -22.7160   12.7506 H   0  0  0  0  0  0  0  0  0  0  0  0
  -39.2507  -21.6740    9.6245 C   0  0  0  0  0  0  0  0  0  0  0  0
  -39.5383  -19.5784    8.3477 N   0  0  0  0  0  0  0  0  0  0  0  0
  -38.4223  -21.2039    7.3259 C   0  0  0  0  0  0  0  0  0  0  0  0
  -39.0754  -20.8552    8.4466 N   0  0  0  0  0  0  0  0  0  0  0  0
  -39.1362  -19.2095    7.1254 C   0  0  0  0  0  0  0  0  0  0  0  0
  -38.4535  -20.1784    6.4765 N   0  0  0  0  0  0  0  0  0  0  0  0
  7  6  2  0  0  0
  5  6  1  0  0  0
  6  8  1  0  0  0
  6  4  1  0  0  0
  4  1  1  0  0  0
  1 11  1  0  0  0
  1  2  1  0  0  0
 11 14  1  0  0  0
 13 14  1  0  0  0
 13 16  2  0  0  0
 14 12  1  0  0  0
 16 15  1  0  0  0
 12 15  2  0  0  0
  5  9  1  0  0  0
  8 10  1  0  0  0
  2  3  1  0  0  0
M  END
> <minimizedAffinity>
-7.46373

$$$$
5EL9_5DL_A_303


 16 16  0  0  0  0  0  0  0  0999 V2000
  -41.2431  -21.5684    9.4194 C   0  0  0  0  0  0  0  0  0  0  0  0
  -41.3374  -20.2818   10.0557 O   0  0  0  0  0  0  0  0  0  0  0  0
  -40.4499  -19.9764   10.3005 H   0  0  0  0  0  0  0  0  0  0  0  0
  -40.6275  -22.6019   10.3753 C   0  0  0  0  0  0  0  0  0  0  0  0
  -40.7659  -23.8330   12.7857 O   0  0  0  0  0  0  0  0  0  0  0  0
  -41.4030  -22.6908   12.0352 P   0  0  0  0  0  0  0  0  0  0  0  0
  -42.8772  -22.9351   11.8663 O   0  0  0  0  0  0  0  0  0  0  0  0
  -41.0620  -21.3662   12.6981 O   0  0  0  0  0  0  0  0  0  0  0  0
  -41.1610  -23.8998   13.6690 H   0  0  0  0  0  0  0  0  0  0  0  0
  -41.4443  -21.3427   13.5892 H   0  0  0  0  0  0  0  0  0  0  0  0
  -40.4047  -21.4567    8.1946 C   0  0  0  0  0  0  0  0  0  0  0  0
  -41.0615  -23.3779    6.7868 N   0  0  0  0  0  0  0  0  0  0  0  0
  -41.4078  -21.3631    5.9195 C   0  0  0  0  0  0  0  0  0  0  0  0
  -40.9377  -22.0361    6.9827 N   0  0  0  0  0  0  0  0  0  0  0  0
  -41.6104  -23.4519    5.5683 C   0  0  0  0  0  0  0  0  0  0  0  0
  -41.8335  -22.2406    5.0125 N   0  0  0  0  0  0  0  0  0  0  0  0
  7  6  2  0  0  0
  5  6  1  0  0  0
  6  8  1  0  0  0
  6  4  1  0  0  0
  4  1  1  0  0  0
  1 11  1  0  0  0
  1  2  1  0  0  0
 11 14  1  0  0  0
 13 14  1  0  0  0
 13 16  2  0  0  0
 14 12  1  0  0  0
 16 15  1  0  0  0
 12 15  2  0  0  0
  5  9  1  0  0  0
  8 10  1  0  0  0
  2  3  1  0  0  0
M  END
> <minimizedAffinity>
-6.90333

$$$$
5EL9_5DL_A_303


 16 16  0  0  0  0  0  0  0  0999 V2000
  -41.3470  -21.6868    9.5321 C   0  0  0  0  0  0  0  0  0  0  0  0
  -40.2312  -21.0673   10.1959 O   0  0  0  0  0  0  0  0  0  0  0  0
  -39.4107  -21.5127    9.9329 H   0  0  0  0  0  0  0  0  0  0  0  0
  -41.4581  -23.1675    9.9265 C   0  0  0  0  0  0  0  0  0  0  0  0
  -40.7919  -22.8778   12.5374 O   0  0  0  0  0  0  0  0  0  0  0  0
  -40.3939  -23.6855   11.3279 P   0  0  0  0  0  0  0  0  0  0  0  0
  -38.9587  -23.4153   10.9690 O   0  0  0  0  0  0  0  0  0  0  0  0
  -40.7174  -25.1549   11.5428 O   0  0  0  0  0  0  0  0  0  0  0  0
  -40.2412  -23.1349   13.2934 H   0  0  0  0  0  0  0  0  0  0  0  0
  -40.1852  -25.4991   12.2771 H   0  0  0  0  0  0  0  0  0  0  0  0
  -41.1742  -21.5721    8.0582 C   0  0  0  0  0  0  0  0  0  0  0  0
  -39.7453  -19.5636    7.8890 N   0  0  0  0  0  0  0  0  0  0  0  0
  -39.0089  -21.3815    6.8475 C   0  0  0  0  0  0  0  0  0  0  0  0
  -40.0027  -20.8670    7.5904 N   0  0  0  0  0  0  0  0  0  0  0  0
  -38.5725  -19.3448    7.2823 C   0  0  0  0  0  0  0  0  0  0  0  0
  -38.0971  -20.4334    6.6381 N   0  0  0  0  0  0  0  0  0  0  0  0
  7  6  2  0  0  0
  5  6  1  0  0  0
  6  8  1  0  0  0
  6  4  1  0  0  0
  4  1  1  0  0  0
  1 11  1  0  0  0
  1  2  1  0  0  0
 11 14  1  0  0  0
 13 14  1  0  0  0
 13 16  2  0  0  0
 14 12  1  0  0  0
 16 15  1  0  0  0
 12 15  2  0  0  0
  5  9  1  0  0  0
  8 10  1  0  0  0
  2  3  1  0  0  0
M  END
> <minimizedAffinity>
-6.72580

$$$$
5EL9_5DL_A_303


 16 16  0  0  0  0  0  0  0  0999 V2000
  -40.3059  -21.3370    9.2633 C   0  0  0  0  0  0  0  0  0  0  0  0
  -41.4638  -21.1030    8.4426 O   0  0  0  0  0  0  0  0  0  0  0  0
  -41.4561  -21.7154    7.6904 H   0  0  0  0  0  0  0  0  0  0  0  0
  -39.0168  -21.0962    8.4629 C   0  0  0  0  0  0  0  0  0  0  0  0
  -39.5907  -20.0935    6.0114 O   0  0  0  0  0  0  0  0  0  0  0  0
  -39.1527  -21.3842    6.6565 P   0  0  0  0  0  0  0  0  0  0  0  0
  -40.1743  -22.4611    6.4154 O   0  0  0  0  0  0  0  0  0  0  0  0
  -37.7458  -21.7478    6.2111 O   0  0  0  0  0  0  0  0  0  0  0  0
  -39.6697  -20.2215    5.0531 H   0  0  0  0  0  0  0  0  0  0  0  0
  -37.7422  -21.9154    5.2557 H   0  0  0  0  0  0  0  0  0  0  0  0
  -40.3290  -22.7373    9.7673 C   0  0  0  0  0  0  0  0  0  0  0  0
  -40.0174  -23.3343   12.1445 N   0  0  0  0  0  0  0  0  0  0  0  0
  -42.0714  -22.7412   11.5435 C   0  0  0  0  0  0  0  0  0  0  0  0
  -40.8145  -22.9395   11.1134 N   0  0  0  0  0  0  0  0  0  0  0  0
  -40.8641  -23.3656   13.1807 C   0  0  0  0  0  0  0  0  0  0  0  0
  -42.1243  -23.0097   12.8471 N   0  0  0  0  0  0  0  0  0  0  0  0
  7  6  2  0  0  0
  5  6  1  0  0  0
  6  8  1  0  0  0
  6  4  1  0  0  0
  4  1  1  0  0  0
  1 11  1  0  0  0
  1  2  1  0  0  0
 11 14  1  0  0  0
 13 14  1  0  0  0
 13 16  2  0  0  0
 14 12  1  0  0  0
 16 15  1  0  0  0
 12 15  2  0  0  0
  5  9  1  0  0  0
  8 10  1  0  0  0
  2  3  1  0  0  0
M  END
> <minimizedAffinity>
-6.63685

$$$$
5EL9_5DL_A_303


 16 16  0  0  0  0  0  0  0  0999 V2000
  -40.4860  -21.0162    8.9499 C   0  0  0  0  0  0  0  0  0  0  0  0
  -41.2833  -20.1762    9.8031 O   0  0  0  0  0  0  0  0  0  0  0  0
  -41.7903  -20.7288   10.4184 H   0  0  0  0  0  0  0  0  0  0  0  0
  -41.3799  -21.9551    8.1253 C   0  0  0  0  0  0  0  0  0  0  0  0
  -42.2056  -21.7105    5.5557 O   0  0  0  0  0  0  0  0  0  0  0  0
  -40.9671  -22.0607    6.3413 P   0  0  0  0  0  0  0  0  0  0  0  0
  -40.5313  -23.4659    6.0296 O   0  0  0  0  0  0  0  0  0  0  0  0
  -39.8892  -21.0110    6.1261 O   0  0  0  0  0  0  0  0  0  0  0  0
  -42.0112  -21.7597    4.6067 H   0  0  0  0  0  0  0  0  0  0  0  0
  -39.6198  -21.0105    5.1942 H   0  0  0  0  0  0  0  0  0  0  0  0
  -39.5470  -21.8190    9.7802 C   0  0  0  0  0  0  0  0  0  0  0  0
  -40.7566  -22.0262   11.9246 N   0  0  0  0  0  0  0  0  0  0  0  0
  -40.1520  -23.9289   10.9520 C   0  0  0  0  0  0  0  0  0  0  0  0
  -40.1233  -22.5893   10.8587 N   0  0  0  0  0  0  0  0  0  0  0  0
  -41.1415  -23.0907   12.6389 C   0  0  0  0  0  0  0  0  0  0  0  0
  -40.7876  -24.2656   12.0731 N   0  0  0  0  0  0  0  0  0  0  0  0
  7  6  2  0  0  0
  5  6  1  0  0  0
  6  8  1  0  0  0
  6  4  1  0  0  0
  4  1  1  0  0  0
  1 11  1  0  0  0
  1  2  1  0  0  0
 11 14  1  0  0  0
 13 14  1  0  0  0
 13 16  2  0  0  0
 14 12  1  0  0  0
 16 15  1  0  0  0
 12 15  2  0  0  0
  5  9  1  0  0  0
  8 10  1  0  0  0
  2  3  1  0  0  0
M  END
> <minimizedAffinity>
-6.54186

$$$$
5EL9_5DL_A_303


 16 16  0  0  0  0  0  0  0  0999 V2000
  -40.0656  -21.6590    7.3877 C   0  0  0  0  0  0  0  0  0  0  0  0
  -39.8248  -20.6657    6.3755 O   0  0  0  0  0  0  0  0  0  0  0  0
  -40.5005  -19.9724    6.4356 H   0  0  0  0  0  0  0  0  0  0  0  0
  -41.4417  -22.3127    7.1889 C   0  0  0  0  0  0  0  0  0  0  0  0
  -41.7276  -22.0168    4.5102 O   0  0  0  0  0  0  0  0  0  0  0  0
  -41.7026  -23.1040    5.5547 P   0  0  0  0  0  0  0  0  0  0  0  0
  -43.0161  -23.8360    5.5777 O   0  0  0  0  0  0  0  0  0  0  0  0
  -40.4918  -24.0010    5.3564 O   0  0  0  0  0  0  0  0  0  0  0  0
  -41.8648  -22.4123    3.6351 H   0  0  0  0  0  0  0  0  0  0  0  0
  -40.5630  -24.4563    4.5028 H   0  0  0  0  0  0  0  0  0  0  0  0
  -40.0020  -21.0237    8.7323 C   0  0  0  0  0  0  0  0  0  0  0  0
  -39.5181  -22.8313   10.3455 N   0  0  0  0  0  0  0  0  0  0  0  0
  -41.4525  -21.7730   10.6099 C   0  0  0  0  0  0  0  0  0  0  0  0
  -40.3379  -21.8560    9.8649 N   0  0  0  0  0  0  0  0  0  0  0  0
  -40.2066  -23.3126   11.3876 C   0  0  0  0  0  0  0  0  0  0  0  0
  -41.3905  -22.6888   11.5751 N   0  0  0  0  0  0  0  0  0  0  0  0
  7  6  2  0  0  0
  5  6  1  0  0  0
  6  8  1  0  0  0
  6  4  1  0  0  0
  4  1  1  0  0  0
  1 11  1  0  0  0
  1  2  1  0  0  0
 11 14  1  0  0  0
 13 14  1  0  0  0
 13 16  2  0  0  0
 14 12  1  0  0  0
 16 15  1  0  0  0
 12 15  2  0  0  0
  5  9  1  0  0  0
  8 10  1  0  0  0
  2  3  1  0  0  0
M  END
> <minimizedAffinity>
-5.44816

$$$$
5EL9_5DL_A_303


 16 16  0  0  0  0  0  0  0  0999 V2000
  -39.3750  -20.8360    9.1537 C   0  0  0  0  0  0  0  0  0  0  0  0
  -40.6080  -20.0995    9.2330 O   0  0  0  0  0  0  0  0  0  0  0  0
  -41.3292  -20.6361    8.8686 H   0  0  0  0  0  0  0  0  0  0  0  0
  -39.0346  -21.1670    7.6925 C   0  0  0  0  0  0  0  0  0  0  0  0
  -41.7072  -21.5704    7.4949 O   0  0  0  0  0  0  0  0  0  0  0  0
  -40.4653  -21.6287    6.6416 P   0  0  0  0  0  0  0  0  0  0  0  0
  -40.2529  -23.0246    6.1240 O   0  0  0  0  0  0  0  0  0  0  0  0
  -40.5162  -20.5628    5.5593 O   0  0  0  0  0  0  0  0  0  0  0  0
  -42.4791  -21.8114    6.9593 H   0  0  0  0  0  0  0  0  0  0  0  0
  -41.2571  -20.7453    4.9604 H   0  0  0  0  0  0  0  0  0  0  0  0
  -39.4972  -22.0953    9.9377 C   0  0  0  0  0  0  0  0  0  0  0  0
  -41.9490  -22.2340   10.2095 N   0  0  0  0  0  0  0  0  0  0  0  0
  -40.7421  -22.4791   12.0575 C   0  0  0  0  0  0  0  0  0  0  0  0
  -40.6925  -22.2560   10.7339 N   0  0  0  0  0  0  0  0  0  0  0  0
  -42.7230  -22.4424   11.2815 C   0  0  0  0  0  0  0  0  0  0  0  0
  -42.0174  -22.5953   12.4237 N   0  0  0  0  0  0  0  0  0  0  0  0
  7  6  2  0  0  0
  5  6  1  0  0  0
  6  8  1  0  0  0
  6  4  1  0  0  0
  4  1  1  0  0  0
  1 11  1  0  0  0
  1  2  1  0  0  0
 11 14  1  0  0  0
 13 14  1  0  0  0
 13 16  2  0  0  0
 14 12  1  0  0  0
 16 15  1  0  0  0
 12 15  2  0  0  0
  5  9  1  0  0  0
  8 10  1  0  0  0
  2  3  1  0  0  0
M  END
> <minimizedAffinity>
-5.40474

$$$$
5EL9_5DL_A_303


 16 16  0  0  0  0  0  0  0  0999 V2000
  -40.4232  -21.9157    8.1188 C   0  0  0  0  0  0  0  0  0  0  0  0
  -39.9781  -20.8930    7.2104 O   0  0  0  0  0  0  0  0  0  0  0  0
  -40.7148  -20.2941    7.0117 H   0  0  0  0  0  0  0  0  0  0  0  0
  -41.5564  -22.7420    7.4913 C   0  0  0  0  0  0  0  0  0  0  0  0
  -40.2266  -23.5277    5.2645 O   0  0  0  0  0  0  0  0  0  0  0  0
  -41.5183  -22.8584    5.6612 P   0  0  0  0  0  0  0  0  0  0  0  0
  -41.5839  -21.4695    5.0882 O   0  0  0  0  0  0  0  0  0  0  0  0
  -42.7034  -23.7389    5.3002 O   0  0  0  0  0  0  0  0  0  0  0  0
  -40.1837  -23.6006    4.2982 H   0  0  0  0  0  0  0  0  0  0  0  0
  -42.7458  -23.8451    4.3369 H   0  0  0  0  0  0  0  0  0  0  0  0
  -40.9009  -21.2862    9.3802 C   0  0  0  0  0  0  0  0  0  0  0  0
  -39.9958  -22.6170   11.2549 N   0  0  0  0  0  0  0  0  0  0  0  0
  -42.2071  -22.5855   11.0524 C   0  0  0  0  0  0  0  0  0  0  0  0
  -41.0491  -22.1524   10.5275 N   0  0  0  0  0  0  0  0  0  0  0  0
  -40.5902  -23.3411   12.2109 C   0  0  0  0  0  0  0  0  0  0  0  0
  -41.9380  -23.3422   12.1150 N   0  0  0  0  0  0  0  0  0  0  0  0
  7  6  2  0  0  0
  5  6  1  0  0  0
  6  8  1  0  0  0
  6  4  1  0  0  0
  4  1  1  0  0  0
  1 11  1  0  0  0
  1  2  1  0  0  0
 11 14  1  0  0  0
 13 14  1  0  0  0
 13 16  2  0  0  0
 14 12  1  0  0  0
 16 15  1  0  0  0
 12 15  2  0  0  0
  5  9  1  0  0  0
  8 10  1  0  0  0
  2  3  1  0  0  0
M  END
> <minimizedAffinity>
-4.78304

$$$$
