5JVI_6QC_E_411


 33 33  0  0  0  0  0  0  0  0999 V2000
   10.6170   40.4080   -5.9167 O   0  0  0  0  0  0  0  0  0  0  0  0
   10.8115   38.9364   -5.5866 P   0  0  0  0  0  0  0  0  0  0  0  0
    9.6291   38.0961   -5.9272 O   0  0  0  0  0  0  0  0  0  0  0  0
    9.4157   38.2039   -6.8673 H   0  0  0  0  0  0  0  0  0  0  0  0
   11.2702   38.8105   -3.9244 N   0  0  0  0  0  0  0  0  0  0  0  0
   11.7002   39.6982   -3.6646 H   0  0  0  0  0  0  0  0  0  0  0  0
   10.2501   38.5267   -2.9349 C   0  0  0  0  0  0  0  0  0  0  0  0
    9.0399   39.4333   -3.0643 C   0  0  0  0  0  0  0  0  0  0  0  0
    7.9331   38.9578   -3.3158 O   0  0  0  0  0  0  0  0  0  0  0  0
    9.2382   40.7244   -2.8141 N   0  0  0  0  0  0  0  0  0  0  0  0
   10.1508   41.0288   -2.6048 H   0  0  0  0  0  0  0  0  0  0  0  0
    8.1593   41.7112   -2.8365 C   0  0  0  0  0  0  0  0  0  0  0  0
    8.3986   42.9679   -5.1555 C   0  0  0  0  0  0  0  0  0  0  0  0
    7.6531   41.9235   -4.3157 C   0  0  0  0  0  0  0  0  0  0  0  0
    6.1289   42.1367   -4.3573 C   0  0  0  0  0  0  0  0  0  0  0  0
    5.8907   43.3738   -5.2046 C   0  0  0  0  0  0  0  0  0  0  0  0
   10.9223   38.7500   -1.5727 C   0  0  0  0  0  0  0  0  0  0  0  0
   10.4226   37.8486   -0.4518 C   0  0  0  0  0  0  0  0  0  0  0  0
    9.5318   38.6121    0.5355 C   0  0  0  0  0  0  0  0  0  0  0  0
    9.7223   36.6008   -1.0315 C   0  0  0  0  0  0  0  0  0  0  0  0
   12.2978   38.3229   -6.4448 C   0  0  0  0  0  0  0  0  0  0  0  0
   13.1506   37.9870   -8.6419 C   0  0  0  0  0  0  0  0  0  0  0  0
   12.1448   38.4063   -7.8745 N   0  0  0  0  0  0  0  0  0  0  0  0
   14.2281   37.5635   -8.2552 O   0  0  0  0  0  0  0  0  0  0  0  0
   11.3191   38.7635   -8.2743 H   0  0  0  0  0  0  0  0  0  0  0  0
   12.8085   38.0950   -9.9227 O   0  0  0  0  0  0  0  0  0  0  0  0
   13.7839   38.7226  -10.8125 C   0  0  0  0  0  0  0  0  0  0  0  0
   13.3199   36.4235  -11.7708 C   0  0  0  0  0  0  0  0  0  0  0  0
   13.2703   35.5043  -12.8099 C   0  0  0  0  0  0  0  0  0  0  0  0
   13.6049   35.8848  -14.1182 C   0  0  0  0  0  0  0  0  0  0  0  0
   13.7294   37.7505  -11.9920 C   0  0  0  0  0  0  0  0  0  0  0  0
   14.0358   37.2063  -14.3166 C   0  0  0  0  0  0  0  0  0  0  0  0
   14.0964   38.1453  -13.2689 C   0  0  0  0  0  0  0  0  0  0  0  0
 32 33  2  0  0  0
 32 30  1  0  0  0
 33 31  1  0  0  0
 30 29  2  0  0  0
 31 27  1  0  0  0
 31 28  2  0  0  0
 29 28  1  0  0  0
 27 26  1  0  0  0
 26 22  1  0  0  0
 22 24  2  0  0  0
 22 23  1  0  0  0
 23 21  1  0  0  0
 21  2  1  0  0  0
  1  2  2  0  0  0
  3  2  1  0  0  0
  2  5  1  0  0  0
 12 10  1  0  0  0
 12 14  1  0  0  0
  5  7  1  0  0  0
 10  8  1  0  0  0
  8  9  2  0  0  0
  8  7  1  0  0  0
 15 16  1  0  0  0
 15 14  1  0  0  0
  7 17  1  0  0  0
 14 13  1  0  0  0
 17 18  1  0  0  0
 19 18  1  0  0  0
 18 20  1  0  0  0
  5  6  1  0  0  0
 10 11  1  0  0  0
  3  4  1  0  0  0
 23 25  1  0  0  0
M  END
> <minimizedAffinity>
-9.07640

$$$$
5JVI_6QC_E_411


 33 33  0  0  0  0  0  0  0  0999 V2000
   11.1769   40.5478   -8.2405 O   0  0  0  0  0  0  0  0  0  0  0  0
   12.3539   40.0952   -7.3907 P   0  0  0  0  0  0  0  0  0  0  0  0
   12.5660   40.9403   -6.1820 O   0  0  0  0  0  0  0  0  0  0  0  0
   11.7543   40.9547   -5.6510 H   0  0  0  0  0  0  0  0  0  0  0  0
   13.7517   40.0078   -8.4044 N   0  0  0  0  0  0  0  0  0  0  0  0
   13.7844   39.0634   -8.7882 H   0  0  0  0  0  0  0  0  0  0  0  0
   13.8667   40.9245   -9.5210 C   0  0  0  0  0  0  0  0  0  0  0  0
   13.7395   40.2303  -10.8646 C   0  0  0  0  0  0  0  0  0  0  0  0
   13.7201   40.8894  -11.9035 O   0  0  0  0  0  0  0  0  0  0  0  0
   13.7335   38.9005  -10.8453 N   0  0  0  0  0  0  0  0  0  0  0  0
   13.7666   38.4419   -9.9748 H   0  0  0  0  0  0  0  0  0  0  0  0
   13.6797   38.0902  -12.0615 C   0  0  0  0  0  0  0  0  0  0  0  0
   14.8165   35.9935  -10.9103 C   0  0  0  0  0  0  0  0  0  0  0  0
   13.6211   36.5587  -11.6870 C   0  0  0  0  0  0  0  0  0  0  0  0
   13.2777   35.6978  -12.9163 C   0  0  0  0  0  0  0  0  0  0  0  0
   13.7536   36.4739  -14.1314 C   0  0  0  0  0  0  0  0  0  0  0  0
   15.2596   41.5578   -9.3940 C   0  0  0  0  0  0  0  0  0  0  0  0
   15.2648   43.0368   -9.0319 C   0  0  0  0  0  0  0  0  0  0  0  0
   14.7283   43.2759   -7.6156 C   0  0  0  0  0  0  0  0  0  0  0  0
   16.6711   43.6398   -9.2373 C   0  0  0  0  0  0  0  0  0  0  0  0
   12.1122   38.3523   -6.9153 C   0  0  0  0  0  0  0  0  0  0  0  0
   10.7988   38.1574   -4.9394 C   0  0  0  0  0  0  0  0  0  0  0  0
   12.0135   38.2119   -5.4853 N   0  0  0  0  0  0  0  0  0  0  0  0
    9.7350   38.2525   -5.5302 O   0  0  0  0  0  0  0  0  0  0  0  0
   12.8217   38.1576   -4.9259 H   0  0  0  0  0  0  0  0  0  0  0  0
   10.9084   37.9786   -3.6259 O   0  0  0  0  0  0  0  0  0  0  0  0
   10.6307   39.1378   -2.7797 C   0  0  0  0  0  0  0  0  0  0  0  0
    9.3868   37.1726   -1.7748 C   0  0  0  0  0  0  0  0  0  0  0  0
    8.7545   36.5136   -0.7292 C   0  0  0  0  0  0  0  0  0  0  0  0
    8.6927   37.0918    0.5476 C   0  0  0  0  0  0  0  0  0  0  0  0
    9.9593   38.4440   -1.5935 C   0  0  0  0  0  0  0  0  0  0  0  0
    9.2469   38.3723    0.7046 C   0  0  0  0  0  0  0  0  0  0  0  0
    9.8847   39.0528   -0.3505 C   0  0  0  0  0  0  0  0  0  0  0  0
 32 33  2  0  0  0
 32 30  1  0  0  0
 33 31  1  0  0  0
 30 29  2  0  0  0
 31 27  1  0  0  0
 31 28  2  0  0  0
 29 28  1  0  0  0
 27 26  1  0  0  0
 26 22  1  0  0  0
 22 24  2  0  0  0
 22 23  1  0  0  0
 23 21  1  0  0  0
 21  2  1  0  0  0
  1  2  2  0  0  0
  3  2  1  0  0  0
  2  5  1  0  0  0
 12 10  1  0  0  0
 12 14  1  0  0  0
  5  7  1  0  0  0
 10  8  1  0  0  0
  8  9  2  0  0  0
  8  7  1  0  0  0
 15 16  1  0  0  0
 15 14  1  0  0  0
  7 17  1  0  0  0
 14 13  1  0  0  0
 17 18  1  0  0  0
 19 18  1  0  0  0
 18 20  1  0  0  0
  5  6  1  0  0  0
 10 11  1  0  0  0
  3  4  1  0  0  0
 23 25  1  0  0  0
M  END
> <minimizedAffinity>
-8.27343

$$$$
5JVI_6QC_E_411


 33 33  0  0  0  0  0  0  0  0999 V2000
   11.1904   40.8350   -8.2831 O   0  0  0  0  0  0  0  0  0  0  0  0
   12.1168   40.2378   -7.2354 P   0  0  0  0  0  0  0  0  0  0  0  0
   12.7219   41.2590   -6.3347 O   0  0  0  0  0  0  0  0  0  0  0  0
   12.0176   41.7712   -5.9074 H   0  0  0  0  0  0  0  0  0  0  0  0
   13.2986   39.2706   -8.0460 N   0  0  0  0  0  0  0  0  0  0  0  0
   13.0332   38.2955   -7.9074 H   0  0  0  0  0  0  0  0  0  0  0  0
   13.5020   39.4577   -9.4686 C   0  0  0  0  0  0  0  0  0  0  0  0
   13.6917   38.1475  -10.2107 C   0  0  0  0  0  0  0  0  0  0  0  0
   12.8742   37.2371  -10.0801 O   0  0  0  0  0  0  0  0  0  0  0  0
   14.7240   38.0852  -11.0469 N   0  0  0  0  0  0  0  0  0  0  0  0
   15.3274   38.8606  -11.1089 H   0  0  0  0  0  0  0  0  0  0  0  0
   15.0013   36.9146  -11.8783 C   0  0  0  0  0  0  0  0  0  0  0  0
   14.1298   38.6224  -13.7053 C   0  0  0  0  0  0  0  0  0  0  0  0
   14.5364   37.1842  -13.3617 C   0  0  0  0  0  0  0  0  0  0  0  0
   13.4699   36.1659  -13.8046 C   0  0  0  0  0  0  0  0  0  0  0  0
   13.3570   35.1469  -12.6848 C   0  0  0  0  0  0  0  0  0  0  0  0
   14.7699   40.3142   -9.5955 C   0  0  0  0  0  0  0  0  0  0  0  0
   14.5477   41.7174  -10.1437 C   0  0  0  0  0  0  0  0  0  0  0  0
   13.2495   41.8108  -10.9541 C   0  0  0  0  0  0  0  0  0  0  0  0
   14.6066   42.7591   -9.0057 C   0  0  0  0  0  0  0  0  0  0  0  0
   11.2004   38.9958   -6.2660 C   0  0  0  0  0  0  0  0  0  0  0  0
   10.0004   38.9045   -4.2120 C   0  0  0  0  0  0  0  0  0  0  0  0
   11.0045   39.4361   -4.9087 N   0  0  0  0  0  0  0  0  0  0  0  0
    9.1864   38.0920   -4.6207 O   0  0  0  0  0  0  0  0  0  0  0  0
   11.5967   40.1119   -4.5063 H   0  0  0  0  0  0  0  0  0  0  0  0
   10.0085   39.3937   -2.9751 O   0  0  0  0  0  0  0  0  0  0  0  0
   10.9935   38.8315   -2.0527 C   0  0  0  0  0  0  0  0  0  0  0  0
    9.7569   38.8338    0.1587 C   0  0  0  0  0  0  0  0  0  0  0  0
    8.9252   38.2599    1.1106 C   0  0  0  0  0  0  0  0  0  0  0  0
    8.3416   37.0038    0.8867 C   0  0  0  0  0  0  0  0  0  0  0  0
   10.0587   38.1661   -1.0415 C   0  0  0  0  0  0  0  0  0  0  0  0
    8.6739   36.3401   -0.3053 C   0  0  0  0  0  0  0  0  0  0  0  0
    9.5216   36.9098   -1.2747 C   0  0  0  0  0  0  0  0  0  0  0  0
 32 33  2  0  0  0
 32 30  1  0  0  0
 33 31  1  0  0  0
 30 29  2  0  0  0
 31 27  1  0  0  0
 31 28  2  0  0  0
 29 28  1  0  0  0
 27 26  1  0  0  0
 26 22  1  0  0  0
 22 24  2  0  0  0
 22 23  1  0  0  0
 23 21  1  0  0  0
 21  2  1  0  0  0
  1  2  2  0  0  0
  3  2  1  0  0  0
  2  5  1  0  0  0
 12 10  1  0  0  0
 12 14  1  0  0  0
  5  7  1  0  0  0
 10  8  1  0  0  0
  8  9  2  0  0  0
  8  7  1  0  0  0
 15 16  1  0  0  0
 15 14  1  0  0  0
  7 17  1  0  0  0
 14 13  1  0  0  0
 17 18  1  0  0  0
 19 18  1  0  0  0
 18 20  1  0  0  0
  5  6  1  0  0  0
 10 11  1  0  0  0
  3  4  1  0  0  0
 23 25  1  0  0  0
M  END
> <minimizedAffinity>
-8.11776

$$$$
5JVI_6QC_E_411


 33 33  0  0  0  0  0  0  0  0999 V2000
   11.7046   42.6753   -7.6296 O   0  0  0  0  0  0  0  0  0  0  0  0
   12.6832   41.5579   -7.3036 P   0  0  0  0  0  0  0  0  0  0  0  0
   13.4576   41.8006   -6.0539 O   0  0  0  0  0  0  0  0  0  0  0  0
   12.8444   41.9362   -5.3147 H   0  0  0  0  0  0  0  0  0  0  0  0
   13.6939   41.3039   -8.6831 N   0  0  0  0  0  0  0  0  0  0  0  0
   13.6095   40.3201   -8.9387 H   0  0  0  0  0  0  0  0  0  0  0  0
   13.4492   42.0776   -9.8838 C   0  0  0  0  0  0  0  0  0  0  0  0
   13.5843   41.2523  -11.1503 C   0  0  0  0  0  0  0  0  0  0  0  0
   13.5584   41.7992  -12.2523 O   0  0  0  0  0  0  0  0  0  0  0  0
   13.8073   39.9513  -10.9879 N   0  0  0  0  0  0  0  0  0  0  0  0
   13.8293   39.5878  -10.0732 H   0  0  0  0  0  0  0  0  0  0  0  0
   14.0214   39.0375  -12.1093 C   0  0  0  0  0  0  0  0  0  0  0  0
   13.4713   36.5013  -12.6376 C   0  0  0  0  0  0  0  0  0  0  0  0
   13.9338   37.5429  -11.6114 C   0  0  0  0  0  0  0  0  0  0  0  0
   13.1429   37.4403  -10.2945 C   0  0  0  0  0  0  0  0  0  0  0  0
   14.1686   37.2603   -9.1897 C   0  0  0  0  0  0  0  0  0  0  0  0
   14.5027   43.1945   -9.8775 C   0  0  0  0  0  0  0  0  0  0  0  0
   15.8257   42.8290   -9.2181 C   0  0  0  0  0  0  0  0  0  0  0  0
   16.9421   42.6413  -10.2522 C   0  0  0  0  0  0  0  0  0  0  0  0
   16.1957   43.8653   -8.1352 C   0  0  0  0  0  0  0  0  0  0  0  0
   11.7751   39.9813   -7.1946 C   0  0  0  0  0  0  0  0  0  0  0  0
   11.3627   38.4846   -5.3900 C   0  0  0  0  0  0  0  0  0  0  0  0
   11.3205   39.7345   -5.8505 N   0  0  0  0  0  0  0  0  0  0  0  0
   11.7193   37.4962   -6.0111 O   0  0  0  0  0  0  0  0  0  0  0  0
   10.9873   40.4697   -5.2868 H   0  0  0  0  0  0  0  0  0  0  0  0
   10.9528   38.4619   -4.1248 O   0  0  0  0  0  0  0  0  0  0  0  0
    9.5422   38.1533   -3.8966 C   0  0  0  0  0  0  0  0  0  0  0  0
    9.8453   39.3865   -1.7042 C   0  0  0  0  0  0  0  0  0  0  0  0
    9.8409   39.4632   -0.3181 C   0  0  0  0  0  0  0  0  0  0  0  0
    9.4723   38.3544    0.4586 C   0  0  0  0  0  0  0  0  0  0  0  0
    9.5069   38.1940   -2.3681 C   0  0  0  0  0  0  0  0  0  0  0  0
    9.1622   37.1648   -0.2197 C   0  0  0  0  0  0  0  0  0  0  0  0
    9.1698   37.0737   -1.6250 C   0  0  0  0  0  0  0  0  0  0  0  0
 32 33  2  0  0  0
 32 30  1  0  0  0
 33 31  1  0  0  0
 30 29  2  0  0  0
 31 27  1  0  0  0
 31 28  2  0  0  0
 29 28  1  0  0  0
 27 26  1  0  0  0
 26 22  1  0  0  0
 22 24  2  0  0  0
 22 23  1  0  0  0
 23 21  1  0  0  0
 21  2  1  0  0  0
  1  2  2  0  0  0
  3  2  1  0  0  0
  2  5  1  0  0  0
 12 10  1  0  0  0
 12 14  1  0  0  0
  5  7  1  0  0  0
 10  8  1  0  0  0
  8  9  2  0  0  0
  8  7  1  0  0  0
 15 16  1  0  0  0
 15 14  1  0  0  0
  7 17  1  0  0  0
 14 13  1  0  0  0
 17 18  1  0  0  0
 19 18  1  0  0  0
 18 20  1  0  0  0
  5  6  1  0  0  0
 10 11  1  0  0  0
  3  4  1  0  0  0
 23 25  1  0  0  0
M  END
> <minimizedAffinity>
-8.06531

$$$$
5JVI_6QC_E_411


 33 33  0  0  0  0  0  0  0  0999 V2000
   11.0290   42.0603   -8.0798 O   0  0  0  0  0  0  0  0  0  0  0  0
   12.4022   41.4143   -7.9835 P   0  0  0  0  0  0  0  0  0  0  0  0
   13.4266   42.3003   -7.3624 O   0  0  0  0  0  0  0  0  0  0  0  0
   13.1239   42.5781   -6.4837 H   0  0  0  0  0  0  0  0  0  0  0  0
   12.8539   40.8652   -9.5595 N   0  0  0  0  0  0  0  0  0  0  0  0
   12.9358   41.6914  -10.1520 H   0  0  0  0  0  0  0  0  0  0  0  0
   14.0801   40.1082   -9.7137 C   0  0  0  0  0  0  0  0  0  0  0  0
   15.2594   40.9774  -10.1097 C   0  0  0  0  0  0  0  0  0  0  0  0
   16.2987   40.4625  -10.5206 O   0  0  0  0  0  0  0  0  0  0  0  0
   15.0680   42.2926  -10.0607 N   0  0  0  0  0  0  0  0  0  0  0  0
   14.2029   42.6309   -9.7344 H   0  0  0  0  0  0  0  0  0  0  0  0
   16.0871   43.2580  -10.4707 C   0  0  0  0  0  0  0  0  0  0  0  0
   16.5285   44.4424   -8.1435 C   0  0  0  0  0  0  0  0  0  0  0  0
   17.0668   43.5510   -9.2692 C   0  0  0  0  0  0  0  0  0  0  0  0
   18.4392   44.0322   -9.7746 C   0  0  0  0  0  0  0  0  0  0  0  0
   18.9759   42.9330  -10.6739 C   0  0  0  0  0  0  0  0  0  0  0  0
   13.7962   39.0830  -10.8208 C   0  0  0  0  0  0  0  0  0  0  0  0
   13.3337   37.7172  -10.3315 C   0  0  0  0  0  0  0  0  0  0  0  0
   13.2743   36.6959  -11.4735 C   0  0  0  0  0  0  0  0  0  0  0  0
   14.2135   37.2360   -9.1576 C   0  0  0  0  0  0  0  0  0  0  0  0
   12.2638   39.8518   -7.0552 C   0  0  0  0  0  0  0  0  0  0  0  0
   11.0086   38.8746   -5.2841 C   0  0  0  0  0  0  0  0  0  0  0  0
   11.3245   39.9728   -5.9701 N   0  0  0  0  0  0  0  0  0  0  0  0
   11.4106   37.7433   -5.5040 O   0  0  0  0  0  0  0  0  0  0  0  0
   10.9264   40.8436   -5.7410 H   0  0  0  0  0  0  0  0  0  0  0  0
   10.1729   39.1901   -4.2985 O   0  0  0  0  0  0  0  0  0  0  0  0
    9.1718   38.1871   -3.9397 C   0  0  0  0  0  0  0  0  0  0  0  0
    9.6800   39.4068   -1.7778 C   0  0  0  0  0  0  0  0  0  0  0  0
    9.8305   39.4685   -0.3992 C   0  0  0  0  0  0  0  0  0  0  0  0
    9.5902   38.3393    0.3980 C   0  0  0  0  0  0  0  0  0  0  0  0
    9.3089   38.2103   -2.4166 C   0  0  0  0  0  0  0  0  0  0  0  0
    9.2454   37.1467   -0.2582 C   0  0  0  0  0  0  0  0  0  0  0  0
    9.0965   37.0709   -1.6565 C   0  0  0  0  0  0  0  0  0  0  0  0
 32 33  2  0  0  0
 32 30  1  0  0  0
 33 31  1  0  0  0
 30 29  2  0  0  0
 31 27  1  0  0  0
 31 28  2  0  0  0
 29 28  1  0  0  0
 27 26  1  0  0  0
 26 22  1  0  0  0
 22 24  2  0  0  0
 22 23  1  0  0  0
 23 21  1  0  0  0
 21  2  1  0  0  0
  1  2  2  0  0  0
  3  2  1  0  0  0
  2  5  1  0  0  0
 12 10  1  0  0  0
 12 14  1  0  0  0
  5  7  1  0  0  0
 10  8  1  0  0  0
  8  9  2  0  0  0
  8  7  1  0  0  0
 15 16  1  0  0  0
 15 14  1  0  0  0
  7 17  1  0  0  0
 14 13  1  0  0  0
 17 18  1  0  0  0
 19 18  1  0  0  0
 18 20  1  0  0  0
  5  6  1  0  0  0
 10 11  1  0  0  0
  3  4  1  0  0  0
 23 25  1  0  0  0
M  END
> <minimizedAffinity>
-7.83297

$$$$
5JVI_6QC_E_411


 33 33  0  0  0  0  0  0  0  0999 V2000
   14.2750   36.7619   -7.8819 O   0  0  0  0  0  0  0  0  0  0  0  0
   13.6747   37.9080   -8.6810 P   0  0  0  0  0  0  0  0  0  0  0  0
   12.7320   37.4545   -9.7422 O   0  0  0  0  0  0  0  0  0  0  0  0
   12.0287   36.9192   -9.3426 H   0  0  0  0  0  0  0  0  0  0  0  0
   14.9690   38.8736   -9.2986 N   0  0  0  0  0  0  0  0  0  0  0  0
   15.6495   38.2344   -9.7095 H   0  0  0  0  0  0  0  0  0  0  0  0
   14.6768   39.8825  -10.2971 C   0  0  0  0  0  0  0  0  0  0  0  0
   14.6604   39.3232  -11.7079 C   0  0  0  0  0  0  0  0  0  0  0  0
   14.3104   40.0313  -12.6514 O   0  0  0  0  0  0  0  0  0  0  0  0
   15.1137   38.0819  -11.8576 N   0  0  0  0  0  0  0  0  0  0  0  0
   15.3905   37.5817  -11.0562 H   0  0  0  0  0  0  0  0  0  0  0  0
   15.2188   37.4281  -13.1615 C   0  0  0  0  0  0  0  0  0  0  0  0
   13.5423   35.4944  -12.4801 C   0  0  0  0  0  0  0  0  0  0  0  0
   13.9016   36.6142  -13.4644 C   0  0  0  0  0  0  0  0  0  0  0  0
   13.8725   36.1253  -14.9240 C   0  0  0  0  0  0  0  0  0  0  0  0
   15.3170   36.0723  -15.3886 C   0  0  0  0  0  0  0  0  0  0  0  0
   15.7931   40.9285  -10.1666 C   0  0  0  0  0  0  0  0  0  0  0  0
   15.4341   42.1544   -9.3377 C   0  0  0  0  0  0  0  0  0  0  0  0
   16.5363   43.2189   -9.3927 C   0  0  0  0  0  0  0  0  0  0  0  0
   14.0578   42.7109   -9.7617 C   0  0  0  0  0  0  0  0  0  0  0  0
   12.8432   39.0608   -7.5401 C   0  0  0  0  0  0  0  0  0  0  0  0
   11.4014   38.9519   -5.6490 C   0  0  0  0  0  0  0  0  0  0  0  0
   12.3677   38.3775   -6.3649 N   0  0  0  0  0  0  0  0  0  0  0  0
   10.8882   40.0380   -5.8659 O   0  0  0  0  0  0  0  0  0  0  0  0
   12.7465   37.5090   -6.0974 H   0  0  0  0  0  0  0  0  0  0  0  0
   11.0626   38.1561   -4.6385 O   0  0  0  0  0  0  0  0  0  0  0  0
    9.6354   38.0397   -4.3439 C   0  0  0  0  0  0  0  0  0  0  0  0
    9.2336   36.9521   -2.0912 C   0  0  0  0  0  0  0  0  0  0  0  0
    9.2406   36.9449   -0.7030 C   0  0  0  0  0  0  0  0  0  0  0  0
    9.7174   38.0516    0.0157 C   0  0  0  0  0  0  0  0  0  0  0  0
    9.6778   38.0725   -2.8154 C   0  0  0  0  0  0  0  0  0  0  0  0
   10.1331   39.1712   -0.7227 C   0  0  0  0  0  0  0  0  0  0  0  0
   10.1240   39.1920   -2.1307 C   0  0  0  0  0  0  0  0  0  0  0  0
 32 33  2  0  0  0
 32 30  1  0  0  0
 33 31  1  0  0  0
 30 29  2  0  0  0
 31 27  1  0  0  0
 31 28  2  0  0  0
 29 28  1  0  0  0
 27 26  1  0  0  0
 26 22  1  0  0  0
 22 24  2  0  0  0
 22 23  1  0  0  0
 23 21  1  0  0  0
 21  2  1  0  0  0
  1  2  2  0  0  0
  3  2  1  0  0  0
  2  5  1  0  0  0
 12 10  1  0  0  0
 12 14  1  0  0  0
  5  7  1  0  0  0
 10  8  1  0  0  0
  8  9  2  0  0  0
  8  7  1  0  0  0
 15 16  1  0  0  0
 15 14  1  0  0  0
  7 17  1  0  0  0
 14 13  1  0  0  0
 17 18  1  0  0  0
 19 18  1  0  0  0
 18 20  1  0  0  0
  5  6  1  0  0  0
 10 11  1  0  0  0
  3  4  1  0  0  0
 23 25  1  0  0  0
M  END
> <minimizedAffinity>
-7.77273

$$$$
5JVI_6QC_E_411


 33 33  0  0  0  0  0  0  0  0999 V2000
   14.4050   37.3525   -8.3965 O   0  0  0  0  0  0  0  0  0  0  0  0
   13.2780   38.2529   -8.8776 P   0  0  0  0  0  0  0  0  0  0  0  0
   12.1275   37.4995   -9.4511 O   0  0  0  0  0  0  0  0  0  0  0  0
   11.7953   36.8676   -8.7945 H   0  0  0  0  0  0  0  0  0  0  0  0
   13.9414   39.4090   -9.9789 N   0  0  0  0  0  0  0  0  0  0  0  0
   14.4651   40.0853   -9.4232 H   0  0  0  0  0  0  0  0  0  0  0  0
   14.8249   38.9485  -11.0312 C   0  0  0  0  0  0  0  0  0  0  0  0
   15.8237   40.0065  -11.4627 C   0  0  0  0  0  0  0  0  0  0  0  0
   15.8690   40.3746  -12.6360 O   0  0  0  0  0  0  0  0  0  0  0  0
   16.5648   40.5482  -10.5003 N   0  0  0  0  0  0  0  0  0  0  0  0
   16.4621   40.2115   -9.5808 H   0  0  0  0  0  0  0  0  0  0  0  0
   17.5256   41.6222  -10.7489 C   0  0  0  0  0  0  0  0  0  0  0  0
   17.9200   44.1005   -9.9026 C   0  0  0  0  0  0  0  0  0  0  0  0
   16.9195   43.0048  -10.2904 C   0  0  0  0  0  0  0  0  0  0  0  0
   15.8383   42.8086   -9.2121 C   0  0  0  0  0  0  0  0  0  0  0  0
   16.1679   43.7780   -8.0911 C   0  0  0  0  0  0  0  0  0  0  0  0
   13.9100   38.5872  -12.2102 C   0  0  0  0  0  0  0  0  0  0  0  0
   14.2562   37.2849  -12.9193 C   0  0  0  0  0  0  0  0  0  0  0  0
   13.3770   36.1251  -12.4366 C   0  0  0  0  0  0  0  0  0  0  0  0
   14.1967   37.4697  -14.4509 C   0  0  0  0  0  0  0  0  0  0  0  0
   12.7251   39.3074   -7.4976 C   0  0  0  0  0  0  0  0  0  0  0  0
   11.2718   39.0385   -5.6314 C   0  0  0  0  0  0  0  0  0  0  0  0
   12.2209   38.5141   -6.4063 N   0  0  0  0  0  0  0  0  0  0  0  0
   10.7976   40.1592   -5.7259 O   0  0  0  0  0  0  0  0  0  0  0  0
   12.5681   37.6085   -6.2373 H   0  0  0  0  0  0  0  0  0  0  0  0
   10.9010   38.1472   -4.7163 O   0  0  0  0  0  0  0  0  0  0  0  0
    9.4789   38.1027   -4.3809 C   0  0  0  0  0  0  0  0  0  0  0  0
    9.7979   39.2869   -2.1638 C   0  0  0  0  0  0  0  0  0  0  0  0
    9.9008   39.3127   -0.7796 C   0  0  0  0  0  0  0  0  0  0  0  0
    9.7521   38.1366   -0.0292 C   0  0  0  0  0  0  0  0  0  0  0  0
    9.5681   38.0836   -2.8542 C   0  0  0  0  0  0  0  0  0  0  0  0
    9.5485   36.9405   -0.7359 C   0  0  0  0  0  0  0  0  0  0  0  0
    9.4492   36.9016   -2.1401 C   0  0  0  0  0  0  0  0  0  0  0  0
 32 33  2  0  0  0
 32 30  1  0  0  0
 33 31  1  0  0  0
 30 29  2  0  0  0
 31 27  1  0  0  0
 31 28  2  0  0  0
 29 28  1  0  0  0
 27 26  1  0  0  0
 26 22  1  0  0  0
 22 24  2  0  0  0
 22 23  1  0  0  0
 23 21  1  0  0  0
 21  2  1  0  0  0
  1  2  2  0  0  0
  3  2  1  0  0  0
  2  5  1  0  0  0
 12 10  1  0  0  0
 12 14  1  0  0  0
  5  7  1  0  0  0
 10  8  1  0  0  0
  8  9  2  0  0  0
  8  7  1  0  0  0
 15 16  1  0  0  0
 15 14  1  0  0  0
  7 17  1  0  0  0
 14 13  1  0  0  0
 17 18  1  0  0  0
 19 18  1  0  0  0
 18 20  1  0  0  0
  5  6  1  0  0  0
 10 11  1  0  0  0
  3  4  1  0  0  0
 23 25  1  0  0  0
M  END
> <minimizedAffinity>
-7.69599

$$$$
5JVI_6QC_E_411


 33 33  0  0  0  0  0  0  0  0999 V2000
   10.0797   38.4119   -6.1688 O   0  0  0  0  0  0  0  0  0  0  0  0
   10.7934   39.6843   -5.7398 P   0  0  0  0  0  0  0  0  0  0  0  0
   11.8761   39.4443   -4.7447 O   0  0  0  0  0  0  0  0  0  0  0  0
   12.5126   38.8080   -5.1065 H   0  0  0  0  0  0  0  0  0  0  0  0
    9.6051   40.8100   -5.1830 N   0  0  0  0  0  0  0  0  0  0  0  0
    8.8023   40.7309   -5.8072 H   0  0  0  0  0  0  0  0  0  0  0  0
    9.1040   40.6883   -3.8286 C   0  0  0  0  0  0  0  0  0  0  0  0
    8.7847   39.2541   -3.4487 C   0  0  0  0  0  0  0  0  0  0  0  0
    7.7067   38.7537   -3.7676 O   0  0  0  0  0  0  0  0  0  0  0  0
    9.7517   38.5740   -2.8395 N   0  0  0  0  0  0  0  0  0  0  0  0
   10.5941   39.0384   -2.6299 H   0  0  0  0  0  0  0  0  0  0  0  0
    9.6177   37.1660   -2.4678 C   0  0  0  0  0  0  0  0  0  0  0  0
    8.4532   36.5925   -0.1594 C   0  0  0  0  0  0  0  0  0  0  0  0
    9.7288   37.0087   -0.9019 C   0  0  0  0  0  0  0  0  0  0  0  0
   10.3855   38.2461   -0.2633 C   0  0  0  0  0  0  0  0  0  0  0  0
    9.4917   38.6592    0.8924 C   0  0  0  0  0  0  0  0  0  0  0  0
    7.8234   41.5342   -3.7843 C   0  0  0  0  0  0  0  0  0  0  0  0
    7.6255   42.3377   -2.5061 C   0  0  0  0  0  0  0  0  0  0  0  0
    8.8477   42.2479   -1.5847 C   0  0  0  0  0  0  0  0  0  0  0  0
    7.2447   43.7969   -2.8369 C   0  0  0  0  0  0  0  0  0  0  0  0
   11.4582   40.5228   -7.2152 C   0  0  0  0  0  0  0  0  0  0  0  0
   12.8086   40.0164   -9.1092 C   0  0  0  0  0  0  0  0  0  0  0  0
   11.9834   39.5725   -8.1615 N   0  0  0  0  0  0  0  0  0  0  0  0
   13.1472   41.1752   -9.2893 O   0  0  0  0  0  0  0  0  0  0  0  0
   11.7394   38.6201   -8.1095 H   0  0  0  0  0  0  0  0  0  0  0  0
   13.2252   38.9944   -9.8516 O   0  0  0  0  0  0  0  0  0  0  0  0
   14.1106   39.3130  -10.9703 C   0  0  0  0  0  0  0  0  0  0  0  0
   14.1536   38.1662  -13.2292 C   0  0  0  0  0  0  0  0  0  0  0  0
   13.9368   37.0832  -14.0702 C   0  0  0  0  0  0  0  0  0  0  0  0
   13.4515   35.8688  -13.5620 C   0  0  0  0  0  0  0  0  0  0  0  0
   13.8710   38.0878  -11.8540 C   0  0  0  0  0  0  0  0  0  0  0  0
   13.1506   35.8160  -12.1915 C   0  0  0  0  0  0  0  0  0  0  0  0
   13.3603   36.9105  -11.3305 C   0  0  0  0  0  0  0  0  0  0  0  0
 32 33  2  0  0  0
 32 30  1  0  0  0
 33 31  1  0  0  0
 30 29  2  0  0  0
 31 27  1  0  0  0
 31 28  2  0  0  0
 29 28  1  0  0  0
 27 26  1  0  0  0
 26 22  1  0  0  0
 22 24  2  0  0  0
 22 23  1  0  0  0
 23 21  1  0  0  0
 21  2  1  0  0  0
  1  2  2  0  0  0
  3  2  1  0  0  0
  2  5  1  0  0  0
 12 10  1  0  0  0
 12 14  1  0  0  0
  5  7  1  0  0  0
 10  8  1  0  0  0
  8  9  2  0  0  0
  8  7  1  0  0  0
 15 16  1  0  0  0
 15 14  1  0  0  0
  7 17  1  0  0  0
 14 13  1  0  0  0
 17 18  1  0  0  0
 19 18  1  0  0  0
 18 20  1  0  0  0
  5  6  1  0  0  0
 10 11  1  0  0  0
  3  4  1  0  0  0
 23 25  1  0  0  0
M  END
> <minimizedAffinity>
-7.60182

$$$$
5JVI_6QC_E_411


 33 33  0  0  0  0  0  0  0  0999 V2000
    7.0727   40.4076   -3.4968 O   0  0  0  0  0  0  0  0  0  0  0  0
    8.5601   40.7221   -3.4626 P   0  0  0  0  0  0  0  0  0  0  0  0
    9.0716   40.9975   -2.0905 O   0  0  0  0  0  0  0  0  0  0  0  0
    8.8748   40.2423   -1.5144 H   0  0  0  0  0  0  0  0  0  0  0  0
    8.8651   42.0170   -4.5669 N   0  0  0  0  0  0  0  0  0  0  0  0
    8.9877   41.6005   -5.4899 H   0  0  0  0  0  0  0  0  0  0  0  0
    7.8783   43.0696   -4.7033 C   0  0  0  0  0  0  0  0  0  0  0  0
    7.8774   43.6965   -6.0854 C   0  0  0  0  0  0  0  0  0  0  0  0
    6.8462   44.1885   -6.5423 O   0  0  0  0  0  0  0  0  0  0  0  0
    9.0491   43.7482   -6.7125 N   0  0  0  0  0  0  0  0  0  0  0  0
    9.8348   43.3456   -6.2766 H   0  0  0  0  0  0  0  0  0  0  0  0
    9.2208   44.3771   -8.0214 C   0  0  0  0  0  0  0  0  0  0  0  0
   11.5769   45.0786   -9.0067 C   0  0  0  0  0  0  0  0  0  0  0  0
   10.6038   43.9488   -8.6484 C   0  0  0  0  0  0  0  0  0  0  0  0
   10.4045   42.9710   -9.8209 C   0  0  0  0  0  0  0  0  0  0  0  0
   11.5760   43.1844  -10.7628 C   0  0  0  0  0  0  0  0  0  0  0  0
    8.2536   44.1262   -3.6545 C   0  0  0  0  0  0  0  0  0  0  0  0
    7.1792   44.4116   -2.6139 C   0  0  0  0  0  0  0  0  0  0  0  0
    5.8824   43.6508   -2.9142 C   0  0  0  0  0  0  0  0  0  0  0  0
    7.7121   44.1271   -1.1930 C   0  0  0  0  0  0  0  0  0  0  0  0
    9.4799   39.3433   -4.2209 C   0  0  0  0  0  0  0  0  0  0  0  0
   11.2031   38.9514   -5.8160 C   0  0  0  0  0  0  0  0  0  0  0  0
   10.3322   39.8090   -5.2844 N   0  0  0  0  0  0  0  0  0  0  0  0
   11.3868   37.7965   -5.4664 O   0  0  0  0  0  0  0  0  0  0  0  0
   10.2731   40.7361   -5.6102 H   0  0  0  0  0  0  0  0  0  0  0  0
   11.8617   39.5433   -6.8085 O   0  0  0  0  0  0  0  0  0  0  0  0
   11.8625   41.0051   -6.8167 C   0  0  0  0  0  0  0  0  0  0  0  0
   13.7887   42.4118   -7.6714 C   0  0  0  0  0  0  0  0  0  0  0  0
   14.8137   42.6922   -8.5647 C   0  0  0  0  0  0  0  0  0  0  0  0
   15.0972   41.8187   -9.6254 C   0  0  0  0  0  0  0  0  0  0  0  0
   12.9909   41.2629   -7.8164 C   0  0  0  0  0  0  0  0  0  0  0  0
   14.2747   40.6899   -9.7703 C   0  0  0  0  0  0  0  0  0  0  0  0
   13.2281   40.3991   -8.8741 C   0  0  0  0  0  0  0  0  0  0  0  0
 32 33  2  0  0  0
 32 30  1  0  0  0
 33 31  1  0  0  0
 30 29  2  0  0  0
 31 27  1  0  0  0
 31 28  2  0  0  0
 29 28  1  0  0  0
 27 26  1  0  0  0
 26 22  1  0  0  0
 22 24  2  0  0  0
 22 23  1  0  0  0
 23 21  1  0  0  0
 21  2  1  0  0  0
  1  2  2  0  0  0
  3  2  1  0  0  0
  2  5  1  0  0  0
 12 10  1  0  0  0
 12 14  1  0  0  0
  5  7  1  0  0  0
 10  8  1  0  0  0
  8  9  2  0  0  0
  8  7  1  0  0  0
 15 16  1  0  0  0
 15 14  1  0  0  0
  7 17  1  0  0  0
 14 13  1  0  0  0
 17 18  1  0  0  0
 19 18  1  0  0  0
 18 20  1  0  0  0
  5  6  1  0  0  0
 10 11  1  0  0  0
  3  4  1  0  0  0
 23 25  1  0  0  0
M  END
> <minimizedAffinity>
-7.18271

$$$$
5JVI_6QC_E_411


 33 33  0  0  0  0  0  0  0  0999 V2000
   15.4204   35.7068  -12.6593 O   0  0  0  0  0  0  0  0  0  0  0  0
   14.0377   36.0771  -12.1459 P   0  0  0  0  0  0  0  0  0  0  0  0
   13.0193   35.0151  -12.3810 O   0  0  0  0  0  0  0  0  0  0  0  0
   13.3172   34.1859  -11.9753 H   0  0  0  0  0  0  0  0  0  0  0  0
   13.5941   37.5994  -12.8352 N   0  0  0  0  0  0  0  0  0  0  0  0
   12.9501   38.0468  -12.1829 H   0  0  0  0  0  0  0  0  0  0  0  0
   14.6339   38.5634  -13.1345 C   0  0  0  0  0  0  0  0  0  0  0  0
   14.6580   39.7224  -12.1549 C   0  0  0  0  0  0  0  0  0  0  0  0
   13.8553   40.6480  -12.2697 O   0  0  0  0  0  0  0  0  0  0  0  0
   15.5240   39.6297  -11.1498 N   0  0  0  0  0  0  0  0  0  0  0  0
   16.1252   38.8507  -11.1163 H   0  0  0  0  0  0  0  0  0  0  0  0
   15.6219   40.6350  -10.0923 C   0  0  0  0  0  0  0  0  0  0  0  0
   18.0461   41.3281  -10.9023 C   0  0  0  0  0  0  0  0  0  0  0  0
   16.6288   41.7717  -10.5202 C   0  0  0  0  0  0  0  0  0  0  0  0
   16.6447   42.9174   -9.4918 C   0  0  0  0  0  0  0  0  0  0  0  0
   17.1592   44.1445  -10.2230 C   0  0  0  0  0  0  0  0  0  0  0  0
   14.3220   39.0829  -14.5452 C   0  0  0  0  0  0  0  0  0  0  0  0
   15.1415   38.4493  -15.6613 C   0  0  0  0  0  0  0  0  0  0  0  0
   16.5152   37.9852  -15.1630 C   0  0  0  0  0  0  0  0  0  0  0  0
   14.3467   37.3119  -16.3382 C   0  0  0  0  0  0  0  0  0  0  0  0
   14.1463   36.4742  -10.3704 C   0  0  0  0  0  0  0  0  0  0  0  0
   13.2031   37.9473   -8.7556 C   0  0  0  0  0  0  0  0  0  0  0  0
   13.1727   37.4685   -9.9991 N   0  0  0  0  0  0  0  0  0  0  0  0
   13.9615   37.5999   -7.8646 O   0  0  0  0  0  0  0  0  0  0  0  0
   12.5026   37.7861  -10.6466 H   0  0  0  0  0  0  0  0  0  0  0  0
   12.2681   38.8830   -8.6157 O   0  0  0  0  0  0  0  0  0  0  0  0
   12.2707   39.6318   -7.3603 C   0  0  0  0  0  0  0  0  0  0  0  0
   12.1264   41.3811   -9.1875 C   0  0  0  0  0  0  0  0  0  0  0  0
   12.3741   42.6410   -9.7151 C   0  0  0  0  0  0  0  0  0  0  0  0
   13.0368   43.6170   -8.9556 C   0  0  0  0  0  0  0  0  0  0  0  0
   12.5522   41.0380   -7.8920 C   0  0  0  0  0  0  0  0  0  0  0  0
   13.4775   43.2494   -7.6740 C   0  0  0  0  0  0  0  0  0  0  0  0
   13.2375   41.9722   -7.1314 C   0  0  0  0  0  0  0  0  0  0  0  0
 32 33  2  0  0  0
 32 30  1  0  0  0
 33 31  1  0  0  0
 30 29  2  0  0  0
 31 27  1  0  0  0
 31 28  2  0  0  0
 29 28  1  0  0  0
 27 26  1  0  0  0
 26 22  1  0  0  0
 22 24  2  0  0  0
 22 23  1  0  0  0
 23 21  1  0  0  0
 21  2  1  0  0  0
  1  2  2  0  0  0
  3  2  1  0  0  0
  2  5  1  0  0  0
 12 10  1  0  0  0
 12 14  1  0  0  0
  5  7  1  0  0  0
 10  8  1  0  0  0
  8  9  2  0  0  0
  8  7  1  0  0  0
 15 16  1  0  0  0
 15 14  1  0  0  0
  7 17  1  0  0  0
 14 13  1  0  0  0
 17 18  1  0  0  0
 19 18  1  0  0  0
 18 20  1  0  0  0
  5  6  1  0  0  0
 10 11  1  0  0  0
  3  4  1  0  0  0
 23 25  1  0  0  0
M  END
> <minimizedAffinity>
-7.16526

$$$$
