2YFE_YFE_A_999


 27 28  0  0  0  0  0  0  0  0999 V2000
   17.1558   20.3247   47.8491 C   0  0  0  0  0  0  0  0  0  0  0  0
   15.7964   20.6323   47.9369 C   0  0  0  0  0  0  0  0  0  0  0  0
   15.3485   21.9130   48.2622 C   0  0  0  0  0  0  0  0  0  0  0  0
   18.0468   21.3619   48.1260 C   0  0  0  0  0  0  0  0  0  0  0  0
   19.3834   21.1200   48.0655 O   0  0  0  0  0  0  0  0  0  0  0  0
   17.6140   22.6496   48.4506 C   0  0  0  0  0  0  0  0  0  0  0  0
   16.2424   22.9356   48.5406 C   0  0  0  0  0  0  0  0  0  0  0  0
   19.6951   20.2631   47.8495 H   0  0  0  0  0  0  0  0  0  0  0  0
   18.6817   23.7238   48.7370 C   0  0  0  0  0  0  0  0  0  0  0  0
   18.8816   24.5777   47.8410 O   0  0  0  0  0  0  0  0  0  0  0  0
   19.3142   23.6759   49.8173 O   0  0  0  0  0  0  0  0  0  0  0  0
   18.3732   24.5590   47.0542 H   0  0  0  0  0  0  0  0  0  0  0  0
   14.8707   19.6609   47.7043 O   0  0  0  0  0  0  0  0  0  0  0  0
   13.5269   20.2122   47.7870 C   0  0  0  0  0  0  0  0  0  0  0  0
   17.6692   18.9067   47.4640 C   0  0  0  0  0  0  0  0  0  0  0  0
   15.8060   17.4256   45.2327 C   0  0  0  0  0  0  0  0  0  0  0  0
   17.1006   18.2326   45.0236 C   0  0  0  0  0  0  0  0  0  0  0  0
   17.6030   18.3972   43.5697 C   0  0  0  0  0  0  0  0  0  0  0  0
   17.8265   18.8443   46.0683 C   0  0  0  0  0  0  0  0  0  0  0  0
   15.6202   24.3046   48.8686 C   0  0  0  0  0  0  0  0  0  0  0  0
   14.6605   24.2858   50.0446 C   0  0  0  0  0  0  0  0  0  0  0  0
   15.1502   25.1642   51.2128 C   0  0  0  0  0  0  0  0  0  0  0  0
   16.5034   25.2758   51.5278 C   0  0  0  0  0  0  0  0  0  0  0  0
   16.9214   26.0842   52.5922 C   0  0  0  0  0  0  0  0  0  0  0  0
   15.9754   26.7792   53.3446 C   0  0  0  0  0  0  0  0  0  0  0  0
   14.6116   26.6717   53.0337 C   0  0  0  0  0  0  0  0  0  0  0  0
   14.2082   25.8636   51.9714 C   0  0  0  0  0  0  0  0  0  0  0  0
 16 17  1  0  0  0
 17 18  1  0  0  0
 17 19  2  0  0  0
 19 15  1  0  0  0
 15  1  1  0  0  0
  1  2  1  0  0  0
  1  4  2  0  0  0
  2  3  2  0  0  0
  2 13  1  0  0  0
  3  7  1  0  0  0
 13 14  1  0  0  0
  4  5  1  0  0  0
  4  6  1  0  0  0
  6  9  1  0  0  0
  6  7  2  0  0  0
  9 10  1  0  0  0
  9 11  2  0  0  0
  7 20  1  0  0  0
 20 21  1  0  0  0
 21 22  1  0  0  0
 22 23  1  0  0  0
 22 27  2  0  0  0
 23 24  2  0  0  0
 24 25  1  0  0  0
 25 26  2  0  0  0
 26 27  1  0  0  0
  5  8  1  0  0  0
 10 12  1  0  0  0
M  END
> <minimizedAffinity>
-8.13233

$$$$
2YFE_YFE_A_999


 27 28  0  0  0  0  0  0  0  0999 V2000
   15.9302   23.4897   48.8491 C   0  0  0  0  0  0  0  0  0  0  0  0
   15.5302   22.1574   48.7255 C   0  0  0  0  0  0  0  0  0  0  0  0
   16.4183   21.1521   48.3420 C   0  0  0  0  0  0  0  0  0  0  0  0
   17.2633   23.7688   48.5470 C   0  0  0  0  0  0  0  0  0  0  0  0
   17.7087   25.0501   48.6404 O   0  0  0  0  0  0  0  0  0  0  0  0
   18.1651   22.7732   48.1641 C   0  0  0  0  0  0  0  0  0  0  0  0
   17.7401   21.4410   48.0389 C   0  0  0  0  0  0  0  0  0  0  0  0
   17.1204   25.7332   48.8955 H   0  0  0  0  0  0  0  0  0  0  0  0
   19.6167   23.1886   47.8541 C   0  0  0  0  0  0  0  0  0  0  0  0
   19.7935   23.9347   46.8621 O   0  0  0  0  0  0  0  0  0  0  0  0
   20.5407   22.7425   48.5728 O   0  0  0  0  0  0  0  0  0  0  0  0
   19.0583   24.2349   46.3647 H   0  0  0  0  0  0  0  0  0  0  0  0
   14.2363   21.8174   48.9802 O   0  0  0  0  0  0  0  0  0  0  0  0
   14.0725   20.3728   48.9257 C   0  0  0  0  0  0  0  0  0  0  0  0
   14.9560   24.6171   49.2990 C   0  0  0  0  0  0  0  0  0  0  0  0
   13.8412   27.0521   51.1624 C   0  0  0  0  0  0  0  0  0  0  0  0
   14.6921   25.8367   51.5741 C   0  0  0  0  0  0  0  0  0  0  0  0
   15.0718   25.7145   53.0690 C   0  0  0  0  0  0  0  0  0  0  0  0
   15.1137   24.8292   50.6799 C   0  0  0  0  0  0  0  0  0  0  0  0
   18.6198   20.2407   47.6461 C   0  0  0  0  0  0  0  0  0  0  0  0
   17.9368   18.8934   47.7966 C   0  0  0  0  0  0  0  0  0  0  0  0
   17.4579   18.3266   46.4455 C   0  0  0  0  0  0  0  0  0  0  0  0
   18.3358   18.1327   45.3803 C   0  0  0  0  0  0  0  0  0  0  0  0
   17.8746   17.6123   44.1647 C   0  0  0  0  0  0  0  0  0  0  0  0
   16.5261   17.2899   44.0184 C   0  0  0  0  0  0  0  0  0  0  0  0
   15.6365   17.4825   45.0861 C   0  0  0  0  0  0  0  0  0  0  0  0
   16.1080   18.0012   46.2914 C   0  0  0  0  0  0  0  0  0  0  0  0
 16 17  1  0  0  0
 17 18  1  0  0  0
 17 19  2  0  0  0
 19 15  1  0  0  0
 15  1  1  0  0  0
  1  2  1  0  0  0
  1  4  2  0  0  0
  2  3  2  0  0  0
  2 13  1  0  0  0
  3  7  1  0  0  0
 13 14  1  0  0  0
  4  5  1  0  0  0
  4  6  1  0  0  0
  6  9  1  0  0  0
  6  7  2  0  0  0
  9 10  1  0  0  0
  9 11  2  0  0  0
  7 20  1  0  0  0
 20 21  1  0  0  0
 21 22  1  0  0  0
 22 23  1  0  0  0
 22 27  2  0  0  0
 23 24  2  0  0  0
 24 25  1  0  0  0
 25 26  2  0  0  0
 26 27  1  0  0  0
  5  8  1  0  0  0
 10 12  1  0  0  0
M  END
> <minimizedAffinity>
-7.76909

$$$$
2YFE_YFE_A_999


 27 28  0  0  0  0  0  0  0  0999 V2000
   18.2122   20.4917   48.0530 C   0  0  0  0  0  0  0  0  0  0  0  0
   19.2991   21.3512   48.2261 C   0  0  0  0  0  0  0  0  0  0  0  0
   19.1360   22.6751   48.6353 C   0  0  0  0  0  0  0  0  0  0  0  0
   16.9483   21.0328   48.2895 C   0  0  0  0  0  0  0  0  0  0  0  0
   15.8510   20.2462   48.1283 O   0  0  0  0  0  0  0  0  0  0  0  0
   16.7688   22.3552   48.7018 C   0  0  0  0  0  0  0  0  0  0  0  0
   17.8750   23.2045   48.8628 C   0  0  0  0  0  0  0  0  0  0  0  0
   15.9490   19.3561   47.8524 H   0  0  0  0  0  0  0  0  0  0  0  0
   15.3292   22.8532   48.9375 C   0  0  0  0  0  0  0  0  0  0  0  0
   14.9522   23.8388   48.2604 O   0  0  0  0  0  0  0  0  0  0  0  0
   14.6256   22.2835   49.8033 O   0  0  0  0  0  0  0  0  0  0  0  0
   15.5280   24.2199   47.6270 H   0  0  0  0  0  0  0  0  0  0  0  0
   20.5606   20.8967   47.9878 O   0  0  0  0  0  0  0  0  0  0  0  0
   21.4810   22.0133   47.8374 C   0  0  0  0  0  0  0  0  0  0  0  0
   18.3814   19.0062   47.6202 C   0  0  0  0  0  0  0  0  0  0  0  0
   15.9723   17.6971   45.8520 C   0  0  0  0  0  0  0  0  0  0  0  0
   17.2652   18.3761   45.3640 C   0  0  0  0  0  0  0  0  0  0  0  0
   17.4720   18.4843   43.8346 C   0  0  0  0  0  0  0  0  0  0  0  0
   18.2429   18.9215   46.2237 C   0  0  0  0  0  0  0  0  0  0  0  0
   17.8331   24.6716   49.3265 C   0  0  0  0  0  0  0  0  0  0  0  0
   18.5357   24.9266   50.6477 C   0  0  0  0  0  0  0  0  0  0  0  0
   17.5706   25.4440   51.7326 C   0  0  0  0  0  0  0  0  0  0  0  0
   16.1901   25.4527   51.5407 C   0  0  0  0  0  0  0  0  0  0  0  0
   15.3356   25.9248   52.5449 C   0  0  0  0  0  0  0  0  0  0  0  0
   15.8714   26.3933   53.7438 C   0  0  0  0  0  0  0  0  0  0  0  0
   17.2600   26.3877   53.9442 C   0  0  0  0  0  0  0  0  0  0  0  0
   18.1000   25.9151   52.9367 C   0  0  0  0  0  0  0  0  0  0  0  0
 16 17  1  0  0  0
 17 18  1  0  0  0
 17 19  2  0  0  0
 19 15  1  0  0  0
 15  1  1  0  0  0
  1  2  1  0  0  0
  1  4  2  0  0  0
  2  3  2  0  0  0
  2 13  1  0  0  0
  3  7  1  0  0  0
 13 14  1  0  0  0
  4  5  1  0  0  0
  4  6  1  0  0  0
  6  9  1  0  0  0
  6  7  2  0  0  0
  9 10  1  0  0  0
  9 11  2  0  0  0
  7 20  1  0  0  0
 20 21  1  0  0  0
 21 22  1  0  0  0
 22 23  1  0  0  0
 22 27  2  0  0  0
 23 24  2  0  0  0
 24 25  1  0  0  0
 25 26  2  0  0  0
 26 27  1  0  0  0
  5  8  1  0  0  0
 10 12  1  0  0  0
M  END
> <minimizedAffinity>
-7.68386

$$$$
2YFE_YFE_A_999


 27 28  0  0  0  0  0  0  0  0999 V2000
   17.8452   22.9061   48.3544 C   0  0  0  0  0  0  0  0  0  0  0  0
   19.0359   22.1800   48.4286 C   0  0  0  0  0  0  0  0  0  0  0  0
   19.0728   20.7996   48.2299 C   0  0  0  0  0  0  0  0  0  0  0  0
   16.6866   22.1744   48.0923 C   0  0  0  0  0  0  0  0  0  0  0  0
   15.4954   22.8258   48.0175 O   0  0  0  0  0  0  0  0  0  0  0  0
   16.7076   20.7927   47.8888 C   0  0  0  0  0  0  0  0  0  0  0  0
   17.9147   20.0811   47.9751 C   0  0  0  0  0  0  0  0  0  0  0  0
   15.4590   23.7525   48.1508 H   0  0  0  0  0  0  0  0  0  0  0  0
   15.3706   20.0804   47.6039 C   0  0  0  0  0  0  0  0  0  0  0  0
   14.4447   20.2610   48.4297 O   0  0  0  0  0  0  0  0  0  0  0  0
   15.2818   19.3394   46.5978 O   0  0  0  0  0  0  0  0  0  0  0  0
   14.5752   20.8293   49.1631 H   0  0  0  0  0  0  0  0  0  0  0  0
   20.2017   22.8268   48.7065 O   0  0  0  0  0  0  0  0  0  0  0  0
   20.9874   22.9971   47.4939 C   0  0  0  0  0  0  0  0  0  0  0  0
   17.7931   24.4493   48.5502 C   0  0  0  0  0  0  0  0  0  0  0  0
   20.0771   26.0675   50.2260 C   0  0  0  0  0  0  0  0  0  0  0  0
   18.7882   25.4060   50.7474 C   0  0  0  0  0  0  0  0  0  0  0  0
   18.4986   25.5213   52.2627 C   0  0  0  0  0  0  0  0  0  0  0  0
   17.8575   24.7349   49.9253 C   0  0  0  0  0  0  0  0  0  0  0  0
   18.0939   18.5679   47.7579 C   0  0  0  0  0  0  0  0  0  0  0  0
   19.4853   18.1652   47.3039 C   0  0  0  0  0  0  0  0  0  0  0  0
   19.4842   17.5536   45.8890 C   0  0  0  0  0  0  0  0  0  0  0  0
   20.5462   16.7790   45.4252 C   0  0  0  0  0  0  0  0  0  0  0  0
   20.5176   16.2319   44.1364 C   0  0  0  0  0  0  0  0  0  0  0  0
   19.4197   16.4678   43.3101 C   0  0  0  0  0  0  0  0  0  0  0  0
   18.3470   17.2465   43.7698 C   0  0  0  0  0  0  0  0  0  0  0  0
   18.3875   17.7855   45.0551 C   0  0  0  0  0  0  0  0  0  0  0  0
 16 17  1  0  0  0
 17 18  1  0  0  0
 17 19  2  0  0  0
 19 15  1  0  0  0
 15  1  1  0  0  0
  1  2  1  0  0  0
  1  4  2  0  0  0
  2  3  2  0  0  0
  2 13  1  0  0  0
  3  7  1  0  0  0
 13 14  1  0  0  0
  4  5  1  0  0  0
  4  6  1  0  0  0
  6  9  1  0  0  0
  6  7  2  0  0  0
  9 10  1  0  0  0
  9 11  2  0  0  0
  7 20  1  0  0  0
 20 21  1  0  0  0
 21 22  1  0  0  0
 22 23  1  0  0  0
 22 27  2  0  0  0
 23 24  2  0  0  0
 24 25  1  0  0  0
 25 26  2  0  0  0
 26 27  1  0  0  0
  5  8  1  0  0  0
 10 12  1  0  0  0
M  END
> <minimizedAffinity>
-7.62346

$$$$
2YFE_YFE_A_999


 27 28  0  0  0  0  0  0  0  0999 V2000
   17.4650   19.3131   47.5416 C   0  0  0  0  0  0  0  0  0  0  0  0
   18.8127   19.6538   47.6755 C   0  0  0  0  0  0  0  0  0  0  0  0
   19.2152   20.8972   48.1640 C   0  0  0  0  0  0  0  0  0  0  0  0
   16.5380   20.2915   47.9016 C   0  0  0  0  0  0  0  0  0  0  0  0
   15.2107   20.0207   47.7840 O   0  0  0  0  0  0  0  0  0  0  0  0
   16.9250   21.5399   48.3943 C   0  0  0  0  0  0  0  0  0  0  0  0
   18.2857   21.8646   48.5142 C   0  0  0  0  0  0  0  0  0  0  0  0
   14.9295   19.1894   47.4557 H   0  0  0  0  0  0  0  0  0  0  0  0
   15.8201   22.5487   48.7646 C   0  0  0  0  0  0  0  0  0  0  0  0
   15.1671   23.0476   47.8177 O   0  0  0  0  0  0  0  0  0  0  0  0
   15.6504   22.8455   49.9698 O   0  0  0  0  0  0  0  0  0  0  0  0
   15.3430   22.7823   46.9364 H   0  0  0  0  0  0  0  0  0  0  0  0
   19.7721   18.7557   47.3184 O   0  0  0  0  0  0  0  0  0  0  0  0
   20.9470   18.9075   48.1630 C   0  0  0  0  0  0  0  0  0  0  0  0
   17.0020   17.9213   47.0208 C   0  0  0  0  0  0  0  0  0  0  0  0
   18.9625   17.1893   44.5178 C   0  0  0  0  0  0  0  0  0  0  0  0
   17.5242   17.7380   44.4857 C   0  0  0  0  0  0  0  0  0  0  0  0
   16.8870   17.9675   43.0946 C   0  0  0  0  0  0  0  0  0  0  0  0
   16.7581   18.0118   45.6391 C   0  0  0  0  0  0  0  0  0  0  0  0
   18.8592   23.1865   49.0550 C   0  0  0  0  0  0  0  0  0  0  0  0
   19.1141   24.2364   47.9887 C   0  0  0  0  0  0  0  0  0  0  0  0
   20.6182   24.4841   47.7601 C   0  0  0  0  0  0  0  0  0  0  0  0
   21.4862   23.4503   47.4127 C   0  0  0  0  0  0  0  0  0  0  0  0
   22.8480   23.7041   47.2070 C   0  0  0  0  0  0  0  0  0  0  0  0
   23.3391   25.0006   47.3551 C   0  0  0  0  0  0  0  0  0  0  0  0
   22.4716   26.0463   47.7047 C   0  0  0  0  0  0  0  0  0  0  0  0
   21.1178   25.7807   47.9067 C   0  0  0  0  0  0  0  0  0  0  0  0
 16 17  1  0  0  0
 17 18  1  0  0  0
 17 19  2  0  0  0
 19 15  1  0  0  0
 15  1  1  0  0  0
  1  2  1  0  0  0
  1  4  2  0  0  0
  2  3  2  0  0  0
  2 13  1  0  0  0
  3  7  1  0  0  0
 13 14  1  0  0  0
  4  5  1  0  0  0
  4  6  1  0  0  0
  6  9  1  0  0  0
  6  7  2  0  0  0
  9 10  1  0  0  0
  9 11  2  0  0  0
  7 20  1  0  0  0
 20 21  1  0  0  0
 21 22  1  0  0  0
 22 23  1  0  0  0
 22 27  2  0  0  0
 23 24  2  0  0  0
 24 25  1  0  0  0
 25 26  2  0  0  0
 26 27  1  0  0  0
  5  8  1  0  0  0
 10 12  1  0  0  0
M  END
> <minimizedAffinity>
-7.50934

$$$$
2YFE_YFE_A_999


 27 28  0  0  0  0  0  0  0  0999 V2000
   17.5639   22.6149   48.1818 C   0  0  0  0  0  0  0  0  0  0  0  0
   18.6943   22.9000   48.9507 C   0  0  0  0  0  0  0  0  0  0  0  0
   18.6594   23.8132   50.0049 C   0  0  0  0  0  0  0  0  0  0  0  0
   16.3988   23.3092   48.5087 C   0  0  0  0  0  0  0  0  0  0  0  0
   15.2681   23.0803   47.7891 O   0  0  0  0  0  0  0  0  0  0  0  0
   16.3473   24.2245   49.5625 C   0  0  0  0  0  0  0  0  0  0  0  0
   17.4975   24.5017   50.3184 C   0  0  0  0  0  0  0  0  0  0  0  0
   15.2808   22.4702   47.0780 H   0  0  0  0  0  0  0  0  0  0  0  0
   15.0089   24.9365   49.8411 C   0  0  0  0  0  0  0  0  0  0  0  0
   14.6263   25.7768   48.9929 O   0  0  0  0  0  0  0  0  0  0  0  0
   14.3923   24.6740   50.8995 O   0  0  0  0  0  0  0  0  0  0  0  0
   15.1343   25.9269   48.2200 H   0  0  0  0  0  0  0  0  0  0  0  0
   19.8727   22.2775   48.6704 O   0  0  0  0  0  0  0  0  0  0  0  0
   20.7543   23.1706   47.9344 C   0  0  0  0  0  0  0  0  0  0  0  0
   17.5827   21.5810   47.0185 C   0  0  0  0  0  0  0  0  0  0  0  0
   19.2940   18.8902   47.7073 C   0  0  0  0  0  0  0  0  0  0  0  0
   17.7764   19.1223   47.8248 C   0  0  0  0  0  0  0  0  0  0  0  0
   16.9213   17.9469   48.3547 C   0  0  0  0  0  0  0  0  0  0  0  0
   17.1374   20.3400   47.5067 C   0  0  0  0  0  0  0  0  0  0  0  0
   17.5873   25.4672   51.5137 C   0  0  0  0  0  0  0  0  0  0  0  0
   18.1417   26.8370   51.1664 C   0  0  0  0  0  0  0  0  0  0  0  0
   17.0709   27.7637   50.5576 C   0  0  0  0  0  0  0  0  0  0  0  0
   17.1443   28.1976   49.2350 C   0  0  0  0  0  0  0  0  0  0  0  0
   16.1553   29.0363   48.7060 C   0  0  0  0  0  0  0  0  0  0  0  0
   15.0918   29.4432   49.5105 C   0  0  0  0  0  0  0  0  0  0  0  0
   15.0113   29.0107   50.8427 C   0  0  0  0  0  0  0  0  0  0  0  0
   16.0021   28.1757   51.3576 C   0  0  0  0  0  0  0  0  0  0  0  0
 16 17  1  0  0  0
 17 18  1  0  0  0
 17 19  2  0  0  0
 19 15  1  0  0  0
 15  1  1  0  0  0
  1  2  1  0  0  0
  1  4  2  0  0  0
  2  3  2  0  0  0
  2 13  1  0  0  0
  3  7  1  0  0  0
 13 14  1  0  0  0
  4  5  1  0  0  0
  4  6  1  0  0  0
  6  9  1  0  0  0
  6  7  2  0  0  0
  9 10  1  0  0  0
  9 11  2  0  0  0
  7 20  1  0  0  0
 20 21  1  0  0  0
 21 22  1  0  0  0
 22 23  1  0  0  0
 22 27  2  0  0  0
 23 24  2  0  0  0
 24 25  1  0  0  0
 25 26  2  0  0  0
 26 27  1  0  0  0
  5  8  1  0  0  0
 10 12  1  0  0  0
M  END
> <minimizedAffinity>
-7.49491

$$$$
2YFE_YFE_A_999


 27 28  0  0  0  0  0  0  0  0999 V2000
   17.2690   20.0708   47.3723 C   0  0  0  0  0  0  0  0  0  0  0  0
   17.6542   21.3850   47.6457 C   0  0  0  0  0  0  0  0  0  0  0  0
   16.8295   22.2658   48.3462 C   0  0  0  0  0  0  0  0  0  0  0  0
   16.0034   19.6887   47.8178 C   0  0  0  0  0  0  0  0  0  0  0  0
   15.5696   18.4236   47.5727 O   0  0  0  0  0  0  0  0  0  0  0  0
   15.1673   20.5579   48.5223 C   0  0  0  0  0  0  0  0  0  0  0  0
   15.5712   21.8775   48.7801 C   0  0  0  0  0  0  0  0  0  0  0  0
   16.1148   17.8244   47.1018 H   0  0  0  0  0  0  0  0  0  0  0  0
   13.7885   20.0348   48.9709 C   0  0  0  0  0  0  0  0  0  0  0  0
   13.7391   19.4395   50.0732 O   0  0  0  0  0  0  0  0  0  0  0  0
   12.8043   20.1944   48.2124 O   0  0  0  0  0  0  0  0  0  0  0  0
   14.5129   19.3537   50.5944 H   0  0  0  0  0  0  0  0  0  0  0  0
   18.8668   21.8333   47.2177 O   0  0  0  0  0  0  0  0  0  0  0  0
   19.4172   22.7885   48.1671 C   0  0  0  0  0  0  0  0  0  0  0  0
   18.1886   19.0706   46.6129 C   0  0  0  0  0  0  0  0  0  0  0  0
   19.2303   17.0573   44.2665 C   0  0  0  0  0  0  0  0  0  0  0  0
   17.9428   17.9007   44.3099 C   0  0  0  0  0  0  0  0  0  0  0  0
   16.9834   17.7873   43.1014 C   0  0  0  0  0  0  0  0  0  0  0  0
   17.5831   18.7367   45.3888 C   0  0  0  0  0  0  0  0  0  0  0  0
   14.7685   22.9374   49.5558 C   0  0  0  0  0  0  0  0  0  0  0  0
   15.2035   24.3667   49.2870 C   0  0  0  0  0  0  0  0  0  0  0  0
   14.9393   25.2939   50.4897 C   0  0  0  0  0  0  0  0  0  0  0  0
   15.3644   24.9645   51.7756 C   0  0  0  0  0  0  0  0  0  0  0  0
   15.1145   25.8274   52.8500 C   0  0  0  0  0  0  0  0  0  0  0  0
   14.4316   27.0231   52.6312 C   0  0  0  0  0  0  0  0  0  0  0  0
   14.0005   27.3614   51.3397 C   0  0  0  0  0  0  0  0  0  0  0  0
   14.2555   26.4939   50.2784 C   0  0  0  0  0  0  0  0  0  0  0  0
 16 17  1  0  0  0
 17 18  1  0  0  0
 17 19  2  0  0  0
 19 15  1  0  0  0
 15  1  1  0  0  0
  1  2  1  0  0  0
  1  4  2  0  0  0
  2  3  2  0  0  0
  2 13  1  0  0  0
  3  7  1  0  0  0
 13 14  1  0  0  0
  4  5  1  0  0  0
  4  6  1  0  0  0
  6  9  1  0  0  0
  6  7  2  0  0  0
  9 10  1  0  0  0
  9 11  2  0  0  0
  7 20  1  0  0  0
 20 21  1  0  0  0
 21 22  1  0  0  0
 22 23  1  0  0  0
 22 27  2  0  0  0
 23 24  2  0  0  0
 24 25  1  0  0  0
 25 26  2  0  0  0
 26 27  1  0  0  0
  5  8  1  0  0  0
 10 12  1  0  0  0
M  END
> <minimizedAffinity>
-7.42941

$$$$
2YFE_YFE_A_999


 27 28  0  0  0  0  0  0  0  0999 V2000
   16.5959   20.9501   47.1356 C   0  0  0  0  0  0  0  0  0  0  0  0
   15.3844   20.8080   47.8155 C   0  0  0  0  0  0  0  0  0  0  0  0
   15.0149   21.6644   48.8531 C   0  0  0  0  0  0  0  0  0  0  0  0
   17.4311   21.9825   47.5633 C   0  0  0  0  0  0  0  0  0  0  0  0
   18.6284   22.1641   46.9450 O   0  0  0  0  0  0  0  0  0  0  0  0
   17.0744   22.8494   48.5986 C   0  0  0  0  0  0  0  0  0  0  0  0
   15.8546   22.6843   49.2738 C   0  0  0  0  0  0  0  0  0  0  0  0
   18.8872   21.5938   46.2481 H   0  0  0  0  0  0  0  0  0  0  0  0
   18.0697   23.9586   48.9923 C   0  0  0  0  0  0  0  0  0  0  0  0
   18.2327   24.8919   48.1711 O   0  0  0  0  0  0  0  0  0  0  0  0
   18.6853   23.8618   50.0790 O   0  0  0  0  0  0  0  0  0  0  0  0
   17.7399   24.9062   47.3743 H   0  0  0  0  0  0  0  0  0  0  0  0
   14.5314   19.8050   47.4673 O   0  0  0  0  0  0  0  0  0  0  0  0
   13.1708   20.1389   47.8594 C   0  0  0  0  0  0  0  0  0  0  0  0
   17.0100   20.0169   45.9607 C   0  0  0  0  0  0  0  0  0  0  0  0
   17.1703   17.7043   48.2564 C   0  0  0  0  0  0  0  0  0  0  0  0
   18.2903   18.2306   47.3403 C   0  0  0  0  0  0  0  0  0  0  0  0
   19.6879   17.5843   47.4910 C   0  0  0  0  0  0  0  0  0  0  0  0
   18.1062   19.2355   46.3663 C   0  0  0  0  0  0  0  0  0  0  0  0
   15.3221   23.5685   50.4156 C   0  0  0  0  0  0  0  0  0  0  0  0
   14.7783   24.9108   49.9609 C   0  0  0  0  0  0  0  0  0  0  0  0
   14.5410   25.8750   51.1399 C   0  0  0  0  0  0  0  0  0  0  0  0
   15.0736   25.6303   52.4046 C   0  0  0  0  0  0  0  0  0  0  0  0
   14.8457   26.5254   53.4573 C   0  0  0  0  0  0  0  0  0  0  0  0
   14.0766   27.6676   53.2387 C   0  0  0  0  0  0  0  0  0  0  0  0
   13.5371   27.9205   51.9685 C   0  0  0  0  0  0  0  0  0  0  0  0
   13.7713   27.0217   50.9286 C   0  0  0  0  0  0  0  0  0  0  0  0
 16 17  1  0  0  0
 17 18  1  0  0  0
 17 19  2  0  0  0
 19 15  1  0  0  0
 15  1  1  0  0  0
  1  2  1  0  0  0
  1  4  2  0  0  0
  2  3  2  0  0  0
  2 13  1  0  0  0
  3  7  1  0  0  0
 13 14  1  0  0  0
  4  5  1  0  0  0
  4  6  1  0  0  0
  6  9  1  0  0  0
  6  7  2  0  0  0
  9 10  1  0  0  0
  9 11  2  0  0  0
  7 20  1  0  0  0
 20 21  1  0  0  0
 21 22  1  0  0  0
 22 23  1  0  0  0
 22 27  2  0  0  0
 23 24  2  0  0  0
 24 25  1  0  0  0
 25 26  2  0  0  0
 26 27  1  0  0  0
  5  8  1  0  0  0
 10 12  1  0  0  0
M  END
> <minimizedAffinity>
-7.42348

$$$$
2YFE_YFE_A_999


 27 28  0  0  0  0  0  0  0  0999 V2000
   17.6593   22.3182   47.9983 C   0  0  0  0  0  0  0  0  0  0  0  0
   18.8728   22.7258   48.5566 C   0  0  0  0  0  0  0  0  0  0  0  0
   18.9609   23.8272   49.4085 C   0  0  0  0  0  0  0  0  0  0  0  0
   16.5389   23.0849   48.3196 C   0  0  0  0  0  0  0  0  0  0  0  0
   15.3308   22.7420   47.7983 O   0  0  0  0  0  0  0  0  0  0  0  0
   16.6105   24.1886   49.1726 C   0  0  0  0  0  0  0  0  0  0  0  0
   17.8421   24.5856   49.7173 C   0  0  0  0  0  0  0  0  0  0  0  0
   15.2606   22.0050   47.2239 H   0  0  0  0  0  0  0  0  0  0  0  0
   15.3121   24.9666   49.4639 C   0  0  0  0  0  0  0  0  0  0  0  0
   15.2605   26.1537   49.0638 O   0  0  0  0  0  0  0  0  0  0  0  0
   14.3977   24.3997   50.1055 O   0  0  0  0  0  0  0  0  0  0  0  0
   15.9800   26.5194   48.5878 H   0  0  0  0  0  0  0  0  0  0  0  0
   20.0117   22.0383   48.2652 O   0  0  0  0  0  0  0  0  0  0  0  0
   21.0498   22.9493   47.8078 C   0  0  0  0  0  0  0  0  0  0  0  0
   17.5426   21.0775   47.0657 C   0  0  0  0  0  0  0  0  0  0  0  0
   17.6732   17.9123   47.8454 C   0  0  0  0  0  0  0  0  0  0  0  0
   16.4699   18.8707   47.9096 C   0  0  0  0  0  0  0  0  0  0  0  0
   15.1319   18.2904   48.4260 C   0  0  0  0  0  0  0  0  0  0  0  0
   16.5284   20.2357   47.5549 C   0  0  0  0  0  0  0  0  0  0  0  0
   18.0708   25.7633   50.6815 C   0  0  0  0  0  0  0  0  0  0  0  0
   18.3581   25.3483   52.1131 C   0  0  0  0  0  0  0  0  0  0  0  0
   17.3085   25.8935   53.1016 C   0  0  0  0  0  0  0  0  0  0  0  0
   17.6204   26.1433   54.4369 C   0  0  0  0  0  0  0  0  0  0  0  0
   16.6483   26.6426   55.3128 C   0  0  0  0  0  0  0  0  0  0  0  0
   15.3578   26.8874   54.8454 C   0  0  0  0  0  0  0  0  0  0  0  0
   15.0363   26.6383   53.5026 C   0  0  0  0  0  0  0  0  0  0  0  0
   16.0131   26.1414   52.6406 C   0  0  0  0  0  0  0  0  0  0  0  0
 16 17  1  0  0  0
 17 18  1  0  0  0
 17 19  2  0  0  0
 19 15  1  0  0  0
 15  1  1  0  0  0
  1  2  1  0  0  0
  1  4  2  0  0  0
  2  3  2  0  0  0
  2 13  1  0  0  0
  3  7  1  0  0  0
 13 14  1  0  0  0
  4  5  1  0  0  0
  4  6  1  0  0  0
  6  9  1  0  0  0
  6  7  2  0  0  0
  9 10  1  0  0  0
  9 11  2  0  0  0
  7 20  1  0  0  0
 20 21  1  0  0  0
 21 22  1  0  0  0
 22 23  1  0  0  0
 22 27  2  0  0  0
 23 24  2  0  0  0
 24 25  1  0  0  0
 25 26  2  0  0  0
 26 27  1  0  0  0
  5  8  1  0  0  0
 10 12  1  0  0  0
M  END
> <minimizedAffinity>
-7.33730

$$$$
2YFE_YFE_A_999


 27 28  0  0  0  0  0  0  0  0999 V2000
   17.6091   25.6270   50.3216 C   0  0  0  0  0  0  0  0  0  0  0  0
   16.8860   24.4325   50.3437 C   0  0  0  0  0  0  0  0  0  0  0  0
   17.3207   23.2933   49.6656 C   0  0  0  0  0  0  0  0  0  0  0  0
   18.7817   25.6296   49.5657 C   0  0  0  0  0  0  0  0  0  0  0  0
   19.5234   26.7672   49.4990 O   0  0  0  0  0  0  0  0  0  0  0  0
   19.2312   24.4968   48.8833 C   0  0  0  0  0  0  0  0  0  0  0  0
   18.4849   23.3080   48.9129 C   0  0  0  0  0  0  0  0  0  0  0  0
   19.2399   27.5385   49.9493 H   0  0  0  0  0  0  0  0  0  0  0  0
   20.5411   24.6063   48.0783 C   0  0  0  0  0  0  0  0  0  0  0  0
   21.6037   24.7101   48.7357 O   0  0  0  0  0  0  0  0  0  0  0  0
   20.4833   24.6213   46.8270 O   0  0  0  0  0  0  0  0  0  0  0  0
   21.5790   24.6915   49.6722 H   0  0  0  0  0  0  0  0  0  0  0  0
   15.7181   24.3662   51.0411 O   0  0  0  0  0  0  0  0  0  0  0  0
   14.5830   24.3999   50.1318 C   0  0  0  0  0  0  0  0  0  0  0  0
   17.1482   26.8980   51.0929 C   0  0  0  0  0  0  0  0  0  0  0  0
   15.1835   26.6549   53.6861 C   0  0  0  0  0  0  0  0  0  0  0  0
   16.7226   26.6466   53.6402 C   0  0  0  0  0  0  0  0  0  0  0  0
   17.4682   26.4849   54.9861 C   0  0  0  0  0  0  0  0  0  0  0  0
   17.4771   26.7487   52.4516 C   0  0  0  0  0  0  0  0  0  0  0  0
   18.8623   21.9821   48.2283 C   0  0  0  0  0  0  0  0  0  0  0  0
   17.9328   21.5793   47.0978 C   0  0  0  0  0  0  0  0  0  0  0  0
   17.2337   20.2323   47.3678 C   0  0  0  0  0  0  0  0  0  0  0  0
   17.9574   19.0545   47.5461 C   0  0  0  0  0  0  0  0  0  0  0  0
   17.2967   17.8447   47.7941 C   0  0  0  0  0  0  0  0  0  0  0  0
   15.9043   17.8187   47.8588 C   0  0  0  0  0  0  0  0  0  0  0  0
   15.1691   19.0002   47.6802 C   0  0  0  0  0  0  0  0  0  0  0  0
   15.8385   20.1983   47.4341 C   0  0  0  0  0  0  0  0  0  0  0  0
 16 17  1  0  0  0
 17 18  1  0  0  0
 17 19  2  0  0  0
 19 15  1  0  0  0
 15  1  1  0  0  0
  1  2  1  0  0  0
  1  4  2  0  0  0
  2  3  2  0  0  0
  2 13  1  0  0  0
  3  7  1  0  0  0
 13 14  1  0  0  0
  4  5  1  0  0  0
  4  6  1  0  0  0
  6  9  1  0  0  0
  6  7  2  0  0  0
  9 10  1  0  0  0
  9 11  2  0  0  0
  7 20  1  0  0  0
 20 21  1  0  0  0
 21 22  1  0  0  0
 22 23  1  0  0  0
 22 27  2  0  0  0
 23 24  2  0  0  0
 24 25  1  0  0  0
 25 26  2  0  0  0
 26 27  1  0  0  0
  5  8  1  0  0  0
 10 12  1  0  0  0
M  END
> <minimizedAffinity>
-7.29323

$$$$
