2ZDN_49U_A_501


 31 33  0  0  0  0  0  0  0  0999 V2000
  -26.4653    1.7221   13.8530 C   0  0  0  0  0  0  0  0  0  0  0  0
  -26.6458    2.9258   13.7829 O   0  0  0  0  0  0  0  0  0  0  0  0
  -25.2413    1.2978   13.7613 N   0  0  0  0  0  0  0  0  0  0  0  0
  -25.1100    0.3283   13.8705 H   0  0  0  0  0  0  0  0  0  0  0  0
  -27.7329    1.0861   16.4836 C   0  0  0  0  0  0  0  0  0  0  0  0
  -26.5108    1.0132   16.5549 O   0  0  0  0  0  0  0  0  0  0  0  0
  -28.3462    1.0399   15.3058 N   0  0  0  0  0  0  0  0  0  0  0  0
  -27.6109    0.7874   14.0733 C   0  0  0  0  0  0  0  0  0  0  0  0
  -28.7026    1.0045   13.0463 C   0  0  0  0  0  0  0  0  0  0  0  0
  -30.0684    0.8526   13.6716 C   0  0  0  0  0  0  0  0  0  0  0  0
  -29.7928    1.2488   15.1070 C   0  0  0  0  0  0  0  0  0  0  0  0
  -28.6143    1.2332   17.6703 C   0  0  0  0  0  0  0  0  0  0  0  0
  -28.1861    0.3705   18.8148 C   0  0  0  0  0  0  0  0  0  0  0  0
  -30.8191   -2.3802   18.5891 C   0  0  0  0  0  0  0  0  0  0  0  0
  -30.1518   -1.1465   17.9077 C   0  0  0  0  0  0  0  0  0  0  0  0
  -28.7359   -1.0333   18.5520 C   0  0  0  0  0  0  0  0  0  0  0  0
  -28.9080   -1.7031   19.9389 C   0  0  0  0  0  0  0  0  0  0  0  0
  -29.9192   -2.8437   19.7320 C   0  0  0  0  0  0  0  0  0  0  0  0
  -24.0730    2.0613   13.5232 C   0  0  0  0  0  0  0  0  0  0  0  0
  -22.9840    1.7992   14.4870 C   0  0  0  0  0  0  0  0  0  0  0  0
  -21.8159    1.1883   14.1466 C   0  0  0  0  0  0  0  0  0  0  0  0
  -20.8346    0.9740   15.1076 C   0  0  0  0  0  0  0  0  0  0  0  0
  -20.9954    1.3628   16.4206 C   0  0  0  0  0  0  0  0  0  0  0  0
  -22.1927    1.9843   16.7519 C   0  0  0  0  0  0  0  0  0  0  0  0
  -23.1912    2.2079   15.8012 C   0  0  0  0  0  0  0  0  0  0  0  0
  -19.9368    1.1324   17.4616 C   0  0  0  0  0  0  0  0  0  0  0  0
  -18.9474    0.2830   17.2268 N   0  0  0  0  0  0  0  0  0  0  0  0
  -19.9930    1.7773   18.6149 N   0  0  0  0  0  0  0  0  0  0  0  0
  -18.9045   -0.1977   16.3687 H   0  0  0  0  0  0  0  0  0  0  0  0
  -20.7276    2.4087   18.7906 H   0  0  0  0  0  0  0  0  0  0  0  0
  -19.3001    1.6260   19.2977 H   0  0  0  0  0  0  0  0  0  0  0  0
  9 10  1  0  0  0
  9  8  1  0  0  0
 19  3  1  0  0  0
 19 20  1  0  0  0
  3  1  1  0  0  0
 10 11  1  0  0  0
 25 20  2  0  0  0
 25 24  1  0  0  0
  1  2  2  0  0  0
  1  8  1  0  0  0
  8  7  1  0  0  0
 20 21  1  0  0  0
 24 23  2  0  0  0
 11  7  1  0  0  0
  7  5  1  0  0  0
 21 22  2  0  0  0
 23 22  1  0  0  0
 23 26  1  0  0  0
  5  6  2  0  0  0
  5 12  1  0  0  0
 28 26  1  0  0  0
 26 27  2  0  0  0
 12 13  1  0  0  0
 15 16  1  0  0  0
 15 14  1  0  0  0
 16 13  1  0  0  0
 16 17  1  0  0  0
 14 18  1  0  0  0
 18 17  1  0  0  0
  3  4  1  0  0  0
 27 29  1  0  0  0
 28 30  1  0  0  0
 28 31  1  0  0  0
M  END
> <minimizedAffinity>
-8.94928

$$$$
2ZDN_49U_A_501


 31 33  0  0  0  0  0  0  0  0999 V2000
  -26.1719    2.0843   13.4151 C   0  0  0  0  0  0  0  0  0  0  0  0
  -26.3171    3.2946   13.3981 O   0  0  0  0  0  0  0  0  0  0  0  0
  -24.9547    1.6313   13.4239 N   0  0  0  0  0  0  0  0  0  0  0  0
  -24.8571    0.6538   13.4884 H   0  0  0  0  0  0  0  0  0  0  0  0
  -27.5472    1.1157   15.8852 C   0  0  0  0  0  0  0  0  0  0  0  0
  -26.3313    0.9867   15.9792 O   0  0  0  0  0  0  0  0  0  0  0  0
  -28.1220    1.2671   14.6968 N   0  0  0  0  0  0  0  0  0  0  0  0
  -27.3548    1.1715   13.4616 C   0  0  0  0  0  0  0  0  0  0  0  0
  -28.4036    1.5790   12.4480 C   0  0  0  0  0  0  0  0  0  0  0  0
  -29.7938    1.3885   13.0051 C   0  0  0  0  0  0  0  0  0  0  0  0
  -29.5534    1.5579   14.4906 C   0  0  0  0  0  0  0  0  0  0  0  0
  -28.4624    1.1194   17.0553 C   0  0  0  0  0  0  0  0  0  0  0  0
  -29.2446   -0.1497   17.1773 C   0  0  0  0  0  0  0  0  0  0  0  0
  -29.2791   -2.3448   20.2966 C   0  0  0  0  0  0  0  0  0  0  0  0
  -29.3376   -2.2800   18.7397 C   0  0  0  0  0  0  0  0  0  0  0  0
  -28.6576   -0.9299   18.3558 C   0  0  0  0  0  0  0  0  0  0  0  0
  -28.8610   -0.0451   19.6118 C   0  0  0  0  0  0  0  0  0  0  0  0
  -28.7784   -0.9992   20.8156 C   0  0  0  0  0  0  0  0  0  0  0  0
  -23.7513    2.3735   13.3518 C   0  0  0  0  0  0  0  0  0  0  0  0
  -22.7484    1.9811   14.3637 C   0  0  0  0  0  0  0  0  0  0  0  0
  -21.8148    1.0126   14.1541 C   0  0  0  0  0  0  0  0  0  0  0  0
  -20.9017    0.6957   15.1531 C   0  0  0  0  0  0  0  0  0  0  0  0
  -20.8991    1.3344   16.3750 C   0  0  0  0  0  0  0  0  0  0  0  0
  -21.8580    2.3197   16.5734 C   0  0  0  0  0  0  0  0  0  0  0  0
  -22.7846    2.6521   15.5825 C   0  0  0  0  0  0  0  0  0  0  0  0
  -19.9137    0.9939   17.4569 C   0  0  0  0  0  0  0  0  0  0  0  0
  -18.9053    0.1728   17.2030 N   0  0  0  0  0  0  0  0  0  0  0  0
  -20.0534    1.5135   18.6651 N   0  0  0  0  0  0  0  0  0  0  0  0
  -18.8002   -0.2146   16.3041 H   0  0  0  0  0  0  0  0  0  0  0  0
  -20.8022    2.1237   18.8550 H   0  0  0  0  0  0  0  0  0  0  0  0
  -19.4085    1.2900   19.3746 H   0  0  0  0  0  0  0  0  0  0  0  0
  9 10  1  0  0  0
  9  8  1  0  0  0
 19  3  1  0  0  0
 19 20  1  0  0  0
  3  1  1  0  0  0
 10 11  1  0  0  0
 25 20  2  0  0  0
 25 24  1  0  0  0
  1  2  2  0  0  0
  1  8  1  0  0  0
  8  7  1  0  0  0
 20 21  1  0  0  0
 24 23  2  0  0  0
 11  7  1  0  0  0
  7  5  1  0  0  0
 21 22  2  0  0  0
 23 22  1  0  0  0
 23 26  1  0  0  0
  5  6  2  0  0  0
  5 12  1  0  0  0
 28 26  1  0  0  0
 26 27  2  0  0  0
 12 13  1  0  0  0
 15 16  1  0  0  0
 15 14  1  0  0  0
 16 13  1  0  0  0
 16 17  1  0  0  0
 14 18  1  0  0  0
 18 17  1  0  0  0
  3  4  1  0  0  0
 27 29  1  0  0  0
 28 30  1  0  0  0
 28 31  1  0  0  0
M  END
> <minimizedAffinity>
-8.45094

$$$$
2ZDN_49U_A_501


 31 33  0  0  0  0  0  0  0  0999 V2000
  -26.4110    2.2574   13.3111 C   0  0  0  0  0  0  0  0  0  0  0  0
  -26.3930    1.7863   12.1868 O   0  0  0  0  0  0  0  0  0  0  0  0
  -25.2694    2.4048   13.9126 N   0  0  0  0  0  0  0  0  0  0  0  0
  -25.2991    2.8328   14.7987 H   0  0  0  0  0  0  0  0  0  0  0  0
  -27.5270    1.2174   15.8810 C   0  0  0  0  0  0  0  0  0  0  0  0
  -27.1620    0.2983   15.1557 O   0  0  0  0  0  0  0  0  0  0  0  0
  -27.7567    2.4258   15.3785 N   0  0  0  0  0  0  0  0  0  0  0  0
  -27.6977    2.6787   13.9446 C   0  0  0  0  0  0  0  0  0  0  0  0
  -27.8560    4.1845   13.9188 C   0  0  0  0  0  0  0  0  0  0  0  0
  -28.5008    4.6803   15.1908 C   0  0  0  0  0  0  0  0  0  0  0  0
  -28.0712    3.6210   16.1839 C   0  0  0  0  0  0  0  0  0  0  0  0
  -27.7352    1.0715   17.3446 C   0  0  0  0  0  0  0  0  0  0  0  0
  -29.1701    0.8451   17.7012 C   0  0  0  0  0  0  0  0  0  0  0  0
  -30.7903   -2.4892   18.5995 C   0  0  0  0  0  0  0  0  0  0  0  0
  -30.8900   -1.1603   17.7899 C   0  0  0  0  0  0  0  0  0  0  0  0
  -29.4208   -0.6628   17.6280 C   0  0  0  0  0  0  0  0  0  0  0  0
  -28.6848   -1.2886   18.8399 C   0  0  0  0  0  0  0  0  0  0  0  0
  -29.3489   -2.6562   19.0743 C   0  0  0  0  0  0  0  0  0  0  0  0
  -23.9874    2.0241   13.4479 C   0  0  0  0  0  0  0  0  0  0  0  0
  -22.9972    1.8274   14.5270 C   0  0  0  0  0  0  0  0  0  0  0  0
  -23.1385    2.3518   15.7755 C   0  0  0  0  0  0  0  0  0  0  0  0
  -22.1651    2.1253   16.7417 C   0  0  0  0  0  0  0  0  0  0  0  0
  -21.0372    1.3748   16.4859 C   0  0  0  0  0  0  0  0  0  0  0  0
  -20.9076    0.8472   15.2074 C   0  0  0  0  0  0  0  0  0  0  0  0
  -21.8740    1.0640   14.2226 C   0  0  0  0  0  0  0  0  0  0  0  0
  -19.9833    1.1284   17.5280 C   0  0  0  0  0  0  0  0  0  0  0  0
  -18.9709    0.3136   17.2697 N   0  0  0  0  0  0  0  0  0  0  0  0
  -20.0665    1.7246   18.7056 N   0  0  0  0  0  0  0  0  0  0  0  0
  -18.9078   -0.1308   16.3935 H   0  0  0  0  0  0  0  0  0  0  0  0
  -20.8183    2.3302   18.8987 H   0  0  0  0  0  0  0  0  0  0  0  0
  -19.3767    1.5627   19.3891 H   0  0  0  0  0  0  0  0  0  0  0  0
  9 10  1  0  0  0
  9  8  1  0  0  0
 19  3  1  0  0  0
 19 20  1  0  0  0
  3  1  1  0  0  0
 10 11  1  0  0  0
 25 20  2  0  0  0
 25 24  1  0  0  0
  1  2  2  0  0  0
  1  8  1  0  0  0
  8  7  1  0  0  0
 20 21  1  0  0  0
 24 23  2  0  0  0
 11  7  1  0  0  0
  7  5  1  0  0  0
 21 22  2  0  0  0
 23 22  1  0  0  0
 23 26  1  0  0  0
  5  6  2  0  0  0
  5 12  1  0  0  0
 28 26  1  0  0  0
 26 27  2  0  0  0
 12 13  1  0  0  0
 15 16  1  0  0  0
 15 14  1  0  0  0
 16 13  1  0  0  0
 16 17  1  0  0  0
 14 18  1  0  0  0
 18 17  1  0  0  0
  3  4  1  0  0  0
 27 29  1  0  0  0
 28 30  1  0  0  0
 28 31  1  0  0  0
M  END
> <minimizedAffinity>
-8.11597

$$$$
2ZDN_49U_A_501


 31 33  0  0  0  0  0  0  0  0999 V2000
  -26.7144    1.5031   14.4067 C   0  0  0  0  0  0  0  0  0  0  0  0
  -26.8987    2.7046   14.3137 O   0  0  0  0  0  0  0  0  0  0  0  0
  -25.5035    1.0711   14.2230 N   0  0  0  0  0  0  0  0  0  0  0  0
  -25.3644    0.1050   14.3515 H   0  0  0  0  0  0  0  0  0  0  0  0
  -27.8411    1.0612   17.1391 C   0  0  0  0  0  0  0  0  0  0  0  0
  -26.6163    1.0017   17.1533 O   0  0  0  0  0  0  0  0  0  0  0  0
  -28.5125    0.9215   16.0011 N   0  0  0  0  0  0  0  0  0  0  0  0
  -27.8378    0.5806   14.7552 C   0  0  0  0  0  0  0  0  0  0  0  0
  -28.9820    0.7117   13.7719 C   0  0  0  0  0  0  0  0  0  0  0  0
  -30.3129    0.5992   14.4758 C   0  0  0  0  0  0  0  0  0  0  0  0
  -29.9694    1.1054   15.8610 C   0  0  0  0  0  0  0  0  0  0  0  0
  -28.6631    1.2926   18.3547 C   0  0  0  0  0  0  0  0  0  0  0  0
  -27.9602    2.1341   19.3722 C   0  0  0  0  0  0  0  0  0  0  0  0
  -28.0719   -0.0700   22.4832 C   0  0  0  0  0  0  0  0  0  0  0  0
  -28.3675    0.0585   20.9575 C   0  0  0  0  0  0  0  0  0  0  0  0
  -27.4202    1.1869   20.4460 C   0  0  0  0  0  0  0  0  0  0  0  0
  -27.1653    2.0528   21.7058 C   0  0  0  0  0  0  0  0  0  0  0  0
  -27.1464    1.0733   22.8919 C   0  0  0  0  0  0  0  0  0  0  0  0
  -24.3592    1.8218   13.8602 C   0  0  0  0  0  0  0  0  0  0  0  0
  -23.1979    1.6031   14.7473 C   0  0  0  0  0  0  0  0  0  0  0  0
  -22.1384    0.8169   14.4111 C   0  0  0  0  0  0  0  0  0  0  0  0
  -21.0795    0.6566   15.2973 C   0  0  0  0  0  0  0  0  0  0  0  0
  -21.0537    1.2738   16.5299 C   0  0  0  0  0  0  0  0  0  0  0  0
  -22.1420    2.0722   16.8581 C   0  0  0  0  0  0  0  0  0  0  0  0
  -23.2160    2.2452   15.9820 C   0  0  0  0  0  0  0  0  0  0  0  0
  -19.9108    1.1024   17.4899 C   0  0  0  0  0  0  0  0  0  0  0  0
  -19.9174    1.7395   18.6517 N   0  0  0  0  0  0  0  0  0  0  0  0
  -18.8956    0.3154   17.1748 N   0  0  0  0  0  0  0  0  0  0  0  0
  -20.6724    2.3256   18.8875 H   0  0  0  0  0  0  0  0  0  0  0  0
  -18.8895   -0.1585   16.3119 H   0  0  0  0  0  0  0  0  0  0  0  0
  -18.1460    0.2035   17.8031 H   0  0  0  0  0  0  0  0  0  0  0  0
  9 10  1  0  0  0
  9  8  1  0  0  0
 19  3  1  0  0  0
 19 20  1  0  0  0
  3  1  1  0  0  0
 10 11  1  0  0  0
 25 20  2  0  0  0
 25 24  1  0  0  0
  1  2  2  0  0  0
  1  8  1  0  0  0
  8  7  1  0  0  0
 20 21  1  0  0  0
 24 23  2  0  0  0
 11  7  1  0  0  0
  7  5  1  0  0  0
 21 22  2  0  0  0
 23 22  1  0  0  0
 23 26  1  0  0  0
  5  6  2  0  0  0
  5 12  1  0  0  0
 28 26  1  0  0  0
 26 27  2  0  0  0
 12 13  1  0  0  0
 15 16  1  0  0  0
 15 14  1  0  0  0
 16 13  1  0  0  0
 16 17  1  0  0  0
 14 18  1  0  0  0
 18 17  1  0  0  0
  3  4  1  0  0  0
 27 29  1  0  0  0
 28 30  1  0  0  0
 28 31  1  0  0  0
M  END
> <minimizedAffinity>
-7.99820

$$$$
2ZDN_49U_A_501


 31 33  0  0  0  0  0  0  0  0999 V2000
  -27.0480    2.4282   14.8337 C   0  0  0  0  0  0  0  0  0  0  0  0
  -26.8691    3.4740   14.2330 O   0  0  0  0  0  0  0  0  0  0  0  0
  -26.1082    1.5346   14.7650 N   0  0  0  0  0  0  0  0  0  0  0  0
  -26.2478    0.7179   15.2967 H   0  0  0  0  0  0  0  0  0  0  0  0
  -29.4917    0.9550   13.9452 C   0  0  0  0  0  0  0  0  0  0  0  0
  -29.1263    1.7564   13.0918 O   0  0  0  0  0  0  0  0  0  0  0  0
  -29.0828    1.0731   15.2038 N   0  0  0  0  0  0  0  0  0  0  0  0
  -28.2863    2.2118   15.6426 C   0  0  0  0  0  0  0  0  0  0  0  0
  -27.9513    1.7907   17.0582 C   0  0  0  0  0  0  0  0  0  0  0  0
  -28.9328    0.7588   17.5598 C   0  0  0  0  0  0  0  0  0  0  0  0
  -29.3604    0.0916   16.2694 C   0  0  0  0  0  0  0  0  0  0  0  0
  -30.3938   -0.1901   13.6593 C   0  0  0  0  0  0  0  0  0  0  0  0
  -31.7556    0.2466   13.2208 C   0  0  0  0  0  0  0  0  0  0  0  0
  -33.2903   -0.3510    9.7803 C   0  0  0  0  0  0  0  0  0  0  0  0
  -32.1193    0.2687   10.6026 C   0  0  0  0  0  0  0  0  0  0  0  0
  -32.0881   -0.5276   11.9433 C   0  0  0  0  0  0  0  0  0  0  0  0
  -33.5438   -1.0342   12.1044 C   0  0  0  0  0  0  0  0  0  0  0  0
  -34.0478   -1.3243   10.6803 C   0  0  0  0  0  0  0  0  0  0  0  0
  -24.9071    1.5930   14.0178 C   0  0  0  0  0  0  0  0  0  0  0  0
  -23.6861    1.5444   14.8487 C   0  0  0  0  0  0  0  0  0  0  0  0
  -23.5964    2.1197   16.0793 C   0  0  0  0  0  0  0  0  0  0  0  0
  -22.4140    2.0340   16.8051 C   0  0  0  0  0  0  0  0  0  0  0  0
  -21.3025    1.3759   16.3229 C   0  0  0  0  0  0  0  0  0  0  0  0
  -21.4099    0.7948   15.0658 C   0  0  0  0  0  0  0  0  0  0  0  0
  -22.5888    0.8705   14.3206 C   0  0  0  0  0  0  0  0  0  0  0  0
  -20.0230    1.2817   17.1049 C   0  0  0  0  0  0  0  0  0  0  0  0
  -19.7135    2.2193   17.9885 N   0  0  0  0  0  0  0  0  0  0  0  0
  -19.2034    0.2621   16.9103 N   0  0  0  0  0  0  0  0  0  0  0  0
  -20.3228    2.9787   18.1342 H   0  0  0  0  0  0  0  0  0  0  0  0
  -19.4322   -0.4352   16.2541 H   0  0  0  0  0  0  0  0  0  0  0  0
  -18.3644    0.2005   17.4218 H   0  0  0  0  0  0  0  0  0  0  0  0
  9 10  1  0  0  0
  9  8  1  0  0  0
 19  3  1  0  0  0
 19 20  1  0  0  0
  3  1  1  0  0  0
 10 11  1  0  0  0
 25 20  2  0  0  0
 25 24  1  0  0  0
  1  2  2  0  0  0
  1  8  1  0  0  0
  8  7  1  0  0  0
 20 21  1  0  0  0
 24 23  2  0  0  0
 11  7  1  0  0  0
  7  5  1  0  0  0
 21 22  2  0  0  0
 23 22  1  0  0  0
 23 26  1  0  0  0
  5  6  2  0  0  0
  5 12  1  0  0  0
 28 26  1  0  0  0
 26 27  2  0  0  0
 12 13  1  0  0  0
 15 16  1  0  0  0
 15 14  1  0  0  0
 16 13  1  0  0  0
 16 17  1  0  0  0
 14 18  1  0  0  0
 18 17  1  0  0  0
  3  4  1  0  0  0
 27 29  1  0  0  0
 28 30  1  0  0  0
 28 31  1  0  0  0
M  END
> <minimizedAffinity>
-7.46512

$$$$
2ZDN_49U_A_501


 31 33  0  0  0  0  0  0  0  0999 V2000
  -26.8026    1.5036   14.6565 C   0  0  0  0  0  0  0  0  0  0  0  0
  -26.9511    2.7122   14.5967 O   0  0  0  0  0  0  0  0  0  0  0  0
  -25.6263    1.0340   14.3695 N   0  0  0  0  0  0  0  0  0  0  0  0
  -25.5117    0.0615   14.4719 H   0  0  0  0  0  0  0  0  0  0  0  0
  -27.7775    1.1175   17.4550 C   0  0  0  0  0  0  0  0  0  0  0  0
  -26.5558    1.0265   17.3981 O   0  0  0  0  0  0  0  0  0  0  0  0
  -28.5180    0.9842   16.3598 N   0  0  0  0  0  0  0  0  0  0  0  0
  -27.9265    0.6139   15.0805 C   0  0  0  0  0  0  0  0  0  0  0  0
  -29.1228    0.7651   14.1644 C   0  0  0  0  0  0  0  0  0  0  0  0
  -30.4125    0.6939   14.9463 C   0  0  0  0  0  0  0  0  0  0  0  0
  -29.9755    1.2044   16.3033 C   0  0  0  0  0  0  0  0  0  0  0  0
  -28.5204    1.3819   18.7140 C   0  0  0  0  0  0  0  0  0  0  0  0
  -28.6877    2.8431   18.9867 C   0  0  0  0  0  0  0  0  0  0  0  0
  -26.4493    4.8973   21.2930 C   0  0  0  0  0  0  0  0  0  0  0  0
  -27.3589    3.6416   21.1278 C   0  0  0  0  0  0  0  0  0  0  0  0
  -27.3759    3.3411   19.5975 C   0  0  0  0  0  0  0  0  0  0  0  0
  -27.0857    4.7184   18.9488 C   0  0  0  0  0  0  0  0  0  0  0  0
  -26.1175    5.4370   19.9040 C   0  0  0  0  0  0  0  0  0  0  0  0
  -24.4888    1.7515   13.9270 C   0  0  0  0  0  0  0  0  0  0  0  0
  -23.3322    1.6565   14.8416 C   0  0  0  0  0  0  0  0  0  0  0  0
  -23.3175    2.2054   16.0874 C   0  0  0  0  0  0  0  0  0  0  0  0
  -22.1925    2.0762   16.8937 C   0  0  0  0  0  0  0  0  0  0  0  0
  -21.0651    1.4001   16.4782 C   0  0  0  0  0  0  0  0  0  0  0  0
  -21.0956    0.8462   15.2047 C   0  0  0  0  0  0  0  0  0  0  0  0
  -22.2159    0.9657   14.3791 C   0  0  0  0  0  0  0  0  0  0  0  0
  -19.8476    1.2589   17.3472 C   0  0  0  0  0  0  0  0  0  0  0  0
  -19.0195    0.2397   17.1706 N   0  0  0  0  0  0  0  0  0  0  0  0
  -19.6023    2.1524   18.2909 N   0  0  0  0  0  0  0  0  0  0  0  0
  -19.2010   -0.4260   16.4684 H   0  0  0  0  0  0  0  0  0  0  0  0
  -20.2168    2.9101   18.4231 H   0  0  0  0  0  0  0  0  0  0  0  0
  -18.8051    2.0599   18.8612 H   0  0  0  0  0  0  0  0  0  0  0  0
  9 10  1  0  0  0
  9  8  1  0  0  0
 19  3  1  0  0  0
 19 20  1  0  0  0
  3  1  1  0  0  0
 10 11  1  0  0  0
 25 20  2  0  0  0
 25 24  1  0  0  0
  1  2  2  0  0  0
  1  8  1  0  0  0
  8  7  1  0  0  0
 20 21  1  0  0  0
 24 23  2  0  0  0
 11  7  1  0  0  0
  7  5  1  0  0  0
 21 22  2  0  0  0
 23 22  1  0  0  0
 23 26  1  0  0  0
  5  6  2  0  0  0
  5 12  1  0  0  0
 28 26  1  0  0  0
 26 27  2  0  0  0
 12 13  1  0  0  0
 15 16  1  0  0  0
 15 14  1  0  0  0
 16 13  1  0  0  0
 16 17  1  0  0  0
 14 18  1  0  0  0
 18 17  1  0  0  0
  3  4  1  0  0  0
 27 29  1  0  0  0
 28 30  1  0  0  0
 28 31  1  0  0  0
M  END
> <minimizedAffinity>
-7.30400

$$$$
2ZDN_49U_A_501


 31 33  0  0  0  0  0  0  0  0999 V2000
  -26.5850    1.5971   13.9459 C   0  0  0  0  0  0  0  0  0  0  0  0
  -26.7877    2.7992   13.9320 O   0  0  0  0  0  0  0  0  0  0  0  0
  -25.3544    1.2000   13.8253 N   0  0  0  0  0  0  0  0  0  0  0  0
  -25.2047    0.2290   13.8893 H   0  0  0  0  0  0  0  0  0  0  0  0
  -27.7977    0.7964   16.5574 C   0  0  0  0  0  0  0  0  0  0  0  0
  -26.5735    0.7404   16.6050 O   0  0  0  0  0  0  0  0  0  0  0  0
  -28.4299    0.8045   15.3888 N   0  0  0  0  0  0  0  0  0  0  0  0
  -27.7116    0.6325   14.1326 C   0  0  0  0  0  0  0  0  0  0  0  0
  -28.8237    0.8870   13.1367 C   0  0  0  0  0  0  0  0  0  0  0  0
  -30.1762    0.6780   13.7744 C   0  0  0  0  0  0  0  0  0  0  0  0
  -29.8829    0.9995   15.2248 C   0  0  0  0  0  0  0  0  0  0  0  0
  -28.6612    0.8633   17.7643 C   0  0  0  0  0  0  0  0  0  0  0  0
  -28.7006    2.2314   18.3677 C   0  0  0  0  0  0  0  0  0  0  0  0
  -31.1780    3.3484   21.0444 C   0  0  0  0  0  0  0  0  0  0  0  0
  -30.3604    3.7335   19.7736 C   0  0  0  0  0  0  0  0  0  0  0  0
  -30.0625    2.3851   19.0487 C   0  0  0  0  0  0  0  0  0  0  0  0
  -30.1024    1.3371   20.1898 C   0  0  0  0  0  0  0  0  0  0  0  0
  -31.1795    1.8270   21.1726 C   0  0  0  0  0  0  0  0  0  0  0  0
  -24.2021    1.9947   13.6129 C   0  0  0  0  0  0  0  0  0  0  0  0
  -23.1521    1.8061   14.6353 C   0  0  0  0  0  0  0  0  0  0  0  0
  -23.2177    2.3480   15.8826 C   0  0  0  0  0  0  0  0  0  0  0  0
  -22.1912    2.1282   16.7937 C   0  0  0  0  0  0  0  0  0  0  0  0
  -21.0842    1.3671   16.4832 C   0  0  0  0  0  0  0  0  0  0  0  0
  -21.0320    0.8217   15.2068 C   0  0  0  0  0  0  0  0  0  0  0  0
  -22.0528    1.0315   14.2767 C   0  0  0  0  0  0  0  0  0  0  0  0
  -19.9730    1.1279   17.4657 C   0  0  0  0  0  0  0  0  0  0  0  0
  -18.9987    0.2788   17.1735 N   0  0  0  0  0  0  0  0  0  0  0  0
  -19.9675    1.7648   18.6249 N   0  0  0  0  0  0  0  0  0  0  0  0
  -19.0016   -0.1958   16.3109 H   0  0  0  0  0  0  0  0  0  0  0  0
  -20.6908    2.3959   18.8432 H   0  0  0  0  0  0  0  0  0  0  0  0
  -19.2400    1.6077   19.2694 H   0  0  0  0  0  0  0  0  0  0  0  0
  9 10  1  0  0  0
  9  8  1  0  0  0
 19  3  1  0  0  0
 19 20  1  0  0  0
  3  1  1  0  0  0
 10 11  1  0  0  0
 25 20  2  0  0  0
 25 24  1  0  0  0
  1  2  2  0  0  0
  1  8  1  0  0  0
  8  7  1  0  0  0
 20 21  1  0  0  0
 24 23  2  0  0  0
 11  7  1  0  0  0
  7  5  1  0  0  0
 21 22  2  0  0  0
 23 22  1  0  0  0
 23 26  1  0  0  0
  5  6  2  0  0  0
  5 12  1  0  0  0
 28 26  1  0  0  0
 26 27  2  0  0  0
 12 13  1  0  0  0
 15 16  1  0  0  0
 15 14  1  0  0  0
 16 13  1  0  0  0
 16 17  1  0  0  0
 14 18  1  0  0  0
 18 17  1  0  0  0
  3  4  1  0  0  0
 27 29  1  0  0  0
 28 30  1  0  0  0
 28 31  1  0  0  0
M  END
> <minimizedAffinity>
-6.97535

$$$$
2ZDN_49U_A_501


 31 33  0  0  0  0  0  0  0  0999 V2000
  -25.6644    1.7993   16.3741 C   0  0  0  0  0  0  0  0  0  0  0  0
  -25.5223    2.9201   16.8322 O   0  0  0  0  0  0  0  0  0  0  0  0
  -26.6243    1.0740   16.8633 N   0  0  0  0  0  0  0  0  0  0  0  0
  -26.7556    0.1917   16.4467 H   0  0  0  0  0  0  0  0  0  0  0  0
  -26.2109    2.0611   13.4476 C   0  0  0  0  0  0  0  0  0  0  0  0
  -27.1966    1.6400   14.0434 O   0  0  0  0  0  0  0  0  0  0  0  0
  -25.0041    1.9873   13.9987 N   0  0  0  0  0  0  0  0  0  0  0  0
  -24.7868    1.3067   15.2688 C   0  0  0  0  0  0  0  0  0  0  0  0
  -23.3344    1.6500   15.5258 C   0  0  0  0  0  0  0  0  0  0  0  0
  -22.6355    2.0302   14.2426 C   0  0  0  0  0  0  0  0  0  0  0  0
  -23.7828    2.5798   13.4213 C   0  0  0  0  0  0  0  0  0  0  0  0
  -26.2726    2.6784   12.0978 C   0  0  0  0  0  0  0  0  0  0  0  0
  -27.4808    3.5411   11.9150 C   0  0  0  0  0  0  0  0  0  0  0  0
  -25.4171    5.6704    9.5157 C   0  0  0  0  0  0  0  0  0  0  0  0
  -25.8724    4.2397    9.9370 C   0  0  0  0  0  0  0  0  0  0  0  0
  -27.2133    4.4421   10.7073 C   0  0  0  0  0  0  0  0  0  0  0  0
  -27.1088    5.8884   11.2544 C   0  0  0  0  0  0  0  0  0  0  0  0
  -26.3371    6.6857   10.1891 C   0  0  0  0  0  0  0  0  0  0  0  0
  -27.5046    1.3989   17.9235 C   0  0  0  0  0  0  0  0  0  0  0  0
  -28.1961    0.2287   18.5029 C   0  0  0  0  0  0  0  0  0  0  0  0
  -28.7915   -0.7362   17.7492 C   0  0  0  0  0  0  0  0  0  0  0  0
  -29.4248   -1.8102   18.3640 C   0  0  0  0  0  0  0  0  0  0  0  0
  -29.4769   -1.9450   19.7351 C   0  0  0  0  0  0  0  0  0  0  0  0
  -28.8652   -0.9523   20.4899 C   0  0  0  0  0  0  0  0  0  0  0  0
  -28.2246    0.1350   19.8913 C   0  0  0  0  0  0  0  0  0  0  0  0
  -30.1608   -3.1045   20.4025 C   0  0  0  0  0  0  0  0  0  0  0  0
  -31.3811   -2.9606   20.8983 N   0  0  0  0  0  0  0  0  0  0  0  0
  -29.5436   -4.2705   20.4966 N   0  0  0  0  0  0  0  0  0  0  0  0
  -31.8415   -2.0932   20.8288 H   0  0  0  0  0  0  0  0  0  0  0  0
  -28.6369   -4.3786   20.1286 H   0  0  0  0  0  0  0  0  0  0  0  0
  -29.9909   -5.0302   20.9346 H   0  0  0  0  0  0  0  0  0  0  0  0
  9 10  1  0  0  0
  9  8  1  0  0  0
 19  3  1  0  0  0
 19 20  1  0  0  0
  3  1  1  0  0  0
 10 11  1  0  0  0
 25 20  2  0  0  0
 25 24  1  0  0  0
  1  2  2  0  0  0
  1  8  1  0  0  0
  8  7  1  0  0  0
 20 21  1  0  0  0
 24 23  2  0  0  0
 11  7  1  0  0  0
  7  5  1  0  0  0
 21 22  2  0  0  0
 23 22  1  0  0  0
 23 26  1  0  0  0
  5  6  2  0  0  0
  5 12  1  0  0  0
 28 26  1  0  0  0
 26 27  2  0  0  0
 12 13  1  0  0  0
 15 16  1  0  0  0
 15 14  1  0  0  0
 16 13  1  0  0  0
 16 17  1  0  0  0
 14 18  1  0  0  0
 18 17  1  0  0  0
  3  4  1  0  0  0
 27 29  1  0  0  0
 28 30  1  0  0  0
 28 31  1  0  0  0
M  END
> <minimizedAffinity>
-6.75742

$$$$
2ZDN_49U_A_501


 31 33  0  0  0  0  0  0  0  0999 V2000
  -27.8340    1.2833   14.3120 C   0  0  0  0  0  0  0  0  0  0  0  0
  -27.7614    0.2110   13.7364 O   0  0  0  0  0  0  0  0  0  0  0  0
  -28.2821    1.2748   15.5310 N   0  0  0  0  0  0  0  0  0  0  0  0
  -28.2863    2.1422   15.9966 H   0  0  0  0  0  0  0  0  0  0  0  0
  -25.0147    2.2495   14.0905 C   0  0  0  0  0  0  0  0  0  0  0  0
  -25.2732    1.9061   15.2391 O   0  0  0  0  0  0  0  0  0  0  0  0
  -25.9896    2.5252   13.2308 N   0  0  0  0  0  0  0  0  0  0  0  0
  -27.3870    2.5433   13.6435 C   0  0  0  0  0  0  0  0  0  0  0  0
  -28.0720    2.7285   12.3056 C   0  0  0  0  0  0  0  0  0  0  0  0
  -27.1215    3.3164   11.2905 C   0  0  0  0  0  0  0  0  0  0  0  0
  -25.7849    2.8189   11.7997 C   0  0  0  0  0  0  0  0  0  0  0  0
  -23.6304    2.3808   13.5678 C   0  0  0  0  0  0  0  0  0  0  0  0
  -22.8303    1.1286   13.7390 C   0  0  0  0  0  0  0  0  0  0  0  0
  -20.6537    2.1239   16.7090 C   0  0  0  0  0  0  0  0  0  0  0  0
  -21.8842    2.4652   15.8140 C   0  0  0  0  0  0  0  0  0  0  0  0
  -22.3267    1.1089   15.1839 C   0  0  0  0  0  0  0  0  0  0  0  0
  -21.0286    0.2622   15.1839 C   0  0  0  0  0  0  0  0  0  0  0  0
  -20.2602    0.6714   16.4521 C   0  0  0  0  0  0  0  0  0  0  0  0
  -28.7654    0.1688   16.2710 C   0  0  0  0  0  0  0  0  0  0  0  0
  -28.4817    0.2515   17.7188 C   0  0  0  0  0  0  0  0  0  0  0  0
  -27.8199    1.2941   18.2922 C   0  0  0  0  0  0  0  0  0  0  0  0
  -27.5881    1.3043   19.6628 C   0  0  0  0  0  0  0  0  0  0  0  0
  -28.0094    0.2820   20.4864 C   0  0  0  0  0  0  0  0  0  0  0  0
  -28.6826   -0.7744   19.8862 C   0  0  0  0  0  0  0  0  0  0  0  0
  -28.9247   -0.8037   18.5109 C   0  0  0  0  0  0  0  0  0  0  0  0
  -27.7601    0.2901   21.9680 C   0  0  0  0  0  0  0  0  0  0  0  0
  -28.7213   -0.0705   22.8057 N   0  0  0  0  0  0  0  0  0  0  0  0
  -26.5799    0.6589   22.4374 N   0  0  0  0  0  0  0  0  0  0  0  0
  -29.6003   -0.3453   22.4576 H   0  0  0  0  0  0  0  0  0  0  0  0
  -25.8650    0.9271   21.8160 H   0  0  0  0  0  0  0  0  0  0  0  0
  -26.4164    0.6653   23.4082 H   0  0  0  0  0  0  0  0  0  0  0  0
  9 10  1  0  0  0
  9  8  1  0  0  0
 19  3  1  0  0  0
 19 20  1  0  0  0
  3  1  1  0  0  0
 10 11  1  0  0  0
 25 20  2  0  0  0
 25 24  1  0  0  0
  1  2  2  0  0  0
  1  8  1  0  0  0
  8  7  1  0  0  0
 20 21  1  0  0  0
 24 23  2  0  0  0
 11  7  1  0  0  0
  7  5  1  0  0  0
 21 22  2  0  0  0
 23 22  1  0  0  0
 23 26  1  0  0  0
  5  6  2  0  0  0
  5 12  1  0  0  0
 28 26  1  0  0  0
 26 27  2  0  0  0
 12 13  1  0  0  0
 15 16  1  0  0  0
 15 14  1  0  0  0
 16 13  1  0  0  0
 16 17  1  0  0  0
 14 18  1  0  0  0
 18 17  1  0  0  0
  3  4  1  0  0  0
 27 29  1  0  0  0
 28 30  1  0  0  0
 28 31  1  0  0  0
M  END
> <minimizedAffinity>
-6.43163

$$$$
2ZDN_49U_A_501


 31 33  0  0  0  0  0  0  0  0999 V2000
  -29.8752    1.9680   14.2864 C   0  0  0  0  0  0  0  0  0  0  0  0
  -30.1476    1.9317   13.0986 O   0  0  0  0  0  0  0  0  0  0  0  0
  -28.6545    1.6827   14.6257 N   0  0  0  0  0  0  0  0  0  0  0  0
  -28.4407    1.7661   15.5831 H   0  0  0  0  0  0  0  0  0  0  0  0
  -30.7915    0.3125   16.5996 C   0  0  0  0  0  0  0  0  0  0  0  0
  -30.7805   -0.3453   15.5647 O   0  0  0  0  0  0  0  0  0  0  0  0
  -30.7962    1.6406   16.5575 N   0  0  0  0  0  0  0  0  0  0  0  0
  -30.9042    2.3626   15.2964 C   0  0  0  0  0  0  0  0  0  0  0  0
  -30.6928    3.7857   15.7692 C   0  0  0  0  0  0  0  0  0  0  0  0
  -30.9885    3.9128   17.2443 C   0  0  0  0  0  0  0  0  0  0  0  0
  -30.6790    2.5156   17.7393 C   0  0  0  0  0  0  0  0  0  0  0  0
  -30.7957   -0.2950   17.9552 C   0  0  0  0  0  0  0  0  0  0  0  0
  -29.9694   -1.5397   18.0297 C   0  0  0  0  0  0  0  0  0  0  0  0
  -28.2994    0.0422   21.0724 C   0  0  0  0  0  0  0  0  0  0  0  0
  -29.2829   -1.0410   20.5333 C   0  0  0  0  0  0  0  0  0  0  0  0
  -28.8596   -1.2840   19.0520 C   0  0  0  0  0  0  0  0  0  0  0  0
  -28.1824    0.0476   18.6395 C   0  0  0  0  0  0  0  0  0  0  0  0
  -27.4714    0.5657   19.9014 C   0  0  0  0  0  0  0  0  0  0  0  0
  -27.5942    1.2662   13.7851 C   0  0  0  0  0  0  0  0  0  0  0  0
  -26.2539    1.4655   14.3745 C   0  0  0  0  0  0  0  0  0  0  0  0
  -25.1179    1.5657   13.6307 C   0  0  0  0  0  0  0  0  0  0  0  0
  -23.8897    1.7526   14.2545 C   0  0  0  0  0  0  0  0  0  0  0  0
  -23.7685    1.8442   15.6248 C   0  0  0  0  0  0  0  0  0  0  0  0
  -24.9365    1.7396   16.3694 C   0  0  0  0  0  0  0  0  0  0  0  0
  -26.1799    1.5508   15.7617 C   0  0  0  0  0  0  0  0  0  0  0  0
  -22.4426    2.0460   16.3019 C   0  0  0  0  0  0  0  0  0  0  0  0
  -22.3949    2.4411   17.5657 N   0  0  0  0  0  0  0  0  0  0  0  0
  -21.3208    1.8302   15.6354 N   0  0  0  0  0  0  0  0  0  0  0  0
  -23.2292    2.6021   18.0629 H   0  0  0  0  0  0  0  0  0  0  0  0
  -21.3549    1.5366   14.6963 H   0  0  0  0  0  0  0  0  0  0  0  0
  -20.4517    1.9632   16.0783 H   0  0  0  0  0  0  0  0  0  0  0  0
  9 10  1  0  0  0
  9  8  1  0  0  0
 19  3  1  0  0  0
 19 20  1  0  0  0
  3  1  1  0  0  0
 10 11  1  0  0  0
 25 20  2  0  0  0
 25 24  1  0  0  0
  1  2  2  0  0  0
  1  8  1  0  0  0
  8  7  1  0  0  0
 20 21  1  0  0  0
 24 23  2  0  0  0
 11  7  1  0  0  0
  7  5  1  0  0  0
 21 22  2  0  0  0
 23 22  1  0  0  0
 23 26  1  0  0  0
  5  6  2  0  0  0
  5 12  1  0  0  0
 28 26  1  0  0  0
 26 27  2  0  0  0
 12 13  1  0  0  0
 15 16  1  0  0  0
 15 14  1  0  0  0
 16 13  1  0  0  0
 16 17  1  0  0  0
 14 18  1  0  0  0
 18 17  1  0  0  0
  3  4  1  0  0  0
 27 29  1  0  0  0
 28 30  1  0  0  0
 28 31  1  0  0  0
M  END
> <minimizedAffinity>
-6.30497

$$$$
