5DW2_5GD_A_201


 32 35  0  0  0  0  0  0  0  0999 V2000
   14.1879    7.1090    6.3273 C   0  0  0  0  0  0  0  0  0  0  0  0
   11.9292    6.4357    6.9929 C   0  0  0  0  0  0  0  0  0  0  0  0
   15.5289    7.5007    6.6259 C   0  0  0  0  0  0  0  0  0  0  0  0
   15.9272    7.5069    7.9074 C   0  0  0  0  0  0  0  0  0  0  0  0
   13.7469    6.8246    8.6923 C   0  0  0  0  0  0  0  0  0  0  0  0
   10.9848    6.2013    7.7778 O   0  0  0  0  0  0  0  0  0  0  0  0
   13.3188    6.8149    7.3829 C   0  0  0  0  0  0  0  0  0  0  0  0
   15.0741    7.2038    8.9535 C   0  0  0  0  0  0  0  0  0  0  0  0
   11.6944    6.3395    5.6334 N   0  0  0  0  0  0  0  0  0  0  0  0
   12.7082    6.6206    4.6906 C   0  0  0  0  0  0  0  0  0  0  0  0
   13.8593    7.0623    4.9930 N   0  0  0  0  0  0  0  0  0  0  0  0
   10.8024    6.0695    5.3161 H   0  0  0  0  0  0  0  0  0  0  0  0
   11.1978    6.4288    2.7421 C   0  0  0  0  0  0  0  0  0  0  0  0
   11.0802    6.1707    1.3896 C   0  0  0  0  0  0  0  0  0  0  0  0
   12.1797    5.8581    0.6081 C   0  0  0  0  0  0  0  0  0  0  0  0
    9.6369    6.2165    0.8086 C   0  0  0  0  0  0  0  0  0  0  0  0
   14.5791    5.5339    0.1864 C   0  0  0  0  0  0  0  0  0  0  0  0
   13.5942    6.0990    2.4678 C   0  0  0  0  0  0  0  0  0  0  0  0
   13.4694    5.8529    1.1019 C   0  0  0  0  0  0  0  0  0  0  0  0
   12.5057    6.3513    3.3270 C   0  0  0  0  0  0  0  0  0  0  0  0
   12.0129    5.6546   -0.7466 O   0  0  0  0  0  0  0  0  0  0  0  0
   11.2530    4.4902   -1.1375 C   0  0  0  0  0  0  0  0  0  0  0  0
   12.2611    3.3305   -1.1033 C   0  0  0  0  0  0  0  0  0  0  0  0
   14.2123    2.1750   -2.2618 C   0  0  0  0  0  0  0  0  0  0  0  0
   12.1391    2.6794   -3.3825 C   0  0  0  0  0  0  0  0  0  0  0  0
   13.0364    3.1442   -2.3387 N   0  0  0  0  0  0  0  0  0  0  0  0
   13.0532    1.8346   -4.2898 C   0  0  0  0  0  0  0  0  0  0  0  0
   14.4539    1.6511   -3.7004 C   0  0  0  0  0  0  0  0  0  0  0  0
   13.3276    5.4382   10.5906 C   0  0  0  0  0  0  0  0  0  0  0  0
   12.8969    6.4125    9.6561 O   0  0  0  0  0  0  0  0  0  0  0  0
   17.1846    7.8548    8.3333 O   0  0  0  0  0  0  0  0  0  0  0  0
   17.5793    7.5398    9.6722 C   0  0  0  0  0  0  0  0  0  0  0  0
 29 30  1  0  0  0
 30  5  1  0  0  0
  6  2  2  0  0  0
  5  8  2  0  0  0
  5  7  1  0  0  0
  2  7  1  0  0  0
  2  9  1  0  0  0
  8  4  1  0  0  0
  7  1  2  0  0  0
  9 10  1  0  0  0
  4 31  1  0  0  0
  4  3  2  0  0  0
  1  3  1  0  0  0
  1 11  1  0  0  0
 10 11  2  0  0  0
 10 20  1  0  0  0
 31 32  1  0  0  0
 18 20  2  0  0  0
 18 19  1  0  0  0
 17 19  1  0  0  0
 20 13  1  0  0  0
 19 15  2  0  0  0
 13 14  2  0  0  0
 15 14  1  0  0  0
 15 21  1  0  0  0
 14 16  1  0  0  0
 21 22  1  0  0  0
 25 27  1  0  0  0
 25 26  1  0  0  0
 22 23  1  0  0  0
 27 28  1  0  0  0
 26 23  1  0  0  0
 26 24  1  0  0  0
 28 24  1  0  0  0
  9 12  1  0  0  0
M  END
> <minimizedAffinity>
-7.74731

$$$$
5DW2_5GD_A_201


 32 35  0  0  0  0  0  0  0  0999 V2000
    8.8700    5.5562    3.3414 C   0  0  0  0  0  0  0  0  0  0  0  0
   11.0556    6.3932    2.6197 C   0  0  0  0  0  0  0  0  0  0  0  0
    7.9882    5.0088    4.3230 C   0  0  0  0  0  0  0  0  0  0  0  0
    8.4383    4.8548    5.5778 C   0  0  0  0  0  0  0  0  0  0  0  0
   10.6324    5.6827    4.9986 C   0  0  0  0  0  0  0  0  0  0  0  0
   12.2746    6.6537    2.7151 O   0  0  0  0  0  0  0  0  0  0  0  0
   10.1893    5.8456    3.7043 C   0  0  0  0  0  0  0  0  0  0  0  0
    9.7389    5.1522    5.9439 C   0  0  0  0  0  0  0  0  0  0  0  0
   10.4253    6.6267    1.4110 N   0  0  0  0  0  0  0  0  0  0  0  0
    9.0575    6.3262    1.2251 C   0  0  0  0  0  0  0  0  0  0  0  0
    8.3313    5.7479    2.0910 N   0  0  0  0  0  0  0  0  0  0  0  0
   10.9404    7.0103    0.6648 H   0  0  0  0  0  0  0  0  0  0  0  0
    7.1764    7.4854    0.1148 C   0  0  0  0  0  0  0  0  0  0  0  0
    6.5923    7.8633   -1.0792 C   0  0  0  0  0  0  0  0  0  0  0  0
    7.1567    7.5408   -2.3019 C   0  0  0  0  0  0  0  0  0  0  0  0
    5.2474    8.6386   -0.9663 C   0  0  0  0  0  0  0  0  0  0  0  0
    8.9025    6.6123   -3.7612 C   0  0  0  0  0  0  0  0  0  0  0  0
    8.9567    6.4926   -1.2162 C   0  0  0  0  0  0  0  0  0  0  0  0
    8.3687    6.8887   -2.4159 C   0  0  0  0  0  0  0  0  0  0  0  0
    8.3939    6.7285    0.0543 C   0  0  0  0  0  0  0  0  0  0  0  0
    6.5567    7.9827   -3.4634 O   0  0  0  0  0  0  0  0  0  0  0  0
    7.0681    9.2088   -4.0302 C   0  0  0  0  0  0  0  0  0  0  0  0
    5.8245   10.0745   -4.2871 C   0  0  0  0  0  0  0  0  0  0  0  0
    4.5555   11.7977   -2.9069 C   0  0  0  0  0  0  0  0  0  0  0  0
    6.9230   11.4160   -2.6662 C   0  0  0  0  0  0  0  0  0  0  0  0
    5.8359   11.3896   -3.6296 N   0  0  0  0  0  0  0  0  0  0  0  0
    6.4193   12.3907   -1.5853 C   0  0  0  0  0  0  0  0  0  0  0  0
    4.9659   12.8145   -1.8115 C   0  0  0  0  0  0  0  0  0  0  0  0
   12.4737    5.6422    6.5183 C   0  0  0  0  0  0  0  0  0  0  0  0
   11.8780    6.0949    5.3149 O   0  0  0  0  0  0  0  0  0  0  0  0
    7.6984    4.3483    6.6168 O   0  0  0  0  0  0  0  0  0  0  0  0
    6.2843    4.1979    6.4575 C   0  0  0  0  0  0  0  0  0  0  0  0
 29 30  1  0  0  0
 30  5  1  0  0  0
  6  2  2  0  0  0
  5  8  2  0  0  0
  5  7  1  0  0  0
  2  7  1  0  0  0
  2  9  1  0  0  0
  8  4  1  0  0  0
  7  1  2  0  0  0
  9 10  1  0  0  0
  4 31  1  0  0  0
  4  3  2  0  0  0
  1  3  1  0  0  0
  1 11  1  0  0  0
 10 11  2  0  0  0
 10 20  1  0  0  0
 31 32  1  0  0  0
 18 20  2  0  0  0
 18 19  1  0  0  0
 17 19  1  0  0  0
 20 13  1  0  0  0
 19 15  2  0  0  0
 13 14  2  0  0  0
 15 14  1  0  0  0
 15 21  1  0  0  0
 14 16  1  0  0  0
 21 22  1  0  0  0
 25 27  1  0  0  0
 25 26  1  0  0  0
 22 23  1  0  0  0
 27 28  1  0  0  0
 26 23  1  0  0  0
 26 24  1  0  0  0
 28 24  1  0  0  0
  9 12  1  0  0  0
M  END
> <minimizedAffinity>
-7.71248

$$$$
5DW2_5GD_A_201


 32 35  0  0  0  0  0  0  0  0999 V2000
   14.1417    7.0657    6.2681 C   0  0  0  0  0  0  0  0  0  0  0  0
   11.8646    6.3786    6.8517 C   0  0  0  0  0  0  0  0  0  0  0  0
   15.4747    7.4452    6.6145 C   0  0  0  0  0  0  0  0  0  0  0  0
   15.8377    7.4129    7.9061 C   0  0  0  0  0  0  0  0  0  0  0  0
   13.6356    6.7132    8.6108 C   0  0  0  0  0  0  0  0  0  0  0  0
   10.8987    6.1235    7.6033 O   0  0  0  0  0  0  0  0  0  0  0  0
   13.2436    6.7429    7.2904 C   0  0  0  0  0  0  0  0  0  0  0  0
   14.9558    7.0814    8.9192 C   0  0  0  0  0  0  0  0  0  0  0  0
   11.6670    6.3227    5.4840 N   0  0  0  0  0  0  0  0  0  0  0  0
   12.7066    6.6289    4.5780 C   0  0  0  0  0  0  0  0  0  0  0  0
   13.8497    7.0588    4.9245 N   0  0  0  0  0  0  0  0  0  0  0  0
   10.7836    6.0642    5.1347 H   0  0  0  0  0  0  0  0  0  0  0  0
   13.6508    6.0235    2.3741 C   0  0  0  0  0  0  0  0  0  0  0  0
   13.4064    5.7947    1.0333 C   0  0  0  0  0  0  0  0  0  0  0  0
   12.1364    5.9089    0.4934 C   0  0  0  0  0  0  0  0  0  0  0  0
   14.6473    5.4384    0.1640 C   0  0  0  0  0  0  0  0  0  0  0  0
    9.7064    6.2605    0.5990 C   0  0  0  0  0  0  0  0  0  0  0  0
   11.2622    6.4304    2.6102 C   0  0  0  0  0  0  0  0  0  0  0  0
   11.0213    6.1852    1.2598 C   0  0  0  0  0  0  0  0  0  0  0  0
   12.5411    6.4001    3.2020 C   0  0  0  0  0  0  0  0  0  0  0  0
   11.9396    5.6242   -0.8426 O   0  0  0  0  0  0  0  0  0  0  0  0
   11.1810    4.4330   -1.1456 C   0  0  0  0  0  0  0  0  0  0  0  0
   12.2109    3.2924   -1.1241 C   0  0  0  0  0  0  0  0  0  0  0  0
   14.1923    2.1987   -2.2914 C   0  0  0  0  0  0  0  0  0  0  0  0
   12.1030    2.6476   -3.4058 C   0  0  0  0  0  0  0  0  0  0  0  0
   12.9887    3.1338   -2.3618 N   0  0  0  0  0  0  0  0  0  0  0  0
   13.0392    1.8335   -4.3185 C   0  0  0  0  0  0  0  0  0  0  0  0
   14.4460    1.6881   -3.7326 C   0  0  0  0  0  0  0  0  0  0  0  0
   13.1828    5.3227   10.4983 C   0  0  0  0  0  0  0  0  0  0  0  0
   12.7589    6.2751    9.5386 O   0  0  0  0  0  0  0  0  0  0  0  0
   17.0835    7.7453    8.3762 O   0  0  0  0  0  0  0  0  0  0  0  0
   18.2163    7.5975    7.5144 C   0  0  0  0  0  0  0  0  0  0  0  0
 29 30  1  0  0  0
 30  5  1  0  0  0
  6  2  2  0  0  0
  5  8  2  0  0  0
  5  7  1  0  0  0
  2  7  1  0  0  0
  2  9  1  0  0  0
  8  4  1  0  0  0
  7  1  2  0  0  0
  9 10  1  0  0  0
  4 31  1  0  0  0
  4  3  2  0  0  0
  1  3  1  0  0  0
  1 11  1  0  0  0
 10 11  2  0  0  0
 10 20  1  0  0  0
 31 32  1  0  0  0
 18 20  2  0  0  0
 18 19  1  0  0  0
 17 19  1  0  0  0
 20 13  1  0  0  0
 19 15  2  0  0  0
 13 14  2  0  0  0
 15 14  1  0  0  0
 15 21  1  0  0  0
 14 16  1  0  0  0
 21 22  1  0  0  0
 25 27  1  0  0  0
 25 26  1  0  0  0
 22 23  1  0  0  0
 27 28  1  0  0  0
 26 23  1  0  0  0
 26 24  1  0  0  0
 28 24  1  0  0  0
  9 12  1  0  0  0
M  END
> <minimizedAffinity>
-7.64482

$$$$
5DW2_5GD_A_201


 32 35  0  0  0  0  0  0  0  0999 V2000
   11.8757    6.7057    1.5020 C   0  0  0  0  0  0  0  0  0  0  0  0
   14.1028    5.7638    1.1137 C   0  0  0  0  0  0  0  0  0  0  0  0
   10.5011    6.8827    1.1559 C   0  0  0  0  0  0  0  0  0  0  0  0
   10.0066    6.1971    0.1136 C   0  0  0  0  0  0  0  0  0  0  0  0
   12.1469    5.1837   -0.3630 C   0  0  0  0  0  0  0  0  0  0  0  0
   14.9936    5.1354    0.5017 O   0  0  0  0  0  0  0  0  0  0  0  0
   12.6733    5.8812    0.7020 C   0  0  0  0  0  0  0  0  0  0  0  0
   10.7893    5.3703   -0.6723 C   0  0  0  0  0  0  0  0  0  0  0  0
   14.4440    6.4170    2.2841 N   0  0  0  0  0  0  0  0  0  0  0  0
   13.4942    7.1706    3.0090 C   0  0  0  0  0  0  0  0  0  0  0  0
   12.3064    7.3862    2.6164 N   0  0  0  0  0  0  0  0  0  0  0  0
   15.3678    6.3555    2.6188 H   0  0  0  0  0  0  0  0  0  0  0  0
   14.0238    9.0849    4.4820 C   0  0  0  0  0  0  0  0  0  0  0  0
   14.3107    9.5147    5.7637 C   0  0  0  0  0  0  0  0  0  0  0  0
   14.3818    8.6339    6.8298 C   0  0  0  0  0  0  0  0  0  0  0  0
   14.5842   11.0381    5.9280 C   0  0  0  0  0  0  0  0  0  0  0  0
   14.1788    6.4326    7.9035 C   0  0  0  0  0  0  0  0  0  0  0  0
   13.8258    6.8444    5.4135 C   0  0  0  0  0  0  0  0  0  0  0  0
   14.1026    7.2871    6.7055 C   0  0  0  0  0  0  0  0  0  0  0  0
   13.8107    7.6806    4.2790 C   0  0  0  0  0  0  0  0  0  0  0  0
   14.6261    9.1219    8.0974 O   0  0  0  0  0  0  0  0  0  0  0  0
   15.8970    9.7760    8.3053 C   0  0  0  0  0  0  0  0  0  0  0  0
   16.9039    8.6311    8.4991 C   0  0  0  0  0  0  0  0  0  0  0  0
   17.8179    7.3512    6.4964 C   0  0  0  0  0  0  0  0  0  0  0  0
   17.9259    9.7523    6.6737 C   0  0  0  0  0  0  0  0  0  0  0  0
   17.9375    8.5296    7.4583 N   0  0  0  0  0  0  0  0  0  0  0  0
   18.4037    9.2902    5.2843 C   0  0  0  0  0  0  0  0  0  0  0  0
   18.5363    7.7682    5.1879 C   0  0  0  0  0  0  0  0  0  0  0  0
   12.3951    3.0740   -1.4534 C   0  0  0  0  0  0  0  0  0  0  0  0
   12.9373    4.3097   -1.0209 O   0  0  0  0  0  0  0  0  0  0  0  0
    8.7073    6.2679   -0.3228 O   0  0  0  0  0  0  0  0  0  0  0  0
    8.4344    6.8227   -1.6133 C   0  0  0  0  0  0  0  0  0  0  0  0
 29 30  1  0  0  0
 30  5  1  0  0  0
  6  2  2  0  0  0
  5  8  2  0  0  0
  5  7  1  0  0  0
  2  7  1  0  0  0
  2  9  1  0  0  0
  8  4  1  0  0  0
  7  1  2  0  0  0
  9 10  1  0  0  0
  4 31  1  0  0  0
  4  3  2  0  0  0
  1  3  1  0  0  0
  1 11  1  0  0  0
 10 11  2  0  0  0
 10 20  1  0  0  0
 31 32  1  0  0  0
 18 20  2  0  0  0
 18 19  1  0  0  0
 17 19  1  0  0  0
 20 13  1  0  0  0
 19 15  2  0  0  0
 13 14  2  0  0  0
 15 14  1  0  0  0
 15 21  1  0  0  0
 14 16  1  0  0  0
 21 22  1  0  0  0
 25 27  1  0  0  0
 25 26  1  0  0  0
 22 23  1  0  0  0
 27 28  1  0  0  0
 26 23  1  0  0  0
 26 24  1  0  0  0
 28 24  1  0  0  0
  9 12  1  0  0  0
M  END
> <minimizedAffinity>
-7.52192

$$$$
5DW2_5GD_A_201


 32 35  0  0  0  0  0  0  0  0999 V2000
   12.7088    6.8677    4.6273 C   0  0  0  0  0  0  0  0  0  0  0  0
   10.9254    5.4848    5.5784 C   0  0  0  0  0  0  0  0  0  0  0  0
   13.9800    7.5156    4.7000 C   0  0  0  0  0  0  0  0  0  0  0  0
   14.7403    7.3203    5.7885 C   0  0  0  0  0  0  0  0  0  0  0  0
   13.0679    5.9212    6.8281 C   0  0  0  0  0  0  0  0  0  0  0  0
   10.3248    4.8296    6.4576 O   0  0  0  0  0  0  0  0  0  0  0  0
   12.2720    6.1120    5.7200 C   0  0  0  0  0  0  0  0  0  0  0  0
   14.3172    6.5626    6.8659 C   0  0  0  0  0  0  0  0  0  0  0  0
   10.3108    5.6576    4.3515 N   0  0  0  0  0  0  0  0  0  0  0  0
   10.9196    6.4124    3.3243 C   0  0  0  0  0  0  0  0  0  0  0  0
   12.0051    7.0561    3.4612 N   0  0  0  0  0  0  0  0  0  0  0  0
    9.4310    5.2461    4.1908 H   0  0  0  0  0  0  0  0  0  0  0  0
   10.9957    5.7411    0.9456 C   0  0  0  0  0  0  0  0  0  0  0  0
   10.3808    5.7893   -0.2911 C   0  0  0  0  0  0  0  0  0  0  0  0
    9.1901    6.4680   -0.4880 C   0  0  0  0  0  0  0  0  0  0  0  0
   11.1249    5.0677   -1.4524 C   0  0  0  0  0  0  0  0  0  0  0  0
    7.2257    7.7540    0.2381 C   0  0  0  0  0  0  0  0  0  0  0  0
    9.1205    7.0452    1.7878 C   0  0  0  0  0  0  0  0  0  0  0  0
    8.4997    7.0782    0.5407 C   0  0  0  0  0  0  0  0  0  0  0  0
   10.3660    6.4329    2.0334 C   0  0  0  0  0  0  0  0  0  0  0  0
    8.5947    6.4458   -1.7328 O   0  0  0  0  0  0  0  0  0  0  0  0
    9.1184    7.3638   -2.7173 C   0  0  0  0  0  0  0  0  0  0  0  0
    8.0760    7.3692   -3.8467 C   0  0  0  0  0  0  0  0  0  0  0  0
    5.7632    8.1059   -3.0767 C   0  0  0  0  0  0  0  0  0  0  0  0
    7.6731    9.5758   -3.0704 C   0  0  0  0  0  0  0  0  0  0  0  0
    7.0798    8.4478   -3.7678 N   0  0  0  0  0  0  0  0  0  0  0  0
    6.4662   10.2538   -2.3952 C   0  0  0  0  0  0  0  0  0  0  0  0
    5.1788    9.4391   -2.5445 C   0  0  0  0  0  0  0  0  0  0  0  0
   12.6123    5.5315    9.1394 C   0  0  0  0  0  0  0  0  0  0  0  0
   12.6430    5.0820    7.7959 O   0  0  0  0  0  0  0  0  0  0  0  0
   15.9801    7.8749    5.9855 O   0  0  0  0  0  0  0  0  0  0  0  0
   16.1282    8.9301    6.9407 C   0  0  0  0  0  0  0  0  0  0  0  0
 29 30  1  0  0  0
 30  5  1  0  0  0
  6  2  2  0  0  0
  5  8  2  0  0  0
  5  7  1  0  0  0
  2  7  1  0  0  0
  2  9  1  0  0  0
  8  4  1  0  0  0
  7  1  2  0  0  0
  9 10  1  0  0  0
  4 31  1  0  0  0
  4  3  2  0  0  0
  1  3  1  0  0  0
  1 11  1  0  0  0
 10 11  2  0  0  0
 10 20  1  0  0  0
 31 32  1  0  0  0
 18 20  2  0  0  0
 18 19  1  0  0  0
 17 19  1  0  0  0
 20 13  1  0  0  0
 19 15  2  0  0  0
 13 14  2  0  0  0
 15 14  1  0  0  0
 15 21  1  0  0  0
 14 16  1  0  0  0
 21 22  1  0  0  0
 25 27  1  0  0  0
 25 26  1  0  0  0
 22 23  1  0  0  0
 27 28  1  0  0  0
 26 23  1  0  0  0
 26 24  1  0  0  0
 28 24  1  0  0  0
  9 12  1  0  0  0
M  END
> <minimizedAffinity>
-7.45220

$$$$
5DW2_5GD_A_201


 32 35  0  0  0  0  0  0  0  0999 V2000
   12.9647    6.1167    6.4508 C   0  0  0  0  0  0  0  0  0  0  0  0
   14.5142    7.6841    5.3831 C   0  0  0  0  0  0  0  0  0  0  0  0
   12.4743    5.4005    7.5854 C   0  0  0  0  0  0  0  0  0  0  0  0
   13.0239    5.6423    8.7856 C   0  0  0  0  0  0  0  0  0  0  0  0
   14.5940    7.2267    7.8584 C   0  0  0  0  0  0  0  0  0  0  0  0
   15.4999    8.4489    5.3012 O   0  0  0  0  0  0  0  0  0  0  0  0
   14.0444    6.9898    6.6176 C   0  0  0  0  0  0  0  0  0  0  0  0
   14.0835    6.5152    8.9569 C   0  0  0  0  0  0  0  0  0  0  0  0
   13.7711    7.4437    4.2417 N   0  0  0  0  0  0  0  0  0  0  0  0
   12.6639    6.5665    4.2567 C   0  0  0  0  0  0  0  0  0  0  0  0
   12.3195    5.8715    5.2616 N   0  0  0  0  0  0  0  0  0  0  0  0
   14.0189    7.8931    3.4015 H   0  0  0  0  0  0  0  0  0  0  0  0
   12.3457    6.5218    1.8049 C   0  0  0  0  0  0  0  0  0  0  0  0
   11.4556    6.3971    0.7551 C   0  0  0  0  0  0  0  0  0  0  0  0
   10.0994    6.2139    0.9663 C   0  0  0  0  0  0  0  0  0  0  0  0
   12.0636    6.5117   -0.6731 C   0  0  0  0  0  0  0  0  0  0  0  0
    8.1006    5.8526    2.3498 C   0  0  0  0  0  0  0  0  0  0  0  0
   10.4423    6.2090    3.2900 C   0  0  0  0  0  0  0  0  0  0  0  0
    9.5527    6.0709    2.2264 C   0  0  0  0  0  0  0  0  0  0  0  0
   11.8194    6.4682    3.1385 C   0  0  0  0  0  0  0  0  0  0  0  0
    9.2607    6.0489   -0.1171 O   0  0  0  0  0  0  0  0  0  0  0  0
    8.5330    7.2167   -0.5562 C   0  0  0  0  0  0  0  0  0  0  0  0
    7.2231    6.6684   -1.1442 C   0  0  0  0  0  0  0  0  0  0  0  0
    5.8964    8.0330   -2.8359 C   0  0  0  0  0  0  0  0  0  0  0  0
    8.2281    7.4980   -3.1280 C   0  0  0  0  0  0  0  0  0  0  0  0
    6.9873    7.0036   -2.5563 N   0  0  0  0  0  0  0  0  0  0  0  0
    7.7542    8.4694   -4.2253 C   0  0  0  0  0  0  0  0  0  0  0  0
    6.2394    8.6884   -4.1979 C   0  0  0  0  0  0  0  0  0  0  0  0
   16.7837    7.8376    8.5888 C   0  0  0  0  0  0  0  0  0  0  0  0
   15.5509    8.1712    7.9749 O   0  0  0  0  0  0  0  0  0  0  0  0
   12.6466    5.0316    9.9553 O   0  0  0  0  0  0  0  0  0  0  0  0
   11.7754    5.7247   10.8543 C   0  0  0  0  0  0  0  0  0  0  0  0
 29 30  1  0  0  0
 30  5  1  0  0  0
  6  2  2  0  0  0
  5  8  2  0  0  0
  5  7  1  0  0  0
  2  7  1  0  0  0
  2  9  1  0  0  0
  8  4  1  0  0  0
  7  1  2  0  0  0
  9 10  1  0  0  0
  4 31  1  0  0  0
  4  3  2  0  0  0
  1  3  1  0  0  0
  1 11  1  0  0  0
 10 11  2  0  0  0
 10 20  1  0  0  0
 31 32  1  0  0  0
 18 20  2  0  0  0
 18 19  1  0  0  0
 17 19  1  0  0  0
 20 13  1  0  0  0
 19 15  2  0  0  0
 13 14  2  0  0  0
 15 14  1  0  0  0
 15 21  1  0  0  0
 14 16  1  0  0  0
 21 22  1  0  0  0
 25 27  1  0  0  0
 25 26  1  0  0  0
 22 23  1  0  0  0
 27 28  1  0  0  0
 26 23  1  0  0  0
 26 24  1  0  0  0
 28 24  1  0  0  0
  9 12  1  0  0  0
M  END
> <minimizedAffinity>
-7.41927

$$$$
5DW2_5GD_A_201


 32 35  0  0  0  0  0  0  0  0999 V2000
   13.1409    6.0454    6.9835 C   0  0  0  0  0  0  0  0  0  0  0  0
   15.1800    7.2514    6.3627 C   0  0  0  0  0  0  0  0  0  0  0  0
   12.2697    5.4481    7.9454 C   0  0  0  0  0  0  0  0  0  0  0  0
   12.5706    5.5677    9.2477 C   0  0  0  0  0  0  0  0  0  0  0  0
   14.6009    6.7858    8.7691 C   0  0  0  0  0  0  0  0  0  0  0  0
   16.2940    7.7911    6.5382 O   0  0  0  0  0  0  0  0  0  0  0  0
   14.3103    6.6711    7.4274 C   0  0  0  0  0  0  0  0  0  0  0  0
   13.7198    6.1973    9.6915 C   0  0  0  0  0  0  0  0  0  0  0  0
   14.6818    7.1739    5.0748 N   0  0  0  0  0  0  0  0  0  0  0  0
   13.4442    6.5501    4.8017 C   0  0  0  0  0  0  0  0  0  0  0  0
   12.7457    5.9427    5.6706 N   0  0  0  0  0  0  0  0  0  0  0  0
   15.2004    7.5615    4.3331 H   0  0  0  0  0  0  0  0  0  0  0  0
   11.5199    7.0728    3.3394 C   0  0  0  0  0  0  0  0  0  0  0  0
   11.0345    7.1487    2.0476 C   0  0  0  0  0  0  0  0  0  0  0  0
   11.8192    6.8261    0.9533 C   0  0  0  0  0  0  0  0  0  0  0  0
    9.5467    7.5817    1.9015 C   0  0  0  0  0  0  0  0  0  0  0  0
   13.9127    6.1784   -0.1593 C   0  0  0  0  0  0  0  0  0  0  0  0
   13.6436    6.3874    2.3662 C   0  0  0  0  0  0  0  0  0  0  0  0
   13.1511    6.4791    1.0659 C   0  0  0  0  0  0  0  0  0  0  0  0
   12.8734    6.6329    3.5209 C   0  0  0  0  0  0  0  0  0  0  0  0
   11.2995    6.9636   -0.3178 O   0  0  0  0  0  0  0  0  0  0  0  0
   10.3969    5.9279   -0.7636 C   0  0  0  0  0  0  0  0  0  0  0  0
   10.0048    6.3337   -2.1932 C   0  0  0  0  0  0  0  0  0  0  0  0
    7.8680    7.2275   -1.1350 C   0  0  0  0  0  0  0  0  0  0  0  0
    8.5016    7.7101   -3.4096 C   0  0  0  0  0  0  0  0  0  0  0  0
    8.5916    6.6992   -2.3700 N   0  0  0  0  0  0  0  0  0  0  0  0
    7.2561    8.5235   -3.0106 C   0  0  0  0  0  0  0  0  0  0  0  0
    6.7011    8.1110   -1.6449 C   0  0  0  0  0  0  0  0  0  0  0  0
   15.4988    8.6657    9.9359 C   0  0  0  0  0  0  0  0  0  0  0  0
   15.6795    7.5072    9.1402 O   0  0  0  0  0  0  0  0  0  0  0  0
   11.8208    5.0495   10.2738 O   0  0  0  0  0  0  0  0  0  0  0  0
   12.4718    4.6691   11.4900 C   0  0  0  0  0  0  0  0  0  0  0  0
 29 30  1  0  0  0
 30  5  1  0  0  0
  6  2  2  0  0  0
  5  8  2  0  0  0
  5  7  1  0  0  0
  2  7  1  0  0  0
  2  9  1  0  0  0
  8  4  1  0  0  0
  7  1  2  0  0  0
  9 10  1  0  0  0
  4 31  1  0  0  0
  4  3  2  0  0  0
  1  3  1  0  0  0
  1 11  1  0  0  0
 10 11  2  0  0  0
 10 20  1  0  0  0
 31 32  1  0  0  0
 18 20  2  0  0  0
 18 19  1  0  0  0
 17 19  1  0  0  0
 20 13  1  0  0  0
 19 15  2  0  0  0
 13 14  2  0  0  0
 15 14  1  0  0  0
 15 21  1  0  0  0
 14 16  1  0  0  0
 21 22  1  0  0  0
 25 27  1  0  0  0
 25 26  1  0  0  0
 22 23  1  0  0  0
 27 28  1  0  0  0
 26 23  1  0  0  0
 26 24  1  0  0  0
 28 24  1  0  0  0
  9 12  1  0  0  0
M  END
> <minimizedAffinity>
-7.39005

$$$$
5DW2_5GD_A_201


 32 35  0  0  0  0  0  0  0  0999 V2000
   15.4883    8.2441    5.1728 C   0  0  0  0  0  0  0  0  0  0  0  0
   14.2501    6.7225    6.6389 C   0  0  0  0  0  0  0  0  0  0  0  0
   16.5457    9.1699    4.9164 C   0  0  0  0  0  0  0  0  0  0  0  0
   17.4508    9.3961    5.8810 C   0  0  0  0  0  0  0  0  0  0  0  0
   16.3335    7.9041    7.4174 C   0  0  0  0  0  0  0  0  0  0  0  0
   13.9471    6.1508    7.7087 O   0  0  0  0  0  0  0  0  0  0  0  0
   15.3931    7.6611    6.4405 C   0  0  0  0  0  0  0  0  0  0  0  0
   17.3675    8.8112    7.1320 C   0  0  0  0  0  0  0  0  0  0  0  0
   13.4745    6.4791    5.5200 N   0  0  0  0  0  0  0  0  0  0  0  0
   13.7423    7.1153    4.2874 C   0  0  0  0  0  0  0  0  0  0  0  0
   14.6303    8.0078    4.1248 N   0  0  0  0  0  0  0  0  0  0  0  0
   12.7203    5.8496    5.5837 H   0  0  0  0  0  0  0  0  0  0  0  0
   13.7686    6.3187    1.9466 C   0  0  0  0  0  0  0  0  0  0  0  0
   13.0263    5.9312    0.8472 C   0  0  0  0  0  0  0  0  0  0  0  0
   11.6418    5.9209    0.8685 C   0  0  0  0  0  0  0  0  0  0  0  0
   13.8383    5.5441   -0.4230 C   0  0  0  0  0  0  0  0  0  0  0  0
    9.4397    6.1590    1.9333 C   0  0  0  0  0  0  0  0  0  0  0  0
   11.6517    6.6281    3.1084 C   0  0  0  0  0  0  0  0  0  0  0  0
   10.9103    6.2235    2.0001 C   0  0  0  0  0  0  0  0  0  0  0  0
   13.0576    6.7279    3.1237 C   0  0  0  0  0  0  0  0  0  0  0  0
   10.9499    5.4809   -0.2415 O   0  0  0  0  0  0  0  0  0  0  0  0
   10.7455    6.4422   -1.2999 C   0  0  0  0  0  0  0  0  0  0  0  0
    9.3720    6.0908   -1.8934 C   0  0  0  0  0  0  0  0  0  0  0  0
    8.1639    7.7191   -3.4340 C   0  0  0  0  0  0  0  0  0  0  0  0
    7.1725    6.8458   -1.4184 C   0  0  0  0  0  0  0  0  0  0  0  0
    8.4410    7.2220   -2.0183 N   0  0  0  0  0  0  0  0  0  0  0  0
    6.1420    7.6659   -2.2170 C   0  0  0  0  0  0  0  0  0  0  0  0
    6.7717    8.3996   -3.4038 C   0  0  0  0  0  0  0  0  0  0  0  0
   16.3052    7.9234    9.8050 C   0  0  0  0  0  0  0  0  0  0  0  0
   16.2571    7.2178    8.5770 O   0  0  0  0  0  0  0  0  0  0  0  0
   18.5168   10.2530    5.7670 O   0  0  0  0  0  0  0  0  0  0  0  0
   19.8328    9.7123    5.6132 C   0  0  0  0  0  0  0  0  0  0  0  0
 29 30  1  0  0  0
 30  5  1  0  0  0
  6  2  2  0  0  0
  5  8  2  0  0  0
  5  7  1  0  0  0
  2  7  1  0  0  0
  2  9  1  0  0  0
  8  4  1  0  0  0
  7  1  2  0  0  0
  9 10  1  0  0  0
  4 31  1  0  0  0
  4  3  2  0  0  0
  1  3  1  0  0  0
  1 11  1  0  0  0
 10 11  2  0  0  0
 10 20  1  0  0  0
 31 32  1  0  0  0
 18 20  2  0  0  0
 18 19  1  0  0  0
 17 19  1  0  0  0
 20 13  1  0  0  0
 19 15  2  0  0  0
 13 14  2  0  0  0
 15 14  1  0  0  0
 15 21  1  0  0  0
 14 16  1  0  0  0
 21 22  1  0  0  0
 25 27  1  0  0  0
 25 26  1  0  0  0
 22 23  1  0  0  0
 27 28  1  0  0  0
 26 23  1  0  0  0
 26 24  1  0  0  0
 28 24  1  0  0  0
  9 12  1  0  0  0
M  END
> <minimizedAffinity>
-7.15445

$$$$
5DW2_5GD_A_201


 32 35  0  0  0  0  0  0  0  0999 V2000
   11.7955    6.6261    1.4546 C   0  0  0  0  0  0  0  0  0  0  0  0
   13.9069    5.4878    0.9608 C   0  0  0  0  0  0  0  0  0  0  0  0
   10.4344    6.9462    1.1620 C   0  0  0  0  0  0  0  0  0  0  0  0
    9.8429    6.3471    0.1170 C   0  0  0  0  0  0  0  0  0  0  0  0
   11.8583    5.1490   -0.4643 C   0  0  0  0  0  0  0  0  0  0  0  0
   14.7126    4.7975    0.2993 O   0  0  0  0  0  0  0  0  0  0  0  0
   12.4834    5.7561    0.6026 C   0  0  0  0  0  0  0  0  0  0  0  0
   10.5162    5.4757   -0.7205 C   0  0  0  0  0  0  0  0  0  0  0  0
   14.3469    6.0652    2.1380 N   0  0  0  0  0  0  0  0  0  0  0  0
   13.4983    6.8818    2.9181 C   0  0  0  0  0  0  0  0  0  0  0  0
   12.3253    7.2239    2.5737 N   0  0  0  0  0  0  0  0  0  0  0  0
   15.2704    5.9037    2.4385 H   0  0  0  0  0  0  0  0  0  0  0  0
   13.5158    6.6034    5.3752 C   0  0  0  0  0  0  0  0  0  0  0  0
   13.9697    7.0788    6.5908 C   0  0  0  0  0  0  0  0  0  0  0  0
   14.7816    8.1969    6.6799 C   0  0  0  0  0  0  0  0  0  0  0  0
   13.4841    6.3050    7.8511 C   0  0  0  0  0  0  0  0  0  0  0  0
   16.1334   10.0332    5.7631 C   0  0  0  0  0  0  0  0  0  0  0  0
   14.7873    8.4030    4.3401 C   0  0  0  0  0  0  0  0  0  0  0  0
   15.2518    8.8686    5.5687 C   0  0  0  0  0  0  0  0  0  0  0  0
   13.9028    7.3158    4.1914 C   0  0  0  0  0  0  0  0  0  0  0  0
   15.2446    8.6020    7.9153 O   0  0  0  0  0  0  0  0  0  0  0  0
   16.4688    7.9921    8.3795 C   0  0  0  0  0  0  0  0  0  0  0  0
   16.2038    7.6458    9.8533 C   0  0  0  0  0  0  0  0  0  0  0  0
   17.2411    6.9582   12.0750 C   0  0  0  0  0  0  0  0  0  0  0  0
   18.4665    6.9441    9.9997 C   0  0  0  0  0  0  0  0  0  0  0  0
   17.3978    7.6242   10.7111 N   0  0  0  0  0  0  0  0  0  0  0  0
   19.3078    6.3206   11.1292 C   0  0  0  0  0  0  0  0  0  0  0  0
   18.6519    6.4801   12.5031 C   0  0  0  0  0  0  0  0  0  0  0  0
   11.8397    3.1262   -1.7330 C   0  0  0  0  0  0  0  0  0  0  0  0
   12.5387    4.2256   -1.1757 O   0  0  0  0  0  0  0  0  0  0  0  0
    8.5436    6.5573   -0.2718 O   0  0  0  0  0  0  0  0  0  0  0  0
    7.7188    7.4368    0.4989 C   0  0  0  0  0  0  0  0  0  0  0  0
 29 30  1  0  0  0
 30  5  1  0  0  0
  6  2  2  0  0  0
  5  8  2  0  0  0
  5  7  1  0  0  0
  2  7  1  0  0  0
  2  9  1  0  0  0
  8  4  1  0  0  0
  7  1  2  0  0  0
  9 10  1  0  0  0
  4 31  1  0  0  0
  4  3  2  0  0  0
  1  3  1  0  0  0
  1 11  1  0  0  0
 10 11  2  0  0  0
 10 20  1  0  0  0
 31 32  1  0  0  0
 18 20  2  0  0  0
 18 19  1  0  0  0
 17 19  1  0  0  0
 20 13  1  0  0  0
 19 15  2  0  0  0
 13 14  2  0  0  0
 15 14  1  0  0  0
 15 21  1  0  0  0
 14 16  1  0  0  0
 21 22  1  0  0  0
 25 27  1  0  0  0
 25 26  1  0  0  0
 22 23  1  0  0  0
 27 28  1  0  0  0
 26 23  1  0  0  0
 26 24  1  0  0  0
 28 24  1  0  0  0
  9 12  1  0  0  0
M  END
> <minimizedAffinity>
-7.11322

$$$$
5DW2_5GD_A_201


 32 35  0  0  0  0  0  0  0  0999 V2000
   11.9526    6.5602    0.9918 C   0  0  0  0  0  0  0  0  0  0  0  0
   14.0875    5.3672    0.8624 C   0  0  0  0  0  0  0  0  0  0  0  0
   10.6197    6.8165    0.5462 C   0  0  0  0  0  0  0  0  0  0  0  0
   10.1049    6.0427   -0.4218 C   0  0  0  0  0  0  0  0  0  0  0  0
   12.1502    4.7752   -0.6340 C   0  0  0  0  0  0  0  0  0  0  0  0
   14.9361    4.5785    0.3925 O   0  0  0  0  0  0  0  0  0  0  0  0
   12.6970    5.5609    0.3568 C   0  0  0  0  0  0  0  0  0  0  0  0
   10.8337    5.0445   -1.0434 C   0  0  0  0  0  0  0  0  0  0  0  0
   14.4411    6.1414    1.9526 N   0  0  0  0  0  0  0  0  0  0  0  0
   13.5415    7.0747    2.5140 C   0  0  0  0  0  0  0  0  0  0  0  0
   12.4003    7.3451    2.0281 N   0  0  0  0  0  0  0  0  0  0  0  0
   15.3381    6.0399    2.3454 H   0  0  0  0  0  0  0  0  0  0  0  0
   15.1272    8.3499    3.9191 C   0  0  0  0  0  0  0  0  0  0  0  0
   15.3516    8.9875    5.1245 C   0  0  0  0  0  0  0  0  0  0  0  0
   14.3838    9.0401    6.1134 C   0  0  0  0  0  0  0  0  0  0  0  0
   16.7661    9.6082    5.3158 C   0  0  0  0  0  0  0  0  0  0  0  0
   12.1413    8.6560    7.0426 C   0  0  0  0  0  0  0  0  0  0  0  0
   12.8834    7.8725    4.7340 C   0  0  0  0  0  0  0  0  0  0  0  0
   13.1125    8.5287    5.9418 C   0  0  0  0  0  0  0  0  0  0  0  0
   13.8515    7.7240    3.7204 C   0  0  0  0  0  0  0  0  0  0  0  0
   14.6434    9.7296    7.2803 O   0  0  0  0  0  0  0  0  0  0  0  0
   15.4487    9.0498    8.2682 C   0  0  0  0  0  0  0  0  0  0  0  0
   14.7142    9.2745    9.5994 C   0  0  0  0  0  0  0  0  0  0  0  0
   12.7405    8.0116   10.5964 C   0  0  0  0  0  0  0  0  0  0  0  0
   14.5207    6.9178    9.3952 C   0  0  0  0  0  0  0  0  0  0  0  0
   14.2270    8.0517   10.2546 N   0  0  0  0  0  0  0  0  0  0  0  0
   13.3967    5.9179    9.7259 C   0  0  0  0  0  0  0  0  0  0  0  0
   12.3354    6.5167   10.6523 C   0  0  0  0  0  0  0  0  0  0  0  0
   12.3872    3.0203   -2.2358 C   0  0  0  0  0  0  0  0  0  0  0  0
   12.8761    3.7475   -1.1222 O   0  0  0  0  0  0  0  0  0  0  0  0
    8.8401    6.1747   -0.9381 O   0  0  0  0  0  0  0  0  0  0  0  0
    7.8178    6.7723   -0.1346 C   0  0  0  0  0  0  0  0  0  0  0  0
 29 30  1  0  0  0
 30  5  1  0  0  0
  6  2  2  0  0  0
  5  8  2  0  0  0
  5  7  1  0  0  0
  2  7  1  0  0  0
  2  9  1  0  0  0
  8  4  1  0  0  0
  7  1  2  0  0  0
  9 10  1  0  0  0
  4 31  1  0  0  0
  4  3  2  0  0  0
  1  3  1  0  0  0
  1 11  1  0  0  0
 10 11  2  0  0  0
 10 20  1  0  0  0
 31 32  1  0  0  0
 18 20  2  0  0  0
 18 19  1  0  0  0
 17 19  1  0  0  0
 20 13  1  0  0  0
 19 15  2  0  0  0
 13 14  2  0  0  0
 15 14  1  0  0  0
 15 21  1  0  0  0
 14 16  1  0  0  0
 21 22  1  0  0  0
 25 27  1  0  0  0
 25 26  1  0  0  0
 22 23  1  0  0  0
 27 28  1  0  0  0
 26 23  1  0  0  0
 26 24  1  0  0  0
 28 24  1  0  0  0
  9 12  1  0  0  0
M  END
> <minimizedAffinity>
-7.08110

$$$$
