4RWW_2BA_A_2001


 52 58  0  0  0  0  0  0  0  0999 V2000
   59.8369   74.1680  -87.9973 P   0  0  0  0  0  0  0  0  0  0  0  0
   59.2964   73.6033  -86.7217 O   0  0  0  0  0  0  0  0  0  0  0  0
   61.0215   75.1093  -87.9958 O   0  0  0  0  0  0  0  0  0  0  0  0
   58.7058   74.9616  -88.8146 O   0  0  0  0  0  0  0  0  0  0  0  0
   57.3951   74.3615  -88.9751 C   0  0  0  0  0  0  0  0  0  0  0  0
   56.4953   75.3153  -89.7261 C   0  0  0  0  0  0  0  0  0  0  0  0
   56.3279   76.5152  -88.9972 O   0  0  0  0  0  0  0  0  0  0  0  0
   57.0444   75.7687  -91.0711 C   0  0  0  0  0  0  0  0  0  0  0  0
   56.8016   74.7492  -92.0393 O   0  0  0  0  0  0  0  0  0  0  0  0
   56.3773   77.1013  -91.3442 C   0  0  0  0  0  0  0  0  0  0  0  0
   55.2965   77.0001  -92.2649 O   0  0  0  0  0  0  0  0  0  0  0  0
   55.8255   77.3925  -89.9635 C   0  0  0  0  0  0  0  0  0  0  0  0
   57.8520   74.4720  -93.2209 P   0  0  0  0  0  0  0  0  0  0  0  0
   58.3400   75.7418  -93.7980 O   0  0  0  0  0  0  0  0  0  0  0  0
   57.2283   73.4501  -94.1629 O   0  0  0  0  0  0  0  0  0  0  0  0
   59.1149   73.7729  -92.4887 O   0  0  0  0  0  0  0  0  0  0  0  0
   59.0576   72.4734  -91.9007 C   0  0  0  0  0  0  0  0  0  0  0  0
   60.3983   72.2057  -91.2794 C   0  0  0  0  0  0  0  0  0  0  0  0
   61.4237   72.2100  -92.2913 O   0  0  0  0  0  0  0  0  0  0  0  0
   60.8330   73.2291  -90.2529 C   0  0  0  0  0  0  0  0  0  0  0  0
   60.2277   72.9408  -88.9961 O   0  0  0  0  0  0  0  0  0  0  0  0
   62.3530   73.0511  -90.2291 C   0  0  0  0  0  0  0  0  0  0  0  0
   62.7225   71.8828  -89.4871 O   0  0  0  0  0  0  0  0  0  0  0  0
   62.6171   72.7656  -91.6954 C   0  0  0  0  0  0  0  0  0  0  0  0
   60.8363   75.8612  -87.4117 H   0  0  0  0  0  0  0  0  0  0  0  0
   54.6544   76.3498  -91.9396 H   0  0  0  0  0  0  0  0  0  0  0  0
   56.4674   73.8482  -94.6139 H   0  0  0  0  0  0  0  0  0  0  0  0
   62.2652   71.1095  -89.8528 H   0  0  0  0  0  0  0  0  0  0  0  0
   56.0134   78.7368  -89.5874 N   0  0  0  0  0  0  0  0  0  0  0  0
   54.9938   79.6009  -89.2148 C   0  0  0  0  0  0  0  0  0  0  0  0
   55.4976   80.7644  -88.7615 N   0  0  0  0  0  0  0  0  0  0  0  0
   56.8465   80.5652  -88.8286 C   0  0  0  0  0  0  0  0  0  0  0  0
   57.9617   81.4178  -88.4944 C   0  0  0  0  0  0  0  0  0  0  0  0
   57.7459   82.6654  -88.0519 N   0  0  0  0  0  0  0  0  0  0  0  0
   59.1870   80.9155  -88.6912 N   0  0  0  0  0  0  0  0  0  0  0  0
   59.3853   79.6695  -89.0885 C   0  0  0  0  0  0  0  0  0  0  0  0
   58.4378   78.8173  -89.4818 N   0  0  0  0  0  0  0  0  0  0  0  0
   57.1514   79.2378  -89.2983 C   0  0  0  0  0  0  0  0  0  0  0  0
   56.8254   82.9896  -87.9228 H   0  0  0  0  0  0  0  0  0  0  0  0
   58.5082   83.2570  -87.8562 H   0  0  0  0  0  0  0  0  0  0  0  0
   62.9079   73.9906  -92.4383 N   0  0  0  0  0  0  0  0  0  0  0  0
   62.0418   74.8797  -93.0744 C   0  0  0  0  0  0  0  0  0  0  0  0
   62.7320   75.8456  -93.7222 N   0  0  0  0  0  0  0  0  0  0  0  0
   64.0488   75.7292  -93.2891 C   0  0  0  0  0  0  0  0  0  0  0  0
   65.2662   76.4228  -93.6478 C   0  0  0  0  0  0  0  0  0  0  0  0
   65.2168   77.5353  -94.4310 N   0  0  0  0  0  0  0  0  0  0  0  0
   66.4224   75.9209  -93.1892 N   0  0  0  0  0  0  0  0  0  0  0  0
   66.4263   74.8220  -92.4186 C   0  0  0  0  0  0  0  0  0  0  0  0
   65.3334   74.0831  -92.1056 N   0  0  0  0  0  0  0  0  0  0  0  0
   64.1474   74.5010  -92.5652 C   0  0  0  0  0  0  0  0  0  0  0  0
   64.3493   77.8751  -94.7493 H   0  0  0  0  0  0  0  0  0  0  0  0
   66.0485   78.0000  -94.6791 H   0  0  0  0  0  0  0  0  0  0  0  0
  1  2  2  0  0  0
  1  3  1  0  0  0
  1  4  1  0  0  0
  1 21  1  0  0  0
  4  5  1  0  0  0
  5  6  1  0  0  0
  6  7  1  0  0  0
  6  8  1  0  0  0
  7 12  1  0  0  0
  8  9  1  0  0  0
  8 10  1  0  0  0
  9 13  1  0  0  0
 10 11  1  0  0  0
 10 12  1  0  0  0
 12 29  1  0  0  0
 29 30  1  0  0  0
 29 38  1  0  0  0
 30 31  2  0  0  0
 31 32  1  0  0  0
 32 33  2  0  0  0
 32 38  1  0  0  0
 33 34  1  0  0  0
 33 35  1  0  0  0
 35 36  2  0  0  0
 36 37  1  0  0  0
 37 38  2  0  0  0
 13 14  2  0  0  0
 13 15  1  0  0  0
 13 16  1  0  0  0
 16 17  1  0  0  0
 17 18  1  0  0  0
 18 19  1  0  0  0
 18 20  1  0  0  0
 19 24  1  0  0  0
 20 21  1  0  0  0
 20 22  1  0  0  0
 22 23  1  0  0  0
 22 24  1  0  0  0
 24 41  1  0  0  0
 41 42  1  0  0  0
 41 50  1  0  0  0
 42 43  2  0  0  0
 43 44  1  0  0  0
 44 45  2  0  0  0
 44 50  1  0  0  0
 45 46  1  0  0  0
 45 47  1  0  0  0
 47 48  2  0  0  0
 48 49  1  0  0  0
 49 50  2  0  0  0
  3 25  1  0  0  0
 11 26  1  0  0  0
 34 39  1  0  0  0
 34 40  1  0  0  0
 15 27  1  0  0  0
 23 28  1  0  0  0
 46 51  1  0  0  0
 46 52  1  0  0  0
M  END
> <minimizedAffinity>
-14.47931

$$$$
