2W47_UNF_A_1138


 31 32  0  0  0  0  0  0  0  0999 V2000
   -0.0043   13.3406    3.0894 C   0  0  0  0  0  0  0  0  0  0  0  0
    0.8533   13.4977    4.3482 C   0  0  0  0  0  0  0  0  0  0  0  0
    0.1793   12.8337    5.5519 C   0  0  0  0  0  0  0  0  0  0  0  0
   -1.2556   13.3376    5.7224 C   0  0  0  0  0  0  0  0  0  0  0  0
   -2.0228   13.1081    4.4130 C   0  0  0  0  0  0  0  0  0  0  0  0
   -0.0024   11.9708    2.6567 O   0  0  0  0  0  0  0  0  0  0  0  0
    2.1477   12.9290    4.1290 O   0  0  0  0  0  0  0  0  0  0  0  0
    0.9496   13.0655    6.7386 O   0  0  0  0  0  0  0  0  0  0  0  0
   -1.3465   13.7827    3.3396 O   0  0  0  0  0  0  0  0  0  0  0  0
   -0.3792   11.4110    3.3535 H   0  0  0  0  0  0  0  0  0  0  0  0
    2.0567   11.9826    3.9368 H   0  0  0  0  0  0  0  0  0  0  0  0
    1.0001   14.0188    6.9104 H   0  0  0  0  0  0  0  0  0  0  0  0
   -3.4450   13.5920    4.5055 C   0  0  0  0  0  0  0  0  0  0  0  0
   -3.6767   14.8197    4.4359 O   0  0  0  0  0  0  0  0  0  0  0  0
   -4.3599   12.7486    4.6514 O   0  0  0  0  0  0  0  0  0  0  0  0
   -2.9694   15.4245    4.3266 H   0  0  0  0  0  0  0  0  0  0  0  0
   -1.2361   14.7316    6.0451 O   0  0  0  0  0  0  0  0  0  0  0  0
   -1.4254   15.0192    7.4335 C   0  0  0  0  0  0  0  0  0  0  0  0
   -2.1649   16.3459    7.5725 C   0  0  0  0  0  0  0  0  0  0  0  0
   -1.3184   17.4707    6.9902 C   0  0  0  0  0  0  0  0  0  0  0  0
    0.0075   17.4785    7.7253 C   0  0  0  0  0  0  0  0  0  0  0  0
    0.5733   16.3152    8.1232 C   0  0  0  0  0  0  0  0  0  0  0  0
   -3.4279   16.2591    6.9105 O   0  0  0  0  0  0  0  0  0  0  0  0
   -2.0045   18.7232    7.1244 O   0  0  0  0  0  0  0  0  0  0  0  0
   -0.1560   15.0539    8.0965 O   0  0  0  0  0  0  0  0  0  0  0  0
   -3.2875   16.0667    5.9701 H   0  0  0  0  0  0  0  0  0  0  0  0
   -2.1800   18.8968    8.0625 H   0  0  0  0  0  0  0  0  0  0  0  0
    1.8221   16.2747    8.5898 C   0  0  0  0  0  0  0  0  0  0  0  0
    2.0187   15.8697    9.7693 O   0  0  0  0  0  0  0  0  0  0  0  0
    2.7608   16.6490    7.8408 O   0  0  0  0  0  0  0  0  0  0  0  0
    2.5768   16.9436    6.9706 H   0  0  0  0  0  0  0  0  0  0  0  0
 18 19  1  0  0  0
 18 17  1  0  0  0
 18 25  1  0  0  0
 19 20  1  0  0  0
 19 23  1  0  0  0
 20 21  1  0  0  0
 20 24  1  0  0  0
 21 22  2  0  0  0
 22 28  1  0  0  0
 22 25  1  0  0  0
 28 29  2  0  0  0
 28 30  1  0  0  0
 17  4  1  0  0  0
  1  2  1  0  0  0
  1  6  1  0  0  0
  1  9  1  0  0  0
  2  3  1  0  0  0
  2  7  1  0  0  0
  3  4  1  0  0  0
  3  8  1  0  0  0
  4  5  1  0  0  0
  5 13  1  0  0  0
  5  9  1  0  0  0
 13 14  1  0  0  0
 13 15  2  0  0  0
 23 26  1  0  0  0
 24 27  1  0  0  0
  6 10  1  0  0  0
  7 11  1  0  0  0
  8 12  1  0  0  0
 14 16  1  0  0  0
 30 31  1  0  0  0
M  END
> <minimizedAffinity>
-7.84805

$$$$
2W47_UNF_A_1138


 31 32  0  0  0  0  0  0  0  0999 V2000
   -1.5553   18.2252    7.3904 C   0  0  0  0  0  0  0  0  0  0  0  0
   -2.5802   17.1293    7.0850 C   0  0  0  0  0  0  0  0  0  0  0  0
   -2.3889   15.9305    8.0179 C   0  0  0  0  0  0  0  0  0  0  0  0
   -0.9400   15.4388    7.9871 C   0  0  0  0  0  0  0  0  0  0  0  0
   -0.0094   16.6103    8.3299 C   0  0  0  0  0  0  0  0  0  0  0  0
   -1.8492   18.8395    8.6553 O   0  0  0  0  0  0  0  0  0  0  0  0
   -3.9053   17.6526    7.2158 O   0  0  0  0  0  0  0  0  0  0  0  0
   -3.2960   14.8788    7.6621 O   0  0  0  0  0  0  0  0  0  0  0  0
   -0.2273   17.6810    7.3968 O   0  0  0  0  0  0  0  0  0  0  0  0
   -1.8000   18.1725    9.3578 H   0  0  0  0  0  0  0  0  0  0  0  0
   -4.0445   17.9566    8.1264 H   0  0  0  0  0  0  0  0  0  0  0  0
   -3.1126   14.5865    6.7555 H   0  0  0  0  0  0  0  0  0  0  0  0
    1.4385   16.1996    8.3078 C   0  0  0  0  0  0  0  0  0  0  0  0
    2.0146   16.0565    7.2063 O   0  0  0  0  0  0  0  0  0  0  0  0
    2.0277   16.0109    9.3973 O   0  0  0  0  0  0  0  0  0  0  0  0
    1.5451   16.2056    6.4092 H   0  0  0  0  0  0  0  0  0  0  0  0
   -0.6362   14.9321    6.6838 O   0  0  0  0  0  0  0  0  0  0  0  0
   -0.8946   13.5350    6.5182 C   0  0  0  0  0  0  0  0  0  0  0  0
    0.3952   12.8341    6.1044 C   0  0  0  0  0  0  0  0  0  0  0  0
    0.8625   13.3692    4.7567 C   0  0  0  0  0  0  0  0  0  0  0  0
   -0.2547   13.1418    3.7574 C   0  0  0  0  0  0  0  0  0  0  0  0
   -1.5472   13.2559    4.1421 C   0  0  0  0  0  0  0  0  0  0  0  0
    1.3906   13.0356    7.1092 O   0  0  0  0  0  0  0  0  0  0  0  0
    2.0715   12.7088    4.3572 O   0  0  0  0  0  0  0  0  0  0  0  0
   -1.9292   13.3476    5.5453 O   0  0  0  0  0  0  0  0  0  0  0  0
    1.5597   13.9853    7.2110 H   0  0  0  0  0  0  0  0  0  0  0  0
    1.9126   11.7540    4.2936 H   0  0  0  0  0  0  0  0  0  0  0  0
   -2.5390   13.2589    3.2504 C   0  0  0  0  0  0  0  0  0  0  0  0
   -2.8253   12.1834    2.6543 O   0  0  0  0  0  0  0  0  0  0  0  0
   -3.1503   14.3355    3.0281 O   0  0  0  0  0  0  0  0  0  0  0  0
   -2.9101   15.1146    3.4898 H   0  0  0  0  0  0  0  0  0  0  0  0
 18 19  1  0  0  0
 18 17  1  0  0  0
 18 25  1  0  0  0
 19 20  1  0  0  0
 19 23  1  0  0  0
 20 21  1  0  0  0
 20 24  1  0  0  0
 21 22  2  0  0  0
 22 28  1  0  0  0
 22 25  1  0  0  0
 28 29  2  0  0  0
 28 30  1  0  0  0
 17  4  1  0  0  0
  1  2  1  0  0  0
  1  6  1  0  0  0
  1  9  1  0  0  0
  2  3  1  0  0  0
  2  7  1  0  0  0
  3  4  1  0  0  0
  3  8  1  0  0  0
  4  5  1  0  0  0
  5 13  1  0  0  0
  5  9  1  0  0  0
 13 14  1  0  0  0
 13 15  2  0  0  0
 23 26  1  0  0  0
 24 27  1  0  0  0
  6 10  1  0  0  0
  7 11  1  0  0  0
  8 12  1  0  0  0
 14 16  1  0  0  0
 30 31  1  0  0  0
M  END
> <minimizedAffinity>
-7.20622

$$$$
2W47_UNF_A_1138


 31 32  0  0  0  0  0  0  0  0999 V2000
   -1.5842   18.2639    7.3994 C   0  0  0  0  0  0  0  0  0  0  0  0
   -2.4948   17.0841    7.0480 C   0  0  0  0  0  0  0  0  0  0  0  0
   -2.1823   15.8737    7.9318 C   0  0  0  0  0  0  0  0  0  0  0  0
   -0.6915   15.5313    7.8837 C   0  0  0  0  0  0  0  0  0  0  0  0
    0.1179   16.7753    8.2754 C   0  0  0  0  0  0  0  0  0  0  0  0
   -1.9353   18.7939    8.6876 O   0  0  0  0  0  0  0  0  0  0  0  0
   -3.8654   17.4662    7.1975 O   0  0  0  0  0  0  0  0  0  0  0  0
   -2.9802   14.7517    7.5320 O   0  0  0  0  0  0  0  0  0  0  0  0
   -0.2083   17.8558    7.3862 O   0  0  0  0  0  0  0  0  0  0  0  0
   -1.8180   18.1073    9.3626 H   0  0  0  0  0  0  0  0  0  0  0  0
   -4.0323   17.7176    8.1193 H   0  0  0  0  0  0  0  0  0  0  0  0
   -2.7705   14.5162    6.6146 H   0  0  0  0  0  0  0  0  0  0  0  0
    1.5996   16.5131    8.2393 C   0  0  0  0  0  0  0  0  0  0  0  0
    2.2643   16.9066    7.2549 O   0  0  0  0  0  0  0  0  0  0  0  0
    2.1271   15.9048    9.1992 O   0  0  0  0  0  0  0  0  0  0  0  0
    1.8390   17.3590    6.5531 H   0  0  0  0  0  0  0  0  0  0  0  0
   -0.3413   15.1109    6.5615 O   0  0  0  0  0  0  0  0  0  0  0  0
    0.3457   13.8577    6.5027 C   0  0  0  0  0  0  0  0  0  0  0  0
    0.6956   13.5474    5.0509 C   0  0  0  0  0  0  0  0  0  0  0  0
   -0.5815   13.4005    4.2335 C   0  0  0  0  0  0  0  0  0  0  0  0
   -1.4106   12.3004    4.8667 C   0  0  0  0  0  0  0  0  0  0  0  0
   -1.4217   12.1428    6.2108 C   0  0  0  0  0  0  0  0  0  0  0  0
    1.5227   14.5881    4.5273 O   0  0  0  0  0  0  0  0  0  0  0  0
   -0.2603   13.1009    2.8680 O   0  0  0  0  0  0  0  0  0  0  0  0
   -0.4727   12.8313    7.0761 O   0  0  0  0  0  0  0  0  0  0  0  0
    1.0462   15.4319    4.5694 H   0  0  0  0  0  0  0  0  0  0  0  0
    0.2504   12.2771    2.8293 H   0  0  0  0  0  0  0  0  0  0  0  0
   -2.2875   11.3212    6.8062 C   0  0  0  0  0  0  0  0  0  0  0  0
   -2.9030   11.7245    7.8321 O   0  0  0  0  0  0  0  0  0  0  0  0
   -2.4553   10.1695    6.3292 O   0  0  0  0  0  0  0  0  0  0  0  0
   -1.9808    9.9047    5.5659 H   0  0  0  0  0  0  0  0  0  0  0  0
 18 19  1  0  0  0
 18 17  1  0  0  0
 18 25  1  0  0  0
 19 20  1  0  0  0
 19 23  1  0  0  0
 20 21  1  0  0  0
 20 24  1  0  0  0
 21 22  2  0  0  0
 22 28  1  0  0  0
 22 25  1  0  0  0
 28 29  2  0  0  0
 28 30  1  0  0  0
 17  4  1  0  0  0
  1  2  1  0  0  0
  1  6  1  0  0  0
  1  9  1  0  0  0
  2  3  1  0  0  0
  2  7  1  0  0  0
  3  4  1  0  0  0
  3  8  1  0  0  0
  4  5  1  0  0  0
  5 13  1  0  0  0
  5  9  1  0  0  0
 13 14  1  0  0  0
 13 15  2  0  0  0
 23 26  1  0  0  0
 24 27  1  0  0  0
  6 10  1  0  0  0
  7 11  1  0  0  0
  8 12  1  0  0  0
 14 16  1  0  0  0
 30 31  1  0  0  0
M  END
> <minimizedAffinity>
-7.13021

$$$$
2W47_UNF_A_1138


 31 32  0  0  0  0  0  0  0  0999 V2000
   -1.4628   13.0115    4.2078 C   0  0  0  0  0  0  0  0  0  0  0  0
   -0.2326   12.9817    5.1191 C   0  0  0  0  0  0  0  0  0  0  0  0
   -0.6476   12.9541    6.5925 C   0  0  0  0  0  0  0  0  0  0  0  0
   -1.6164   14.0955    6.9097 C   0  0  0  0  0  0  0  0  0  0  0  0
   -2.8153   14.0108    5.9551 C   0  0  0  0  0  0  0  0  0  0  0  0
   -2.1447   11.7480    4.2549 O   0  0  0  0  0  0  0  0  0  0  0  0
    0.5741   11.8413    4.8100 O   0  0  0  0  0  0  0  0  0  0  0  0
    0.5121   13.0160    7.4330 O   0  0  0  0  0  0  0  0  0  0  0  0
   -2.3489   14.0712    4.5973 O   0  0  0  0  0  0  0  0  0  0  0  0
   -2.4418   11.5745    5.1618 H   0  0  0  0  0  0  0  0  0  0  0  0
    0.0614   11.0319    4.9614 H   0  0  0  0  0  0  0  0  0  0  0  0
    0.9858   13.8466    7.2697 H   0  0  0  0  0  0  0  0  0  0  0  0
   -3.8081   15.1143    6.2042 C   0  0  0  0  0  0  0  0  0  0  0  0
   -3.6334   16.2261    5.6573 O   0  0  0  0  0  0  0  0  0  0  0  0
   -4.7844   14.8877    6.9560 O   0  0  0  0  0  0  0  0  0  0  0  0
   -2.8924   16.3629    5.1002 H   0  0  0  0  0  0  0  0  0  0  0  0
   -0.9451   15.3490    6.7488 O   0  0  0  0  0  0  0  0  0  0  0  0
   -1.0071   16.2035    7.8943 C   0  0  0  0  0  0  0  0  0  0  0  0
   -0.2067   17.4715    7.6155 C   0  0  0  0  0  0  0  0  0  0  0  0
    1.2586   17.1176    7.3955 C   0  0  0  0  0  0  0  0  0  0  0  0
    1.7500   16.3954    8.6346 C   0  0  0  0  0  0  0  0  0  0  0  0
    0.9254   15.5608    9.3093 C   0  0  0  0  0  0  0  0  0  0  0  0
   -0.7505   18.1369    6.4742 O   0  0  0  0  0  0  0  0  0  0  0  0
    2.0193   18.3066    7.1402 O   0  0  0  0  0  0  0  0  0  0  0  0
   -0.5061   15.5085    9.0424 O   0  0  0  0  0  0  0  0  0  0  0  0
   -0.7008   17.5499    5.7036 H   0  0  0  0  0  0  0  0  0  0  0  0
    1.9376   18.9109    7.8946 H   0  0  0  0  0  0  0  0  0  0  0  0
    1.3834   14.7649   10.2767 C   0  0  0  0  0  0  0  0  0  0  0  0
    1.9355   13.6751    9.9585 O   0  0  0  0  0  0  0  0  0  0  0  0
    1.2424   15.1242   11.4739 O   0  0  0  0  0  0  0  0  0  0  0  0
    0.8274   15.9405   11.6723 H   0  0  0  0  0  0  0  0  0  0  0  0
 18 19  1  0  0  0
 18 17  1  0  0  0
 18 25  1  0  0  0
 19 20  1  0  0  0
 19 23  1  0  0  0
 20 21  1  0  0  0
 20 24  1  0  0  0
 21 22  2  0  0  0
 22 28  1  0  0  0
 22 25  1  0  0  0
 28 29  2  0  0  0
 28 30  1  0  0  0
 17  4  1  0  0  0
  1  2  1  0  0  0
  1  6  1  0  0  0
  1  9  1  0  0  0
  2  3  1  0  0  0
  2  7  1  0  0  0
  3  4  1  0  0  0
  3  8  1  0  0  0
  4  5  1  0  0  0
  5 13  1  0  0  0
  5  9  1  0  0  0
 13 14  1  0  0  0
 13 15  2  0  0  0
 23 26  1  0  0  0
 24 27  1  0  0  0
  6 10  1  0  0  0
  7 11  1  0  0  0
  8 12  1  0  0  0
 14 16  1  0  0  0
 30 31  1  0  0  0
M  END
> <minimizedAffinity>
-6.80148

$$$$
2W47_UNF_A_1138


 31 32  0  0  0  0  0  0  0  0999 V2000
   -0.7105   18.3188    7.7765 C   0  0  0  0  0  0  0  0  0  0  0  0
    0.5344   17.4336    7.8834 C   0  0  0  0  0  0  0  0  0  0  0  0
    0.1588   15.9527    7.7842 C   0  0  0  0  0  0  0  0  0  0  0  0
   -0.9339   15.5963    8.7946 C   0  0  0  0  0  0  0  0  0  0  0  0
   -2.1348   16.5275    8.5784 C   0  0  0  0  0  0  0  0  0  0  0  0
   -1.2328   18.2794    6.4388 O   0  0  0  0  0  0  0  0  0  0  0  0
    1.4663   17.7786    6.8542 O   0  0  0  0  0  0  0  0  0  0  0  0
    1.3211   15.1352    7.9747 O   0  0  0  0  0  0  0  0  0  0  0  0
   -1.7096   17.8932    8.7147 O   0  0  0  0  0  0  0  0  0  0  0  0
   -1.4863   17.3696    6.2174 H   0  0  0  0  0  0  0  0  0  0  0  0
    1.0592   17.6305    5.9864 H   0  0  0  0  0  0  0  0  0  0  0  0
    1.6867   15.2940    8.8590 H   0  0  0  0  0  0  0  0  0  0  0  0
   -3.2483   16.2393    9.5492 C   0  0  0  0  0  0  0  0  0  0  0  0
   -3.3808   16.9675   10.5581 O   0  0  0  0  0  0  0  0  0  0  0  0
   -4.0130   15.2739    9.3193 O   0  0  0  0  0  0  0  0  0  0  0  0
   -2.7916   17.6820   10.7009 H   0  0  0  0  0  0  0  0  0  0  0  0
   -0.4235   15.7495   10.1226 O   0  0  0  0  0  0  0  0  0  0  0  0
   -0.5330   14.5781   10.9363 C   0  0  0  0  0  0  0  0  0  0  0  0
   -0.5373   14.9888   12.4052 C   0  0  0  0  0  0  0  0  0  0  0  0
    0.7847   15.6597   12.7561 C   0  0  0  0  0  0  0  0  0  0  0  0
    1.8975   14.6790   12.4426 C   0  0  0  0  0  0  0  0  0  0  0  0
    1.7973   13.8525   11.3755 C   0  0  0  0  0  0  0  0  0  0  0  0
   -1.6384   15.8651   12.6518 O   0  0  0  0  0  0  0  0  0  0  0  0
    0.7910   16.0420   14.1386 O   0  0  0  0  0  0  0  0  0  0  0  0
    0.5481   13.6848   10.6442 O   0  0  0  0  0  0  0  0  0  0  0  0
   -1.5524   16.6564   12.0974 H   0  0  0  0  0  0  0  0  0  0  0  0
    0.6654   15.2554   14.6921 H   0  0  0  0  0  0  0  0  0  0  0  0
    2.8359   13.1259   10.9606 C   0  0  0  0  0  0  0  0  0  0  0  0
    2.6356   12.1954   10.1310 O   0  0  0  0  0  0  0  0  0  0  0  0
    3.9788   13.3877   11.4162 O   0  0  0  0  0  0  0  0  0  0  0  0
    4.0893   14.0862   12.0308 H   0  0  0  0  0  0  0  0  0  0  0  0
 18 19  1  0  0  0
 18 17  1  0  0  0
 18 25  1  0  0  0
 19 20  1  0  0  0
 19 23  1  0  0  0
 20 21  1  0  0  0
 20 24  1  0  0  0
 21 22  2  0  0  0
 22 28  1  0  0  0
 22 25  1  0  0  0
 28 29  2  0  0  0
 28 30  1  0  0  0
 17  4  1  0  0  0
  1  2  1  0  0  0
  1  6  1  0  0  0
  1  9  1  0  0  0
  2  3  1  0  0  0
  2  7  1  0  0  0
  3  4  1  0  0  0
  3  8  1  0  0  0
  4  5  1  0  0  0
  5 13  1  0  0  0
  5  9  1  0  0  0
 13 14  1  0  0  0
 13 15  2  0  0  0
 23 26  1  0  0  0
 24 27  1  0  0  0
  6 10  1  0  0  0
  7 11  1  0  0  0
  8 12  1  0  0  0
 14 16  1  0  0  0
 30 31  1  0  0  0
M  END
> <minimizedAffinity>
-6.68395

$$$$
2W47_UNF_A_1138


 31 32  0  0  0  0  0  0  0  0999 V2000
   -0.3578   15.2233   13.2183 C   0  0  0  0  0  0  0  0  0  0  0  0
   -1.4915   15.2481   12.1894 C   0  0  0  0  0  0  0  0  0  0  0  0
   -1.3708   14.0706   11.2185 C   0  0  0  0  0  0  0  0  0  0  0  0
    0.0240   14.0195   10.5908 C   0  0  0  0  0  0  0  0  0  0  0  0
    1.0726   13.9735   11.7107 C   0  0  0  0  0  0  0  0  0  0  0  0
   -0.5383   14.1261   14.1278 O   0  0  0  0  0  0  0  0  0  0  0  0
   -2.7559   15.2117   12.8579 O   0  0  0  0  0  0  0  0  0  0  0  0
   -2.3855   14.1571   10.2093 O   0  0  0  0  0  0  0  0  0  0  0  0
    0.9136   15.1215   12.5601 O   0  0  0  0  0  0  0  0  0  0  0  0
   -0.5201   13.2910   13.6346 H   0  0  0  0  0  0  0  0  0  0  0  0
   -2.8266   14.3918   13.3714 H   0  0  0  0  0  0  0  0  0  0  0  0
   -2.2695   14.9767    9.7037 H   0  0  0  0  0  0  0  0  0  0  0  0
    2.4742   13.9326   11.1637 C   0  0  0  0  0  0  0  0  0  0  0  0
    3.0680   15.0085   10.9278 O   0  0  0  0  0  0  0  0  0  0  0  0
    3.0081   12.8180   10.9580 O   0  0  0  0  0  0  0  0  0  0  0  0
    2.6402   15.8256   11.0929 H   0  0  0  0  0  0  0  0  0  0  0  0
    0.2227   15.1790    9.7760 O   0  0  0  0  0  0  0  0  0  0  0  0
    0.3203   14.9068    8.3751 C   0  0  0  0  0  0  0  0  0  0  0  0
    1.1155   16.0218    7.7037 C   0  0  0  0  0  0  0  0  0  0  0  0
    0.3759   17.3450    7.8556 C   0  0  0  0  0  0  0  0  0  0  0  0
   -1.0000   17.1778    7.2413 C   0  0  0  0  0  0  0  0  0  0  0  0
   -1.6545   15.9979    7.3459 C   0  0  0  0  0  0  0  0  0  0  0  0
    2.4190   16.0934    8.2840 O   0  0  0  0  0  0  0  0  0  0  0  0
    1.1144   18.3975    7.2197 O   0  0  0  0  0  0  0  0  0  0  0  0
   -0.9924   14.7872    7.8141 O   0  0  0  0  0  0  0  0  0  0  0  0
    2.3409   16.2809    9.2325 H   0  0  0  0  0  0  0  0  0  0  0  0
    1.2266   18.1908    6.2787 H   0  0  0  0  0  0  0  0  0  0  0  0
   -2.9357   15.8814    6.9939 C   0  0  0  0  0  0  0  0  0  0  0  0
   -3.7874   15.5952    7.8809 O   0  0  0  0  0  0  0  0  0  0  0  0
   -3.2505   16.0530    5.7882 O   0  0  0  0  0  0  0  0  0  0  0  0
   -2.5908   16.2645    5.1573 H   0  0  0  0  0  0  0  0  0  0  0  0
 18 19  1  0  0  0
 18 17  1  0  0  0
 18 25  1  0  0  0
 19 20  1  0  0  0
 19 23  1  0  0  0
 20 21  1  0  0  0
 20 24  1  0  0  0
 21 22  2  0  0  0
 22 28  1  0  0  0
 22 25  1  0  0  0
 28 29  2  0  0  0
 28 30  1  0  0  0
 17  4  1  0  0  0
  1  2  1  0  0  0
  1  6  1  0  0  0
  1  9  1  0  0  0
  2  3  1  0  0  0
  2  7  1  0  0  0
  3  4  1  0  0  0
  3  8  1  0  0  0
  4  5  1  0  0  0
  5 13  1  0  0  0
  5  9  1  0  0  0
 13 14  1  0  0  0
 13 15  2  0  0  0
 23 26  1  0  0  0
 24 27  1  0  0  0
  6 10  1  0  0  0
  7 11  1  0  0  0
  8 12  1  0  0  0
 14 16  1  0  0  0
 30 31  1  0  0  0
M  END
> <minimizedAffinity>
-6.64213

$$$$
2W47_UNF_A_1138


 31 32  0  0  0  0  0  0  0  0999 V2000
   -2.2802   17.2691    7.1729 C   0  0  0  0  0  0  0  0  0  0  0  0
   -2.8060   16.7940    8.5303 C   0  0  0  0  0  0  0  0  0  0  0  0
   -1.7593   17.0127    9.6259 C   0  0  0  0  0  0  0  0  0  0  0  0
   -0.4191   16.3855    9.2354 C   0  0  0  0  0  0  0  0  0  0  0  0
    0.0184   16.9509    7.8772 C   0  0  0  0  0  0  0  0  0  0  0  0
   -2.1876   18.7025    7.1517 O   0  0  0  0  0  0  0  0  0  0  0  0
   -4.0145   17.4882    8.8537 O   0  0  0  0  0  0  0  0  0  0  0  0
   -2.2310   16.4828   10.8717 O   0  0  0  0  0  0  0  0  0  0  0  0
   -0.9993   16.6825    6.8989 O   0  0  0  0  0  0  0  0  0  0  0  0
   -1.5683   18.9966    7.8379 H   0  0  0  0  0  0  0  0  0  0  0  0
   -3.8353   18.4398    8.9109 H   0  0  0  0  0  0  0  0  0  0  0  0
   -2.3775   15.5282   10.7823 H   0  0  0  0  0  0  0  0  0  0  0  0
    1.3296   16.3672    7.4241 C   0  0  0  0  0  0  0  0  0  0  0  0
    1.3260   15.4384    6.5856 O   0  0  0  0  0  0  0  0  0  0  0  0
    2.3917   16.8289    7.9023 O   0  0  0  0  0  0  0  0  0  0  0  0
    0.5139   15.1158    6.2474 H   0  0  0  0  0  0  0  0  0  0  0  0
   -0.5635   14.9641    9.1549 O   0  0  0  0  0  0  0  0  0  0  0  0
    0.2385   14.2351   10.0884 C   0  0  0  0  0  0  0  0  0  0  0  0
    0.5056   12.8394    9.5344 C   0  0  0  0  0  0  0  0  0  0  0  0
   -0.8092   12.0849    9.3836 C   0  0  0  0  0  0  0  0  0  0  0  0
   -1.4737   12.0390   10.7455 C   0  0  0  0  0  0  0  0  0  0  0  0
   -1.3663   13.0894   11.5922 C   0  0  0  0  0  0  0  0  0  0  0  0
    1.1824   12.9458    8.2807 O   0  0  0  0  0  0  0  0  0  0  0  0
   -0.5650   10.7680    8.8700 O   0  0  0  0  0  0  0  0  0  0  0  0
   -0.4274   14.1782   11.3555 O   0  0  0  0  0  0  0  0  0  0  0  0
    0.6288   13.4390    7.6552 H   0  0  0  0  0  0  0  0  0  0  0  0
    0.0208   10.2881    9.4761 H   0  0  0  0  0  0  0  0  0  0  0  0
   -2.0979   13.1612   12.7051 C   0  0  0  0  0  0  0  0  0  0  0  0
   -1.9585   12.2660   13.5845 O   0  0  0  0  0  0  0  0  0  0  0  0
   -2.9076   14.1147   12.8371 O   0  0  0  0  0  0  0  0  0  0  0  0
   -2.9841   14.7610   12.1630 H   0  0  0  0  0  0  0  0  0  0  0  0
 18 19  1  0  0  0
 18 17  1  0  0  0
 18 25  1  0  0  0
 19 20  1  0  0  0
 19 23  1  0  0  0
 20 21  1  0  0  0
 20 24  1  0  0  0
 21 22  2  0  0  0
 22 28  1  0  0  0
 22 25  1  0  0  0
 28 29  2  0  0  0
 28 30  1  0  0  0
 17  4  1  0  0  0
  1  2  1  0  0  0
  1  6  1  0  0  0
  1  9  1  0  0  0
  2  3  1  0  0  0
  2  7  1  0  0  0
  3  4  1  0  0  0
  3  8  1  0  0  0
  4  5  1  0  0  0
  5 13  1  0  0  0
  5  9  1  0  0  0
 13 14  1  0  0  0
 13 15  2  0  0  0
 23 26  1  0  0  0
 24 27  1  0  0  0
  6 10  1  0  0  0
  7 11  1  0  0  0
  8 12  1  0  0  0
 14 16  1  0  0  0
 30 31  1  0  0  0
M  END
> <minimizedAffinity>
-6.58442

$$$$
2W47_UNF_A_1138


 31 32  0  0  0  0  0  0  0  0999 V2000
   -2.7798   16.7392    7.2196 C   0  0  0  0  0  0  0  0  0  0  0  0
   -3.1068   16.4024    8.6771 C   0  0  0  0  0  0  0  0  0  0  0  0
   -2.1437   17.1159    9.6295 C   0  0  0  0  0  0  0  0  0  0  0  0
   -0.6885   16.8347    9.2484 C   0  0  0  0  0  0  0  0  0  0  0  0
   -0.4726   17.2310    7.7813 C   0  0  0  0  0  0  0  0  0  0  0  0
   -3.1154   18.1078    6.9403 O   0  0  0  0  0  0  0  0  0  0  0  0
   -4.4577   16.7712    8.9701 O   0  0  0  0  0  0  0  0  0  0  0  0
   -2.4057   16.7216   10.9828 O   0  0  0  0  0  0  0  0  0  0  0  0
   -1.3902   16.5016    6.9504 O   0  0  0  0  0  0  0  0  0  0  0  0
   -2.5933   18.6919    7.5122 H   0  0  0  0  0  0  0  0  0  0  0  0
   -4.5663   17.7270    8.8452 H   0  0  0  0  0  0  0  0  0  0  0  0
   -2.2659   15.7661   11.0741 H   0  0  0  0  0  0  0  0  0  0  0  0
    0.9405   16.9706    7.3335 C   0  0  0  0  0  0  0  0  0  0  0  0
    1.2439   15.8356    6.9027 O   0  0  0  0  0  0  0  0  0  0  0  0
    1.7765   17.9009    7.4062 O   0  0  0  0  0  0  0  0  0  0  0  0
    0.5946   15.1613    6.8612 H   0  0  0  0  0  0  0  0  0  0  0  0
   -0.4086   15.4432    9.4299 O   0  0  0  0  0  0  0  0  0  0  0  0
    0.6923   15.1710   10.3018 C   0  0  0  0  0  0  0  0  0  0  0  0
    1.0552   13.6930   10.2019 C   0  0  0  0  0  0  0  0  0  0  0  0
   -0.1164   12.8420   10.6755 C   0  0  0  0  0  0  0  0  0  0  0  0
   -0.4402   13.2536   12.0982 C   0  0  0  0  0  0  0  0  0  0  0  0
   -0.3205   14.5471   12.4778 C   0  0  0  0  0  0  0  0  0  0  0  0
    1.4052   13.3784    8.8530 O   0  0  0  0  0  0  0  0  0  0  0  0
    0.2205   11.4503   10.5916 O   0  0  0  0  0  0  0  0  0  0  0  0
    0.3476   15.5373   11.6431 O   0  0  0  0  0  0  0  0  0  0  0  0
    0.6512   13.5639    8.2716 H   0  0  0  0  0  0  0  0  0  0  0  0
    0.9989   11.2722   11.1423 H   0  0  0  0  0  0  0  0  0  0  0  0
   -0.7843   14.9710   13.6543 C   0  0  0  0  0  0  0  0  0  0  0  0
   -1.5460   15.9774   13.6818 O   0  0  0  0  0  0  0  0  0  0  0  0
   -0.4404   14.3577   14.6973 O   0  0  0  0  0  0  0  0  0  0  0  0
    0.1267   13.6141   14.6381 H   0  0  0  0  0  0  0  0  0  0  0  0
 18 19  1  0  0  0
 18 17  1  0  0  0
 18 25  1  0  0  0
 19 20  1  0  0  0
 19 23  1  0  0  0
 20 21  1  0  0  0
 20 24  1  0  0  0
 21 22  2  0  0  0
 22 28  1  0  0  0
 22 25  1  0  0  0
 28 29  2  0  0  0
 28 30  1  0  0  0
 17  4  1  0  0  0
  1  2  1  0  0  0
  1  6  1  0  0  0
  1  9  1  0  0  0
  2  3  1  0  0  0
  2  7  1  0  0  0
  3  4  1  0  0  0
  3  8  1  0  0  0
  4  5  1  0  0  0
  5 13  1  0  0  0
  5  9  1  0  0  0
 13 14  1  0  0  0
 13 15  2  0  0  0
 23 26  1  0  0  0
 24 27  1  0  0  0
  6 10  1  0  0  0
  7 11  1  0  0  0
  8 12  1  0  0  0
 14 16  1  0  0  0
 30 31  1  0  0  0
M  END
> <minimizedAffinity>
-6.54381

$$$$
2W47_UNF_A_1138


 31 32  0  0  0  0  0  0  0  0999 V2000
   -1.9900   12.2963    4.1717 C   0  0  0  0  0  0  0  0  0  0  0  0
   -1.0198   13.4809    4.1859 C   0  0  0  0  0  0  0  0  0  0  0  0
    0.0038   13.3321    5.3146 C   0  0  0  0  0  0  0  0  0  0  0  0
   -0.6921   13.0951    6.6568 C   0  0  0  0  0  0  0  0  0  0  0  0
   -1.6156   11.8757    6.5304 C   0  0  0  0  0  0  0  0  0  0  0  0
   -1.3111   11.1053    3.7421 O   0  0  0  0  0  0  0  0  0  0  0  0
   -0.3544   13.5798    2.9232 O   0  0  0  0  0  0  0  0  0  0  0  0
    0.8480   14.4895    5.3709 O   0  0  0  0  0  0  0  0  0  0  0  0
   -2.5623   12.1021    5.4734 O   0  0  0  0  0  0  0  0  0  0  0  0
   -0.5919   10.9023    4.3605 H   0  0  0  0  0  0  0  0  0  0  0  0
    0.1541   12.7697    2.7614 H   0  0  0  0  0  0  0  0  0  0  0  0
    0.3087   15.2743    5.5556 H   0  0  0  0  0  0  0  0  0  0  0  0
   -2.3437   11.5894    7.8162 C   0  0  0  0  0  0  0  0  0  0  0  0
   -3.3925   12.2205    8.0761 O   0  0  0  0  0  0  0  0  0  0  0  0
   -1.8765   10.7249    8.5933 O   0  0  0  0  0  0  0  0  0  0  0  0
   -3.7155   12.8610    7.4733 H   0  0  0  0  0  0  0  0  0  0  0  0
   -1.4518   14.2548    7.0111 O   0  0  0  0  0  0  0  0  0  0  0  0
   -1.1193   14.8120    8.2860 C   0  0  0  0  0  0  0  0  0  0  0  0
   -2.1593   15.8638    8.6581 C   0  0  0  0  0  0  0  0  0  0  0  0
   -2.1256   17.0018    7.6459 C   0  0  0  0  0  0  0  0  0  0  0  0
   -0.7199   17.5697    7.6366 C   0  0  0  0  0  0  0  0  0  0  0  0
    0.3464   16.7529    7.8023 C   0  0  0  0  0  0  0  0  0  0  0  0
   -3.4526   15.2588    8.7066 O   0  0  0  0  0  0  0  0  0  0  0  0
   -3.0962   17.9990    7.9938 O   0  0  0  0  0  0  0  0  0  0  0  0
    0.1989   15.3707    8.2395 O   0  0  0  0  0  0  0  0  0  0  0  0
   -3.6686   14.8873    7.8371 H   0  0  0  0  0  0  0  0  0  0  0  0
   -2.9032   18.3427    8.8802 H   0  0  0  0  0  0  0  0  0  0  0  0
    1.5913   17.1874    7.6014 C   0  0  0  0  0  0  0  0  0  0  0  0
    2.5538   16.5123    8.0617 O   0  0  0  0  0  0  0  0  0  0  0  0
    1.7634   18.2596    6.9666 O   0  0  0  0  0  0  0  0  0  0  0  0
    1.0246   18.7341    6.6395 H   0  0  0  0  0  0  0  0  0  0  0  0
 18 19  1  0  0  0
 18 17  1  0  0  0
 18 25  1  0  0  0
 19 20  1  0  0  0
 19 23  1  0  0  0
 20 21  1  0  0  0
 20 24  1  0  0  0
 21 22  2  0  0  0
 22 28  1  0  0  0
 22 25  1  0  0  0
 28 29  2  0  0  0
 28 30  1  0  0  0
 17  4  1  0  0  0
  1  2  1  0  0  0
  1  6  1  0  0  0
  1  9  1  0  0  0
  2  3  1  0  0  0
  2  7  1  0  0  0
  3  4  1  0  0  0
  3  8  1  0  0  0
  4  5  1  0  0  0
  5 13  1  0  0  0
  5  9  1  0  0  0
 13 14  1  0  0  0
 13 15  2  0  0  0
 23 26  1  0  0  0
 24 27  1  0  0  0
  6 10  1  0  0  0
  7 11  1  0  0  0
  8 12  1  0  0  0
 14 16  1  0  0  0
 30 31  1  0  0  0
M  END
> <minimizedAffinity>
-6.47166

$$$$
2W47_UNF_A_1138


 31 32  0  0  0  0  0  0  0  0999 V2000
    0.5883   12.8356    8.5035 C   0  0  0  0  0  0  0  0  0  0  0  0
   -0.7640   12.7393    7.7916 C   0  0  0  0  0  0  0  0  0  0  0  0
   -0.7583   13.5605    6.4996 C   0  0  0  0  0  0  0  0  0  0  0  0
   -0.3088   14.9987    6.7672 C   0  0  0  0  0  0  0  0  0  0  0  0
    1.0617   14.9717    7.4578 C   0  0  0  0  0  0  0  0  0  0  0  0
    1.5917   12.1276    7.7582 O   0  0  0  0  0  0  0  0  0  0  0  0
   -1.0677   11.3704    7.5075 O   0  0  0  0  0  0  0  0  0  0  0  0
   -2.0563   13.5327    5.8915 O   0  0  0  0  0  0  0  0  0  0  0  0
    0.9687   14.2091    8.6721 O   0  0  0  0  0  0  0  0  0  0  0  0
    1.6819   12.5256    6.8782 H   0  0  0  0  0  0  0  0  0  0  0  0
   -0.3870   11.0030    6.9222 H   0  0  0  0  0  0  0  0  0  0  0  0
   -2.7048   13.9270    6.4955 H   0  0  0  0  0  0  0  0  0  0  0  0
    1.5625   16.3581    7.7618 C   0  0  0  0  0  0  0  0  0  0  0  0
    1.1482   17.3197    7.0766 O   0  0  0  0  0  0  0  0  0  0  0  0
    2.3842   16.5104    8.6953 O   0  0  0  0  0  0  0  0  0  0  0  0
    0.5333   17.1717    6.3851 H   0  0  0  0  0  0  0  0  0  0  0  0
   -1.2699   15.6507    7.6032 O   0  0  0  0  0  0  0  0  0  0  0  0
   -2.0906   16.6064    6.9255 C   0  0  0  0  0  0  0  0  0  0  0  0
   -2.5342   17.6766    7.9175 C   0  0  0  0  0  0  0  0  0  0  0  0
   -3.3868   17.0443    9.0102 C   0  0  0  0  0  0  0  0  0  0  0  0
   -4.5655   16.3651    8.3408 C   0  0  0  0  0  0  0  0  0  0  0  0
   -4.4120   15.7609    7.1395 C   0  0  0  0  0  0  0  0  0  0  0  0
   -1.3845   18.3189    8.4714 O   0  0  0  0  0  0  0  0  0  0  0  0
   -3.8143   18.0465    9.9430 O   0  0  0  0  0  0  0  0  0  0  0  0
   -3.2132   15.9436    6.3316 O   0  0  0  0  0  0  0  0  0  0  0  0
   -0.8373   17.6626    8.9305 H   0  0  0  0  0  0  0  0  0  0  0  0
   -4.3285   18.7240    9.4767 H   0  0  0  0  0  0  0  0  0  0  0  0
   -5.3702   14.9902    6.6229 C   0  0  0  0  0  0  0  0  0  0  0  0
   -5.1321   14.3533    5.5591 O   0  0  0  0  0  0  0  0  0  0  0  0
   -6.4813   14.9304    7.2094 O   0  0  0  0  0  0  0  0  0  0  0  0
   -6.6218   15.4173    7.9976 H   0  0  0  0  0  0  0  0  0  0  0  0
 18 19  1  0  0  0
 18 17  1  0  0  0
 18 25  1  0  0  0
 19 20  1  0  0  0
 19 23  1  0  0  0
 20 21  1  0  0  0
 20 24  1  0  0  0
 21 22  2  0  0  0
 22 28  1  0  0  0
 22 25  1  0  0  0
 28 29  2  0  0  0
 28 30  1  0  0  0
 17  4  1  0  0  0
  1  2  1  0  0  0
  1  6  1  0  0  0
  1  9  1  0  0  0
  2  3  1  0  0  0
  2  7  1  0  0  0
  3  4  1  0  0  0
  3  8  1  0  0  0
  4  5  1  0  0  0
  5 13  1  0  0  0
  5  9  1  0  0  0
 13 14  1  0  0  0
 13 15  2  0  0  0
 23 26  1  0  0  0
 24 27  1  0  0  0
  6 10  1  0  0  0
  7 11  1  0  0  0
  8 12  1  0  0  0
 14 16  1  0  0  0
 30 31  1  0  0  0
M  END
> <minimizedAffinity>
-6.20295

$$$$
