4J28_EAT_A_501


 21 23  0  0  0  0  0  0  0  0999 V2000
  -14.6830   12.0092   30.8094 O   0  0  0  0  0  0  0  0  0  0  0  0
  -15.4373   11.1189   31.6781 C   0  0  0  0  0  0  0  0  0  0  0  0
  -15.4715    9.6457   31.2609 C   0  0  0  0  0  0  0  0  0  0  0  0
  -15.8859    9.4868   29.9320 O   0  0  0  0  0  0  0  0  0  0  0  0
  -16.4998    9.0974   32.2483 C   0  0  0  0  0  0  0  0  0  0  0  0
  -16.8302    7.6499   31.9336 C   0  0  0  0  0  0  0  0  0  0  0  0
  -17.5743   10.0896   32.1285 N   0  0  0  0  0  0  0  0  0  0  0  0
  -16.8956   11.4225   31.6444 C   0  0  0  0  0  0  0  0  0  0  0  0
  -13.7406   11.7842   30.8556 H   0  0  0  0  0  0  0  0  0  0  0  0
  -16.7514    9.9076   29.8107 H   0  0  0  0  0  0  0  0  0  0  0  0
  -18.2670    9.7788   31.4474 H   0  0  0  0  0  0  0  0  0  0  0  0
  -17.3092   12.5974   32.5772 C   0  0  0  0  0  0  0  0  0  0  0  0
  -18.4551   12.7582   33.2524 N   0  0  0  0  0  0  0  0  0  0  0  0
  -18.3121   13.8758   34.0005 C   0  0  0  0  0  0  0  0  0  0  0  0
  -19.1406   14.5320   34.8529 C   0  0  0  0  0  0  0  0  0  0  0  0
  -18.7358   15.7136   35.5023 C   0  0  0  0  0  0  0  0  0  0  0  0
  -17.4610   16.2062   35.2522 C   0  0  0  0  0  0  0  0  0  0  0  0
  -16.6574   15.5032   34.3522 C   0  0  0  0  0  0  0  0  0  0  0  0
  -17.0985   14.3837   33.7496 C   0  0  0  0  0  0  0  0  0  0  0  0
  -16.4919   13.5791   32.8813 N   0  0  0  0  0  0  0  0  0  0  0  0
  -19.2478   12.1757   33.2118 H   0  0  0  0  0  0  0  0  0  0  0  0
  4  3  1  0  0  0
  1  2  1  0  0  0
  3  2  1  0  0  0
  3  5  1  0  0  0
  8  2  1  0  0  0
  8  7  1  0  0  0
  8 12  1  0  0  0
  6  5  1  0  0  0
  7  5  1  0  0  0
 13 12  1  0  0  0
 13 14  1  0  0  0
 12 20  2  0  0  0
 14 15  1  0  0  0
 14 19  2  0  0  0
 15 16  2  0  0  0
 20 19  1  0  0  0
 19 18  1  0  0  0
 16 17  1  0  0  0
 18 17  2  0  0  0
  1  9  1  0  0  0
  4 10  1  0  0  0
  7 11  1  0  0  0
 13 21  1  0  0  0
M  END
> <minimizedAffinity>
-7.88058

$$$$
4J28_EAT_A_501


 21 23  0  0  0  0  0  0  0  0999 V2000
  -15.3786   11.5291   31.8475 O   0  0  0  0  0  0  0  0  0  0  0  0
  -15.9636   10.2640   32.2641 C   0  0  0  0  0  0  0  0  0  0  0  0
  -15.6943    9.0669   31.3476 C   0  0  0  0  0  0  0  0  0  0  0  0
  -16.0345    9.3393   30.0161 O   0  0  0  0  0  0  0  0  0  0  0  0
  -16.6185    8.0223   31.9701 C   0  0  0  0  0  0  0  0  0  0  0  0
  -16.6472    6.7590   31.1293 C   0  0  0  0  0  0  0  0  0  0  0  0
  -17.8650    8.7842   32.1088 N   0  0  0  0  0  0  0  0  0  0  0  0
  -17.4517   10.2984   32.2002 C   0  0  0  0  0  0  0  0  0  0  0  0
  -14.4118   11.4715   31.9012 H   0  0  0  0  0  0  0  0  0  0  0  0
  -16.9628    9.6167   29.9698 H   0  0  0  0  0  0  0  0  0  0  0  0
  -18.4645    8.6305   31.2981 H   0  0  0  0  0  0  0  0  0  0  0  0
  -18.1141   10.9546   33.4461 C   0  0  0  0  0  0  0  0  0  0  0  0
  -17.8314   10.7531   34.7400 N   0  0  0  0  0  0  0  0  0  0  0  0
  -18.5966   11.6178   35.4444 C   0  0  0  0  0  0  0  0  0  0  0  0
  -18.7502   11.8476   36.7737 C   0  0  0  0  0  0  0  0  0  0  0  0
  -19.6514   12.8190   37.2490 C   0  0  0  0  0  0  0  0  0  0  0  0
  -20.3930   13.5459   36.3260 C   0  0  0  0  0  0  0  0  0  0  0  0
  -20.2105   13.2556   34.9723 C   0  0  0  0  0  0  0  0  0  0  0  0
  -19.3430   12.3077   34.5723 C   0  0  0  0  0  0  0  0  0  0  0  0
  -19.0253   11.8951   33.3484 N   0  0  0  0  0  0  0  0  0  0  0  0
  -17.1908   10.1018   35.1071 H   0  0  0  0  0  0  0  0  0  0  0  0
  4  3  1  0  0  0
  1  2  1  0  0  0
  3  2  1  0  0  0
  3  5  1  0  0  0
  8  2  1  0  0  0
  8  7  1  0  0  0
  8 12  1  0  0  0
  6  5  1  0  0  0
  7  5  1  0  0  0
 13 12  1  0  0  0
 13 14  1  0  0  0
 12 20  2  0  0  0
 14 15  1  0  0  0
 14 19  2  0  0  0
 15 16  2  0  0  0
 20 19  1  0  0  0
 19 18  1  0  0  0
 16 17  1  0  0  0
 18 17  2  0  0  0
  1  9  1  0  0  0
  4 10  1  0  0  0
  7 11  1  0  0  0
 13 21  1  0  0  0
M  END
> <minimizedAffinity>
-7.27137

$$$$
4J28_EAT_A_501


 21 23  0  0  0  0  0  0  0  0999 V2000
  -14.4484   12.5930   36.7212 O   0  0  0  0  0  0  0  0  0  0  0  0
  -14.4132   13.5014   35.5856 C   0  0  0  0  0  0  0  0  0  0  0  0
  -14.3703   14.9948   35.9229 C   0  0  0  0  0  0  0  0  0  0  0  0
  -15.3969   15.3631   36.8023 O   0  0  0  0  0  0  0  0  0  0  0  0
  -14.5631   15.6025   34.5349 C   0  0  0  0  0  0  0  0  0  0  0  0
  -14.7115   17.1104   34.6230 C   0  0  0  0  0  0  0  0  0  0  0  0
  -15.7045   14.8273   34.0352 N   0  0  0  0  0  0  0  0  0  0  0  0
  -15.6821   13.4572   34.8060 C   0  0  0  0  0  0  0  0  0  0  0  0
  -13.6093   12.6472   37.2048 H   0  0  0  0  0  0  0  0  0  0  0  0
  -16.2535   15.1119   36.4227 H   0  0  0  0  0  0  0  0  0  0  0  0
  -16.5763   15.3229   34.2219 H   0  0  0  0  0  0  0  0  0  0  0  0
  -15.7505   12.2778   33.7932 C   0  0  0  0  0  0  0  0  0  0  0  0
  -15.0528   12.1132   32.6614 N   0  0  0  0  0  0  0  0  0  0  0  0
  -15.3813   10.8943   32.1760 C   0  0  0  0  0  0  0  0  0  0  0  0
  -15.0115   10.2104   31.0629 C   0  0  0  0  0  0  0  0  0  0  0  0
  -15.5327    8.9332   30.7820 C   0  0  0  0  0  0  0  0  0  0  0  0
  -16.4450    8.3774   31.6703 C   0  0  0  0  0  0  0  0  0  0  0  0
  -16.8056    9.1319   32.7887 C   0  0  0  0  0  0  0  0  0  0  0  0
  -16.2850   10.3541   33.0037 C   0  0  0  0  0  0  0  0  0  0  0  0
  -16.4916   11.2133   33.9978 N   0  0  0  0  0  0  0  0  0  0  0  0
  -14.4230   12.7551   32.2608 H   0  0  0  0  0  0  0  0  0  0  0  0
  4  3  1  0  0  0
  1  2  1  0  0  0
  3  2  1  0  0  0
  3  5  1  0  0  0
  8  2  1  0  0  0
  8  7  1  0  0  0
  8 12  1  0  0  0
  6  5  1  0  0  0
  7  5  1  0  0  0
 13 12  1  0  0  0
 13 14  1  0  0  0
 12 20  2  0  0  0
 14 15  1  0  0  0
 14 19  2  0  0  0
 15 16  2  0  0  0
 20 19  1  0  0  0
 19 18  1  0  0  0
 16 17  1  0  0  0
 18 17  2  0  0  0
  1  9  1  0  0  0
  4 10  1  0  0  0
  7 11  1  0  0  0
 13 21  1  0  0  0
M  END
> <minimizedAffinity>
-7.01534

$$$$
4J28_EAT_A_501


 21 23  0  0  0  0  0  0  0  0999 V2000
  -18.0197   11.1629   34.6920 O   0  0  0  0  0  0  0  0  0  0  0  0
  -17.1828   11.3489   33.5168 C   0  0  0  0  0  0  0  0  0  0  0  0
  -16.8679   10.0848   32.7113 C   0  0  0  0  0  0  0  0  0  0  0  0
  -16.3450    9.0659   33.5183 O   0  0  0  0  0  0  0  0  0  0  0  0
  -15.8285   10.6268   31.7321 C   0  0  0  0  0  0  0  0  0  0  0  0
  -15.2337    9.5040   30.9020 C   0  0  0  0  0  0  0  0  0  0  0  0
  -14.9353   11.3617   32.6351 N   0  0  0  0  0  0  0  0  0  0  0  0
  -15.7996   11.7615   33.8860 C   0  0  0  0  0  0  0  0  0  0  0  0
  -18.9103   10.8955   34.4157 H   0  0  0  0  0  0  0  0  0  0  0  0
  -15.5588    9.3927   33.9829 H   0  0  0  0  0  0  0  0  0  0  0  0
  -14.1557   10.7688   32.9198 H   0  0  0  0  0  0  0  0  0  0  0  0
  -15.6572   13.2860   34.1637 C   0  0  0  0  0  0  0  0  0  0  0  0
  -14.5357   14.0140   34.2470 N   0  0  0  0  0  0  0  0  0  0  0  0
  -14.9187   15.3019   34.4012 C   0  0  0  0  0  0  0  0  0  0  0  0
  -14.2290   16.4606   34.5603 C   0  0  0  0  0  0  0  0  0  0  0  0
  -14.8931   17.6912   34.7223 C   0  0  0  0  0  0  0  0  0  0  0  0
  -16.2824   17.7020   34.7203 C   0  0  0  0  0  0  0  0  0  0  0  0
  -16.9418   16.4799   34.5729 C   0  0  0  0  0  0  0  0  0  0  0  0
  -16.2574   15.3298   34.4327 C   0  0  0  0  0  0  0  0  0  0  0  0
  -16.6945   14.0836   34.2741 N   0  0  0  0  0  0  0  0  0  0  0  0
  -13.6117   13.6768   34.2042 H   0  0  0  0  0  0  0  0  0  0  0  0
  4  3  1  0  0  0
  1  2  1  0  0  0
  3  2  1  0  0  0
  3  5  1  0  0  0
  8  2  1  0  0  0
  8  7  1  0  0  0
  8 12  1  0  0  0
  6  5  1  0  0  0
  7  5  1  0  0  0
 13 12  1  0  0  0
 13 14  1  0  0  0
 12 20  2  0  0  0
 14 15  1  0  0  0
 14 19  2  0  0  0
 15 16  2  0  0  0
 20 19  1  0  0  0
 19 18  1  0  0  0
 16 17  1  0  0  0
 18 17  2  0  0  0
  1  9  1  0  0  0
  4 10  1  0  0  0
  7 11  1  0  0  0
 13 21  1  0  0  0
M  END
> <minimizedAffinity>
-6.99971

$$$$
4J28_EAT_A_501


 21 23  0  0  0  0  0  0  0  0999 V2000
  -14.8008   11.5142   31.2222 O   0  0  0  0  0  0  0  0  0  0  0  0
  -15.2648   10.2711   31.8184 C   0  0  0  0  0  0  0  0  0  0  0  0
  -15.5329    9.1197   30.8446 C   0  0  0  0  0  0  0  0  0  0  0  0
  -16.3880    9.5026   29.8030 O   0  0  0  0  0  0  0  0  0  0  0  0
  -16.1912    8.1074   31.7800 C   0  0  0  0  0  0  0  0  0  0  0  0
  -16.6999    6.9073   31.0027 C   0  0  0  0  0  0  0  0  0  0  0  0
  -17.1768    8.9482   32.4692 N   0  0  0  0  0  0  0  0  0  0  0  0
  -16.6236   10.4188   32.4114 C   0  0  0  0  0  0  0  0  0  0  0  0
  -13.9161   11.3824   30.8469 H   0  0  0  0  0  0  0  0  0  0  0  0
  -17.2142    9.8499   30.1740 H   0  0  0  0  0  0  0  0  0  0  0  0
  -18.0796    8.8921   31.9978 H   0  0  0  0  0  0  0  0  0  0  0  0
  -16.6167   11.0392   33.8385 C   0  0  0  0  0  0  0  0  0  0  0  0
  -17.6230   11.1054   34.7204 N   0  0  0  0  0  0  0  0  0  0  0  0
  -17.1128   11.6405   35.8530 C   0  0  0  0  0  0  0  0  0  0  0  0
  -17.6596   11.9615   37.0536 C   0  0  0  0  0  0  0  0  0  0  0  0
  -16.8865   12.5385   38.0789 C   0  0  0  0  0  0  0  0  0  0  0  0
  -15.5395   12.7806   37.8397 C   0  0  0  0  0  0  0  0  0  0  0  0
  -15.0331   12.4496   36.5811 C   0  0  0  0  0  0  0  0  0  0  0  0
  -15.8197   11.9100   35.6318 C   0  0  0  0  0  0  0  0  0  0  0  0
  -15.5293   11.5237   34.3926 N   0  0  0  0  0  0  0  0  0  0  0  0
  -18.5536   10.8200   34.5727 H   0  0  0  0  0  0  0  0  0  0  0  0
  4  3  1  0  0  0
  1  2  1  0  0  0
  3  2  1  0  0  0
  3  5  1  0  0  0
  8  2  1  0  0  0
  8  7  1  0  0  0
  8 12  1  0  0  0
  6  5  1  0  0  0
  7  5  1  0  0  0
 13 12  1  0  0  0
 13 14  1  0  0  0
 12 20  2  0  0  0
 14 15  1  0  0  0
 14 19  2  0  0  0
 15 16  2  0  0  0
 20 19  1  0  0  0
 19 18  1  0  0  0
 16 17  1  0  0  0
 18 17  2  0  0  0
  1  9  1  0  0  0
  4 10  1  0  0  0
  7 11  1  0  0  0
 13 21  1  0  0  0
M  END
> <minimizedAffinity>
-6.99866

$$$$
4J28_EAT_A_501


 21 23  0  0  0  0  0  0  0  0999 V2000
  -15.6293   13.7348   33.4800 O   0  0  0  0  0  0  0  0  0  0  0  0
  -16.0652   12.3616   33.2791 C   0  0  0  0  0  0  0  0  0  0  0  0
  -15.1809   11.5039   32.3691 C   0  0  0  0  0  0  0  0  0  0  0  0
  -14.9472   12.1206   31.1329 O   0  0  0  0  0  0  0  0  0  0  0  0
  -16.0492   10.2553   32.2283 C   0  0  0  0  0  0  0  0  0  0  0  0
  -15.4452    9.2894   31.2255 C   0  0  0  0  0  0  0  0  0  0  0  0
  -17.3557   10.8449   31.9140 N   0  0  0  0  0  0  0  0  0  0  0  0
  -17.3447   12.2962   32.5185 C   0  0  0  0  0  0  0  0  0  0  0  0
  -14.7962   13.7401   33.9768 H   0  0  0  0  0  0  0  0  0  0  0  0
  -15.7950   12.3260   30.7087 H   0  0  0  0  0  0  0  0  0  0  0  0
  -17.4910   10.8845   30.9038 H   0  0  0  0  0  0  0  0  0  0  0  0
  -18.6070   12.5119   33.4027 C   0  0  0  0  0  0  0  0  0  0  0  0
  -19.5554   11.6232   33.7277 N   0  0  0  0  0  0  0  0  0  0  0  0
  -20.3898   12.2439   34.5925 C   0  0  0  0  0  0  0  0  0  0  0  0
  -21.5240   11.8520   35.2278 C   0  0  0  0  0  0  0  0  0  0  0  0
  -22.2239   12.7259   36.0810 C   0  0  0  0  0  0  0  0  0  0  0  0
  -21.7324   14.0126   36.2631 C   0  0  0  0  0  0  0  0  0  0  0  0
  -20.5736   14.3698   35.5705 C   0  0  0  0  0  0  0  0  0  0  0  0
  -19.9495   13.4979   34.7574 C   0  0  0  0  0  0  0  0  0  0  0  0
  -18.8468   13.6417   34.0276 N   0  0  0  0  0  0  0  0  0  0  0  0
  -19.6304   10.6977   33.4005 H   0  0  0  0  0  0  0  0  0  0  0  0
  4  3  1  0  0  0
  1  2  1  0  0  0
  3  2  1  0  0  0
  3  5  1  0  0  0
  8  2  1  0  0  0
  8  7  1  0  0  0
  8 12  1  0  0  0
  6  5  1  0  0  0
  7  5  1  0  0  0
 13 12  1  0  0  0
 13 14  1  0  0  0
 12 20  2  0  0  0
 14 15  1  0  0  0
 14 19  2  0  0  0
 15 16  2  0  0  0
 20 19  1  0  0  0
 19 18  1  0  0  0
 16 17  1  0  0  0
 18 17  2  0  0  0
  1  9  1  0  0  0
  4 10  1  0  0  0
  7 11  1  0  0  0
 13 21  1  0  0  0
M  END
> <minimizedAffinity>
-6.46036

$$$$
4J28_EAT_A_501


 21 23  0  0  0  0  0  0  0  0999 V2000
  -17.6820   14.4331   35.2207 O   0  0  0  0  0  0  0  0  0  0  0  0
  -16.2415   14.2463   35.2997 C   0  0  0  0  0  0  0  0  0  0  0  0
  -15.4363   15.4483   35.8024 C   0  0  0  0  0  0  0  0  0  0  0  0
  -15.7319   16.6144   35.0843 O   0  0  0  0  0  0  0  0  0  0  0  0
  -14.0122   14.9626   35.5401 C   0  0  0  0  0  0  0  0  0  0  0  0
  -13.0069   16.0642   35.8219 C   0  0  0  0  0  0  0  0  0  0  0  0
  -14.1234   14.4693   34.1626 N   0  0  0  0  0  0  0  0  0  0  0  0
  -15.6328   14.0844   33.9495 C   0  0  0  0  0  0  0  0  0  0  0  0
  -18.0443   14.5350   36.1147 H   0  0  0  0  0  0  0  0  0  0  0  0
  -15.5802   16.4591   34.1389 H   0  0  0  0  0  0  0  0  0  0  0  0
  -13.8487   15.1979   33.5037 H   0  0  0  0  0  0  0  0  0  0  0  0
  -15.7368   12.6365   33.3886 C   0  0  0  0  0  0  0  0  0  0  0  0
  -16.5283   11.6391   33.8052 N   0  0  0  0  0  0  0  0  0  0  0  0
  -16.3375   10.6085   32.9504 C   0  0  0  0  0  0  0  0  0  0  0  0
  -16.8441    9.3503   32.8891 C   0  0  0  0  0  0  0  0  0  0  0  0
  -16.4514    8.4518   31.8791 C   0  0  0  0  0  0  0  0  0  0  0  0
  -15.5236    8.8761   30.9359 C   0  0  0  0  0  0  0  0  0  0  0  0
  -15.0201   10.1730   31.0571 C   0  0  0  0  0  0  0  0  0  0  0  0
  -15.4216   10.9878   32.0500 C   0  0  0  0  0  0  0  0  0  0  0  0
  -15.0718   12.2407   32.3278 N   0  0  0  0  0  0  0  0  0  0  0  0
  -17.1318   11.6536   34.5829 H   0  0  0  0  0  0  0  0  0  0  0  0
  4  3  1  0  0  0
  1  2  1  0  0  0
  3  2  1  0  0  0
  3  5  1  0  0  0
  8  2  1  0  0  0
  8  7  1  0  0  0
  8 12  1  0  0  0
  6  5  1  0  0  0
  7  5  1  0  0  0
 13 12  1  0  0  0
 13 14  1  0  0  0
 12 20  2  0  0  0
 14 15  1  0  0  0
 14 19  2  0  0  0
 15 16  2  0  0  0
 20 19  1  0  0  0
 19 18  1  0  0  0
 16 17  1  0  0  0
 18 17  2  0  0  0
  1  9  1  0  0  0
  4 10  1  0  0  0
  7 11  1  0  0  0
 13 21  1  0  0  0
M  END
> <minimizedAffinity>
-6.39842

$$$$
4J28_EAT_A_501


 21 23  0  0  0  0  0  0  0  0999 V2000
  -15.6221   14.7703   34.0172 O   0  0  0  0  0  0  0  0  0  0  0  0
  -17.0179   14.3779   33.8996 C   0  0  0  0  0  0  0  0  0  0  0  0
  -18.0315   15.2890   34.5984 C   0  0  0  0  0  0  0  0  0  0  0  0
  -17.7034   15.5033   35.9435 O   0  0  0  0  0  0  0  0  0  0  0  0
  -19.3057   14.4605   34.4472 C   0  0  0  0  0  0  0  0  0  0  0  0
  -20.4543   15.0948   35.2100 C   0  0  0  0  0  0  0  0  0  0  0  0
  -18.8429   13.1361   34.8776 N   0  0  0  0  0  0  0  0  0  0  0  0
  -17.2929   13.1012   34.6168 C   0  0  0  0  0  0  0  0  0  0  0  0
  -15.4789   15.6027   33.5403 H   0  0  0  0  0  0  0  0  0  0  0  0
  -17.6254   14.6496   36.3973 H   0  0  0  0  0  0  0  0  0  0  0  0
  -19.0368   12.9998   35.8697 H   0  0  0  0  0  0  0  0  0  0  0  0
  -16.9217   11.8326   33.7955 C   0  0  0  0  0  0  0  0  0  0  0  0
  -17.4385   10.6003   33.8914 N   0  0  0  0  0  0  0  0  0  0  0  0
  -16.8729    9.8640   32.9079 C   0  0  0  0  0  0  0  0  0  0  0  0
  -16.9928    8.5626   32.5397 C   0  0  0  0  0  0  0  0  0  0  0  0
  -16.2555    8.0360   31.4623 C   0  0  0  0  0  0  0  0  0  0  0  0
  -15.3899    8.8777   30.7748 C   0  0  0  0  0  0  0  0  0  0  0  0
  -15.2903   10.2017   31.2076 C   0  0  0  0  0  0  0  0  0  0  0  0
  -16.0105   10.6510   32.2518 C   0  0  0  0  0  0  0  0  0  0  0  0
  -16.0617   11.8602   32.8035 N   0  0  0  0  0  0  0  0  0  0  0  0
  -18.1014   10.2908   34.5501 H   0  0  0  0  0  0  0  0  0  0  0  0
  4  3  1  0  0  0
  1  2  1  0  0  0
  3  2  1  0  0  0
  3  5  1  0  0  0
  8  2  1  0  0  0
  8  7  1  0  0  0
  8 12  1  0  0  0
  6  5  1  0  0  0
  7  5  1  0  0  0
 13 12  1  0  0  0
 13 14  1  0  0  0
 12 20  2  0  0  0
 14 15  1  0  0  0
 14 19  2  0  0  0
 15 16  2  0  0  0
 20 19  1  0  0  0
 19 18  1  0  0  0
 16 17  1  0  0  0
 18 17  2  0  0  0
  1  9  1  0  0  0
  4 10  1  0  0  0
  7 11  1  0  0  0
 13 21  1  0  0  0
M  END
> <minimizedAffinity>
-6.34352

$$$$
4J28_EAT_A_501


 21 23  0  0  0  0  0  0  0  0999 V2000
  -17.8480   10.2724   33.8792 O   0  0  0  0  0  0  0  0  0  0  0  0
  -18.6515   11.2352   34.6164 C   0  0  0  0  0  0  0  0  0  0  0  0
  -20.1224   10.8618   34.8235 C   0  0  0  0  0  0  0  0  0  0  0  0
  -20.7539   10.5308   33.6176 O   0  0  0  0  0  0  0  0  0  0  0  0
  -20.6630   12.1636   35.4118 C   0  0  0  0  0  0  0  0  0  0  0  0
  -22.1712   12.0984   35.5685 C   0  0  0  0  0  0  0  0  0  0  0  0
  -20.1108   13.1539   34.4803 N   0  0  0  0  0  0  0  0  0  0  0  0
  -18.8204   12.5064   33.8577 C   0  0  0  0  0  0  0  0  0  0  0  0
  -17.7586    9.4593   34.4006 H   0  0  0  0  0  0  0  0  0  0  0  0
  -20.6618   11.2662   32.9918 H   0  0  0  0  0  0  0  0  0  0  0  0
  -20.7882   13.3651   33.7475 H   0  0  0  0  0  0  0  0  0  0  0  0
  -17.6162   13.4817   33.9999 C   0  0  0  0  0  0  0  0  0  0  0  0
  -17.6392   14.8069   34.1954 N   0  0  0  0  0  0  0  0  0  0  0  0
  -16.3545   15.1986   34.3546 C   0  0  0  0  0  0  0  0  0  0  0  0
  -15.7737   16.4091   34.5569 C   0  0  0  0  0  0  0  0  0  0  0  0
  -14.3769   16.5404   34.6722 C   0  0  0  0  0  0  0  0  0  0  0  0
  -13.5913   15.3989   34.5714 C   0  0  0  0  0  0  0  0  0  0  0  0
  -14.2385   14.1826   34.3436 C   0  0  0  0  0  0  0  0  0  0  0  0
  -15.5777   14.1148   34.2298 C   0  0  0  0  0  0  0  0  0  0  0  0
  -16.3705   13.0670   34.0234 N   0  0  0  0  0  0  0  0  0  0  0  0
  -18.4366   15.3837   34.2187 H   0  0  0  0  0  0  0  0  0  0  0  0
  4  3  1  0  0  0
  1  2  1  0  0  0
  3  2  1  0  0  0
  3  5  1  0  0  0
  8  2  1  0  0  0
  8  7  1  0  0  0
  8 12  1  0  0  0
  6  5  1  0  0  0
  7  5  1  0  0  0
 13 12  1  0  0  0
 13 14  1  0  0  0
 12 20  2  0  0  0
 14 15  1  0  0  0
 14 19  2  0  0  0
 15 16  2  0  0  0
 20 19  1  0  0  0
 19 18  1  0  0  0
 16 17  1  0  0  0
 18 17  2  0  0  0
  1  9  1  0  0  0
  4 10  1  0  0  0
  7 11  1  0  0  0
 13 21  1  0  0  0
M  END
> <minimizedAffinity>
-6.14639

$$$$
4J28_EAT_A_501


 21 23  0  0  0  0  0  0  0  0999 V2000
  -19.4663   13.5573   34.3770 O   0  0  0  0  0  0  0  0  0  0  0  0
  -18.0299   13.7101   34.5484 C   0  0  0  0  0  0  0  0  0  0  0  0
  -17.5588   15.0672   35.0796 C   0  0  0  0  0  0  0  0  0  0  0  0
  -18.0694   16.1313   34.3248 O   0  0  0  0  0  0  0  0  0  0  0  0
  -16.0471   14.9247   34.9145 C   0  0  0  0  0  0  0  0  0  0  0  0
  -15.3443   16.2301   35.2393 C   0  0  0  0  0  0  0  0  0  0  0  0
  -15.9523   14.4161   33.5413 N   0  0  0  0  0  0  0  0  0  0  0  0
  -17.3146   13.6909   33.2415 C   0  0  0  0  0  0  0  0  0  0  0  0
  -19.8991   13.5742   35.2449 H   0  0  0  0  0  0  0  0  0  0  0  0
  -17.8255   16.0135   33.3934 H   0  0  0  0  0  0  0  0  0  0  0  0
  -15.8119   15.1871   32.8884 H   0  0  0  0  0  0  0  0  0  0  0  0
  -17.0444   12.2572   32.7000 C   0  0  0  0  0  0  0  0  0  0  0  0
  -15.9657   11.8058   32.0463 N   0  0  0  0  0  0  0  0  0  0  0  0
  -16.1454   10.4769   31.8708 C   0  0  0  0  0  0  0  0  0  0  0  0
  -15.4049    9.5145   31.2633 C   0  0  0  0  0  0  0  0  0  0  0  0
  -15.8456    8.1787   31.2067 C   0  0  0  0  0  0  0  0  0  0  0  0
  -17.0665    7.8565   31.7863 C   0  0  0  0  0  0  0  0  0  0  0  0
  -17.7965    8.8881   32.3804 C   0  0  0  0  0  0  0  0  0  0  0  0
  -17.3334   10.1516   32.3965 C   0  0  0  0  0  0  0  0  0  0  0  0
  -17.8669   11.2557   32.9117 N   0  0  0  0  0  0  0  0  0  0  0  0
  -15.1921   12.3383   31.7509 H   0  0  0  0  0  0  0  0  0  0  0  0
  4  3  1  0  0  0
  1  2  1  0  0  0
  3  2  1  0  0  0
  3  5  1  0  0  0
  8  2  1  0  0  0
  8  7  1  0  0  0
  8 12  1  0  0  0
  6  5  1  0  0  0
  7  5  1  0  0  0
 13 12  1  0  0  0
 13 14  1  0  0  0
 12 20  2  0  0  0
 14 15  1  0  0  0
 14 19  2  0  0  0
 15 16  2  0  0  0
 20 19  1  0  0  0
 19 18  1  0  0  0
 16 17  1  0  0  0
 18 17  2  0  0  0
  1  9  1  0  0  0
  4 10  1  0  0  0
  7 11  1  0  0  0
 13 21  1  0  0  0
M  END
> <minimizedAffinity>
-5.98162

$$$$
