4MME_29Q_A_603


 21 24  0  0  0  0  0  0  0  0999 V2000
  103.4171   22.5220   35.5380 C   0  0  0  0  0  0  0  0  0  0  0  0
  104.4976   23.0703   34.7594 O   0  0  0  0  0  0  0  0  0  0  0  0
  102.6123   23.6443   36.1832 C   0  0  0  0  0  0  0  0  0  0  0  0
  101.7593   24.5607   35.5684 C   0  0  0  0  0  0  0  0  0  0  0  0
  101.1093   25.5666   36.3127 C   0  0  0  0  0  0  0  0  0  0  0  0
  101.3188   25.6600   37.6894 C   0  0  0  0  0  0  0  0  0  0  0  0
  102.1968   24.7497   38.3373 C   0  0  0  0  0  0  0  0  0  0  0  0
  102.8096   23.7697   37.5619 C   0  0  0  0  0  0  0  0  0  0  0  0
  103.7541   22.6453   37.8053 C   0  0  0  0  0  0  0  0  0  0  0  0
  104.0521   21.9402   36.7405 N   0  0  0  0  0  0  0  0  0  0  0  0
  104.9787   20.8614   36.8508 C   0  0  0  0  0  0  0  0  0  0  0  0
  105.1779   20.9330   38.3917 C   0  0  0  0  0  0  0  0  0  0  0  0
  104.4140   22.1056   38.8720 N   0  0  0  0  0  0  0  0  0  0  0  0
  104.1425   23.4701   33.9502 H   0  0  0  0  0  0  0  0  0  0  0  0
   99.9636   19.6375   31.3837 Cl  0  0  0  0  0  0  0  0  0  0  0  0
  100.9623   20.4366   32.6677 C   0  0  0  0  0  0  0  0  0  0  0  0
  100.6946   20.2687   34.0365 C   0  0  0  0  0  0  0  0  0  0  0  0
  101.4804   20.9194   35.0132 C   0  0  0  0  0  0  0  0  0  0  0  0
  101.9883   21.2440   32.2747 C   0  0  0  0  0  0  0  0  0  0  0  0
  102.7641   21.8871   33.2463 C   0  0  0  0  0  0  0  0  0  0  0  0
  102.5415   21.7223   34.6063 C   0  0  0  0  0  0  0  0  0  0  0  0
 15 16  1  0  0  0
 19 16  2  0  0  0
 19 20  1  0  0  0
 16 17  1  0  0  0
 20 21  2  0  0  0
 17 18  2  0  0  0
 21 18  1  0  0  0
 21  1  1  0  0  0
  2  1  1  0  0  0
  1  3  1  0  0  0
  1 10  1  0  0  0
  4  3  2  0  0  0
  4  5  1  0  0  0
  3  8  1  0  0  0
  5  6  2  0  0  0
 10 11  1  0  0  0
 10  9  1  0  0  0
 11 12  1  0  0  0
  8  9  1  0  0  0
  8  7  2  0  0  0
  9 13  2  0  0  0
  6  7  1  0  0  0
 12 13  1  0  0  0
  2 14  1  0  0  0
M  END
> <minimizedAffinity>
-10.09673

$$$$
4MME_29Q_A_603


 21 24  0  0  0  0  0  0  0  0999 V2000
  103.0922   26.6154   37.5651 C   0  0  0  0  0  0  0  0  0  0  0  0
  103.7271   27.3693   36.5150 O   0  0  0  0  0  0  0  0  0  0  0  0
  101.8204   27.3202   38.0226 C   0  0  0  0  0  0  0  0  0  0  0  0
  100.6141   27.4593   37.3365 C   0  0  0  0  0  0  0  0  0  0  0  0
   99.5352   28.1758   37.8941 C   0  0  0  0  0  0  0  0  0  0  0  0
   99.6661   28.7649   39.1526 C   0  0  0  0  0  0  0  0  0  0  0  0
  100.8906   28.6530   39.8648 C   0  0  0  0  0  0  0  0  0  0  0  0
  101.9243   27.9298   39.2768 C   0  0  0  0  0  0  0  0  0  0  0  0
  103.3170   27.5566   39.6466 C   0  0  0  0  0  0  0  0  0  0  0  0
  103.9384   26.8146   38.7618 N   0  0  0  0  0  0  0  0  0  0  0  0
  105.2918   26.4301   38.9956 C   0  0  0  0  0  0  0  0  0  0  0  0
  105.4255   27.0450   40.4180 C   0  0  0  0  0  0  0  0  0  0  0  0
  104.1622   27.7623   40.6991 N   0  0  0  0  0  0  0  0  0  0  0  0
  103.2149   27.2780   35.6963 H   0  0  0  0  0  0  0  0  0  0  0  0
  102.0748   20.8740   35.6925 Cl  0  0  0  0  0  0  0  0  0  0  0  0
  102.3304   22.5991   36.1854 C   0  0  0  0  0  0  0  0  0  0  0  0
  102.1738   23.6658   35.2846 C   0  0  0  0  0  0  0  0  0  0  0  0
  102.3977   24.9987   35.6947 C   0  0  0  0  0  0  0  0  0  0  0  0
  102.7113   22.8511   37.4702 C   0  0  0  0  0  0  0  0  0  0  0  0
  102.9325   24.1737   37.8717 C   0  0  0  0  0  0  0  0  0  0  0  0
  102.7620   25.2511   37.0136 C   0  0  0  0  0  0  0  0  0  0  0  0
 15 16  1  0  0  0
 19 16  2  0  0  0
 19 20  1  0  0  0
 16 17  1  0  0  0
 20 21  2  0  0  0
 17 18  2  0  0  0
 21 18  1  0  0  0
 21  1  1  0  0  0
  2  1  1  0  0  0
  1  3  1  0  0  0
  1 10  1  0  0  0
  4  3  2  0  0  0
  4  5  1  0  0  0
  3  8  1  0  0  0
  5  6  2  0  0  0
 10 11  1  0  0  0
 10  9  1  0  0  0
 11 12  1  0  0  0
  8  9  1  0  0  0
  8  7  2  0  0  0
  9 13  2  0  0  0
  6  7  1  0  0  0
 12 13  1  0  0  0
  2 14  1  0  0  0
M  END
> <minimizedAffinity>
-7.68363

$$$$
4MME_29Q_A_603


 21 24  0  0  0  0  0  0  0  0999 V2000
  102.1781   26.8920   35.9208 C   0  0  0  0  0  0  0  0  0  0  0  0
  101.5363   27.2666   34.6871 O   0  0  0  0  0  0  0  0  0  0  0  0
  101.3911   27.4347   37.1081 C   0  0  0  0  0  0  0  0  0  0  0  0
  100.1462   27.0216   37.5821 C   0  0  0  0  0  0  0  0  0  0  0  0
   99.5368   27.6564   38.6839 C   0  0  0  0  0  0  0  0  0  0  0  0
  100.1790   28.7216   39.3170 C   0  0  0  0  0  0  0  0  0  0  0  0
  101.4400   29.1735   38.8427 C   0  0  0  0  0  0  0  0  0  0  0  0
  102.0049   28.5106   37.7571 C   0  0  0  0  0  0  0  0  0  0  0  0
  103.2601   28.6262   36.9654 C   0  0  0  0  0  0  0  0  0  0  0  0
  103.3883   27.7377   36.0094 N   0  0  0  0  0  0  0  0  0  0  0  0
  104.5355   27.7794   35.1628 C   0  0  0  0  0  0  0  0  0  0  0  0
  105.2754   28.9351   35.8949 C   0  0  0  0  0  0  0  0  0  0  0  0
  104.3722   29.4185   36.9625 N   0  0  0  0  0  0  0  0  0  0  0  0
  100.7287   26.7421   34.5705 H   0  0  0  0  0  0  0  0  0  0  0  0
  101.9366   20.7732   35.8335 Cl  0  0  0  0  0  0  0  0  0  0  0  0
  102.0710   22.5790   35.9095 C   0  0  0  0  0  0  0  0  0  0  0  0
  102.7061   23.2378   36.9753 C   0  0  0  0  0  0  0  0  0  0  0  0
  102.7790   24.6478   37.0148 C   0  0  0  0  0  0  0  0  0  0  0  0
  101.5099   23.3083   34.9033 C   0  0  0  0  0  0  0  0  0  0  0  0
  101.5842   24.7055   34.9471 C   0  0  0  0  0  0  0  0  0  0  0  0
  102.2263   25.3856   35.9726 C   0  0  0  0  0  0  0  0  0  0  0  0
 15 16  1  0  0  0
 19 16  2  0  0  0
 19 20  1  0  0  0
 16 17  1  0  0  0
 20 21  2  0  0  0
 17 18  2  0  0  0
 21 18  1  0  0  0
 21  1  1  0  0  0
  2  1  1  0  0  0
  1  3  1  0  0  0
  1 10  1  0  0  0
  4  3  2  0  0  0
  4  5  1  0  0  0
  3  8  1  0  0  0
  5  6  2  0  0  0
 10 11  1  0  0  0
 10  9  1  0  0  0
 11 12  1  0  0  0
  8  9  1  0  0  0
  8  7  2  0  0  0
  9 13  2  0  0  0
  6  7  1  0  0  0
 12 13  1  0  0  0
  2 14  1  0  0  0
M  END
> <minimizedAffinity>
-7.47338

$$$$
4MME_29Q_A_603


 21 24  0  0  0  0  0  0  0  0999 V2000
  101.5564   27.4150   35.9205 C   0  0  0  0  0  0  0  0  0  0  0  0
  100.3184   27.2823   35.1967 O   0  0  0  0  0  0  0  0  0  0  0  0
  101.9875   26.0626   36.4762 C   0  0  0  0  0  0  0  0  0  0  0  0
  102.4662   24.9537   35.7787 C   0  0  0  0  0  0  0  0  0  0  0  0
  102.7937   23.7561   36.4470 C   0  0  0  0  0  0  0  0  0  0  0  0
  102.6361   23.6648   37.8308 C   0  0  0  0  0  0  0  0  0  0  0  0
  102.1336   24.7743   38.5628 C   0  0  0  0  0  0  0  0  0  0  0  0
  101.8312   25.9372   37.8602 C   0  0  0  0  0  0  0  0  0  0  0  0
  101.3143   27.2910   38.1999 C   0  0  0  0  0  0  0  0  0  0  0  0
  101.2059   28.1077   37.1795 N   0  0  0  0  0  0  0  0  0  0  0  0
  100.6843   29.4194   37.3838 C   0  0  0  0  0  0  0  0  0  0  0  0
  100.5519   29.3372   38.9313 C   0  0  0  0  0  0  0  0  0  0  0  0
  100.9197   27.9587   39.3236 N   0  0  0  0  0  0  0  0  0  0  0  0
  100.4834   26.8314   34.3539 H   0  0  0  0  0  0  0  0  0  0  0  0
  105.4374   29.4181   31.6274 Cl  0  0  0  0  0  0  0  0  0  0  0  0
  104.3455   28.8400   32.9534 C   0  0  0  0  0  0  0  0  0  0  0  0
  104.8412   28.3949   34.1902 C   0  0  0  0  0  0  0  0  0  0  0  0
  103.9654   27.9333   35.1975 C   0  0  0  0  0  0  0  0  0  0  0  0
  103.0028   28.8195   32.7174 C   0  0  0  0  0  0  0  0  0  0  0  0
  102.1388   28.3608   33.7187 C   0  0  0  0  0  0  0  0  0  0  0  0
  102.5945   27.9382   34.9597 C   0  0  0  0  0  0  0  0  0  0  0  0
 15 16  1  0  0  0
 19 16  2  0  0  0
 19 20  1  0  0  0
 16 17  1  0  0  0
 20 21  2  0  0  0
 17 18  2  0  0  0
 21 18  1  0  0  0
 21  1  1  0  0  0
  2  1  1  0  0  0
  1  3  1  0  0  0
  1 10  1  0  0  0
  4  3  2  0  0  0
  4  5  1  0  0  0
  3  8  1  0  0  0
  5  6  2  0  0  0
 10 11  1  0  0  0
 10  9  1  0  0  0
 11 12  1  0  0  0
  8  9  1  0  0  0
  8  7  2  0  0  0
  9 13  2  0  0  0
  6  7  1  0  0  0
 12 13  1  0  0  0
  2 14  1  0  0  0
M  END
> <minimizedAffinity>
-7.28119

$$$$
4MME_29Q_A_603


 21 24  0  0  0  0  0  0  0  0999 V2000
  101.8086   25.6640   36.2000 C   0  0  0  0  0  0  0  0  0  0  0  0
  100.5221   25.6799   36.8472 O   0  0  0  0  0  0  0  0  0  0  0  0
  102.8948   26.0927   37.1797 C   0  0  0  0  0  0  0  0  0  0  0  0
  103.3930   25.3935   38.2790 C   0  0  0  0  0  0  0  0  0  0  0  0
  104.3859   25.9513   39.1104 C   0  0  0  0  0  0  0  0  0  0  0  0
  104.8838   27.2271   38.8416 C   0  0  0  0  0  0  0  0  0  0  0  0
  104.3806   27.9676   37.7381 C   0  0  0  0  0  0  0  0  0  0  0  0
  103.4064   27.3722   36.9420 C   0  0  0  0  0  0  0  0  0  0  0  0
  102.6338   27.7534   35.7282 C   0  0  0  0  0  0  0  0  0  0  0  0
  101.8089   26.8319   35.2924 N   0  0  0  0  0  0  0  0  0  0  0  0
  100.9895   27.1046   34.1572 C   0  0  0  0  0  0  0  0  0  0  0  0
  101.5754   28.5070   33.8269 C   0  0  0  0  0  0  0  0  0  0  0  0
  102.5486   28.8306   34.8935 N   0  0  0  0  0  0  0  0  0  0  0  0
  100.4596   24.9314   37.4609 H   0  0  0  0  0  0  0  0  0  0  0  0
  103.2646   20.1355   34.0041 Cl  0  0  0  0  0  0  0  0  0  0  0  0
  102.7675   21.7392   34.6866 C   0  0  0  0  0  0  0  0  0  0  0  0
  101.4360   22.0254   35.0312 C   0  0  0  0  0  0  0  0  0  0  0  0
  101.0769   23.2914   35.5443 C   0  0  0  0  0  0  0  0  0  0  0  0
  103.7255   22.6970   34.8412 C   0  0  0  0  0  0  0  0  0  0  0  0
  103.3647   23.9503   35.3497 C   0  0  0  0  0  0  0  0  0  0  0  0
  102.0635   24.2562   35.7230 C   0  0  0  0  0  0  0  0  0  0  0  0
 15 16  1  0  0  0
 19 16  2  0  0  0
 19 20  1  0  0  0
 16 17  1  0  0  0
 20 21  2  0  0  0
 17 18  2  0  0  0
 21 18  1  0  0  0
 21  1  1  0  0  0
  2  1  1  0  0  0
  1  3  1  0  0  0
  1 10  1  0  0  0
  4  3  2  0  0  0
  4  5  1  0  0  0
  3  8  1  0  0  0
  5  6  2  0  0  0
 10 11  1  0  0  0
 10  9  1  0  0  0
 11 12  1  0  0  0
  8  9  1  0  0  0
  8  7  2  0  0  0
  9 13  2  0  0  0
  6  7  1  0  0  0
 12 13  1  0  0  0
  2 14  1  0  0  0
M  END
> <minimizedAffinity>
-7.19246

$$$$
4MME_29Q_A_603


 21 24  0  0  0  0  0  0  0  0999 V2000
  102.5717   25.4993   37.6595 C   0  0  0  0  0  0  0  0  0  0  0  0
  101.4259   25.5661   38.5295 O   0  0  0  0  0  0  0  0  0  0  0  0
  102.9198   24.0458   37.3600 C   0  0  0  0  0  0  0  0  0  0  0  0
  102.2176   23.1326   36.5736 C   0  0  0  0  0  0  0  0  0  0  0  0
  102.6636   21.8034   36.4235 C   0  0  0  0  0  0  0  0  0  0  0  0
  103.8248   21.3806   37.0723 C   0  0  0  0  0  0  0  0  0  0  0  0
  104.5490   22.2863   37.8935 C   0  0  0  0  0  0  0  0  0  0  0  0
  104.0738   23.5897   38.0049 C   0  0  0  0  0  0  0  0  0  0  0  0
  104.4971   24.8282   38.7139 C   0  0  0  0  0  0  0  0  0  0  0  0
  103.7297   25.8701   38.5018 N   0  0  0  0  0  0  0  0  0  0  0  0
  104.0200   27.1007   39.1619 C   0  0  0  0  0  0  0  0  0  0  0  0
  105.3397   26.6465   39.8483 C   0  0  0  0  0  0  0  0  0  0  0  0
  105.5113   25.2084   39.5453 N   0  0  0  0  0  0  0  0  0  0  0  0
  100.6275   25.3313   38.0312 H   0  0  0  0  0  0  0  0  0  0  0  0
  101.4892   28.8195   32.6286 Cl  0  0  0  0  0  0  0  0  0  0  0  0
  101.7522   27.7855   34.0936 C   0  0  0  0  0  0  0  0  0  0  0  0
  100.7678   26.9070   34.5759 C   0  0  0  0  0  0  0  0  0  0  0  0
  100.9964   26.1271   35.7311 C   0  0  0  0  0  0  0  0  0  0  0  0
  102.9411   27.8942   34.7523 C   0  0  0  0  0  0  0  0  0  0  0  0
  103.1628   27.1196   35.8970 C   0  0  0  0  0  0  0  0  0  0  0  0
  102.2210   26.2243   36.3844 C   0  0  0  0  0  0  0  0  0  0  0  0
 15 16  1  0  0  0
 19 16  2  0  0  0
 19 20  1  0  0  0
 16 17  1  0  0  0
 20 21  2  0  0  0
 17 18  2  0  0  0
 21 18  1  0  0  0
 21  1  1  0  0  0
  2  1  1  0  0  0
  1  3  1  0  0  0
  1 10  1  0  0  0
  4  3  2  0  0  0
  4  5  1  0  0  0
  3  8  1  0  0  0
  5  6  2  0  0  0
 10 11  1  0  0  0
 10  9  1  0  0  0
 11 12  1  0  0  0
  8  9  1  0  0  0
  8  7  2  0  0  0
  9 13  2  0  0  0
  6  7  1  0  0  0
 12 13  1  0  0  0
  2 14  1  0  0  0
M  END
> <minimizedAffinity>
-7.17014

$$$$
