4E6D_0NU_A_1201


 24 27  0  0  0  0  0  0  0  0999 V2000
   -2.4410  -45.7467  -22.3021 N   0  0  0  0  0  0  0  0  0  0  0  0
   -3.7199  -45.2396  -22.4797 C   0  0  0  0  0  0  0  0  0  0  0  0
   -4.8573  -45.1272  -21.6867 C   0  0  0  0  0  0  0  0  0  0  0  0
   -5.3199  -45.4974  -20.3792 C   0  0  0  0  0  0  0  0  0  0  0  0
   -1.7438  -45.5292  -23.4716 C   0  0  0  0  0  0  0  0  0  0  0  0
   -2.4471  -44.9074  -24.3891 N   0  0  0  0  0  0  0  0  0  0  0  0
   -3.6910  -44.7045  -23.7949 C   0  0  0  0  0  0  0  0  0  0  0  0
   -4.8247  -44.0519  -24.2630 C   0  0  0  0  0  0  0  0  0  0  0  0
   -5.9327  -43.8968  -23.5291 N   0  0  0  0  0  0  0  0  0  0  0  0
   -5.9360  -44.4170  -22.2892 C   0  0  0  0  0  0  0  0  0  0  0  0
   -6.9636  -44.3745  -21.3920 N   0  0  0  0  0  0  0  0  0  0  0  0
   -6.5932  -45.0365  -20.2535 C   0  0  0  0  0  0  0  0  0  0  0  0
   -7.8330  -43.9370  -21.5406 H   0  0  0  0  0  0  0  0  0  0  0  0
   -0.6380  -49.1277  -19.5719 C   0  0  0  0  0  0  0  0  0  0  0  0
   -1.0994  -49.9842  -20.3191 O   0  0  0  0  0  0  0  0  0  0  0  0
   -0.5145  -47.8428  -19.9619 N   0  0  0  0  0  0  0  0  0  0  0  0
    0.0050  -46.8189  -19.0619 C   0  0  0  0  0  0  0  0  0  0  0  0
   -1.0783  -45.8039  -18.7443 C   0  0  0  0  0  0  0  0  0  0  0  0
   -1.6421  -45.2119  -20.0357 C   0  0  0  0  0  0  0  0  0  0  0  0
   -0.9076  -47.3143  -21.2704 C   0  0  0  0  0  0  0  0  0  0  0  0
   -2.0050  -46.3105  -21.0308 C   0  0  0  0  0  0  0  0  0  0  0  0
   -0.2170  -49.5158  -18.0853 C   0  0  0  0  0  0  0  0  0  0  0  0
   -0.9950  -51.9004  -17.3925 N   0  0  0  0  0  0  0  0  0  0  0  0
   -0.6919  -50.8603  -17.7735 C   0  0  0  0  0  0  0  0  0  0  0  0
  6  7  1  0  0  0
  6  5  2  0  0  0
  8  7  2  0  0  0
  8  9  1  0  0  0
  7  2  1  0  0  0
  5  1  1  0  0  0
  9 10  2  0  0  0
  2  1  1  0  0  0
  2  3  2  0  0  0
  1 21  1  0  0  0
 10  3  1  0  0  0
 10 11  1  0  0  0
  3  4  1  0  0  0
 20 21  1  0  0  0
 20 16  1  0  0  0
 11 12  1  0  0  0
 21 19  1  0  0  0
 15 14  2  0  0  0
  4 12  2  0  0  0
 16 14  1  0  0  0
 16 17  1  0  0  0
 19 18  1  0  0  0
 14 22  1  0  0  0
 17 18  1  0  0  0
 22 24  1  0  0  0
 24 23  3  0  0  0
 11 13  1  0  0  0
M  END
> <minimizedAffinity>
-9.16164

$$$$
4E6D_0NU_A_1201


 24 27  0  0  0  0  0  0  0  0999 V2000
   -1.4333  -45.6834  -22.8064 N   0  0  0  0  0  0  0  0  0  0  0  0
   -2.7904  -45.4940  -22.5907 C   0  0  0  0  0  0  0  0  0  0  0  0
   -3.6631  -45.7167  -21.5305 C   0  0  0  0  0  0  0  0  0  0  0  0
   -3.6575  -46.2756  -20.2083 C   0  0  0  0  0  0  0  0  0  0  0  0
   -1.1480  -45.2241  -24.0747 C   0  0  0  0  0  0  0  0  0  0  0  0
   -2.1937  -44.7332  -24.6982 N   0  0  0  0  0  0  0  0  0  0  0  0
   -3.2403  -44.8813  -23.7903 C   0  0  0  0  0  0  0  0  0  0  0  0
   -4.5728  -44.4961  -23.8709 C   0  0  0  0  0  0  0  0  0  0  0  0
   -5.4434  -44.6663  -22.8692 N   0  0  0  0  0  0  0  0  0  0  0  0
   -4.9934  -45.2534  -21.7463 C   0  0  0  0  0  0  0  0  0  0  0  0
   -5.7194  -45.5238  -20.6228 N   0  0  0  0  0  0  0  0  0  0  0  0
   -4.9163  -46.1499  -19.7091 C   0  0  0  0  0  0  0  0  0  0  0  0
   -6.6698  -45.3035  -20.4908 H   0  0  0  0  0  0  0  0  0  0  0  0
   -0.3140  -48.5956  -19.2847 C   0  0  0  0  0  0  0  0  0  0  0  0
   -1.4957  -48.6713  -18.9648 O   0  0  0  0  0  0  0  0  0  0  0  0
    0.0619  -48.1329  -20.4942 N   0  0  0  0  0  0  0  0  0  0  0  0
    1.4685  -48.0137  -20.8621 C   0  0  0  0  0  0  0  0  0  0  0  0
    1.8365  -46.5534  -21.0543 C   0  0  0  0  0  0  0  0  0  0  0  0
    0.9092  -45.9064  -22.0826 C   0  0  0  0  0  0  0  0  0  0  0  0
   -0.8493  -47.6669  -21.5423 C   0  0  0  0  0  0  0  0  0  0  0  0
   -0.5537  -46.2073  -21.7691 C   0  0  0  0  0  0  0  0  0  0  0  0
    0.8178  -49.0020  -18.2398 C   0  0  0  0  0  0  0  0  0  0  0  0
    0.0138  -50.7811  -16.5194 N   0  0  0  0  0  0  0  0  0  0  0  0
    0.3064  -50.0235  -17.3314 C   0  0  0  0  0  0  0  0  0  0  0  0
  6  7  1  0  0  0
  6  5  2  0  0  0
  8  7  2  0  0  0
  8  9  1  0  0  0
  7  2  1  0  0  0
  5  1  1  0  0  0
  9 10  2  0  0  0
  2  1  1  0  0  0
  2  3  2  0  0  0
  1 21  1  0  0  0
 10  3  1  0  0  0
 10 11  1  0  0  0
  3  4  1  0  0  0
 20 21  1  0  0  0
 20 16  1  0  0  0
 11 12  1  0  0  0
 21 19  1  0  0  0
 15 14  2  0  0  0
  4 12  2  0  0  0
 16 14  1  0  0  0
 16 17  1  0  0  0
 19 18  1  0  0  0
 14 22  1  0  0  0
 17 18  1  0  0  0
 22 24  1  0  0  0
 24 23  3  0  0  0
 11 13  1  0  0  0
M  END
> <minimizedAffinity>
-8.32169

$$$$
4E6D_0NU_A_1201


 24 27  0  0  0  0  0  0  0  0999 V2000
    0.7539  -46.4452  -21.0435 N   0  0  0  0  0  0  0  0  0  0  0  0
    1.3427  -46.1601  -22.2667 C   0  0  0  0  0  0  0  0  0  0  0  0
    0.9362  -45.5228  -23.4345 C   0  0  0  0  0  0  0  0  0  0  0  0
   -0.2361  -44.9148  -23.9974 C   0  0  0  0  0  0  0  0  0  0  0  0
    1.7003  -47.0795  -20.2668 C   0  0  0  0  0  0  0  0  0  0  0  0
    2.8600  -47.2155  -20.8666 N   0  0  0  0  0  0  0  0  0  0  0  0
    2.6709  -46.6416  -22.1222 C   0  0  0  0  0  0  0  0  0  0  0  0
    3.5582  -46.4455  -23.1732 C   0  0  0  0  0  0  0  0  0  0  0  0
    3.2211  -45.8166  -24.3050 N   0  0  0  0  0  0  0  0  0  0  0  0
    1.9561  -45.3748  -24.4187 C   0  0  0  0  0  0  0  0  0  0  0  0
    1.4156  -44.7223  -25.4886 N   0  0  0  0  0  0  0  0  0  0  0  0
    0.0965  -44.4615  -25.2358 C   0  0  0  0  0  0  0  0  0  0  0  0
    1.8980  -44.4781  -26.3113 H   0  0  0  0  0  0  0  0  0  0  0  0
   -3.8267  -45.8906  -21.9636 C   0  0  0  0  0  0  0  0  0  0  0  0
   -3.5772  -45.7689  -23.1584 O   0  0  0  0  0  0  0  0  0  0  0  0
   -2.9308  -46.4191  -21.1055 N   0  0  0  0  0  0  0  0  0  0  0  0
   -3.2163  -46.5346  -19.6795 C   0  0  0  0  0  0  0  0  0  0  0  0
   -2.2813  -45.6404  -18.8853 C   0  0  0  0  0  0  0  0  0  0  0  0
   -0.8264  -45.9716  -19.2162 C   0  0  0  0  0  0  0  0  0  0  0  0
   -1.5909  -46.8897  -21.4648 C   0  0  0  0  0  0  0  0  0  0  0  0
   -0.6046  -46.0241  -20.7251 C   0  0  0  0  0  0  0  0  0  0  0  0
   -5.2178  -45.3706  -21.3870 C   0  0  0  0  0  0  0  0  0  0  0  0
   -6.1291  -43.5336  -22.9891 N   0  0  0  0  0  0  0  0  0  0  0  0
   -5.7959  -44.3917  -22.3025 C   0  0  0  0  0  0  0  0  0  0  0  0
  6  7  1  0  0  0
  6  5  2  0  0  0
  8  7  2  0  0  0
  8  9  1  0  0  0
  7  2  1  0  0  0
  5  1  1  0  0  0
  9 10  2  0  0  0
  2  1  1  0  0  0
  2  3  2  0  0  0
  1 21  1  0  0  0
 10  3  1  0  0  0
 10 11  1  0  0  0
  3  4  1  0  0  0
 20 21  1  0  0  0
 20 16  1  0  0  0
 11 12  1  0  0  0
 21 19  1  0  0  0
 15 14  2  0  0  0
  4 12  2  0  0  0
 16 14  1  0  0  0
 16 17  1  0  0  0
 19 18  1  0  0  0
 14 22  1  0  0  0
 17 18  1  0  0  0
 22 24  1  0  0  0
 24 23  3  0  0  0
 11 13  1  0  0  0
M  END
> <minimizedAffinity>
-7.89383

$$$$
4E6D_0NU_A_1201


 24 27  0  0  0  0  0  0  0  0999 V2000
   -2.5184  -46.6919  -20.5510 N   0  0  0  0  0  0  0  0  0  0  0  0
   -3.0373  -45.9423  -21.5966 C   0  0  0  0  0  0  0  0  0  0  0  0
   -2.5745  -45.5306  -22.8421 C   0  0  0  0  0  0  0  0  0  0  0  0
   -1.3842  -45.5935  -23.6421 C   0  0  0  0  0  0  0  0  0  0  0  0
   -3.4958  -46.7833  -19.5828 C   0  0  0  0  0  0  0  0  0  0  0  0
   -4.6130  -46.1777  -19.9119 N   0  0  0  0  0  0  0  0  0  0  0  0
   -4.3604  -45.6453  -21.1746 C   0  0  0  0  0  0  0  0  0  0  0  0
   -5.1856  -44.9453  -22.0459 C   0  0  0  0  0  0  0  0  0  0  0  0
   -4.7941  -44.5503  -23.2629 N   0  0  0  0  0  0  0  0  0  0  0  0
   -3.5352  -44.8396  -23.6362 C   0  0  0  0  0  0  0  0  0  0  0  0
   -2.9451  -44.5188  -24.8242 N   0  0  0  0  0  0  0  0  0  0  0  0
   -1.6504  -44.9612  -24.8164 C   0  0  0  0  0  0  0  0  0  0  0  0
   -3.3815  -44.0446  -25.5685 H   0  0  0  0  0  0  0  0  0  0  0  0
    2.1362  -46.6006  -21.2313 C   0  0  0  0  0  0  0  0  0  0  0  0
    2.0051  -45.6887  -22.0412 O   0  0  0  0  0  0  0  0  0  0  0  0
    1.1551  -46.9206  -20.3634 N   0  0  0  0  0  0  0  0  0  0  0  0
    1.2997  -48.0254  -19.4218 C   0  0  0  0  0  0  0  0  0  0  0  0
    0.3030  -49.1233  -19.7473 C   0  0  0  0  0  0  0  0  0  0  0  0
   -1.1169  -48.5581  -19.7677 C   0  0  0  0  0  0  0  0  0  0  0  0
   -0.1493  -46.2591  -20.2796 C   0  0  0  0  0  0  0  0  0  0  0  0
   -1.1921  -47.2926  -20.6172 C   0  0  0  0  0  0  0  0  0  0  0  0
    3.4711  -47.4701  -21.2254 C   0  0  0  0  0  0  0  0  0  0  0  0
    3.5711  -49.0250  -23.3096 N   0  0  0  0  0  0  0  0  0  0  0  0
    3.4653  -48.3901  -22.3585 C   0  0  0  0  0  0  0  0  0  0  0  0
  6  7  1  0  0  0
  6  5  2  0  0  0
  8  7  2  0  0  0
  8  9  1  0  0  0
  7  2  1  0  0  0
  5  1  1  0  0  0
  9 10  2  0  0  0
  2  1  1  0  0  0
  2  3  2  0  0  0
  1 21  1  0  0  0
 10  3  1  0  0  0
 10 11  1  0  0  0
  3  4  1  0  0  0
 20 21  1  0  0  0
 20 16  1  0  0  0
 11 12  1  0  0  0
 21 19  1  0  0  0
 15 14  2  0  0  0
  4 12  2  0  0  0
 16 14  1  0  0  0
 16 17  1  0  0  0
 19 18  1  0  0  0
 14 22  1  0  0  0
 17 18  1  0  0  0
 22 24  1  0  0  0
 24 23  3  0  0  0
 11 13  1  0  0  0
M  END
> <minimizedAffinity>
-7.78846

$$$$
4E6D_0NU_A_1201


 24 27  0  0  0  0  0  0  0  0999 V2000
   -1.4440  -45.6252  -22.7500 N   0  0  0  0  0  0  0  0  0  0  0  0
   -2.6650  -45.7250  -22.0993 C   0  0  0  0  0  0  0  0  0  0  0  0
   -3.0801  -46.1235  -20.8329 C   0  0  0  0  0  0  0  0  0  0  0  0
   -2.5312  -46.6652  -19.6221 C   0  0  0  0  0  0  0  0  0  0  0  0
   -1.6867  -45.1195  -24.0096 C   0  0  0  0  0  0  0  0  0  0  0  0
   -2.9545  -44.8613  -24.2316 N   0  0  0  0  0  0  0  0  0  0  0  0
   -3.5950  -45.2238  -23.0484 C   0  0  0  0  0  0  0  0  0  0  0  0
   -4.9291  -45.1277  -22.6725 C   0  0  0  0  0  0  0  0  0  0  0  0
   -5.3720  -45.4747  -21.4586 N   0  0  0  0  0  0  0  0  0  0  0  0
   -4.4720  -45.9510  -20.5803 C   0  0  0  0  0  0  0  0  0  0  0  0
   -4.7216  -46.3651  -19.3040 N   0  0  0  0  0  0  0  0  0  0  0  0
   -3.5560  -46.8058  -18.7391 C   0  0  0  0  0  0  0  0  0  0  0  0
   -5.6003  -46.3493  -18.8605 H   0  0  0  0  0  0  0  0  0  0  0  0
    1.3058  -48.1926  -19.9245 C   0  0  0  0  0  0  0  0  0  0  0  0
    0.3341  -48.4834  -19.2346 O   0  0  0  0  0  0  0  0  0  0  0  0
    1.1640  -47.6945  -21.1696 N   0  0  0  0  0  0  0  0  0  0  0  0
    2.3194  -47.3196  -21.9775 C   0  0  0  0  0  0  0  0  0  0  0  0
    2.3240  -45.8208  -22.2190 C   0  0  0  0  0  0  0  0  0  0  0  0
    1.0039  -45.3844  -22.8536 C   0  0  0  0  0  0  0  0  0  0  0  0
   -0.1142  -47.4332  -21.8359 C   0  0  0  0  0  0  0  0  0  0  0  0
   -0.1878  -45.9496  -22.0859 C   0  0  0  0  0  0  0  0  0  0  0  0
    2.7757  -48.3537  -19.3319 C   0  0  0  0  0  0  0  0  0  0  0  0
    2.7971  -49.1488  -16.8542 N   0  0  0  0  0  0  0  0  0  0  0  0
    2.7017  -48.8039  -17.9455 C   0  0  0  0  0  0  0  0  0  0  0  0
  6  7  1  0  0  0
  6  5  2  0  0  0
  8  7  2  0  0  0
  8  9  1  0  0  0
  7  2  1  0  0  0
  5  1  1  0  0  0
  9 10  2  0  0  0
  2  1  1  0  0  0
  2  3  2  0  0  0
  1 21  1  0  0  0
 10  3  1  0  0  0
 10 11  1  0  0  0
  3  4  1  0  0  0
 20 21  1  0  0  0
 20 16  1  0  0  0
 11 12  1  0  0  0
 21 19  1  0  0  0
 15 14  2  0  0  0
  4 12  2  0  0  0
 16 14  1  0  0  0
 16 17  1  0  0  0
 19 18  1  0  0  0
 14 22  1  0  0  0
 17 18  1  0  0  0
 22 24  1  0  0  0
 24 23  3  0  0  0
 11 13  1  0  0  0
M  END
> <minimizedAffinity>
-7.66560

$$$$
4E6D_0NU_A_1201


 24 27  0  0  0  0  0  0  0  0999 V2000
   -3.7825  -46.0450  -20.2885 N   0  0  0  0  0  0  0  0  0  0  0  0
   -3.7313  -45.5305  -21.5757 C   0  0  0  0  0  0  0  0  0  0  0  0
   -2.7217  -45.2711  -22.4969 C   0  0  0  0  0  0  0  0  0  0  0  0
   -1.2908  -45.3275  -22.5960 C   0  0  0  0  0  0  0  0  0  0  0  0
   -5.1085  -46.0902  -19.9136 C   0  0  0  0  0  0  0  0  0  0  0  0
   -5.9286  -45.6703  -20.8486 N   0  0  0  0  0  0  0  0  0  0  0  0
   -5.0955  -45.3182  -21.9086 C   0  0  0  0  0  0  0  0  0  0  0  0
   -5.3959  -44.8586  -23.1849 C   0  0  0  0  0  0  0  0  0  0  0  0
   -4.4621  -44.6190  -24.1127 N   0  0  0  0  0  0  0  0  0  0  0  0
   -3.1778  -44.8231  -23.7705 C   0  0  0  0  0  0  0  0  0  0  0  0
   -2.0842  -44.6299  -24.5638 N   0  0  0  0  0  0  0  0  0  0  0  0
   -0.9542  -44.9205  -23.8492 C   0  0  0  0  0  0  0  0  0  0  0  0
   -2.1051  -44.3292  -25.5010 H   0  0  0  0  0  0  0  0  0  0  0  0
   -0.4401  -49.1823  -19.2292 C   0  0  0  0  0  0  0  0  0  0  0  0
   -1.2304  -50.0991  -19.4280 O   0  0  0  0  0  0  0  0  0  0  0  0
   -0.6770  -47.9349  -19.6832 N   0  0  0  0  0  0  0  0  0  0  0  0
    0.2482  -46.8383  -19.4193 C   0  0  0  0  0  0  0  0  0  0  0  0
   -0.4116  -45.8006  -18.5291 C   0  0  0  0  0  0  0  0  0  0  0  0
   -1.7191  -45.3202  -19.1580 C   0  0  0  0  0  0  0  0  0  0  0  0
   -1.8643  -47.5191  -20.4338 C   0  0  0  0  0  0  0  0  0  0  0  0
   -2.5856  -46.4992  -19.5919 C   0  0  0  0  0  0  0  0  0  0  0  0
    0.8777  -49.4431  -18.3728 C   0  0  0  0  0  0  0  0  0  0  0  0
    0.3180  -50.2834  -15.9744 N   0  0  0  0  0  0  0  0  0  0  0  0
    0.5170  -49.9773  -17.0633 C   0  0  0  0  0  0  0  0  0  0  0  0
  6  7  1  0  0  0
  6  5  2  0  0  0
  8  7  2  0  0  0
  8  9  1  0  0  0
  7  2  1  0  0  0
  5  1  1  0  0  0
  9 10  2  0  0  0
  2  1  1  0  0  0
  2  3  2  0  0  0
  1 21  1  0  0  0
 10  3  1  0  0  0
 10 11  1  0  0  0
  3  4  1  0  0  0
 20 21  1  0  0  0
 20 16  1  0  0  0
 11 12  1  0  0  0
 21 19  1  0  0  0
 15 14  2  0  0  0
  4 12  2  0  0  0
 16 14  1  0  0  0
 16 17  1  0  0  0
 19 18  1  0  0  0
 14 22  1  0  0  0
 17 18  1  0  0  0
 22 24  1  0  0  0
 24 23  3  0  0  0
 11 13  1  0  0  0
M  END
> <minimizedAffinity>
-7.53598

$$$$
4E6D_0NU_A_1201


 24 27  0  0  0  0  0  0  0  0999 V2000
   -2.3473  -45.4603  -23.5943 N   0  0  0  0  0  0  0  0  0  0  0  0
   -3.6089  -45.0954  -23.1479 C   0  0  0  0  0  0  0  0  0  0  0  0
   -4.3608  -45.3391  -22.0032 C   0  0  0  0  0  0  0  0  0  0  0  0
   -4.2817  -46.0893  -20.7818 C   0  0  0  0  0  0  0  0  0  0  0  0
   -2.1534  -44.8613  -24.8210 C   0  0  0  0  0  0  0  0  0  0  0  0
   -3.1675  -44.1219  -25.2055 N   0  0  0  0  0  0  0  0  0  0  0  0
   -4.0958  -44.2419  -24.1732 C   0  0  0  0  0  0  0  0  0  0  0  0
   -5.3373  -43.6442  -23.9952 C   0  0  0  0  0  0  0  0  0  0  0  0
   -6.0855  -43.8280  -22.9013 N   0  0  0  0  0  0  0  0  0  0  0  0
   -5.6040  -44.6447  -21.9478 C   0  0  0  0  0  0  0  0  0  0  0  0
   -6.2132  -44.9678  -20.7700 N   0  0  0  0  0  0  0  0  0  0  0  0
   -5.4216  -45.8457  -20.0812 C   0  0  0  0  0  0  0  0  0  0  0  0
   -7.0836  -44.6238  -20.4646 H   0  0  0  0  0  0  0  0  0  0  0  0
    1.6274  -46.2607  -21.2073 C   0  0  0  0  0  0  0  0  0  0  0  0
    2.2388  -45.5148  -21.9652 O   0  0  0  0  0  0  0  0  0  0  0  0
    0.2812  -46.2419  -21.1321 N   0  0  0  0  0  0  0  0  0  0  0  0
   -0.4467  -47.1510  -20.2536 C   0  0  0  0  0  0  0  0  0  0  0  0
   -1.2835  -48.1144  -21.0760 C   0  0  0  0  0  0  0  0  0  0  0  0
   -2.2123  -47.3410  -22.0114 C   0  0  0  0  0  0  0  0  0  0  0  0
   -0.5981  -45.3739  -21.9191 C   0  0  0  0  0  0  0  0  0  0  0  0
   -1.4468  -46.2698  -22.7831 C   0  0  0  0  0  0  0  0  0  0  0  0
    2.4246  -47.3175  -20.3210 C   0  0  0  0  0  0  0  0  0  0  0  0
    3.1437  -49.3872  -21.7249 N   0  0  0  0  0  0  0  0  0  0  0  0
    2.8731  -48.4252  -21.1590 C   0  0  0  0  0  0  0  0  0  0  0  0
  6  7  1  0  0  0
  6  5  2  0  0  0
  8  7  2  0  0  0
  8  9  1  0  0  0
  7  2  1  0  0  0
  5  1  1  0  0  0
  9 10  2  0  0  0
  2  1  1  0  0  0
  2  3  2  0  0  0
  1 21  1  0  0  0
 10  3  1  0  0  0
 10 11  1  0  0  0
  3  4  1  0  0  0
 20 21  1  0  0  0
 20 16  1  0  0  0
 11 12  1  0  0  0
 21 19  1  0  0  0
 15 14  2  0  0  0
  4 12  2  0  0  0
 16 14  1  0  0  0
 16 17  1  0  0  0
 19 18  1  0  0  0
 14 22  1  0  0  0
 17 18  1  0  0  0
 22 24  1  0  0  0
 24 23  3  0  0  0
 11 13  1  0  0  0
M  END
> <minimizedAffinity>
-7.50116

$$$$
4E6D_0NU_A_1201


 24 27  0  0  0  0  0  0  0  0999 V2000
    1.2499  -47.7205  -19.4607 N   0  0  0  0  0  0  0  0  0  0  0  0
    1.0075  -48.7131  -18.5225 C   0  0  0  0  0  0  0  0  0  0  0  0
   -0.0709  -49.5337  -18.2082 C   0  0  0  0  0  0  0  0  0  0  0  0
   -1.4342  -49.7475  -18.6036 C   0  0  0  0  0  0  0  0  0  0  0  0
    2.5515  -47.2988  -19.2898 C   0  0  0  0  0  0  0  0  0  0  0  0
    3.1863  -47.9417  -18.3375 N   0  0  0  0  0  0  0  0  0  0  0  0
    2.2464  -48.8423  -17.8404 C   0  0  0  0  0  0  0  0  0  0  0  0
    2.3573  -49.8211  -16.8606 C   0  0  0  0  0  0  0  0  0  0  0  0
    1.3569  -50.6500  -16.5408 N   0  0  0  0  0  0  0  0  0  0  0  0
    0.1929  -50.5035  -17.1979 C   0  0  0  0  0  0  0  0  0  0  0  0
   -0.9429  -51.2375  -17.0140 N   0  0  0  0  0  0  0  0  0  0  0  0
   -1.9199  -50.7701  -17.8500 C   0  0  0  0  0  0  0  0  0  0  0  0
   -1.0433  -51.9845  -16.3805 H   0  0  0  0  0  0  0  0  0  0  0  0
   -2.9772  -46.1704  -20.8264 C   0  0  0  0  0  0  0  0  0  0  0  0
   -3.4893  -46.6765  -19.8333 O   0  0  0  0  0  0  0  0  0  0  0  0
   -1.6476  -45.9603  -20.9057 N   0  0  0  0  0  0  0  0  0  0  0  0
   -1.0356  -45.3873  -22.0996 C   0  0  0  0  0  0  0  0  0  0  0  0
   -0.1269  -46.4072  -22.7618 C   0  0  0  0  0  0  0  0  0  0  0  0
    0.9117  -46.9163  -21.7628 C   0  0  0  0  0  0  0  0  0  0  0  0
   -0.6734  -46.3030  -19.8667 C   0  0  0  0  0  0  0  0  0  0  0  0
    0.2528  -47.3368  -20.4520 C   0  0  0  0  0  0  0  0  0  0  0  0
   -3.8837  -45.7930  -22.0809 C   0  0  0  0  0  0  0  0  0  0  0  0
   -6.1703  -44.7675  -21.3799 N   0  0  0  0  0  0  0  0  0  0  0  0
   -5.1685  -45.2739  -21.6224 C   0  0  0  0  0  0  0  0  0  0  0  0
  6  7  1  0  0  0
  6  5  2  0  0  0
  8  7  2  0  0  0
  8  9  1  0  0  0
  7  2  1  0  0  0
  5  1  1  0  0  0
  9 10  2  0  0  0
  2  1  1  0  0  0
  2  3  2  0  0  0
  1 21  1  0  0  0
 10  3  1  0  0  0
 10 11  1  0  0  0
  3  4  1  0  0  0
 20 21  1  0  0  0
 20 16  1  0  0  0
 11 12  1  0  0  0
 21 19  1  0  0  0
 15 14  2  0  0  0
  4 12  2  0  0  0
 16 14  1  0  0  0
 16 17  1  0  0  0
 19 18  1  0  0  0
 14 22  1  0  0  0
 17 18  1  0  0  0
 22 24  1  0  0  0
 24 23  3  0  0  0
 11 13  1  0  0  0
M  END
> <minimizedAffinity>
-7.40441

$$$$
4E6D_0NU_A_1201


 24 27  0  0  0  0  0  0  0  0999 V2000
   -0.7431  -47.3777  -19.7011 N   0  0  0  0  0  0  0  0  0  0  0  0
    0.6011  -47.3907  -20.0435 C   0  0  0  0  0  0  0  0  0  0  0  0
    1.3860  -46.7404  -20.9900 C   0  0  0  0  0  0  0  0  0  0  0  0
    1.2439  -45.8222  -22.0843 C   0  0  0  0  0  0  0  0  0  0  0  0
   -0.9054  -48.2310  -18.6303 C   0  0  0  0  0  0  0  0  0  0  0  0
    0.2160  -48.7838  -18.2304 N   0  0  0  0  0  0  0  0  0  0  0  0
    1.1828  -48.2711  -19.0930 C   0  0  0  0  0  0  0  0  0  0  0  0
    2.5597  -48.4538  -19.1242 C   0  0  0  0  0  0  0  0  0  0  0  0
    3.3587  -47.8316  -19.9987 N   0  0  0  0  0  0  0  0  0  0  0  0
    2.7824  -47.0073  -20.8912 C   0  0  0  0  0  0  0  0  0  0  0  0
    3.4166  -46.2915  -21.8649 N   0  0  0  0  0  0  0  0  0  0  0  0
    2.4870  -45.5936  -22.5864 C   0  0  0  0  0  0  0  0  0  0  0  0
    4.3882  -46.2793  -22.0229 H   0  0  0  0  0  0  0  0  0  0  0  0
   -2.7462  -45.4220  -23.4826 C   0  0  0  0  0  0  0  0  0  0  0  0
   -1.6789  -45.4800  -24.0843 O   0  0  0  0  0  0  0  0  0  0  0  0
   -2.9692  -46.1485  -22.3687 N   0  0  0  0  0  0  0  0  0  0  0  0
   -4.2272  -46.0552  -21.6360 C   0  0  0  0  0  0  0  0  0  0  0  0
   -3.9876  -45.4598  -20.2602 C   0  0  0  0  0  0  0  0  0  0  0  0
   -2.9354  -46.2744  -19.5084 C   0  0  0  0  0  0  0  0  0  0  0  0
   -2.0054  -47.0587  -21.7452 C   0  0  0  0  0  0  0  0  0  0  0  0
   -1.7018  -46.5112  -20.3750 C   0  0  0  0  0  0  0  0  0  0  0  0
   -3.8879  -44.4320  -23.9869 C   0  0  0  0  0  0  0  0  0  0  0  0
   -3.4447  -43.5949  -26.4106 N   0  0  0  0  0  0  0  0  0  0  0  0
   -3.5599  -43.9402  -25.3214 C   0  0  0  0  0  0  0  0  0  0  0  0
  6  7  1  0  0  0
  6  5  2  0  0  0
  8  7  2  0  0  0
  8  9  1  0  0  0
  7  2  1  0  0  0
  5  1  1  0  0  0
  9 10  2  0  0  0
  2  1  1  0  0  0
  2  3  2  0  0  0
  1 21  1  0  0  0
 10  3  1  0  0  0
 10 11  1  0  0  0
  3  4  1  0  0  0
 20 21  1  0  0  0
 20 16  1  0  0  0
 11 12  1  0  0  0
 21 19  1  0  0  0
 15 14  2  0  0  0
  4 12  2  0  0  0
 16 14  1  0  0  0
 16 17  1  0  0  0
 19 18  1  0  0  0
 14 22  1  0  0  0
 17 18  1  0  0  0
 22 24  1  0  0  0
 24 23  3  0  0  0
 11 13  1  0  0  0
M  END
> <minimizedAffinity>
-7.28160

$$$$
4E6D_0NU_A_1201


 24 27  0  0  0  0  0  0  0  0999 V2000
    1.1375  -46.0698  -22.3165 N   0  0  0  0  0  0  0  0  0  0  0  0
    1.3832  -46.9689  -21.2891 C   0  0  0  0  0  0  0  0  0  0  0  0
    0.6200  -47.8888  -20.5775 C   0  0  0  0  0  0  0  0  0  0  0  0
   -0.7404  -48.3356  -20.4760 C   0  0  0  0  0  0  0  0  0  0  0  0
    2.3327  -45.4538  -22.6216 C   0  0  0  0  0  0  0  0  0  0  0  0
    3.3401  -45.8852  -21.8991 N   0  0  0  0  0  0  0  0  0  0  0  0
    2.7786  -46.8429  -21.0571 C   0  0  0  0  0  0  0  0  0  0  0  0
    3.3642  -47.6743  -20.1105 C   0  0  0  0  0  0  0  0  0  0  0  0
    2.6769  -48.5910  -19.4194 N   0  0  0  0  0  0  0  0  0  0  0  0
    1.3564  -48.6865  -19.6542 C   0  0  0  0  0  0  0  0  0  0  0  0
    0.4831  -49.5447  -19.0513 N   0  0  0  0  0  0  0  0  0  0  0  0
   -0.7756  -49.3198  -19.5381 C   0  0  0  0  0  0  0  0  0  0  0  0
    0.7210  -50.2184  -18.3740 H   0  0  0  0  0  0  0  0  0  0  0  0
   -3.5472  -45.6388  -22.2507 C   0  0  0  0  0  0  0  0  0  0  0  0
   -3.5948  -46.2618  -21.1951 O   0  0  0  0  0  0  0  0  0  0  0  0
   -2.3967  -45.0978  -22.6999 N   0  0  0  0  0  0  0  0  0  0  0  0
   -2.3343  -44.3840  -23.9707 C   0  0  0  0  0  0  0  0  0  0  0  0
   -1.4529  -45.1375  -24.9506 C   0  0  0  0  0  0  0  0  0  0  0  0
   -0.0690  -45.3698  -24.3451 C   0  0  0  0  0  0  0  0  0  0  0  0
   -1.0999  -45.1855  -22.0241 C   0  0  0  0  0  0  0  0  0  0  0  0
   -0.1757  -45.9483  -22.9369 C   0  0  0  0  0  0  0  0  0  0  0  0
   -4.8555  -45.4994  -23.1489 C   0  0  0  0  0  0  0  0  0  0  0  0
   -6.3296  -43.4652  -22.4702 N   0  0  0  0  0  0  0  0  0  0  0  0
   -5.6515  -44.3660  -22.6882 C   0  0  0  0  0  0  0  0  0  0  0  0
  6  7  1  0  0  0
  6  5  2  0  0  0
  8  7  2  0  0  0
  8  9  1  0  0  0
  7  2  1  0  0  0
  5  1  1  0  0  0
  9 10  2  0  0  0
  2  1  1  0  0  0
  2  3  2  0  0  0
  1 21  1  0  0  0
 10  3  1  0  0  0
 10 11  1  0  0  0
  3  4  1  0  0  0
 20 21  1  0  0  0
 20 16  1  0  0  0
 11 12  1  0  0  0
 21 19  1  0  0  0
 15 14  2  0  0  0
  4 12  2  0  0  0
 16 14  1  0  0  0
 16 17  1  0  0  0
 19 18  1  0  0  0
 14 22  1  0  0  0
 17 18  1  0  0  0
 22 24  1  0  0  0
 24 23  3  0  0  0
 11 13  1  0  0  0
M  END
> <minimizedAffinity>
-7.12343

$$$$
