4MRE_2C9_A_202


 13 13  0  0  0  0  0  0  0  0999 V2000
   12.3142   -3.0320   -2.8115 C   0  0  0  0  0  0  0  0  0  0  0  0
   11.3446   -3.6684   -2.0163 C   0  0  0  0  0  0  0  0  0  0  0  0
   10.0104   -3.7813   -2.4365 C   0  0  0  0  0  0  0  0  0  0  0  0
    9.0459   -4.4054   -1.6365 C   0  0  0  0  0  0  0  0  0  0  0  0
    9.3906   -4.9470   -0.3773 C   0  0  0  0  0  0  0  0  0  0  0  0
   10.7287   -4.8220    0.0345 C   0  0  0  0  0  0  0  0  0  0  0  0
   11.1435   -5.2965    1.2287 N   0  0  0  0  0  0  0  0  0  0  0  0
   11.6819   -4.2033   -0.7705 C   0  0  0  0  0  0  0  0  0  0  0  0
   12.9661   -4.0901   -0.3290 N   0  0  0  0  0  0  0  0  0  0  0  0
   10.5040   -5.7414    1.8306 H   0  0  0  0  0  0  0  0  0  0  0  0
   12.0854   -5.1974    1.4975 H   0  0  0  0  0  0  0  0  0  0  0  0
   13.2201   -4.4617    0.5466 H   0  0  0  0  0  0  0  0  0  0  0  0
   13.6398   -3.6368   -0.8856 H   0  0  0  0  0  0  0  0  0  0  0  0
  5  4  2  0  0  0
  5  6  1  0  0  0
  4  3  1  0  0  0
  7  6  1  0  0  0
  6  8  2  0  0  0
  3  2  2  0  0  0
  8  2  1  0  0  0
  8  9  1  0  0  0
  2  1  1  0  0  0
  7 10  1  0  0  0
  7 11  1  0  0  0
  9 12  1  0  0  0
  9 13  1  0  0  0
M  END
> <minimizedAffinity>
-4.65081

$$$$
4MRE_2C9_A_202


 13 13  0  0  0  0  0  0  0  0999 V2000
   13.1324   -3.9753   -0.4912 C   0  0  0  0  0  0  0  0  0  0  0  0
   11.7813   -4.1140   -0.8556 C   0  0  0  0  0  0  0  0  0  0  0  0
   11.3061   -3.6619   -2.0962 C   0  0  0  0  0  0  0  0  0  0  0  0
    9.9578   -3.7914   -2.4501 C   0  0  0  0  0  0  0  0  0  0  0  0
    9.0318   -4.3890   -1.5653 C   0  0  0  0  0  0  0  0  0  0  0  0
    9.5192   -4.8322   -0.3236 C   0  0  0  0  0  0  0  0  0  0  0  0
    8.7027   -5.4008    0.5893 N   0  0  0  0  0  0  0  0  0  0  0  0
   10.8631   -4.7027    0.0176 C   0  0  0  0  0  0  0  0  0  0  0  0
   11.2935   -5.1328    1.2369 N   0  0  0  0  0  0  0  0  0  0  0  0
    7.7449   -5.5127    0.3910 H   0  0  0  0  0  0  0  0  0  0  0  0
    9.0652   -5.7034    1.4531 H   0  0  0  0  0  0  0  0  0  0  0  0
   10.6593   -5.5498    1.8638 H   0  0  0  0  0  0  0  0  0  0  0  0
   12.2387   -5.0265    1.4908 H   0  0  0  0  0  0  0  0  0  0  0  0
  5  4  2  0  0  0
  5  6  1  0  0  0
  4  3  1  0  0  0
  7  6  1  0  0  0
  6  8  2  0  0  0
  3  2  2  0  0  0
  8  2  1  0  0  0
  8  9  1  0  0  0
  2  1  1  0  0  0
  7 10  1  0  0  0
  7 11  1  0  0  0
  9 12  1  0  0  0
  9 13  1  0  0  0
M  END
> <minimizedAffinity>
-4.58206

$$$$
4MRE_2C9_A_202


 13 13  0  0  0  0  0  0  0  0999 V2000
    8.4849   -5.2892    0.2213 C   0  0  0  0  0  0  0  0  0  0  0  0
    9.4999   -4.6982   -0.5519 C   0  0  0  0  0  0  0  0  0  0  0  0
    9.2300   -4.1320   -1.8072 C   0  0  0  0  0  0  0  0  0  0  0  0
   10.2457   -3.5550   -2.5788 C   0  0  0  0  0  0  0  0  0  0  0  0
   11.5790   -3.5215   -2.1113 C   0  0  0  0  0  0  0  0  0  0  0  0
   11.8372   -4.0973   -0.8552 C   0  0  0  0  0  0  0  0  0  0  0  0
   13.0839   -4.1238   -0.3373 N   0  0  0  0  0  0  0  0  0  0  0  0
   10.8192   -4.6650   -0.0931 C   0  0  0  0  0  0  0  0  0  0  0  0
   11.1130   -5.2252    1.1138 N   0  0  0  0  0  0  0  0  0  0  0  0
   13.8346   -3.7340   -0.8411 H   0  0  0  0  0  0  0  0  0  0  0  0
   13.2422   -4.5329    0.5441 H   0  0  0  0  0  0  0  0  0  0  0  0
   12.0377   -5.2103    1.4514 H   0  0  0  0  0  0  0  0  0  0  0  0
   10.4006   -5.6449    1.6482 H   0  0  0  0  0  0  0  0  0  0  0  0
  5  4  2  0  0  0
  5  6  1  0  0  0
  4  3  1  0  0  0
  7  6  1  0  0  0
  6  8  2  0  0  0
  3  2  2  0  0  0
  8  2  1  0  0  0
  8  9  1  0  0  0
  2  1  1  0  0  0
  7 10  1  0  0  0
  7 11  1  0  0  0
  9 12  1  0  0  0
  9 13  1  0  0  0
M  END
> <minimizedAffinity>
-4.53192

$$$$
4MRE_2C9_A_202


 13 13  0  0  0  0  0  0  0  0999 V2000
   11.6877   -5.4686    0.8505 C   0  0  0  0  0  0  0  0  0  0  0  0
   11.0513   -4.8815   -0.2576 C   0  0  0  0  0  0  0  0  0  0  0  0
    9.7103   -5.1582   -0.5647 C   0  0  0  0  0  0  0  0  0  0  0  0
    9.0840   -4.5805   -1.6755 C   0  0  0  0  0  0  0  0  0  0  0  0
    9.7867   -3.6933   -2.5221 C   0  0  0  0  0  0  0  0  0  0  0  0
   11.1309   -3.4291   -2.2070 C   0  0  0  0  0  0  0  0  0  0  0  0
   11.8825   -2.6062   -2.9692 N   0  0  0  0  0  0  0  0  0  0  0  0
   11.7437   -4.0053   -1.0972 C   0  0  0  0  0  0  0  0  0  0  0  0
   13.0529   -3.7344   -0.8336 N   0  0  0  0  0  0  0  0  0  0  0  0
   11.4907   -2.1766   -3.7637 H   0  0  0  0  0  0  0  0  0  0  0  0
   12.8223   -2.4357   -2.7305 H   0  0  0  0  0  0  0  0  0  0  0  0
   13.5551   -3.1191   -1.4155 H   0  0  0  0  0  0  0  0  0  0  0  0
   13.4966   -4.1538   -0.0613 H   0  0  0  0  0  0  0  0  0  0  0  0
  5  4  2  0  0  0
  5  6  1  0  0  0
  4  3  1  0  0  0
  7  6  1  0  0  0
  6  8  2  0  0  0
  3  2  2  0  0  0
  8  2  1  0  0  0
  8  9  1  0  0  0
  2  1  1  0  0  0
  7 10  1  0  0  0
  7 11  1  0  0  0
  9 12  1  0  0  0
  9 13  1  0  0  0
M  END
> <minimizedAffinity>
-4.42391

$$$$
4MRE_2C9_A_202


 13 13  0  0  0  0  0  0  0  0999 V2000
   12.7091   -3.1101   -2.3609 C   0  0  0  0  0  0  0  0  0  0  0  0
   11.7719   -3.7359   -1.5199 C   0  0  0  0  0  0  0  0  0  0  0  0
   12.1709   -4.4450   -0.3766 C   0  0  0  0  0  0  0  0  0  0  0  0
   11.2353   -5.0765    0.4515 C   0  0  0  0  0  0  0  0  0  0  0  0
    9.8535   -5.0139    0.1611 C   0  0  0  0  0  0  0  0  0  0  0  0
    9.4674   -4.3056   -0.9901 C   0  0  0  0  0  0  0  0  0  0  0  0
    8.1704   -4.2073   -1.3524 N   0  0  0  0  0  0  0  0  0  0  0  0
   10.4054   -3.6772   -1.8052 C   0  0  0  0  0  0  0  0  0  0  0  0
    9.9916   -3.0119   -2.9201 N   0  0  0  0  0  0  0  0  0  0  0  0
    7.4727   -4.6360   -0.8058 H   0  0  0  0  0  0  0  0  0  0  0  0
    7.9224   -3.7069   -2.1632 H   0  0  0  0  0  0  0  0  0  0  0  0
    9.0322   -2.9612   -3.1354 H   0  0  0  0  0  0  0  0  0  0  0  0
   10.6519   -2.5819   -3.5103 H   0  0  0  0  0  0  0  0  0  0  0  0
  5  4  2  0  0  0
  5  6  1  0  0  0
  4  3  1  0  0  0
  7  6  1  0  0  0
  6  8  2  0  0  0
  3  2  2  0  0  0
  8  2  1  0  0  0
  8  9  1  0  0  0
  2  1  1  0  0  0
  7 10  1  0  0  0
  7 11  1  0  0  0
  9 12  1  0  0  0
  9 13  1  0  0  0
M  END
> <minimizedAffinity>
-4.32176

$$$$
4MRE_2C9_A_202


 13 13  0  0  0  0  0  0  0  0999 V2000
   12.6568   -4.9306    0.9216 C   0  0  0  0  0  0  0  0  0  0  0  0
   12.3622   -4.2886   -0.2943 C   0  0  0  0  0  0  0  0  0  0  0  0
   13.3140   -3.4968   -0.9550 C   0  0  0  0  0  0  0  0  0  0  0  0
   13.0127   -2.8499   -2.1594 C   0  0  0  0  0  0  0  0  0  0  0  0
   11.7356   -2.9799   -2.7507 C   0  0  0  0  0  0  0  0  0  0  0  0
   10.7895   -3.7709   -2.0760 C   0  0  0  0  0  0  0  0  0  0  0  0
    9.5401   -3.9380   -2.5601 N   0  0  0  0  0  0  0  0  0  0  0  0
   11.1002   -4.4139   -0.8805 C   0  0  0  0  0  0  0  0  0  0  0  0
   10.1506   -5.1608   -0.2503 N   0  0  0  0  0  0  0  0  0  0  0  0
    9.2762   -3.5020   -3.4025 H   0  0  0  0  0  0  0  0  0  0  0  0
    8.8931   -4.4957   -2.0707 H   0  0  0  0  0  0  0  0  0  0  0  0
    9.2563   -5.2592   -0.6500 H   0  0  0  0  0  0  0  0  0  0  0  0
   10.3588   -5.6021    0.6048 H   0  0  0  0  0  0  0  0  0  0  0  0
  5  4  2  0  0  0
  5  6  1  0  0  0
  4  3  1  0  0  0
  7  6  1  0  0  0
  6  8  2  0  0  0
  3  2  2  0  0  0
  8  2  1  0  0  0
  8  9  1  0  0  0
  2  1  1  0  0  0
  7 10  1  0  0  0
  7 11  1  0  0  0
  9 12  1  0  0  0
  9 13  1  0  0  0
M  END
> <minimizedAffinity>
-4.31483

$$$$
4MRE_2C9_A_202


 13 13  0  0  0  0  0  0  0  0999 V2000
    9.4630   -4.3204   -2.0687 C   0  0  0  0  0  0  0  0  0  0  0  0
   10.7954   -3.9972   -1.7563 C   0  0  0  0  0  0  0  0  0  0  0  0
   11.5779   -3.2059   -2.6111 C   0  0  0  0  0  0  0  0  0  0  0  0
   12.9077   -2.8962   -2.3017 C   0  0  0  0  0  0  0  0  0  0  0  0
   13.5027   -3.3703   -1.1106 C   0  0  0  0  0  0  0  0  0  0  0  0
   12.7102   -4.1668   -0.2659 C   0  0  0  0  0  0  0  0  0  0  0  0
   13.2012   -4.6752    0.8845 N   0  0  0  0  0  0  0  0  0  0  0  0
   11.3869   -4.4658   -0.5804 C   0  0  0  0  0  0  0  0  0  0  0  0
   10.6560   -5.2527    0.2583 N   0  0  0  0  0  0  0  0  0  0  0  0
   14.1317   -4.4898    1.1471 H   0  0  0  0  0  0  0  0  0  0  0  0
   12.6286   -5.2313    1.4609 H   0  0  0  0  0  0  0  0  0  0  0  0
   11.0580   -5.5910    1.0909 H   0  0  0  0  0  0  0  0  0  0  0  0
    9.7260   -5.4830    0.0317 H   0  0  0  0  0  0  0  0  0  0  0  0
  5  4  2  0  0  0
  5  6  1  0  0  0
  4  3  1  0  0  0
  7  6  1  0  0  0
  6  8  2  0  0  0
  3  2  2  0  0  0
  8  2  1  0  0  0
  8  9  1  0  0  0
  2  1  1  0  0  0
  7 10  1  0  0  0
  7 11  1  0  0  0
  9 12  1  0  0  0
  9 13  1  0  0  0
M  END
> <minimizedAffinity>
-4.20454

$$$$
4MRE_2C9_A_202


 13 13  0  0  0  0  0  0  0  0999 V2000
    9.0724   -4.7373   -1.9062 C   0  0  0  0  0  0  0  0  0  0  0  0
   10.3004   -4.5667   -1.2427 C   0  0  0  0  0  0  0  0  0  0  0  0
   11.3737   -3.8947   -1.8474 C   0  0  0  0  0  0  0  0  0  0  0  0
   12.5983   -3.7374   -1.1876 C   0  0  0  0  0  0  0  0  0  0  0  0
   12.7890   -4.2495    0.1158 C   0  0  0  0  0  0  0  0  0  0  0  0
   11.7082   -4.9256    0.7080 C   0  0  0  0  0  0  0  0  0  0  0  0
   11.8063   -5.4605    1.9439 N   0  0  0  0  0  0  0  0  0  0  0  0
   10.4924   -5.0732    0.0452 C   0  0  0  0  0  0  0  0  0  0  0  0
    9.4733   -5.7474    0.6484 N   0  0  0  0  0  0  0  0  0  0  0  0
   12.6472   -5.3803    2.4497 H   0  0  0  0  0  0  0  0  0  0  0  0
   11.0370   -5.9306    2.3393 H   0  0  0  0  0  0  0  0  0  0  0  0
    9.5924   -6.1106    1.5557 H   0  0  0  0  0  0  0  0  0  0  0  0
    8.6180   -5.8713    0.1770 H   0  0  0  0  0  0  0  0  0  0  0  0
  5  4  2  0  0  0
  5  6  1  0  0  0
  4  3  1  0  0  0
  7  6  1  0  0  0
  6  8  2  0  0  0
  3  2  2  0  0  0
  8  2  1  0  0  0
  8  9  1  0  0  0
  2  1  1  0  0  0
  7 10  1  0  0  0
  7 11  1  0  0  0
  9 12  1  0  0  0
  9 13  1  0  0  0
M  END
> <minimizedAffinity>
-4.14281

$$$$
4MRE_2C9_A_202


 13 13  0  0  0  0  0  0  0  0999 V2000
   10.5541   -3.3929   -2.6414 C   0  0  0  0  0  0  0  0  0  0  0  0
   10.0830   -4.2577   -1.6375 C   0  0  0  0  0  0  0  0  0  0  0  0
    8.7794   -4.7762   -1.6685 C   0  0  0  0  0  0  0  0  0  0  0  0
    8.3107   -5.6275   -0.6608 C   0  0  0  0  0  0  0  0  0  0  0  0
    9.1430   -5.9954    0.4206 C   0  0  0  0  0  0  0  0  0  0  0  0
   10.4444   -5.4646    0.4430 C   0  0  0  0  0  0  0  0  0  0  0  0
   11.3024   -5.7501    1.4458 N   0  0  0  0  0  0  0  0  0  0  0  0
   10.9029   -4.6219   -0.5664 C   0  0  0  0  0  0  0  0  0  0  0  0
   12.1669   -4.1172   -0.5009 N   0  0  0  0  0  0  0  0  0  0  0  0
   11.0212   -6.3416    2.1808 H   0  0  0  0  0  0  0  0  0  0  0  0
   12.2092   -5.3667    1.4419 H   0  0  0  0  0  0  0  0  0  0  0  0
   12.7573   -4.3640    0.2473 H   0  0  0  0  0  0  0  0  0  0  0  0
   12.4898   -3.5059   -1.2018 H   0  0  0  0  0  0  0  0  0  0  0  0
  5  4  2  0  0  0
  5  6  1  0  0  0
  4  3  1  0  0  0
  7  6  1  0  0  0
  6  8  2  0  0  0
  3  2  2  0  0  0
  8  2  1  0  0  0
  8  9  1  0  0  0
  2  1  1  0  0  0
  7 10  1  0  0  0
  7 11  1  0  0  0
  9 12  1  0  0  0
  9 13  1  0  0  0
M  END
> <minimizedAffinity>
-4.13772

$$$$
4MRE_2C9_A_202


 13 13  0  0  0  0  0  0  0  0999 V2000
    8.8135   -4.9768   -2.1688 C   0  0  0  0  0  0  0  0  0  0  0  0
    8.3093   -6.0948   -1.4806 C   0  0  0  0  0  0  0  0  0  0  0  0
    7.9423   -7.2682   -2.1570 C   0  0  0  0  0  0  0  0  0  0  0  0
    7.4298   -8.3746   -1.4692 C   0  0  0  0  0  0  0  0  0  0  0  0
    7.2708   -8.3435   -0.0651 C   0  0  0  0  0  0  0  0  0  0  0  0
    7.6365   -7.1603    0.5998 C   0  0  0  0  0  0  0  0  0  0  0  0
    7.5039   -7.0366    1.9378 N   0  0  0  0  0  0  0  0  0  0  0  0
    8.1494   -6.0665   -0.0929 C   0  0  0  0  0  0  0  0  0  0  0  0
    8.4794   -4.9325    0.5869 N   0  0  0  0  0  0  0  0  0  0  0  0
    7.1455   -7.7845    2.4682 H   0  0  0  0  0  0  0  0  0  0  0  0
    7.7656   -6.1984    2.3830 H   0  0  0  0  0  0  0  0  0  0  0  0
    8.3727   -4.8963    1.5649 H   0  0  0  0  0  0  0  0  0  0  0  0
    8.8246   -4.1495    0.1000 H   0  0  0  0  0  0  0  0  0  0  0  0
  5  4  2  0  0  0
  5  6  1  0  0  0
  4  3  1  0  0  0
  7  6  1  0  0  0
  6  8  2  0  0  0
  3  2  2  0  0  0
  8  2  1  0  0  0
  8  9  1  0  0  0
  2  1  1  0  0  0
  7 10  1  0  0  0
  7 11  1  0  0  0
  9 12  1  0  0  0
  9 13  1  0  0  0
M  END
> <minimizedAffinity>
-4.03548

$$$$
