4N6Z_2HW_A_401


 28 30  0  0  0  0  0  0  0  0999 V2000
  -17.7951   35.4406   -0.6855 C   0  0  0  0  0  0  0  0  0  0  0  0
  -17.4397   34.9455    0.5688 C   0  0  0  0  0  0  0  0  0  0  0  0
  -16.5391   33.9792    0.7636 N   0  0  0  0  0  0  0  0  0  0  0  0
  -15.9484   33.4697   -0.3163 C   0  0  0  0  0  0  0  0  0  0  0  0
  -16.2155   33.8761   -1.6062 C   0  0  0  0  0  0  0  0  0  0  0  0
  -17.1602   34.8814   -1.8030 C   0  0  0  0  0  0  0  0  0  0  0  0
  -17.4816   35.3315   -3.1037 N   0  0  0  0  0  0  0  0  0  0  0  0
  -18.5707   34.6261   -3.7899 C   0  0  0  0  0  0  0  0  0  0  0  0
  -19.1092   35.4455   -4.9377 C   0  0  0  0  0  0  0  0  0  0  0  0
  -17.9803   35.8872   -5.8663 C   0  0  0  0  0  0  0  0  0  0  0  0
  -16.3857   35.7583   -3.9754 C   0  0  0  0  0  0  0  0  0  0  0  0
  -16.9222   36.6464   -5.0826 C   0  0  0  0  0  0  0  0  0  0  0  0
  -15.7845   37.0372   -5.9228 N   0  0  0  0  0  0  0  0  0  0  0  0
  -15.3340   36.2014   -6.2953 H   0  0  0  0  0  0  0  0  0  0  0  0
  -15.1139   37.5642   -5.3633 H   0  0  0  0  0  0  0  0  0  0  0  0
  -19.6304   36.8316    1.1911 O   0  0  0  0  0  0  0  0  0  0  0  0
  -19.5329   37.1202    0.0010 C   0  0  0  0  0  0  0  0  0  0  0  0
  -18.6872   36.5247   -0.8753 N   0  0  0  0  0  0  0  0  0  0  0  0
  -18.6939   36.9042   -1.7837 H   0  0  0  0  0  0  0  0  0  0  0  0
  -20.3508   38.2246   -0.6050 C   0  0  0  0  0  0  0  0  0  0  0  0
  -21.1087   39.1702    0.1526 C   0  0  0  0  0  0  0  0  0  0  0  0
  -21.1054   39.1954    1.4931 N   0  0  0  0  0  0  0  0  0  0  0  0
  -21.8382   40.1164   -0.4846 N   0  0  0  0  0  0  0  0  0  0  0  0
  -21.7994   40.1473   -1.8233 C   0  0  0  0  0  0  0  0  0  0  0  0
  -21.0484   39.2491   -2.5489 C   0  0  0  0  0  0  0  0  0  0  0  0
  -20.3340   38.2827   -1.9533 N   0  0  0  0  0  0  0  0  0  0  0  0
  -20.5883   38.5259    1.9968 H   0  0  0  0  0  0  0  0  0  0  0  0
  -21.6200   39.8834    1.9738 H   0  0  0  0  0  0  0  0  0  0  0  0
 13 12  1  0  0  0
 10 12  1  0  0  0
 10  9  1  0  0  0
 12 11  1  0  0  0
  9  8  1  0  0  0
 11  7  1  0  0  0
  8  7  1  0  0  0
  7  6  1  0  0  0
  5  6  2  0  0  0
  5  4  1  0  0  0
  6  1  1  0  0  0
 25 26  2  0  0  0
 25 24  1  0  0  0
 26 20  1  0  0  0
  4  3  2  0  0  0
  1 18  1  0  0  0
  1  2  2  0  0  0
 24 23  2  0  0  0
 18 17  1  0  0  0
 20 17  1  0  0  0
 20 21  2  0  0  0
  3  2  1  0  0  0
 17 16  2  0  0  0
 23 21  1  0  0  0
 21 22  1  0  0  0
 22 27  1  0  0  0
 22 28  1  0  0  0
 18 19  1  0  0  0
 13 14  1  0  0  0
 13 15  1  0  0  0
M  END
> <minimizedAffinity>
-9.00143

$$$$
4N6Z_2HW_A_401


 28 30  0  0  0  0  0  0  0  0999 V2000
  -19.1331   37.2712   -2.6623 C   0  0  0  0  0  0  0  0  0  0  0  0
  -20.1214   38.2276   -2.8930 C   0  0  0  0  0  0  0  0  0  0  0  0
  -20.8799   38.7652   -1.9346 N   0  0  0  0  0  0  0  0  0  0  0  0
  -20.6642   38.3564   -0.6852 C   0  0  0  0  0  0  0  0  0  0  0  0
  -19.7175   37.4185   -0.3327 C   0  0  0  0  0  0  0  0  0  0  0  0
  -18.9327   36.8574   -1.3381 C   0  0  0  0  0  0  0  0  0  0  0  0
  -17.9531   35.8841   -1.0371 N   0  0  0  0  0  0  0  0  0  0  0  0
  -17.8280   34.7674   -1.9816 C   0  0  0  0  0  0  0  0  0  0  0  0
  -16.5048   34.0605   -1.8135 C   0  0  0  0  0  0  0  0  0  0  0  0
  -16.2831   33.6621   -0.3562 C   0  0  0  0  0  0  0  0  0  0  0  0
  -17.7503   35.5221    0.3668 C   0  0  0  0  0  0  0  0  0  0  0  0
  -16.3855   34.8829    0.5435 C   0  0  0  0  0  0  0  0  0  0  0  0
  -16.2417   34.5388    1.9626 N   0  0  0  0  0  0  0  0  0  0  0  0
  -16.9926   33.9053    2.2367 H   0  0  0  0  0  0  0  0  0  0  0  0
  -16.2912   35.3883    2.5251 H   0  0  0  0  0  0  0  0  0  0  0  0
  -17.0889   38.6120   -4.3500 O   0  0  0  0  0  0  0  0  0  0  0  0
  -17.3691   37.4197   -4.4453 C   0  0  0  0  0  0  0  0  0  0  0  0
  -18.2758   36.7715   -3.6736 N   0  0  0  0  0  0  0  0  0  0  0  0
  -18.3501   35.8043   -3.8418 H   0  0  0  0  0  0  0  0  0  0  0  0
  -16.6808   36.5322   -5.4425 C   0  0  0  0  0  0  0  0  0  0  0  0
  -15.4405   35.8646   -5.2006 C   0  0  0  0  0  0  0  0  0  0  0  0
  -14.8043   35.9205   -4.0217 N   0  0  0  0  0  0  0  0  0  0  0  0
  -14.8822   35.1045   -6.1722 N   0  0  0  0  0  0  0  0  0  0  0  0
  -15.5387   34.9836   -7.3337 C   0  0  0  0  0  0  0  0  0  0  0  0
  -16.7458   35.6093   -7.5541 C   0  0  0  0  0  0  0  0  0  0  0  0
  -17.3163   36.3903   -6.6247 N   0  0  0  0  0  0  0  0  0  0  0  0
  -15.1751   36.4613   -3.2874 H   0  0  0  0  0  0  0  0  0  0  0  0
  -13.9662   35.4209   -3.8905 H   0  0  0  0  0  0  0  0  0  0  0  0
 13 12  1  0  0  0
 10 12  1  0  0  0
 10  9  1  0  0  0
 12 11  1  0  0  0
  9  8  1  0  0  0
 11  7  1  0  0  0
  8  7  1  0  0  0
  7  6  1  0  0  0
  5  6  2  0  0  0
  5  4  1  0  0  0
  6  1  1  0  0  0
 25 26  2  0  0  0
 25 24  1  0  0  0
 26 20  1  0  0  0
  4  3  2  0  0  0
  1 18  1  0  0  0
  1  2  2  0  0  0
 24 23  2  0  0  0
 18 17  1  0  0  0
 20 17  1  0  0  0
 20 21  2  0  0  0
  3  2  1  0  0  0
 17 16  2  0  0  0
 23 21  1  0  0  0
 21 22  1  0  0  0
 22 27  1  0  0  0
 22 28  1  0  0  0
 18 19  1  0  0  0
 13 14  1  0  0  0
 13 15  1  0  0  0
M  END
> <minimizedAffinity>
-8.47291

$$$$
4N6Z_2HW_A_401


 28 30  0  0  0  0  0  0  0  0999 V2000
  -19.2973   37.3571   -2.1420 C   0  0  0  0  0  0  0  0  0  0  0  0
  -20.3055   38.3101   -2.2836 C   0  0  0  0  0  0  0  0  0  0  0  0
  -20.9884   38.8335   -1.2625 N   0  0  0  0  0  0  0  0  0  0  0  0
  -20.6724   38.4132   -0.0385 C   0  0  0  0  0  0  0  0  0  0  0  0
  -19.6961   37.4772    0.2279 C   0  0  0  0  0  0  0  0  0  0  0  0
  -18.9907   36.9309   -0.8424 C   0  0  0  0  0  0  0  0  0  0  0  0
  -17.9855   35.9602   -0.6302 N   0  0  0  0  0  0  0  0  0  0  0  0
  -17.8549   34.9183   -1.6558 C   0  0  0  0  0  0  0  0  0  0  0  0
  -16.5143   34.2306   -1.5626 C   0  0  0  0  0  0  0  0  0  0  0  0
  -16.2571   33.7322   -0.1424 C   0  0  0  0  0  0  0  0  0  0  0  0
  -17.7489   35.5016    0.7398 C   0  0  0  0  0  0  0  0  0  0  0  0
  -16.3681   34.8816    0.8458 C   0  0  0  0  0  0  0  0  0  0  0  0
  -16.1906   34.4385    2.2333 N   0  0  0  0  0  0  0  0  0  0  0  0
  -16.9229   33.7702    2.4731 H   0  0  0  0  0  0  0  0  0  0  0  0
  -16.2473   35.2434    2.8572 H   0  0  0  0  0  0  0  0  0  0  0  0
  -18.2192   38.7138   -4.5548 O   0  0  0  0  0  0  0  0  0  0  0  0
  -18.0657   37.5167   -4.3261 C   0  0  0  0  0  0  0  0  0  0  0  0
  -18.5204   36.8727   -3.2232 N   0  0  0  0  0  0  0  0  0  0  0  0
  -18.2726   35.9217   -3.1646 H   0  0  0  0  0  0  0  0  0  0  0  0
  -17.3017   36.6323   -5.2696 C   0  0  0  0  0  0  0  0  0  0  0  0
  -17.7152   36.3376   -6.6054 C   0  0  0  0  0  0  0  0  0  0  0  0
  -18.8044   36.8837   -7.1649 N   0  0  0  0  0  0  0  0  0  0  0  0
  -16.9727   35.5062   -7.3741 N   0  0  0  0  0  0  0  0  0  0  0  0
  -15.8451   35.0044   -6.8531 C   0  0  0  0  0  0  0  0  0  0  0  0
  -15.4377   35.3102   -5.5734 C   0  0  0  0  0  0  0  0  0  0  0  0
  -16.1603   36.1092   -4.7744 N   0  0  0  0  0  0  0  0  0  0  0  0
  -19.3729   37.4941   -6.6420 H   0  0  0  0  0  0  0  0  0  0  0  0
  -19.0357   36.6744   -8.0987 H   0  0  0  0  0  0  0  0  0  0  0  0
 13 12  1  0  0  0
 10 12  1  0  0  0
 10  9  1  0  0  0
 12 11  1  0  0  0
  9  8  1  0  0  0
 11  7  1  0  0  0
  8  7  1  0  0  0
  7  6  1  0  0  0
  5  6  2  0  0  0
  5  4  1  0  0  0
  6  1  1  0  0  0
 25 26  2  0  0  0
 25 24  1  0  0  0
 26 20  1  0  0  0
  4  3  2  0  0  0
  1 18  1  0  0  0
  1  2  2  0  0  0
 24 23  2  0  0  0
 18 17  1  0  0  0
 20 17  1  0  0  0
 20 21  2  0  0  0
  3  2  1  0  0  0
 17 16  2  0  0  0
 23 21  1  0  0  0
 21 22  1  0  0  0
 22 27  1  0  0  0
 22 28  1  0  0  0
 18 19  1  0  0  0
 13 14  1  0  0  0
 13 15  1  0  0  0
M  END
> <minimizedAffinity>
-8.14650

$$$$
4N6Z_2HW_A_401


 28 30  0  0  0  0  0  0  0  0999 V2000
  -16.8950   34.9768   -1.2206 C   0  0  0  0  0  0  0  0  0  0  0  0
  -16.2358   34.1533   -0.3084 C   0  0  0  0  0  0  0  0  0  0  0  0
  -16.6121   33.9939    0.9627 N   0  0  0  0  0  0  0  0  0  0  0  0
  -17.6884   34.6658    1.3687 C   0  0  0  0  0  0  0  0  0  0  0  0
  -18.4221   35.5085    0.5614 C   0  0  0  0  0  0  0  0  0  0  0  0
  -18.0212   35.6746   -0.7627 C   0  0  0  0  0  0  0  0  0  0  0  0
  -18.7292   36.5333   -1.6339 N   0  0  0  0  0  0  0  0  0  0  0  0
  -19.7008   37.4407   -1.0116 C   0  0  0  0  0  0  0  0  0  0  0  0
  -20.0536   38.5772   -1.9405 C   0  0  0  0  0  0  0  0  0  0  0  0
  -20.4910   38.0481   -3.3045 C   0  0  0  0  0  0  0  0  0  0  0  0
  -19.1324   36.0095   -2.9401 C   0  0  0  0  0  0  0  0  0  0  0  0
  -19.4099   37.1568   -3.8935 C   0  0  0  0  0  0  0  0  0  0  0  0
  -19.8121   36.5733   -5.1783 N   0  0  0  0  0  0  0  0  0  0  0  0
  -20.6367   35.9883   -5.0427 H   0  0  0  0  0  0  0  0  0  0  0  0
  -19.0494   36.0055   -5.5475 H   0  0  0  0  0  0  0  0  0  0  0  0
  -14.4652   34.1016   -2.6885 O   0  0  0  0  0  0  0  0  0  0  0  0
  -15.4059   34.6835   -3.2229 C   0  0  0  0  0  0  0  0  0  0  0  0
  -16.5395   35.0718   -2.5888 N   0  0  0  0  0  0  0  0  0  0  0  0
  -17.2206   35.4833   -3.1683 H   0  0  0  0  0  0  0  0  0  0  0  0
  -15.3973   34.9992   -4.6913 C   0  0  0  0  0  0  0  0  0  0  0  0
  -14.2190   35.0246   -5.4996 C   0  0  0  0  0  0  0  0  0  0  0  0
  -13.0071   34.7011   -5.0259 N   0  0  0  0  0  0  0  0  0  0  0  0
  -14.3072   35.3467   -6.8118 N   0  0  0  0  0  0  0  0  0  0  0  0
  -15.5202   35.6074   -7.3170 C   0  0  0  0  0  0  0  0  0  0  0  0
  -16.6564   35.5583   -6.5398 C   0  0  0  0  0  0  0  0  0  0  0  0
  -16.6047   35.2681   -5.2313 N   0  0  0  0  0  0  0  0  0  0  0  0
  -12.8974   34.4603   -4.0776 H   0  0  0  0  0  0  0  0  0  0  0  0
  -12.2269   34.7044   -5.6263 H   0  0  0  0  0  0  0  0  0  0  0  0
 13 12  1  0  0  0
 10 12  1  0  0  0
 10  9  1  0  0  0
 12 11  1  0  0  0
  9  8  1  0  0  0
 11  7  1  0  0  0
  8  7  1  0  0  0
  7  6  1  0  0  0
  5  6  2  0  0  0
  5  4  1  0  0  0
  6  1  1  0  0  0
 25 26  2  0  0  0
 25 24  1  0  0  0
 26 20  1  0  0  0
  4  3  2  0  0  0
  1 18  1  0  0  0
  1  2  2  0  0  0
 24 23  2  0  0  0
 18 17  1  0  0  0
 20 17  1  0  0  0
 20 21  2  0  0  0
  3  2  1  0  0  0
 17 16  2  0  0  0
 23 21  1  0  0  0
 21 22  1  0  0  0
 22 27  1  0  0  0
 22 28  1  0  0  0
 18 19  1  0  0  0
 13 14  1  0  0  0
 13 15  1  0  0  0
M  END
> <minimizedAffinity>
-7.97039

$$$$
4N6Z_2HW_A_401


 28 30  0  0  0  0  0  0  0  0999 V2000
  -19.2971   38.4642   -3.8004 C   0  0  0  0  0  0  0  0  0  0  0  0
  -19.9142   39.3032   -4.7277 C   0  0  0  0  0  0  0  0  0  0  0  0
  -20.9539   40.0922   -4.4464 N   0  0  0  0  0  0  0  0  0  0  0  0
  -21.4163   40.0692   -3.1972 C   0  0  0  0  0  0  0  0  0  0  0  0
  -20.8907   39.2831   -2.1942 C   0  0  0  0  0  0  0  0  0  0  0  0
  -19.8090   38.4581   -2.4955 C   0  0  0  0  0  0  0  0  0  0  0  0
  -19.2353   37.6234   -1.5097 N   0  0  0  0  0  0  0  0  0  0  0  0
  -19.0853   36.2057   -1.8592 C   0  0  0  0  0  0  0  0  0  0  0  0
  -18.0908   35.5252   -0.9499 C   0  0  0  0  0  0  0  0  0  0  0  0
  -18.4437   35.7640    0.5165 C   0  0  0  0  0  0  0  0  0  0  0  0
  -19.5800   37.8740   -0.1092 C   0  0  0  0  0  0  0  0  0  0  0  0
  -18.5340   37.2547    0.7990 C   0  0  0  0  0  0  0  0  0  0  0  0
  -18.9335   37.5330    2.1832 N   0  0  0  0  0  0  0  0  0  0  0  0
  -19.8600   37.1425    2.3547 H   0  0  0  0  0  0  0  0  0  0  0  0
  -18.9562   38.5415    2.3343 H   0  0  0  0  0  0  0  0  0  0  0  0
  -18.4140   37.0845   -6.2785 O   0  0  0  0  0  0  0  0  0  0  0  0
  -17.7809   37.0568   -5.2261 C   0  0  0  0  0  0  0  0  0  0  0  0
  -18.1411   37.6967   -4.0866 N   0  0  0  0  0  0  0  0  0  0  0  0
  -17.5007   37.6156   -3.3432 H   0  0  0  0  0  0  0  0  0  0  0  0
  -16.4831   36.3089   -5.1140 C   0  0  0  0  0  0  0  0  0  0  0  0
  -15.5273   36.1978   -6.1706 C   0  0  0  0  0  0  0  0  0  0  0  0
  -15.6767   36.8142   -7.3519 N   0  0  0  0  0  0  0  0  0  0  0  0
  -14.3952   35.4787   -5.9841 N   0  0  0  0  0  0  0  0  0  0  0  0
  -14.1985   34.9115   -4.7865 C   0  0  0  0  0  0  0  0  0  0  0  0
  -15.1111   35.0412   -3.7630 C   0  0  0  0  0  0  0  0  0  0  0  0
  -16.2549   35.7241   -3.9192 N   0  0  0  0  0  0  0  0  0  0  0  0
  -16.4847   37.3478   -7.5300 H   0  0  0  0  0  0  0  0  0  0  0  0
  -14.9784   36.7333   -8.0412 H   0  0  0  0  0  0  0  0  0  0  0  0
 13 12  1  0  0  0
 10 12  1  0  0  0
 10  9  1  0  0  0
 12 11  1  0  0  0
  9  8  1  0  0  0
 11  7  1  0  0  0
  8  7  1  0  0  0
  7  6  1  0  0  0
  5  6  2  0  0  0
  5  4  1  0  0  0
  6  1  1  0  0  0
 25 26  2  0  0  0
 25 24  1  0  0  0
 26 20  1  0  0  0
  4  3  2  0  0  0
  1 18  1  0  0  0
  1  2  2  0  0  0
 24 23  2  0  0  0
 18 17  1  0  0  0
 20 17  1  0  0  0
 20 21  2  0  0  0
  3  2  1  0  0  0
 17 16  2  0  0  0
 23 21  1  0  0  0
 21 22  1  0  0  0
 22 27  1  0  0  0
 22 28  1  0  0  0
 18 19  1  0  0  0
 13 14  1  0  0  0
 13 15  1  0  0  0
M  END
> <minimizedAffinity>
-7.85171

$$$$
4N6Z_2HW_A_401


 28 30  0  0  0  0  0  0  0  0999 V2000
  -19.4711   36.8463   -4.9479 C   0  0  0  0  0  0  0  0  0  0  0  0
  -20.5275   37.7410   -5.1151 C   0  0  0  0  0  0  0  0  0  0  0  0
  -20.9000   38.6380   -4.1989 N   0  0  0  0  0  0  0  0  0  0  0  0
  -20.2069   38.6715   -3.0616 C   0  0  0  0  0  0  0  0  0  0  0  0
  -19.1442   37.8396   -2.7807 C   0  0  0  0  0  0  0  0  0  0  0  0
  -18.7638   36.9023   -3.7390 C   0  0  0  0  0  0  0  0  0  0  0  0
  -17.6880   36.0168   -3.5021 N   0  0  0  0  0  0  0  0  0  0  0  0
  -17.6566   35.3616   -2.1889 C   0  0  0  0  0  0  0  0  0  0  0  0
  -16.7600   34.1473   -2.2100 C   0  0  0  0  0  0  0  0  0  0  0  0
  -15.3781   34.5019   -2.7544 C   0  0  0  0  0  0  0  0  0  0  0  0
  -16.3731   36.3710   -4.0394 C   0  0  0  0  0  0  0  0  0  0  0  0
  -15.5021   35.1320   -4.1320 C   0  0  0  0  0  0  0  0  0  0  0  0
  -14.2019   35.5480   -4.6699 N   0  0  0  0  0  0  0  0  0  0  0  0
  -13.7905   36.2528   -4.0580 H   0  0  0  0  0  0  0  0  0  0  0  0
  -14.3297   35.9404   -5.6027 H   0  0  0  0  0  0  0  0  0  0  0  0
  -18.2795   37.3459   -7.6228 O   0  0  0  0  0  0  0  0  0  0  0  0
  -18.5123   36.2221   -7.1847 C   0  0  0  0  0  0  0  0  0  0  0  0
  -19.0294   35.9583   -5.9597 N   0  0  0  0  0  0  0  0  0  0  0  0
  -19.1106   35.0023   -5.7390 H   0  0  0  0  0  0  0  0  0  0  0  0
  -18.2015   34.9906   -7.9867 C   0  0  0  0  0  0  0  0  0  0  0  0
  -18.8833   34.6219   -9.1874 C   0  0  0  0  0  0  0  0  0  0  0  0
  -19.8312   35.3869   -9.7477 N   0  0  0  0  0  0  0  0  0  0  0  0
  -18.5503   33.4766   -9.8284 N   0  0  0  0  0  0  0  0  0  0  0  0
  -17.5588   32.7339   -9.3183 C   0  0  0  0  0  0  0  0  0  0  0  0
  -16.8880   33.1054   -8.1741 C   0  0  0  0  0  0  0  0  0  0  0  0
  -17.2074   34.2192   -7.4986 N   0  0  0  0  0  0  0  0  0  0  0  0
  -20.1041   36.2283   -9.3153 H   0  0  0  0  0  0  0  0  0  0  0  0
  -20.2543   35.1074  -10.5915 H   0  0  0  0  0  0  0  0  0  0  0  0
 13 12  1  0  0  0
 10 12  1  0  0  0
 10  9  1  0  0  0
 12 11  1  0  0  0
  9  8  1  0  0  0
 11  7  1  0  0  0
  8  7  1  0  0  0
  7  6  1  0  0  0
  5  6  2  0  0  0
  5  4  1  0  0  0
  6  1  1  0  0  0
 25 26  2  0  0  0
 25 24  1  0  0  0
 26 20  1  0  0  0
  4  3  2  0  0  0
  1 18  1  0  0  0
  1  2  2  0  0  0
 24 23  2  0  0  0
 18 17  1  0  0  0
 20 17  1  0  0  0
 20 21  2  0  0  0
  3  2  1  0  0  0
 17 16  2  0  0  0
 23 21  1  0  0  0
 21 22  1  0  0  0
 22 27  1  0  0  0
 22 28  1  0  0  0
 18 19  1  0  0  0
 13 14  1  0  0  0
 13 15  1  0  0  0
M  END
> <minimizedAffinity>
-7.80352

$$$$
4N6Z_2HW_A_401


 28 30  0  0  0  0  0  0  0  0999 V2000
  -18.2172   35.9238   -0.9024 C   0  0  0  0  0  0  0  0  0  0  0  0
  -18.5002   35.7597    0.4532 C   0  0  0  0  0  0  0  0  0  0  0  0
  -17.8947   34.8677    1.2409 N   0  0  0  0  0  0  0  0  0  0  0  0
  -16.9613   34.0972    0.6842 C   0  0  0  0  0  0  0  0  0  0  0  0
  -16.5946   34.1659   -0.6429 C   0  0  0  0  0  0  0  0  0  0  0  0
  -17.2339   35.0955   -1.4607 C   0  0  0  0  0  0  0  0  0  0  0  0
  -16.9060   35.2042   -2.8312 N   0  0  0  0  0  0  0  0  0  0  0  0
  -17.9006   34.6976   -3.7844 C   0  0  0  0  0  0  0  0  0  0  0  0
  -17.6585   35.2526   -5.1672 C   0  0  0  0  0  0  0  0  0  0  0  0
  -16.2137   35.0172   -5.6017 C   0  0  0  0  0  0  0  0  0  0  0  0
  -15.5137   34.9829   -3.2261 C   0  0  0  0  0  0  0  0  0  0  0  0
  -15.2553   35.6116   -4.5826 C   0  0  0  0  0  0  0  0  0  0  0  0
  -13.8521   35.3545   -4.9261 N   0  0  0  0  0  0  0  0  0  0  0  0
  -13.6840   34.3486   -4.9390 H   0  0  0  0  0  0  0  0  0  0  0  0
  -13.2465   35.7916   -4.2314 H   0  0  0  0  0  0  0  0  0  0  0  0
  -20.7988   37.3753   -0.6722 O   0  0  0  0  0  0  0  0  0  0  0  0
  -20.0002   37.5558   -1.5879 C   0  0  0  0  0  0  0  0  0  0  0  0
  -18.8031   36.9311   -1.7082 N   0  0  0  0  0  0  0  0  0  0  0  0
  -18.2565   37.2223   -2.4736 H   0  0  0  0  0  0  0  0  0  0  0  0
  -20.2757   38.5484   -2.6811 C   0  0  0  0  0  0  0  0  0  0  0  0
  -21.1730   39.6534   -2.5540 C   0  0  0  0  0  0  0  0  0  0  0  0
  -21.8090   39.9437   -1.4099 N   0  0  0  0  0  0  0  0  0  0  0  0
  -21.3774   40.4815   -3.6056 N   0  0  0  0  0  0  0  0  0  0  0  0
  -20.6984   40.2449   -4.7359 C   0  0  0  0  0  0  0  0  0  0  0  0
  -19.8162   39.1929   -4.8463 C   0  0  0  0  0  0  0  0  0  0  0  0
  -19.6076   38.3373   -3.8347 N   0  0  0  0  0  0  0  0  0  0  0  0
  -21.6889   39.3682   -0.6202 H   0  0  0  0  0  0  0  0  0  0  0  0
  -22.3961   40.7324   -1.3595 H   0  0  0  0  0  0  0  0  0  0  0  0
 13 12  1  0  0  0
 10 12  1  0  0  0
 10  9  1  0  0  0
 12 11  1  0  0  0
  9  8  1  0  0  0
 11  7  1  0  0  0
  8  7  1  0  0  0
  7  6  1  0  0  0
  5  6  2  0  0  0
  5  4  1  0  0  0
  6  1  1  0  0  0
 25 26  2  0  0  0
 25 24  1  0  0  0
 26 20  1  0  0  0
  4  3  2  0  0  0
  1 18  1  0  0  0
  1  2  2  0  0  0
 24 23  2  0  0  0
 18 17  1  0  0  0
 20 17  1  0  0  0
 20 21  2  0  0  0
  3  2  1  0  0  0
 17 16  2  0  0  0
 23 21  1  0  0  0
 21 22  1  0  0  0
 22 27  1  0  0  0
 22 28  1  0  0  0
 18 19  1  0  0  0
 13 14  1  0  0  0
 13 15  1  0  0  0
M  END
> <minimizedAffinity>
-7.78659

$$$$
4N6Z_2HW_A_401


 28 30  0  0  0  0  0  0  0  0999 V2000
  -20.0923   38.1932   -0.4938 C   0  0  0  0  0  0  0  0  0  0  0  0
  -20.6066   38.6800    0.7075 C   0  0  0  0  0  0  0  0  0  0  0  0
  -21.5277   39.6430    0.7910 N   0  0  0  0  0  0  0  0  0  0  0  0
  -21.9771   40.1575   -0.3526 C   0  0  0  0  0  0  0  0  0  0  0  0
  -21.5462   39.7593   -1.6001 C   0  0  0  0  0  0  0  0  0  0  0  0
  -20.5810   38.7575   -1.6802 C   0  0  0  0  0  0  0  0  0  0  0  0
  -20.0946   38.3158   -2.9316 N   0  0  0  0  0  0  0  0  0  0  0  0
  -18.6414   38.3788   -3.1282 C   0  0  0  0  0  0  0  0  0  0  0  0
  -18.2107   37.4979   -4.2760 C   0  0  0  0  0  0  0  0  0  0  0  0
  -19.0165   37.8127   -5.5343 C   0  0  0  0  0  0  0  0  0  0  0  0
  -20.8861   38.6206   -4.1249 C   0  0  0  0  0  0  0  0  0  0  0  0
  -20.5041   37.6797   -5.2523 C   0  0  0  0  0  0  0  0  0  0  0  0
  -21.3226   38.0345   -6.4173 N   0  0  0  0  0  0  0  0  0  0  0  0
  -21.1545   39.0092   -6.6668 H   0  0  0  0  0  0  0  0  0  0  0  0
  -22.3090   37.9066   -6.1914 H   0  0  0  0  0  0  0  0  0  0  0  0
  -18.4396   36.8538    1.5796 O   0  0  0  0  0  0  0  0  0  0  0  0
  -18.4197   36.5408    0.3919 C   0  0  0  0  0  0  0  0  0  0  0  0
  -19.1799   37.1123   -0.5742 N   0  0  0  0  0  0  0  0  0  0  0  0
  -19.0831   36.7149   -1.4697 H   0  0  0  0  0  0  0  0  0  0  0  0
  -17.5407   35.4308   -0.1094 C   0  0  0  0  0  0  0  0  0  0  0  0
  -16.7036   34.6301    0.7276 C   0  0  0  0  0  0  0  0  0  0  0  0
  -16.6767   34.7581    2.0620 N   0  0  0  0  0  0  0  0  0  0  0  0
  -15.9243   33.6675    0.1802 N   0  0  0  0  0  0  0  0  0  0  0  0
  -15.9893   33.4814   -1.1449 C   0  0  0  0  0  0  0  0  0  0  0  0
  -16.8156   34.2392   -1.9449 C   0  0  0  0  0  0  0  0  0  0  0  0
  -17.5821   35.2181   -1.4415 N   0  0  0  0  0  0  0  0  0  0  0  0
  -17.2278   35.4451    2.5018 H   0  0  0  0  0  0  0  0  0  0  0  0
  -16.1059   34.1650    2.6020 H   0  0  0  0  0  0  0  0  0  0  0  0
 13 12  1  0  0  0
 10 12  1  0  0  0
 10  9  1  0  0  0
 12 11  1  0  0  0
  9  8  1  0  0  0
 11  7  1  0  0  0
  8  7  1  0  0  0
  7  6  1  0  0  0
  5  6  2  0  0  0
  5  4  1  0  0  0
  6  1  1  0  0  0
 25 26  2  0  0  0
 25 24  1  0  0  0
 26 20  1  0  0  0
  4  3  2  0  0  0
  1 18  1  0  0  0
  1  2  2  0  0  0
 24 23  2  0  0  0
 18 17  1  0  0  0
 20 17  1  0  0  0
 20 21  2  0  0  0
  3  2  1  0  0  0
 17 16  2  0  0  0
 23 21  1  0  0  0
 21 22  1  0  0  0
 22 27  1  0  0  0
 22 28  1  0  0  0
 18 19  1  0  0  0
 13 14  1  0  0  0
 13 15  1  0  0  0
M  END
> <minimizedAffinity>
-7.71485

$$$$
4N6Z_2HW_A_401


 28 30  0  0  0  0  0  0  0  0999 V2000
  -20.7503   38.7584   -3.7760 C   0  0  0  0  0  0  0  0  0  0  0  0
  -21.6151   39.6769   -3.1818 C   0  0  0  0  0  0  0  0  0  0  0  0
  -21.6709   39.9098   -1.8682 N   0  0  0  0  0  0  0  0  0  0  0  0
  -20.8396   39.2179   -1.0906 C   0  0  0  0  0  0  0  0  0  0  0  0
  -19.9407   38.2842   -1.5602 C   0  0  0  0  0  0  0  0  0  0  0  0
  -19.8910   38.0421   -2.9315 C   0  0  0  0  0  0  0  0  0  0  0  0
  -18.9961   37.0891   -3.4689 N   0  0  0  0  0  0  0  0  0  0  0  0
  -18.8646   35.8264   -2.7322 C   0  0  0  0  0  0  0  0  0  0  0  0
  -18.2563   34.7523   -3.6012 C   0  0  0  0  0  0  0  0  0  0  0  0
  -16.9521   35.2367   -4.2305 C   0  0  0  0  0  0  0  0  0  0  0  0
  -17.7551   37.5746   -4.0750 C   0  0  0  0  0  0  0  0  0  0  0  0
  -17.1894   36.5206   -5.0086 C   0  0  0  0  0  0  0  0  0  0  0  0
  -15.9499   37.0593   -5.5800 N   0  0  0  0  0  0  0  0  0  0  0  0
  -15.2988   37.2849   -4.8280 H   0  0  0  0  0  0  0  0  0  0  0  0
  -16.1598   37.9034   -6.1127 H   0  0  0  0  0  0  0  0  0  0  0  0
  -19.6301   40.5098   -5.8979 O   0  0  0  0  0  0  0  0  0  0  0  0
  -20.1428   39.4165   -6.1234 C   0  0  0  0  0  0  0  0  0  0  0  0
  -20.6383   38.5816   -5.1773 N   0  0  0  0  0  0  0  0  0  0  0  0
  -20.9717   37.7194   -5.5161 H   0  0  0  0  0  0  0  0  0  0  0  0
  -20.2402   38.8719   -7.5198 C   0  0  0  0  0  0  0  0  0  0  0  0
  -21.2077   39.2979   -8.4815 C   0  0  0  0  0  0  0  0  0  0  0  0
  -22.0861   40.2817   -8.2402 N   0  0  0  0  0  0  0  0  0  0  0  0
  -21.2347   38.7287   -9.7098 N   0  0  0  0  0  0  0  0  0  0  0  0
  -20.3204   37.7906   -9.9904 C   0  0  0  0  0  0  0  0  0  0  0  0
  -19.3743   37.4001   -9.0687 C   0  0  0  0  0  0  0  0  0  0  0  0
  -19.3331   37.9232   -7.8343 N   0  0  0  0  0  0  0  0  0  0  0  0
  -22.1011   40.7234   -7.3604 H   0  0  0  0  0  0  0  0  0  0  0  0
  -22.7161   40.5624   -8.9427 H   0  0  0  0  0  0  0  0  0  0  0  0
 13 12  1  0  0  0
 10 12  1  0  0  0
 10  9  1  0  0  0
 12 11  1  0  0  0
  9  8  1  0  0  0
 11  7  1  0  0  0
  8  7  1  0  0  0
  7  6  1  0  0  0
  5  6  2  0  0  0
  5  4  1  0  0  0
  6  1  1  0  0  0
 25 26  2  0  0  0
 25 24  1  0  0  0
 26 20  1  0  0  0
  4  3  2  0  0  0
  1 18  1  0  0  0
  1  2  2  0  0  0
 24 23  2  0  0  0
 18 17  1  0  0  0
 20 17  1  0  0  0
 20 21  2  0  0  0
  3  2  1  0  0  0
 17 16  2  0  0  0
 23 21  1  0  0  0
 21 22  1  0  0  0
 22 27  1  0  0  0
 22 28  1  0  0  0
 18 19  1  0  0  0
 13 14  1  0  0  0
 13 15  1  0  0  0
M  END
> <minimizedAffinity>
-7.67850

$$$$
4N6Z_2HW_A_401


 28 30  0  0  0  0  0  0  0  0999 V2000
  -19.8215   38.1234   -2.9736 C   0  0  0  0  0  0  0  0  0  0  0  0
  -19.7840   37.9276   -1.5934 C   0  0  0  0  0  0  0  0  0  0  0  0
  -20.5211   38.6178   -0.7199 N   0  0  0  0  0  0  0  0  0  0  0  0
  -21.3421   39.5439   -1.2127 C   0  0  0  0  0  0  0  0  0  0  0  0
  -21.4673   39.8284   -2.5557 C   0  0  0  0  0  0  0  0  0  0  0  0
  -20.6914   39.1082   -3.4617 C   0  0  0  0  0  0  0  0  0  0  0  0
  -20.7707   39.3632   -4.8496 N   0  0  0  0  0  0  0  0  0  0  0  0
  -20.4229   40.7207   -5.2865 C   0  0  0  0  0  0  0  0  0  0  0  0
  -20.1162   40.7530   -6.7643 C   0  0  0  0  0  0  0  0  0  0  0  0
  -21.2490   40.1187   -7.5681 C   0  0  0  0  0  0  0  0  0  0  0  0
  -21.8593   38.7391   -5.6037 C   0  0  0  0  0  0  0  0  0  0  0  0
  -21.5108   38.7033   -7.0801 C   0  0  0  0  0  0  0  0  0  0  0  0
  -22.6354   38.0744   -7.7820 N   0  0  0  0  0  0  0  0  0  0  0  0
  -23.4864   38.6094   -7.6087 H   0  0  0  0  0  0  0  0  0  0  0  0
  -22.7582   37.1207   -7.4416 H   0  0  0  0  0  0  0  0  0  0  0  0
  -17.1983   38.5402   -4.3038 O   0  0  0  0  0  0  0  0  0  0  0  0
  -17.9122   37.5614   -4.5069 C   0  0  0  0  0  0  0  0  0  0  0  0
  -19.1002   37.3273   -3.8973 N   0  0  0  0  0  0  0  0  0  0  0  0
  -19.5277   36.4723   -4.1328 H   0  0  0  0  0  0  0  0  0  0  0  0
  -17.5000   36.4778   -5.4619 C   0  0  0  0  0  0  0  0  0  0  0  0
  -16.2213   35.8396   -5.4477 C   0  0  0  0  0  0  0  0  0  0  0  0
  -15.2856   36.1102   -4.5263 N   0  0  0  0  0  0  0  0  0  0  0  0
  -15.9308   34.8893   -6.3675 N   0  0  0  0  0  0  0  0  0  0  0  0
  -16.8792   34.5590   -7.2542 C   0  0  0  0  0  0  0  0  0  0  0  0
  -18.1187   35.1596   -7.2492 C   0  0  0  0  0  0  0  0  0  0  0  0
  -18.4332   36.1224   -6.3698 N   0  0  0  0  0  0  0  0  0  0  0  0
  -15.4550   36.7941   -3.8387 H   0  0  0  0  0  0  0  0  0  0  0  0
  -14.4290   35.6250   -4.5375 H   0  0  0  0  0  0  0  0  0  0  0  0
 13 12  1  0  0  0
 10 12  1  0  0  0
 10  9  1  0  0  0
 12 11  1  0  0  0
  9  8  1  0  0  0
 11  7  1  0  0  0
  8  7  1  0  0  0
  7  6  1  0  0  0
  5  6  2  0  0  0
  5  4  1  0  0  0
  6  1  1  0  0  0
 25 26  2  0  0  0
 25 24  1  0  0  0
 26 20  1  0  0  0
  4  3  2  0  0  0
  1 18  1  0  0  0
  1  2  2  0  0  0
 24 23  2  0  0  0
 18 17  1  0  0  0
 20 17  1  0  0  0
 20 21  2  0  0  0
  3  2  1  0  0  0
 17 16  2  0  0  0
 23 21  1  0  0  0
 21 22  1  0  0  0
 22 27  1  0  0  0
 22 28  1  0  0  0
 18 19  1  0  0  0
 13 14  1  0  0  0
 13 15  1  0  0  0
M  END
> <minimizedAffinity>
-7.52545

$$$$
