5MOD_86L_A_404


 15 15  0  0  0  0  0  0  0  0999 V2000
    1.6829  141.8809  351.6876 Cl  0  0  0  0  0  0  0  0  0  0  0  0
    3.1808  141.4520  352.4450 C   0  0  0  0  0  0  0  0  0  0  0  0
    3.3414  140.1804  352.9508 C   0  0  0  0  0  0  0  0  0  0  0  0
    4.5369  139.8069  353.5474 C   0  0  0  0  0  0  0  0  0  0  0  0
    5.5623  140.7380  353.6100 C   0  0  0  0  0  0  0  0  0  0  0  0
    5.4044  142.0186  353.1045 C   0  0  0  0  0  0  0  0  0  0  0  0
    4.2028  142.3886  352.5251 C   0  0  0  0  0  0  0  0  0  0  0  0
    4.7088  138.4339  354.1308 C   0  0  0  0  0  0  0  0  0  0  0  0
    4.1555  138.3997  355.4808 N   0  0  0  0  0  0  0  0  0  0  0  0
    4.6442  139.0773  356.0658 H   0  0  0  0  0  0  0  0  0  0  0  0
    4.2725  137.4652  355.8726 H   0  0  0  0  0  0  0  0  0  0  0  0
    3.9030  143.6426  352.0559 O   0  0  0  0  0  0  0  0  0  0  0  0
    3.4177  144.6613  352.9697 C   0  0  0  0  0  0  0  0  0  0  0  0
    4.5230  145.6461  353.2099 C   0  0  0  0  0  0  0  0  0  0  0  0
    2.2156  145.2806  352.3342 C   0  0  0  0  0  0  0  0  0  0  0  0
 12  7  1  0  0  0
 12 13  1  0  0  0
  6  7  2  0  0  0
  6  5  1  0  0  0
 14 13  1  0  0  0
  7  2  1  0  0  0
  5  4  2  0  0  0
 13 15  1  0  0  0
  2  1  1  0  0  0
  2  3  2  0  0  0
  4  3  1  0  0  0
  4  8  1  0  0  0
  8  9  1  0  0  0
  9 10  1  0  0  0
  9 11  1  0  0  0
M  END
> <minimizedAffinity>
-6.38085

$$$$
5MOD_86L_A_404


 15 15  0  0  0  0  0  0  0  0999 V2000
    5.7263  142.7877  353.7000 Cl  0  0  0  0  0  0  0  0  0  0  0  0
    4.9162  141.4317  352.9886 C   0  0  0  0  0  0  0  0  0  0  0  0
    5.4136  140.1636  353.1961 C   0  0  0  0  0  0  0  0  0  0  0  0
    4.7742  139.0596  352.6510 C   0  0  0  0  0  0  0  0  0  0  0  0
    3.6225  139.2649  351.9066 C   0  0  0  0  0  0  0  0  0  0  0  0
    3.1201  140.5387  351.6936 C   0  0  0  0  0  0  0  0  0  0  0  0
    3.7729  141.6365  352.2274 C   0  0  0  0  0  0  0  0  0  0  0  0
    5.3280  137.6773  352.8445 C   0  0  0  0  0  0  0  0  0  0  0  0
    5.7305  137.4984  354.2357 N   0  0  0  0  0  0  0  0  0  0  0  0
    6.4472  138.1841  354.4732 H   0  0  0  0  0  0  0  0  0  0  0  0
    6.1042  136.5579  354.3633 H   0  0  0  0  0  0  0  0  0  0  0  0
    3.4144  142.9456  352.0270 O   0  0  0  0  0  0  0  0  0  0  0  0
    2.0173  143.2937  351.8394 C   0  0  0  0  0  0  0  0  0  0  0  0
    1.3192  143.1759  353.1614 C   0  0  0  0  0  0  0  0  0  0  0  0
    1.9839  144.6814  351.2863 C   0  0  0  0  0  0  0  0  0  0  0  0
 12  7  1  0  0  0
 12 13  1  0  0  0
  6  7  2  0  0  0
  6  5  1  0  0  0
 14 13  1  0  0  0
  7  2  1  0  0  0
  5  4  2  0  0  0
 13 15  1  0  0  0
  2  1  1  0  0  0
  2  3  2  0  0  0
  4  3  1  0  0  0
  4  8  1  0  0  0
  8  9  1  0  0  0
  9 10  1  0  0  0
  9 11  1  0  0  0
M  END
> <minimizedAffinity>
-6.07120

$$$$
5MOD_86L_A_404


 15 15  0  0  0  0  0  0  0  0999 V2000
    1.6393  141.9580  352.0645 Cl  0  0  0  0  0  0  0  0  0  0  0  0
    3.1390  142.7053  352.5047 C   0  0  0  0  0  0  0  0  0  0  0  0
    3.1878  144.0718  352.6744 C   0  0  0  0  0  0  0  0  0  0  0  0
    4.3725  144.6927  353.0427 C   0  0  0  0  0  0  0  0  0  0  0  0
    5.4953  143.9047  353.2452 C   0  0  0  0  0  0  0  0  0  0  0  0
    5.4512  142.5303  353.0735 C   0  0  0  0  0  0  0  0  0  0  0  0
    4.2692  141.9201  352.6902 C   0  0  0  0  0  0  0  0  0  0  0  0
    4.4427  146.1847  353.1975 C   0  0  0  0  0  0  0  0  0  0  0  0
    3.2570  146.7973  352.6069 N   0  0  0  0  0  0  0  0  0  0  0  0
    3.2120  146.5637  351.6150 H   0  0  0  0  0  0  0  0  0  0  0  0
    3.3076  147.8102  352.7158 H   0  0  0  0  0  0  0  0  0  0  0  0
    4.1195  140.5832  352.4207 O   0  0  0  0  0  0  0  0  0  0  0  0
    4.8071  139.5981  353.2362 C   0  0  0  0  0  0  0  0  0  0  0  0
    3.8444  139.0786  354.2620 C   0  0  0  0  0  0  0  0  0  0  0  0
    5.3008  138.5337  352.3110 C   0  0  0  0  0  0  0  0  0  0  0  0
 12  7  1  0  0  0
 12 13  1  0  0  0
  6  7  2  0  0  0
  6  5  1  0  0  0
 14 13  1  0  0  0
  7  2  1  0  0  0
  5  4  2  0  0  0
 13 15  1  0  0  0
  2  1  1  0  0  0
  2  3  2  0  0  0
  4  3  1  0  0  0
  4  8  1  0  0  0
  8  9  1  0  0  0
  9 10  1  0  0  0
  9 11  1  0  0  0
M  END
> <minimizedAffinity>
-6.05942

$$$$
5MOD_86L_A_404


 15 15  0  0  0  0  0  0  0  0999 V2000
    2.3160  140.3311  350.1575 Cl  0  0  0  0  0  0  0  0  0  0  0  0
    3.3374  140.1682  351.5473 C   0  0  0  0  0  0  0  0  0  0  0  0
    3.7070  138.9097  351.9693 C   0  0  0  0  0  0  0  0  0  0  0  0
    4.5374  138.7527  353.0696 C   0  0  0  0  0  0  0  0  0  0  0  0
    4.9913  139.8893  353.7212 C   0  0  0  0  0  0  0  0  0  0  0  0
    4.6204  141.1568  353.3015 C   0  0  0  0  0  0  0  0  0  0  0  0
    3.7785  141.3045  352.2125 C   0  0  0  0  0  0  0  0  0  0  0  0
    4.9181  137.3841  353.5563 C   0  0  0  0  0  0  0  0  0  0  0  0
    3.7568  136.7334  354.1543 N   0  0  0  0  0  0  0  0  0  0  0  0
    3.4233  137.2896  354.9415 H   0  0  0  0  0  0  0  0  0  0  0  0
    4.0190  135.8037  354.4817 H   0  0  0  0  0  0  0  0  0  0  0  0
    3.2863  142.4982  351.7484 O   0  0  0  0  0  0  0  0  0  0  0  0
    2.4248  143.3048  352.5944 C   0  0  0  0  0  0  0  0  0  0  0  0
    2.0627  144.5532  351.8465 C   0  0  0  0  0  0  0  0  0  0  0  0
    1.2363  142.4652  352.9335 C   0  0  0  0  0  0  0  0  0  0  0  0
 12  7  1  0  0  0
 12 13  1  0  0  0
  6  7  2  0  0  0
  6  5  1  0  0  0
 14 13  1  0  0  0
  7  2  1  0  0  0
  5  4  2  0  0  0
 13 15  1  0  0  0
  2  1  1  0  0  0
  2  3  2  0  0  0
  4  3  1  0  0  0
  4  8  1  0  0  0
  8  9  1  0  0  0
  9 10  1  0  0  0
  9 11  1  0  0  0
M  END
> <minimizedAffinity>
-5.89498

$$$$
5MOD_86L_A_404


 15 15  0  0  0  0  0  0  0  0999 V2000
    6.0310  142.0352  353.0260 Cl  0  0  0  0  0  0  0  0  0  0  0  0
    4.3411  142.1844  352.6745 C   0  0  0  0  0  0  0  0  0  0  0  0
    3.7445  143.4244  352.7433 C   0  0  0  0  0  0  0  0  0  0  0  0
    2.3965  143.5734  352.4507 C   0  0  0  0  0  0  0  0  0  0  0  0
    1.6741  142.4499  352.0786 C   0  0  0  0  0  0  0  0  0  0  0  0
    2.2696  141.2006  352.0102 C   0  0  0  0  0  0  0  0  0  0  0  0
    3.6114  141.0576  352.3193 C   0  0  0  0  0  0  0  0  0  0  0  0
    1.7309  144.9154  352.5553 C   0  0  0  0  0  0  0  0  0  0  0  0
    2.6292  145.9509  352.0550 N   0  0  0  0  0  0  0  0  0  0  0  0
    3.4850  145.9558  352.6099 H   0  0  0  0  0  0  0  0  0  0  0  0
    2.1728  146.8603  352.1260 H   0  0  0  0  0  0  0  0  0  0  0  0
    4.2928  139.8673  352.3571 O   0  0  0  0  0  0  0  0  0  0  0  0
    3.6926  138.7088  352.9942 C   0  0  0  0  0  0  0  0  0  0  0  0
    4.3483  137.4759  352.4472 C   0  0  0  0  0  0  0  0  0  0  0  0
    3.8918  138.8683  354.4664 C   0  0  0  0  0  0  0  0  0  0  0  0
 12  7  1  0  0  0
 12 13  1  0  0  0
  6  7  2  0  0  0
  6  5  1  0  0  0
 14 13  1  0  0  0
  7  2  1  0  0  0
  5  4  2  0  0  0
 13 15  1  0  0  0
  2  1  1  0  0  0
  2  3  2  0  0  0
  4  3  1  0  0  0
  4  8  1  0  0  0
  8  9  1  0  0  0
  9 10  1  0  0  0
  9 11  1  0  0  0
M  END
> <minimizedAffinity>
-5.80130

$$$$
5MOD_86L_A_404


 15 15  0  0  0  0  0  0  0  0999 V2000
    5.7059  143.0237  353.6843 Cl  0  0  0  0  0  0  0  0  0  0  0  0
    4.4841  142.1933  352.7794 C   0  0  0  0  0  0  0  0  0  0  0  0
    4.6943  140.8841  352.4051 C   0  0  0  0  0  0  0  0  0  0  0  0
    3.7248  140.1917  351.6941 C   0  0  0  0  0  0  0  0  0  0  0  0
    2.5422  140.8451  351.3829 C   0  0  0  0  0  0  0  0  0  0  0  0
    2.3274  142.1624  351.7555 C   0  0  0  0  0  0  0  0  0  0  0  0
    3.3063  142.8515  352.4507 C   0  0  0  0  0  0  0  0  0  0  0  0
    3.9594  138.7754  351.2535 C   0  0  0  0  0  0  0  0  0  0  0  0
    4.5525  138.7664  349.9201 N   0  0  0  0  0  0  0  0  0  0  0  0
    3.9193  139.2225  349.2633 H   0  0  0  0  0  0  0  0  0  0  0  0
    4.7119  137.8030  349.6254 H   0  0  0  0  0  0  0  0  0  0  0  0
    3.2398  144.1739  352.8104 O   0  0  0  0  0  0  0  0  0  0  0  0
    2.6168  145.1366  351.9198 C   0  0  0  0  0  0  0  0  0  0  0  0
    1.2627  145.4788  352.4662 C   0  0  0  0  0  0  0  0  0  0  0  0
    3.5293  146.3175  351.8467 C   0  0  0  0  0  0  0  0  0  0  0  0
 12  7  1  0  0  0
 12 13  1  0  0  0
  6  7  2  0  0  0
  6  5  1  0  0  0
 14 13  1  0  0  0
  7  2  1  0  0  0
  5  4  2  0  0  0
 13 15  1  0  0  0
  2  1  1  0  0  0
  2  3  2  0  0  0
  4  3  1  0  0  0
  4  8  1  0  0  0
  8  9  1  0  0  0
  9 10  1  0  0  0
  9 11  1  0  0  0
M  END
> <minimizedAffinity>
-5.78542

$$$$
5MOD_86L_A_404


 15 15  0  0  0  0  0  0  0  0999 V2000
    5.9352  141.2576  353.4178 Cl  0  0  0  0  0  0  0  0  0  0  0  0
    4.8181  142.4764  352.9001 C   0  0  0  0  0  0  0  0  0  0  0  0
    5.1632  143.8045  353.0240 C   0  0  0  0  0  0  0  0  0  0  0  0
    4.2933  144.7994  352.6019 C   0  0  0  0  0  0  0  0  0  0  0  0
    3.0805  144.4229  352.0452 C   0  0  0  0  0  0  0  0  0  0  0  0
    2.7285  143.0884  351.9206 C   0  0  0  0  0  0  0  0  0  0  0  0
    3.5952  142.1020  352.3590 C   0  0  0  0  0  0  0  0  0  0  0  0
    4.6475  146.2497  352.7637 C   0  0  0  0  0  0  0  0  0  0  0  0
    3.4286  147.0473  352.8528 N   0  0  0  0  0  0  0  0  0  0  0  0
    2.8811  146.9278  352.0005 H   0  0  0  0  0  0  0  0  0  0  0  0
    3.6735  148.0311  352.9645 H   0  0  0  0  0  0  0  0  0  0  0  0
    3.3301  140.7559  352.3547 O   0  0  0  0  0  0  0  0  0  0  0  0
    3.7382  139.9405  351.2247 C   0  0  0  0  0  0  0  0  0  0  0  0
    3.8978  138.5257  351.6958 C   0  0  0  0  0  0  0  0  0  0  0  0
    2.6837  140.0884  350.1764 C   0  0  0  0  0  0  0  0  0  0  0  0
 12  7  1  0  0  0
 12 13  1  0  0  0
  6  7  2  0  0  0
  6  5  1  0  0  0
 14 13  1  0  0  0
  7  2  1  0  0  0
  5  4  2  0  0  0
 13 15  1  0  0  0
  2  1  1  0  0  0
  2  3  2  0  0  0
  4  3  1  0  0  0
  4  8  1  0  0  0
  8  9  1  0  0  0
  9 10  1  0  0  0
  9 11  1  0  0  0
M  END
> <minimizedAffinity>
-5.75020

$$$$
5MOD_86L_A_404


 15 15  0  0  0  0  0  0  0  0999 V2000
    2.1758  143.4207  352.0020 Cl  0  0  0  0  0  0  0  0  0  0  0  0
    3.6442  142.6965  352.5682 C   0  0  0  0  0  0  0  0  0  0  0  0
    3.8914  141.3690  352.2939 C   0  0  0  0  0  0  0  0  0  0  0  0
    5.0671  140.7697  352.7220 C   0  0  0  0  0  0  0  0  0  0  0  0
    5.9852  141.5408  353.4183 C   0  0  0  0  0  0  0  0  0  0  0  0
    5.7398  142.8756  353.6982 C   0  0  0  0  0  0  0  0  0  0  0  0
    4.5570  143.4621  353.2816 C   0  0  0  0  0  0  0  0  0  0  0  0
    5.3295  139.3152  352.4562 C   0  0  0  0  0  0  0  0  0  0  0  0
    5.5427  138.6147  353.7185 N   0  0  0  0  0  0  0  0  0  0  0  0
    6.3458  139.0188  354.2003 H   0  0  0  0  0  0  0  0  0  0  0  0
    5.7186  137.6271  353.5338 H   0  0  0  0  0  0  0  0  0  0  0  0
    4.1706  144.7490  353.5591 O   0  0  0  0  0  0  0  0  0  0  0  0
    4.7703  145.8572  352.8376 C   0  0  0  0  0  0  0  0  0  0  0  0
    5.6994  145.2989  351.8011 C   0  0  0  0  0  0  0  0  0  0  0  0
    3.6503  146.6506  352.2472 C   0  0  0  0  0  0  0  0  0  0  0  0
 12  7  1  0  0  0
 12 13  1  0  0  0
  6  7  2  0  0  0
  6  5  1  0  0  0
 14 13  1  0  0  0
  7  2  1  0  0  0
  5  4  2  0  0  0
 13 15  1  0  0  0
  2  1  1  0  0  0
  2  3  2  0  0  0
  4  3  1  0  0  0
  4  8  1  0  0  0
  8  9  1  0  0  0
  9 10  1  0  0  0
  9 11  1  0  0  0
M  END
> <minimizedAffinity>
-5.46915

$$$$
5MOD_86L_A_404


 15 15  0  0  0  0  0  0  0  0999 V2000
    4.2665  138.9264  349.4073 Cl  0  0  0  0  0  0  0  0  0  0  0  0
    4.0635  138.2910  351.0062 C   0  0  0  0  0  0  0  0  0  0  0  0
    3.9207  136.9315  351.1789 C   0  0  0  0  0  0  0  0  0  0  0  0
    3.7730  136.3960  352.4502 C   0  0  0  0  0  0  0  0  0  0  0  0
    3.7847  137.2591  353.5353 C   0  0  0  0  0  0  0  0  0  0  0  0
    3.9259  138.6272  353.3660 C   0  0  0  0  0  0  0  0  0  0  0  0
    4.0566  139.1554  352.0930 C   0  0  0  0  0  0  0  0  0  0  0  0
    3.5835  134.9191  352.6449 C   0  0  0  0  0  0  0  0  0  0  0  0
    2.9293  134.3478  351.4722 N   0  0  0  0  0  0  0  0  0  0  0  0
    2.0191  134.7893  351.3417 H   0  0  0  0  0  0  0  0  0  0  0  0
    2.8042  133.3446  351.6076 H   0  0  0  0  0  0  0  0  0  0  0  0
    4.1311  140.4924  351.7944 O   0  0  0  0  0  0  0  0  0  0  0  0
    3.2862  141.4404  352.4985 C   0  0  0  0  0  0  0  0  0  0  0  0
    3.9699  142.7751  352.4966 C   0  0  0  0  0  0  0  0  0  0  0  0
    1.9700  141.4607  351.7914 C   0  0  0  0  0  0  0  0  0  0  0  0
 12  7  1  0  0  0
 12 13  1  0  0  0
  6  7  2  0  0  0
  6  5  1  0  0  0
 14 13  1  0  0  0
  7  2  1  0  0  0
  5  4  2  0  0  0
 13 15  1  0  0  0
  2  1  1  0  0  0
  2  3  2  0  0  0
  4  3  1  0  0  0
  4  8  1  0  0  0
  8  9  1  0  0  0
  9 10  1  0  0  0
  9 11  1  0  0  0
M  END
> <minimizedAffinity>
-5.28651

$$$$
5MOD_86L_A_404


 15 15  0  0  0  0  0  0  0  0999 V2000
    3.3805  139.0916  348.8658 Cl  0  0  0  0  0  0  0  0  0  0  0  0
    3.2689  139.6409  350.5051 C   0  0  0  0  0  0  0  0  0  0  0  0
    2.5247  140.7647  350.7909 C   0  0  0  0  0  0  0  0  0  0  0  0
    2.4060  141.2158  352.0975 C   0  0  0  0  0  0  0  0  0  0  0  0
    3.0429  140.5031  353.1021 C   0  0  0  0  0  0  0  0  0  0  0  0
    3.7941  139.3737  352.8188 C   0  0  0  0  0  0  0  0  0  0  0  0
    3.9208  138.9392  351.5105 C   0  0  0  0  0  0  0  0  0  0  0  0
    1.6244  142.4584  352.4138 C   0  0  0  0  0  0  0  0  0  0  0  0
    2.1336  143.5748  351.6237 N   0  0  0  0  0  0  0  0  0  0  0  0
    3.1166  143.7296  351.8479 H   0  0  0  0  0  0  0  0  0  0  0  0
    1.5990  144.4161  351.8400 H   0  0  0  0  0  0  0  0  0  0  0  0
    4.6920  137.8818  351.0985 O   0  0  0  0  0  0  0  0  0  0  0  0
    4.3937  136.5408  351.5689 C   0  0  0  0  0  0  0  0  0  0  0  0
    3.5957  135.8361  350.5126 C   0  0  0  0  0  0  0  0  0  0  0  0
    5.7020  135.8758  351.8492 C   0  0  0  0  0  0  0  0  0  0  0  0
 12  7  1  0  0  0
 12 13  1  0  0  0
  6  7  2  0  0  0
  6  5  1  0  0  0
 14 13  1  0  0  0
  7  2  1  0  0  0
  5  4  2  0  0  0
 13 15  1  0  0  0
  2  1  1  0  0  0
  2  3  2  0  0  0
  4  3  1  0  0  0
  4  8  1  0  0  0
  8  9  1  0  0  0
  9 10  1  0  0  0
  9 11  1  0  0  0
M  END
> <minimizedAffinity>
-5.26905

$$$$
