4YX4_FB2_A_303


 12 12  0  0  0  0  0  0  0  0999 V2000
   -2.3129    7.3505   84.8246 C   0  0  0  0  0  0  0  0  0  0  0  0
   -3.2711    6.4724   85.2821 C   0  0  0  0  0  0  0  0  0  0  0  0
   -2.9599    5.1408   85.5023 C   0  0  0  0  0  0  0  0  0  0  0  0
   -1.6676    4.7011   85.2614 C   0  0  0  0  0  0  0  0  0  0  0  0
   -0.6983    5.5738   84.7904 C   0  0  0  0  0  0  0  0  0  0  0  0
   -1.0323    6.9013   84.5771 C   0  0  0  0  0  0  0  0  0  0  0  0
   -1.2388    3.0205   85.6114 S   0  0  0  0  0  0  0  0  0  0  0  0
   -0.0519    3.0476   86.4155 O   0  0  0  0  0  0  0  0  0  0  0  0
   -1.2040    2.3311   84.3562 O   0  0  0  0  0  0  0  0  0  0  0  0
   -2.4193    2.4050   86.4419 N   0  0  0  0  0  0  0  0  0  0  0  0
   -3.2636    2.3857   85.8698 H   0  0  0  0  0  0  0  0  0  0  0  0
   -2.5840    2.9742   87.2720 H   0  0  0  0  0  0  0  0  0  0  0  0
  1  2  1  0  0  0
  1  6  2  0  0  0
  2  3  2  0  0  0
  3  4  1  0  0  0
  4  5  2  0  0  0
  4  7  1  0  0  0
  5  6  1  0  0  0
  7  9  2  0  0  0
  7  8  2  0  0  0
  7 10  1  0  0  0
 10 11  1  0  0  0
 10 12  1  0  0  0
M  END
> <minimizedAffinity>
-5.85286

$$$$
4YX4_FB2_A_303


 12 12  0  0  0  0  0  0  0  0999 V2000
   -1.6229    6.6629   84.5127 C   0  0  0  0  0  0  0  0  0  0  0  0
   -2.8864    6.6520   85.0620 C   0  0  0  0  0  0  0  0  0  0  0  0
   -3.3050    5.5903   85.8471 C   0  0  0  0  0  0  0  0  0  0  0  0
   -2.4334    4.5377   86.0789 C   0  0  0  0  0  0  0  0  0  0  0  0
   -1.1634    4.5333   85.5218 C   0  0  0  0  0  0  0  0  0  0  0  0
   -0.7663    5.6056   84.7398 C   0  0  0  0  0  0  0  0  0  0  0  0
   -2.9292    3.2129   87.1418 S   0  0  0  0  0  0  0  0  0  0  0  0
   -4.3272    2.9908   86.9137 O   0  0  0  0  0  0  0  0  0  0  0  0
   -2.4934    3.5553   88.4627 O   0  0  0  0  0  0  0  0  0  0  0  0
   -2.1195    1.9416   86.7053 N   0  0  0  0  0  0  0  0  0  0  0  0
   -1.1250    2.0996   86.8676 H   0  0  0  0  0  0  0  0  0  0  0  0
   -2.2778    1.7616   85.7138 H   0  0  0  0  0  0  0  0  0  0  0  0
  1  2  1  0  0  0
  1  6  2  0  0  0
  2  3  2  0  0  0
  3  4  1  0  0  0
  4  5  2  0  0  0
  4  7  1  0  0  0
  5  6  1  0  0  0
  7  9  2  0  0  0
  7  8  2  0  0  0
  7 10  1  0  0  0
 10 11  1  0  0  0
 10 12  1  0  0  0
M  END
> <minimizedAffinity>
-5.62894

$$$$
4YX4_FB2_A_303


 12 12  0  0  0  0  0  0  0  0999 V2000
   -3.4543    3.5919   87.6952 C   0  0  0  0  0  0  0  0  0  0  0  0
   -3.7396    4.7046   86.9346 C   0  0  0  0  0  0  0  0  0  0  0  0
   -3.0342    4.9632   85.7708 C   0  0  0  0  0  0  0  0  0  0  0  0
   -2.0381    4.0839   85.3760 C   0  0  0  0  0  0  0  0  0  0  0  0
   -1.7352    2.9668   86.1400 C   0  0  0  0  0  0  0  0  0  0  0  0
   -2.4536    2.7283   87.3003 C   0  0  0  0  0  0  0  0  0  0  0  0
   -1.1825    4.3624   83.8525 S   0  0  0  0  0  0  0  0  0  0  0  0
   -0.0269    5.1545   84.1575 O   0  0  0  0  0  0  0  0  0  0  0  0
   -2.1445    4.8775   82.9245 O   0  0  0  0  0  0  0  0  0  0  0  0
   -0.7284    2.9604   83.3138 N   0  0  0  0  0  0  0  0  0  0  0  0
   -1.5505    2.3969   83.0968 H   0  0  0  0  0  0  0  0  0  0  0  0
   -0.1700    2.4876   84.0245 H   0  0  0  0  0  0  0  0  0  0  0  0
  1  2  1  0  0  0
  1  6  2  0  0  0
  2  3  2  0  0  0
  3  4  1  0  0  0
  4  5  2  0  0  0
  4  7  1  0  0  0
  5  6  1  0  0  0
  7  9  2  0  0  0
  7  8  2  0  0  0
  7 10  1  0  0  0
 10 11  1  0  0  0
 10 12  1  0  0  0
M  END
> <minimizedAffinity>
-5.59995

$$$$
4YX4_FB2_A_303


 12 12  0  0  0  0  0  0  0  0999 V2000
   -3.4293    3.6258   87.7220 C   0  0  0  0  0  0  0  0  0  0  0  0
   -2.4664    2.7390   87.2921 C   0  0  0  0  0  0  0  0  0  0  0  0
   -1.7855    2.9578   86.1058 C   0  0  0  0  0  0  0  0  0  0  0  0
   -2.0812    4.0855   85.3561 C   0  0  0  0  0  0  0  0  0  0  0  0
   -3.0563    4.9788   85.7740 C   0  0  0  0  0  0  0  0  0  0  0  0
   -3.7247    4.7396   86.9636 C   0  0  0  0  0  0  0  0  0  0  0  0
   -1.1652    4.4154   83.8786 S   0  0  0  0  0  0  0  0  0  0  0  0
   -0.0205    5.1912   84.2575 O   0  0  0  0  0  0  0  0  0  0  0  0
   -2.0883    4.9676   82.9326 O   0  0  0  0  0  0  0  0  0  0  0  0
   -0.6938    3.0318   83.3078 N   0  0  0  0  0  0  0  0  0  0  0  0
   -1.5082    2.4800   83.0383 H   0  0  0  0  0  0  0  0  0  0  0  0
   -0.1654    2.5314   84.0224 H   0  0  0  0  0  0  0  0  0  0  0  0
  1  2  1  0  0  0
  1  6  2  0  0  0
  2  3  2  0  0  0
  3  4  1  0  0  0
  4  5  2  0  0  0
  4  7  1  0  0  0
  5  6  1  0  0  0
  7  9  2  0  0  0
  7  8  2  0  0  0
  7 10  1  0  0  0
 10 11  1  0  0  0
 10 12  1  0  0  0
M  END
> <minimizedAffinity>
-5.56980

$$$$
4YX4_FB2_A_303


 12 12  0  0  0  0  0  0  0  0999 V2000
   -3.4272    3.6316   87.7120 C   0  0  0  0  0  0  0  0  0  0  0  0
   -2.4823    2.7294   87.2745 C   0  0  0  0  0  0  0  0  0  0  0  0
   -1.8062    2.9380   86.0836 C   0  0  0  0  0  0  0  0  0  0  0  0
   -2.0883    4.0713   85.3371 C   0  0  0  0  0  0  0  0  0  0  0  0
   -3.0454    4.9802   85.7626 C   0  0  0  0  0  0  0  0  0  0  0  0
   -3.7093    4.7510   86.9567 C   0  0  0  0  0  0  0  0  0  0  0  0
   -1.1774    4.3873   83.8535 S   0  0  0  0  0  0  0  0  0  0  0  0
   -2.0683    5.0488   82.9454 O   0  0  0  0  0  0  0  0  0  0  0  0
   -0.5877    3.1439   83.4557 O   0  0  0  0  0  0  0  0  0  0  0  0
   -0.0008    5.3548   84.2300 N   0  0  0  0  0  0  0  0  0  0  0  0
    0.6329    4.8842   84.8760 H   0  0  0  0  0  0  0  0  0  0  0  0
   -0.3780    6.1924   84.6735 H   0  0  0  0  0  0  0  0  0  0  0  0
  1  2  1  0  0  0
  1  6  2  0  0  0
  2  3  2  0  0  0
  3  4  1  0  0  0
  4  5  2  0  0  0
  4  7  1  0  0  0
  5  6  1  0  0  0
  7  9  2  0  0  0
  7  8  2  0  0  0
  7 10  1  0  0  0
 10 11  1  0  0  0
 10 12  1  0  0  0
M  END
> <minimizedAffinity>
-5.55473

$$$$
4YX4_FB2_A_303


 12 12  0  0  0  0  0  0  0  0999 V2000
   -1.2674    3.0125   81.2524 C   0  0  0  0  0  0  0  0  0  0  0  0
   -1.0479    1.8857   82.0143 C   0  0  0  0  0  0  0  0  0  0  0  0
   -1.0381    1.9604   83.3974 C   0  0  0  0  0  0  0  0  0  0  0  0
   -1.2576    3.1850   84.0086 C   0  0  0  0  0  0  0  0  0  0  0  0
   -1.4685    4.3274   83.2512 C   0  0  0  0  0  0  0  0  0  0  0  0
   -1.4737    4.2290   81.8694 C   0  0  0  0  0  0  0  0  0  0  0  0
   -1.3232    3.2792   85.7743 S   0  0  0  0  0  0  0  0  0  0  0  0
   -2.2362    4.3338   86.1059 O   0  0  0  0  0  0  0  0  0  0  0  0
    0.0299    3.3699   86.2356 O   0  0  0  0  0  0  0  0  0  0  0  0
   -1.8943    1.9115   86.2897 N   0  0  0  0  0  0  0  0  0  0  0  0
   -1.2447    1.1613   86.0538 H   0  0  0  0  0  0  0  0  0  0  0  0
   -2.7961    1.7317   85.8485 H   0  0  0  0  0  0  0  0  0  0  0  0
  1  2  1  0  0  0
  1  6  2  0  0  0
  2  3  2  0  0  0
  3  4  1  0  0  0
  4  5  2  0  0  0
  4  7  1  0  0  0
  5  6  1  0  0  0
  7  9  2  0  0  0
  7  8  2  0  0  0
  7 10  1  0  0  0
 10 11  1  0  0  0
 10 12  1  0  0  0
M  END
> <minimizedAffinity>
-5.44204

$$$$
4YX4_FB2_A_303


 12 12  0  0  0  0  0  0  0  0999 V2000
   -2.8614    2.7805   87.2702 C   0  0  0  0  0  0  0  0  0  0  0  0
   -1.7872    2.7002   86.4112 C   0  0  0  0  0  0  0  0  0  0  0  0
   -1.5398    3.7093   85.4951 C   0  0  0  0  0  0  0  0  0  0  0  0
   -2.3851    4.8071   85.4557 C   0  0  0  0  0  0  0  0  0  0  0  0
   -3.4756    4.8928   86.3082 C   0  0  0  0  0  0  0  0  0  0  0  0
   -3.7038    3.8716   87.2161 C   0  0  0  0  0  0  0  0  0  0  0  0
   -2.0357    6.1374   84.3427 S   0  0  0  0  0  0  0  0  0  0  0  0
   -0.8011    6.7292   84.7686 O   0  0  0  0  0  0  0  0  0  0  0  0
   -3.2101    6.9561   84.2928 O   0  0  0  0  0  0  0  0  0  0  0  0
   -1.8507    5.5107   82.9161 N   0  0  0  0  0  0  0  0  0  0  0  0
   -2.7290    5.0898   82.6132 H   0  0  0  0  0  0  0  0  0  0  0  0
   -1.1248    4.7951   82.9506 H   0  0  0  0  0  0  0  0  0  0  0  0
  1  2  1  0  0  0
  1  6  2  0  0  0
  2  3  2  0  0  0
  3  4  1  0  0  0
  4  5  2  0  0  0
  4  7  1  0  0  0
  5  6  1  0  0  0
  7  9  2  0  0  0
  7  8  2  0  0  0
  7 10  1  0  0  0
 10 11  1  0  0  0
 10 12  1  0  0  0
M  END
> <minimizedAffinity>
-5.20325

$$$$
4YX4_FB2_A_303


 12 12  0  0  0  0  0  0  0  0999 V2000
   -0.0518    6.1546   84.8559 C   0  0  0  0  0  0  0  0  0  0  0  0
    0.3836    6.4009   83.5722 C   0  0  0  0  0  0  0  0  0  0  0  0
    0.0718    5.5289   82.5421 C   0  0  0  0  0  0  0  0  0  0  0  0
   -0.6905    4.4044   82.8174 C   0  0  0  0  0  0  0  0  0  0  0  0
   -1.1246    4.1410   84.1079 C   0  0  0  0  0  0  0  0  0  0  0  0
   -0.8005    5.0270   85.1225 C   0  0  0  0  0  0  0  0  0  0  0  0
   -1.1593    3.3239   81.4970 S   0  0  0  0  0  0  0  0  0  0  0  0
   -1.2758    2.0070   82.0519 O   0  0  0  0  0  0  0  0  0  0  0  0
   -0.2269    3.5418   80.4316 O   0  0  0  0  0  0  0  0  0  0  0  0
   -2.5634    3.8017   80.9845 N   0  0  0  0  0  0  0  0  0  0  0  0
   -2.4805    4.7386   80.5898 H   0  0  0  0  0  0  0  0  0  0  0  0
   -3.2221    3.8179   81.7632 H   0  0  0  0  0  0  0  0  0  0  0  0
  1  2  1  0  0  0
  1  6  2  0  0  0
  2  3  2  0  0  0
  3  4  1  0  0  0
  4  5  2  0  0  0
  4  7  1  0  0  0
  5  6  1  0  0  0
  7  9  2  0  0  0
  7  8  2  0  0  0
  7 10  1  0  0  0
 10 11  1  0  0  0
 10 12  1  0  0  0
M  END
> <minimizedAffinity>
-5.02616

$$$$
4YX4_FB2_A_303


 12 12  0  0  0  0  0  0  0  0999 V2000
   -0.3895    8.1953   84.3901 C   0  0  0  0  0  0  0  0  0  0  0  0
   -1.6750    7.7417   84.5903 C   0  0  0  0  0  0  0  0  0  0  0  0
   -1.9229    6.3955   84.8024 C   0  0  0  0  0  0  0  0  0  0  0  0
   -0.8588    5.5074   84.8161 C   0  0  0  0  0  0  0  0  0  0  0  0
    0.4378    5.9516   84.6046 C   0  0  0  0  0  0  0  0  0  0  0  0
    0.6621    7.3024   84.3943 C   0  0  0  0  0  0  0  0  0  0  0  0
   -1.1544    3.7975   85.1616 S   0  0  0  0  0  0  0  0  0  0  0  0
   -0.8646    3.0692   83.9610 O   0  0  0  0  0  0  0  0  0  0  0  0
   -2.4706    3.7083   85.7198 O   0  0  0  0  0  0  0  0  0  0  0  0
   -0.1474    3.3720   86.2874 N   0  0  0  0  0  0  0  0  0  0  0  0
   -0.3536    3.8901   87.1415 H   0  0  0  0  0  0  0  0  0  0  0  0
    0.8054    3.5775   85.9868 H   0  0  0  0  0  0  0  0  0  0  0  0
  1  2  1  0  0  0
  1  6  2  0  0  0
  2  3  2  0  0  0
  3  4  1  0  0  0
  4  5  2  0  0  0
  4  7  1  0  0  0
  5  6  1  0  0  0
  7  9  2  0  0  0
  7  8  2  0  0  0
  7 10  1  0  0  0
 10 11  1  0  0  0
 10 12  1  0  0  0
M  END
> <minimizedAffinity>
-4.91025

$$$$
4YX4_FB2_A_303


 12 12  0  0  0  0  0  0  0  0999 V2000
   -3.0459    4.5359   86.4586 C   0  0  0  0  0  0  0  0  0  0  0  0
   -1.8569    3.8436   86.3862 C   0  0  0  0  0  0  0  0  0  0  0  0
   -0.8290    4.2905   85.5724 C   0  0  0  0  0  0  0  0  0  0  0  0
   -1.0087    5.4492   84.8331 C   0  0  0  0  0  0  0  0  0  0  0  0
   -2.2054    6.1477   84.8900 C   0  0  0  0  0  0  0  0  0  0  0  0
   -3.2198    5.6819   85.7106 C   0  0  0  0  0  0  0  0  0  0  0  0
    0.3238    6.0714   83.8492 S   0  0  0  0  0  0  0  0  0  0  0  0
   -0.0023    7.4251   83.5069 O   0  0  0  0  0  0  0  0  0  0  0  0
    0.5365    5.1268   82.7936 O   0  0  0  0  0  0  0  0  0  0  0  0
    1.6099    6.0544   84.7480 N   0  0  0  0  0  0  0  0  0  0  0  0
    1.8417    5.0914   84.9915 H   0  0  0  0  0  0  0  0  0  0  0  0
    1.4365    6.5882   85.5998 H   0  0  0  0  0  0  0  0  0  0  0  0
  1  2  1  0  0  0
  1  6  2  0  0  0
  2  3  2  0  0  0
  3  4  1  0  0  0
  4  5  2  0  0  0
  4  7  1  0  0  0
  5  6  1  0  0  0
  7  9  2  0  0  0
  7  8  2  0  0  0
  7 10  1  0  0  0
 10 11  1  0  0  0
 10 12  1  0  0  0
M  END
> <minimizedAffinity>
-4.78697

$$$$
