5EQ1_BEA_A_801


 14 16  0  0  0  0  0  0  0  0999 V2000
    7.1601  -12.1530    3.1102 C   0  0  0  0  0  0  0  0  0  0  0  0
    5.8030  -11.9686    2.8208 C   0  0  0  0  0  0  0  0  0  0  0  0
    7.9430  -12.7800    2.1449 C   0  0  0  0  0  0  0  0  0  0  0  0
    9.2916  -12.9825    2.3907 C   0  0  0  0  0  0  0  0  0  0  0  0
    9.7972  -12.5467    3.6061 C   0  0  0  0  0  0  0  0  0  0  0  0
    9.0106  -11.9473    4.4998 C   0  0  0  0  0  0  0  0  0  0  0  0
    7.8494  -10.8243    6.3594 C   0  0  0  0  0  0  0  0  0  0  0  0
    7.6880  -11.7399    4.2773 C   0  0  0  0  0  0  0  0  0  0  0  0
    5.8638  -10.6616    5.6830 C   0  0  0  0  0  0  0  0  0  0  0  0
    7.0643  -11.1162    5.3121 N   0  0  0  0  0  0  0  0  0  0  0  0
    5.9737  -10.1363    6.8959 N   0  0  0  0  0  0  0  0  0  0  0  0
    7.1064  -10.2298    7.2858 N   0  0  0  0  0  0  0  0  0  0  0  0
    9.3772  -11.3360    6.0175 S   0  0  0  0  0  0  0  0  0  0  0  0
    7.4337   -9.9138    8.1589 H   0  0  0  0  0  0  0  0  0  0  0  0
  1  2  1  0  0  0
  1  3  2  0  0  0
  1  8  1  0  0  0
  3  4  1  0  0  0
  4  5  2  0  0  0
  5  6  1  0  0  0
  6  8  2  0  0  0
  6 13  1  0  0  0
  7 10  1  0  0  0
  7 12  2  0  0  0
  7 13  1  0  0  0
  8 10  1  0  0  0
  9 10  1  0  0  0
  9 11  2  0  0  0
 11 12  1  0  0  0
 12 14  1  0  0  0
M  CHG 1  12   1
M  END
> <minimizedAffinity>
-6.60044

$$$$
5EQ1_BEA_A_801


 14 16  0  0  0  0  0  0  0  0999 V2000
    8.3246  -12.2376    3.4268 C   0  0  0  0  0  0  0  0  0  0  0  0
    9.6528  -12.6180    3.2020 C   0  0  0  0  0  0  0  0  0  0  0  0
    7.4069  -12.4769    2.4077 C   0  0  0  0  0  0  0  0  0  0  0  0
    6.0815  -12.1156    2.5888 C   0  0  0  0  0  0  0  0  0  0  0  0
    5.7344  -11.5218    3.7928 C   0  0  0  0  0  0  0  0  0  0  0  0
    6.6466  -11.3153    4.7425 C   0  0  0  0  0  0  0  0  0  0  0  0
    8.0647  -10.7845    6.6855 C   0  0  0  0  0  0  0  0  0  0  0  0
    7.9490  -11.6623    4.5841 C   0  0  0  0  0  0  0  0  0  0  0  0
    9.9747  -11.4501    6.1065 C   0  0  0  0  0  0  0  0  0  0  0  0
    8.7157  -11.3654    5.6670 N   0  0  0  0  0  0  0  0  0  0  0  0
   10.0259  -10.9327    7.3268 N   0  0  0  0  0  0  0  0  0  0  0  0
    8.9366  -10.5497    7.6593 N   0  0  0  0  0  0  0  0  0  0  0  0
    6.4803  -10.6287    6.2632 S   0  0  0  0  0  0  0  0  0  0  0  0
    8.7231  -10.1263    8.5220 H   0  0  0  0  0  0  0  0  0  0  0  0
  1  2  1  0  0  0
  1  3  2  0  0  0
  1  8  1  0  0  0
  3  4  1  0  0  0
  4  5  2  0  0  0
  5  6  1  0  0  0
  6  8  2  0  0  0
  6 13  1  0  0  0
  7 10  1  0  0  0
  7 12  2  0  0  0
  7 13  1  0  0  0
  8 10  1  0  0  0
  9 10  1  0  0  0
  9 11  2  0  0  0
 11 12  1  0  0  0
 12 14  1  0  0  0
M  CHG 1  12   1
M  END
> <minimizedAffinity>
-6.54204

$$$$
5EQ1_BEA_A_801


 14 16  0  0  0  0  0  0  0  0999 V2000
    6.2275  -11.0207    4.9540 C   0  0  0  0  0  0  0  0  0  0  0  0
    5.8343  -10.3455    6.1154 C   0  0  0  0  0  0  0  0  0  0  0  0
    5.2571  -11.2425    3.9807 C   0  0  0  0  0  0  0  0  0  0  0  0
    5.6037  -11.9074    2.8154 C   0  0  0  0  0  0  0  0  0  0  0  0
    6.9184  -12.3269    2.6798 C   0  0  0  0  0  0  0  0  0  0  0  0
    7.8152  -12.0891    3.6368 C   0  0  0  0  0  0  0  0  0  0  0  0
    9.7046  -11.8265    5.1954 C   0  0  0  0  0  0  0  0  0  0  0  0
    7.4952  -11.4395    4.7846 C   0  0  0  0  0  0  0  0  0  0  0  0
    8.8672  -10.7936    6.8259 C   0  0  0  0  0  0  0  0  0  0  0  0
    8.5503  -11.3006    5.6309 N   0  0  0  0  0  0  0  0  0  0  0  0
   10.1528  -11.0299    7.0512 N   0  0  0  0  0  0  0  0  0  0  0  0
   10.6332  -11.6217    6.1224 N   0  0  0  0  0  0  0  0  0  0  0  0
    9.4428  -12.4854    3.7087 S   0  0  0  0  0  0  0  0  0  0  0  0
   11.5721  -11.9108    6.0584 H   0  0  0  0  0  0  0  0  0  0  0  0
  1  2  1  0  0  0
  1  3  2  0  0  0
  1  8  1  0  0  0
  3  4  1  0  0  0
  4  5  2  0  0  0
  5  6  1  0  0  0
  6  8  2  0  0  0
  6 13  1  0  0  0
  7 10  1  0  0  0
  7 12  2  0  0  0
  7 13  1  0  0  0
  8 10  1  0  0  0
  9 10  1  0  0  0
  9 11  2  0  0  0
 11 12  1  0  0  0
 12 14  1  0  0  0
M  CHG 1  12   1
M  END
> <minimizedAffinity>
-6.49612

$$$$
5EQ1_BEA_A_801


 14 16  0  0  0  0  0  0  0  0999 V2000
    9.0483  -11.9246    4.5052 C   0  0  0  0  0  0  0  0  0  0  0  0
    9.9592  -11.6687    5.5369 C   0  0  0  0  0  0  0  0  0  0  0  0
    9.5183  -12.6124    3.3898 C   0  0  0  0  0  0  0  0  0  0  0  0
    8.6499  -12.8864    2.3454 C   0  0  0  0  0  0  0  0  0  0  0  0
    7.3390  -12.4508    2.4664 C   0  0  0  0  0  0  0  0  0  0  0  0
    6.9320  -11.7986    3.5553 C   0  0  0  0  0  0  0  0  0  0  0  0
    5.8605  -10.5724    5.4036 C   0  0  0  0  0  0  0  0  0  0  0  0
    7.7671  -11.5211    4.5884 C   0  0  0  0  0  0  0  0  0  0  0  0
    7.4114  -10.3238    6.8034 C   0  0  0  0  0  0  0  0  0  0  0  0
    7.1582  -10.8475    5.6005 N   0  0  0  0  0  0  0  0  0  0  0  0
    6.2949   -9.7734    7.2617 N   0  0  0  0  0  0  0  0  0  0  0  0
    5.4078   -9.9120    6.4632 N   0  0  0  0  0  0  0  0  0  0  0  0
    5.4208  -11.1805    3.9374 S   0  0  0  0  0  0  0  0  0  0  0  0
    4.4860   -9.5857    6.5770 H   0  0  0  0  0  0  0  0  0  0  0  0
  1  2  1  0  0  0
  1  3  2  0  0  0
  1  8  1  0  0  0
  3  4  1  0  0  0
  4  5  2  0  0  0
  5  6  1  0  0  0
  6  8  2  0  0  0
  6 13  1  0  0  0
  7 10  1  0  0  0
  7 12  2  0  0  0
  7 13  1  0  0  0
  8 10  1  0  0  0
  9 10  1  0  0  0
  9 11  2  0  0  0
 11 12  1  0  0  0
 12 14  1  0  0  0
M  CHG 1  12   1
M  END
> <minimizedAffinity>
-6.38279

$$$$
5EQ1_BEA_A_801


 14 16  0  0  0  0  0  0  0  0999 V2000
    6.0951  -10.9605    4.6590 C   0  0  0  0  0  0  0  0  0  0  0  0
    5.3455  -11.2425    3.5109 C   0  0  0  0  0  0  0  0  0  0  0  0
    5.4803  -10.2127    5.6594 C   0  0  0  0  0  0  0  0  0  0  0  0
    6.1866   -9.9108    6.8127 C   0  0  0  0  0  0  0  0  0  0  0  0
    7.4903  -10.3732    6.9093 C   0  0  0  0  0  0  0  0  0  0  0  0
    8.0372  -11.0896    5.9273 C   0  0  0  0  0  0  0  0  0  0  0  0
    9.3448  -12.4162    4.3153 C   0  0  0  0  0  0  0  0  0  0  0  0
    7.3618  -11.3956    4.7907 C   0  0  0  0  0  0  0  0  0  0  0  0
    8.0138  -12.7073    2.7120 C   0  0  0  0  0  0  0  0  0  0  0  0
    8.0972  -12.1307    3.9145 N   0  0  0  0  0  0  0  0  0  0  0  0
    9.1748  -13.2925    2.4491 N   0  0  0  0  0  0  0  0  0  0  0  0
    9.9378  -13.1259    3.3623 N   0  0  0  0  0  0  0  0  0  0  0  0
    9.5710  -11.7564    5.8074 S   0  0  0  0  0  0  0  0  0  0  0  0
   10.8617  -13.4641    3.3984 H   0  0  0  0  0  0  0  0  0  0  0  0
  1  2  1  0  0  0
  1  3  2  0  0  0
  1  8  1  0  0  0
  3  4  1  0  0  0
  4  5  2  0  0  0
  5  6  1  0  0  0
  6  8  2  0  0  0
  6 13  1  0  0  0
  7 10  1  0  0  0
  7 12  2  0  0  0
  7 13  1  0  0  0
  8 10  1  0  0  0
  9 10  1  0  0  0
  9 11  2  0  0  0
 11 12  1  0  0  0
 12 14  1  0  0  0
M  CHG 1  12   1
M  END
> <minimizedAffinity>
-6.30975

$$$$
5EQ1_BEA_A_801


 14 16  0  0  0  0  0  0  0  0999 V2000
    7.2030  -11.0579    5.4792 C   0  0  0  0  0  0  0  0  0  0  0  0
    5.8369  -10.7561    5.4332 C   0  0  0  0  0  0  0  0  0  0  0  0
    7.9275  -10.5900    6.5719 C   0  0  0  0  0  0  0  0  0  0  0  0
    9.2827  -10.8662    6.6568 C   0  0  0  0  0  0  0  0  0  0  0  0
    9.8556  -11.6022    5.6307 C   0  0  0  0  0  0  0  0  0  0  0  0
    9.1218  -12.0332    4.6049 C   0  0  0  0  0  0  0  0  0  0  0  0
    8.0724  -12.9665    2.5810 C   0  0  0  0  0  0  0  0  0  0  0  0
    7.7936  -11.7732    4.5041 C   0  0  0  0  0  0  0  0  0  0  0  0
    6.0563  -12.3900    2.7526 C   0  0  0  0  0  0  0  0  0  0  0  0
    7.2307  -12.2986    3.3834 N   0  0  0  0  0  0  0  0  0  0  0  0
    6.2360  -13.0827    1.6358 N   0  0  0  0  0  0  0  0  0  0  0  0
    7.3872  -13.4114    1.5340 N   0  0  0  0  0  0  0  0  0  0  0  0
    9.5719  -12.9303    3.2617 S   0  0  0  0  0  0  0  0  0  0  0  0
    7.7650  -13.9314    0.7882 H   0  0  0  0  0  0  0  0  0  0  0  0
  1  2  1  0  0  0
  1  3  2  0  0  0
  1  8  1  0  0  0
  3  4  1  0  0  0
  4  5  2  0  0  0
  5  6  1  0  0  0
  6  8  2  0  0  0
  6 13  1  0  0  0
  7 10  1  0  0  0
  7 12  2  0  0  0
  7 13  1  0  0  0
  8 10  1  0  0  0
  9 10  1  0  0  0
  9 11  2  0  0  0
 11 12  1  0  0  0
 12 14  1  0  0  0
M  CHG 1  12   1
M  END
> <minimizedAffinity>
-6.30308

$$$$
5EQ1_BEA_A_801


 14 16  0  0  0  0  0  0  0  0999 V2000
    7.8948  -11.8455    4.2573 C   0  0  0  0  0  0  0  0  0  0  0  0
    9.2195  -12.2939    4.1989 C   0  0  0  0  0  0  0  0  0  0  0  0
    7.0601  -12.1685    3.1911 C   0  0  0  0  0  0  0  0  0  0  0  0
    5.7411  -11.7442    3.2085 C   0  0  0  0  0  0  0  0  0  0  0  0
    5.3166  -11.0053    4.3024 C   0  0  0  0  0  0  0  0  0  0  0  0
    6.1504  -10.7227    5.3032 C   0  0  0  0  0  0  0  0  0  0  0  0
    7.4153  -10.0218    7.2974 C   0  0  0  0  0  0  0  0  0  0  0  0
    7.4452  -11.1294    5.3044 C   0  0  0  0  0  0  0  0  0  0  0  0
    9.3375  -10.8134    6.9734 C   0  0  0  0  0  0  0  0  0  0  0  0
    8.1266  -10.7368    6.4136 N   0  0  0  0  0  0  0  0  0  0  0  0
    9.3045  -10.1621    8.1284 N   0  0  0  0  0  0  0  0  0  0  0  0
    8.2082   -9.7069    8.3151 N   0  0  0  0  0  0  0  0  0  0  0  0
    5.8822   -9.8616    6.7167 S   0  0  0  0  0  0  0  0  0  0  0  0
    7.9390   -9.1807    9.1024 H   0  0  0  0  0  0  0  0  0  0  0  0
  1  2  1  0  0  0
  1  3  2  0  0  0
  1  8  1  0  0  0
  3  4  1  0  0  0
  4  5  2  0  0  0
  5  6  1  0  0  0
  6  8  2  0  0  0
  6 13  1  0  0  0
  7 10  1  0  0  0
  7 12  2  0  0  0
  7 13  1  0  0  0
  8 10  1  0  0  0
  9 10  1  0  0  0
  9 11  2  0  0  0
 11 12  1  0  0  0
 12 14  1  0  0  0
M  CHG 1  12   1
M  END
> <minimizedAffinity>
-6.17091

$$$$
5EQ1_BEA_A_801


 14 16  0  0  0  0  0  0  0  0999 V2000
    8.1873  -11.3701    5.6416 C   0  0  0  0  0  0  0  0  0  0  0  0
    9.4815  -11.7901    5.9706 C   0  0  0  0  0  0  0  0  0  0  0  0
    7.5446  -10.5139    6.5314 C   0  0  0  0  0  0  0  0  0  0  0  0
    6.2623  -10.0740    6.2443 C   0  0  0  0  0  0  0  0  0  0  0  0
    5.6763  -10.5201    5.0695 C   0  0  0  0  0  0  0  0  0  0  0  0
    6.3312  -11.3372    4.2448 C   0  0  0  0  0  0  0  0  0  0  0  0
    7.2436  -12.8407    2.5200 C   0  0  0  0  0  0  0  0  0  0  0  0
    7.5872  -11.7786    4.5083 C   0  0  0  0  0  0  0  0  0  0  0  0
    9.1647  -13.3140    3.2355 C   0  0  0  0  0  0  0  0  0  0  0  0
    8.0758  -12.6040    3.5446 N   0  0  0  0  0  0  0  0  0  0  0  0
    8.9476  -13.9279    2.0798 N   0  0  0  0  0  0  0  0  0  0  0  0
    7.8501  -13.6611    1.6699 N   0  0  0  0  0  0  0  0  0  0  0  0
    5.8492  -12.0047    2.7841 S   0  0  0  0  0  0  0  0  0  0  0  0
    7.4600  -13.9991    0.8315 H   0  0  0  0  0  0  0  0  0  0  0  0
  1  2  1  0  0  0
  1  3  2  0  0  0
  1  8  1  0  0  0
  3  4  1  0  0  0
  4  5  2  0  0  0
  5  6  1  0  0  0
  6  8  2  0  0  0
  6 13  1  0  0  0
  7 10  1  0  0  0
  7 12  2  0  0  0
  7 13  1  0  0  0
  8 10  1  0  0  0
  9 10  1  0  0  0
  9 11  2  0  0  0
 11 12  1  0  0  0
 12 14  1  0  0  0
M  CHG 1  12   1
M  END
> <minimizedAffinity>
-6.11230

$$$$
5EQ1_BEA_A_801


 14 16  0  0  0  0  0  0  0  0999 V2000
    9.3780  -11.7705    4.8708 C   0  0  0  0  0  0  0  0  0  0  0  0
    9.7577  -12.4167    3.6885 C   0  0  0  0  0  0  0  0  0  0  0  0
   10.3740  -11.5081    5.8073 C   0  0  0  0  0  0  0  0  0  0  0  0
   10.0415  -10.8702    6.9916 C   0  0  0  0  0  0  0  0  0  0  0  0
    8.7127  -10.5249    7.1862 C   0  0  0  0  0  0  0  0  0  0  0  0
    7.7929  -10.7927    6.2594 C   0  0  0  0  0  0  0  0  0  0  0  0
    5.8574  -11.1427    4.7764 C   0  0  0  0  0  0  0  0  0  0  0  0
    8.0989  -11.4163    5.0936 C   0  0  0  0  0  0  0  0  0  0  0  0
    6.6822  -12.1060    3.0976 C   0  0  0  0  0  0  0  0  0  0  0  0
    7.0198  -11.5979    4.2865 N   0  0  0  0  0  0  0  0  0  0  0  0
    5.3766  -11.9426    2.9302 N   0  0  0  0  0  0  0  0  0  0  0  0
    4.9024  -11.3946    3.8886 N   0  0  0  0  0  0  0  0  0  0  0  0
    6.1458  -10.4783    6.2557 S   0  0  0  0  0  0  0  0  0  0  0  0
    3.9510  -11.1669    3.9988 H   0  0  0  0  0  0  0  0  0  0  0  0
  1  2  1  0  0  0
  1  3  2  0  0  0
  1  8  1  0  0  0
  3  4  1  0  0  0
  4  5  2  0  0  0
  5  6  1  0  0  0
  6  8  2  0  0  0
  6 13  1  0  0  0
  7 10  1  0  0  0
  7 12  2  0  0  0
  7 13  1  0  0  0
  8 10  1  0  0  0
  9 10  1  0  0  0
  9 11  2  0  0  0
 11 12  1  0  0  0
 12 14  1  0  0  0
M  CHG 1  12   1
M  END
> <minimizedAffinity>
-5.70530

$$$$
5EQ1_BEA_A_801


 14 16  0  0  0  0  0  0  0  0999 V2000
    8.2222  -11.5093    5.3583 C   0  0  0  0  0  0  0  0  0  0  0  0
    9.1205  -12.2768    4.6076 C   0  0  0  0  0  0  0  0  0  0  0  0
    6.9089  -11.4304    4.9033 C   0  0  0  0  0  0  0  0  0  0  0  0
    5.9870  -10.6810    5.6164 C   0  0  0  0  0  0  0  0  0  0  0  0
    6.4291  -10.0357    6.7614 C   0  0  0  0  0  0  0  0  0  0  0  0
    7.6959  -10.1426    7.1617 C   0  0  0  0  0  0  0  0  0  0  0  0
    9.9436  -10.1195    8.1696 C   0  0  0  0  0  0  0  0  0  0  0  0
    8.6133  -10.8718    6.4772 C   0  0  0  0  0  0  0  0  0  0  0  0
   11.0819  -11.3303    6.8793 C   0  0  0  0  0  0  0  0  0  0  0  0
    9.8465  -10.8506    7.0494 N   0  0  0  0  0  0  0  0  0  0  0  0
   11.8432  -10.8812    7.8683 N   0  0  0  0  0  0  0  0  0  0  0  0
   11.1961  -10.1875    8.6057 N   0  0  0  0  0  0  0  0  0  0  0  0
    8.4640   -9.4720    8.4929 S   0  0  0  0  0  0  0  0  0  0  0  0
   11.5417   -9.7380    9.4106 H   0  0  0  0  0  0  0  0  0  0  0  0
  1  2  1  0  0  0
  1  3  2  0  0  0
  1  8  1  0  0  0
  3  4  1  0  0  0
  4  5  2  0  0  0
  5  6  1  0  0  0
  6  8  2  0  0  0
  6 13  1  0  0  0
  7 10  1  0  0  0
  7 12  2  0  0  0
  7 13  1  0  0  0
  8 10  1  0  0  0
  9 10  1  0  0  0
  9 11  2  0  0  0
 11 12  1  0  0  0
 12 14  1  0  0  0
M  CHG 1  12   1
M  END
> <minimizedAffinity>
-5.06282

$$$$
