4UFK_LDU_A_1001


 13 13  0  0  0  0  0  0  0  0999 V2000
   78.4651   87.2494   20.4602 O   0  0  0  0  0  0  0  0  0  0  0  0
   78.7155   88.6367   20.3183 C   0  0  0  0  0  0  0  0  0  0  0  0
   77.4692   89.4376   20.6684 C   0  0  0  0  0  0  0  0  0  0  0  0
   76.9121   89.0381   21.9214 O   0  0  0  0  0  0  0  0  0  0  0  0
   76.5428   89.1194   19.5100 C   0  0  0  0  0  0  0  0  0  0  0  0
   77.4599   89.0014   18.3435 N   0  0  0  0  0  0  0  0  0  0  0  0
   78.8480   89.0327   18.8459 C   0  0  0  0  0  0  0  0  0  0  0  0
   78.3863   87.0298   21.4018 H   0  0  0  0  0  0  0  0  0  0  0  0
   76.7103   88.0896   21.8978 H   0  0  0  0  0  0  0  0  0  0  0  0
   77.3065   89.7803   17.7030 H   0  0  0  0  0  0  0  0  0  0  0  0
   79.7346   88.0956   18.0519 C   0  0  0  0  0  0  0  0  0  0  0  0
   80.0639   88.6656   16.7955 O   0  0  0  0  0  0  0  0  0  0  0  0
   79.2517   88.8235   16.2892 H   0  0  0  0  0  0  0  0  0  0  0  0
  1  2  1  0  0  0
  2  3  1  0  0  0
  2  7  1  0  0  0
  3  4  1  0  0  0
  3  5  1  0  0  0
  5  6  1  0  0  0
  6  7  1  0  0  0
  7 11  1  0  0  0
 11 12  1  0  0  0
  1  8  1  0  0  0
  4  9  1  0  0  0
  6 10  1  0  0  0
 12 13  1  0  0  0
M  END
> <minimizedAffinity>
-6.27337

$$$$
4UFK_LDU_A_1001


 13 13  0  0  0  0  0  0  0  0999 V2000
   79.5705   90.0413   18.4992 O   0  0  0  0  0  0  0  0  0  0  0  0
   79.3045   88.7254   18.9521 C   0  0  0  0  0  0  0  0  0  0  0  0
   79.1983   87.7709   17.7709 C   0  0  0  0  0  0  0  0  0  0  0  0
   80.3045   87.9022   16.8770 O   0  0  0  0  0  0  0  0  0  0  0  0
   77.8943   88.1987   17.1242 C   0  0  0  0  0  0  0  0  0  0  0  0
   77.0384   88.5923   18.2766 N   0  0  0  0  0  0  0  0  0  0  0  0
   77.8779   88.5977   19.4913 C   0  0  0  0  0  0  0  0  0  0  0  0
   80.4795   90.0905   18.1644 H   0  0  0  0  0  0  0  0  0  0  0  0
   80.3631   88.8197   16.5676 H   0  0  0  0  0  0  0  0  0  0  0  0
   76.2767   87.9228   18.3859 H   0  0  0  0  0  0  0  0  0  0  0  0
   77.4853   89.7296   20.4182 C   0  0  0  0  0  0  0  0  0  0  0  0
   77.0342   89.2209   21.6631 O   0  0  0  0  0  0  0  0  0  0  0  0
   76.2579   88.6572   21.5199 H   0  0  0  0  0  0  0  0  0  0  0  0
  1  2  1  0  0  0
  2  3  1  0  0  0
  2  7  1  0  0  0
  3  4  1  0  0  0
  3  5  1  0  0  0
  5  6  1  0  0  0
  6  7  1  0  0  0
  7 11  1  0  0  0
 11 12  1  0  0  0
  1  8  1  0  0  0
  4  9  1  0  0  0
  6 10  1  0  0  0
 12 13  1  0  0  0
M  END
> <minimizedAffinity>
-6.18115

$$$$
4UFK_LDU_A_1001


 13 13  0  0  0  0  0  0  0  0999 V2000
   77.2393   89.2057   17.6604 O   0  0  0  0  0  0  0  0  0  0  0  0
   77.3317   88.2381   18.6912 C   0  0  0  0  0  0  0  0  0  0  0  0
   77.0257   88.8723   20.0408 C   0  0  0  0  0  0  0  0  0  0  0  0
   75.8140   89.6281   20.0134 O   0  0  0  0  0  0  0  0  0  0  0  0
   78.2384   89.7553   20.2671 C   0  0  0  0  0  0  0  0  0  0  0  0
   79.3585   88.9817   19.6651 N   0  0  0  0  0  0  0  0  0  0  0  0
   78.7845   87.8283   18.9440 C   0  0  0  0  0  0  0  0  0  0  0  0
   76.3092   89.4448   17.5238 H   0  0  0  0  0  0  0  0  0  0  0  0
   75.8729   90.3084   19.3244 H   0  0  0  0  0  0  0  0  0  0  0  0
   79.9855   88.6530   20.3995 H   0  0  0  0  0  0  0  0  0  0  0  0
   79.5558   87.5441   17.6716 C   0  0  0  0  0  0  0  0  0  0  0  0
   79.9617   88.7546   17.0536 O   0  0  0  0  0  0  0  0  0  0  0  0
   79.1786   89.2807   16.8277 H   0  0  0  0  0  0  0  0  0  0  0  0
  1  2  1  0  0  0
  2  3  1  0  0  0
  2  7  1  0  0  0
  3  4  1  0  0  0
  3  5  1  0  0  0
  5  6  1  0  0  0
  6  7  1  0  0  0
  7 11  1  0  0  0
 11 12  1  0  0  0
  1  8  1  0  0  0
  4  9  1  0  0  0
  6 10  1  0  0  0
 12 13  1  0  0  0
M  END
> <minimizedAffinity>
-6.07438

$$$$
4UFK_LDU_A_1001


 13 13  0  0  0  0  0  0  0  0999 V2000
   76.7531   87.5668   18.3898 O   0  0  0  0  0  0  0  0  0  0  0  0
   77.8675   88.4415   18.4066 C   0  0  0  0  0  0  0  0  0  0  0  0
   79.1649   87.6452   18.4082 C   0  0  0  0  0  0  0  0  0  0  0  0
   79.1808   86.6480   17.3857 O   0  0  0  0  0  0  0  0  0  0  0  0
   79.1680   87.0326   19.7961 C   0  0  0  0  0  0  0  0  0  0  0  0
   78.5411   88.0797   20.6481 N   0  0  0  0  0  0  0  0  0  0  0  0
   78.0121   89.1361   19.7626 C   0  0  0  0  0  0  0  0  0  0  0  0
   76.6880   87.1427   17.5198 H   0  0  0  0  0  0  0  0  0  0  0  0
   78.4198   86.0571   17.4985 H   0  0  0  0  0  0  0  0  0  0  0  0
   79.2382   88.4748   21.2793 H   0  0  0  0  0  0  0  0  0  0  0  0
   76.7053   89.6873   20.2946 C   0  0  0  0  0  0  0  0  0  0  0  0
   75.8411   90.0398   19.2265 O   0  0  0  0  0  0  0  0  0  0  0  0
   76.2631   90.7217   18.6807 H   0  0  0  0  0  0  0  0  0  0  0  0
  1  2  1  0  0  0
  2  3  1  0  0  0
  2  7  1  0  0  0
  3  4  1  0  0  0
  3  5  1  0  0  0
  5  6  1  0  0  0
  6  7  1  0  0  0
  7 11  1  0  0  0
 11 12  1  0  0  0
  1  8  1  0  0  0
  4  9  1  0  0  0
  6 10  1  0  0  0
 12 13  1  0  0  0
M  END
> <minimizedAffinity>
-5.59956

$$$$
4UFK_LDU_A_1001


 13 13  0  0  0  0  0  0  0  0999 V2000
   76.6791   88.3236   18.5738 O   0  0  0  0  0  0  0  0  0  0  0  0
   77.9968   88.8344   18.4739 C   0  0  0  0  0  0  0  0  0  0  0  0
   78.9698   87.7207   18.1126 C   0  0  0  0  0  0  0  0  0  0  0  0
   78.5182   86.9599   16.9913 O   0  0  0  0  0  0  0  0  0  0  0  0
   79.0010   86.8921   19.3830 C   0  0  0  0  0  0  0  0  0  0  0  0
   78.8678   87.9014   20.4689 N   0  0  0  0  0  0  0  0  0  0  0  0
   78.5581   89.2050   19.8487 C   0  0  0  0  0  0  0  0  0  0  0  0
   76.3517   88.0984   17.6889 H   0  0  0  0  0  0  0  0  0  0  0  0
   77.6398   86.5947   17.1810 H   0  0  0  0  0  0  0  0  0  0  0  0
   79.7422   87.9657   20.9902 H   0  0  0  0  0  0  0  0  0  0  0  0
   77.5842   89.9939   20.6994 C   0  0  0  0  0  0  0  0  0  0  0  0
   76.9275   89.1429   21.6248 O   0  0  0  0  0  0  0  0  0  0  0  0
   76.4331   88.4615   21.1429 H   0  0  0  0  0  0  0  0  0  0  0  0
  1  2  1  0  0  0
  2  3  1  0  0  0
  2  7  1  0  0  0
  3  4  1  0  0  0
  3  5  1  0  0  0
  5  6  1  0  0  0
  6  7  1  0  0  0
  7 11  1  0  0  0
 11 12  1  0  0  0
  1  8  1  0  0  0
  4  9  1  0  0  0
  6 10  1  0  0  0
 12 13  1  0  0  0
M  END
> <minimizedAffinity>
-5.53864

$$$$
4UFK_LDU_A_1001


 13 13  0  0  0  0  0  0  0  0999 V2000
   76.2102   89.3747   18.8651 O   0  0  0  0  0  0  0  0  0  0  0  0
   77.0337   88.2931   19.2640 C   0  0  0  0  0  0  0  0  0  0  0  0
   77.7274   88.6141   20.5805 C   0  0  0  0  0  0  0  0  0  0  0  0
   76.8084   89.0843   21.5677 O   0  0  0  0  0  0  0  0  0  0  0  0
   78.7178   89.6881   20.1721 C   0  0  0  0  0  0  0  0  0  0  0  0
   79.1339   89.2851   18.8010 N   0  0  0  0  0  0  0  0  0  0  0  0
   78.2680   88.1704   18.3675 C   0  0  0  0  0  0  0  0  0  0  0  0
   75.4384   89.4265   19.4504 H   0  0  0  0  0  0  0  0  0  0  0  0
   76.3431   89.8656   21.2301 H   0  0  0  0  0  0  0  0  0  0  0  0
   80.1080   88.9827   18.8102 H   0  0  0  0  0  0  0  0  0  0  0  0
   77.9473   88.2739   16.8907 C   0  0  0  0  0  0  0  0  0  0  0  0
   76.9140   87.3675   16.5402 O   0  0  0  0  0  0  0  0  0  0  0  0
   77.2012   86.4607   16.7298 H   0  0  0  0  0  0  0  0  0  0  0  0
  1  2  1  0  0  0
  2  3  1  0  0  0
  2  7  1  0  0  0
  3  4  1  0  0  0
  3  5  1  0  0  0
  5  6  1  0  0  0
  6  7  1  0  0  0
  7 11  1  0  0  0
 11 12  1  0  0  0
  1  8  1  0  0  0
  4  9  1  0  0  0
  6 10  1  0  0  0
 12 13  1  0  0  0
M  END
> <minimizedAffinity>
-5.48300

$$$$
4UFK_LDU_A_1001


 13 13  0  0  0  0  0  0  0  0999 V2000
   78.9056   87.0762   20.1622 O   0  0  0  0  0  0  0  0  0  0  0  0
   77.9716   87.5897   19.2288 C   0  0  0  0  0  0  0  0  0  0  0  0
   78.4603   87.3530   17.8067 C   0  0  0  0  0  0  0  0  0  0  0  0
   78.8575   85.9971   17.5972 O   0  0  0  0  0  0  0  0  0  0  0  0
   79.6339   88.3088   17.7035 C   0  0  0  0  0  0  0  0  0  0  0  0
   79.2122   89.4790   18.5211 N   0  0  0  0  0  0  0  0  0  0  0  0
   77.9665   89.1202   19.2278 C   0  0  0  0  0  0  0  0  0  0  0  0
   78.8857   86.1067   20.1396 H   0  0  0  0  0  0  0  0  0  0  0  0
   79.5470   85.7597   18.2368 H   0  0  0  0  0  0  0  0  0  0  0  0
   79.0466   90.2825   17.9150 H   0  0  0  0  0  0  0  0  0  0  0  0
   77.9390   89.7191   20.6189 C   0  0  0  0  0  0  0  0  0  0  0  0
   77.0700   88.9808   21.4626 O   0  0  0  0  0  0  0  0  0  0  0  0
   76.1706   89.0038   21.1000 H   0  0  0  0  0  0  0  0  0  0  0  0
  1  2  1  0  0  0
  2  3  1  0  0  0
  2  7  1  0  0  0
  3  4  1  0  0  0
  3  5  1  0  0  0
  5  6  1  0  0  0
  6  7  1  0  0  0
  7 11  1  0  0  0
 11 12  1  0  0  0
  1  8  1  0  0  0
  4  9  1  0  0  0
  6 10  1  0  0  0
 12 13  1  0  0  0
M  END
> <minimizedAffinity>
-5.38960

$$$$
4UFK_LDU_A_1001


 13 13  0  0  0  0  0  0  0  0999 V2000
   78.1122   86.7104   19.9595 O   0  0  0  0  0  0  0  0  0  0  0  0
   78.7090   87.8113   19.2968 C   0  0  0  0  0  0  0  0  0  0  0  0
   78.4180   89.1024   20.0489 C   0  0  0  0  0  0  0  0  0  0  0  0
   78.7147   88.9880   21.4413 O   0  0  0  0  0  0  0  0  0  0  0  0
   76.9338   89.2952   19.8006 C   0  0  0  0  0  0  0  0  0  0  0  0
   76.7350   88.7810   18.4179 N   0  0  0  0  0  0  0  0  0  0  0  0
   77.9883   88.1313   17.9851 C   0  0  0  0  0  0  0  0  0  0  0  0
   78.5896   86.5323   20.7849 H   0  0  0  0  0  0  0  0  0  0  0  0
   78.2081   88.2529   21.8205 H   0  0  0  0  0  0  0  0  0  0  0  0
   76.5116   89.5536   17.7906 H   0  0  0  0  0  0  0  0  0  0  0  0
   77.7022   86.9039   17.1449 C   0  0  0  0  0  0  0  0  0  0  0  0
   78.7770   85.9818   17.2269 O   0  0  0  0  0  0  0  0  0  0  0  0
   79.5873   86.3995   16.8955 H   0  0  0  0  0  0  0  0  0  0  0  0
  1  2  1  0  0  0
  2  3  1  0  0  0
  2  7  1  0  0  0
  3  4  1  0  0  0
  3  5  1  0  0  0
  5  6  1  0  0  0
  6  7  1  0  0  0
  7 11  1  0  0  0
 11 12  1  0  0  0
  1  8  1  0  0  0
  4  9  1  0  0  0
  6 10  1  0  0  0
 12 13  1  0  0  0
M  END
> <minimizedAffinity>
-5.33156

$$$$
4UFK_LDU_A_1001


 13 13  0  0  0  0  0  0  0  0999 V2000
   80.0123   87.1471   17.2424 O   0  0  0  0  0  0  0  0  0  0  0  0
   78.7910   87.6556   17.7493 C   0  0  0  0  0  0  0  0  0  0  0  0
   79.0511   88.8527   18.6532 C   0  0  0  0  0  0  0  0  0  0  0  0
   79.9077   89.8133   18.0340 O   0  0  0  0  0  0  0  0  0  0  0  0
   79.7026   88.2102   19.8632 C   0  0  0  0  0  0  0  0  0  0  0  0
   79.0146   86.8956   19.9813 N   0  0  0  0  0  0  0  0  0  0  0  0
   78.1760   86.7068   18.7808 C   0  0  0  0  0  0  0  0  0  0  0  0
   80.3766   87.7687   16.5929 H   0  0  0  0  0  0  0  0  0  0  0  0
   80.7433   89.3883   17.7849 H   0  0  0  0  0  0  0  0  0  0  0  0
   78.4296   86.8855   20.8167 H   0  0  0  0  0  0  0  0  0  0  0  0
   78.1793   85.2583   18.3378 C   0  0  0  0  0  0  0  0  0  0  0  0
   78.2030   85.1698   16.9223 O   0  0  0  0  0  0  0  0  0  0  0  0
   77.4142   85.6012   16.5581 H   0  0  0  0  0  0  0  0  0  0  0  0
  1  2  1  0  0  0
  2  3  1  0  0  0
  2  7  1  0  0  0
  3  4  1  0  0  0
  3  5  1  0  0  0
  5  6  1  0  0  0
  6  7  1  0  0  0
  7 11  1  0  0  0
 11 12  1  0  0  0
  1  8  1  0  0  0
  4  9  1  0  0  0
  6 10  1  0  0  0
 12 13  1  0  0  0
M  END
> <minimizedAffinity>
-5.07341

$$$$
4UFK_LDU_A_1001


 13 13  0  0  0  0  0  0  0  0999 V2000
   76.9766   88.3789   18.0142 O   0  0  0  0  0  0  0  0  0  0  0  0
   78.0183   87.6415   17.3989 C   0  0  0  0  0  0  0  0  0  0  0  0
   77.5989   86.1904   17.2099 C   0  0  0  0  0  0  0  0  0  0  0  0
   76.3177   86.0815   16.5880 O   0  0  0  0  0  0  0  0  0  0  0  0
   77.5826   85.6691   18.6344 C   0  0  0  0  0  0  0  0  0  0  0  0
   78.7051   86.3932   19.2908 N   0  0  0  0  0  0  0  0  0  0  0  0
   79.1926   87.4277   18.3569 C   0  0  0  0  0  0  0  0  0  0  0  0
   76.2489   88.4978   17.3840 H   0  0  0  0  0  0  0  0  0  0  0  0
   75.6597   86.5587   17.1174 H   0  0  0  0  0  0  0  0  0  0  0  0
   79.4583   85.7402   19.5071 H   0  0  0  0  0  0  0  0  0  0  0  0
   79.5948   88.6849   19.1000 C   0  0  0  0  0  0  0  0  0  0  0  0
   79.5831   89.8044   18.2290 O   0  0  0  0  0  0  0  0  0  0  0  0
   80.2141   89.6587   17.5068 H   0  0  0  0  0  0  0  0  0  0  0  0
  1  2  1  0  0  0
  2  3  1  0  0  0
  2  7  1  0  0  0
  3  4  1  0  0  0
  3  5  1  0  0  0
  5  6  1  0  0  0
  6  7  1  0  0  0
  7 11  1  0  0  0
 11 12  1  0  0  0
  1  8  1  0  0  0
  4  9  1  0  0  0
  6 10  1  0  0  0
 12 13  1  0  0  0
M  END
> <minimizedAffinity>
-4.74189

$$$$
