4IPJ_LMR_A_402


 12 11  0  0  0  0  0  0  0  0999 V2000
   96.3690  -19.6502   53.4346 C   0  0  0  0  0  0  0  0  0  0  0  0
   96.9283  -18.6500   52.6031 O   0  0  0  0  0  0  0  0  0  0  0  0
   97.6650  -18.2202   53.0651 H   0  0  0  0  0  0  0  0  0  0  0  0
   95.9000  -19.0184   54.6966 C   0  0  0  0  0  0  0  0  0  0  0  0
   96.1234  -17.7920   54.8804 O   0  0  0  0  0  0  0  0  0  0  0  0
   95.3105  -19.7234   55.5615 O   0  0  0  0  0  0  0  0  0  0  0  0
   95.1572  -20.6334   55.3988 H   0  0  0  0  0  0  0  0  0  0  0  0
   97.3824  -20.7405   53.7867 C   0  0  0  0  0  0  0  0  0  0  0  0
   98.7371  -20.4254   53.1909 C   0  0  0  0  0  0  0  0  0  0  0  0
   99.1392  -20.9410   52.1240 O   0  0  0  0  0  0  0  0  0  0  0  0
   99.4908  -19.6187   53.7593 O   0  0  0  0  0  0  0  0  0  0  0  0
   98.5979  -21.5541   51.6669 H   0  0  0  0  0  0  0  0  0  0  0  0
  4  5  2  0  0  0
  4  6  1  0  0  0
  4  1  1  0  0  0
  1  2  1  0  0  0
  1  8  1  0  0  0
  8  9  1  0  0  0
  9 10  1  0  0  0
  9 11  2  0  0  0
  6  7  1  0  0  0
  2  3  1  0  0  0
 10 12  1  0  0  0
M  END
> <minimizedAffinity>
-6.76838

$$$$
4IPJ_LMR_A_402


 12 11  0  0  0  0  0  0  0  0999 V2000
   97.4180  -19.7942   52.8614 C   0  0  0  0  0  0  0  0  0  0  0  0
   96.9443  -20.2138   51.5949 O   0  0  0  0  0  0  0  0  0  0  0  0
   97.0121  -21.1791   51.5279 H   0  0  0  0  0  0  0  0  0  0  0  0
   98.8305  -20.2334   53.0154 C   0  0  0  0  0  0  0  0  0  0  0  0
   99.5315  -19.7139   53.9245 O   0  0  0  0  0  0  0  0  0  0  0  0
   99.3016  -21.0964   52.2243 O   0  0  0  0  0  0  0  0  0  0  0  0
   98.7578  -21.4665   51.5570 H   0  0  0  0  0  0  0  0  0  0  0  0
   96.5989  -20.3876   54.0089 C   0  0  0  0  0  0  0  0  0  0  0  0
   95.9777  -19.2913   54.8466 C   0  0  0  0  0  0  0  0  0  0  0  0
   96.2282  -18.0794   54.6613 O   0  0  0  0  0  0  0  0  0  0  0  0
   95.1774  -19.5813   55.7507 O   0  0  0  0  0  0  0  0  0  0  0  0
   96.8271  -17.8223   53.9882 H   0  0  0  0  0  0  0  0  0  0  0  0
  4  5  2  0  0  0
  4  6  1  0  0  0
  4  1  1  0  0  0
  1  2  1  0  0  0
  1  8  1  0  0  0
  8  9  1  0  0  0
  9 10  1  0  0  0
  9 11  2  0  0  0
  6  7  1  0  0  0
  2  3  1  0  0  0
 10 12  1  0  0  0
M  END
> <minimizedAffinity>
-6.59461

$$$$
4IPJ_LMR_A_402


 12 11  0  0  0  0  0  0  0  0999 V2000
   97.8954  -19.8810   53.4322 C   0  0  0  0  0  0  0  0  0  0  0  0
   98.1861  -18.6367   52.8225 O   0  0  0  0  0  0  0  0  0  0  0  0
   97.7593  -18.5954   51.9524 H   0  0  0  0  0  0  0  0  0  0  0  0
   98.3897  -20.9737   52.5526 C   0  0  0  0  0  0  0  0  0  0  0  0
   97.5657  -21.8220   52.1179 O   0  0  0  0  0  0  0  0  0  0  0  0
   99.6197  -21.0409   52.2785 O   0  0  0  0  0  0  0  0  0  0  0  0
  100.2107  -20.3965   52.6153 H   0  0  0  0  0  0  0  0  0  0  0  0
   96.3947  -20.0786   53.6525 C   0  0  0  0  0  0  0  0  0  0  0  0
   95.8916  -19.1738   54.7559 C   0  0  0  0  0  0  0  0  0  0  0  0
   96.1200  -17.9436   54.7738 O   0  0  0  0  0  0  0  0  0  0  0  0
   95.2147  -19.6463   55.6836 O   0  0  0  0  0  0  0  0  0  0  0  0
   96.6271  -17.5513   54.0905 H   0  0  0  0  0  0  0  0  0  0  0  0
  4  5  2  0  0  0
  4  6  1  0  0  0
  4  1  1  0  0  0
  1  2  1  0  0  0
  1  8  1  0  0  0
  8  9  1  0  0  0
  9 10  1  0  0  0
  9 11  2  0  0  0
  6  7  1  0  0  0
  2  3  1  0  0  0
 10 12  1  0  0  0
M  END
> <minimizedAffinity>
-6.36577

$$$$
4IPJ_LMR_A_402


 12 11  0  0  0  0  0  0  0  0999 V2000
   95.8638  -20.1376   53.9823 C   0  0  0  0  0  0  0  0  0  0  0  0
   94.7706  -20.5494   53.1824 O   0  0  0  0  0  0  0  0  0  0  0  0
   94.9339  -20.3010   52.2591 H   0  0  0  0  0  0  0  0  0  0  0  0
   96.0235  -18.6644   53.8554 C   0  0  0  0  0  0  0  0  0  0  0  0
   96.0568  -17.9655   54.9033 O   0  0  0  0  0  0  0  0  0  0  0  0
   96.1008  -18.1455   52.7077 O   0  0  0  0  0  0  0  0  0  0  0  0
   96.0735  -18.6890   51.9450 H   0  0  0  0  0  0  0  0  0  0  0  0
   97.1730  -20.8047   53.5573 C   0  0  0  0  0  0  0  0  0  0  0  0
   97.0604  -21.3601   52.1543 C   0  0  0  0  0  0  0  0  0  0  0  0
   96.9903  -20.6256   51.1437 O   0  0  0  0  0  0  0  0  0  0  0  0
   97.0465  -22.5886   51.9742 O   0  0  0  0  0  0  0  0  0  0  0  0
   96.9981  -19.6936   51.2404 H   0  0  0  0  0  0  0  0  0  0  0  0
  4  5  2  0  0  0
  4  6  1  0  0  0
  4  1  1  0  0  0
  1  2  1  0  0  0
  1  8  1  0  0  0
  8  9  1  0  0  0
  9 10  1  0  0  0
  9 11  2  0  0  0
  6  7  1  0  0  0
  2  3  1  0  0  0
 10 12  1  0  0  0
M  END
> <minimizedAffinity>
-6.29900

$$$$
4IPJ_LMR_A_402


 12 11  0  0  0  0  0  0  0  0999 V2000
   97.4326  -20.4628   52.8026 C   0  0  0  0  0  0  0  0  0  0  0  0
   97.1200  -20.5382   51.4238 O   0  0  0  0  0  0  0  0  0  0  0  0
   97.5204  -21.3362   51.0447 H   0  0  0  0  0  0  0  0  0  0  0  0
   98.9113  -20.4332   52.9587 C   0  0  0  0  0  0  0  0  0  0  0  0
   99.4177  -19.6313   53.7884 O   0  0  0  0  0  0  0  0  0  0  0  0
   99.6255  -21.1918   52.2467 O   0  0  0  0  0  0  0  0  0  0  0  0
   99.2226  -21.7787   51.6375 H   0  0  0  0  0  0  0  0  0  0  0  0
   96.8874  -21.6595   53.5838 C   0  0  0  0  0  0  0  0  0  0  0  0
   95.3744  -21.6443   53.6001 C   0  0  0  0  0  0  0  0  0  0  0  0
   94.7048  -20.7426   53.0485 O   0  0  0  0  0  0  0  0  0  0  0  0
   94.7523  -22.5573   54.1669 O   0  0  0  0  0  0  0  0  0  0  0  0
   95.1395  -20.0372   52.6109 H   0  0  0  0  0  0  0  0  0  0  0  0
  4  5  2  0  0  0
  4  6  1  0  0  0
  4  1  1  0  0  0
  1  2  1  0  0  0
  1  8  1  0  0  0
  8  9  1  0  0  0
  9 10  1  0  0  0
  9 11  2  0  0  0
  6  7  1  0  0  0
  2  3  1  0  0  0
 10 12  1  0  0  0
M  END
> <minimizedAffinity>
-6.05674

$$$$
4IPJ_LMR_A_402


 12 11  0  0  0  0  0  0  0  0999 V2000
   95.7389  -21.3841   53.4569 C   0  0  0  0  0  0  0  0  0  0  0  0
   94.5713  -20.6610   53.1126 O   0  0  0  0  0  0  0  0  0  0  0  0
   94.0941  -20.4140   53.9202 H   0  0  0  0  0  0  0  0  0  0  0  0
   95.3446  -22.5952   54.2248 C   0  0  0  0  0  0  0  0  0  0  0  0
   94.7886  -23.5465   53.6137 O   0  0  0  0  0  0  0  0  0  0  0  0
   95.5544  -22.6365   55.4686 O   0  0  0  0  0  0  0  0  0  0  0  0
   95.9699  -21.9147   55.8979 H   0  0  0  0  0  0  0  0  0  0  0  0
   96.6971  -20.5572   54.3157 C   0  0  0  0  0  0  0  0  0  0  0  0
   95.9842  -19.3666   54.9189 C   0  0  0  0  0  0  0  0  0  0  0  0
   96.2146  -18.1908   54.5581 O   0  0  0  0  0  0  0  0  0  0  0  0
   95.1258  -19.5400   55.7993 O   0  0  0  0  0  0  0  0  0  0  0  0
   96.8557  -18.0210   53.8962 H   0  0  0  0  0  0  0  0  0  0  0  0
  4  5  2  0  0  0
  4  6  1  0  0  0
  4  1  1  0  0  0
  1  2  1  0  0  0
  1  8  1  0  0  0
  8  9  1  0  0  0
  9 10  1  0  0  0
  9 11  2  0  0  0
  6  7  1  0  0  0
  2  3  1  0  0  0
 10 12  1  0  0  0
M  END
> <minimizedAffinity>
-5.87066

$$$$
4IPJ_LMR_A_402


 12 11  0  0  0  0  0  0  0  0999 V2000
   96.8178  -21.3472   52.4106 C   0  0  0  0  0  0  0  0  0  0  0  0
   96.9486  -20.7054   51.1555 O   0  0  0  0  0  0  0  0  0  0  0  0
   96.2896  -19.9972   51.0842 H   0  0  0  0  0  0  0  0  0  0  0  0
   95.4410  -21.8975   52.5273 C   0  0  0  0  0  0  0  0  0  0  0  0
   94.7383  -21.5681   53.5199 O   0  0  0  0  0  0  0  0  0  0  0  0
   95.0149  -22.6946   51.6465 O   0  0  0  0  0  0  0  0  0  0  0  0
   95.5588  -22.9226   50.9184 H   0  0  0  0  0  0  0  0  0  0  0  0
   97.0554  -20.3867   53.5771 C   0  0  0  0  0  0  0  0  0  0  0  0
   97.1415  -18.9582   53.0857 C   0  0  0  0  0  0  0  0  0  0  0  0
   96.1338  -18.2259   52.9666 O   0  0  0  0  0  0  0  0  0  0  0  0
   98.2451  -18.4693   52.7943 O   0  0  0  0  0  0  0  0  0  0  0  0
   95.2842  -18.5602   53.1772 H   0  0  0  0  0  0  0  0  0  0  0  0
  4  5  2  0  0  0
  4  6  1  0  0  0
  4  1  1  0  0  0
  1  2  1  0  0  0
  1  8  1  0  0  0
  8  9  1  0  0  0
  9 10  1  0  0  0
  9 11  2  0  0  0
  6  7  1  0  0  0
  2  3  1  0  0  0
 10 12  1  0  0  0
M  END
> <minimizedAffinity>
-5.64963

$$$$
4IPJ_LMR_A_402


 12 11  0  0  0  0  0  0  0  0999 V2000
   96.4896  -20.1760   54.5878 C   0  0  0  0  0  0  0  0  0  0  0  0
   95.3206  -20.0218   55.3715 O   0  0  0  0  0  0  0  0  0  0  0  0
   94.5387  -20.0776   54.8002 H   0  0  0  0  0  0  0  0  0  0  0  0
   96.5182  -19.1083   53.5529 C   0  0  0  0  0  0  0  0  0  0  0  0
   96.2041  -17.9339   53.8843 O   0  0  0  0  0  0  0  0  0  0  0  0
   96.8340  -19.4023   52.3669 O   0  0  0  0  0  0  0  0  0  0  0  0
   97.0634  -20.2840   52.1480 H   0  0  0  0  0  0  0  0  0  0  0  0
   96.5372  -21.5334   53.8841 C   0  0  0  0  0  0  0  0  0  0  0  0
   95.5749  -22.5059   54.5304 C   0  0  0  0  0  0  0  0  0  0  0  0
   95.8431  -23.1129   55.5912 O   0  0  0  0  0  0  0  0  0  0  0  0
   94.4665  -22.7168   54.0118 O   0  0  0  0  0  0  0  0  0  0  0  0
   96.6698  -22.9791   56.0114 H   0  0  0  0  0  0  0  0  0  0  0  0
  4  5  2  0  0  0
  4  6  1  0  0  0
  4  1  1  0  0  0
  1  2  1  0  0  0
  1  8  1  0  0  0
  8  9  1  0  0  0
  9 10  1  0  0  0
  9 11  2  0  0  0
  6  7  1  0  0  0
  2  3  1  0  0  0
 10 12  1  0  0  0
M  END
> <minimizedAffinity>
-5.61919

$$$$
4IPJ_LMR_A_402


 12 11  0  0  0  0  0  0  0  0999 V2000
   96.9078  -21.5457   53.8104 C   0  0  0  0  0  0  0  0  0  0  0  0
   96.6425  -22.9167   53.5766 O   0  0  0  0  0  0  0  0  0  0  0  0
   96.0428  -23.0055   52.8194 H   0  0  0  0  0  0  0  0  0  0  0  0
   95.6222  -20.8460   54.0740 C   0  0  0  0  0  0  0  0  0  0  0  0
   95.3906  -20.4205   55.2372 O   0  0  0  0  0  0  0  0  0  0  0  0
   94.7857  -20.7122   53.1386 O   0  0  0  0  0  0  0  0  0  0  0  0
   94.9838  -21.0382   52.2827 H   0  0  0  0  0  0  0  0  0  0  0  0
   97.5860  -20.8773   52.6133 C   0  0  0  0  0  0  0  0  0  0  0  0
   98.3646  -19.6563   53.0516 C   0  0  0  0  0  0  0  0  0  0  0  0
   99.4505  -19.7365   53.6683 O   0  0  0  0  0  0  0  0  0  0  0  0
   97.9344  -18.5211   52.7905 O   0  0  0  0  0  0  0  0  0  0  0  0
   99.8065  -20.5763   53.8828 H   0  0  0  0  0  0  0  0  0  0  0  0
  4  5  2  0  0  0
  4  6  1  0  0  0
  4  1  1  0  0  0
  1  2  1  0  0  0
  1  8  1  0  0  0
  8  9  1  0  0  0
  9 10  1  0  0  0
  9 11  2  0  0  0
  6  7  1  0  0  0
  2  3  1  0  0  0
 10 12  1  0  0  0
M  END
> <minimizedAffinity>
-5.52579

$$$$
4IPJ_LMR_A_402


 12 11  0  0  0  0  0  0  0  0999 V2000
   97.1068  -20.2972   53.8417 C   0  0  0  0  0  0  0  0  0  0  0  0
   95.9199  -19.7736   53.2747 O   0  0  0  0  0  0  0  0  0  0  0  0
   95.8731  -20.0199   52.3377 H   0  0  0  0  0  0  0  0  0  0  0  0
   98.2745  -19.7547   53.0973 C   0  0  0  0  0  0  0  0  0  0  0  0
   98.2860  -18.5315   52.7950 O   0  0  0  0  0  0  0  0  0  0  0  0
   99.2142  -20.5297   52.7672 O   0  0  0  0  0  0  0  0  0  0  0  0
   99.1800  -21.4354   53.0051 H   0  0  0  0  0  0  0  0  0  0  0  0
   97.1548  -21.8244   53.7708 C   0  0  0  0  0  0  0  0  0  0  0  0
   95.9224  -22.4292   54.4070 C   0  0  0  0  0  0  0  0  0  0  0  0
   94.7845  -22.3314   53.8957 O   0  0  0  0  0  0  0  0  0  0  0  0
   96.0219  -23.0606   55.4716 O   0  0  0  0  0  0  0  0  0  0  0  0
   94.6705  -21.8625   53.0925 H   0  0  0  0  0  0  0  0  0  0  0  0
  4  5  2  0  0  0
  4  6  1  0  0  0
  4  1  1  0  0  0
  1  2  1  0  0  0
  1  8  1  0  0  0
  8  9  1  0  0  0
  9 10  1  0  0  0
  9 11  2  0  0  0
  6  7  1  0  0  0
  2  3  1  0  0  0
 10 12  1  0  0  0
M  END
> <minimizedAffinity>
-5.37382

$$$$
