2VYT_MLZ_A_1244


 15 14  0  0  0  0  0  0  0  0999 V2000
   19.6732   39.2920   56.7575 N   0  0  0  0  0  0  0  0  0  0  0  0
   19.6559   40.7112   56.4287 C   0  0  0  0  0  0  0  0  0  0  0  0
   18.9133   38.8202   56.2672 H   0  0  0  0  0  0  0  0  0  0  0  0
   19.5532   39.1747   57.7637 H   0  0  0  0  0  0  0  0  0  0  0  0
   20.7796   41.4482   57.1451 C   0  0  0  0  0  0  0  0  0  0  0  0
   21.9122   40.9159   57.1546 O   0  0  0  0  0  0  0  0  0  0  0  0
   20.5152   42.5454   57.6871 O   0  0  0  0  0  0  0  0  0  0  0  0
   19.6455   42.8914   57.6447 H   0  0  0  0  0  0  0  0  0  0  0  0
   18.3059   41.3198   56.8141 C   0  0  0  0  0  0  0  0  0  0  0  0
   17.2667   41.2922   55.7098 C   0  0  0  0  0  0  0  0  0  0  0  0
   16.5325   42.6159   55.6435 C   0  0  0  0  0  0  0  0  0  0  0  0
   16.2455   43.0162   54.2098 C   0  0  0  0  0  0  0  0  0  0  0  0
   15.8818   44.4610   54.1074 N   0  0  0  0  0  0  0  0  0  0  0  0
   15.3598   44.8456   55.4483 C   0  0  0  0  0  0  0  0  0  0  0  0
   15.1646   44.5968   53.3950 H   0  0  0  0  0  0  0  0  0  0  0  0
  1  2  1  0  0  0
  2  9  1  0  0  0
  2  5  1  0  0  0
  9 10  1  0  0  0
 10 11  1  0  0  0
 11 12  1  0  0  0
 12 13  1  0  0  0
 13 14  1  0  0  0
  5  6  2  0  0  0
  5  7  1  0  0  0
  1  3  1  0  0  0
  1  4  1  0  0  0
 13 15  1  0  0  0
  7  8  1  0  0  0
M  END
> <minimizedAffinity>
-4.50295

$$$$
2VYT_MLZ_A_1244


 15 14  0  0  0  0  0  0  0  0999 V2000
   17.6610   42.6349   57.6343 N   0  0  0  0  0  0  0  0  0  0  0  0
   18.1679   41.4189   57.0123 C   0  0  0  0  0  0  0  0  0  0  0  0
   16.6510   42.6889   57.5020 H   0  0  0  0  0  0  0  0  0  0  0  0
   18.1040   43.4469   57.2043 H   0  0  0  0  0  0  0  0  0  0  0  0
   19.6760   41.3058   57.1910 C   0  0  0  0  0  0  0  0  0  0  0  0
   20.2027   40.1863   57.0025 O   0  0  0  0  0  0  0  0  0  0  0  0
   20.3113   42.3344   57.5166 O   0  0  0  0  0  0  0  0  0  0  0  0
   19.8579   43.1446   57.6432 H   0  0  0  0  0  0  0  0  0  0  0  0
   17.8183   41.4099   55.5226 C   0  0  0  0  0  0  0  0  0  0  0  0
   16.4627   42.0042   55.1924 C   0  0  0  0  0  0  0  0  0  0  0  0
   16.5064   42.7027   53.8485 C   0  0  0  0  0  0  0  0  0  0  0  0
   16.1183   44.1628   53.9731 C   0  0  0  0  0  0  0  0  0  0  0  0
   15.8618   44.5414   55.3947 N   0  0  0  0  0  0  0  0  0  0  0  0
   14.9439   45.7133   55.3450 C   0  0  0  0  0  0  0  0  0  0  0  0
   16.7348   44.7938   55.8578 H   0  0  0  0  0  0  0  0  0  0  0  0
  1  2  1  0  0  0
  2  9  1  0  0  0
  2  5  1  0  0  0
  9 10  1  0  0  0
 10 11  1  0  0  0
 11 12  1  0  0  0
 12 13  1  0  0  0
 13 14  1  0  0  0
  5  6  2  0  0  0
  5  7  1  0  0  0
  1  3  1  0  0  0
  1  4  1  0  0  0
 13 15  1  0  0  0
  7  8  1  0  0  0
M  END
> <minimizedAffinity>
-4.43712

$$$$
2VYT_MLZ_A_1244


 15 14  0  0  0  0  0  0  0  0999 V2000
   15.9455   44.1855   55.5924 N   0  0  0  0  0  0  0  0  0  0  0  0
   16.1205   42.7507   55.4097 C   0  0  0  0  0  0  0  0  0  0  0  0
   15.3333   44.5490   54.8620 H   0  0  0  0  0  0  0  0  0  0  0  0
   16.8527   44.6484   55.5373 H   0  0  0  0  0  0  0  0  0  0  0  0
   17.0310   42.1735   56.4854 C   0  0  0  0  0  0  0  0  0  0  0  0
   17.5082   41.0326   56.2940 O   0  0  0  0  0  0  0  0  0  0  0  0
   17.2555   42.8665   57.5037 O   0  0  0  0  0  0  0  0  0  0  0  0
   16.8674   43.7152   57.5878 H   0  0  0  0  0  0  0  0  0  0  0  0
   16.7074   42.4687   54.0249 C   0  0  0  0  0  0  0  0  0  0  0  0
   16.3815   43.5180   52.9796 C   0  0  0  0  0  0  0  0  0  0  0  0
   16.8428   43.0597   51.6110 C   0  0  0  0  0  0  0  0  0  0  0  0
   16.9410   41.5487   51.5395 C   0  0  0  0  0  0  0  0  0  0  0  0
   15.9280   40.9783   50.6020 N   0  0  0  0  0  0  0  0  0  0  0  0
   15.8994   39.5144   50.8746 C   0  0  0  0  0  0  0  0  0  0  0  0
   16.2007   41.1540   49.6350 H   0  0  0  0  0  0  0  0  0  0  0  0
  1  2  1  0  0  0
  2  9  1  0  0  0
  2  5  1  0  0  0
  9 10  1  0  0  0
 10 11  1  0  0  0
 11 12  1  0  0  0
 12 13  1  0  0  0
 13 14  1  0  0  0
  5  6  2  0  0  0
  5  7  1  0  0  0
  1  3  1  0  0  0
  1  4  1  0  0  0
 13 15  1  0  0  0
  7  8  1  0  0  0
M  END
> <minimizedAffinity>
-4.22858

$$$$
2VYT_MLZ_A_1244


 15 14  0  0  0  0  0  0  0  0999 V2000
   16.0310   43.9431   53.5490 N   0  0  0  0  0  0  0  0  0  0  0  0
   15.4718   43.6273   54.8567 C   0  0  0  0  0  0  0  0  0  0  0  0
   16.2043   43.0789   53.0356 H   0  0  0  0  0  0  0  0  0  0  0  0
   16.9082   44.4499   53.6676 H   0  0  0  0  0  0  0  0  0  0  0  0
   15.2001   44.8972   55.6520 C   0  0  0  0  0  0  0  0  0  0  0  0
   15.8251   45.0581   56.7243 O   0  0  0  0  0  0  0  0  0  0  0  0
   14.3678   45.7136   55.1955 O   0  0  0  0  0  0  0  0  0  0  0  0
   13.9322   45.5350   54.3854 H   0  0  0  0  0  0  0  0  0  0  0  0
   16.4341   42.7241   55.6314 C   0  0  0  0  0  0  0  0  0  0  0  0
   17.2818   41.8169   54.7606 C   0  0  0  0  0  0  0  0  0  0  0  0
   17.7079   40.5879   55.5375 C   0  0  0  0  0  0  0  0  0  0  0  0
   18.3928   39.5773   54.6388 C   0  0  0  0  0  0  0  0  0  0  0  0
   19.7601   40.0322   54.2466 N   0  0  0  0  0  0  0  0  0  0  0  0
   20.2221   39.0785   53.2001 C   0  0  0  0  0  0  0  0  0  0  0  0
   20.3868   40.0074   55.0510 H   0  0  0  0  0  0  0  0  0  0  0  0
  1  2  1  0  0  0
  2  9  1  0  0  0
  2  5  1  0  0  0
  9 10  1  0  0  0
 10 11  1  0  0  0
 11 12  1  0  0  0
 12 13  1  0  0  0
 13 14  1  0  0  0
  5  6  2  0  0  0
  5  7  1  0  0  0
  1  3  1  0  0  0
  1  4  1  0  0  0
 13 15  1  0  0  0
  7  8  1  0  0  0
M  END
> <minimizedAffinity>
-3.67528

$$$$
2VYT_MLZ_A_1244


 15 14  0  0  0  0  0  0  0  0999 V2000
   17.8688   40.6493   54.7535 N   0  0  0  0  0  0  0  0  0  0  0  0
   17.6765   40.9370   56.1687 C   0  0  0  0  0  0  0  0  0  0  0  0
   18.3381   39.7496   54.6502 H   0  0  0  0  0  0  0  0  0  0  0  0
   18.4407   41.3814   54.3324 H   0  0  0  0  0  0  0  0  0  0  0  0
   16.9769   42.2760   56.3604 C   0  0  0  0  0  0  0  0  0  0  0  0
   17.2255   42.9189   57.4049 O   0  0  0  0  0  0  0  0  0  0  0  0
   16.1907   42.6651   55.4670 O   0  0  0  0  0  0  0  0  0  0  0  0
   16.0468   42.1366   54.7068 H   0  0  0  0  0  0  0  0  0  0  0  0
   19.0274   40.9482   56.8873 C   0  0  0  0  0  0  0  0  0  0  0  0
   19.9778   39.8485   56.4543 C   0  0  0  0  0  0  0  0  0  0  0  0
   21.4093   40.2364   56.7644 C   0  0  0  0  0  0  0  0  0  0  0  0
   21.4997   41.6704   57.2477 C   0  0  0  0  0  0  0  0  0  0  0  0
   22.9129   42.0667   57.5236 N   0  0  0  0  0  0  0  0  0  0  0  0
   23.7464   41.3062   56.5514 C   0  0  0  0  0  0  0  0  0  0  0  0
   23.1701   41.8214   58.4797 H   0  0  0  0  0  0  0  0  0  0  0  0
  1  2  1  0  0  0
  2  9  1  0  0  0
  2  5  1  0  0  0
  9 10  1  0  0  0
 10 11  1  0  0  0
 11 12  1  0  0  0
 12 13  1  0  0  0
 13 14  1  0  0  0
  5  6  2  0  0  0
  5  7  1  0  0  0
  1  3  1  0  0  0
  1  4  1  0  0  0
 13 15  1  0  0  0
  7  8  1  0  0  0
M  END
> <minimizedAffinity>
-3.55347

$$$$
2VYT_MLZ_A_1244


 15 14  0  0  0  0  0  0  0  0999 V2000
   16.1575   41.7750   49.8749 N   0  0  0  0  0  0  0  0  0  0  0  0
   17.3125   41.3442   50.6515 C   0  0  0  0  0  0  0  0  0  0  0  0
   16.2185   42.7786   49.7032 H   0  0  0  0  0  0  0  0  0  0  0  0
   15.3035   41.5701   50.3936 H   0  0  0  0  0  0  0  0  0  0  0  0
   17.2539   39.8476   50.9268 C   0  0  0  0  0  0  0  0  0  0  0  0
   17.3489   39.0713   49.9498 O   0  0  0  0  0  0  0  0  0  0  0  0
   17.1139   39.4699   52.1123 O   0  0  0  0  0  0  0  0  0  0  0  0
   17.0486   40.1021   52.8008 H   0  0  0  0  0  0  0  0  0  0  0  0
   17.3698   42.1144   51.9725 C   0  0  0  0  0  0  0  0  0  0  0  0
   16.1084   42.8889   52.3028 C   0  0  0  0  0  0  0  0  0  0  0  0
   16.3725   43.8733   53.4239 C   0  0  0  0  0  0  0  0  0  0  0  0
   16.0650   43.2634   54.7772 C   0  0  0  0  0  0  0  0  0  0  0  0
   15.7357   44.3123   55.7880 N   0  0  0  0  0  0  0  0  0  0  0  0
   15.3851   45.5325   55.0093 C   0  0  0  0  0  0  0  0  0  0  0  0
   16.5410   44.4929   56.3874 H   0  0  0  0  0  0  0  0  0  0  0  0
  1  2  1  0  0  0
  2  9  1  0  0  0
  2  5  1  0  0  0
  9 10  1  0  0  0
 10 11  1  0  0  0
 11 12  1  0  0  0
 12 13  1  0  0  0
 13 14  1  0  0  0
  5  6  2  0  0  0
  5  7  1  0  0  0
  1  3  1  0  0  0
  1  4  1  0  0  0
 13 15  1  0  0  0
  7  8  1  0  0  0
M  END
> <minimizedAffinity>
-3.50261

$$$$
2VYT_MLZ_A_1244


 15 14  0  0  0  0  0  0  0  0999 V2000
   18.9110   40.2816   57.1652 N   0  0  0  0  0  0  0  0  0  0  0  0
   18.4230   41.2194   56.1627 C   0  0  0  0  0  0  0  0  0  0  0  0
   19.5942   39.6547   56.7403 H   0  0  0  0  0  0  0  0  0  0  0  0
   18.1297   39.7364   57.5295 H   0  0  0  0  0  0  0  0  0  0  0  0
   17.3988   42.1726   56.7639 C   0  0  0  0  0  0  0  0  0  0  0  0
   16.4017   42.4704   56.0687 O   0  0  0  0  0  0  0  0  0  0  0  0
   17.6048   42.6094   57.9190 O   0  0  0  0  0  0  0  0  0  0  0  0
   18.3722   42.3481   58.3888 H   0  0  0  0  0  0  0  0  0  0  0  0
   17.7989   40.4551   54.9931 C   0  0  0  0  0  0  0  0  0  0  0  0
   18.7502   40.1788   53.8448 C   0  0  0  0  0  0  0  0  0  0  0  0
   18.1461   40.6452   52.5359 C   0  0  0  0  0  0  0  0  0  0  0  0
   17.1175   41.7358   52.7608 C   0  0  0  0  0  0  0  0  0  0  0  0
   16.1013   41.7636   51.6668 N   0  0  0  0  0  0  0  0  0  0  0  0
   16.7792   41.1990   50.4668 C   0  0  0  0  0  0  0  0  0  0  0  0
   15.7999   42.7212   51.4866 H   0  0  0  0  0  0  0  0  0  0  0  0
  1  2  1  0  0  0
  2  9  1  0  0  0
  2  5  1  0  0  0
  9 10  1  0  0  0
 10 11  1  0  0  0
 11 12  1  0  0  0
 12 13  1  0  0  0
 13 14  1  0  0  0
  5  6  2  0  0  0
  5  7  1  0  0  0
  1  3  1  0  0  0
  1  4  1  0  0  0
 13 15  1  0  0  0
  7  8  1  0  0  0
M  END
> <minimizedAffinity>
-3.36979

$$$$
2VYT_MLZ_A_1244


 15 14  0  0  0  0  0  0  0  0999 V2000
   15.8186   43.1012   52.0685 N   0  0  0  0  0  0  0  0  0  0  0  0
   15.9945   42.5258   53.3953 C   0  0  0  0  0  0  0  0  0  0  0  0
   15.7484   42.3521   51.3797 H   0  0  0  0  0  0  0  0  0  0  0  0
   16.6185   43.6937   51.8460 H   0  0  0  0  0  0  0  0  0  0  0  0
   16.1032   43.6183   54.4507 C   0  0  0  0  0  0  0  0  0  0  0  0
   15.8356   44.7909   54.1051 O   0  0  0  0  0  0  0  0  0  0  0  0
   16.4539   43.2900   55.6070 O   0  0  0  0  0  0  0  0  0  0  0  0
   16.6408   42.3930   55.8030 H   0  0  0  0  0  0  0  0  0  0  0  0
   17.2489   41.6498   53.4222 C   0  0  0  0  0  0  0  0  0  0  0  0
   17.8129   41.3190   52.0538 C   0  0  0  0  0  0  0  0  0  0  0  0
   17.6216   39.8478   51.7462 C   0  0  0  0  0  0  0  0  0  0  0  0
   16.2486   39.5805   51.1619 C   0  0  0  0  0  0  0  0  0  0  0  0
   15.8577   40.6346   50.1788 N   0  0  0  0  0  0  0  0  0  0  0  0
   15.9629   39.9985   48.8362 C   0  0  0  0  0  0  0  0  0  0  0  0
   16.4897   41.4326   50.2440 H   0  0  0  0  0  0  0  0  0  0  0  0
  1  2  1  0  0  0
  2  9  1  0  0  0
  2  5  1  0  0  0
  9 10  1  0  0  0
 10 11  1  0  0  0
 11 12  1  0  0  0
 12 13  1  0  0  0
 13 14  1  0  0  0
  5  6  2  0  0  0
  5  7  1  0  0  0
  1  3  1  0  0  0
  1  4  1  0  0  0
 13 15  1  0  0  0
  7  8  1  0  0  0
M  END
> <minimizedAffinity>
-3.26274

$$$$
2VYT_MLZ_A_1244


 15 14  0  0  0  0  0  0  0  0999 V2000
   18.9132   40.2775   57.1391 N   0  0  0  0  0  0  0  0  0  0  0  0
   18.3718   41.0744   56.0462 C   0  0  0  0  0  0  0  0  0  0  0  0
   19.6197   39.6378   56.7759 H   0  0  0  0  0  0  0  0  0  0  0  0
   18.1618   39.7425   57.5745 H   0  0  0  0  0  0  0  0  0  0  0  0
   17.3116   42.0427   56.5537 C   0  0  0  0  0  0  0  0  0  0  0  0
   17.5067   42.5921   57.6610 O   0  0  0  0  0  0  0  0  0  0  0  0
   16.3015   42.2397   55.8406 O   0  0  0  0  0  0  0  0  0  0  0  0
   16.2140   41.7968   55.0196 H   0  0  0  0  0  0  0  0  0  0  0  0
   17.7705   40.1568   54.9794 C   0  0  0  0  0  0  0  0  0  0  0  0
   18.7845   39.3063   54.2390 C   0  0  0  0  0  0  0  0  0  0  0  0
   18.3312   37.8611   54.1982 C   0  0  0  0  0  0  0  0  0  0  0  0
   19.3621   36.9419   54.8230 C   0  0  0  0  0  0  0  0  0  0  0  0
   19.8387   37.4673   56.1371 N   0  0  0  0  0  0  0  0  0  0  0  0
   20.2861   36.2776   56.9135 C   0  0  0  0  0  0  0  0  0  0  0  0
   19.0804   37.9446   56.6246 H   0  0  0  0  0  0  0  0  0  0  0  0
  1  2  1  0  0  0
  2  9  1  0  0  0
  2  5  1  0  0  0
  9 10  1  0  0  0
 10 11  1  0  0  0
 11 12  1  0  0  0
 12 13  1  0  0  0
 13 14  1  0  0  0
  5  6  2  0  0  0
  5  7  1  0  0  0
  1  3  1  0  0  0
  1  4  1  0  0  0
 13 15  1  0  0  0
  7  8  1  0  0  0
M  END
> <minimizedAffinity>
-3.17251

$$$$
2VYT_MLZ_A_1244


 15 14  0  0  0  0  0  0  0  0999 V2000
   19.0580   40.6011   52.3236 N   0  0  0  0  0  0  0  0  0  0  0  0
   17.6377   40.7177   52.6265 C   0  0  0  0  0  0  0  0  0  0  0  0
   19.5122   40.0314   53.0375 H   0  0  0  0  0  0  0  0  0  0  0  0
   19.4801   41.5295   52.3100 H   0  0  0  0  0  0  0  0  0  0  0  0
   16.9267   41.5636   51.5787 C   0  0  0  0  0  0  0  0  0  0  0  0
   17.3523   41.5135   50.4028 O   0  0  0  0  0  0  0  0  0  0  0  0
   15.9560   42.2646   51.9445 O   0  0  0  0  0  0  0  0  0  0  0  0
   15.6854   42.2586   52.8416 H   0  0  0  0  0  0  0  0  0  0  0  0
   17.4490   41.3388   54.0122 C   0  0  0  0  0  0  0  0  0  0  0  0
   17.7671   40.4076   55.1662 C   0  0  0  0  0  0  0  0  0  0  0  0
   17.9885   41.2007   56.4381 C   0  0  0  0  0  0  0  0  0  0  0  0
   19.3214   40.8606   57.0751 C   0  0  0  0  0  0  0  0  0  0  0  0
   20.0721   42.0917   57.4637 N   0  0  0  0  0  0  0  0  0  0  0  0
   21.5100   41.7834   57.2281 C   0  0  0  0  0  0  0  0  0  0  0  0
   19.9123   42.3092   58.4473 H   0  0  0  0  0  0  0  0  0  0  0  0
  1  2  1  0  0  0
  2  9  1  0  0  0
  2  5  1  0  0  0
  9 10  1  0  0  0
 10 11  1  0  0  0
 11 12  1  0  0  0
 12 13  1  0  0  0
 13 14  1  0  0  0
  5  6  2  0  0  0
  5  7  1  0  0  0
  1  3  1  0  0  0
  1  4  1  0  0  0
 13 15  1  0  0  0
  7  8  1  0  0  0
M  END
> <minimizedAffinity>
-3.10603

$$$$
