2GYI_HYA_A_960


 15 14  0  0  0  0  0  0  0  0999 V2000
   17.3130    6.7438  -11.7380 C   0  0  0  0  0  0  0  0  0  0  0  0
   18.4633    6.9949  -12.4725 O   0  0  0  0  0  0  0  0  0  0  0  0
   18.8840    6.1543  -12.7120 H   0  0  0  0  0  0  0  0  0  0  0  0
   16.1338    6.0515  -12.4506 C   0  0  0  0  0  0  0  0  0  0  0  0
   16.0401    4.8200  -12.9030 N   0  0  0  0  0  0  0  0  0  0  0  0
   15.0683    6.8219  -12.4154 O   0  0  0  0  0  0  0  0  0  0  0  0
   14.9132    4.5192  -13.6216 O   0  0  0  0  0  0  0  0  0  0  0  0
   15.1349    7.6992  -12.0931 H   0  0  0  0  0  0  0  0  0  0  0  0
   14.7945    3.6566  -13.9677 H   0  0  0  0  0  0  0  0  0  0  0  0
   17.3544    6.2716  -10.2646 C   0  0  0  0  0  0  0  0  0  0  0  0
   16.0912    5.6752  -10.1995 O   0  0  0  0  0  0  0  0  0  0  0  0
   15.4098    6.3398  -10.3862 H   0  0  0  0  0  0  0  0  0  0  0  0
   17.3186    7.3416   -9.1342 C   0  0  0  0  0  0  0  0  0  0  0  0
   16.2346    8.1850   -9.2578 O   0  0  0  0  0  0  0  0  0  0  0  0
   16.2886    8.6593  -10.1022 H   0  0  0  0  0  0  0  0  0  0  0  0
  4  1  1  0  0  0
  4  5  2  0  0  0
  4  6  1  0  0  0
  1 10  1  0  0  0
  1  2  1  0  0  0
 10 13  1  0  0  0
 10 11  1  0  0  0
 13 14  1  0  0  0
  5  7  1  0  0  0
  6  8  1  0  0  0
  2  3  1  0  0  0
 11 12  1  0  0  0
 14 15  1  0  0  0
  7  9  1  0  0  0
M  END
> <minimizedAffinity>
-6.95320

$$$$
2GYI_HYA_A_960


 15 14  0  0  0  0  0  0  0  0999 V2000
   17.2494    6.9816   -9.9835 C   0  0  0  0  0  0  0  0  0  0  0  0
   16.1715    7.7925   -9.6575 O   0  0  0  0  0  0  0  0  0  0  0  0
   15.4426    7.2442   -9.3275 H   0  0  0  0  0  0  0  0  0  0  0  0
   17.9722    6.2412   -8.8402 C   0  0  0  0  0  0  0  0  0  0  0  0
   18.2980    4.9704   -8.7449 N   0  0  0  0  0  0  0  0  0  0  0  0
   18.4255    7.1042   -7.9572 O   0  0  0  0  0  0  0  0  0  0  0  0
   18.8163    4.5630   -7.5440 O   0  0  0  0  0  0  0  0  0  0  0  0
   18.1935    8.0095   -8.0251 H   0  0  0  0  0  0  0  0  0  0  0  0
   19.0656    3.6682   -7.4206 H   0  0  0  0  0  0  0  0  0  0  0  0
   17.2650    6.0881  -11.2471 C   0  0  0  0  0  0  0  0  0  0  0  0
   17.7901    7.0148  -12.1533 O   0  0  0  0  0  0  0  0  0  0  0  0
   17.1970    7.7800  -12.2133 H   0  0  0  0  0  0  0  0  0  0  0  0
   15.9080    5.6714  -11.8864 C   0  0  0  0  0  0  0  0  0  0  0  0
   15.1358    6.7660  -12.2143 O   0  0  0  0  0  0  0  0  0  0  0  0
   14.9333    7.2710  -11.4113 H   0  0  0  0  0  0  0  0  0  0  0  0
  4  1  1  0  0  0
  4  5  2  0  0  0
  4  6  1  0  0  0
  1 10  1  0  0  0
  1  2  1  0  0  0
 10 13  1  0  0  0
 10 11  1  0  0  0
 13 14  1  0  0  0
  5  7  1  0  0  0
  6  8  1  0  0  0
  2  3  1  0  0  0
 11 12  1  0  0  0
 14 15  1  0  0  0
  7  9  1  0  0  0
M  END
> <minimizedAffinity>
-6.65957

$$$$
2GYI_HYA_A_960


 15 14  0  0  0  0  0  0  0  0999 V2000
   16.8639    5.9070  -11.5921 C   0  0  0  0  0  0  0  0  0  0  0  0
   15.5416    5.6373  -11.2687 O   0  0  0  0  0  0  0  0  0  0  0  0
   15.0423    6.4681  -11.2302 H   0  0  0  0  0  0  0  0  0  0  0  0
   17.1682    6.4638  -12.9974 C   0  0  0  0  0  0  0  0  0  0  0  0
   16.3364    6.7924  -13.9619 N   0  0  0  0  0  0  0  0  0  0  0  0
   18.4442    6.7665  -13.0980 O   0  0  0  0  0  0  0  0  0  0  0  0
   16.9006    7.1330  -15.1630 O   0  0  0  0  0  0  0  0  0  0  0  0
   19.0368    6.5324  -12.4110 H   0  0  0  0  0  0  0  0  0  0  0  0
   16.3548    7.3757  -15.8849 H   0  0  0  0  0  0  0  0  0  0  0  0
   17.8561    6.5306  -10.5810 C   0  0  0  0  0  0  0  0  0  0  0  0
   18.5121    5.3617  -10.1822 O   0  0  0  0  0  0  0  0  0  0  0  0
   17.8713    4.7503   -9.7866 H   0  0  0  0  0  0  0  0  0  0  0  0
   17.2998    7.1168   -9.2504 C   0  0  0  0  0  0  0  0  0  0  0  0
   16.2496    7.9835   -9.4690 O   0  0  0  0  0  0  0  0  0  0  0  0
   16.5536    8.7303  -10.0083 H   0  0  0  0  0  0  0  0  0  0  0  0
  4  1  1  0  0  0
  4  5  2  0  0  0
  4  6  1  0  0  0
  1 10  1  0  0  0
  1  2  1  0  0  0
 10 13  1  0  0  0
 10 11  1  0  0  0
 13 14  1  0  0  0
  5  7  1  0  0  0
  6  8  1  0  0  0
  2  3  1  0  0  0
 11 12  1  0  0  0
 14 15  1  0  0  0
  7  9  1  0  0  0
M  END
> <minimizedAffinity>
-6.65275

$$$$
2GYI_HYA_A_960


 15 14  0  0  0  0  0  0  0  0999 V2000
   17.2023    6.6616  -11.3469 C   0  0  0  0  0  0  0  0  0  0  0  0
   18.5306    6.5809  -11.7406 O   0  0  0  0  0  0  0  0  0  0  0  0
   18.8183    5.6548  -11.7198 H   0  0  0  0  0  0  0  0  0  0  0  0
   16.1343    6.0322  -12.2639 C   0  0  0  0  0  0  0  0  0  0  0  0
   16.1447    4.8704  -12.8804 N   0  0  0  0  0  0  0  0  0  0  0  0
   15.0353    6.7545  -12.2409 O   0  0  0  0  0  0  0  0  0  0  0  0
   15.1107    4.6313  -13.7467 O   0  0  0  0  0  0  0  0  0  0  0  0
   15.0278    7.5822  -11.8018 H   0  0  0  0  0  0  0  0  0  0  0  0
   15.0683    3.8196  -14.2130 H   0  0  0  0  0  0  0  0  0  0  0  0
   16.7605    6.4910   -9.8734 C   0  0  0  0  0  0  0  0  0  0  0  0
   16.2966    7.7897   -9.6414 O   0  0  0  0  0  0  0  0  0  0  0  0
   17.0227    8.4200   -9.7695 H   0  0  0  0  0  0  0  0  0  0  0  0
   17.8528    6.2864   -8.7830 C   0  0  0  0  0  0  0  0  0  0  0  0
   18.5177    5.0883   -8.9390 O   0  0  0  0  0  0  0  0  0  0  0  0
   17.8874    4.3556   -8.8568 H   0  0  0  0  0  0  0  0  0  0  0  0
  4  1  1  0  0  0
  4  5  2  0  0  0
  4  6  1  0  0  0
  1 10  1  0  0  0
  1  2  1  0  0  0
 10 13  1  0  0  0
 10 11  1  0  0  0
 13 14  1  0  0  0
  5  7  1  0  0  0
  6  8  1  0  0  0
  2  3  1  0  0  0
 11 12  1  0  0  0
 14 15  1  0  0  0
  7  9  1  0  0  0
M  END
> <minimizedAffinity>
-6.62061

$$$$
2GYI_HYA_A_960


 15 14  0  0  0  0  0  0  0  0999 V2000
   16.3012    6.0655  -11.5680 C   0  0  0  0  0  0  0  0  0  0  0  0
   15.2161    5.2078  -11.6802 O   0  0  0  0  0  0  0  0  0  0  0  0
   15.4935    4.3049  -11.4595 H   0  0  0  0  0  0  0  0  0  0  0  0
   16.8936    6.3065  -10.1649 C   0  0  0  0  0  0  0  0  0  0  0  0
   17.8372    5.6428   -9.5332 N   0  0  0  0  0  0  0  0  0  0  0  0
   16.4472    7.4422   -9.6740 O   0  0  0  0  0  0  0  0  0  0  0  0
   18.0660    6.0006   -8.2307 O   0  0  0  0  0  0  0  0  0  0  0  0
   15.7750    7.9151  -10.1239 H   0  0  0  0  0  0  0  0  0  0  0  0
   18.7269    5.5607   -7.7331 H   0  0  0  0  0  0  0  0  0  0  0  0
   17.4477    6.0956  -12.6073 C   0  0  0  0  0  0  0  0  0  0  0  0
   18.2529    7.0668  -12.0039 O   0  0  0  0  0  0  0  0  0  0  0  0
   17.7581    7.8980  -11.9320 H   0  0  0  0  0  0  0  0  0  0  0  0
   17.1605    6.6780  -14.0223 C   0  0  0  0  0  0  0  0  0  0  0  0
   15.9010    7.2334  -14.1045 O   0  0  0  0  0  0  0  0  0  0  0  0
   15.2344    6.5499  -13.9332 H   0  0  0  0  0  0  0  0  0  0  0  0
  4  1  1  0  0  0
  4  5  2  0  0  0
  4  6  1  0  0  0
  1 10  1  0  0  0
  1  2  1  0  0  0
 10 13  1  0  0  0
 10 11  1  0  0  0
 13 14  1  0  0  0
  5  7  1  0  0  0
  6  8  1  0  0  0
  2  3  1  0  0  0
 11 12  1  0  0  0
 14 15  1  0  0  0
  7  9  1  0  0  0
M  END
> <minimizedAffinity>
-6.61783

$$$$
2GYI_HYA_A_960


 15 14  0  0  0  0  0  0  0  0999 V2000
   17.5906    5.7174   -9.8241 C   0  0  0  0  0  0  0  0  0  0  0  0
   18.5172    4.8637   -9.2423 O   0  0  0  0  0  0  0  0  0  0  0  0
   19.4122    5.2043   -9.3967 H   0  0  0  0  0  0  0  0  0  0  0  0
   17.4394    7.1343   -9.2349 C   0  0  0  0  0  0  0  0  0  0  0  0
   16.4014    7.9417   -9.2613 N   0  0  0  0  0  0  0  0  0  0  0  0
   18.4821    7.4280   -8.4889 O   0  0  0  0  0  0  0  0  0  0  0  0
   16.6004    9.2058   -8.7721 O   0  0  0  0  0  0  0  0  0  0  0  0
   19.2216    6.8529   -8.4700 H   0  0  0  0  0  0  0  0  0  0  0  0
   15.8951    9.8225   -8.7668 H   0  0  0  0  0  0  0  0  0  0  0  0
   17.3694    5.7854  -11.3544 C   0  0  0  0  0  0  0  0  0  0  0  0
   17.7383    7.1183  -11.5610 O   0  0  0  0  0  0  0  0  0  0  0  0
   17.1547    7.6986  -11.0477 H   0  0  0  0  0  0  0  0  0  0  0  0
   15.9148    5.7129  -11.9047 C   0  0  0  0  0  0  0  0  0  0  0  0
   15.5392    6.8871  -12.5228 O   0  0  0  0  0  0  0  0  0  0  0  0
   15.5690    7.6140  -11.8812 H   0  0  0  0  0  0  0  0  0  0  0  0
  4  1  1  0  0  0
  4  5  2  0  0  0
  4  6  1  0  0  0
  1 10  1  0  0  0
  1  2  1  0  0  0
 10 13  1  0  0  0
 10 11  1  0  0  0
 13 14  1  0  0  0
  5  7  1  0  0  0
  6  8  1  0  0  0
  2  3  1  0  0  0
 11 12  1  0  0  0
 14 15  1  0  0  0
  7  9  1  0  0  0
M  END
> <minimizedAffinity>
-6.38850

$$$$
2GYI_HYA_A_960


 15 14  0  0  0  0  0  0  0  0999 V2000
   18.2742    5.9403  -11.8139 C   0  0  0  0  0  0  0  0  0  0  0  0
   19.4596    6.4824  -12.2902 O   0  0  0  0  0  0  0  0  0  0  0  0
   19.3375    7.4300  -12.4578 H   0  0  0  0  0  0  0  0  0  0  0  0
   17.7756    6.3921  -10.4265 C   0  0  0  0  0  0  0  0  0  0  0  0
   16.9617    7.3767  -10.1131 N   0  0  0  0  0  0  0  0  0  0  0  0
   18.1381    5.5215   -9.5096 O   0  0  0  0  0  0  0  0  0  0  0  0
   16.8031    7.6339   -8.7769 O   0  0  0  0  0  0  0  0  0  0  0  0
   18.7179    4.8201   -9.7328 H   0  0  0  0  0  0  0  0  0  0  0  0
   16.2349    8.3243   -8.4969 H   0  0  0  0  0  0  0  0  0  0  0  0
   17.0507    5.6861  -12.7271 C   0  0  0  0  0  0  0  0  0  0  0  0
   16.9770    6.9434  -13.3347 O   0  0  0  0  0  0  0  0  0  0  0  0
   16.8343    7.6223  -12.6567 H   0  0  0  0  0  0  0  0  0  0  0  0
   15.6503    5.5082  -12.0704 C   0  0  0  0  0  0  0  0  0  0  0  0
   14.8708    6.6377  -12.2065 O   0  0  0  0  0  0  0  0  0  0  0  0
   15.3039    7.3846  -11.7644 H   0  0  0  0  0  0  0  0  0  0  0  0
  4  1  1  0  0  0
  4  5  2  0  0  0
  4  6  1  0  0  0
  1 10  1  0  0  0
  1  2  1  0  0  0
 10 13  1  0  0  0
 10 11  1  0  0  0
 13 14  1  0  0  0
  5  7  1  0  0  0
  6  8  1  0  0  0
  2  3  1  0  0  0
 11 12  1  0  0  0
 14 15  1  0  0  0
  7  9  1  0  0  0
M  END
> <minimizedAffinity>
-6.30510

$$$$
2GYI_HYA_A_960


 15 14  0  0  0  0  0  0  0  0999 V2000
   17.4001    5.9796  -10.0391 C   0  0  0  0  0  0  0  0  0  0  0  0
   16.0298    5.7599  -10.0370 O   0  0  0  0  0  0  0  0  0  0  0  0
   15.5760    6.5450  -10.3813 H   0  0  0  0  0  0  0  0  0  0  0  0
   18.1104    6.1196  -11.4005 C   0  0  0  0  0  0  0  0  0  0  0  0
   17.9375    7.0217  -12.3420 N   0  0  0  0  0  0  0  0  0  0  0  0
   19.1165    5.2758  -11.4751 O   0  0  0  0  0  0  0  0  0  0  0  0
   18.6165    6.8166  -13.5141 O   0  0  0  0  0  0  0  0  0  0  0  0
   19.2398    4.6332  -10.8045 H   0  0  0  0  0  0  0  0  0  0  0  0
   18.5300    7.4281  -14.2188 H   0  0  0  0  0  0  0  0  0  0  0  0
   18.0943    6.9087   -9.0143 C   0  0  0  0  0  0  0  0  0  0  0  0
   18.3203    5.9721   -8.0007 O   0  0  0  0  0  0  0  0  0  0  0  0
   17.4720    5.6101   -7.7001 H   0  0  0  0  0  0  0  0  0  0  0  0
   17.2513    8.0157   -8.3159 C   0  0  0  0  0  0  0  0  0  0  0  0
   16.2642    8.5095   -9.1426 O   0  0  0  0  0  0  0  0  0  0  0  0
   16.6700    8.9085   -9.9281 H   0  0  0  0  0  0  0  0  0  0  0  0
  4  1  1  0  0  0
  4  5  2  0  0  0
  4  6  1  0  0  0
  1 10  1  0  0  0
  1  2  1  0  0  0
 10 13  1  0  0  0
 10 11  1  0  0  0
 13 14  1  0  0  0
  5  7  1  0  0  0
  6  8  1  0  0  0
  2  3  1  0  0  0
 11 12  1  0  0  0
 14 15  1  0  0  0
  7  9  1  0  0  0
M  END
> <minimizedAffinity>
-6.28191

$$$$
2GYI_HYA_A_960


 15 14  0  0  0  0  0  0  0  0999 V2000
   17.3856    6.0023  -10.4924 C   0  0  0  0  0  0  0  0  0  0  0  0
   18.6217    5.4349  -10.7679 O   0  0  0  0  0  0  0  0  0  0  0  0
   19.2136    6.1110  -11.1333 H   0  0  0  0  0  0  0  0  0  0  0  0
   17.3054    7.0578   -9.3712 C   0  0  0  0  0  0  0  0  0  0  0  0
   18.1659    7.3222   -8.4121 N   0  0  0  0  0  0  0  0  0  0  0  0
   16.2817    7.8580   -9.5751 O   0  0  0  0  0  0  0  0  0  0  0  0
   17.7648    8.2293   -7.4670 O   0  0  0  0  0  0  0  0  0  0  0  0
   15.6687    7.6698  -10.2582 H   0  0  0  0  0  0  0  0  0  0  0  0
   18.3382    8.4549   -6.7611 H   0  0  0  0  0  0  0  0  0  0  0  0
   16.3762    6.3759  -11.6046 C   0  0  0  0  0  0  0  0  0  0  0  0
   15.4671    5.3288  -11.4237 O   0  0  0  0  0  0  0  0  0  0  0  0
   15.9181    4.4814  -11.5627 H   0  0  0  0  0  0  0  0  0  0  0  0
   16.8145    6.2344  -13.0919 C   0  0  0  0  0  0  0  0  0  0  0  0
   17.8389    7.1005  -13.4113 O   0  0  0  0  0  0  0  0  0  0  0  0
   17.5408    8.0148  -13.2842 H   0  0  0  0  0  0  0  0  0  0  0  0
  4  1  1  0  0  0
  4  5  2  0  0  0
  4  6  1  0  0  0
  1 10  1  0  0  0
  1  2  1  0  0  0
 10 13  1  0  0  0
 10 11  1  0  0  0
 13 14  1  0  0  0
  5  7  1  0  0  0
  6  8  1  0  0  0
  2  3  1  0  0  0
 11 12  1  0  0  0
 14 15  1  0  0  0
  7  9  1  0  0  0
M  END
> <minimizedAffinity>
-6.07316

$$$$
2GYI_HYA_A_960


 15 14  0  0  0  0  0  0  0  0999 V2000
   16.5566    6.1429  -10.9084 C   0  0  0  0  0  0  0  0  0  0  0  0
   16.1331    7.1996  -10.1147 O   0  0  0  0  0  0  0  0  0  0  0  0
   16.2484    8.0330  -10.5974 H   0  0  0  0  0  0  0  0  0  0  0  0
   15.7497    5.8240  -12.1830 C   0  0  0  0  0  0  0  0  0  0  0  0
   15.6276    4.6848  -12.8292 N   0  0  0  0  0  0  0  0  0  0  0  0
   14.9887    6.8474  -12.5051 O   0  0  0  0  0  0  0  0  0  0  0  0
   14.9507    4.7292  -14.0194 O   0  0  0  0  0  0  0  0  0  0  0  0
   15.0756    7.6589  -12.0449 H   0  0  0  0  0  0  0  0  0  0  0  0
   14.8342    3.9467  -14.5215 H   0  0  0  0  0  0  0  0  0  0  0  0
   18.0530    5.8536  -11.1777 C   0  0  0  0  0  0  0  0  0  0  0  0
   18.6091    6.8197  -10.3333 O   0  0  0  0  0  0  0  0  0  0  0  0
   18.3167    7.7011  -10.6137 H   0  0  0  0  0  0  0  0  0  0  0  0
   18.6425    6.1992  -12.5766 C   0  0  0  0  0  0  0  0  0  0  0  0
   18.0651    7.3307  -13.1133 O   0  0  0  0  0  0  0  0  0  0  0  0
   17.1133    7.1839  -13.2297 H   0  0  0  0  0  0  0  0  0  0  0  0
  4  1  1  0  0  0
  4  5  2  0  0  0
  4  6  1  0  0  0
  1 10  1  0  0  0
  1  2  1  0  0  0
 10 13  1  0  0  0
 10 11  1  0  0  0
 13 14  1  0  0  0
  5  7  1  0  0  0
  6  8  1  0  0  0
  2  3  1  0  0  0
 11 12  1  0  0  0
 14 15  1  0  0  0
  7  9  1  0  0  0
M  END
> <minimizedAffinity>
-6.05660

$$$$
