2CLE_F6F_A_1268


 24 24  0  0  0  0  0  0  0  0999 V2000
   48.4807   27.9360   13.4924 C   0  0  0  0  0  0  0  0  0  0  0  0
   48.2472   27.7083   12.1611 N   0  0  0  0  0  0  0  0  0  0  0  0
   47.4757   28.0972   14.1725 O   0  0  0  0  0  0  0  0  0  0  0  0
   48.6988   27.0046   11.6413 H   0  0  0  0  0  0  0  0  0  0  0  0
   51.1951   24.5859   14.5773 C   0  0  0  0  0  0  0  0  0  0  0  0
   51.6077   25.6205   13.6675 C   0  0  0  0  0  0  0  0  0  0  0  0
   50.7146   26.6936   13.3420 C   0  0  0  0  0  0  0  0  0  0  0  0
   49.3849   26.7682   13.9221 C   0  0  0  0  0  0  0  0  0  0  0  0
   48.9564   25.7330   14.8463 C   0  0  0  0  0  0  0  0  0  0  0  0
   49.8680   24.6410   15.1741 C   0  0  0  0  0  0  0  0  0  0  0  0
   51.9871   23.5108   14.9207 O   0  0  0  0  0  0  0  0  0  0  0  0
   52.0637   22.4762   13.9522 C   0  0  0  0  0  0  0  0  0  0  0  0
   50.8630   22.1436   13.4926 F   0  0  0  0  0  0  0  0  0  0  0  0
   52.6017   21.3906   14.4853 F   0  0  0  0  0  0  0  0  0  0  0  0
   52.8083   22.8339   12.9170 F   0  0  0  0  0  0  0  0  0  0  0  0
   47.2358   28.6406   11.5840 C   0  0  0  0  0  0  0  0  0  0  0  0
   47.5075   29.2007   10.2187 C   0  0  0  0  0  0  0  0  0  0  0  0
   47.4216   30.5438   10.1390 O   0  0  0  0  0  0  0  0  0  0  0  0
   46.3589   30.9125    8.9534 P   0  0  0  0  0  0  0  0  0  0  0  0
   45.1589   29.9982    9.0747 O   0  0  0  0  0  0  0  0  0  0  0  0
   47.1296   30.6287    7.6974 O   0  0  0  0  0  0  0  0  0  0  0  0
   45.9069   32.3200    9.2848 O   0  0  0  0  0  0  0  0  0  0  0  0
   45.4233   29.0884    8.8668 H   0  0  0  0  0  0  0  0  0  0  0  0
   45.4263   32.3152   10.1274 H   0  0  0  0  0  0  0  0  0  0  0  0
  5  6  1  0  0  0
  5 10  2  0  0  0
  5 11  1  0  0  0
  6  7  2  0  0  0
  7  8  1  0  0  0
  8  9  2  0  0  0
  8  1  1  0  0  0
  9 10  1  0  0  0
 11 12  1  0  0  0
 12 13  1  0  0  0
 12 14  1  0  0  0
 12 15  1  0  0  0
  1  2  1  0  0  0
  1  3  2  0  0  0
  2 16  1  0  0  0
 16 17  1  0  0  0
 17 18  1  0  0  0
 18 19  1  0  0  0
 19 20  1  0  0  0
 19 21  2  0  0  0
 19 22  1  0  0  0
  2  4  1  0  0  0
 20 23  1  0  0  0
 22 24  1  0  0  0
M  END
> <minimizedAffinity>
-8.83332

$$$$
2CLE_F6F_A_1268


 24 24  0  0  0  0  0  0  0  0999 V2000
   48.5642   27.8661   13.5879 C   0  0  0  0  0  0  0  0  0  0  0  0
   48.4790   27.9292   12.2213 N   0  0  0  0  0  0  0  0  0  0  0  0
   47.4892   27.7983   14.1695 O   0  0  0  0  0  0  0  0  0  0  0  0
   49.0414   27.3948   11.6151 H   0  0  0  0  0  0  0  0  0  0  0  0
   51.2653   24.4584   14.5151 C   0  0  0  0  0  0  0  0  0  0  0  0
   49.9645   24.5695   15.1183 C   0  0  0  0  0  0  0  0  0  0  0  0
   49.1109   25.6748   14.7944 C   0  0  0  0  0  0  0  0  0  0  0  0
   49.5296   26.6982   13.8524 C   0  0  0  0  0  0  0  0  0  0  0  0
   50.8387   26.5964   13.2318 C   0  0  0  0  0  0  0  0  0  0  0  0
   51.7059   25.4704   13.5652 C   0  0  0  0  0  0  0  0  0  0  0  0
   52.1514   23.4393   14.7933 O   0  0  0  0  0  0  0  0  0  0  0  0
   52.2350   22.4192   13.8102 C   0  0  0  0  0  0  0  0  0  0  0  0
   52.8329   21.3309   14.2809 F   0  0  0  0  0  0  0  0  0  0  0  0
   52.9377   22.8428   12.7714 F   0  0  0  0  0  0  0  0  0  0  0  0
   51.0357   22.0653   13.3740 F   0  0  0  0  0  0  0  0  0  0  0  0
   47.4433   28.8940   11.7507 C   0  0  0  0  0  0  0  0  0  0  0  0
   47.4420   29.2553   10.2943 C   0  0  0  0  0  0  0  0  0  0  0  0
   47.4913   30.5799   10.0476 O   0  0  0  0  0  0  0  0  0  0  0  0
   46.3794   30.9215    8.8997 P   0  0  0  0  0  0  0  0  0  0  0  0
   45.2090   29.9754    9.0598 O   0  0  0  0  0  0  0  0  0  0  0  0
   47.1141   30.6600    7.6176 O   0  0  0  0  0  0  0  0  0  0  0  0
   45.9016   32.3161    9.2493 O   0  0  0  0  0  0  0  0  0  0  0  0
   45.4903   29.0732    8.8410 H   0  0  0  0  0  0  0  0  0  0  0  0
   45.4504   32.2975   10.1078 H   0  0  0  0  0  0  0  0  0  0  0  0
  5  6  1  0  0  0
  5 10  2  0  0  0
  5 11  1  0  0  0
  6  7  2  0  0  0
  7  8  1  0  0  0
  8  9  2  0  0  0
  8  1  1  0  0  0
  9 10  1  0  0  0
 11 12  1  0  0  0
 12 13  1  0  0  0
 12 14  1  0  0  0
 12 15  1  0  0  0
  1  2  1  0  0  0
  1  3  2  0  0  0
  2 16  1  0  0  0
 16 17  1  0  0  0
 17 18  1  0  0  0
 18 19  1  0  0  0
 19 20  1  0  0  0
 19 21  2  0  0  0
 19 22  1  0  0  0
  2  4  1  0  0  0
 20 23  1  0  0  0
 22 24  1  0  0  0
M  END
> <minimizedAffinity>
-8.80212

$$$$
2CLE_F6F_A_1268


 24 24  0  0  0  0  0  0  0  0999 V2000
   49.4030   27.6945   13.7821 C   0  0  0  0  0  0  0  0  0  0  0  0
   48.0883   27.3983   13.5318 N   0  0  0  0  0  0  0  0  0  0  0  0
   49.5843   28.5896   14.5973 O   0  0  0  0  0  0  0  0  0  0  0  0
   47.7353   26.4803   13.4888 H   0  0  0  0  0  0  0  0  0  0  0  0
   51.3466   23.7990   14.6850 C   0  0  0  0  0  0  0  0  0  0  0  0
   52.0389   24.8328   13.9637 C   0  0  0  0  0  0  0  0  0  0  0  0
   51.3905   26.0826   13.6939 C   0  0  0  0  0  0  0  0  0  0  0  0
   50.0332   26.3387   14.1435 C   0  0  0  0  0  0  0  0  0  0  0  0
   49.3235   25.3057   14.8772 C   0  0  0  0  0  0  0  0  0  0  0  0
   49.9863   24.0337   15.1488 C   0  0  0  0  0  0  0  0  0  0  0  0
   51.8935   22.5640   14.9622 O   0  0  0  0  0  0  0  0  0  0  0  0
   52.1062   21.7253   13.8372 C   0  0  0  0  0  0  0  0  0  0  0  0
   52.3851   20.4785   14.1996 F   0  0  0  0  0  0  0  0  0  0  0  0
   53.1272   22.1708   13.1222 F   0  0  0  0  0  0  0  0  0  0  0  0
   51.0419   21.6894   13.0498 F   0  0  0  0  0  0  0  0  0  0  0  0
   47.2495   28.6156   13.3316 C   0  0  0  0  0  0  0  0  0  0  0  0
   46.5764   28.7834   12.0012 C   0  0  0  0  0  0  0  0  0  0  0  0
   47.2512   28.2504   10.9628 O   0  0  0  0  0  0  0  0  0  0  0  0
   47.8697   29.4780   10.0789 P   0  0  0  0  0  0  0  0  0  0  0  0
   49.0786   30.0347   10.7994 O   0  0  0  0  0  0  0  0  0  0  0  0
   46.7518   30.4786   10.0466 O   0  0  0  0  0  0  0  0  0  0  0  0
   48.3522   28.8125    8.8063 O   0  0  0  0  0  0  0  0  0  0  0  0
   48.7951   30.4672   11.6201 H   0  0  0  0  0  0  0  0  0  0  0  0
   49.0746   28.2000    9.0156 H   0  0  0  0  0  0  0  0  0  0  0  0
  5  6  1  0  0  0
  5 10  2  0  0  0
  5 11  1  0  0  0
  6  7  2  0  0  0
  7  8  1  0  0  0
  8  9  2  0  0  0
  8  1  1  0  0  0
  9 10  1  0  0  0
 11 12  1  0  0  0
 12 13  1  0  0  0
 12 14  1  0  0  0
 12 15  1  0  0  0
  1  2  1  0  0  0
  1  3  2  0  0  0
  2 16  1  0  0  0
 16 17  1  0  0  0
 17 18  1  0  0  0
 18 19  1  0  0  0
 19 20  1  0  0  0
 19 21  2  0  0  0
 19 22  1  0  0  0
  2  4  1  0  0  0
 20 23  1  0  0  0
 22 24  1  0  0  0
M  END
> <minimizedAffinity>
-8.12883

$$$$
2CLE_F6F_A_1268


 24 24  0  0  0  0  0  0  0  0999 V2000
   50.2317   28.1150   10.9512 C   0  0  0  0  0  0  0  0  0  0  0  0
   49.0888   27.5626   10.4341 N   0  0  0  0  0  0  0  0  0  0  0  0
   50.1144   29.2671   11.3479 O   0  0  0  0  0  0  0  0  0  0  0  0
   48.7743   26.6559   10.6535 H   0  0  0  0  0  0  0  0  0  0  0  0
   51.4819   25.2791   14.1392 C   0  0  0  0  0  0  0  0  0  0  0  0
   50.3221   26.1156   14.2926 C   0  0  0  0  0  0  0  0  0  0  0  0
   49.9372   27.0150   13.2446 C   0  0  0  0  0  0  0  0  0  0  0  0
   50.6964   27.0995   12.0091 C   0  0  0  0  0  0  0  0  0  0  0  0
   51.8671   26.2573   11.8382 C   0  0  0  0  0  0  0  0  0  0  0  0
   52.2569   25.3439   12.9081 C   0  0  0  0  0  0  0  0  0  0  0  0
   51.9284   24.4075   15.1098 O   0  0  0  0  0  0  0  0  0  0  0  0
   51.4232   23.0843   15.0197 C   0  0  0  0  0  0  0  0  0  0  0  0
   50.4143   23.0010   14.1603 F   0  0  0  0  0  0  0  0  0  0  0  0
   50.9760   22.6850   16.1999 F   0  0  0  0  0  0  0  0  0  0  0  0
   52.3590   22.2326   14.6289 F   0  0  0  0  0  0  0  0  0  0  0  0
   48.3723   28.4822    9.5033 C   0  0  0  0  0  0  0  0  0  0  0  0
   47.2438   29.2966   10.0643 C   0  0  0  0  0  0  0  0  0  0  0  0
   47.3843   30.6282    9.9072 O   0  0  0  0  0  0  0  0  0  0  0  0
   46.2105   31.1438    8.8938 P   0  0  0  0  0  0  0  0  0  0  0  0
   46.7118   31.0283    7.4705 O   0  0  0  0  0  0  0  0  0  0  0  0
   46.0217   32.5802    9.2852 O   0  0  0  0  0  0  0  0  0  0  0  0
   45.0935   30.1368    9.0769 O   0  0  0  0  0  0  0  0  0  0  0  0
   47.4296   31.6649    7.3278 H   0  0  0  0  0  0  0  0  0  0  0  0
   45.3910   29.2652    8.7724 H   0  0  0  0  0  0  0  0  0  0  0  0
  5  6  1  0  0  0
  5 10  2  0  0  0
  5 11  1  0  0  0
  6  7  2  0  0  0
  7  8  1  0  0  0
  8  9  2  0  0  0
  8  1  1  0  0  0
  9 10  1  0  0  0
 11 12  1  0  0  0
 12 13  1  0  0  0
 12 14  1  0  0  0
 12 15  1  0  0  0
  1  2  1  0  0  0
  1  3  2  0  0  0
  2 16  1  0  0  0
 16 17  1  0  0  0
 17 18  1  0  0  0
 18 19  1  0  0  0
 19 20  1  0  0  0
 19 21  2  0  0  0
 19 22  1  0  0  0
  2  4  1  0  0  0
 20 23  1  0  0  0
 22 24  1  0  0  0
M  END
> <minimizedAffinity>
-7.93668

$$$$
2CLE_F6F_A_1268


 24 24  0  0  0  0  0  0  0  0999 V2000
   52.9147   26.4228    9.7515 C   0  0  0  0  0  0  0  0  0  0  0  0
   52.6817   25.1324    9.3524 N   0  0  0  0  0  0  0  0  0  0  0  0
   53.1919   27.2005    8.8478 O   0  0  0  0  0  0  0  0  0  0  0  0
   51.9245   24.5912    9.6732 H   0  0  0  0  0  0  0  0  0  0  0  0
   49.3799   27.3716   12.2761 C   0  0  0  0  0  0  0  0  0  0  0  0
   50.5852   26.8323   12.8461 C   0  0  0  0  0  0  0  0  0  0  0  0
   51.7129   26.5436   12.0093 C   0  0  0  0  0  0  0  0  0  0  0  0
   51.6716   26.7923   10.5787 C   0  0  0  0  0  0  0  0  0  0  0  0
   50.4627   27.3412    9.9899 C   0  0  0  0  0  0  0  0  0  0  0  0
   49.3159   27.6324   10.8449 C   0  0  0  0  0  0  0  0  0  0  0  0
   48.2474   27.6527   13.0105 O   0  0  0  0  0  0  0  0  0  0  0  0
   48.3023   28.8411   13.7844 C   0  0  0  0  0  0  0  0  0  0  0  0
   48.9513   29.8108   13.1505 F   0  0  0  0  0  0  0  0  0  0  0  0
   48.9369   28.6149   14.9239 F   0  0  0  0  0  0  0  0  0  0  0  0
   47.0899   29.2882   14.0748 F   0  0  0  0  0  0  0  0  0  0  0  0
   53.6980   24.6357    8.3800 C   0  0  0  0  0  0  0  0  0  0  0  0
   54.0030   23.1665    8.3844 C   0  0  0  0  0  0  0  0  0  0  0  0
   55.3122   22.8684    8.5055 O   0  0  0  0  0  0  0  0  0  0  0  0
   55.4469   21.5806    9.5026 P   0  0  0  0  0  0  0  0  0  0  0  0
   56.8825   21.4758    9.9700 O   0  0  0  0  0  0  0  0  0  0  0  0
   55.0792   20.4218    8.6228 O   0  0  0  0  0  0  0  0  0  0  0  0
   54.5934   21.9472   10.6994 O   0  0  0  0  0  0  0  0  0  0  0  0
   57.4506   21.2413    9.2196 H   0  0  0  0  0  0  0  0  0  0  0  0
   54.9792   22.7156   11.1484 H   0  0  0  0  0  0  0  0  0  0  0  0
  5  6  1  0  0  0
  5 10  2  0  0  0
  5 11  1  0  0  0
  6  7  2  0  0  0
  7  8  1  0  0  0
  8  9  2  0  0  0
  8  1  1  0  0  0
  9 10  1  0  0  0
 11 12  1  0  0  0
 12 13  1  0  0  0
 12 14  1  0  0  0
 12 15  1  0  0  0
  1  2  1  0  0  0
  1  3  2  0  0  0
  2 16  1  0  0  0
 16 17  1  0  0  0
 17 18  1  0  0  0
 18 19  1  0  0  0
 19 20  1  0  0  0
 19 21  2  0  0  0
 19 22  1  0  0  0
  2  4  1  0  0  0
 20 23  1  0  0  0
 22 24  1  0  0  0
M  END
> <minimizedAffinity>
-7.55870

$$$$
2CLE_F6F_A_1268


 24 24  0  0  0  0  0  0  0  0999 V2000
   49.6842   28.2354    9.8053 C   0  0  0  0  0  0  0  0  0  0  0  0
   48.7973   27.5493   10.5937 N   0  0  0  0  0  0  0  0  0  0  0  0
   50.2526   29.1676   10.3587 O   0  0  0  0  0  0  0  0  0  0  0  0
   48.7504   26.5667   10.6332 H   0  0  0  0  0  0  0  0  0  0  0  0
   52.4778   25.1158    8.3112 C   0  0  0  0  0  0  0  0  0  0  0  0
   52.5039   25.5512    9.6816 C   0  0  0  0  0  0  0  0  0  0  0  0
   51.5855   26.5530   10.1382 C   0  0  0  0  0  0  0  0  0  0  0  0
   50.6089   27.1440    9.2398 C   0  0  0  0  0  0  0  0  0  0  0  0
   50.5678   26.7105    7.8543 C   0  0  0  0  0  0  0  0  0  0  0  0
   51.5055   25.6914    7.3926 C   0  0  0  0  0  0  0  0  0  0  0  0
   53.3426   24.1757    7.7922 O   0  0  0  0  0  0  0  0  0  0  0  0
   54.6187   24.6662    7.4110 C   0  0  0  0  0  0  0  0  0  0  0  0
   55.5474   24.3737    8.3140 F   0  0  0  0  0  0  0  0  0  0  0  0
   54.5831   25.9837    7.2875 F   0  0  0  0  0  0  0  0  0  0  0  0
   55.0077   24.1584    6.2513 F   0  0  0  0  0  0  0  0  0  0  0  0
   47.9105   28.4505   11.3853 C   0  0  0  0  0  0  0  0  0  0  0  0
   46.8660   29.2272   10.6389 C   0  0  0  0  0  0  0  0  0  0  0  0
   47.2844   30.4213   10.1734 O   0  0  0  0  0  0  0  0  0  0  0  0
   46.2933   30.8624    8.9511 P   0  0  0  0  0  0  0  0  0  0  0  0
   45.9142   32.3162    9.1333 O   0  0  0  0  0  0  0  0  0  0  0  0
   45.1025   29.9670    9.1309 O   0  0  0  0  0  0  0  0  0  0  0  0
   47.1615   30.7594    7.7139 O   0  0  0  0  0  0  0  0  0  0  0  0
   45.3564   32.4086    9.9215 H   0  0  0  0  0  0  0  0  0  0  0  0
   47.8792   31.4098    7.7675 H   0  0  0  0  0  0  0  0  0  0  0  0
  5  6  1  0  0  0
  5 10  2  0  0  0
  5 11  1  0  0  0
  6  7  2  0  0  0
  7  8  1  0  0  0
  8  9  2  0  0  0
  8  1  1  0  0  0
  9 10  1  0  0  0
 11 12  1  0  0  0
 12 13  1  0  0  0
 12 14  1  0  0  0
 12 15  1  0  0  0
  1  2  1  0  0  0
  1  3  2  0  0  0
  2 16  1  0  0  0
 16 17  1  0  0  0
 17 18  1  0  0  0
 18 19  1  0  0  0
 19 20  1  0  0  0
 19 21  2  0  0  0
 19 22  1  0  0  0
  2  4  1  0  0  0
 20 23  1  0  0  0
 22 24  1  0  0  0
M  END
> <minimizedAffinity>
-7.16407

$$$$
2CLE_F6F_A_1268


 24 24  0  0  0  0  0  0  0  0999 V2000
   50.8474   28.0137    7.8744 C   0  0  0  0  0  0  0  0  0  0  0  0
   52.0524   27.3905    8.0703 N   0  0  0  0  0  0  0  0  0  0  0  0
   50.1883   27.5804    6.9383 O   0  0  0  0  0  0  0  0  0  0  0  0
   52.3817   27.1064    8.9536 H   0  0  0  0  0  0  0  0  0  0  0  0
   48.9860   27.6893   11.8991 C   0  0  0  0  0  0  0  0  0  0  0  0
   50.3480   27.2892   11.6687 C   0  0  0  0  0  0  0  0  0  0  0  0
   50.9253   27.4127   10.3622 C   0  0  0  0  0  0  0  0  0  0  0  0
   50.1601   27.9468    9.2490 C   0  0  0  0  0  0  0  0  0  0  0  0
   48.7850   28.3595    9.4680 C   0  0  0  0  0  0  0  0  0  0  0  0
   48.2000   28.2307   10.7992 C   0  0  0  0  0  0  0  0  0  0  0  0
   48.3540   27.5794   13.1196 O   0  0  0  0  0  0  0  0  0  0  0  0
   48.4248   28.7294   13.9484 C   0  0  0  0  0  0  0  0  0  0  0  0
   49.0992   28.4884   15.0666 F   0  0  0  0  0  0  0  0  0  0  0  0
   47.2076   29.1195   14.2927 F   0  0  0  0  0  0  0  0  0  0  0  0
   49.0165   29.7392   13.3286 F   0  0  0  0  0  0  0  0  0  0  0  0
   52.8116   27.1886    6.8022 C   0  0  0  0  0  0  0  0  0  0  0  0
   54.2413   26.7467    6.9121 C   0  0  0  0  0  0  0  0  0  0  0  0
   54.4384   25.4323    6.6861 O   0  0  0  0  0  0  0  0  0  0  0  0
   54.9200   24.7453    8.0886 P   0  0  0  0  0  0  0  0  0  0  0  0
   56.0381   25.5774    8.6786 O   0  0  0  0  0  0  0  0  0  0  0  0
   55.4188   23.3965    7.6598 O   0  0  0  0  0  0  0  0  0  0  0  0
   53.7149   24.8738    8.9976 O   0  0  0  0  0  0  0  0  0  0  0  0
   56.8233   25.5115    8.1130 H   0  0  0  0  0  0  0  0  0  0  0  0
   53.5374   25.8119    9.1687 H   0  0  0  0  0  0  0  0  0  0  0  0
  5  6  1  0  0  0
  5 10  2  0  0  0
  5 11  1  0  0  0
  6  7  2  0  0  0
  7  8  1  0  0  0
  8  9  2  0  0  0
  8  1  1  0  0  0
  9 10  1  0  0  0
 11 12  1  0  0  0
 12 13  1  0  0  0
 12 14  1  0  0  0
 12 15  1  0  0  0
  1  2  1  0  0  0
  1  3  2  0  0  0
  2 16  1  0  0  0
 16 17  1  0  0  0
 17 18  1  0  0  0
 18 19  1  0  0  0
 19 20  1  0  0  0
 19 21  2  0  0  0
 19 22  1  0  0  0
  2  4  1  0  0  0
 20 23  1  0  0  0
 22 24  1  0  0  0
M  END
> <minimizedAffinity>
-6.74503

$$$$
2CLE_F6F_A_1268


 24 24  0  0  0  0  0  0  0  0999 V2000
   52.8791   20.9063    8.4606 C   0  0  0  0  0  0  0  0  0  0  0  0
   52.8938   22.2205    8.0713 N   0  0  0  0  0  0  0  0  0  0  0  0
   53.8487   20.2509    8.1020 O   0  0  0  0  0  0  0  0  0  0  0  0
   52.6720   22.9690    8.6712 H   0  0  0  0  0  0  0  0  0  0  0  0
   52.4005   21.1304   12.8752 C   0  0  0  0  0  0  0  0  0  0  0  0
   53.4398   21.8563   12.1961 C   0  0  0  0  0  0  0  0  0  0  0  0
   53.5655   21.7722   10.7704 C   0  0  0  0  0  0  0  0  0  0  0  0
   52.6513   20.9656    9.9807 C   0  0  0  0  0  0  0  0  0  0  0  0
   51.5939   20.2309   10.6525 C   0  0  0  0  0  0  0  0  0  0  0  0
   51.4699   20.3176   12.1044 C   0  0  0  0  0  0  0  0  0  0  0  0
   52.2300   21.1419   14.2434 O   0  0  0  0  0  0  0  0  0  0  0  0
   51.8071   22.3796   14.7944 C   0  0  0  0  0  0  0  0  0  0  0  0
   50.8868   22.9657   14.0375 F   0  0  0  0  0  0  0  0  0  0  0  0
   52.8330   23.2107   14.8906 F   0  0  0  0  0  0  0  0  0  0  0  0
   51.2949   22.2225   16.0055 F   0  0  0  0  0  0  0  0  0  0  0  0
   53.2819   22.3955    6.6416 C   0  0  0  0  0  0  0  0  0  0  0  0
   54.3478   23.4046    6.3303 C   0  0  0  0  0  0  0  0  0  0  0  0
   55.2070   23.6395    7.3423 O   0  0  0  0  0  0  0  0  0  0  0  0
   55.1346   25.2308    7.7073 P   0  0  0  0  0  0  0  0  0  0  0  0
   56.1369   25.5243    8.8027 O   0  0  0  0  0  0  0  0  0  0  0  0
   53.7283   25.4094    8.1996 O   0  0  0  0  0  0  0  0  0  0  0  0
   55.6085   25.9227    6.4456 O   0  0  0  0  0  0  0  0  0  0  0  0
   55.8550   25.0909    9.6235 H   0  0  0  0  0  0  0  0  0  0  0  0
   56.5368   25.6948    6.2810 H   0  0  0  0  0  0  0  0  0  0  0  0
  5  6  1  0  0  0
  5 10  2  0  0  0
  5 11  1  0  0  0
  6  7  2  0  0  0
  7  8  1  0  0  0
  8  9  2  0  0  0
  8  1  1  0  0  0
  9 10  1  0  0  0
 11 12  1  0  0  0
 12 13  1  0  0  0
 12 14  1  0  0  0
 12 15  1  0  0  0
  1  2  1  0  0  0
  1  3  2  0  0  0
  2 16  1  0  0  0
 16 17  1  0  0  0
 17 18  1  0  0  0
 18 19  1  0  0  0
 19 20  1  0  0  0
 19 21  2  0  0  0
 19 22  1  0  0  0
  2  4  1  0  0  0
 20 23  1  0  0  0
 22 24  1  0  0  0
M  END
> <minimizedAffinity>
-6.68998

$$$$
2CLE_F6F_A_1268


 24 24  0  0  0  0  0  0  0  0999 V2000
   52.6157   26.1864    9.5388 C   0  0  0  0  0  0  0  0  0  0  0  0
   51.9723   25.5731    8.4953 N   0  0  0  0  0  0  0  0  0  0  0  0
   53.3431   27.1181    9.2207 O   0  0  0  0  0  0  0  0  0  0  0  0
   51.0171   25.3351    8.5084 H   0  0  0  0  0  0  0  0  0  0  0  0
   49.2852   27.3269   12.2546 C   0  0  0  0  0  0  0  0  0  0  0  0
   49.1879   27.5093   10.8313 C   0  0  0  0  0  0  0  0  0  0  0  0
   50.2742   27.1246    9.9785 C   0  0  0  0  0  0  0  0  0  0  0  0
   51.4873   26.5395   10.5227 C   0  0  0  0  0  0  0  0  0  0  0  0
   51.5977   26.3450   11.9577 C   0  0  0  0  0  0  0  0  0  0  0  0
   50.4902   26.7393   12.8231 C   0  0  0  0  0  0  0  0  0  0  0  0
   48.2943   27.6929   13.1407 O   0  0  0  0  0  0  0  0  0  0  0  0
   48.0417   29.0866   13.2309 C   0  0  0  0  0  0  0  0  0  0  0  0
   47.2364   29.3754   14.2465 F   0  0  0  0  0  0  0  0  0  0  0  0
   47.4578   29.5173   12.1237 F   0  0  0  0  0  0  0  0  0  0  0  0
   49.1620   29.7738   13.3947 F   0  0  0  0  0  0  0  0  0  0  0  0
   52.8742   25.3049    7.3377 C   0  0  0  0  0  0  0  0  0  0  0  0
   53.4468   23.9239    7.2096 C   0  0  0  0  0  0  0  0  0  0  0  0
   53.0312   23.0571    8.1549 O   0  0  0  0  0  0  0  0  0  0  0  0
   54.3331   22.2210    8.6810 P   0  0  0  0  0  0  0  0  0  0  0  0
   54.3145   22.1939   10.1941 O   0  0  0  0  0  0  0  0  0  0  0  0
   55.4914   23.0262    8.1693 O   0  0  0  0  0  0  0  0  0  0  0  0
   54.0916   20.8092    8.1873 O   0  0  0  0  0  0  0  0  0  0  0  0
   54.4673   23.0889   10.5354 H   0  0  0  0  0  0  0  0  0  0  0  0
   53.3051   20.4446    8.6226 H   0  0  0  0  0  0  0  0  0  0  0  0
  5  6  1  0  0  0
  5 10  2  0  0  0
  5 11  1  0  0  0
  6  7  2  0  0  0
  7  8  1  0  0  0
  8  9  2  0  0  0
  8  1  1  0  0  0
  9 10  1  0  0  0
 11 12  1  0  0  0
 12 13  1  0  0  0
 12 14  1  0  0  0
 12 15  1  0  0  0
  1  2  1  0  0  0
  1  3  2  0  0  0
  2 16  1  0  0  0
 16 17  1  0  0  0
 17 18  1  0  0  0
 18 19  1  0  0  0
 19 20  1  0  0  0
 19 21  2  0  0  0
 19 22  1  0  0  0
  2  4  1  0  0  0
 20 23  1  0  0  0
 22 24  1  0  0  0
M  END
> <minimizedAffinity>
-6.60156

$$$$
2CLE_F6F_A_1268


 24 24  0  0  0  0  0  0  0  0999 V2000
   49.5144   27.3263   13.1441 C   0  0  0  0  0  0  0  0  0  0  0  0
   49.9444   27.5858   11.8687 N   0  0  0  0  0  0  0  0  0  0  0  0
   48.3037   27.1905   13.2629 O   0  0  0  0  0  0  0  0  0  0  0  0
   50.7144   27.1362   11.4513 H   0  0  0  0  0  0  0  0  0  0  0  0
   51.8562   23.8347   14.5906 C   0  0  0  0  0  0  0  0  0  0  0  0
   50.5538   24.1355   15.1212 C   0  0  0  0  0  0  0  0  0  0  0  0
   49.8173   25.2632   14.6300 C   0  0  0  0  0  0  0  0  0  0  0  0
   50.3581   26.1194   13.5886 C   0  0  0  0  0  0  0  0  0  0  0  0
   51.6701   25.8249   13.0400 C   0  0  0  0  0  0  0  0  0  0  0  0
   52.4178   24.6768   13.5437 C   0  0  0  0  0  0  0  0  0  0  0  0
   52.6344   22.7836   15.0274 O   0  0  0  0  0  0  0  0  0  0  0  0
   52.4196   21.5486   14.3619 C   0  0  0  0  0  0  0  0  0  0  0  0
   52.0307   20.5980   15.2037 F   0  0  0  0  0  0  0  0  0  0  0  0
   53.5394   21.1389   13.7871 F   0  0  0  0  0  0  0  0  0  0  0  0
   51.4947   21.6585   13.4204 F   0  0  0  0  0  0  0  0  0  0  0  0
   49.1211   28.6222   11.1808 C   0  0  0  0  0  0  0  0  0  0  0  0
   49.2295   28.7158    9.6871 C   0  0  0  0  0  0  0  0  0  0  0  0
   50.3952   29.2272    9.2429 O   0  0  0  0  0  0  0  0  0  0  0  0
   51.3707   27.9809    8.8355 P   0  0  0  0  0  0  0  0  0  0  0  0
   51.9755   28.2610    7.4767 O   0  0  0  0  0  0  0  0  0  0  0  0
   50.4324   26.8112    8.7785 O   0  0  0  0  0  0  0  0  0  0  0  0
   52.4854   28.0319    9.8603 O   0  0  0  0  0  0  0  0  0  0  0  0
   51.2797   28.2339    6.8013 H   0  0  0  0  0  0  0  0  0  0  0  0
   52.9879   28.8543    9.7507 H   0  0  0  0  0  0  0  0  0  0  0  0
  5  6  1  0  0  0
  5 10  2  0  0  0
  5 11  1  0  0  0
  6  7  2  0  0  0
  7  8  1  0  0  0
  8  9  2  0  0  0
  8  1  1  0  0  0
  9 10  1  0  0  0
 11 12  1  0  0  0
 12 13  1  0  0  0
 12 14  1  0  0  0
 12 15  1  0  0  0
  1  2  1  0  0  0
  1  3  2  0  0  0
  2 16  1  0  0  0
 16 17  1  0  0  0
 17 18  1  0  0  0
 18 19  1  0  0  0
 19 20  1  0  0  0
 19 21  2  0  0  0
 19 22  1  0  0  0
  2  4  1  0  0  0
 20 23  1  0  0  0
 22 24  1  0  0  0
M  END
> <minimizedAffinity>
-6.52901

$$$$
