6EYB_C3Z_A_301


 30 34  0  0  0  0  0  0  0  0999 V2000
   65.3047   33.0591   25.5717 C   0  0  0  0  0  0  0  0  0  0  0  0
   65.3035   33.8481   24.4285 C   0  0  0  0  0  0  0  0  0  0  0  0
   66.5126   34.3117   23.8535 C   0  0  0  0  0  0  0  0  0  0  0  0
   68.8499   32.5724   26.3259 C   0  0  0  0  0  0  0  0  0  0  0  0
   67.7390   33.9241   24.3857 C   0  0  0  0  0  0  0  0  0  0  0  0
   64.1289   34.2237   23.8805 O   0  0  0  0  0  0  0  0  0  0  0  0
   66.5522   32.6831   26.1242 C   0  0  0  0  0  0  0  0  0  0  0  0
   67.7648   33.1191   25.5273 C   0  0  0  0  0  0  0  0  0  0  0  0
   68.3122   31.9647   27.3645 N   0  0  0  0  0  0  0  0  0  0  0  0
   66.9256   31.9666   27.2407 N   0  0  0  0  0  0  0  0  0  0  0  0
   64.1207   34.7559   23.1094 H   0  0  0  0  0  0  0  0  0  0  0  0
   68.8144   31.5697   28.1135 H   0  0  0  0  0  0  0  0  0  0  0  0
   66.1634   36.1757   20.7127 C   0  0  0  0  0  0  0  0  0  0  0  0
   66.5060   35.2482   22.7048 C   0  0  0  0  0  0  0  0  0  0  0  0
   65.9287   35.0383   21.4866 C   0  0  0  0  0  0  0  0  0  0  0  0
   66.8492   37.0404   21.4141 N   0  0  0  0  0  0  0  0  0  0  0  0
   67.0549   36.5114   22.6913 N   0  0  0  0  0  0  0  0  0  0  0  0
   67.8159   37.1216   23.7186 C   0  0  0  0  0  0  0  0  0  0  0  0
   69.2164   37.1373   23.6027 C   0  0  0  0  0  0  0  0  0  0  0  0
   69.9971   37.6889   24.6250 C   0  0  0  0  0  0  0  0  0  0  0  0
   69.3842   38.2062   25.7695 C   0  0  0  0  0  0  0  0  0  0  0  0
   67.9898   38.1810   25.8909 C   0  0  0  0  0  0  0  0  0  0  0  0
   67.2034   37.6504   24.8703 C   0  0  0  0  0  0  0  0  0  0  0  0
   70.3213   32.8324   26.0797 C   0  0  0  0  0  0  0  0  0  0  0  0
   70.4692   30.5339   25.0167 C   0  0  0  0  0  0  0  0  0  0  0  0
   71.2172   29.4719   24.5006 C   0  0  0  0  0  0  0  0  0  0  0  0
   71.1015   31.7044   25.4356 C   0  0  0  0  0  0  0  0  0  0  0  0
   72.6049   29.5644   24.4116 C   0  0  0  0  0  0  0  0  0  0  0  0
   73.2470   30.7256   24.8515 C   0  0  0  0  0  0  0  0  0  0  0  0
   72.4950   31.7841   25.3707 C   0  0  0  0  0  0  0  0  0  0  0  0
 13 16  2  0  0  0
 13 15  1  0  0  0
 16 17  1  0  0  0
 15 14  2  0  0  0
 17 14  1  0  0  0
 17 18  1  0  0  0
 14  3  1  0  0  0
 29 28  2  0  0  0
 29 30  1  0  0  0
 19 18  2  0  0  0
 19 20  1  0  0  0
 28 26  1  0  0  0
 18 23  1  0  0  0
  3  5  2  0  0  0
  3  2  1  0  0  0
 30 27  2  0  0  0
  6  2  1  0  0  0
 20 21  2  0  0  0
 26 25  2  0  0  0
  5  8  1  0  0  0
  2  1  2  0  0  0
 23 22  2  0  0  0
 27 25  1  0  0  0
 27 24  1  0  0  0
 21 22  1  0  0  0
  8  7  1  0  0  0
  8  4  2  0  0  0
  1  7  1  0  0  0
 24  4  1  0  0  0
  7 10  2  0  0  0
  4  9  1  0  0  0
 10  9  1  0  0  0
  6 11  1  0  0  0
  9 12  1  0  0  0
M  END
> <minimizedAffinity>
-11.18629

$$$$
6EYB_C3Z_A_301


 30 34  0  0  0  0  0  0  0  0999 V2000
   72.2468   36.1959   27.1559 C   0  0  0  0  0  0  0  0  0  0  0  0
   71.0879   36.1941   26.3903 C   0  0  0  0  0  0  0  0  0  0  0  0
   71.0163   35.4848   25.1658 C   0  0  0  0  0  0  0  0  0  0  0  0
   74.5411   34.0174   25.3214 C   0  0  0  0  0  0  0  0  0  0  0  0
   72.0911   34.7112   24.7368 C   0  0  0  0  0  0  0  0  0  0  0  0
   70.0240   36.9207   26.7918 O   0  0  0  0  0  0  0  0  0  0  0  0
   73.3463   35.4257   26.7077 C   0  0  0  0  0  0  0  0  0  0  0  0
   73.2624   34.6867   25.4979 C   0  0  0  0  0  0  0  0  0  0  0  0
   75.3395   34.4239   26.2881 N   0  0  0  0  0  0  0  0  0  0  0  0
   74.6292   35.2311   27.1724 N   0  0  0  0  0  0  0  0  0  0  0  0
   69.2390   36.9241   26.2802 H   0  0  0  0  0  0  0  0  0  0  0  0
   76.2926   34.1922   26.3720 H   0  0  0  0  0  0  0  0  0  0  0  0
   68.3016   36.2794   22.8292 C   0  0  0  0  0  0  0  0  0  0  0  0
   69.8218   35.5789   24.2936 C   0  0  0  0  0  0  0  0  0  0  0  0
   69.5063   36.6062   23.4532 C   0  0  0  0  0  0  0  0  0  0  0  0
   67.8944   35.1143   23.2615 N   0  0  0  0  0  0  0  0  0  0  0  0
   68.8437   34.6185   24.1596 N   0  0  0  0  0  0  0  0  0  0  0  0
   68.7266   33.4123   24.8931 C   0  0  0  0  0  0  0  0  0  0  0  0
   69.6266   32.3674   24.6224 C   0  0  0  0  0  0  0  0  0  0  0  0
   69.5048   31.1466   25.2959 C   0  0  0  0  0  0  0  0  0  0  0  0
   68.4757   30.9607   26.2231 C   0  0  0  0  0  0  0  0  0  0  0  0
   67.5718   31.9970   26.4853 C   0  0  0  0  0  0  0  0  0  0  0  0
   67.6963   33.2220   25.8332 C   0  0  0  0  0  0  0  0  0  0  0  0
   74.9119   33.1610   24.1289 C   0  0  0  0  0  0  0  0  0  0  0  0
   73.3837   31.7467   22.6800 C   0  0  0  0  0  0  0  0  0  0  0  0
   72.5286   30.6544   22.5083 C   0  0  0  0  0  0  0  0  0  0  0  0
   74.0506   31.9374   23.8900 C   0  0  0  0  0  0  0  0  0  0  0  0
   72.3213   29.7508   23.5488 C   0  0  0  0  0  0  0  0  0  0  0  0
   72.9683   29.9491   24.7720 C   0  0  0  0  0  0  0  0  0  0  0  0
   73.8199   31.0455   24.9405 C   0  0  0  0  0  0  0  0  0  0  0  0
 13 16  2  0  0  0
 13 15  1  0  0  0
 16 17  1  0  0  0
 15 14  2  0  0  0
 17 14  1  0  0  0
 17 18  1  0  0  0
 14  3  1  0  0  0
 29 28  2  0  0  0
 29 30  1  0  0  0
 19 18  2  0  0  0
 19 20  1  0  0  0
 28 26  1  0  0  0
 18 23  1  0  0  0
  3  5  2  0  0  0
  3  2  1  0  0  0
 30 27  2  0  0  0
  6  2  1  0  0  0
 20 21  2  0  0  0
 26 25  2  0  0  0
  5  8  1  0  0  0
  2  1  2  0  0  0
 23 22  2  0  0  0
 27 25  1  0  0  0
 27 24  1  0  0  0
 21 22  1  0  0  0
  8  7  1  0  0  0
  8  4  2  0  0  0
  1  7  1  0  0  0
 24  4  1  0  0  0
  7 10  2  0  0  0
  4  9  1  0  0  0
 10  9  1  0  0  0
  6 11  1  0  0  0
  9 12  1  0  0  0
M  END
> <minimizedAffinity>
-11.10125

$$$$
6EYB_C3Z_A_301


 30 34  0  0  0  0  0  0  0  0999 V2000
   69.2233   37.3682   25.8922 C   0  0  0  0  0  0  0  0  0  0  0  0
   68.2310   36.9337   25.0228 C   0  0  0  0  0  0  0  0  0  0  0  0
   68.4631   35.8727   24.1130 C   0  0  0  0  0  0  0  0  0  0  0  0
   72.0407   35.1318   25.2324 C   0  0  0  0  0  0  0  0  0  0  0  0
   69.6770   35.1916   24.1210 C   0  0  0  0  0  0  0  0  0  0  0  0
   67.0379   37.5640   25.0066 O   0  0  0  0  0  0  0  0  0  0  0  0
   70.4646   36.6883   25.8847 C   0  0  0  0  0  0  0  0  0  0  0  0
   70.6852   35.6021   24.9968 C   0  0  0  0  0  0  0  0  0  0  0  0
   72.5993   35.9484   26.1031 N   0  0  0  0  0  0  0  0  0  0  0  0
   71.6546   36.8646   26.5571 N   0  0  0  0  0  0  0  0  0  0  0  0
   66.3639   37.2763   24.4226 H   0  0  0  0  0  0  0  0  0  0  0  0
   73.5408   35.9155   26.3889 H   0  0  0  0  0  0  0  0  0  0  0  0
   66.1903   35.3925   21.2731 C   0  0  0  0  0  0  0  0  0  0  0  0
   67.4448   35.4884   23.1070 C   0  0  0  0  0  0  0  0  0  0  0  0
   67.2470   36.0663   21.8872 C   0  0  0  0  0  0  0  0  0  0  0  0
   65.7582   34.4505   22.0707 N   0  0  0  0  0  0  0  0  0  0  0  0
   66.5469   34.4506   23.2246 N   0  0  0  0  0  0  0  0  0  0  0  0
   66.3465   33.6201   24.3545 C   0  0  0  0  0  0  0  0  0  0  0  0
   65.1815   33.7932   25.1214 C   0  0  0  0  0  0  0  0  0  0  0  0
   64.9794   33.0214   26.2713 C   0  0  0  0  0  0  0  0  0  0  0  0
   65.9459   32.0927   26.6673 C   0  0  0  0  0  0  0  0  0  0  0  0
   67.1119   31.9274   25.9104 C   0  0  0  0  0  0  0  0  0  0  0  0
   67.3133   32.6783   24.7540 C   0  0  0  0  0  0  0  0  0  0  0  0
   72.7155   34.0163   24.4620 C   0  0  0  0  0  0  0  0  0  0  0  0
   71.2422   32.2189   25.4786 C   0  0  0  0  0  0  0  0  0  0  0  0
   70.6220   30.9677   25.4174 C   0  0  0  0  0  0  0  0  0  0  0  0
   71.9617   32.7039   24.3867 C   0  0  0  0  0  0  0  0  0  0  0  0
   70.7271   30.1840   24.2699 C   0  0  0  0  0  0  0  0  0  0  0  0
   71.4665   30.6540   23.1806 C   0  0  0  0  0  0  0  0  0  0  0  0
   72.0884   31.9047   23.2477 C   0  0  0  0  0  0  0  0  0  0  0  0
 13 16  2  0  0  0
 13 15  1  0  0  0
 16 17  1  0  0  0
 15 14  2  0  0  0
 17 14  1  0  0  0
 17 18  1  0  0  0
 14  3  1  0  0  0
 29 28  2  0  0  0
 29 30  1  0  0  0
 19 18  2  0  0  0
 19 20  1  0  0  0
 28 26  1  0  0  0
 18 23  1  0  0  0
  3  5  2  0  0  0
  3  2  1  0  0  0
 30 27  2  0  0  0
  6  2  1  0  0  0
 20 21  2  0  0  0
 26 25  2  0  0  0
  5  8  1  0  0  0
  2  1  2  0  0  0
 23 22  2  0  0  0
 27 25  1  0  0  0
 27 24  1  0  0  0
 21 22  1  0  0  0
  8  7  1  0  0  0
  8  4  2  0  0  0
  1  7  1  0  0  0
 24  4  1  0  0  0
  7 10  2  0  0  0
  4  9  1  0  0  0
 10  9  1  0  0  0
  6 11  1  0  0  0
  9 12  1  0  0  0
M  END
> <minimizedAffinity>
-10.86680

$$$$
6EYB_C3Z_A_301


 30 34  0  0  0  0  0  0  0  0999 V2000
   67.3800   35.8004   22.1374 C   0  0  0  0  0  0  0  0  0  0  0  0
   66.7357   34.8831   22.9575 C   0  0  0  0  0  0  0  0  0  0  0  0
   67.0596   34.7709   24.3322 C   0  0  0  0  0  0  0  0  0  0  0  0
   69.6508   37.5787   24.3859 C   0  0  0  0  0  0  0  0  0  0  0  0
   67.9874   35.6333   24.9093 C   0  0  0  0  0  0  0  0  0  0  0  0
   65.8183   34.0469   22.4282 O   0  0  0  0  0  0  0  0  0  0  0  0
   68.3386   36.6626   22.7212 C   0  0  0  0  0  0  0  0  0  0  0  0
   68.6381   36.5735   24.1065 C   0  0  0  0  0  0  0  0  0  0  0  0
   69.9932   38.1280   23.2378 N   0  0  0  0  0  0  0  0  0  0  0  0
   69.1784   37.6350   22.2225 N   0  0  0  0  0  0  0  0  0  0  0  0
   65.3797   33.4256   22.9756 H   0  0  0  0  0  0  0  0  0  0  0  0
   70.7151   38.7865   23.1167 H   0  0  0  0  0  0  0  0  0  0  0  0
   65.0318   32.4965   26.3758 C   0  0  0  0  0  0  0  0  0  0  0  0
   66.4566   33.7141   25.1785 C   0  0  0  0  0  0  0  0  0  0  0  0
   65.1637   33.6558   25.6102 C   0  0  0  0  0  0  0  0  0  0  0  0
   66.1808   31.8733   26.4160 N   0  0  0  0  0  0  0  0  0  0  0  0
   67.0995   32.5875   25.6416 N   0  0  0  0  0  0  0  0  0  0  0  0
   68.4715   32.2673   25.4944 C   0  0  0  0  0  0  0  0  0  0  0  0
   68.8188   31.0491   24.8856 C   0  0  0  0  0  0  0  0  0  0  0  0
   70.1647   30.6828   24.7707 C   0  0  0  0  0  0  0  0  0  0  0  0
   71.1617   31.5198   25.2794 C   0  0  0  0  0  0  0  0  0  0  0  0
   70.8163   32.7281   25.8960 C   0  0  0  0  0  0  0  0  0  0  0  0
   69.4801   33.1098   25.9987 C   0  0  0  0  0  0  0  0  0  0  0  0
   70.3034   37.7977   25.7347 C   0  0  0  0  0  0  0  0  0  0  0  0
   72.3208   36.4031   25.0866 C   0  0  0  0  0  0  0  0  0  0  0  0
   73.3316   35.4928   25.4081 C   0  0  0  0  0  0  0  0  0  0  0  0
   71.4604   36.8803   26.0751 C   0  0  0  0  0  0  0  0  0  0  0  0
   73.4828   35.0404   26.7175 C   0  0  0  0  0  0  0  0  0  0  0  0
   72.6090   35.4967   27.7087 C   0  0  0  0  0  0  0  0  0  0  0  0
   71.5968   36.4045   27.3817 C   0  0  0  0  0  0  0  0  0  0  0  0
 13 16  2  0  0  0
 13 15  1  0  0  0
 16 17  1  0  0  0
 15 14  2  0  0  0
 17 14  1  0  0  0
 17 18  1  0  0  0
 14  3  1  0  0  0
 29 28  2  0  0  0
 29 30  1  0  0  0
 19 18  2  0  0  0
 19 20  1  0  0  0
 28 26  1  0  0  0
 18 23  1  0  0  0
  3  5  2  0  0  0
  3  2  1  0  0  0
 30 27  2  0  0  0
  6  2  1  0  0  0
 20 21  2  0  0  0
 26 25  2  0  0  0
  5  8  1  0  0  0
  2  1  2  0  0  0
 23 22  2  0  0  0
 27 25  1  0  0  0
 27 24  1  0  0  0
 21 22  1  0  0  0
  8  7  1  0  0  0
  8  4  2  0  0  0
  1  7  1  0  0  0
 24  4  1  0  0  0
  7 10  2  0  0  0
  4  9  1  0  0  0
 10  9  1  0  0  0
  6 11  1  0  0  0
  9 12  1  0  0  0
M  END
> <minimizedAffinity>
-10.34990

$$$$
6EYB_C3Z_A_301


 30 34  0  0  0  0  0  0  0  0999 V2000
   65.3021   33.2358   26.0568 C   0  0  0  0  0  0  0  0  0  0  0  0
   65.2788   33.9899   24.8907 C   0  0  0  0  0  0  0  0  0  0  0  0
   66.3941   34.0292   24.0177 C   0  0  0  0  0  0  0  0  0  0  0  0
   68.5672   31.5894   25.9991 C   0  0  0  0  0  0  0  0  0  0  0  0
   67.5185   33.2507   24.2770 C   0  0  0  0  0  0  0  0  0  0  0  0
   64.1940   34.7400   24.6049 O   0  0  0  0  0  0  0  0  0  0  0  0
   66.4545   32.4609   26.3300 C   0  0  0  0  0  0  0  0  0  0  0  0
   67.5588   32.4732   25.4371 C   0  0  0  0  0  0  0  0  0  0  0  0
   68.1315   31.1865   27.1760 N   0  0  0  0  0  0  0  0  0  0  0  0
   66.8350   31.6513   27.3784 N   0  0  0  0  0  0  0  0  0  0  0  0
   64.1715   35.2512   23.8200 H   0  0  0  0  0  0  0  0  0  0  0  0
   68.6446   30.6404   27.8145 H   0  0  0  0  0  0  0  0  0  0  0  0
   66.0419   35.8203   20.8351 C   0  0  0  0  0  0  0  0  0  0  0  0
   66.4124   34.9244   22.8366 C   0  0  0  0  0  0  0  0  0  0  0  0
   65.7386   34.7399   21.6648 C   0  0  0  0  0  0  0  0  0  0  0  0
   66.8595   36.6274   21.4598 N   0  0  0  0  0  0  0  0  0  0  0  0
   67.0901   36.1197   22.7414 N   0  0  0  0  0  0  0  0  0  0  0  0
   67.9763   36.6760   23.6963 C   0  0  0  0  0  0  0  0  0  0  0  0
   67.4418   37.2215   24.8761 C   0  0  0  0  0  0  0  0  0  0  0  0
   68.2877   37.8224   25.8153 C   0  0  0  0  0  0  0  0  0  0  0  0
   69.6616   37.8972   25.5701 C   0  0  0  0  0  0  0  0  0  0  0  0
   70.1937   37.3642   24.3900 C   0  0  0  0  0  0  0  0  0  0  0  0
   69.3617   36.7478   23.4576 C   0  0  0  0  0  0  0  0  0  0  0  0
   69.9362   31.3466   25.3990 C   0  0  0  0  0  0  0  0  0  0  0  0
   70.6333   33.6264   26.2660 C   0  0  0  0  0  0  0  0  0  0  0  0
   71.5423   34.6867   26.3229 C   0  0  0  0  0  0  0  0  0  0  0  0
   70.9411   32.4709   25.5480 C   0  0  0  0  0  0  0  0  0  0  0  0
   72.7608   34.6078   25.6513 C   0  0  0  0  0  0  0  0  0  0  0  0
   73.0655   33.4621   24.9104 C   0  0  0  0  0  0  0  0  0  0  0  0
   72.1516   32.4053   24.8532 C   0  0  0  0  0  0  0  0  0  0  0  0
 13 16  2  0  0  0
 13 15  1  0  0  0
 16 17  1  0  0  0
 15 14  2  0  0  0
 17 14  1  0  0  0
 17 18  1  0  0  0
 14  3  1  0  0  0
 29 28  2  0  0  0
 29 30  1  0  0  0
 19 18  2  0  0  0
 19 20  1  0  0  0
 28 26  1  0  0  0
 18 23  1  0  0  0
  3  5  2  0  0  0
  3  2  1  0  0  0
 30 27  2  0  0  0
  6  2  1  0  0  0
 20 21  2  0  0  0
 26 25  2  0  0  0
  5  8  1  0  0  0
  2  1  2  0  0  0
 23 22  2  0  0  0
 27 25  1  0  0  0
 27 24  1  0  0  0
 21 22  1  0  0  0
  8  7  1  0  0  0
  8  4  2  0  0  0
  1  7  1  0  0  0
 24  4  1  0  0  0
  7 10  2  0  0  0
  4  9  1  0  0  0
 10  9  1  0  0  0
  6 11  1  0  0  0
  9 12  1  0  0  0
M  END
> <minimizedAffinity>
-10.24957

$$$$
6EYB_C3Z_A_301


 30 34  0  0  0  0  0  0  0  0999 V2000
   68.0806   36.8790   22.0283 C   0  0  0  0  0  0  0  0  0  0  0  0
   68.7900   37.4214   23.0922 C   0  0  0  0  0  0  0  0  0  0  0  0
   68.5295   37.0264   24.4277 C   0  0  0  0  0  0  0  0  0  0  0  0
   65.8503   34.4350   23.5863 C   0  0  0  0  0  0  0  0  0  0  0  0
   67.5990   36.0268   24.6971 C   0  0  0  0  0  0  0  0  0  0  0  0
   69.7113   38.3793   22.8582 O   0  0  0  0  0  0  0  0  0  0  0  0
   67.1197   35.8776   22.3057 C   0  0  0  0  0  0  0  0  0  0  0  0
   66.8832   35.4568   23.6413 C   0  0  0  0  0  0  0  0  0  0  0  0
   65.4406   34.3506   22.3364 N   0  0  0  0  0  0  0  0  0  0  0  0
   66.2271   35.1691   21.5306 N   0  0  0  0  0  0  0  0  0  0  0  0
   70.1936   38.7496   23.5711 H   0  0  0  0  0  0  0  0  0  0  0  0
   64.6926   33.7937   22.0209 H   0  0  0  0  0  0  0  0  0  0  0  0
   69.7487   39.1148   27.1868 C   0  0  0  0  0  0  0  0  0  0  0  0
   69.2034   37.6895   25.5690 C   0  0  0  0  0  0  0  0  0  0  0  0
   68.8430   38.8680   26.1542 C   0  0  0  0  0  0  0  0  0  0  0  0
   70.6219   38.1426   27.2359 N   0  0  0  0  0  0  0  0  0  0  0  0
   70.2926   37.2014   26.2564 N   0  0  0  0  0  0  0  0  0  0  0  0
   71.0422   36.0387   25.9519 C   0  0  0  0  0  0  0  0  0  0  0  0
   72.2272   36.1750   25.2085 C   0  0  0  0  0  0  0  0  0  0  0  0
   72.9629   35.0396   24.8500 C   0  0  0  0  0  0  0  0  0  0  0  0
   72.5083   33.7694   25.2148 C   0  0  0  0  0  0  0  0  0  0  0  0
   71.3222   33.6318   25.9456 C   0  0  0  0  0  0  0  0  0  0  0  0
   70.5926   34.7574   26.3227 C   0  0  0  0  0  0  0  0  0  0  0  0
   65.2494   33.7465   24.7938 C   0  0  0  0  0  0  0  0  0  0  0  0
   66.0101   32.6831   26.9676 C   0  0  0  0  0  0  0  0  0  0  0  0
   66.9310   31.9332   27.7047 C   0  0  0  0  0  0  0  0  0  0  0  0
   66.1851   32.8649   25.5959 C   0  0  0  0  0  0  0  0  0  0  0  0
   68.0424   31.3701   27.0805 C   0  0  0  0  0  0  0  0  0  0  0  0
   68.2364   31.5681   25.7103 C   0  0  0  0  0  0  0  0  0  0  0  0
   67.3145   32.3223   24.9776 C   0  0  0  0  0  0  0  0  0  0  0  0
 13 16  2  0  0  0
 13 15  1  0  0  0
 16 17  1  0  0  0
 15 14  2  0  0  0
 17 14  1  0  0  0
 17 18  1  0  0  0
 14  3  1  0  0  0
 29 28  2  0  0  0
 29 30  1  0  0  0
 19 18  2  0  0  0
 19 20  1  0  0  0
 28 26  1  0  0  0
 18 23  1  0  0  0
  3  5  2  0  0  0
  3  2  1  0  0  0
 30 27  2  0  0  0
  6  2  1  0  0  0
 20 21  2  0  0  0
 26 25  2  0  0  0
  5  8  1  0  0  0
  2  1  2  0  0  0
 23 22  2  0  0  0
 27 25  1  0  0  0
 27 24  1  0  0  0
 21 22  1  0  0  0
  8  7  1  0  0  0
  8  4  2  0  0  0
  1  7  1  0  0  0
 24  4  1  0  0  0
  7 10  2  0  0  0
  4  9  1  0  0  0
 10  9  1  0  0  0
  6 11  1  0  0  0
  9 12  1  0  0  0
M  END
> <minimizedAffinity>
-10.12790

$$$$
6EYB_C3Z_A_301


 30 34  0  0  0  0  0  0  0  0999 V2000
   68.9843   30.5911   25.5416 C   0  0  0  0  0  0  0  0  0  0  0  0
   70.2335   30.6966   24.9435 C   0  0  0  0  0  0  0  0  0  0  0  0
   70.6708   31.9128   24.3630 C   0  0  0  0  0  0  0  0  0  0  0  0
   67.5713   33.9536   25.2739 C   0  0  0  0  0  0  0  0  0  0  0  0
   69.8798   33.0554   24.4434 C   0  0  0  0  0  0  0  0  0  0  0  0
   71.0289   29.6091   24.8678 O   0  0  0  0  0  0  0  0  0  0  0  0
   68.1722   31.7486   25.6041 C   0  0  0  0  0  0  0  0  0  0  0  0
   68.6251   32.9765   25.0529 C   0  0  0  0  0  0  0  0  0  0  0  0
   66.5462   33.3193   25.8068 N   0  0  0  0  0  0  0  0  0  0  0  0
   66.8993   31.9986   26.0695 N   0  0  0  0  0  0  0  0  0  0  0  0
   71.8728   29.6730   24.4657 H   0  0  0  0  0  0  0  0  0  0  0  0
   65.6654   33.7185   25.9910 H   0  0  0  0  0  0  0  0  0  0  0  0
   73.5795   31.6833   22.1388 C   0  0  0  0  0  0  0  0  0  0  0  0
   71.9525   31.9923   23.6231 C   0  0  0  0  0  0  0  0  0  0  0  0
   72.2838   31.3046   22.4924 C   0  0  0  0  0  0  0  0  0  0  0  0
   74.0249   32.5564   23.0045 N   0  0  0  0  0  0  0  0  0  0  0  0
   73.0157   32.8093   23.9379 N   0  0  0  0  0  0  0  0  0  0  0  0
   73.1402   33.6478   25.0728 C   0  0  0  0  0  0  0  0  0  0  0  0
   72.7756   35.0001   24.9563 C   0  0  0  0  0  0  0  0  0  0  0  0
   72.9340   35.8641   26.0459 C   0  0  0  0  0  0  0  0  0  0  0  0
   73.4732   35.3857   27.2433 C   0  0  0  0  0  0  0  0  0  0  0  0
   73.8471   34.0415   27.3569 C   0  0  0  0  0  0  0  0  0  0  0  0
   73.6762   33.1697   26.2834 C   0  0  0  0  0  0  0  0  0  0  0  0
   67.6094   35.3901   24.7961 C   0  0  0  0  0  0  0  0  0  0  0  0
   66.3186   34.6709   22.7342 C   0  0  0  0  0  0  0  0  0  0  0  0
   65.8672   34.9036   21.4320 C   0  0  0  0  0  0  0  0  0  0  0  0
   67.0344   35.6527   23.4189 C   0  0  0  0  0  0  0  0  0  0  0  0
   66.1393   36.1140   20.7971 C   0  0  0  0  0  0  0  0  0  0  0  0
   66.8766   37.0933   21.4691 C   0  0  0  0  0  0  0  0  0  0  0  0
   67.3294   36.8547   22.7704 C   0  0  0  0  0  0  0  0  0  0  0  0
 13 16  2  0  0  0
 13 15  1  0  0  0
 16 17  1  0  0  0
 15 14  2  0  0  0
 17 14  1  0  0  0
 17 18  1  0  0  0
 14  3  1  0  0  0
 29 28  2  0  0  0
 29 30  1  0  0  0
 19 18  2  0  0  0
 19 20  1  0  0  0
 28 26  1  0  0  0
 18 23  1  0  0  0
  3  5  2  0  0  0
  3  2  1  0  0  0
 30 27  2  0  0  0
  6  2  1  0  0  0
 20 21  2  0  0  0
 26 25  2  0  0  0
  5  8  1  0  0  0
  2  1  2  0  0  0
 23 22  2  0  0  0
 27 25  1  0  0  0
 27 24  1  0  0  0
 21 22  1  0  0  0
  8  7  1  0  0  0
  8  4  2  0  0  0
  1  7  1  0  0  0
 24  4  1  0  0  0
  7 10  2  0  0  0
  4  9  1  0  0  0
 10  9  1  0  0  0
  6 11  1  0  0  0
  9 12  1  0  0  0
M  END
> <minimizedAffinity>
-10.04633

$$$$
6EYB_C3Z_A_301


 30 34  0  0  0  0  0  0  0  0999 V2000
   73.4218   35.1778   26.9885 C   0  0  0  0  0  0  0  0  0  0  0  0
   72.0541   34.9368   26.9611 C   0  0  0  0  0  0  0  0  0  0  0  0
   71.4826   34.0480   26.0173 C   0  0  0  0  0  0  0  0  0  0  0  0
   74.7711   33.0067   24.3730 C   0  0  0  0  0  0  0  0  0  0  0  0
   72.2949   33.3383   25.1373 C   0  0  0  0  0  0  0  0  0  0  0  0
   71.2448   35.5973   27.8154 O   0  0  0  0  0  0  0  0  0  0  0  0
   74.2443   34.4712   26.0790 C   0  0  0  0  0  0  0  0  0  0  0  0
   73.6751   33.5541   25.1562 C   0  0  0  0  0  0  0  0  0  0  0  0
   75.8710   33.6371   24.7335 N   0  0  0  0  0  0  0  0  0  0  0  0
   75.5940   34.4872   25.8005 N   0  0  0  0  0  0  0  0  0  0  0  0
   70.3213   35.4396   27.8025 H   0  0  0  0  0  0  0  0  0  0  0  0
   76.7537   33.5241   24.3124 H   0  0  0  0  0  0  0  0  0  0  0  0
   67.9537   33.0455   25.9712 C   0  0  0  0  0  0  0  0  0  0  0  0
   70.0137   33.8814   25.9122 C   0  0  0  0  0  0  0  0  0  0  0  0
   69.2977   32.7605   26.2157 C   0  0  0  0  0  0  0  0  0  0  0  0
   67.8453   34.2749   25.5389 N   0  0  0  0  0  0  0  0  0  0  0  0
   69.1180   34.8525   25.5224 N   0  0  0  0  0  0  0  0  0  0  0  0
   69.4220   36.1528   25.0499 C   0  0  0  0  0  0  0  0  0  0  0  0
   69.3429   37.2324   25.9463 C   0  0  0  0  0  0  0  0  0  0  0  0
   69.5894   38.5348   25.4969 C   0  0  0  0  0  0  0  0  0  0  0  0
   69.8947   38.7631   24.1523 C   0  0  0  0  0  0  0  0  0  0  0  0
   69.9627   37.6897   23.2562 C   0  0  0  0  0  0  0  0  0  0  0  0
   69.7369   36.3877   23.6983 C   0  0  0  0  0  0  0  0  0  0  0  0
   74.6124   32.0256   23.2306 C   0  0  0  0  0  0  0  0  0  0  0  0
   72.4866   30.9015   22.4228 C   0  0  0  0  0  0  0  0  0  0  0  0
   71.4260   30.0114   22.6144 C   0  0  0  0  0  0  0  0  0  0  0  0
   73.5012   31.0054   23.3742 C   0  0  0  0  0  0  0  0  0  0  0  0
   71.3624   29.2274   23.7648 C   0  0  0  0  0  0  0  0  0  0  0  0
   72.3637   29.3437   24.7333 C   0  0  0  0  0  0  0  0  0  0  0  0
   73.4208   30.2383   24.5393 C   0  0  0  0  0  0  0  0  0  0  0  0
 13 16  2  0  0  0
 13 15  1  0  0  0
 16 17  1  0  0  0
 15 14  2  0  0  0
 17 14  1  0  0  0
 17 18  1  0  0  0
 14  3  1  0  0  0
 29 28  2  0  0  0
 29 30  1  0  0  0
 19 18  2  0  0  0
 19 20  1  0  0  0
 28 26  1  0  0  0
 18 23  1  0  0  0
  3  5  2  0  0  0
  3  2  1  0  0  0
 30 27  2  0  0  0
  6  2  1  0  0  0
 20 21  2  0  0  0
 26 25  2  0  0  0
  5  8  1  0  0  0
  2  1  2  0  0  0
 23 22  2  0  0  0
 27 25  1  0  0  0
 27 24  1  0  0  0
 21 22  1  0  0  0
  8  7  1  0  0  0
  8  4  2  0  0  0
  1  7  1  0  0  0
 24  4  1  0  0  0
  7 10  2  0  0  0
  4  9  1  0  0  0
 10  9  1  0  0  0
  6 11  1  0  0  0
  9 12  1  0  0  0
M  END
> <minimizedAffinity>
-9.92761

$$$$
6EYB_C3Z_A_301


 30 34  0  0  0  0  0  0  0  0999 V2000
   72.5760   33.4669   24.3474 C   0  0  0  0  0  0  0  0  0  0  0  0
   72.4258   34.6552   25.0506 C   0  0  0  0  0  0  0  0  0  0  0  0
   71.3104   34.8733   25.8968 C   0  0  0  0  0  0  0  0  0  0  0  0
   69.7108   31.4418   25.3793 C   0  0  0  0  0  0  0  0  0  0  0  0
   70.3714   33.8654   26.0972 C   0  0  0  0  0  0  0  0  0  0  0  0
   73.3312   35.6428   24.8895 O   0  0  0  0  0  0  0  0  0  0  0  0
   71.6091   32.4507   24.5359 C   0  0  0  0  0  0  0  0  0  0  0  0
   70.5096   32.6563   25.4110 C   0  0  0  0  0  0  0  0  0  0  0  0
   70.2396   30.6416   24.4753 N   0  0  0  0  0  0  0  0  0  0  0  0
   71.4187   31.1999   23.9895 N   0  0  0  0  0  0  0  0  0  0  0  0
   73.2361   36.4471   25.3607 H   0  0  0  0  0  0  0  0  0  0  0  0
   69.8588   29.7805   24.1876 H   0  0  0  0  0  0  0  0  0  0  0  0
   71.2037   37.9179   27.9412 C   0  0  0  0  0  0  0  0  0  0  0  0
   71.0906   36.1835   26.5537 C   0  0  0  0  0  0  0  0  0  0  0  0
   71.7095   36.6440   27.6789 C   0  0  0  0  0  0  0  0  0  0  0  0
   70.3197   38.2271   27.0285 N   0  0  0  0  0  0  0  0  0  0  0  0
   70.2444   37.1757   26.1105 N   0  0  0  0  0  0  0  0  0  0  0  0
   69.3490   37.1067   25.0150 C   0  0  0  0  0  0  0  0  0  0  0  0
   69.8683   37.1957   23.7121 C   0  0  0  0  0  0  0  0  0  0  0  0
   69.0038   37.1801   22.6115 C   0  0  0  0  0  0  0  0  0  0  0  0
   67.6229   37.0960   22.8098 C   0  0  0  0  0  0  0  0  0  0  0  0
   67.1039   37.0186   24.1076 C   0  0  0  0  0  0  0  0  0  0  0  0
   67.9578   37.0149   25.2087 C   0  0  0  0  0  0  0  0  0  0  0  0
   68.4089   31.2429   26.1267 C   0  0  0  0  0  0  0  0  0  0  0  0
   67.3016   32.8459   24.5021 C   0  0  0  0  0  0  0  0  0  0  0  0
   66.2495   33.6959   24.1496 C   0  0  0  0  0  0  0  0  0  0  0  0
   67.2432   32.1020   25.6805 C   0  0  0  0  0  0  0  0  0  0  0  0
   65.1361   33.8211   24.9783 C   0  0  0  0  0  0  0  0  0  0  0  0
   65.0817   33.0962   26.1724 C   0  0  0  0  0  0  0  0  0  0  0  0
   66.1383   32.2499   26.5229 C   0  0  0  0  0  0  0  0  0  0  0  0
 13 16  2  0  0  0
 13 15  1  0  0  0
 16 17  1  0  0  0
 15 14  2  0  0  0
 17 14  1  0  0  0
 17 18  1  0  0  0
 14  3  1  0  0  0
 29 28  2  0  0  0
 29 30  1  0  0  0
 19 18  2  0  0  0
 19 20  1  0  0  0
 28 26  1  0  0  0
 18 23  1  0  0  0
  3  5  2  0  0  0
  3  2  1  0  0  0
 30 27  2  0  0  0
  6  2  1  0  0  0
 20 21  2  0  0  0
 26 25  2  0  0  0
  5  8  1  0  0  0
  2  1  2  0  0  0
 23 22  2  0  0  0
 27 25  1  0  0  0
 27 24  1  0  0  0
 21 22  1  0  0  0
  8  7  1  0  0  0
  8  4  2  0  0  0
  1  7  1  0  0  0
 24  4  1  0  0  0
  7 10  2  0  0  0
  4  9  1  0  0  0
 10  9  1  0  0  0
  6 11  1  0  0  0
  9 12  1  0  0  0
M  END
> <minimizedAffinity>
-9.91406

$$$$
6EYB_C3Z_A_301


 30 34  0  0  0  0  0  0  0  0999 V2000
   70.3187   36.3450   26.1929 C   0  0  0  0  0  0  0  0  0  0  0  0
   69.1328   36.1007   25.5123 C   0  0  0  0  0  0  0  0  0  0  0  0
   68.8959   34.8608   24.8689 C   0  0  0  0  0  0  0  0  0  0  0  0
   72.1771   33.2072   25.9180 C   0  0  0  0  0  0  0  0  0  0  0  0
   69.8246   33.8285   24.9667 C   0  0  0  0  0  0  0  0  0  0  0  0
   68.2067   37.0776   25.4174 O   0  0  0  0  0  0  0  0  0  0  0  0
   71.2713   35.3014   26.2736 C   0  0  0  0  0  0  0  0  0  0  0  0
   71.0187   34.0467   25.6582 C   0  0  0  0  0  0  0  0  0  0  0  0
   73.0754   33.9488   26.5347 N   0  0  0  0  0  0  0  0  0  0  0  0
   72.5357   35.2015   26.8129 N   0  0  0  0  0  0  0  0  0  0  0  0
   67.4045   36.9198   24.9597 H   0  0  0  0  0  0  0  0  0  0  0  0
   73.9885   33.6609   26.7637 H   0  0  0  0  0  0  0  0  0  0  0  0
   66.1735   34.7139   22.4137 C   0  0  0  0  0  0  0  0  0  0  0  0
   67.6829   34.6433   24.0455 C   0  0  0  0  0  0  0  0  0  0  0  0
   67.4218   35.1863   22.8216 C   0  0  0  0  0  0  0  0  0  0  0  0
   65.6894   33.9233   23.3360 N   0  0  0  0  0  0  0  0  0  0  0  0
   66.6267   33.8201   24.3677 N   0  0  0  0  0  0  0  0  0  0  0  0
   66.4389   33.1077   25.5776 C   0  0  0  0  0  0  0  0  0  0  0  0
   65.1521   33.0612   26.1409 C   0  0  0  0  0  0  0  0  0  0  0  0
   64.9453   32.4070   27.3607 C   0  0  0  0  0  0  0  0  0  0  0  0
   66.0225   31.8173   28.0279 C   0  0  0  0  0  0  0  0  0  0  0  0
   67.3066   31.8726   27.4732 C   0  0  0  0  0  0  0  0  0  0  0  0
   67.5190   32.5059   26.2503 C   0  0  0  0  0  0  0  0  0  0  0  0
   72.3581   31.7971   25.3965 C   0  0  0  0  0  0  0  0  0  0  0  0
   73.7612   32.2276   23.3275 C   0  0  0  0  0  0  0  0  0  0  0  0
   74.8535   31.9295   22.5078 C   0  0  0  0  0  0  0  0  0  0  0  0
   73.5809   31.5539   24.5354 C   0  0  0  0  0  0  0  0  0  0  0  0
   75.7675   30.9459   22.8808 C   0  0  0  0  0  0  0  0  0  0  0  0
   75.5797   30.2505   24.0789 C   0  0  0  0  0  0  0  0  0  0  0  0
   74.4834   30.5493   24.8940 C   0  0  0  0  0  0  0  0  0  0  0  0
 13 16  2  0  0  0
 13 15  1  0  0  0
 16 17  1  0  0  0
 15 14  2  0  0  0
 17 14  1  0  0  0
 17 18  1  0  0  0
 14  3  1  0  0  0
 29 28  2  0  0  0
 29 30  1  0  0  0
 19 18  2  0  0  0
 19 20  1  0  0  0
 28 26  1  0  0  0
 18 23  1  0  0  0
  3  5  2  0  0  0
  3  2  1  0  0  0
 30 27  2  0  0  0
  6  2  1  0  0  0
 20 21  2  0  0  0
 26 25  2  0  0  0
  5  8  1  0  0  0
  2  1  2  0  0  0
 23 22  2  0  0  0
 27 25  1  0  0  0
 27 24  1  0  0  0
 21 22  1  0  0  0
  8  7  1  0  0  0
  8  4  2  0  0  0
  1  7  1  0  0  0
 24  4  1  0  0  0
  7 10  2  0  0  0
  4  9  1  0  0  0
 10  9  1  0  0  0
  6 11  1  0  0  0
  9 12  1  0  0  0
M  END
> <minimizedAffinity>
-9.70174

$$$$
