4EPY_0QY_A_203


 31 35  0  0  0  0  0  0  0  0999 V2000
   25.1404   -4.1652   15.1003 C   0  0  0  0  0  0  0  0  0  0  0  0
   25.3767   -2.8907   15.7724 C   0  0  0  0  0  0  0  0  0  0  0  0
   25.7290   -1.6813   15.0011 C   0  0  0  0  0  0  0  0  0  0  0  0
   25.2798   -4.2314   13.6215 C   0  0  0  0  0  0  0  0  0  0  0  0
   25.6549   -2.9678   12.8125 C   0  0  0  0  0  0  0  0  0  0  0  0
   25.8665   -1.7639   13.4598 C   0  0  0  0  0  0  0  0  0  0  0  0
   26.1807   -0.8233   12.5148 N   0  0  0  0  0  0  0  0  0  0  0  0
   26.1624   -1.4415   11.2757 C   0  0  0  0  0  0  0  0  0  0  0  0
   25.8415   -2.7660   11.4675 N   0  0  0  0  0  0  0  0  0  0  0  0
   26.3836    0.1247   12.6862 H   0  0  0  0  0  0  0  0  0  0  0  0
   26.7184   -6.6664   15.4582 O   0  0  0  0  0  0  0  0  0  0  0  0
   25.6373   -6.5445   16.0180 C   0  0  0  0  0  0  0  0  0  0  0  0
   24.8002   -5.3622   15.8785 N   0  0  0  0  0  0  0  0  0  0  0  0
   23.9333   -5.3657   16.3450 H   0  0  0  0  0  0  0  0  0  0  0  0
   25.1417   -7.6803   16.8919 C   0  0  0  0  0  0  0  0  0  0  0  0
   24.3424   -7.2539   18.0406 N   0  0  0  0  0  0  0  0  0  0  0  0
   22.9920   -7.6794   17.7993 C   0  0  0  0  0  0  0  0  0  0  0  0
   23.0898   -8.8664   16.9087 C   0  0  0  0  0  0  0  0  0  0  0  0
   24.3080   -8.6229   16.0930 C   0  0  0  0  0  0  0  0  0  0  0  0
   24.6979   -7.6859   18.8935 H   0  0  0  0  0  0  0  0  0  0  0  0
   26.4582   -0.7885    9.9432 C   0  0  0  0  0  0  0  0  0  0  0  0
   25.2807   -0.8651    9.0148 C   0  0  0  0  0  0  0  0  0  0  0  0
   25.1178   -1.7519    7.9497 C   0  0  0  0  0  0  0  0  0  0  0  0
   23.8965   -1.4790    7.3492 N   0  0  0  0  0  0  0  0  0  0  0  0
   23.3055   -0.4196    8.0381 C   0  0  0  0  0  0  0  0  0  0  0  0
   21.9666    0.3178    7.8449 C   0  0  0  0  0  0  0  0  0  0  0  0
   21.6061    1.4252    8.7539 C   0  0  0  0  0  0  0  0  0  0  0  0
   22.5056    1.8252    9.8291 C   0  0  0  0  0  0  0  0  0  0  0  0
   23.7885    1.1150   10.0144 C   0  0  0  0  0  0  0  0  0  0  0  0
   24.1621   -0.0413    9.0656 C   0  0  0  0  0  0  0  0  0  0  0  0
   23.5146   -1.9502    6.5738 H   0  0  0  0  0  0  0  0  0  0  0  0
 24 23  1  0  0  0
 24 25  1  0  0  0
 23 22  2  0  0  0
 26 25  2  0  0  0
 26 27  1  0  0  0
 25 30  1  0  0  0
 22 30  1  0  0  0
 22 21  1  0  0  0
 30 29  2  0  0  0
 27 28  2  0  0  0
 21  8  1  0  0  0
 28 29  1  0  0  0
  9  8  2  0  0  0
  9  5  1  0  0  0
  8  7  1  0  0  0
  5  4  2  0  0  0
  5  6  1  0  0  0
  7  6  1  0  0  0
  4  1  1  0  0  0
  6  3  2  0  0  0
 11 12  2  0  0  0
 17 16  1  0  0  0
 17 18  1  0  0  0
 16 15  1  0  0  0
  1 13  1  0  0  0
  1  2  2  0  0  0
 12 13  1  0  0  0
 12 15  1  0  0  0
  3  2  1  0  0  0
 15 19  1  0  0  0
 18 19  1  0  0  0
 16 20  1  0  0  0
 13 14  1  0  0  0
  7 10  1  0  0  0
 24 31  1  0  0  0
M  END
> <minimizedAffinity>
-8.08612

$$$$
4EPY_0QY_A_203


 31 35  0  0  0  0  0  0  0  0999 V2000
   24.2415   -6.2674   13.9494 C   0  0  0  0  0  0  0  0  0  0  0  0
   24.2726   -7.0037   12.6890 C   0  0  0  0  0  0  0  0  0  0  0  0
   24.6290   -6.3275   11.4251 C   0  0  0  0  0  0  0  0  0  0  0  0
   24.5570   -4.8143   13.9377 C   0  0  0  0  0  0  0  0  0  0  0  0
   24.9243   -4.1030   12.6145 C   0  0  0  0  0  0  0  0  0  0  0  0
   24.9599   -4.8137   11.4284 C   0  0  0  0  0  0  0  0  0  0  0  0
   25.3095   -3.9485   10.4255 N   0  0  0  0  0  0  0  0  0  0  0  0
   25.4945   -2.6967   10.9879 C   0  0  0  0  0  0  0  0  0  0  0  0
   25.2508   -2.7984   12.3385 N   0  0  0  0  0  0  0  0  0  0  0  0
   25.4111   -4.1764    9.4731 H   0  0  0  0  0  0  0  0  0  0  0  0
   25.9262   -8.0056   15.6858 O   0  0  0  0  0  0  0  0  0  0  0  0
   24.7673   -7.7719   16.0013 C   0  0  0  0  0  0  0  0  0  0  0  0
   23.8767   -6.9481   15.1974 N   0  0  0  0  0  0  0  0  0  0  0  0
   22.9522   -6.8384   15.5175 H   0  0  0  0  0  0  0  0  0  0  0  0
   24.2305   -8.3741   17.2852 C   0  0  0  0  0  0  0  0  0  0  0  0
   23.8221   -7.3910   18.2887 N   0  0  0  0  0  0  0  0  0  0  0  0
   22.3911   -7.4592   18.3917 C   0  0  0  0  0  0  0  0  0  0  0  0
   22.0175   -8.8424   17.9929 C   0  0  0  0  0  0  0  0  0  0  0  0
   23.0492   -9.2367   16.9985 C   0  0  0  0  0  0  0  0  0  0  0  0
   24.2483   -7.6123   19.1886 H   0  0  0  0  0  0  0  0  0  0  0  0
   25.8799   -1.4314   10.2530 C   0  0  0  0  0  0  0  0  0  0  0  0
   24.9092   -1.1119    9.1529 C   0  0  0  0  0  0  0  0  0  0  0  0
   24.8541   -1.7094    7.8931 C   0  0  0  0  0  0  0  0  0  0  0  0
   23.8183   -1.1169    7.1840 N   0  0  0  0  0  0  0  0  0  0  0  0
   23.2358   -0.1484    8.0018 C   0  0  0  0  0  0  0  0  0  0  0  0
   22.0614    0.8229    7.7752 C   0  0  0  0  0  0  0  0  0  0  0  0
   21.6654    1.7523    8.8531 C   0  0  0  0  0  0  0  0  0  0  0  0
   22.3759    1.7581   10.1260 C   0  0  0  0  0  0  0  0  0  0  0  0
   23.5006    0.8240   10.3424 C   0  0  0  0  0  0  0  0  0  0  0  0
   23.9114   -0.1461    9.2168 C   0  0  0  0  0  0  0  0  0  0  0  0
   23.5432   -1.3408    6.2656 H   0  0  0  0  0  0  0  0  0  0  0  0
 24 23  1  0  0  0
 24 25  1  0  0  0
 23 22  2  0  0  0
 26 25  2  0  0  0
 26 27  1  0  0  0
 25 30  1  0  0  0
 22 30  1  0  0  0
 22 21  1  0  0  0
 30 29  2  0  0  0
 27 28  2  0  0  0
 21  8  1  0  0  0
 28 29  1  0  0  0
  9  8  2  0  0  0
  9  5  1  0  0  0
  8  7  1  0  0  0
  5  4  2  0  0  0
  5  6  1  0  0  0
  7  6  1  0  0  0
  4  1  1  0  0  0
  6  3  2  0  0  0
 11 12  2  0  0  0
 17 16  1  0  0  0
 17 18  1  0  0  0
 16 15  1  0  0  0
  1 13  1  0  0  0
  1  2  2  0  0  0
 12 13  1  0  0  0
 12 15  1  0  0  0
  3  2  1  0  0  0
 15 19  1  0  0  0
 18 19  1  0  0  0
 16 20  1  0  0  0
 13 14  1  0  0  0
  7 10  1  0  0  0
 24 31  1  0  0  0
M  END
> <minimizedAffinity>
-8.03291

$$$$
4EPY_0QY_A_203


 31 35  0  0  0  0  0  0  0  0999 V2000
   24.9116   -6.5894   14.4560 C   0  0  0  0  0  0  0  0  0  0  0  0
   26.3369   -6.7514   14.1835 C   0  0  0  0  0  0  0  0  0  0  0  0
   27.0933   -5.7091   13.4602 C   0  0  0  0  0  0  0  0  0  0  0  0
   24.2257   -5.3611   13.9744 C   0  0  0  0  0  0  0  0  0  0  0  0
   25.0144   -4.2713   13.2113 C   0  0  0  0  0  0  0  0  0  0  0  0
   26.3665   -4.4320   12.9680 C   0  0  0  0  0  0  0  0  0  0  0  0
   26.8084   -3.3309   12.2832 N   0  0  0  0  0  0  0  0  0  0  0  0
   25.7301   -2.4812   12.1016 C   0  0  0  0  0  0  0  0  0  0  0  0
   24.6253   -3.0700   12.6729 N   0  0  0  0  0  0  0  0  0  0  0  0
   27.7296   -3.1718   11.9747 H   0  0  0  0  0  0  0  0  0  0  0  0
   24.3016   -6.7931   17.3647 O   0  0  0  0  0  0  0  0  0  0  0  0
   23.8972   -7.6557   16.5970 C   0  0  0  0  0  0  0  0  0  0  0  0
   24.1687   -7.6363   15.1673 N   0  0  0  0  0  0  0  0  0  0  0  0
   23.8254   -8.3883   14.6327 H   0  0  0  0  0  0  0  0  0  0  0  0
   23.0817   -8.8030   17.1609 C   0  0  0  0  0  0  0  0  0  0  0  0
   22.5628   -9.7277   16.1530 N   0  0  0  0  0  0  0  0  0  0  0  0
   23.2665  -10.9695   16.3142 C   0  0  0  0  0  0  0  0  0  0  0  0
   23.6851  -11.0205   17.7404 C   0  0  0  0  0  0  0  0  0  0  0  0
   23.9008   -9.5994   18.1182 C   0  0  0  0  0  0  0  0  0  0  0  0
   21.5628   -9.8719   16.2927 H   0  0  0  0  0  0  0  0  0  0  0  0
   25.7499   -1.1472   11.3876 C   0  0  0  0  0  0  0  0  0  0  0  0
   24.8519   -1.1492   10.1843 C   0  0  0  0  0  0  0  0  0  0  0  0
   24.7955   -2.1272    9.1904 C   0  0  0  0  0  0  0  0  0  0  0  0
   23.8404   -1.7379    8.2615 N   0  0  0  0  0  0  0  0  0  0  0  0
   23.3095   -0.5163    8.6762 C   0  0  0  0  0  0  0  0  0  0  0  0
   22.2294    0.3990    8.0684 C   0  0  0  0  0  0  0  0  0  0  0  0
   21.8710    1.6582    8.7529 C   0  0  0  0  0  0  0  0  0  0  0  0
   22.5303    2.0408    9.9954 C   0  0  0  0  0  0  0  0  0  0  0  0
   23.5644    1.1603   10.5783 C   0  0  0  0  0  0  0  0  0  0  0  0
   23.9360   -0.1540    9.8632 C   0  0  0  0  0  0  0  0  0  0  0  0
   23.5829   -2.2362    7.4523 H   0  0  0  0  0  0  0  0  0  0  0  0
 24 23  1  0  0  0
 24 25  1  0  0  0
 23 22  2  0  0  0
 26 25  2  0  0  0
 26 27  1  0  0  0
 25 30  1  0  0  0
 22 30  1  0  0  0
 22 21  1  0  0  0
 30 29  2  0  0  0
 27 28  2  0  0  0
 21  8  1  0  0  0
 28 29  1  0  0  0
  9  8  2  0  0  0
  9  5  1  0  0  0
  8  7  1  0  0  0
  5  4  2  0  0  0
  5  6  1  0  0  0
  7  6  1  0  0  0
  4  1  1  0  0  0
  6  3  2  0  0  0
 11 12  2  0  0  0
 17 16  1  0  0  0
 17 18  1  0  0  0
 16 15  1  0  0  0
  1 13  1  0  0  0
  1  2  2  0  0  0
 12 13  1  0  0  0
 12 15  1  0  0  0
  3  2  1  0  0  0
 15 19  1  0  0  0
 18 19  1  0  0  0
 16 20  1  0  0  0
 13 14  1  0  0  0
  7 10  1  0  0  0
 24 31  1  0  0  0
M  END
> <minimizedAffinity>
-7.84070

$$$$
4EPY_0QY_A_203


 31 35  0  0  0  0  0  0  0  0999 V2000
   24.6221   -6.7135   14.7734 C   0  0  0  0  0  0  0  0  0  0  0  0
   25.4193   -5.7279   15.4981 C   0  0  0  0  0  0  0  0  0  0  0  0
   25.8906   -4.4968   14.8320 C   0  0  0  0  0  0  0  0  0  0  0  0
   24.3070   -6.4663   13.3415 C   0  0  0  0  0  0  0  0  0  0  0  0
   24.8049   -5.1809   12.6402 C   0  0  0  0  0  0  0  0  0  0  0  0
   25.5510   -4.2500   13.3403 C   0  0  0  0  0  0  0  0  0  0  0  0
   25.8557   -3.2222   12.4876 N   0  0  0  0  0  0  0  0  0  0  0  0
   25.2963   -3.5117   11.2543 C   0  0  0  0  0  0  0  0  0  0  0  0
   24.6532   -4.7242   11.3545 N   0  0  0  0  0  0  0  0  0  0  0  0
   26.3798   -2.4195   12.7119 H   0  0  0  0  0  0  0  0  0  0  0  0
   23.3397   -7.0089   17.4459 O   0  0  0  0  0  0  0  0  0  0  0  0
   23.5312   -7.9976   16.7511 C   0  0  0  0  0  0  0  0  0  0  0  0
   24.1675   -7.9375   15.4436 N   0  0  0  0  0  0  0  0  0  0  0  0
   24.3044   -8.7891   14.9689 H   0  0  0  0  0  0  0  0  0  0  0  0
   23.0928   -9.3500   17.2786 C   0  0  0  0  0  0  0  0  0  0  0  0
   22.1136  -10.0378   16.4371 N   0  0  0  0  0  0  0  0  0  0  0  0
   22.7749  -11.1742   15.8588 C   0  0  0  0  0  0  0  0  0  0  0  0
   23.8605  -11.5420   16.8064 C   0  0  0  0  0  0  0  0  0  0  0  0
   24.2684  -10.2543   17.4263 C   0  0  0  0  0  0  0  0  0  0  0  0
   21.3214  -10.3445   17.0018 H   0  0  0  0  0  0  0  0  0  0  0  0
   25.3858   -2.6599   10.0068 C   0  0  0  0  0  0  0  0  0  0  0  0
   24.8726   -1.2695   10.2471 C   0  0  0  0  0  0  0  0  0  0  0  0
   25.3028   -0.3836   11.2358 C   0  0  0  0  0  0  0  0  0  0  0  0
   24.5644    0.7853   11.1130 N   0  0  0  0  0  0  0  0  0  0  0  0
   23.6728    0.6217   10.0526 C   0  0  0  0  0  0  0  0  0  0  0  0
   22.6116    1.5576    9.4430 C   0  0  0  0  0  0  0  0  0  0  0  0
   21.8026    1.0944    8.2969 C   0  0  0  0  0  0  0  0  0  0  0  0
   21.9996   -0.2384    7.7402 C   0  0  0  0  0  0  0  0  0  0  0  0
   23.0198   -1.1339    8.3247 C   0  0  0  0  0  0  0  0  0  0  0  0
   23.8639   -0.6481    9.5198 C   0  0  0  0  0  0  0  0  0  0  0  0
   24.6542    1.5885   11.6752 H   0  0  0  0  0  0  0  0  0  0  0  0
 24 23  1  0  0  0
 24 25  1  0  0  0
 23 22  2  0  0  0
 26 25  2  0  0  0
 26 27  1  0  0  0
 25 30  1  0  0  0
 22 30  1  0  0  0
 22 21  1  0  0  0
 30 29  2  0  0  0
 27 28  2  0  0  0
 21  8  1  0  0  0
 28 29  1  0  0  0
  9  8  2  0  0  0
  9  5  1  0  0  0
  8  7  1  0  0  0
  5  4  2  0  0  0
  5  6  1  0  0  0
  7  6  1  0  0  0
  4  1  1  0  0  0
  6  3  2  0  0  0
 11 12  2  0  0  0
 17 16  1  0  0  0
 17 18  1  0  0  0
 16 15  1  0  0  0
  1 13  1  0  0  0
  1  2  2  0  0  0
 12 13  1  0  0  0
 12 15  1  0  0  0
  3  2  1  0  0  0
 15 19  1  0  0  0
 18 19  1  0  0  0
 16 20  1  0  0  0
 13 14  1  0  0  0
  7 10  1  0  0  0
 24 31  1  0  0  0
M  END
> <minimizedAffinity>
-7.39446

$$$$
4EPY_0QY_A_203


 31 35  0  0  0  0  0  0  0  0999 V2000
   24.7132   -7.3378   13.1794 C   0  0  0  0  0  0  0  0  0  0  0  0
   24.7868   -6.2815   14.1847 C   0  0  0  0  0  0  0  0  0  0  0  0
   24.8929   -4.8630   13.7869 C   0  0  0  0  0  0  0  0  0  0  0  0
   24.7666   -6.9627   11.7415 C   0  0  0  0  0  0  0  0  0  0  0  0
   24.8840   -5.4785   11.3228 C   0  0  0  0  0  0  0  0  0  0  0  0
   24.9429   -4.4862   12.2847 C   0  0  0  0  0  0  0  0  0  0  0  0
   25.0429   -3.2795   11.6440 N   0  0  0  0  0  0  0  0  0  0  0  0
   25.0437   -3.5200   10.2802 C   0  0  0  0  0  0  0  0  0  0  0  0
   24.9499   -4.8796   10.0893 N   0  0  0  0  0  0  0  0  0  0  0  0
   25.1034   -2.3973   12.0767 H   0  0  0  0  0  0  0  0  0  0  0  0
   26.7189   -9.0001   14.6245 O   0  0  0  0  0  0  0  0  0  0  0  0
   25.6410   -9.4856   14.3093 C   0  0  0  0  0  0  0  0  0  0  0  0
   24.6176   -8.7445   13.5870 N   0  0  0  0  0  0  0  0  0  0  0  0
   23.7923   -9.2271   13.3523 H   0  0  0  0  0  0  0  0  0  0  0  0
   25.3598  -10.9286   14.6808 C   0  0  0  0  0  0  0  0  0  0  0  0
   25.3504  -11.1907   16.1200 N   0  0  0  0  0  0  0  0  0  0  0  0
   23.9936  -11.4839   16.4891 C   0  0  0  0  0  0  0  0  0  0  0  0
   23.3470  -12.0337   15.2679 C   0  0  0  0  0  0  0  0  0  0  0  0
   24.0374  -11.3544   14.1407 C   0  0  0  0  0  0  0  0  0  0  0  0
   25.9508  -11.9870   16.3342 H   0  0  0  0  0  0  0  0  0  0  0  0
   25.1464   -2.4796    9.1863 C   0  0  0  0  0  0  0  0  0  0  0  0
   24.8434   -1.1021    9.7012 C   0  0  0  0  0  0  0  0  0  0  0  0
   25.5499   -0.4078   10.6841 C   0  0  0  0  0  0  0  0  0  0  0  0
   24.9333    0.8226   10.8650 N   0  0  0  0  0  0  0  0  0  0  0  0
   23.8416    0.8882    9.9989 C   0  0  0  0  0  0  0  0  0  0  0  0
   22.7910    1.9860    9.7445 C   0  0  0  0  0  0  0  0  0  0  0  0
   21.7307    1.7621    8.7403 C   0  0  0  0  0  0  0  0  0  0  0  0
   21.6706    0.5132    7.9908 C   0  0  0  0  0  0  0  0  0  0  0  0
   22.6808   -0.5378    8.2345 C   0  0  0  0  0  0  0  0  0  0  0  0
   23.7872   -0.3015    9.2818 C   0  0  0  0  0  0  0  0  0  0  0  0
   25.2166    1.5252   11.4938 H   0  0  0  0  0  0  0  0  0  0  0  0
 24 23  1  0  0  0
 24 25  1  0  0  0
 23 22  2  0  0  0
 26 25  2  0  0  0
 26 27  1  0  0  0
 25 30  1  0  0  0
 22 30  1  0  0  0
 22 21  1  0  0  0
 30 29  2  0  0  0
 27 28  2  0  0  0
 21  8  1  0  0  0
 28 29  1  0  0  0
  9  8  2  0  0  0
  9  5  1  0  0  0
  8  7  1  0  0  0
  5  4  2  0  0  0
  5  6  1  0  0  0
  7  6  1  0  0  0
  4  1  1  0  0  0
  6  3  2  0  0  0
 11 12  2  0  0  0
 17 16  1  0  0  0
 17 18  1  0  0  0
 16 15  1  0  0  0
  1 13  1  0  0  0
  1  2  2  0  0  0
 12 13  1  0  0  0
 12 15  1  0  0  0
  3  2  1  0  0  0
 15 19  1  0  0  0
 18 19  1  0  0  0
 16 20  1  0  0  0
 13 14  1  0  0  0
  7 10  1  0  0  0
 24 31  1  0  0  0
M  END
> <minimizedAffinity>
-6.67183

$$$$
4EPY_0QY_A_203


 31 35  0  0  0  0  0  0  0  0999 V2000
   25.0434   -7.4221   10.9993 C   0  0  0  0  0  0  0  0  0  0  0  0
   24.9336   -7.4823   12.4540 C   0  0  0  0  0  0  0  0  0  0  0  0
   24.8771   -6.2467   13.2613 C   0  0  0  0  0  0  0  0  0  0  0  0
   25.1175   -6.0907   10.3414 C   0  0  0  0  0  0  0  0  0  0  0  0
   25.0649   -4.7957   11.1853 C   0  0  0  0  0  0  0  0  0  0  0  0
   24.9508   -4.8659   12.5620 C   0  0  0  0  0  0  0  0  0  0  0  0
   24.9269   -3.5867   13.0517 N   0  0  0  0  0  0  0  0  0  0  0  0
   25.0238   -2.7176   11.9779 C   0  0  0  0  0  0  0  0  0  0  0  0
   25.1131   -3.4707   10.8296 N   0  0  0  0  0  0  0  0  0  0  0  0
   24.8538   -3.3306   13.9995 H   0  0  0  0  0  0  0  0  0  0  0  0
   23.7620   -8.0267    8.3788 O   0  0  0  0  0  0  0  0  0  0  0  0
   24.4635   -8.8698    8.9212 C   0  0  0  0  0  0  0  0  0  0  0  0
   25.1082   -8.6568   10.2085 N   0  0  0  0  0  0  0  0  0  0  0  0
   25.6315   -9.4034   10.5799 H   0  0  0  0  0  0  0  0  0  0  0  0
   24.6651  -10.2016    8.2250 C   0  0  0  0  0  0  0  0  0  0  0  0
   25.4370  -11.1757    8.9967 N   0  0  0  0  0  0  0  0  0  0  0  0
   24.5329  -12.2223    9.3844 C   0  0  0  0  0  0  0  0  0  0  0  0
   23.4596  -12.2381    8.3550 C   0  0  0  0  0  0  0  0  0  0  0  0
   23.3488  -10.8250    7.9081 C   0  0  0  0  0  0  0  0  0  0  0  0
   26.1894  -11.5581    8.4239 H   0  0  0  0  0  0  0  0  0  0  0  0
   25.0456   -1.2062   12.0467 C   0  0  0  0  0  0  0  0  0  0  0  0
   25.5003   -0.5988   10.7510 C   0  0  0  0  0  0  0  0  0  0  0  0
   26.8061   -0.2404   10.4137 C   0  0  0  0  0  0  0  0  0  0  0  0
   26.7858    0.2908    9.1315 N   0  0  0  0  0  0  0  0  0  0  0  0
   25.4671    0.2673    8.6768 C   0  0  0  0  0  0  0  0  0  0  0  0
   24.8251    0.7154    7.3498 C   0  0  0  0  0  0  0  0  0  0  0  0
   23.3688    0.5601    7.1552 C   0  0  0  0  0  0  0  0  0  0  0  0
   22.5366   -0.0116    8.2068 C   0  0  0  0  0  0  0  0  0  0  0  0
   23.1547   -0.4430    9.4781 C   0  0  0  0  0  0  0  0  0  0  0  0
   24.6747   -0.2814    9.6786 C   0  0  0  0  0  0  0  0  0  0  0  0
   27.5648    0.6253    8.6310 H   0  0  0  0  0  0  0  0  0  0  0  0
 24 23  1  0  0  0
 24 25  1  0  0  0
 23 22  2  0  0  0
 26 25  2  0  0  0
 26 27  1  0  0  0
 25 30  1  0  0  0
 22 30  1  0  0  0
 22 21  1  0  0  0
 30 29  2  0  0  0
 27 28  2  0  0  0
 21  8  1  0  0  0
 28 29  1  0  0  0
  9  8  2  0  0  0
  9  5  1  0  0  0
  8  7  1  0  0  0
  5  4  2  0  0  0
  5  6  1  0  0  0
  7  6  1  0  0  0
  4  1  1  0  0  0
  6  3  2  0  0  0
 11 12  2  0  0  0
 17 16  1  0  0  0
 17 18  1  0  0  0
 16 15  1  0  0  0
  1 13  1  0  0  0
  1  2  2  0  0  0
 12 13  1  0  0  0
 12 15  1  0  0  0
  3  2  1  0  0  0
 15 19  1  0  0  0
 18 19  1  0  0  0
 16 20  1  0  0  0
 13 14  1  0  0  0
  7 10  1  0  0  0
 24 31  1  0  0  0
M  END
> <minimizedAffinity>
-6.51575

$$$$
4EPY_0QY_A_203


 31 35  0  0  0  0  0  0  0  0999 V2000
   25.5293   -1.8594   11.3792 C   0  0  0  0  0  0  0  0  0  0  0  0
   26.6964   -2.6456   10.9895 C   0  0  0  0  0  0  0  0  0  0  0  0
   27.1366   -3.8003   11.7987 C   0  0  0  0  0  0  0  0  0  0  0  0
   24.7987   -2.2294   12.6202 C   0  0  0  0  0  0  0  0  0  0  0  0
   25.2616   -3.4342   13.4723 C   0  0  0  0  0  0  0  0  0  0  0  0
   26.3629   -4.1773   13.0873 C   0  0  0  0  0  0  0  0  0  0  0  0
   26.5477   -5.1720   14.0108 N   0  0  0  0  0  0  0  0  0  0  0  0
   25.5582   -5.0502   14.9720 C   0  0  0  0  0  0  0  0  0  0  0  0
   24.7708   -3.9729   14.6357 N   0  0  0  0  0  0  0  0  0  0  0  0
   27.2584   -5.8530   13.9942 H   0  0  0  0  0  0  0  0  0  0  0  0
   23.5414   -1.7657    9.1625 O   0  0  0  0  0  0  0  0  0  0  0  0
   24.1117   -0.7409    9.5112 C   0  0  0  0  0  0  0  0  0  0  0  0
   25.1072   -0.7084   10.5722 N   0  0  0  0  0  0  0  0  0  0  0  0
   25.5332    0.1580   10.7648 H   0  0  0  0  0  0  0  0  0  0  0  0
   23.7721    0.5549    8.8006 C   0  0  0  0  0  0  0  0  0  0  0  0
   22.8927    0.3958    7.6423 N   0  0  0  0  0  0  0  0  0  0  0  0
   21.6267    0.9801    7.9874 C   0  0  0  0  0  0  0  0  0  0  0  0
   21.9208    2.0200    9.0092 C   0  0  0  0  0  0  0  0  0  0  0  0
   23.1068    1.5019    9.7398 C   0  0  0  0  0  0  0  0  0  0  0  0
   23.2896    0.8743    6.8337 H   0  0  0  0  0  0  0  0  0  0  0  0
   25.3772   -5.9307   16.1892 C   0  0  0  0  0  0  0  0  0  0  0  0
   24.9093   -7.3069   15.8131 C   0  0  0  0  0  0  0  0  0  0  0  0
   25.2874   -8.0340   14.6836 C   0  0  0  0  0  0  0  0  0  0  0  0
   24.6187   -9.2500   14.7144 N   0  0  0  0  0  0  0  0  0  0  0  0
   23.8220   -9.2740   15.8593 C   0  0  0  0  0  0  0  0  0  0  0  0
   22.8662  -10.3397   16.4290 C   0  0  0  0  0  0  0  0  0  0  0  0
   22.1455  -10.0731   17.6909 C   0  0  0  0  0  0  0  0  0  0  0  0
   22.3307   -8.8123   18.3989 C   0  0  0  0  0  0  0  0  0  0  0  0
   23.2499   -7.7922   17.8521 C   0  0  0  0  0  0  0  0  0  0  0  0
   24.0020   -8.0730   16.5359 C   0  0  0  0  0  0  0  0  0  0  0  0
   24.6936   -9.9689   14.0460 H   0  0  0  0  0  0  0  0  0  0  0  0
 24 23  1  0  0  0
 24 25  1  0  0  0
 23 22  2  0  0  0
 26 25  2  0  0  0
 26 27  1  0  0  0
 25 30  1  0  0  0
 22 30  1  0  0  0
 22 21  1  0  0  0
 30 29  2  0  0  0
 27 28  2  0  0  0
 21  8  1  0  0  0
 28 29  1  0  0  0
  9  8  2  0  0  0
  9  5  1  0  0  0
  8  7  1  0  0  0
  5  4  2  0  0  0
  5  6  1  0  0  0
  7  6  1  0  0  0
  4  1  1  0  0  0
  6  3  2  0  0  0
 11 12  2  0  0  0
 17 16  1  0  0  0
 17 18  1  0  0  0
 16 15  1  0  0  0
  1 13  1  0  0  0
  1  2  2  0  0  0
 12 13  1  0  0  0
 12 15  1  0  0  0
  3  2  1  0  0  0
 15 19  1  0  0  0
 18 19  1  0  0  0
 16 20  1  0  0  0
 13 14  1  0  0  0
  7 10  1  0  0  0
 24 31  1  0  0  0
M  END
> <minimizedAffinity>
-6.39839

$$$$
4EPY_0QY_A_203


 31 35  0  0  0  0  0  0  0  0999 V2000
   25.1404   -7.2518   10.2884 C   0  0  0  0  0  0  0  0  0  0  0  0
   24.5307   -6.8167   11.5418 C   0  0  0  0  0  0  0  0  0  0  0  0
   24.5617   -5.3966   11.9466 C   0  0  0  0  0  0  0  0  0  0  0  0
   25.8135   -6.2406    9.4309 C   0  0  0  0  0  0  0  0  0  0  0  0
   25.8527   -4.7540    9.8560 C   0  0  0  0  0  0  0  0  0  0  0  0
   25.2628   -4.3528   11.0410 C   0  0  0  0  0  0  0  0  0  0  0  0
   25.4435   -3.0010   11.1686 N   0  0  0  0  0  0  0  0  0  0  0  0
   26.1452   -2.5583   10.0598 C   0  0  0  0  0  0  0  0  0  0  0  0
   26.3983   -3.6463    9.2561 N   0  0  0  0  0  0  0  0  0  0  0  0
   25.1299   -2.4427   11.9165 H   0  0  0  0  0  0  0  0  0  0  0  0
   23.7525   -8.5250    7.9804 O   0  0  0  0  0  0  0  0  0  0  0  0
   24.4193   -9.2116    8.7427 C   0  0  0  0  0  0  0  0  0  0  0  0
   25.1114   -8.6672    9.9014 N   0  0  0  0  0  0  0  0  0  0  0  0
   25.6011   -9.3014   10.4735 H   0  0  0  0  0  0  0  0  0  0  0  0
   24.5238  -10.7002    8.4735 C   0  0  0  0  0  0  0  0  0  0  0  0
   23.2413  -11.4039    8.4653 N   0  0  0  0  0  0  0  0  0  0  0  0
   22.9885  -11.8093    7.1107 C   0  0  0  0  0  0  0  0  0  0  0  0
   24.3231  -11.9499    6.4698 C   0  0  0  0  0  0  0  0  0  0  0  0
   25.1754  -10.9438    7.1553 C   0  0  0  0  0  0  0  0  0  0  0  0
   23.2877  -12.2224    9.0722 H   0  0  0  0  0  0  0  0  0  0  0  0
   26.5766   -1.1350    9.7811 C   0  0  0  0  0  0  0  0  0  0  0  0
   25.6587   -0.4589    8.8039 C   0  0  0  0  0  0  0  0  0  0  0  0
   25.7839   -0.4509    7.4141 C   0  0  0  0  0  0  0  0  0  0  0  0
   24.7339    0.2936    6.8946 N   0  0  0  0  0  0  0  0  0  0  0  0
   23.9618    0.7519    7.9624 C   0  0  0  0  0  0  0  0  0  0  0  0
   22.6854    1.6130    8.0178 C   0  0  0  0  0  0  0  0  0  0  0  0
   22.0828    1.9403    9.3265 C   0  0  0  0  0  0  0  0  0  0  0  0
   22.6855    1.4565   10.5625 C   0  0  0  0  0  0  0  0  0  0  0  0
   23.9085    0.6285   10.5071 C   0  0  0  0  0  0  0  0  0  0  0  0
   24.5350    0.2870    9.1405 C   0  0  0  0  0  0  0  0  0  0  0  0
   24.5640    0.4676    5.9406 H   0  0  0  0  0  0  0  0  0  0  0  0
 24 23  1  0  0  0
 24 25  1  0  0  0
 23 22  2  0  0  0
 26 25  2  0  0  0
 26 27  1  0  0  0
 25 30  1  0  0  0
 22 30  1  0  0  0
 22 21  1  0  0  0
 30 29  2  0  0  0
 27 28  2  0  0  0
 21  8  1  0  0  0
 28 29  1  0  0  0
  9  8  2  0  0  0
  9  5  1  0  0  0
  8  7  1  0  0  0
  5  4  2  0  0  0
  5  6  1  0  0  0
  7  6  1  0  0  0
  4  1  1  0  0  0
  6  3  2  0  0  0
 11 12  2  0  0  0
 17 16  1  0  0  0
 17 18  1  0  0  0
 16 15  1  0  0  0
  1 13  1  0  0  0
  1  2  2  0  0  0
 12 13  1  0  0  0
 12 15  1  0  0  0
  3  2  1  0  0  0
 15 19  1  0  0  0
 18 19  1  0  0  0
 16 20  1  0  0  0
 13 14  1  0  0  0
  7 10  1  0  0  0
 24 31  1  0  0  0
M  END
> <minimizedAffinity>
-6.39571

$$$$
4EPY_0QY_A_203


 31 35  0  0  0  0  0  0  0  0999 V2000
   25.8223   -6.2528   14.1830 C   0  0  0  0  0  0  0  0  0  0  0  0
   24.4068   -6.1610   13.8364 C   0  0  0  0  0  0  0  0  0  0  0  0
   23.9157   -5.1028   12.9305 C   0  0  0  0  0  0  0  0  0  0  0  0
   26.7633   -5.2474   13.6222 C   0  0  0  0  0  0  0  0  0  0  0  0
   26.2502   -4.1347   12.6784 C   0  0  0  0  0  0  0  0  0  0  0  0
   24.9085   -4.0643   12.3498 C   0  0  0  0  0  0  0  0  0  0  0  0
   24.7328   -2.9970   11.5093 N   0  0  0  0  0  0  0  0  0  0  0  0
   25.9678   -2.4025   11.3116 C   0  0  0  0  0  0  0  0  0  0  0  0
   26.8989   -3.1072   12.0398 N   0  0  0  0  0  0  0  0  0  0  0  0
   23.8793   -2.7043   11.1153 H   0  0  0  0  0  0  0  0  0  0  0  0
   24.9887   -6.8063   16.9889 O   0  0  0  0  0  0  0  0  0  0  0  0
   25.8252   -7.5194   16.4514 C   0  0  0  0  0  0  0  0  0  0  0  0
   26.2968   -7.3030   15.0918 N   0  0  0  0  0  0  0  0  0  0  0  0
   26.9924   -7.9120   14.7533 H   0  0  0  0  0  0  0  0  0  0  0  0
   26.4038   -8.6781   17.2400 C   0  0  0  0  0  0  0  0  0  0  0  0
   27.0138   -8.2968   18.5139 N   0  0  0  0  0  0  0  0  0  0  0  0
   26.1760   -8.8172   19.5581 C   0  0  0  0  0  0  0  0  0  0  0  0
   25.4903  -10.0034   18.9796 C   0  0  0  0  0  0  0  0  0  0  0  0
   25.3444   -9.6841   17.5355 C   0  0  0  0  0  0  0  0  0  0  0  0
   27.9502   -8.6946   18.5860 H   0  0  0  0  0  0  0  0  0  0  0  0
   26.2504   -1.1834   10.4611 C   0  0  0  0  0  0  0  0  0  0  0  0
   25.2778   -1.0637    9.3235 C   0  0  0  0  0  0  0  0  0  0  0  0
   25.2939   -1.7953    8.1352 C   0  0  0  0  0  0  0  0  0  0  0  0
   24.2274   -1.3685    7.3560 N   0  0  0  0  0  0  0  0  0  0  0  0
   23.5543   -0.3686    8.0585 C   0  0  0  0  0  0  0  0  0  0  0  0
   22.3105    0.4739    7.7165 C   0  0  0  0  0  0  0  0  0  0  0  0
   21.8216    1.4781    8.6835 C   0  0  0  0  0  0  0  0  0  0  0  0
   22.5057    1.6781    9.9552 C   0  0  0  0  0  0  0  0  0  0  0  0
   23.6972    0.8673   10.2825 C   0  0  0  0  0  0  0  0  0  0  0  0
   24.2050   -0.1811    9.2726 C   0  0  0  0  0  0  0  0  0  0  0  0
   23.9881   -1.7111    6.4646 H   0  0  0  0  0  0  0  0  0  0  0  0
 24 23  1  0  0  0
 24 25  1  0  0  0
 23 22  2  0  0  0
 26 25  2  0  0  0
 26 27  1  0  0  0
 25 30  1  0  0  0
 22 30  1  0  0  0
 22 21  1  0  0  0
 30 29  2  0  0  0
 27 28  2  0  0  0
 21  8  1  0  0  0
 28 29  1  0  0  0
  9  8  2  0  0  0
  9  5  1  0  0  0
  8  7  1  0  0  0
  5  4  2  0  0  0
  5  6  1  0  0  0
  7  6  1  0  0  0
  4  1  1  0  0  0
  6  3  2  0  0  0
 11 12  2  0  0  0
 17 16  1  0  0  0
 17 18  1  0  0  0
 16 15  1  0  0  0
  1 13  1  0  0  0
  1  2  2  0  0  0
 12 13  1  0  0  0
 12 15  1  0  0  0
  3  2  1  0  0  0
 15 19  1  0  0  0
 18 19  1  0  0  0
 16 20  1  0  0  0
 13 14  1  0  0  0
  7 10  1  0  0  0
 24 31  1  0  0  0
M  END
> <minimizedAffinity>
-6.33059

$$$$
4EPY_0QY_A_203


 31 35  0  0  0  0  0  0  0  0999 V2000
   26.6037   -6.4835   13.7858 C   0  0  0  0  0  0  0  0  0  0  0  0
   27.8681   -6.4491   13.0563 C   0  0  0  0  0  0  0  0  0  0  0  0
   28.0171   -5.6293   11.8367 C   0  0  0  0  0  0  0  0  0  0  0  0
   25.4567   -5.6915   13.2681 C   0  0  0  0  0  0  0  0  0  0  0  0
   25.6087   -4.8374   11.9877 C   0  0  0  0  0  0  0  0  0  0  0  0
   26.8146   -4.8053   11.3111 C   0  0  0  0  0  0  0  0  0  0  0  0
   26.6712   -3.9805   10.2269 N   0  0  0  0  0  0  0  0  0  0  0  0
   25.3741   -3.4955   10.2291 C   0  0  0  0  0  0  0  0  0  0  0  0
   24.7227   -4.0320   11.3161 N   0  0  0  0  0  0  0  0  0  0  0  0
   27.3673   -3.7697    9.5633 H   0  0  0  0  0  0  0  0  0  0  0  0
   25.2456   -9.1168   14.0948 O   0  0  0  0  0  0  0  0  0  0  0  0
   25.7966   -8.6005   15.0575 C   0  0  0  0  0  0  0  0  0  0  0  0
   26.4649   -7.3093   14.9911 N   0  0  0  0  0  0  0  0  0  0  0  0
   26.8566   -6.9607   15.8244 H   0  0  0  0  0  0  0  0  0  0  0  0
   25.7765   -9.3350   16.3839 C   0  0  0  0  0  0  0  0  0  0  0  0
   26.2909   -8.5585   17.5121 N   0  0  0  0  0  0  0  0  0  0  0  0
   25.1757   -8.2641   18.3681 C   0  0  0  0  0  0  0  0  0  0  0  0
   24.1883   -9.3532   18.1431 C   0  0  0  0  0  0  0  0  0  0  0  0
   24.3863   -9.7508   16.7248 C   0  0  0  0  0  0  0  0  0  0  0  0
   26.9884   -9.1015   18.0210 H   0  0  0  0  0  0  0  0  0  0  0  0
   24.7665   -2.5551    9.2111 C   0  0  0  0  0  0  0  0  0  0  0  0
   24.5424   -1.1861    9.7856 C   0  0  0  0  0  0  0  0  0  0  0  0
   25.2370   -0.6062   10.8479 C   0  0  0  0  0  0  0  0  0  0  0  0
   24.7109    0.6603   11.0620 N   0  0  0  0  0  0  0  0  0  0  0  0
   23.6866    0.8627   10.1368 C   0  0  0  0  0  0  0  0  0  0  0  0
   22.7463    2.0567    9.8833 C   0  0  0  0  0  0  0  0  0  0  0  0
   21.7390    1.9756    8.8056 C   0  0  0  0  0  0  0  0  0  0  0  0
   21.6276    0.7774    7.9829 C   0  0  0  0  0  0  0  0  0  0  0  0
   22.5320   -0.3660    8.2260 C   0  0  0  0  0  0  0  0  0  0  0  0
   23.5834   -0.2788    9.3502 C   0  0  0  0  0  0  0  0  0  0  0  0
   25.0082    1.3026   11.7464 H   0  0  0  0  0  0  0  0  0  0  0  0
 24 23  1  0  0  0
 24 25  1  0  0  0
 23 22  2  0  0  0
 26 25  2  0  0  0
 26 27  1  0  0  0
 25 30  1  0  0  0
 22 30  1  0  0  0
 22 21  1  0  0  0
 30 29  2  0  0  0
 27 28  2  0  0  0
 21  8  1  0  0  0
 28 29  1  0  0  0
  9  8  2  0  0  0
  9  5  1  0  0  0
  8  7  1  0  0  0
  5  4  2  0  0  0
  5  6  1  0  0  0
  7  6  1  0  0  0
  4  1  1  0  0  0
  6  3  2  0  0  0
 11 12  2  0  0  0
 17 16  1  0  0  0
 17 18  1  0  0  0
 16 15  1  0  0  0
  1 13  1  0  0  0
  1  2  2  0  0  0
 12 13  1  0  0  0
 12 15  1  0  0  0
  3  2  1  0  0  0
 15 19  1  0  0  0
 18 19  1  0  0  0
 16 20  1  0  0  0
 13 14  1  0  0  0
  7 10  1  0  0  0
 24 31  1  0  0  0
M  END
> <minimizedAffinity>
-6.09588

$$$$
