3QXV_MTX_A_2000


 40 42  0  0  0  0  0  0  0  0999 V2000
  -22.4560    9.0581  -30.4452 C   0  0  0  0  0  0  0  0  0  0  0  0
  -22.3349   10.1270  -29.5619 C   0  0  0  0  0  0  0  0  0  0  0  0
  -21.5928   11.2396  -29.9274 C   0  0  0  0  0  0  0  0  0  0  0  0
  -20.9835   11.2939  -31.1908 C   0  0  0  0  0  0  0  0  0  0  0  0
  -21.1198   10.2117  -32.0734 C   0  0  0  0  0  0  0  0  0  0  0  0
  -22.0671    9.2286  -31.7756 C   0  0  0  0  0  0  0  0  0  0  0  0
  -23.2522    7.8611  -30.0056 C   0  0  0  0  0  0  0  0  0  0  0  0
  -24.3912    7.4377  -30.7325 O   0  0  0  0  0  0  0  0  0  0  0  0
  -22.8400    7.1899  -28.9551 N   0  0  0  0  0  0  0  0  0  0  0  0
  -22.9407    7.5518  -28.0451 H   0  0  0  0  0  0  0  0  0  0  0  0
  -22.2329    5.8990  -29.1868 C   0  0  0  0  0  0  0  0  0  0  0  0
  -21.6995    5.3763  -27.8902 C   0  0  0  0  0  0  0  0  0  0  0  0
  -20.5776    4.8145  -27.8529 O   0  0  0  0  0  0  0  0  0  0  0  0
  -22.3742    5.5326  -26.8468 O   0  0  0  0  0  0  0  0  0  0  0  0
  -23.2103    5.9537  -26.8882 H   0  0  0  0  0  0  0  0  0  0  0  0
  -21.2070    5.9600  -30.3370 C   0  0  0  0  0  0  0  0  0  0  0  0
  -20.9134    4.6775  -31.1154 C   0  0  0  0  0  0  0  0  0  0  0  0
  -19.4836    4.2080  -30.9287 C   0  0  0  0  0  0  0  0  0  0  0  0
  -19.1131    3.1246  -31.4413 O   0  0  0  0  0  0  0  0  0  0  0  0
  -18.6444    4.8866  -30.2849 O   0  0  0  0  0  0  0  0  0  0  0  0
  -18.8997    5.6989  -29.8938 H   0  0  0  0  0  0  0  0  0  0  0  0
  -20.2207   12.4543  -31.5026 N   0  0  0  0  0  0  0  0  0  0  0  0
  -19.8589   12.5588  -32.9218 C   0  0  0  0  0  0  0  0  0  0  0  0
  -20.4980   13.6924  -30.7970 C   0  0  0  0  0  0  0  0  0  0  0  0
  -15.8805   15.5866  -28.1150 N   0  0  0  0  0  0  0  0  0  0  0  0
  -15.8931   16.7733  -27.4204 C   0  0  0  0  0  0  0  0  0  0  0  0
  -14.7760   17.1733  -26.7998 N   0  0  0  0  0  0  0  0  0  0  0  0
  -17.0340   17.5582  -27.4222 N   0  0  0  0  0  0  0  0  0  0  0  0
  -18.1856   17.1143  -28.0801 C   0  0  0  0  0  0  0  0  0  0  0  0
  -19.2748   17.8876  -28.0792 N   0  0  0  0  0  0  0  0  0  0  0  0
  -18.1732   15.8923  -28.7685 C   0  0  0  0  0  0  0  0  0  0  0  0
  -19.2956   15.4220  -29.4365 N   0  0  0  0  0  0  0  0  0  0  0  0
  -19.2654   14.2028  -30.0712 C   0  0  0  0  0  0  0  0  0  0  0  0
  -18.0824   13.4581  -30.0723 C   0  0  0  0  0  0  0  0  0  0  0  0
  -16.9600   13.9266  -29.4143 N   0  0  0  0  0  0  0  0  0  0  0  0
  -17.0131   15.1291  -28.7536 C   0  0  0  0  0  0  0  0  0  0  0  0
  -13.9752   16.6007  -26.8100 H   0  0  0  0  0  0  0  0  0  0  0  0
  -14.7555   18.0400  -26.3332 H   0  0  0  0  0  0  0  0  0  0  0  0
  -19.2707   18.7431  -27.5921 H   0  0  0  0  0  0  0  0  0  0  0  0
  -20.0817   17.6020  -28.5656 H   0  0  0  0  0  0  0  0  0  0  0  0
 25 26  2  0  0  0
 25 36  1  0  0  0
 26 27  1  0  0  0
 26 28  1  0  0  0
 28 29  2  0  0  0
 29 30  1  0  0  0
 29 31  1  0  0  0
 31 32  1  0  0  0
 31 36  2  0  0  0
 32 33  2  0  0  0
 33 34  1  0  0  0
 33 24  1  0  0  0
 34 35  2  0  0  0
 35 36  1  0  0  0
 24 22  1  0  0  0
 22 23  1  0  0  0
 22  4  1  0  0  0
  1  2  2  0  0  0
  1  6  1  0  0  0
  1  7  1  0  0  0
  2  3  1  0  0  0
  3  4  2  0  0  0
  4  5  1  0  0  0
  5  6  2  0  0  0
  7  8  2  0  0  0
  7  9  1  0  0  0
  9 11  1  0  0  0
 11 12  1  0  0  0
 11 16  1  0  0  0
 12 13  2  0  0  0
 12 14  1  0  0  0
 16 17  1  0  0  0
 17 18  1  0  0  0
 18 19  2  0  0  0
 18 20  1  0  0  0
 27 37  1  0  0  0
 27 38  1  0  0  0
 30 39  1  0  0  0
 30 40  1  0  0  0
  9 10  1  0  0  0
 14 15  1  0  0  0
 20 21  1  0  0  0
M  END
> <minimizedAffinity>
-10.36825

$$$$
3QXV_MTX_A_2000


 40 42  0  0  0  0  0  0  0  0999 V2000
  -22.3485    9.1420  -30.3536 C   0  0  0  0  0  0  0  0  0  0  0  0
  -22.2569   10.2361  -29.4980 C   0  0  0  0  0  0  0  0  0  0  0  0
  -21.5483   11.3601  -29.8936 C   0  0  0  0  0  0  0  0  0  0  0  0
  -20.9433   11.4000  -31.1595 C   0  0  0  0  0  0  0  0  0  0  0  0
  -21.0497   10.2922  -32.0140 C   0  0  0  0  0  0  0  0  0  0  0  0
  -21.9673    9.2898  -31.6889 C   0  0  0  0  0  0  0  0  0  0  0  0
  -23.1086    7.9338  -29.8816 C   0  0  0  0  0  0  0  0  0  0  0  0
  -24.4386    7.6988  -30.3069 O   0  0  0  0  0  0  0  0  0  0  0  0
  -22.4938    7.0769  -29.0994 N   0  0  0  0  0  0  0  0  0  0  0  0
  -22.3064    7.2886  -28.1564 H   0  0  0  0  0  0  0  0  0  0  0  0
  -22.1031    5.8110  -29.6769 C   0  0  0  0  0  0  0  0  0  0  0  0
  -21.2587    5.0695  -28.6889 C   0  0  0  0  0  0  0  0  0  0  0  0
  -21.6761    4.8837  -27.5197 O   0  0  0  0  0  0  0  0  0  0  0  0
  -20.1493    4.6174  -29.0540 O   0  0  0  0  0  0  0  0  0  0  0  0
  -19.8492    4.7631  -29.9296 H   0  0  0  0  0  0  0  0  0  0  0  0
  -21.4639    6.0022  -31.0675 C   0  0  0  0  0  0  0  0  0  0  0  0
  -22.0273    5.2005  -32.2408 C   0  0  0  0  0  0  0  0  0  0  0  0
  -23.2088    5.8920  -32.8932 C   0  0  0  0  0  0  0  0  0  0  0  0
  -23.0140    6.7076  -33.8262 O   0  0  0  0  0  0  0  0  0  0  0  0
  -24.3907    5.6573  -32.5366 O   0  0  0  0  0  0  0  0  0  0  0  0
  -24.5589    5.0516  -31.8418 H   0  0  0  0  0  0  0  0  0  0  0  0
  -20.2154   12.5738  -31.5028 N   0  0  0  0  0  0  0  0  0  0  0  0
  -19.9208   12.6873  -32.9367 C   0  0  0  0  0  0  0  0  0  0  0  0
  -20.4809   13.8056  -30.7817 C   0  0  0  0  0  0  0  0  0  0  0  0
  -15.8449   15.6230  -28.0785 N   0  0  0  0  0  0  0  0  0  0  0  0
  -15.8419   16.8084  -27.3815 C   0  0  0  0  0  0  0  0  0  0  0  0
  -14.7212   17.1899  -26.7558 N   0  0  0  0  0  0  0  0  0  0  0  0
  -16.9705   17.6108  -27.3860 N   0  0  0  0  0  0  0  0  0  0  0  0
  -18.1263   17.1860  -28.0492 C   0  0  0  0  0  0  0  0  0  0  0  0
  -19.2035   17.9760  -28.0507 N   0  0  0  0  0  0  0  0  0  0  0  0
  -18.1301   15.9654  -28.7400 C   0  0  0  0  0  0  0  0  0  0  0  0
  -19.2572   15.5138  -29.4132 N   0  0  0  0  0  0  0  0  0  0  0  0
  -19.2433   14.2955  -30.0502 C   0  0  0  0  0  0  0  0  0  0  0  0
  -18.0719   13.5326  -30.0484 C   0  0  0  0  0  0  0  0  0  0  0  0
  -16.9450   13.9824  -29.3852 N   0  0  0  0  0  0  0  0  0  0  0  0
  -16.9820   15.1844  -28.7222 C   0  0  0  0  0  0  0  0  0  0  0  0
  -13.9293   16.6050  -26.7642 H   0  0  0  0  0  0  0  0  0  0  0  0
  -14.6891   18.0552  -26.2874 H   0  0  0  0  0  0  0  0  0  0  0  0
  -19.1881   18.8304  -27.5619 H   0  0  0  0  0  0  0  0  0  0  0  0
  -20.0128   17.7038  -28.5408 H   0  0  0  0  0  0  0  0  0  0  0  0
 25 26  2  0  0  0
 25 36  1  0  0  0
 26 27  1  0  0  0
 26 28  1  0  0  0
 28 29  2  0  0  0
 29 30  1  0  0  0
 29 31  1  0  0  0
 31 32  1  0  0  0
 31 36  2  0  0  0
 32 33  2  0  0  0
 33 34  1  0  0  0
 33 24  1  0  0  0
 34 35  2  0  0  0
 35 36  1  0  0  0
 24 22  1  0  0  0
 22 23  1  0  0  0
 22  4  1  0  0  0
  1  2  2  0  0  0
  1  6  1  0  0  0
  1  7  1  0  0  0
  2  3  1  0  0  0
  3  4  2  0  0  0
  4  5  1  0  0  0
  5  6  2  0  0  0
  7  8  2  0  0  0
  7  9  1  0  0  0
  9 11  1  0  0  0
 11 12  1  0  0  0
 11 16  1  0  0  0
 12 13  2  0  0  0
 12 14  1  0  0  0
 16 17  1  0  0  0
 17 18  1  0  0  0
 18 19  2  0  0  0
 18 20  1  0  0  0
 27 37  1  0  0  0
 27 38  1  0  0  0
 30 39  1  0  0  0
 30 40  1  0  0  0
  9 10  1  0  0  0
 14 15  1  0  0  0
 20 21  1  0  0  0
M  END
> <minimizedAffinity>
-10.02800

$$$$
3QXV_MTX_A_2000


 40 42  0  0  0  0  0  0  0  0999 V2000
  -22.3904    9.1186  -30.8103 C   0  0  0  0  0  0  0  0  0  0  0  0
  -21.6524    9.2645  -31.9814 C   0  0  0  0  0  0  0  0  0  0  0  0
  -20.9361   10.4310  -32.2012 C   0  0  0  0  0  0  0  0  0  0  0  0
  -20.9409   11.4509  -31.2367 C   0  0  0  0  0  0  0  0  0  0  0  0
  -21.6841   11.2869  -30.0580 C   0  0  0  0  0  0  0  0  0  0  0  0
  -22.1843   10.0165  -29.7608 C   0  0  0  0  0  0  0  0  0  0  0  0
  -23.1699    7.8477  -30.6166 C   0  0  0  0  0  0  0  0  0  0  0  0
  -24.3491    7.8294  -29.8329 O   0  0  0  0  0  0  0  0  0  0  0  0
  -22.7552    6.7627  -31.2288 N   0  0  0  0  0  0  0  0  0  0  0  0
  -21.9526    6.2796  -30.9259 H   0  0  0  0  0  0  0  0  0  0  0  0
  -23.5229    6.3052  -32.3646 C   0  0  0  0  0  0  0  0  0  0  0  0
  -22.5923    5.6841  -33.3581 C   0  0  0  0  0  0  0  0  0  0  0  0
  -21.4313    5.3556  -33.0118 O   0  0  0  0  0  0  0  0  0  0  0  0
  -22.9979    5.4743  -34.5242 O   0  0  0  0  0  0  0  0  0  0  0  0
  -23.8669    5.7244  -34.7701 H   0  0  0  0  0  0  0  0  0  0  0  0
  -24.4199    7.4282  -32.9244 C   0  0  0  0  0  0  0  0  0  0  0  0
  -25.8988    7.1236  -33.1634 C   0  0  0  0  0  0  0  0  0  0  0  0
  -26.1951    6.8279  -34.6209 C   0  0  0  0  0  0  0  0  0  0  0  0
  -27.3253    6.3944  -34.9499 O   0  0  0  0  0  0  0  0  0  0  0  0
  -25.3404    7.0228  -35.5213 O   0  0  0  0  0  0  0  0  0  0  0  0
  -24.4899    7.3463  -35.2979 H   0  0  0  0  0  0  0  0  0  0  0  0
  -20.2008   12.6316  -31.5259 N   0  0  0  0  0  0  0  0  0  0  0  0
  -19.8758   12.7907  -32.9489 C   0  0  0  0  0  0  0  0  0  0  0  0
  -20.4759   13.8403  -30.7703 C   0  0  0  0  0  0  0  0  0  0  0  0
  -15.8448   15.6349  -28.0434 N   0  0  0  0  0  0  0  0  0  0  0  0
  -15.8363   16.8253  -27.3549 C   0  0  0  0  0  0  0  0  0  0  0  0
  -14.7171   17.2010  -26.7232 N   0  0  0  0  0  0  0  0  0  0  0  0
  -16.9575   17.6379  -27.3743 N   0  0  0  0  0  0  0  0  0  0  0  0
  -18.1119   17.2189  -28.0436 C   0  0  0  0  0  0  0  0  0  0  0  0
  -19.1817   18.0188  -28.0594 N   0  0  0  0  0  0  0  0  0  0  0  0
  -18.1215   15.9934  -28.7255 C   0  0  0  0  0  0  0  0  0  0  0  0
  -19.2473   15.5472  -29.4044 N   0  0  0  0  0  0  0  0  0  0  0  0
  -19.2396   14.3242  -30.0325 C   0  0  0  0  0  0  0  0  0  0  0  0
  -18.0754   13.5507  -30.0158 C   0  0  0  0  0  0  0  0  0  0  0  0
  -16.9496   13.9950  -29.3469 N   0  0  0  0  0  0  0  0  0  0  0  0
  -16.9808   15.2020  -28.6930 C   0  0  0  0  0  0  0  0  0  0  0  0
  -13.9306   16.6089  -26.7210 H   0  0  0  0  0  0  0  0  0  0  0  0
  -14.6808   18.0695  -26.2608 H   0  0  0  0  0  0  0  0  0  0  0  0
  -19.1622   18.8765  -27.5767 H   0  0  0  0  0  0  0  0  0  0  0  0
  -19.9896   17.7505  -28.5539 H   0  0  0  0  0  0  0  0  0  0  0  0
 25 26  2  0  0  0
 25 36  1  0  0  0
 26 27  1  0  0  0
 26 28  1  0  0  0
 28 29  2  0  0  0
 29 30  1  0  0  0
 29 31  1  0  0  0
 31 32  1  0  0  0
 31 36  2  0  0  0
 32 33  2  0  0  0
 33 34  1  0  0  0
 33 24  1  0  0  0
 34 35  2  0  0  0
 35 36  1  0  0  0
 24 22  1  0  0  0
 22 23  1  0  0  0
 22  4  1  0  0  0
  1  2  2  0  0  0
  1  6  1  0  0  0
  1  7  1  0  0  0
  2  3  1  0  0  0
  3  4  2  0  0  0
  4  5  1  0  0  0
  5  6  2  0  0  0
  7  8  2  0  0  0
  7  9  1  0  0  0
  9 11  1  0  0  0
 11 12  1  0  0  0
 11 16  1  0  0  0
 12 13  2  0  0  0
 12 14  1  0  0  0
 16 17  1  0  0  0
 17 18  1  0  0  0
 18 19  2  0  0  0
 18 20  1  0  0  0
 27 37  1  0  0  0
 27 38  1  0  0  0
 30 39  1  0  0  0
 30 40  1  0  0  0
  9 10  1  0  0  0
 14 15  1  0  0  0
 20 21  1  0  0  0
M  END
> <minimizedAffinity>
-8.98154

$$$$
3QXV_MTX_A_2000


 40 42  0  0  0  0  0  0  0  0999 V2000
  -19.9114   13.0090  -30.7181 C   0  0  0  0  0  0  0  0  0  0  0  0
  -20.5343   12.3035  -29.6927 C   0  0  0  0  0  0  0  0  0  0  0  0
  -21.2491   11.1524  -29.9863 C   0  0  0  0  0  0  0  0  0  0  0  0
  -21.3264   10.6916  -31.3100 C   0  0  0  0  0  0  0  0  0  0  0  0
  -20.6877   11.4095  -32.3324 C   0  0  0  0  0  0  0  0  0  0  0  0
  -19.7814   12.4106  -31.9732 C   0  0  0  0  0  0  0  0  0  0  0  0
  -19.1621   14.2631  -30.3632 C   0  0  0  0  0  0  0  0  0  0  0  0
  -19.8482   15.4207  -29.9223 O   0  0  0  0  0  0  0  0  0  0  0  0
  -17.8509   14.2457  -30.4294 N   0  0  0  0  0  0  0  0  0  0  0  0
  -17.3824   14.2483  -31.2953 H   0  0  0  0  0  0  0  0  0  0  0  0
  -17.1222   14.2225  -29.1815 C   0  0  0  0  0  0  0  0  0  0  0  0
  -16.9369   15.6285  -28.7042 C   0  0  0  0  0  0  0  0  0  0  0  0
  -15.8516   16.2245  -28.9108 O   0  0  0  0  0  0  0  0  0  0  0  0
  -17.8855   16.2048  -28.1243 O   0  0  0  0  0  0  0  0  0  0  0  0
  -18.6905   15.7488  -27.9762 H   0  0  0  0  0  0  0  0  0  0  0  0
  -15.8237   13.3993  -29.3054 C   0  0  0  0  0  0  0  0  0  0  0  0
  -15.0855   13.0124  -28.0239 C   0  0  0  0  0  0  0  0  0  0  0  0
  -14.0050   11.9783  -28.2745 C   0  0  0  0  0  0  0  0  0  0  0  0
  -12.9565   12.3087  -28.8786 O   0  0  0  0  0  0  0  0  0  0  0  0
  -14.1208   10.7922  -27.8756 O   0  0  0  0  0  0  0  0  0  0  0  0
  -14.8956   10.5240  -27.4222 H   0  0  0  0  0  0  0  0  0  0  0  0
  -22.0883    9.5142  -31.5520 N   0  0  0  0  0  0  0  0  0  0  0  0
  -21.7596    8.8486  -32.8188 C   0  0  0  0  0  0  0  0  0  0  0  0
  -22.4500    8.6644  -30.4318 C   0  0  0  0  0  0  0  0  0  0  0  0
  -22.5453    3.2085  -31.9573 N   0  0  0  0  0  0  0  0  0  0  0  0
  -21.4364    2.4073  -31.8179 C   0  0  0  0  0  0  0  0  0  0  0  0
  -21.5134    1.1231  -32.1891 N   0  0  0  0  0  0  0  0  0  0  0  0
  -20.2501    2.9510  -31.3542 N   0  0  0  0  0  0  0  0  0  0  0  0
  -20.2000    4.2962  -30.9748 C   0  0  0  0  0  0  0  0  0  0  0  0
  -19.0456    4.8067  -30.5377 N   0  0  0  0  0  0  0  0  0  0  0  0
  -21.3407    5.1029  -31.0986 C   0  0  0  0  0  0  0  0  0  0  0  0
  -21.3271    6.4430  -30.7363 N   0  0  0  0  0  0  0  0  0  0  0  0
  -22.4708    7.1998  -30.8334 C   0  0  0  0  0  0  0  0  0  0  0  0
  -23.6380    6.6191  -31.3377 C   0  0  0  0  0  0  0  0  0  0  0  0
  -23.6536    5.2865  -31.7066 N   0  0  0  0  0  0  0  0  0  0  0  0
  -22.5148    4.5314  -31.5715 C   0  0  0  0  0  0  0  0  0  0  0  0
  -22.3662    0.7555  -32.5160 H   0  0  0  0  0  0  0  0  0  0  0  0
  -20.7173    0.5465  -32.1351 H   0  0  0  0  0  0  0  0  0  0  0  0
  -18.2521    4.2298  -30.4552 H   0  0  0  0  0  0  0  0  0  0  0  0
  -18.9883    5.7599  -30.2980 H   0  0  0  0  0  0  0  0  0  0  0  0
 25 26  2  0  0  0
 25 36  1  0  0  0
 26 27  1  0  0  0
 26 28  1  0  0  0
 28 29  2  0  0  0
 29 30  1  0  0  0
 29 31  1  0  0  0
 31 32  1  0  0  0
 31 36  2  0  0  0
 32 33  2  0  0  0
 33 34  1  0  0  0
 33 24  1  0  0  0
 34 35  2  0  0  0
 35 36  1  0  0  0
 24 22  1  0  0  0
 22 23  1  0  0  0
 22  4  1  0  0  0
  1  2  2  0  0  0
  1  6  1  0  0  0
  1  7  1  0  0  0
  2  3  1  0  0  0
  3  4  2  0  0  0
  4  5  1  0  0  0
  5  6  2  0  0  0
  7  8  2  0  0  0
  7  9  1  0  0  0
  9 11  1  0  0  0
 11 12  1  0  0  0
 11 16  1  0  0  0
 12 13  2  0  0  0
 12 14  1  0  0  0
 16 17  1  0  0  0
 17 18  1  0  0  0
 18 19  2  0  0  0
 18 20  1  0  0  0
 27 37  1  0  0  0
 27 38  1  0  0  0
 30 39  1  0  0  0
 30 40  1  0  0  0
  9 10  1  0  0  0
 14 15  1  0  0  0
 20 21  1  0  0  0
M  END
> <minimizedAffinity>
-8.42561

$$$$
3QXV_MTX_A_2000


 40 42  0  0  0  0  0  0  0  0999 V2000
  -22.4123    8.2294  -31.4524 C   0  0  0  0  0  0  0  0  0  0  0  0
  -22.5838    8.8944  -30.2418 C   0  0  0  0  0  0  0  0  0  0  0  0
  -22.1300   10.1971  -30.1032 C   0  0  0  0  0  0  0  0  0  0  0  0
  -21.5183   10.8472  -31.1865 C   0  0  0  0  0  0  0  0  0  0  0  0
  -21.3583   10.1665  -32.4030 C   0  0  0  0  0  0  0  0  0  0  0  0
  -22.0410    8.9606  -32.5828 C   0  0  0  0  0  0  0  0  0  0  0  0
  -22.8997    6.8111  -31.5581 C   0  0  0  0  0  0  0  0  0  0  0  0
  -22.9583    6.1531  -32.8105 O   0  0  0  0  0  0  0  0  0  0  0  0
  -23.2285    6.1811  -30.4540 N   0  0  0  0  0  0  0  0  0  0  0  0
  -24.0580    6.3970  -29.9696 H   0  0  0  0  0  0  0  0  0  0  0  0
  -22.3253    5.1584  -29.9776 C   0  0  0  0  0  0  0  0  0  0  0  0
  -21.9203    5.4868  -28.5751 C   0  0  0  0  0  0  0  0  0  0  0  0
  -20.8547    5.0205  -28.1031 O   0  0  0  0  0  0  0  0  0  0  0  0
  -22.6433    6.2509  -27.8955 O   0  0  0  0  0  0  0  0  0  0  0  0
  -23.4363    6.5922  -28.2595 H   0  0  0  0  0  0  0  0  0  0  0  0
  -21.1563    4.9405  -30.9600 C   0  0  0  0  0  0  0  0  0  0  0  0
  -20.4892    3.5657  -30.9995 C   0  0  0  0  0  0  0  0  0  0  0  0
  -18.9971    3.6447  -30.7400 C   0  0  0  0  0  0  0  0  0  0  0  0
  -18.4945    4.7161  -30.3241 O   0  0  0  0  0  0  0  0  0  0  0  0
  -18.2433    2.6542  -30.9134 O   0  0  0  0  0  0  0  0  0  0  0  0
  -18.5979    1.8442  -31.2234 H   0  0  0  0  0  0  0  0  0  0  0  0
  -21.0578   12.1777  -30.9790 N   0  0  0  0  0  0  0  0  0  0  0  0
  -21.4694   12.7505  -29.6912 C   0  0  0  0  0  0  0  0  0  0  0  0
  -19.7530   12.5608  -31.4874 C   0  0  0  0  0  0  0  0  0  0  0  0
  -17.3751   16.5187  -28.2035 N   0  0  0  0  0  0  0  0  0  0  0  0
  -16.1525   16.3141  -27.6081 C   0  0  0  0  0  0  0  0  0  0  0  0
  -15.6323   17.2839  -26.8453 N   0  0  0  0  0  0  0  0  0  0  0  0
  -15.5108   15.0961  -27.7579 N   0  0  0  0  0  0  0  0  0  0  0  0
  -16.0792   14.1016  -28.5604 C   0  0  0  0  0  0  0  0  0  0  0  0
  -15.4511   12.9295  -28.6873 N   0  0  0  0  0  0  0  0  0  0  0  0
  -17.3161   14.3246  -29.1830 C   0  0  0  0  0  0  0  0  0  0  0  0
  -17.9126   13.3592  -29.9828 N   0  0  0  0  0  0  0  0  0  0  0  0
  -19.1076   13.6200  -30.6107 C   0  0  0  0  0  0  0  0  0  0  0  0
  -19.7373   14.8510  -30.4055 C   0  0  0  0  0  0  0  0  0  0  0  0
  -19.1498   15.8123  -29.6037 N   0  0  0  0  0  0  0  0  0  0  0  0
  -17.9387   15.5538  -29.0105 C   0  0  0  0  0  0  0  0  0  0  0  0
  -16.1041   18.1429  -26.7516 H   0  0  0  0  0  0  0  0  0  0  0  0
  -14.7781   17.1379  -26.3781 H   0  0  0  0  0  0  0  0  0  0  0  0
  -14.5833   12.7857  -28.2453 H   0  0  0  0  0  0  0  0  0  0  0  0
  -15.8560   12.2095  -29.2230 H   0  0  0  0  0  0  0  0  0  0  0  0
 25 26  2  0  0  0
 25 36  1  0  0  0
 26 27  1  0  0  0
 26 28  1  0  0  0
 28 29  2  0  0  0
 29 30  1  0  0  0
 29 31  1  0  0  0
 31 32  1  0  0  0
 31 36  2  0  0  0
 32 33  2  0  0  0
 33 34  1  0  0  0
 33 24  1  0  0  0
 34 35  2  0  0  0
 35 36  1  0  0  0
 24 22  1  0  0  0
 22 23  1  0  0  0
 22  4  1  0  0  0
  1  2  2  0  0  0
  1  6  1  0  0  0
  1  7  1  0  0  0
  2  3  1  0  0  0
  3  4  2  0  0  0
  4  5  1  0  0  0
  5  6  2  0  0  0
  7  8  2  0  0  0
  7  9  1  0  0  0
  9 11  1  0  0  0
 11 12  1  0  0  0
 11 16  1  0  0  0
 12 13  2  0  0  0
 12 14  1  0  0  0
 16 17  1  0  0  0
 17 18  1  0  0  0
 18 19  2  0  0  0
 18 20  1  0  0  0
 27 37  1  0  0  0
 27 38  1  0  0  0
 30 39  1  0  0  0
 30 40  1  0  0  0
  9 10  1  0  0  0
 14 15  1  0  0  0
 20 21  1  0  0  0
M  END
> <minimizedAffinity>
-8.29433

$$$$
3QXV_MTX_A_2000


 40 42  0  0  0  0  0  0  0  0999 V2000
  -22.2406    9.3328  -31.5572 C   0  0  0  0  0  0  0  0  0  0  0  0
  -21.5304    9.8030  -32.6580 C   0  0  0  0  0  0  0  0  0  0  0  0
  -20.7988   10.9760  -32.5535 C   0  0  0  0  0  0  0  0  0  0  0  0
  -20.7601   11.6741  -31.3363 C   0  0  0  0  0  0  0  0  0  0  0  0
  -21.4756   11.1844  -30.2332 C   0  0  0  0  0  0  0  0  0  0  0  0
  -21.9912    9.8874  -30.3000 C   0  0  0  0  0  0  0  0  0  0  0  0
  -23.0380    8.0680  -31.7148 C   0  0  0  0  0  0  0  0  0  0  0  0
  -23.9235    7.8971  -32.8065 O   0  0  0  0  0  0  0  0  0  0  0  0
  -22.8606    7.1060  -30.8389 N   0  0  0  0  0  0  0  0  0  0  0  0
  -23.2134    7.1772  -29.9226 H   0  0  0  0  0  0  0  0  0  0  0  0
  -22.1271    5.9387  -31.2726 C   0  0  0  0  0  0  0  0  0  0  0  0
  -21.8127    5.0945  -30.0779 C   0  0  0  0  0  0  0  0  0  0  0  0
  -20.9287    4.2062  -30.1510 O   0  0  0  0  0  0  0  0  0  0  0  0
  -22.4224    5.3065  -29.0047 O   0  0  0  0  0  0  0  0  0  0  0  0
  -23.0802    5.9726  -28.9633 H   0  0  0  0  0  0  0  0  0  0  0  0
  -20.9089    6.3297  -32.1339 C   0  0  0  0  0  0  0  0  0  0  0  0
  -20.9170    5.9519  -33.6152 C   0  0  0  0  0  0  0  0  0  0  0  0
  -20.8595    4.4510  -33.8245 C   0  0  0  0  0  0  0  0  0  0  0  0
  -19.9319    3.7860  -33.3039 O   0  0  0  0  0  0  0  0  0  0  0  0
  -21.7315    3.8439  -34.4954 O   0  0  0  0  0  0  0  0  0  0  0  0
  -22.4331    4.3211  -34.8930 H   0  0  0  0  0  0  0  0  0  0  0  0
  -20.0062   12.8805  -31.2949 N   0  0  0  0  0  0  0  0  0  0  0  0
  -19.1114   13.0570  -32.4456 C   0  0  0  0  0  0  0  0  0  0  0  0
  -20.6161   14.0757  -30.7408 C   0  0  0  0  0  0  0  0  0  0  0  0
  -16.9497   17.0143  -27.5747 N   0  0  0  0  0  0  0  0  0  0  0  0
  -15.6977   16.5228  -27.2883 C   0  0  0  0  0  0  0  0  0  0  0  0
  -14.8674   17.2597  -26.5395 N   0  0  0  0  0  0  0  0  0  0  0  0
  -15.3393   15.2589  -27.7261 N   0  0  0  0  0  0  0  0  0  0  0  0
  -16.2282   14.5122  -28.5061 C   0  0  0  0  0  0  0  0  0  0  0  0
  -15.8699   13.2914  -28.9130 N   0  0  0  0  0  0  0  0  0  0  0  0
  -17.4957   15.0282  -28.8133 C   0  0  0  0  0  0  0  0  0  0  0  0
  -18.4057   14.3139  -29.5808 N   0  0  0  0  0  0  0  0  0  0  0  0
  -19.6266   14.8610  -29.8975 C   0  0  0  0  0  0  0  0  0  0  0  0
  -19.9604   16.1267  -29.4070 C   0  0  0  0  0  0  0  0  0  0  0  0
  -19.0595   16.8382  -28.6360 N   0  0  0  0  0  0  0  0  0  0  0  0
  -17.8292   16.2964  -28.3562 C   0  0  0  0  0  0  0  0  0  0  0  0
  -15.1409   18.1562  -26.2381 H   0  0  0  0  0  0  0  0  0  0  0  0
  -13.9835   16.9050  -26.2903 H   0  0  0  0  0  0  0  0  0  0  0  0
  -14.9772   12.9406  -28.6907 H   0  0  0  0  0  0  0  0  0  0  0  0
  -16.4985   12.7423  -29.4352 H   0  0  0  0  0  0  0  0  0  0  0  0
 25 26  2  0  0  0
 25 36  1  0  0  0
 26 27  1  0  0  0
 26 28  1  0  0  0
 28 29  2  0  0  0
 29 30  1  0  0  0
 29 31  1  0  0  0
 31 32  1  0  0  0
 31 36  2  0  0  0
 32 33  2  0  0  0
 33 34  1  0  0  0
 33 24  1  0  0  0
 34 35  2  0  0  0
 35 36  1  0  0  0
 24 22  1  0  0  0
 22 23  1  0  0  0
 22  4  1  0  0  0
  1  2  2  0  0  0
  1  6  1  0  0  0
  1  7  1  0  0  0
  2  3  1  0  0  0
  3  4  2  0  0  0
  4  5  1  0  0  0
  5  6  2  0  0  0
  7  8  2  0  0  0
  7  9  1  0  0  0
  9 11  1  0  0  0
 11 12  1  0  0  0
 11 16  1  0  0  0
 12 13  2  0  0  0
 12 14  1  0  0  0
 16 17  1  0  0  0
 17 18  1  0  0  0
 18 19  2  0  0  0
 18 20  1  0  0  0
 27 37  1  0  0  0
 27 38  1  0  0  0
 30 39  1  0  0  0
 30 40  1  0  0  0
  9 10  1  0  0  0
 14 15  1  0  0  0
 20 21  1  0  0  0
M  END
> <minimizedAffinity>
-7.66602

$$$$
3QXV_MTX_A_2000


 40 42  0  0  0  0  0  0  0  0999 V2000
  -19.7591   13.3332  -30.6356 C   0  0  0  0  0  0  0  0  0  0  0  0
  -19.8136   12.7168  -31.8824 C   0  0  0  0  0  0  0  0  0  0  0  0
  -20.5348   11.5430  -32.0375 C   0  0  0  0  0  0  0  0  0  0  0  0
  -21.2223   10.9910  -30.9453 C   0  0  0  0  0  0  0  0  0  0  0  0
  -21.1637   11.6271  -29.6960 C   0  0  0  0  0  0  0  0  0  0  0  0
  -20.6424   12.9221  -29.6351 C   0  0  0  0  0  0  0  0  0  0  0  0
  -18.9509   14.5939  -30.5021 C   0  0  0  0  0  0  0  0  0  0  0  0
  -19.5633   15.8151  -30.1301 O   0  0  0  0  0  0  0  0  0  0  0  0
  -17.6540   14.5263  -30.6958 N   0  0  0  0  0  0  0  0  0  0  0  0
  -17.2767   14.4172  -31.5986 H   0  0  0  0  0  0  0  0  0  0  0  0
  -16.8020   14.6182  -29.5320 C   0  0  0  0  0  0  0  0  0  0  0  0
  -16.2344   13.2647  -29.2407 C   0  0  0  0  0  0  0  0  0  0  0  0
  -16.8707   12.2329  -29.5667 O   0  0  0  0  0  0  0  0  0  0  0  0
  -15.1102   13.1802  -28.6955 O   0  0  0  0  0  0  0  0  0  0  0  0
  -14.6454   13.9581  -28.4570 H   0  0  0  0  0  0  0  0  0  0  0  0
  -17.5358   15.2858  -28.3510 C   0  0  0  0  0  0  0  0  0  0  0  0
  -16.9712   16.5915  -27.7913 C   0  0  0  0  0  0  0  0  0  0  0  0
  -15.5224   16.4535  -27.3648 C   0  0  0  0  0  0  0  0  0  0  0  0
  -14.7061   17.3679  -27.6318 O   0  0  0  0  0  0  0  0  0  0  0  0
  -15.1137   15.4491  -26.7297 O   0  0  0  0  0  0  0  0  0  0  0  0
  -15.7065   14.7545  -26.5197 H   0  0  0  0  0  0  0  0  0  0  0  0
  -21.9311    9.7760  -31.1615 N   0  0  0  0  0  0  0  0  0  0  0  0
  -21.4785    9.0310  -32.3430 C   0  0  0  0  0  0  0  0  0  0  0  0
  -22.3664    8.9987  -30.0152 C   0  0  0  0  0  0  0  0  0  0  0  0
  -23.2343    3.5822  -31.4331 N   0  0  0  0  0  0  0  0  0  0  0  0
  -22.2323    2.6461  -31.3289 C   0  0  0  0  0  0  0  0  0  0  0  0
  -22.4912    1.3781  -31.6724 N   0  0  0  0  0  0  0  0  0  0  0  0
  -20.9655    3.0376  -30.9293 N   0  0  0  0  0  0  0  0  0  0  0  0
  -20.7250    4.3697  -30.5775 C   0  0  0  0  0  0  0  0  0  0  0  0
  -19.4952    4.7321  -30.2023 N   0  0  0  0  0  0  0  0  0  0  0  0
  -21.7570    5.3155  -30.6649 C   0  0  0  0  0  0  0  0  0  0  0  0
  -21.5541    6.6471  -30.3286 N   0  0  0  0  0  0  0  0  0  0  0  0
  -22.5942    7.5441  -30.3882 C   0  0  0  0  0  0  0  0  0  0  0  0
  -23.8489    7.1130  -30.8286 C   0  0  0  0  0  0  0  0  0  0  0  0
  -24.0531    5.7891  -31.1716 N   0  0  0  0  0  0  0  0  0  0  0  0
  -23.0157    4.8947  -31.0738 C   0  0  0  0  0  0  0  0  0  0  0  0
  -23.3986    1.1198  -31.9537 H   0  0  0  0  0  0  0  0  0  0  0  0
  -21.7742    0.7040  -31.6435 H   0  0  0  0  0  0  0  0  0  0  0  0
  -18.7796    4.0585  -30.1449 H   0  0  0  0  0  0  0  0  0  0  0  0
  -19.3046    5.6728  -29.9832 H   0  0  0  0  0  0  0  0  0  0  0  0
 25 26  2  0  0  0
 25 36  1  0  0  0
 26 27  1  0  0  0
 26 28  1  0  0  0
 28 29  2  0  0  0
 29 30  1  0  0  0
 29 31  1  0  0  0
 31 32  1  0  0  0
 31 36  2  0  0  0
 32 33  2  0  0  0
 33 34  1  0  0  0
 33 24  1  0  0  0
 34 35  2  0  0  0
 35 36  1  0  0  0
 24 22  1  0  0  0
 22 23  1  0  0  0
 22  4  1  0  0  0
  1  2  2  0  0  0
  1  6  1  0  0  0
  1  7  1  0  0  0
  2  3  1  0  0  0
  3  4  2  0  0  0
  4  5  1  0  0  0
  5  6  2  0  0  0
  7  8  2  0  0  0
  7  9  1  0  0  0
  9 11  1  0  0  0
 11 12  1  0  0  0
 11 16  1  0  0  0
 12 13  2  0  0  0
 12 14  1  0  0  0
 16 17  1  0  0  0
 17 18  1  0  0  0
 18 19  2  0  0  0
 18 20  1  0  0  0
 27 37  1  0  0  0
 27 38  1  0  0  0
 30 39  1  0  0  0
 30 40  1  0  0  0
  9 10  1  0  0  0
 14 15  1  0  0  0
 20 21  1  0  0  0
M  END
> <minimizedAffinity>
-7.42447

$$$$
