3PPM_JG1_A_600


 25 27  0  0  0  0  0  0  0  0999 V2000
   44.4024  -43.7866    2.8126 C   0  0  0  0  0  0  0  0  0  0  0  0
   44.5007  -43.1046    1.7878 O   0  0  0  0  0  0  0  0  0  0  0  0
   45.0759  -47.3029    3.0502 C   0  0  0  0  0  0  0  0  0  0  0  0
   43.9629  -47.2831    2.2971 N   0  0  0  0  0  0  0  0  0  0  0  0
   43.5807  -46.1091    2.1245 N   0  0  0  0  0  0  0  0  0  0  0  0
   44.4648  -45.2964    2.7041 C   0  0  0  0  0  0  0  0  0  0  0  0
   45.4104  -46.0257    3.3572 O   0  0  0  0  0  0  0  0  0  0  0  0
   46.1437  -48.4922    4.8277 N   0  0  0  0  0  0  0  0  0  0  0  0
   45.8518  -48.3654    3.5186 C   0  0  0  0  0  0  0  0  0  0  0  0
   46.3475  -49.2904    2.6015 C   0  0  0  0  0  0  0  0  0  0  0  0
   47.1193  -50.3530    3.0761 C   0  0  0  0  0  0  0  0  0  0  0  0
   47.3862  -50.4652    4.4446 C   0  0  0  0  0  0  0  0  0  0  0  0
   46.8687  -49.4958    5.3007 C   0  0  0  0  0  0  0  0  0  0  0  0
   44.2315  -43.1419    4.1975 C   0  0  0  0  0  0  0  0  0  0  0  0
   43.2710  -43.8992    5.1061 C   0  0  0  0  0  0  0  0  0  0  0  0
   42.4882  -42.9000    5.9673 C   0  0  0  0  0  0  0  0  0  0  0  0
   43.3787  -42.2304    7.0148 C   0  0  0  0  0  0  0  0  0  0  0  0
   43.5833  -43.0379    8.2903 C   0  0  0  0  0  0  0  0  0  0  0  0
   45.0361  -43.5216    8.3341 C   0  0  0  0  0  0  0  0  0  0  0  0
   45.1340  -45.0220    8.6276 C   0  0  0  0  0  0  0  0  0  0  0  0
   45.3135  -45.4547    9.9371 C   0  0  0  0  0  0  0  0  0  0  0  0
   45.4002  -46.8146   10.2214 C   0  0  0  0  0  0  0  0  0  0  0  0
   45.3207  -47.7463    9.1926 C   0  0  0  0  0  0  0  0  0  0  0  0
   45.1507  -47.3135    7.8828 C   0  0  0  0  0  0  0  0  0  0  0  0
   45.0537  -45.9529    7.6009 C   0  0  0  0  0  0  0  0  0  0  0  0
  8  9  2  0  0  0
  8 13  1  0  0  0
  3  9  1  0  0  0
  9 10  1  0  0  0
 10 11  2  0  0  0
 12 11  1  0  0  0
 13 12  2  0  0  0
  4  3  2  0  0  0
  3  7  1  0  0  0
  5  4  1  0  0  0
  5  6  2  0  0  0
  6  1  1  0  0  0
  6  7  1  0  0  0
 14  1  1  0  0  0
  1  2  2  0  0  0
 15 14  1  0  0  0
 16 15  1  0  0  0
 17 16  1  0  0  0
 17 18  1  0  0  0
 19 18  1  0  0  0
 19 20  1  0  0  0
 21 20  2  0  0  0
 20 25  1  0  0  0
 21 22  1  0  0  0
 22 23  2  0  0  0
 23 24  1  0  0  0
 25 24  2  0  0  0
M  END
> <minimizedAffinity>
-9.52442

$$$$
3PPM_JG1_A_600


 25 27  0  0  0  0  0  0  0  0999 V2000
   44.4027  -46.4543    2.6415 C   0  0  0  0  0  0  0  0  0  0  0  0
   43.4924  -46.5299    1.8103 O   0  0  0  0  0  0  0  0  0  0  0  0
   44.0363  -43.5105    4.6600 C   0  0  0  0  0  0  0  0  0  0  0  0
   45.3723  -43.6474    4.6075 N   0  0  0  0  0  0  0  0  0  0  0  0
   45.6760  -44.6534    3.9367 N   0  0  0  0  0  0  0  0  0  0  0  0
   44.5513  -45.1891    3.4615 C   0  0  0  0  0  0  0  0  0  0  0  0
   43.4725  -44.5174    3.9489 O   0  0  0  0  0  0  0  0  0  0  0  0
   43.4085  -41.2439    5.0867 N   0  0  0  0  0  0  0  0  0  0  0  0
   43.2323  -42.5629    5.2970 C   0  0  0  0  0  0  0  0  0  0  0  0
   42.2500  -43.0021    6.1828 C   0  0  0  0  0  0  0  0  0  0  0  0
   41.4463  -42.0501    6.8137 C   0  0  0  0  0  0  0  0  0  0  0  0
   41.6436  -40.6894    6.5567 C   0  0  0  0  0  0  0  0  0  0  0  0
   42.6535  -40.3237    5.6696 C   0  0  0  0  0  0  0  0  0  0  0  0
   45.3810  -47.6168    2.8745 C   0  0  0  0  0  0  0  0  0  0  0  0
   45.4210  -48.0970    4.3200 C   0  0  0  0  0  0  0  0  0  0  0  0
   46.4978  -49.1793    4.4687 C   0  0  0  0  0  0  0  0  0  0  0  0
   46.5310  -49.7597    5.8831 C   0  0  0  0  0  0  0  0  0  0  0  0
   46.7655  -48.7376    6.9882 C   0  0  0  0  0  0  0  0  0  0  0  0
   45.4919  -48.6307    7.8326 C   0  0  0  0  0  0  0  0  0  0  0  0
   45.2973  -47.2227    8.4041 C   0  0  0  0  0  0  0  0  0  0  0  0
   45.0720  -46.1566    7.5398 C   0  0  0  0  0  0  0  0  0  0  0  0
   44.8889  -44.8717    8.0431 C   0  0  0  0  0  0  0  0  0  0  0  0
   44.9441  -44.6477    9.4141 C   0  0  0  0  0  0  0  0  0  0  0  0
   45.1785  -45.7116   10.2771 C   0  0  0  0  0  0  0  0  0  0  0  0
   45.3512  -46.9985    9.7730 C   0  0  0  0  0  0  0  0  0  0  0  0
  8  9  2  0  0  0
  8 13  1  0  0  0
  3  9  1  0  0  0
  9 10  1  0  0  0
 10 11  2  0  0  0
 12 11  1  0  0  0
 13 12  2  0  0  0
  4  3  2  0  0  0
  3  7  1  0  0  0
  5  4  1  0  0  0
  5  6  2  0  0  0
  6  1  1  0  0  0
  6  7  1  0  0  0
 14  1  1  0  0  0
  1  2  2  0  0  0
 15 14  1  0  0  0
 16 15  1  0  0  0
 17 16  1  0  0  0
 17 18  1  0  0  0
 19 18  1  0  0  0
 19 20  1  0  0  0
 21 20  2  0  0  0
 20 25  1  0  0  0
 21 22  1  0  0  0
 22 23  2  0  0  0
 23 24  1  0  0  0
 25 24  2  0  0  0
M  END
> <minimizedAffinity>
-9.34580

$$$$
3PPM_JG1_A_600


 25 27  0  0  0  0  0  0  0  0999 V2000
   44.4456  -43.8198    2.9439 C   0  0  0  0  0  0  0  0  0  0  0  0
   44.6061  -43.0764    1.9709 O   0  0  0  0  0  0  0  0  0  0  0  0
   45.1571  -47.3356    3.0308 C   0  0  0  0  0  0  0  0  0  0  0  0
   44.1130  -47.2838    2.1861 N   0  0  0  0  0  0  0  0  0  0  0  0
   43.7267  -46.1063    2.0507 N   0  0  0  0  0  0  0  0  0  0  0  0
   44.5433  -45.3194    2.7521 C   0  0  0  0  0  0  0  0  0  0  0  0
   45.4416  -46.0753    3.4408 O   0  0  0  0  0  0  0  0  0  0  0  0
   46.2068  -48.5398    4.8089 N   0  0  0  0  0  0  0  0  0  0  0  0
   45.9081  -48.4149    3.5011 C   0  0  0  0  0  0  0  0  0  0  0  0
   46.3718  -49.3595    2.5873 C   0  0  0  0  0  0  0  0  0  0  0  0
   47.1187  -50.4388    3.0639 C   0  0  0  0  0  0  0  0  0  0  0  0
   47.3933  -50.5480    4.4312 C   0  0  0  0  0  0  0  0  0  0  0  0
   46.9086  -49.5589    5.2839 C   0  0  0  0  0  0  0  0  0  0  0  0
   44.1621  -43.2614    4.3478 C   0  0  0  0  0  0  0  0  0  0  0  0
   45.2201  -43.6392    5.3771 C   0  0  0  0  0  0  0  0  0  0  0  0
   44.6639  -44.7262    6.3055 C   0  0  0  0  0  0  0  0  0  0  0  0
   45.0760  -44.4987    7.7605 C   0  0  0  0  0  0  0  0  0  0  0  0
   44.8471  -43.0834    8.2757 C   0  0  0  0  0  0  0  0  0  0  0  0
   43.3502  -42.8971    8.5425 C   0  0  0  0  0  0  0  0  0  0  0  0
   42.7052  -41.9269    7.5478 C   0  0  0  0  0  0  0  0  0  0  0  0
   43.4081  -40.8002    7.1344 C   0  0  0  0  0  0  0  0  0  0  0  0
   42.8382  -39.9109    6.2278 C   0  0  0  0  0  0  0  0  0  0  0  0
   41.5559  -40.1399    5.7418 C   0  0  0  0  0  0  0  0  0  0  0  0
   40.8498  -41.2608    6.1622 C   0  0  0  0  0  0  0  0  0  0  0  0
   41.4253  -42.1555    7.0614 C   0  0  0  0  0  0  0  0  0  0  0  0
  8  9  2  0  0  0
  8 13  1  0  0  0
  3  9  1  0  0  0
  9 10  1  0  0  0
 10 11  2  0  0  0
 12 11  1  0  0  0
 13 12  2  0  0  0
  4  3  2  0  0  0
  3  7  1  0  0  0
  5  4  1  0  0  0
  5  6  2  0  0  0
  6  1  1  0  0  0
  6  7  1  0  0  0
 14  1  1  0  0  0
  1  2  2  0  0  0
 15 14  1  0  0  0
 16 15  1  0  0  0
 17 16  1  0  0  0
 17 18  1  0  0  0
 19 18  1  0  0  0
 19 20  1  0  0  0
 21 20  2  0  0  0
 20 25  1  0  0  0
 21 22  1  0  0  0
 22 23  2  0  0  0
 23 24  1  0  0  0
 25 24  2  0  0  0
M  END
> <minimizedAffinity>
-9.32680

$$$$
3PPM_JG1_A_600


 25 27  0  0  0  0  0  0  0  0999 V2000
   37.4844  -40.8051    7.0013 C   0  0  0  0  0  0  0  0  0  0  0  0
   36.8915  -39.7920    6.6177 O   0  0  0  0  0  0  0  0  0  0  0  0
   41.0191  -41.4202    6.9525 C   0  0  0  0  0  0  0  0  0  0  0  0
   40.9679  -40.1166    7.2758 N   0  0  0  0  0  0  0  0  0  0  0  0
   39.7833  -39.7315    7.3253 N   0  0  0  0  0  0  0  0  0  0  0  0
   38.9961  -40.7838    7.0998 C   0  0  0  0  0  0  0  0  0  0  0  0
   39.7515  -41.8758    6.8008 O   0  0  0  0  0  0  0  0  0  0  0  0
   42.3416  -42.8484    5.5651 N   0  0  0  0  0  0  0  0  0  0  0  0
   42.1031  -42.2798    6.7630 C   0  0  0  0  0  0  0  0  0  0  0  0
   42.9309  -42.5659    7.8472 C   0  0  0  0  0  0  0  0  0  0  0  0
   44.0158  -43.4230    7.6507 C   0  0  0  0  0  0  0  0  0  0  0  0
   44.2457  -43.9799    6.3883 C   0  0  0  0  0  0  0  0  0  0  0  0
   43.3686  -43.6593    5.3546 C   0  0  0  0  0  0  0  0  0  0  0  0
   36.7265  -42.0834    7.3942 C   0  0  0  0  0  0  0  0  0  0  0  0
   35.2370  -41.8601    7.6252 C   0  0  0  0  0  0  0  0  0  0  0  0
   34.9887  -41.5703    9.1109 C   0  0  0  0  0  0  0  0  0  0  0  0
   33.5538  -41.9008    9.5239 C   0  0  0  0  0  0  0  0  0  0  0  0
   33.3011  -43.3702    9.8368 C   0  0  0  0  0  0  0  0  0  0  0  0
   34.1728  -43.7721   11.0306 C   0  0  0  0  0  0  0  0  0  0  0  0
   35.1377  -44.9094   10.6811 C   0  0  0  0  0  0  0  0  0  0  0  0
   35.1894  -45.3888    9.3766 C   0  0  0  0  0  0  0  0  0  0  0  0
   36.0637  -46.4188    9.0414 C   0  0  0  0  0  0  0  0  0  0  0  0
   36.8804  -46.9820   10.0154 C   0  0  0  0  0  0  0  0  0  0  0  0
   36.8220  -46.5093   11.3211 C   0  0  0  0  0  0  0  0  0  0  0  0
   35.9542  -45.4715   11.6529 C   0  0  0  0  0  0  0  0  0  0  0  0
  8  9  2  0  0  0
  8 13  1  0  0  0
  3  9  1  0  0  0
  9 10  1  0  0  0
 10 11  2  0  0  0
 12 11  1  0  0  0
 13 12  2  0  0  0
  4  3  2  0  0  0
  3  7  1  0  0  0
  5  4  1  0  0  0
  5  6  2  0  0  0
  6  1  1  0  0  0
  6  7  1  0  0  0
 14  1  1  0  0  0
  1  2  2  0  0  0
 15 14  1  0  0  0
 16 15  1  0  0  0
 17 16  1  0  0  0
 17 18  1  0  0  0
 19 18  1  0  0  0
 19 20  1  0  0  0
 21 20  2  0  0  0
 20 25  1  0  0  0
 21 22  1  0  0  0
 22 23  2  0  0  0
 23 24  1  0  0  0
 25 24  2  0  0  0
M  END
> <minimizedAffinity>
-8.97691

$$$$
3PPM_JG1_A_600


 25 27  0  0  0  0  0  0  0  0999 V2000
   41.0492  -41.3264    6.7603 C   0  0  0  0  0  0  0  0  0  0  0  0
   40.2467  -40.4803    6.3541 O   0  0  0  0  0  0  0  0  0  0  0  0
   43.5050  -42.9116    4.6793 C   0  0  0  0  0  0  0  0  0  0  0  0
   43.8583  -41.6179    4.5906 N   0  0  0  0  0  0  0  0  0  0  0  0
   43.0813  -40.9122    5.2632 N   0  0  0  0  0  0  0  0  0  0  0  0
   42.2175  -41.7196    5.8796 C   0  0  0  0  0  0  0  0  0  0  0  0
   42.4207  -43.0069    5.4872 O   0  0  0  0  0  0  0  0  0  0  0  0
   45.2614  -44.0294    3.5048 N   0  0  0  0  0  0  0  0  0  0  0  0
   44.0517  -44.0572    4.0973 C   0  0  0  0  0  0  0  0  0  0  0  0
   43.3114  -45.2380    4.1148 C   0  0  0  0  0  0  0  0  0  0  0  0
   43.8650  -46.3815    3.5349 C   0  0  0  0  0  0  0  0  0  0  0  0
   45.1324  -46.3217    2.9460 C   0  0  0  0  0  0  0  0  0  0  0  0
   45.8084  -45.1037    2.9541 C   0  0  0  0  0  0  0  0  0  0  0  0
   40.9001  -41.9814    8.1430 C   0  0  0  0  0  0  0  0  0  0  0  0
   42.1320  -41.8246    9.0258 C   0  0  0  0  0  0  0  0  0  0  0  0
   43.0684  -43.0208    8.8125 C   0  0  0  0  0  0  0  0  0  0  0  0
   44.4444  -42.5845    8.3077 C   0  0  0  0  0  0  0  0  0  0  0  0
   45.5231  -43.6576    8.3843 C   0  0  0  0  0  0  0  0  0  0  0  0
   45.0253  -44.7861    9.2929 C   0  0  0  0  0  0  0  0  0  0  0  0
   45.2147  -46.1652    8.6534 C   0  0  0  0  0  0  0  0  0  0  0  0
   45.5808  -47.2458    9.4487 C   0  0  0  0  0  0  0  0  0  0  0  0
   45.7529  -48.5065    8.8840 C   0  0  0  0  0  0  0  0  0  0  0  0
   45.5716  -48.6867    7.5175 C   0  0  0  0  0  0  0  0  0  0  0  0
   45.2149  -47.6048    6.7212 C   0  0  0  0  0  0  0  0  0  0  0  0
   45.0330  -46.3460    7.2891 C   0  0  0  0  0  0  0  0  0  0  0  0
  8  9  2  0  0  0
  8 13  1  0  0  0
  3  9  1  0  0  0
  9 10  1  0  0  0
 10 11  2  0  0  0
 12 11  1  0  0  0
 13 12  2  0  0  0
  4  3  2  0  0  0
  3  7  1  0  0  0
  5  4  1  0  0  0
  5  6  2  0  0  0
  6  1  1  0  0  0
  6  7  1  0  0  0
 14  1  1  0  0  0
  1  2  2  0  0  0
 15 14  1  0  0  0
 16 15  1  0  0  0
 17 16  1  0  0  0
 17 18  1  0  0  0
 19 18  1  0  0  0
 19 20  1  0  0  0
 21 20  2  0  0  0
 20 25  1  0  0  0
 21 22  1  0  0  0
 22 23  2  0  0  0
 23 24  1  0  0  0
 25 24  2  0  0  0
M  END
> <minimizedAffinity>
-8.93463

$$$$
3PPM_JG1_A_600


 25 27  0  0  0  0  0  0  0  0999 V2000
   35.9347  -42.2935    7.3022 C   0  0  0  0  0  0  0  0  0  0  0  0
   35.9434  -43.4361    6.8339 O   0  0  0  0  0  0  0  0  0  0  0  0
   39.1957  -40.8747    6.8249 C   0  0  0  0  0  0  0  0  0  0  0  0
   38.4281  -39.7770    6.9351 N   0  0  0  0  0  0  0  0  0  0  0  0
   37.2352  -40.1004    7.0982 N   0  0  0  0  0  0  0  0  0  0  0  0
   37.1726  -41.4305    7.1680 C   0  0  0  0  0  0  0  0  0  0  0  0
   38.4025  -41.9677    6.9414 O   0  0  0  0  0  0  0  0  0  0  0  0
   41.3557  -39.9537    6.3777 N   0  0  0  0  0  0  0  0  0  0  0  0
   40.5689  -41.0208    6.6177 C   0  0  0  0  0  0  0  0  0  0  0  0
   41.1187  -42.3013    6.6376 C   0  0  0  0  0  0  0  0  0  0  0  0
   42.4932  -42.4409    6.4340 C   0  0  0  0  0  0  0  0  0  0  0  0
   43.2836  -41.3093    6.2074 C   0  0  0  0  0  0  0  0  0  0  0  0
   42.6629  -40.0623    6.1880 C   0  0  0  0  0  0  0  0  0  0  0  0
   34.6947  -41.7197    8.0066 C   0  0  0  0  0  0  0  0  0  0  0  0
   34.8739  -41.5501    9.5101 C   0  0  0  0  0  0  0  0  0  0  0  0
   33.5770  -41.9470   10.2267 C   0  0  0  0  0  0  0  0  0  0  0  0
   32.7821  -42.9848    9.4331 C   0  0  0  0  0  0  0  0  0  0  0  0
   32.9579  -44.4225    9.9054 C   0  0  0  0  0  0  0  0  0  0  0  0
   33.9120  -45.1388    8.9446 C   0  0  0  0  0  0  0  0  0  0  0  0
   35.1631  -45.6600    9.6587 C   0  0  0  0  0  0  0  0  0  0  0  0
   35.9375  -46.6449    9.0549 C   0  0  0  0  0  0  0  0  0  0  0  0
   37.0797  -47.1263    9.6884 C   0  0  0  0  0  0  0  0  0  0  0  0
   37.4433  -46.6322   10.9360 C   0  0  0  0  0  0  0  0  0  0  0  0
   36.6641  -45.6548   11.5436 C   0  0  0  0  0  0  0  0  0  0  0  0
   35.5272  -45.1664   10.9040 C   0  0  0  0  0  0  0  0  0  0  0  0
  8  9  2  0  0  0
  8 13  1  0  0  0
  3  9  1  0  0  0
  9 10  1  0  0  0
 10 11  2  0  0  0
 12 11  1  0  0  0
 13 12  2  0  0  0
  4  3  2  0  0  0
  3  7  1  0  0  0
  5  4  1  0  0  0
  5  6  2  0  0  0
  6  1  1  0  0  0
  6  7  1  0  0  0
 14  1  1  0  0  0
  1  2  2  0  0  0
 15 14  1  0  0  0
 16 15  1  0  0  0
 17 16  1  0  0  0
 17 18  1  0  0  0
 19 18  1  0  0  0
 19 20  1  0  0  0
 21 20  2  0  0  0
 20 25  1  0  0  0
 21 22  1  0  0  0
 22 23  2  0  0  0
 23 24  1  0  0  0
 25 24  2  0  0  0
M  END
> <minimizedAffinity>
-8.86639

$$$$
3PPM_JG1_A_600


 25 27  0  0  0  0  0  0  0  0999 V2000
   44.9593  -46.4175    4.5446 C   0  0  0  0  0  0  0  0  0  0  0  0
   45.2758  -47.0632    3.5407 O   0  0  0  0  0  0  0  0  0  0  0  0
   43.5548  -43.1280    4.8296 C   0  0  0  0  0  0  0  0  0  0  0  0
   44.2726  -43.0270    3.6978 N   0  0  0  0  0  0  0  0  0  0  0  0
   44.8472  -44.1063    3.4546 N   0  0  0  0  0  0  0  0  0  0  0  0
   44.4802  -44.9893    4.3839 C   0  0  0  0  0  0  0  0  0  0  0  0
   43.6947  -44.3852    5.3169 O   0  0  0  0  0  0  0  0  0  0  0  0
   41.6066  -42.5525    6.0895 N   0  0  0  0  0  0  0  0  0  0  0  0
   42.7674  -42.1945    5.5068 C   0  0  0  0  0  0  0  0  0  0  0  0
   43.1891  -40.8668    5.5519 C   0  0  0  0  0  0  0  0  0  0  0  0
   42.3997  -39.9386    6.2340 C   0  0  0  0  0  0  0  0  0  0  0  0
   41.2102  -40.3490    6.8449 C   0  0  0  0  0  0  0  0  0  0  0  0
   40.8452  -41.6898    6.7471 C   0  0  0  0  0  0  0  0  0  0  0  0
   45.0267  -47.0307    5.9526 C   0  0  0  0  0  0  0  0  0  0  0  0
   45.9174  -48.2640    6.0364 C   0  0  0  0  0  0  0  0  0  0  0  0
   46.2396  -48.5621    7.5062 C   0  0  0  0  0  0  0  0  0  0  0  0
   45.1899  -47.9743    8.4502 C   0  0  0  0  0  0  0  0  0  0  0  0
   45.6701  -47.7472    9.8781 C   0  0  0  0  0  0  0  0  0  0  0  0
   44.8174  -46.6425   10.5099 C   0  0  0  0  0  0  0  0  0  0  0  0
   44.8698  -45.3423    9.7015 C   0  0  0  0  0  0  0  0  0  0  0  0
   43.7060  -44.6046    9.5126 C   0  0  0  0  0  0  0  0  0  0  0  0
   43.7371  -43.4188    8.7842 C   0  0  0  0  0  0  0  0  0  0  0  0
   44.9324  -42.9741    8.2306 C   0  0  0  0  0  0  0  0  0  0  0  0
   46.0936  -43.7162    8.4114 C   0  0  0  0  0  0  0  0  0  0  0  0
   46.0631  -44.8973    9.1493 C   0  0  0  0  0  0  0  0  0  0  0  0
  8  9  2  0  0  0
  8 13  1  0  0  0
  3  9  1  0  0  0
  9 10  1  0  0  0
 10 11  2  0  0  0
 12 11  1  0  0  0
 13 12  2  0  0  0
  4  3  2  0  0  0
  3  7  1  0  0  0
  5  4  1  0  0  0
  5  6  2  0  0  0
  6  1  1  0  0  0
  6  7  1  0  0  0
 14  1  1  0  0  0
  1  2  2  0  0  0
 15 14  1  0  0  0
 16 15  1  0  0  0
 17 16  1  0  0  0
 17 18  1  0  0  0
 19 18  1  0  0  0
 19 20  1  0  0  0
 21 20  2  0  0  0
 20 25  1  0  0  0
 21 22  1  0  0  0
 22 23  2  0  0  0
 23 24  1  0  0  0
 25 24  2  0  0  0
M  END
> <minimizedAffinity>
-8.86331

$$$$
3PPM_JG1_A_600


 25 27  0  0  0  0  0  0  0  0999 V2000
   40.2595  -40.7091    6.9601 C   0  0  0  0  0  0  0  0  0  0  0  0
   40.0347  -39.5817    7.4112 O   0  0  0  0  0  0  0  0  0  0  0  0
   43.1597  -42.0389    5.3186 C   0  0  0  0  0  0  0  0  0  0  0  0
   43.4994  -40.7489    5.4818 N   0  0  0  0  0  0  0  0  0  0  0  0
   42.5746  -40.1276    6.0412 N   0  0  0  0  0  0  0  0  0  0  0  0
   41.6071  -40.9981    6.3311 C   0  0  0  0  0  0  0  0  0  0  0  0
   41.9199  -42.2258    5.8338 O   0  0  0  0  0  0  0  0  0  0  0  0
   44.1774  -43.0934    3.4301 N   0  0  0  0  0  0  0  0  0  0  0  0
   43.8478  -43.1056    4.7364 C   0  0  0  0  0  0  0  0  0  0  0  0
   44.1715  -44.2072    5.5264 C   0  0  0  0  0  0  0  0  0  0  0  0
   44.8633  -45.2690    4.9397 C   0  0  0  0  0  0  0  0  0  0  0  0
   45.2075  -45.2143    3.5851 C   0  0  0  0  0  0  0  0  0  0  0  0
   44.8391  -44.0870    2.8543 C   0  0  0  0  0  0  0  0  0  0  0  0
   39.2110  -41.8309    7.0326 C   0  0  0  0  0  0  0  0  0  0  0  0
   37.7751  -41.3213    7.0354 C   0  0  0  0  0  0  0  0  0  0  0  0
   36.8333  -42.4515    7.4699 C   0  0  0  0  0  0  0  0  0  0  0  0
   35.4975  -41.9139    7.9850 C   0  0  0  0  0  0  0  0  0  0  0  0
   34.7924  -42.8130    8.9926 C   0  0  0  0  0  0  0  0  0  0  0  0
   35.2138  -44.2626    8.7320 C   0  0  0  0  0  0  0  0  0  0  0  0
   35.5445  -45.0073   10.0292 C   0  0  0  0  0  0  0  0  0  0  0  0
   36.5158  -46.0027   10.0203 C   0  0  0  0  0  0  0  0  0  0  0  0
   36.8313  -46.6861   11.1912 C   0  0  0  0  0  0  0  0  0  0  0  0
   36.1652  -46.3838   12.3735 C   0  0  0  0  0  0  0  0  0  0  0  0
   35.1880  -45.3956   12.3804 C   0  0  0  0  0  0  0  0  0  0  0  0
   34.8805  -44.7053   11.2102 C   0  0  0  0  0  0  0  0  0  0  0  0
  8  9  2  0  0  0
  8 13  1  0  0  0
  3  9  1  0  0  0
  9 10  1  0  0  0
 10 11  2  0  0  0
 12 11  1  0  0  0
 13 12  2  0  0  0
  4  3  2  0  0  0
  3  7  1  0  0  0
  5  4  1  0  0  0
  5  6  2  0  0  0
  6  1  1  0  0  0
  6  7  1  0  0  0
 14  1  1  0  0  0
  1  2  2  0  0  0
 15 14  1  0  0  0
 16 15  1  0  0  0
 17 16  1  0  0  0
 17 18  1  0  0  0
 19 18  1  0  0  0
 19 20  1  0  0  0
 21 20  2  0  0  0
 20 25  1  0  0  0
 21 22  1  0  0  0
 22 23  2  0  0  0
 23 24  1  0  0  0
 25 24  2  0  0  0
M  END
> <minimizedAffinity>
-8.63075

$$$$
3PPM_JG1_A_600


 25 27  0  0  0  0  0  0  0  0999 V2000
   39.9096  -40.8118    6.9373 C   0  0  0  0  0  0  0  0  0  0  0  0
   40.4745  -39.7343    7.1493 O   0  0  0  0  0  0  0  0  0  0  0  0
   36.4287  -41.6092    7.2861 C   0  0  0  0  0  0  0  0  0  0  0  0
   36.3837  -40.3096    6.9463 N   0  0  0  0  0  0  0  0  0  0  0  0
   37.5382  -39.8641    6.7945 N   0  0  0  0  0  0  0  0  0  0  0  0
   38.3960  -40.8706    6.9646 C   0  0  0  0  0  0  0  0  0  0  0  0
   37.7269  -41.9960    7.3366 O   0  0  0  0  0  0  0  0  0  0  0  0
   34.2163  -42.1091    8.0407 N   0  0  0  0  0  0  0  0  0  0  0  0
   35.4111  -42.5212    7.5740 C   0  0  0  0  0  0  0  0  0  0  0  0
   35.6575  -43.8812    7.3943 C   0  0  0  0  0  0  0  0  0  0  0  0
   34.6348  -44.7882    7.6798 C   0  0  0  0  0  0  0  0  0  0  0  0
   33.3995  -44.3240    8.1438 C   0  0  0  0  0  0  0  0  0  0  0  0
   33.2298  -42.9516    8.3121 C   0  0  0  0  0  0  0  0  0  0  0  0
   40.7033  -42.0926    6.6331 C   0  0  0  0  0  0  0  0  0  0  0  0
   42.0046  -42.2021    7.4182 C   0  0  0  0  0  0  0  0  0  0  0  0
   43.1857  -42.2698    6.4418 C   0  0  0  0  0  0  0  0  0  0  0  0
   43.1418  -43.5332    5.5811 C   0  0  0  0  0  0  0  0  0  0  0  0
   44.3776  -44.4184    5.6820 C   0  0  0  0  0  0  0  0  0  0  0  0
   45.1816  -43.9956    6.9154 C   0  0  0  0  0  0  0  0  0  0  0  0
   45.2096  -45.0903    7.9866 C   0  0  0  0  0  0  0  0  0  0  0  0
   45.3382  -44.7368    9.3256 C   0  0  0  0  0  0  0  0  0  0  0  0
   45.3610  -45.7190   10.3118 C   0  0  0  0  0  0  0  0  0  0  0  0
   45.2683  -47.0606    9.9590 C   0  0  0  0  0  0  0  0  0  0  0  0
   45.1492  -47.4143    8.6202 C   0  0  0  0  0  0  0  0  0  0  0  0
   45.1161  -46.4300    7.6352 C   0  0  0  0  0  0  0  0  0  0  0  0
  8  9  2  0  0  0
  8 13  1  0  0  0
  3  9  1  0  0  0
  9 10  1  0  0  0
 10 11  2  0  0  0
 12 11  1  0  0  0
 13 12  2  0  0  0
  4  3  2  0  0  0
  3  7  1  0  0  0
  5  4  1  0  0  0
  5  6  2  0  0  0
  6  1  1  0  0  0
  6  7  1  0  0  0
 14  1  1  0  0  0
  1  2  2  0  0  0
 15 14  1  0  0  0
 16 15  1  0  0  0
 17 16  1  0  0  0
 17 18  1  0  0  0
 19 18  1  0  0  0
 19 20  1  0  0  0
 21 20  2  0  0  0
 20 25  1  0  0  0
 21 22  1  0  0  0
 22 23  2  0  0  0
 23 24  1  0  0  0
 25 24  2  0  0  0
M  END
> <minimizedAffinity>
-8.58734

$$$$
3PPM_JG1_A_600


 25 27  0  0  0  0  0  0  0  0999 V2000
   45.2331  -45.7014   10.3600 C   0  0  0  0  0  0  0  0  0  0  0  0
   45.7019  -45.2836   11.4233 O   0  0  0  0  0  0  0  0  0  0  0  0
   44.1673  -43.2745    7.9417 C   0  0  0  0  0  0  0  0  0  0  0  0
   45.4413  -43.4931    7.5736 N   0  0  0  0  0  0  0  0  0  0  0  0
   45.9733  -44.3235    8.3362 N   0  0  0  0  0  0  0  0  0  0  0  0
   45.0504  -44.7391    9.2042 C   0  0  0  0  0  0  0  0  0  0  0  0
   43.8922  -44.0485    9.0199 O   0  0  0  0  0  0  0  0  0  0  0  0
   41.9920  -42.2863    8.0161 N   0  0  0  0  0  0  0  0  0  0  0  0
   43.1886  -42.4297    7.4138 C   0  0  0  0  0  0  0  0  0  0  0  0
   43.4583  -41.7475    6.2287 C   0  0  0  0  0  0  0  0  0  0  0  0
   42.4774  -40.9009    5.7078 C   0  0  0  0  0  0  0  0  0  0  0  0
   41.2534  -40.7602    6.3702 C   0  0  0  0  0  0  0  0  0  0  0  0
   41.0493  -41.4838    7.5430 C   0  0  0  0  0  0  0  0  0  0  0  0
   44.8423  -47.1766   10.1750 C   0  0  0  0  0  0  0  0  0  0  0  0
   45.7908  -47.9470    9.2648 C   0  0  0  0  0  0  0  0  0  0  0  0
   45.0538  -48.3462    7.9802 C   0  0  0  0  0  0  0  0  0  0  0  0
   46.0245  -48.6849    6.8480 C   0  0  0  0  0  0  0  0  0  0  0  0
   45.7497  -47.9650    5.5338 C   0  0  0  0  0  0  0  0  0  0  0  0
   44.8151  -46.7833    5.8106 C   0  0  0  0  0  0  0  0  0  0  0  0
   44.6181  -45.9036    4.5720 C   0  0  0  0  0  0  0  0  0  0  0  0
   45.2616  -44.6730    4.4950 C   0  0  0  0  0  0  0  0  0  0  0  0
   45.0966  -43.8635    3.3747 C   0  0  0  0  0  0  0  0  0  0  0  0
   44.2752  -44.2780    2.3324 C   0  0  0  0  0  0  0  0  0  0  0  0
   43.6247  -45.5036    2.4135 C   0  0  0  0  0  0  0  0  0  0  0  0
   43.7989  -46.3173    3.5305 C   0  0  0  0  0  0  0  0  0  0  0  0
  8  9  2  0  0  0
  8 13  1  0  0  0
  3  9  1  0  0  0
  9 10  1  0  0  0
 10 11  2  0  0  0
 12 11  1  0  0  0
 13 12  2  0  0  0
  4  3  2  0  0  0
  3  7  1  0  0  0
  5  4  1  0  0  0
  5  6  2  0  0  0
  6  1  1  0  0  0
  6  7  1  0  0  0
 14  1  1  0  0  0
  1  2  2  0  0  0
 15 14  1  0  0  0
 16 15  1  0  0  0
 17 16  1  0  0  0
 17 18  1  0  0  0
 19 18  1  0  0  0
 19 20  1  0  0  0
 21 20  2  0  0  0
 20 25  1  0  0  0
 21 22  1  0  0  0
 22 23  2  0  0  0
 23 24  1  0  0  0
 25 24  2  0  0  0
M  END
> <minimizedAffinity>
-8.55579

$$$$
