5EVZ_ADP_A_503


 34 36  0  0  0  0  0  0  0  0999 V2000
   18.4579   -4.5225    5.2577 C   0  0  0  0  0  0  0  0  0  0  0  0
   17.4685   -5.4162    4.7556 O   0  0  0  0  0  0  0  0  0  0  0  0
   19.1468   -5.2012    6.4359 C   0  0  0  0  0  0  0  0  0  0  0  0
   18.7782   -4.5979    7.6679 O   0  0  0  0  0  0  0  0  0  0  0  0
   18.6512   -6.6311    6.3891 C   0  0  0  0  0  0  0  0  0  0  0  0
   18.6301   -7.1946    7.7172 O   0  0  0  0  0  0  0  0  0  0  0  0
   17.2796   -6.3871    5.7703 C   0  0  0  0  0  0  0  0  0  0  0  0
   17.8151   -4.6421    7.7742 H   0  0  0  0  0  0  0  0  0  0  0  0
   18.1161   -6.6188    8.3046 H   0  0  0  0  0  0  0  0  0  0  0  0
   16.6891   -7.6119    5.2124 N   0  0  0  0  0  0  0  0  0  0  0  0
   17.1719   -8.3399    4.2040 C   0  0  0  0  0  0  0  0  0  0  0  0
   16.3719   -9.4174    3.9969 N   0  0  0  0  0  0  0  0  0  0  0  0
   15.3554   -9.3447    4.8819 C   0  0  0  0  0  0  0  0  0  0  0  0
   14.1801  -10.1592    5.1991 C   0  0  0  0  0  0  0  0  0  0  0  0
   13.9712  -11.2755    4.4567 N   0  0  0  0  0  0  0  0  0  0  0  0
   13.3676   -9.7432    6.2019 N   0  0  0  0  0  0  0  0  0  0  0  0
   13.6100   -8.6217    6.9160 C   0  0  0  0  0  0  0  0  0  0  0  0
   14.6864   -7.8329    6.6768 N   0  0  0  0  0  0  0  0  0  0  0  0
   15.5691   -8.1458    5.6926 C   0  0  0  0  0  0  0  0  0  0  0  0
   14.6043  -11.5174    3.7426 H   0  0  0  0  0  0  0  0  0  0  0  0
   13.1864  -11.8436    4.6321 H   0  0  0  0  0  0  0  0  0  0  0  0
   19.4293   -4.2219    4.1274 C   0  0  0  0  0  0  0  0  0  0  0  0
   19.7646   -2.8239    4.1276 O   0  0  0  0  0  0  0  0  0  0  0  0
   19.5943   -1.9617    2.7742 P   0  0  0  0  0  0  0  0  0  0  0  0
   18.3953   -2.5407    2.1247 O   0  0  0  0  0  0  0  0  0  0  0  0
   20.9082   -1.8699    2.0511 O   0  0  0  0  0  0  0  0  0  0  0  0
   20.7952   -1.3502    1.2399 H   0  0  0  0  0  0  0  0  0  0  0  0
   19.2973   -0.4958    3.3505 O   0  0  0  0  0  0  0  0  0  0  0  0
   20.3223    0.7250    3.6924 P   0  0  0  0  0  0  0  0  0  0  0  0
   21.6846    0.3066    3.2592 O   0  0  0  0  0  0  0  0  0  0  0  0
   20.0778    0.8728    5.1881 O   0  0  0  0  0  0  0  0  0  0  0  0
   19.7449    1.8801    2.9100 O   0  0  0  0  0  0  0  0  0  0  0  0
   20.6367    1.5841    5.5384 H   0  0  0  0  0  0  0  0  0  0  0  0
   20.2915    2.6694    3.0480 H   0  0  0  0  0  0  0  0  0  0  0  0
 29 30  2  0  0  0
 29 31  1  0  0  0
 29 32  1  0  0  0
 29 28  1  0  0  0
 24 25  2  0  0  0
 24 26  1  0  0  0
 24 28  1  0  0  0
 24 23  1  0  0  0
 23 22  1  0  0  0
 22  1  1  0  0  0
  1  2  1  0  0  0
  1  3  1  0  0  0
  2  7  1  0  0  0
  3  4  1  0  0  0
  3  5  1  0  0  0
  5  6  1  0  0  0
  5  7  1  0  0  0
  7 10  1  0  0  0
 10 11  1  0  0  0
 10 19  1  0  0  0
 11 12  2  0  0  0
 12 13  1  0  0  0
 13 14  1  0  0  0
 13 19  2  0  0  0
 14 15  1  0  0  0
 14 16  2  0  0  0
 16 17  1  0  0  0
 17 18  2  0  0  0
 18 19  1  0  0  0
 31 33  1  0  0  0
 32 34  1  0  0  0
 26 27  1  0  0  0
  4  8  1  0  0  0
  6  9  1  0  0  0
 15 20  1  0  0  0
 15 21  1  0  0  0
M  END
> <minimizedAffinity>
-11.24219

$$$$
5EVZ_ADP_A_503


 34 36  0  0  0  0  0  0  0  0999 V2000
   18.1101   -4.5796    5.1424 C   0  0  0  0  0  0  0  0  0  0  0  0
   17.1563   -5.5268    4.6703 O   0  0  0  0  0  0  0  0  0  0  0  0
   18.8801   -5.2231    6.2898 C   0  0  0  0  0  0  0  0  0  0  0  0
   18.5228   -4.6486    7.5388 O   0  0  0  0  0  0  0  0  0  0  0  0
   18.4668   -6.6792    6.2507 C   0  0  0  0  0  0  0  0  0  0  0  0
   18.5274   -7.2498    7.5745 O   0  0  0  0  0  0  0  0  0  0  0  0
   17.0615   -6.5122    5.6841 C   0  0  0  0  0  0  0  0  0  0  0  0
   17.5684   -4.7494    7.6798 H   0  0  0  0  0  0  0  0  0  0  0  0
   18.0028   -6.7078    8.1845 H   0  0  0  0  0  0  0  0  0  0  0  0
   16.5228   -7.7664    5.1392 N   0  0  0  0  0  0  0  0  0  0  0  0
   17.0235   -8.4726    4.1241 C   0  0  0  0  0  0  0  0  0  0  0  0
   16.2744   -9.5890    3.9333 N   0  0  0  0  0  0  0  0  0  0  0  0
   15.2711   -9.5641    4.8358 C   0  0  0  0  0  0  0  0  0  0  0  0
   14.1434  -10.4350    5.1753 C   0  0  0  0  0  0  0  0  0  0  0  0
   13.9772  -11.5624    4.4391 N   0  0  0  0  0  0  0  0  0  0  0  0
   13.3288  -10.0567    6.1913 N   0  0  0  0  0  0  0  0  0  0  0  0
   13.5277   -8.9225    6.8988 C   0  0  0  0  0  0  0  0  0  0  0  0
   14.5593   -8.0820    6.6390 N   0  0  0  0  0  0  0  0  0  0  0  0
   15.4392   -8.3538    5.6402 C   0  0  0  0  0  0  0  0  0  0  0  0
   14.6089  -11.7748    3.7145 H   0  0  0  0  0  0  0  0  0  0  0  0
   13.2247  -12.1681    4.6294 H   0  0  0  0  0  0  0  0  0  0  0  0
   19.0201   -4.2171    3.9797 C   0  0  0  0  0  0  0  0  0  0  0  0
   18.4125   -3.1853    3.1843 O   0  0  0  0  0  0  0  0  0  0  0  0
   19.3002   -1.9325    2.6880 P   0  0  0  0  0  0  0  0  0  0  0  0
   20.2431   -1.6920    3.8050 O   0  0  0  0  0  0  0  0  0  0  0  0
   18.4082   -0.8406    2.1683 O   0  0  0  0  0  0  0  0  0  0  0  0
   18.9509   -0.0930    1.8728 H   0  0  0  0  0  0  0  0  0  0  0  0
   20.0504   -2.5436    1.4101 O   0  0  0  0  0  0  0  0  0  0  0  0
   20.1434   -1.9852   -0.1187 P   0  0  0  0  0  0  0  0  0  0  0  0
   18.7666   -1.9908   -0.6870 O   0  0  0  0  0  0  0  0  0  0  0  0
   21.1471   -2.9686   -0.7054 O   0  0  0  0  0  0  0  0  0  0  0  0
   20.7402   -0.6097    0.0597 O   0  0  0  0  0  0  0  0  0  0  0  0
   21.3044   -2.7525   -1.6378 H   0  0  0  0  0  0  0  0  0  0  0  0
   20.8386   -0.1851   -0.8068 H   0  0  0  0  0  0  0  0  0  0  0  0
 29 30  2  0  0  0
 29 31  1  0  0  0
 29 32  1  0  0  0
 29 28  1  0  0  0
 24 25  2  0  0  0
 24 26  1  0  0  0
 24 28  1  0  0  0
 24 23  1  0  0  0
 23 22  1  0  0  0
 22  1  1  0  0  0
  1  2  1  0  0  0
  1  3  1  0  0  0
  2  7  1  0  0  0
  3  4  1  0  0  0
  3  5  1  0  0  0
  5  6  1  0  0  0
  5  7  1  0  0  0
  7 10  1  0  0  0
 10 11  1  0  0  0
 10 19  1  0  0  0
 11 12  2  0  0  0
 12 13  1  0  0  0
 13 14  1  0  0  0
 13 19  2  0  0  0
 14 15  1  0  0  0
 14 16  2  0  0  0
 16 17  1  0  0  0
 17 18  2  0  0  0
 18 19  1  0  0  0
 31 33  1  0  0  0
 32 34  1  0  0  0
 26 27  1  0  0  0
  4  8  1  0  0  0
  6  9  1  0  0  0
 15 20  1  0  0  0
 15 21  1  0  0  0
M  END
> <minimizedAffinity>
-10.47610

$$$$
5EVZ_ADP_A_503


 34 36  0  0  0  0  0  0  0  0999 V2000
   18.1617   -4.6934    4.3198 C   0  0  0  0  0  0  0  0  0  0  0  0
   18.6092   -5.9119    3.7326 O   0  0  0  0  0  0  0  0  0  0  0  0
   18.1649   -4.8745    5.8333 C   0  0  0  0  0  0  0  0  0  0  0  0
   16.8431   -4.9566    6.3470 O   0  0  0  0  0  0  0  0  0  0  0  0
   18.8902   -6.1851    6.0541 C   0  0  0  0  0  0  0  0  0  0  0  0
   18.4103   -6.8236    7.2557 O   0  0  0  0  0  0  0  0  0  0  0  0
   18.5120   -6.8878    4.7553 C   0  0  0  0  0  0  0  0  0  0  0  0
   16.3770   -5.6945    5.9239 H   0  0  0  0  0  0  0  0  0  0  0  0
   17.4451   -6.9102    7.2125 H   0  0  0  0  0  0  0  0  0  0  0  0
   19.3837   -8.0343    4.4624 N   0  0  0  0  0  0  0  0  0  0  0  0
   20.6110   -8.2433    4.9418 C   0  0  0  0  0  0  0  0  0  0  0  0
   21.0865   -9.4264    4.4748 N   0  0  0  0  0  0  0  0  0  0  0  0
   20.1419   -9.9537    3.6678 C   0  0  0  0  0  0  0  0  0  0  0  0
   20.0060  -11.1743    2.8696 C   0  0  0  0  0  0  0  0  0  0  0  0
   21.0492  -12.0419    2.8669 N   0  0  0  0  0  0  0  0  0  0  0  0
   18.8567  -11.3564    2.1734 N   0  0  0  0  0  0  0  0  0  0  0  0
   17.8413  -10.4649    2.2005 C   0  0  0  0  0  0  0  0  0  0  0  0
   17.9036   -9.3228    2.9283 N   0  0  0  0  0  0  0  0  0  0  0  0
   19.0080   -9.0293    3.6631 C   0  0  0  0  0  0  0  0  0  0  0  0
   21.8547  -11.8448    3.3976 H   0  0  0  0  0  0  0  0  0  0  0  0
   21.0006  -12.8685    2.3344 H   0  0  0  0  0  0  0  0  0  0  0  0
   19.1084   -3.5890    3.8775 C   0  0  0  0  0  0  0  0  0  0  0  0
   18.5374   -2.8664    2.7736 O   0  0  0  0  0  0  0  0  0  0  0  0
   19.2632   -1.5305    2.2326 P   0  0  0  0  0  0  0  0  0  0  0  0
   18.2034   -0.8240    1.4760 O   0  0  0  0  0  0  0  0  0  0  0  0
   20.5790   -1.8788    1.5962 O   0  0  0  0  0  0  0  0  0  0  0  0
   21.0068   -1.0698    1.2746 H   0  0  0  0  0  0  0  0  0  0  0  0
   19.6145   -0.7683    3.5982 O   0  0  0  0  0  0  0  0  0  0  0  0
   20.3023    0.6901    3.8391 P   0  0  0  0  0  0  0  0  0  0  0  0
   20.2715    0.9686    5.3020 O   0  0  0  0  0  0  0  0  0  0  0  0
   19.4253    1.5542    2.9431 O   0  0  0  0  0  0  0  0  0  0  0  0
   21.6876    0.5090    3.2664 O   0  0  0  0  0  0  0  0  0  0  0  0
   19.7263    2.4753    2.9873 H   0  0  0  0  0  0  0  0  0  0  0  0
   22.1875    1.3347    3.3621 H   0  0  0  0  0  0  0  0  0  0  0  0
 29 30  2  0  0  0
 29 31  1  0  0  0
 29 32  1  0  0  0
 29 28  1  0  0  0
 24 25  2  0  0  0
 24 26  1  0  0  0
 24 28  1  0  0  0
 24 23  1  0  0  0
 23 22  1  0  0  0
 22  1  1  0  0  0
  1  2  1  0  0  0
  1  3  1  0  0  0
  2  7  1  0  0  0
  3  4  1  0  0  0
  3  5  1  0  0  0
  5  6  1  0  0  0
  5  7  1  0  0  0
  7 10  1  0  0  0
 10 11  1  0  0  0
 10 19  1  0  0  0
 11 12  2  0  0  0
 12 13  1  0  0  0
 13 14  1  0  0  0
 13 19  2  0  0  0
 14 15  1  0  0  0
 14 16  2  0  0  0
 16 17  1  0  0  0
 17 18  2  0  0  0
 18 19  1  0  0  0
 31 33  1  0  0  0
 32 34  1  0  0  0
 26 27  1  0  0  0
  4  8  1  0  0  0
  6  9  1  0  0  0
 15 20  1  0  0  0
 15 21  1  0  0  0
M  END
> <minimizedAffinity>
-10.31178

$$$$
5EVZ_ADP_A_503


 34 36  0  0  0  0  0  0  0  0999 V2000
   18.5365   -4.4176    5.4774 C   0  0  0  0  0  0  0  0  0  0  0  0
   17.3588   -5.1831    5.2395 O   0  0  0  0  0  0  0  0  0  0  0  0
   19.3535   -5.1356    6.5454 C   0  0  0  0  0  0  0  0  0  0  0  0
   19.3213   -4.4338    7.7799 O   0  0  0  0  0  0  0  0  0  0  0  0
   18.6767   -6.4817    6.6954 C   0  0  0  0  0  0  0  0  0  0  0  0
   18.8494   -6.9789    8.0388 O   0  0  0  0  0  0  0  0  0  0  0  0
   17.2526   -6.0730    6.3371 C   0  0  0  0  0  0  0  0  0  0  0  0
   18.4017   -4.3367    8.0728 H   0  0  0  0  0  0  0  0  0  0  0  0
   18.5430   -6.3114    8.6725 H   0  0  0  0  0  0  0  0  0  0  0  0
   16.4078   -7.2247    5.9908 N   0  0  0  0  0  0  0  0  0  0  0  0
   15.2335   -7.5431    6.5381 C   0  0  0  0  0  0  0  0  0  0  0  0
   14.7363   -8.6533    5.9347 N   0  0  0  0  0  0  0  0  0  0  0  0
   15.6336   -9.0475    5.0067 C   0  0  0  0  0  0  0  0  0  0  0  0
   15.7214  -10.1324    4.0265 C   0  0  0  0  0  0  0  0  0  0  0  0
   14.6978  -11.0219    3.9813 N   0  0  0  0  0  0  0  0  0  0  0  0
   16.8219  -10.1903    3.2362 N   0  0  0  0  0  0  0  0  0  0  0  0
   17.8221   -9.2849    3.3153 C   0  0  0  0  0  0  0  0  0  0  0  0
   17.7931   -8.2532    4.1943 N   0  0  0  0  0  0  0  0  0  0  0  0
   16.7431   -8.0947    5.0417 C   0  0  0  0  0  0  0  0  0  0  0  0
   13.9282  -10.9179    4.5864 H   0  0  0  0  0  0  0  0  0  0  0  0
   14.7248  -11.7713    3.3434 H   0  0  0  0  0  0  0  0  0  0  0  0
   19.2921   -4.3063    4.1629 C   0  0  0  0  0  0  0  0  0  0  0  0
   19.7327   -2.9525    3.9634 O   0  0  0  0  0  0  0  0  0  0  0  0
   19.3747   -2.1908    2.5866 P   0  0  0  0  0  0  0  0  0  0  0  0
   18.0556   -2.7432    2.1998 O   0  0  0  0  0  0  0  0  0  0  0  0
   20.5481   -2.2385    1.6493 O   0  0  0  0  0  0  0  0  0  0  0  0
   20.3229   -1.7784    0.8256 H   0  0  0  0  0  0  0  0  0  0  0  0
   19.2518   -0.6683    3.0726 O   0  0  0  0  0  0  0  0  0  0  0  0
   20.4066    0.3743    3.5597 P   0  0  0  0  0  0  0  0  0  0  0  0
   20.2668    0.5484    5.0323 O   0  0  0  0  0  0  0  0  0  0  0  0
   20.0787    1.5722    2.6787 O   0  0  0  0  0  0  0  0  0  0  0  0
   21.6823   -0.3094    3.1295 O   0  0  0  0  0  0  0  0  0  0  0  0
   20.7029    2.2910    2.8648 H   0  0  0  0  0  0  0  0  0  0  0  0
   22.4427    0.2394    3.3776 H   0  0  0  0  0  0  0  0  0  0  0  0
 29 30  2  0  0  0
 29 31  1  0  0  0
 29 32  1  0  0  0
 29 28  1  0  0  0
 24 25  2  0  0  0
 24 26  1  0  0  0
 24 28  1  0  0  0
 24 23  1  0  0  0
 23 22  1  0  0  0
 22  1  1  0  0  0
  1  2  1  0  0  0
  1  3  1  0  0  0
  2  7  1  0  0  0
  3  4  1  0  0  0
  3  5  1  0  0  0
  5  6  1  0  0  0
  5  7  1  0  0  0
  7 10  1  0  0  0
 10 11  1  0  0  0
 10 19  1  0  0  0
 11 12  2  0  0  0
 12 13  1  0  0  0
 13 14  1  0  0  0
 13 19  2  0  0  0
 14 15  1  0  0  0
 14 16  2  0  0  0
 16 17  1  0  0  0
 17 18  2  0  0  0
 18 19  1  0  0  0
 31 33  1  0  0  0
 32 34  1  0  0  0
 26 27  1  0  0  0
  4  8  1  0  0  0
  6  9  1  0  0  0
 15 20  1  0  0  0
 15 21  1  0  0  0
M  END
> <minimizedAffinity>
-9.87718

$$$$
5EVZ_ADP_A_503


 34 36  0  0  0  0  0  0  0  0999 V2000
   18.3492   -4.6880    5.3374 C   0  0  0  0  0  0  0  0  0  0  0  0
   17.0723   -5.3177    5.2825 O   0  0  0  0  0  0  0  0  0  0  0  0
   19.1988   -5.4408    6.3547 C   0  0  0  0  0  0  0  0  0  0  0  0
   19.3915   -4.6748    7.5354 O   0  0  0  0  0  0  0  0  0  0  0  0
   18.3957   -6.6854    6.6684 C   0  0  0  0  0  0  0  0  0  0  0  0
   18.6671   -7.1269    8.0150 O   0  0  0  0  0  0  0  0  0  0  0  0
   16.9951   -6.1279    6.4425 C   0  0  0  0  0  0  0  0  0  0  0  0
   18.5295   -4.4520    7.9205 H   0  0  0  0  0  0  0  0  0  0  0  0
   18.5150   -6.3942    8.6323 H   0  0  0  0  0  0  0  0  0  0  0  0
   15.9903   -7.1864    6.2694 N   0  0  0  0  0  0  0  0  0  0  0  0
   14.8461   -7.3149    6.9435 C   0  0  0  0  0  0  0  0  0  0  0  0
   14.1643   -8.3943    6.4809 N   0  0  0  0  0  0  0  0  0  0  0  0
   14.9130   -8.9633    5.5127 C   0  0  0  0  0  0  0  0  0  0  0  0
   14.7752  -10.1179    4.6220 C   0  0  0  0  0  0  0  0  0  0  0  0
   13.6543  -10.8729    4.7420 N   0  0  0  0  0  0  0  0  0  0  0  0
   15.7780  -10.3698    3.7446 N   0  0  0  0  0  0  0  0  0  0  0  0
   16.8811   -9.5937    3.6590 C   0  0  0  0  0  0  0  0  0  0  0  0
   17.0609   -8.5063    4.4485 N   0  0  0  0  0  0  0  0  0  0  0  0
   16.1254   -8.1572    5.3698 C   0  0  0  0  0  0  0  0  0  0  0  0
   12.9657  -10.6302    5.4024 H   0  0  0  0  0  0  0  0  0  0  0  0
   13.5296  -11.6634    4.1686 H   0  0  0  0  0  0  0  0  0  0  0  0
   18.9532   -4.7394    3.9432 C   0  0  0  0  0  0  0  0  0  0  0  0
   18.3173   -3.7668    3.0969 O   0  0  0  0  0  0  0  0  0  0  0  0
   19.1505   -2.4800    2.5930 P   0  0  0  0  0  0  0  0  0  0  0  0
   20.3699   -2.4863    3.4343 O   0  0  0  0  0  0  0  0  0  0  0  0
   18.2528   -1.2770    2.5256 O   0  0  0  0  0  0  0  0  0  0  0  0
   18.7627   -0.5097    2.2220 H   0  0  0  0  0  0  0  0  0  0  0  0
   19.4843   -2.8748    1.0758 O   0  0  0  0  0  0  0  0  0  0  0  0
   20.0662   -1.9612   -0.1426 P   0  0  0  0  0  0  0  0  0  0  0  0
   20.4491   -0.6390    0.4263 O   0  0  0  0  0  0  0  0  0  0  0  0
   18.8803   -1.9959   -1.0971 O   0  0  0  0  0  0  0  0  0  0  0  0
   21.2263   -2.7807   -0.6550 O   0  0  0  0  0  0  0  0  0  0  0  0
   19.0888   -1.4788   -1.8909 H   0  0  0  0  0  0  0  0  0  0  0  0
   21.6484   -2.3164   -1.3947 H   0  0  0  0  0  0  0  0  0  0  0  0
 29 30  2  0  0  0
 29 31  1  0  0  0
 29 32  1  0  0  0
 29 28  1  0  0  0
 24 25  2  0  0  0
 24 26  1  0  0  0
 24 28  1  0  0  0
 24 23  1  0  0  0
 23 22  1  0  0  0
 22  1  1  0  0  0
  1  2  1  0  0  0
  1  3  1  0  0  0
  2  7  1  0  0  0
  3  4  1  0  0  0
  3  5  1  0  0  0
  5  6  1  0  0  0
  5  7  1  0  0  0
  7 10  1  0  0  0
 10 11  1  0  0  0
 10 19  1  0  0  0
 11 12  2  0  0  0
 12 13  1  0  0  0
 13 14  1  0  0  0
 13 19  2  0  0  0
 14 15  1  0  0  0
 14 16  2  0  0  0
 16 17  1  0  0  0
 17 18  2  0  0  0
 18 19  1  0  0  0
 31 33  1  0  0  0
 32 34  1  0  0  0
 26 27  1  0  0  0
  4  8  1  0  0  0
  6  9  1  0  0  0
 15 20  1  0  0  0
 15 21  1  0  0  0
M  END
> <minimizedAffinity>
-9.68039

$$$$
5EVZ_ADP_A_503


 34 36  0  0  0  0  0  0  0  0999 V2000
   19.2183   -4.6518    4.2343 C   0  0  0  0  0  0  0  0  0  0  0  0
   18.3527   -5.1445    5.2530 O   0  0  0  0  0  0  0  0  0  0  0  0
   19.1973   -5.6475    3.0803 C   0  0  0  0  0  0  0  0  0  0  0  0
   20.4202   -6.3649    2.9940 O   0  0  0  0  0  0  0  0  0  0  0  0
   18.0637   -6.5924    3.4191 C   0  0  0  0  0  0  0  0  0  0  0  0
   18.3240   -7.9001    2.8679 O   0  0  0  0  0  0  0  0  0  0  0  0
   18.1307   -6.5085    4.9396 C   0  0  0  0  0  0  0  0  0  0  0  0
   20.5834   -6.8276    3.8307 H   0  0  0  0  0  0  0  0  0  0  0  0
   19.1949   -8.2082    3.1635 H   0  0  0  0  0  0  0  0  0  0  0  0
   16.9025   -6.9950    5.5838 N   0  0  0  0  0  0  0  0  0  0  0  0
   16.2371   -6.4030    6.5771 C   0  0  0  0  0  0  0  0  0  0  0  0
   15.1326   -7.1316    6.8825 N   0  0  0  0  0  0  0  0  0  0  0  0
   15.1241   -8.2138    6.0760 C   0  0  0  0  0  0  0  0  0  0  0  0
   14.2445   -9.3682    5.8784 C   0  0  0  0  0  0  0  0  0  0  0  0
   13.1493   -9.4662    6.6733 N   0  0  0  0  0  0  0  0  0  0  0  0
   14.5835  -10.2729    4.9268 N   0  0  0  0  0  0  0  0  0  0  0  0
   15.6864  -10.1397    4.1572 C   0  0  0  0  0  0  0  0  0  0  0  0
   16.5328   -9.0884    4.2856 N   0  0  0  0  0  0  0  0  0  0  0  0
   16.2992   -8.1203    5.2097 C   0  0  0  0  0  0  0  0  0  0  0  0
   12.9647   -8.7704    7.3449 H   0  0  0  0  0  0  0  0  0  0  0  0
   12.5393  -10.2331    6.5786 H   0  0  0  0  0  0  0  0  0  0  0  0
   18.7086   -3.2827    3.8131 C   0  0  0  0  0  0  0  0  0  0  0  0
   19.0542   -3.0315    2.4405 O   0  0  0  0  0  0  0  0  0  0  0  0
   19.3863   -1.5262    1.9632 P   0  0  0  0  0  0  0  0  0  0  0  0
   18.1437   -1.0765    1.2936 O   0  0  0  0  0  0  0  0  0  0  0  0
   20.7126   -1.4884    1.2580 O   0  0  0  0  0  0  0  0  0  0  0  0
   20.9027   -0.5802    0.9754 H   0  0  0  0  0  0  0  0  0  0  0  0
   19.6019   -0.7749    3.3625 O   0  0  0  0  0  0  0  0  0  0  0  0
   20.2487    0.6875    3.6798 P   0  0  0  0  0  0  0  0  0  0  0  0
   19.4682    1.7022    2.9182 O   0  0  0  0  0  0  0  0  0  0  0  0
   21.6893    0.4453    3.2501 O   0  0  0  0  0  0  0  0  0  0  0  0
   20.1186    0.7962    5.1801 O   0  0  0  0  0  0  0  0  0  0  0  0
   22.2077    1.2538    3.3863 H   0  0  0  0  0  0  0  0  0  0  0  0
   20.4811    1.6461    5.4754 H   0  0  0  0  0  0  0  0  0  0  0  0
 29 30  2  0  0  0
 29 31  1  0  0  0
 29 32  1  0  0  0
 29 28  1  0  0  0
 24 25  2  0  0  0
 24 26  1  0  0  0
 24 28  1  0  0  0
 24 23  1  0  0  0
 23 22  1  0  0  0
 22  1  1  0  0  0
  1  2  1  0  0  0
  1  3  1  0  0  0
  2  7  1  0  0  0
  3  4  1  0  0  0
  3  5  1  0  0  0
  5  6  1  0  0  0
  5  7  1  0  0  0
  7 10  1  0  0  0
 10 11  1  0  0  0
 10 19  1  0  0  0
 11 12  2  0  0  0
 12 13  1  0  0  0
 13 14  1  0  0  0
 13 19  2  0  0  0
 14 15  1  0  0  0
 14 16  2  0  0  0
 16 17  1  0  0  0
 17 18  2  0  0  0
 18 19  1  0  0  0
 31 33  1  0  0  0
 32 34  1  0  0  0
 26 27  1  0  0  0
  4  8  1  0  0  0
  6  9  1  0  0  0
 15 20  1  0  0  0
 15 21  1  0  0  0
M  END
> <minimizedAffinity>
-9.59965

$$$$
5EVZ_ADP_A_503


 34 36  0  0  0  0  0  0  0  0999 V2000
   17.9258   -5.4300    4.9547 C   0  0  0  0  0  0  0  0  0  0  0  0
   18.1086   -6.3966    3.9241 O   0  0  0  0  0  0  0  0  0  0  0  0
   17.5941   -6.1757    6.2421 C   0  0  0  0  0  0  0  0  0  0  0  0
   16.2321   -6.0000    6.6052 O   0  0  0  0  0  0  0  0  0  0  0  0
   17.8607   -7.6296    5.9144 C   0  0  0  0  0  0  0  0  0  0  0  0
   17.0028   -8.4828    6.7005 O   0  0  0  0  0  0  0  0  0  0  0  0
   17.5477   -7.5985    4.4229 C   0  0  0  0  0  0  0  0  0  0  0  0
   15.6625   -6.3103    5.8839 H   0  0  0  0  0  0  0  0  0  0  0  0
   16.0789   -8.2144    6.5769 H   0  0  0  0  0  0  0  0  0  0  0  0
   18.0949   -8.7611    3.7096 N   0  0  0  0  0  0  0  0  0  0  0  0
   17.4669   -9.5003    2.7935 C   0  0  0  0  0  0  0  0  0  0  0  0
   18.3054  -10.4643    2.3338 N   0  0  0  0  0  0  0  0  0  0  0  0
   19.4742  -10.3358    2.9966 C   0  0  0  0  0  0  0  0  0  0  0  0
   20.7674  -11.0235    2.9861 C   0  0  0  0  0  0  0  0  0  0  0  0
   20.9114  -12.0769    2.1431 N   0  0  0  0  0  0  0  0  0  0  0  0
   21.7340  -10.5770    3.8258 N   0  0  0  0  0  0  0  0  0  0  0  0
   21.5488   -9.5247    4.6533 C   0  0  0  0  0  0  0  0  0  0  0  0
   20.3786   -8.8416    4.7007 N   0  0  0  0  0  0  0  0  0  0  0  0
   19.3349   -9.2004    3.9085 C   0  0  0  0  0  0  0  0  0  0  0  0
   20.1652  -12.3463    1.5601 H   0  0  0  0  0  0  0  0  0  0  0  0
   21.7619  -12.5718    2.1145 H   0  0  0  0  0  0  0  0  0  0  0  0
   19.2134   -4.6308    5.0763 C   0  0  0  0  0  0  0  0  0  0  0  0
   19.0570   -3.3495    4.4436 O   0  0  0  0  0  0  0  0  0  0  0  0
   19.3832   -3.1900    2.8713 P   0  0  0  0  0  0  0  0  0  0  0  0
   18.1556   -2.5825    2.3068 O   0  0  0  0  0  0  0  0  0  0  0  0
   19.9423   -4.4739    2.3267 O   0  0  0  0  0  0  0  0  0  0  0  0
   20.1349   -4.3677    1.3819 H   0  0  0  0  0  0  0  0  0  0  0  0
   20.5983   -2.1448    2.8894 O   0  0  0  0  0  0  0  0  0  0  0  0
   20.6102   -0.5439    2.5817 P   0  0  0  0  0  0  0  0  0  0  0  0
   21.8776    0.0130    3.1314 O   0  0  0  0  0  0  0  0  0  0  0  0
   19.3111   -0.1285    3.2587 O   0  0  0  0  0  0  0  0  0  0  0  0
   20.5043   -0.4884    1.0765 O   0  0  0  0  0  0  0  0  0  0  0  0
   19.1829    0.8272    3.1536 H   0  0  0  0  0  0  0  0  0  0  0  0
   20.5032    0.4372    0.7864 H   0  0  0  0  0  0  0  0  0  0  0  0
 29 30  2  0  0  0
 29 31  1  0  0  0
 29 32  1  0  0  0
 29 28  1  0  0  0
 24 25  2  0  0  0
 24 26  1  0  0  0
 24 28  1  0  0  0
 24 23  1  0  0  0
 23 22  1  0  0  0
 22  1  1  0  0  0
  1  2  1  0  0  0
  1  3  1  0  0  0
  2  7  1  0  0  0
  3  4  1  0  0  0
  3  5  1  0  0  0
  5  6  1  0  0  0
  5  7  1  0  0  0
  7 10  1  0  0  0
 10 11  1  0  0  0
 10 19  1  0  0  0
 11 12  2  0  0  0
 12 13  1  0  0  0
 13 14  1  0  0  0
 13 19  2  0  0  0
 14 15  1  0  0  0
 14 16  2  0  0  0
 16 17  1  0  0  0
 17 18  2  0  0  0
 18 19  1  0  0  0
 31 33  1  0  0  0
 32 34  1  0  0  0
 26 27  1  0  0  0
  4  8  1  0  0  0
  6  9  1  0  0  0
 15 20  1  0  0  0
 15 21  1  0  0  0
M  END
> <minimizedAffinity>
-9.30968

$$$$
5EVZ_ADP_A_503


 34 36  0  0  0  0  0  0  0  0999 V2000
   18.0725   -4.5768    4.7072 C   0  0  0  0  0  0  0  0  0  0  0  0
   17.9078   -5.6893    3.8325 O   0  0  0  0  0  0  0  0  0  0  0  0
   18.3393   -5.1177    6.1071 C   0  0  0  0  0  0  0  0  0  0  0  0
   17.2238   -4.9119    6.9622 O   0  0  0  0  0  0  0  0  0  0  0  0
   18.5689   -6.5999    5.9006 C   0  0  0  0  0  0  0  0  0  0  0  0
   18.1641   -7.3349    7.0744 O   0  0  0  0  0  0  0  0  0  0  0  0
   17.6883   -6.8082    4.6738 C   0  0  0  0  0  0  0  0  0  0  0  0
   16.4416   -5.3416    6.5822 H   0  0  0  0  0  0  0  0  0  0  0  0
   17.2488   -7.1059    7.2995 H   0  0  0  0  0  0  0  0  0  0  0  0
   17.9983   -8.0581    3.9654 N   0  0  0  0  0  0  0  0  0  0  0  0
   17.2007   -8.7113    3.1186 C   0  0  0  0  0  0  0  0  0  0  0  0
   17.8463   -9.8046    2.6371 N   0  0  0  0  0  0  0  0  0  0  0  0
   19.0649   -9.8445    3.2161 C   0  0  0  0  0  0  0  0  0  0  0  0
   20.2328  -10.7254    3.1432 C   0  0  0  0  0  0  0  0  0  0  0  0
   20.1530  -11.8075    2.3285 N   0  0  0  0  0  0  0  0  0  0  0  0
   21.3136  -10.4157    3.9013 N   0  0  0  0  0  0  0  0  0  0  0  0
   21.3516   -9.3286    4.7033 C   0  0  0  0  0  0  0  0  0  0  0  0
   20.3068   -8.4706    4.8050 N   0  0  0  0  0  0  0  0  0  0  0  0
   19.1668   -8.6805    4.0964 C   0  0  0  0  0  0  0  0  0  0  0  0
   19.3349  -11.9707    1.8057 H   0  0  0  0  0  0  0  0  0  0  0  0
   20.9131  -12.4295    2.2603 H   0  0  0  0  0  0  0  0  0  0  0  0
   19.2346   -3.7453    4.1880 C   0  0  0  0  0  0  0  0  0  0  0  0
   18.7441   -2.5240    3.6096 O   0  0  0  0  0  0  0  0  0  0  0  0
   19.7234   -1.6229    2.6969 P   0  0  0  0  0  0  0  0  0  0  0  0
   21.0520   -1.7722    3.3351 O   0  0  0  0  0  0  0  0  0  0  0  0
   19.1141   -0.2690    2.4662 O   0  0  0  0  0  0  0  0  0  0  0  0
   19.7099    0.2644    1.9171 H   0  0  0  0  0  0  0  0  0  0  0  0
   19.6610   -2.3874    1.2895 O   0  0  0  0  0  0  0  0  0  0  0  0
   19.9911   -1.8483   -0.2132 P   0  0  0  0  0  0  0  0  0  0  0  0
   18.7001   -1.7383   -0.9480 O   0  0  0  0  0  0  0  0  0  0  0  0
   20.9709   -2.9184   -0.6755 O   0  0  0  0  0  0  0  0  0  0  0  0
   20.6779   -0.5286    0.0446 O   0  0  0  0  0  0  0  0  0  0  0  0
   21.2608   -2.7222   -1.5801 H   0  0  0  0  0  0  0  0  0  0  0  0
   20.9194   -0.1192   -0.8010 H   0  0  0  0  0  0  0  0  0  0  0  0
 29 30  2  0  0  0
 29 31  1  0  0  0
 29 32  1  0  0  0
 29 28  1  0  0  0
 24 25  2  0  0  0
 24 26  1  0  0  0
 24 28  1  0  0  0
 24 23  1  0  0  0
 23 22  1  0  0  0
 22  1  1  0  0  0
  1  2  1  0  0  0
  1  3  1  0  0  0
  2  7  1  0  0  0
  3  4  1  0  0  0
  3  5  1  0  0  0
  5  6  1  0  0  0
  5  7  1  0  0  0
  7 10  1  0  0  0
 10 11  1  0  0  0
 10 19  1  0  0  0
 11 12  2  0  0  0
 12 13  1  0  0  0
 13 14  1  0  0  0
 13 19  2  0  0  0
 14 15  1  0  0  0
 14 16  2  0  0  0
 16 17  1  0  0  0
 17 18  2  0  0  0
 18 19  1  0  0  0
 31 33  1  0  0  0
 32 34  1  0  0  0
 26 27  1  0  0  0
  4  8  1  0  0  0
  6  9  1  0  0  0
 15 20  1  0  0  0
 15 21  1  0  0  0
M  END
> <minimizedAffinity>
-9.21449

$$$$
5EVZ_ADP_A_503


 34 36  0  0  0  0  0  0  0  0999 V2000
   18.9489   -1.1951    2.3303 C   0  0  0  0  0  0  0  0  0  0  0  0
   18.8642   -2.3501    3.1601 O   0  0  0  0  0  0  0  0  0  0  0  0
   19.5192   -1.6268    0.9842 C   0  0  0  0  0  0  0  0  0  0  0  0
   20.8501   -1.1608    0.8130 O   0  0  0  0  0  0  0  0  0  0  0  0
   19.5014   -3.1399    1.0357 C   0  0  0  0  0  0  0  0  0  0  0  0
   20.5652   -3.6784    0.2232 O   0  0  0  0  0  0  0  0  0  0  0  0
   19.6784   -3.3288    2.5379 C   0  0  0  0  0  0  0  0  0  0  0  0
   21.4055   -1.4968    1.5337 H   0  0  0  0  0  0  0  0  0  0  0  0
   21.4096   -3.2852    0.4941 H   0  0  0  0  0  0  0  0  0  0  0  0
   19.2997   -4.6773    2.9831 N   0  0  0  0  0  0  0  0  0  0  0  0
   19.0512   -5.7316    2.2042 C   0  0  0  0  0  0  0  0  0  0  0  0
   18.7681   -6.8116    2.9771 N   0  0  0  0  0  0  0  0  0  0  0  0
   18.8190   -6.4134    4.2657 C   0  0  0  0  0  0  0  0  0  0  0  0
   18.6292   -7.0529    5.5698 C   0  0  0  0  0  0  0  0  0  0  0  0
   18.2998   -8.3691    5.5814 N   0  0  0  0  0  0  0  0  0  0  0  0
   18.7796   -6.2912    6.6815 N   0  0  0  0  0  0  0  0  0  0  0  0
   19.1055   -4.9808    6.6263 C   0  0  0  0  0  0  0  0  0  0  0  0
   19.3045   -4.3361    5.4504 N   0  0  0  0  0  0  0  0  0  0  0  0
   19.1766   -4.9949    4.2692 C   0  0  0  0  0  0  0  0  0  0  0  0
   18.2074   -8.8609    4.7336 H   0  0  0  0  0  0  0  0  0  0  0  0
   18.1533   -8.8323    6.4377 H   0  0  0  0  0  0  0  0  0  0  0  0
   17.5497   -0.6159    2.1955 C   0  0  0  0  0  0  0  0  0  0  0  0
   17.6245    0.7484    1.7485 O   0  0  0  0  0  0  0  0  0  0  0  0
   17.7568    1.9375    2.8314 P   0  0  0  0  0  0  0  0  0  0  0  0
   18.5063    1.3243    3.9525 O   0  0  0  0  0  0  0  0  0  0  0  0
   16.4208    2.5902    3.0479 O   0  0  0  0  0  0  0  0  0  0  0  0
   16.5110    3.3028    3.6998 H   0  0  0  0  0  0  0  0  0  0  0  0
   18.6542    3.0058    2.0424 O   0  0  0  0  0  0  0  0  0  0  0  0
   20.2752    3.1598    1.9628 P   0  0  0  0  0  0  0  0  0  0  0  0
   20.6811    4.1908    2.9582 O   0  0  0  0  0  0  0  0  0  0  0  0
   20.4421    3.5053    0.4892 O   0  0  0  0  0  0  0  0  0  0  0  0
   20.7628    1.7650    2.2735 O   0  0  0  0  0  0  0  0  0  0  0  0
   21.3835    3.6290    0.2907 H   0  0  0  0  0  0  0  0  0  0  0  0
   21.7324    1.7490    2.2510 H   0  0  0  0  0  0  0  0  0  0  0  0
 29 30  2  0  0  0
 29 31  1  0  0  0
 29 32  1  0  0  0
 29 28  1  0  0  0
 24 25  2  0  0  0
 24 26  1  0  0  0
 24 28  1  0  0  0
 24 23  1  0  0  0
 23 22  1  0  0  0
 22  1  1  0  0  0
  1  2  1  0  0  0
  1  3  1  0  0  0
  2  7  1  0  0  0
  3  4  1  0  0  0
  3  5  1  0  0  0
  5  6  1  0  0  0
  5  7  1  0  0  0
  7 10  1  0  0  0
 10 11  1  0  0  0
 10 19  1  0  0  0
 11 12  2  0  0  0
 12 13  1  0  0  0
 13 14  1  0  0  0
 13 19  2  0  0  0
 14 15  1  0  0  0
 14 16  2  0  0  0
 16 17  1  0  0  0
 17 18  2  0  0  0
 18 19  1  0  0  0
 31 33  1  0  0  0
 32 34  1  0  0  0
 26 27  1  0  0  0
  4  8  1  0  0  0
  6  9  1  0  0  0
 15 20  1  0  0  0
 15 21  1  0  0  0
M  END
> <minimizedAffinity>
-9.01410

$$$$
5EVZ_ADP_A_503


 34 36  0  0  0  0  0  0  0  0999 V2000
   20.7168  -11.3383    3.1915 C   0  0  0  0  0  0  0  0  0  0  0  0
   20.5102  -10.2857    4.1292 O   0  0  0  0  0  0  0  0  0  0  0  0
   19.5982  -11.2707    2.1582 C   0  0  0  0  0  0  0  0  0  0  0  0
   18.6825  -12.3450    2.3165 O   0  0  0  0  0  0  0  0  0  0  0  0
   18.9065   -9.9532    2.4378 C   0  0  0  0  0  0  0  0  0  0  0  0
   17.5137  -10.0341    2.0698 O   0  0  0  0  0  0  0  0  0  0  0  0
   19.1732   -9.8579    3.9356 C   0  0  0  0  0  0  0  0  0  0  0  0
   18.3108  -12.3237    3.2122 H   0  0  0  0  0  0  0  0  0  0  0  0
   17.1059  -10.7947    2.5127 H   0  0  0  0  0  0  0  0  0  0  0  0
   18.9847   -8.4957    4.4542 N   0  0  0  0  0  0  0  0  0  0  0  0
   19.8666   -7.4959    4.4031 C   0  0  0  0  0  0  0  0  0  0  0  0
   19.3215   -6.3799    4.9520 N   0  0  0  0  0  0  0  0  0  0  0  0
   18.0804   -6.6999    5.3751 C   0  0  0  0  0  0  0  0  0  0  0  0
   16.9797   -5.9898    6.0305 C   0  0  0  0  0  0  0  0  0  0  0  0
   17.1737   -4.6842    6.3445 N   0  0  0  0  0  0  0  0  0  0  0  0
   15.8432   -6.6805    6.2954 N   0  0  0  0  0  0  0  0  0  0  0  0
   15.6912   -7.9831    5.9686 C   0  0  0  0  0  0  0  0  0  0  0  0
   16.6694   -8.6906    5.3517 N   0  0  0  0  0  0  0  0  0  0  0  0
   17.8555   -8.1061    5.0401 C   0  0  0  0  0  0  0  0  0  0  0  0
   18.0265   -4.2458    6.1216 H   0  0  0  0  0  0  0  0  0  0  0  0
   16.4616   -4.1753    6.7953 H   0  0  0  0  0  0  0  0  0  0  0  0
   22.0857  -11.1374    2.5613 C   0  0  0  0  0  0  0  0  0  0  0  0
   22.9471  -10.4346    3.4728 O   0  0  0  0  0  0  0  0  0  0  0  0
   24.3499  -11.0969    3.9173 P   0  0  0  0  0  0  0  0  0  0  0  0
   25.3517  -10.4429    3.0437 O   0  0  0  0  0  0  0  0  0  0  0  0
   24.2199  -12.5927    3.9752 O   0  0  0  0  0  0  0  0  0  0  0  0
   25.0676  -12.9808    4.2430 H   0  0  0  0  0  0  0  0  0  0  0  0
   24.4843  -10.6004    5.4354 O   0  0  0  0  0  0  0  0  0  0  0  0
   23.4731  -10.8005    6.6985 P   0  0  0  0  0  0  0  0  0  0  0  0
   23.2329  -12.2617    6.8585 O   0  0  0  0  0  0  0  0  0  0  0  0
   22.2993   -9.9436    6.2438 O   0  0  0  0  0  0  0  0  0  0  0  0
   24.2280  -10.1625    7.8399 O   0  0  0  0  0  0  0  0  0  0  0  0
   21.6010   -9.9686    6.9166 H   0  0  0  0  0  0  0  0  0  0  0  0
   23.7027  -10.2297    8.6526 H   0  0  0  0  0  0  0  0  0  0  0  0
 29 30  2  0  0  0
 29 31  1  0  0  0
 29 32  1  0  0  0
 29 28  1  0  0  0
 24 25  2  0  0  0
 24 26  1  0  0  0
 24 28  1  0  0  0
 24 23  1  0  0  0
 23 22  1  0  0  0
 22  1  1  0  0  0
  1  2  1  0  0  0
  1  3  1  0  0  0
  2  7  1  0  0  0
  3  4  1  0  0  0
  3  5  1  0  0  0
  5  6  1  0  0  0
  5  7  1  0  0  0
  7 10  1  0  0  0
 10 11  1  0  0  0
 10 19  1  0  0  0
 11 12  2  0  0  0
 12 13  1  0  0  0
 13 14  1  0  0  0
 13 19  2  0  0  0
 14 15  1  0  0  0
 14 16  2  0  0  0
 16 17  1  0  0  0
 17 18  2  0  0  0
 18 19  1  0  0  0
 31 33  1  0  0  0
 32 34  1  0  0  0
 26 27  1  0  0  0
  4  8  1  0  0  0
  6  9  1  0  0  0
 15 20  1  0  0  0
 15 21  1  0  0  0
M  END
> <minimizedAffinity>
-8.90330

$$$$
