4UMB_0V5_A_1353


 13 12  0  0  0  0  0  0  0  0999 V2000
   46.4339  -23.1988   -4.8731 O   0  0  0  0  0  0  0  0  0  0  0  0
   45.7982  -21.8213   -4.2782 P   0  0  0  0  0  0  0  0  0  0  0  0
   47.0922  -21.0143   -3.8196 O   0  0  0  0  0  0  0  0  0  0  0  0
   45.2345  -20.9947   -5.5345 O   0  0  0  0  0  0  0  0  0  0  0  0
   44.8978  -22.0464   -3.0941 O   0  0  0  0  0  0  0  0  0  0  0  0
   45.9229  -20.9314   -6.2150 H   0  0  0  0  0  0  0  0  0  0  0  0
   45.3724  -22.5568   -2.4194 H   0  0  0  0  0  0  0  0  0  0  0  0
   45.6682  -23.9906   -5.7976 C   0  0  0  0  0  0  0  0  0  0  0  0
   45.4706  -25.4050   -5.2410 C   0  0  0  0  0  0  0  0  0  0  0  0
   46.3972  -24.1774   -7.1133 C   0  0  0  0  0  0  0  0  0  0  0  0
   47.6008  -24.4929   -7.0039 O   0  0  0  0  0  0  0  0  0  0  0  0
   45.7757  -23.9890   -8.1811 O   0  0  0  0  0  0  0  0  0  0  0  0
   44.8689  -23.7540   -8.1602 H   0  0  0  0  0  0  0  0  0  0  0  0
 11 10  2  0  0  0
 12 10  1  0  0  0
 10  8  1  0  0  0
  8  9  1  0  0  0
  8  1  1  0  0  0
  3  2  2  0  0  0
  1  2  1  0  0  0
  2  4  1  0  0  0
  2  5  1  0  0  0
 12 13  1  0  0  0
  4  6  1  0  0  0
  5  7  1  0  0  0
M  END
> <minimizedAffinity>
-6.07946

$$$$
4UMB_0V5_A_1353


 13 12  0  0  0  0  0  0  0  0999 V2000
   46.3161  -23.3210   -5.2312 O   0  0  0  0  0  0  0  0  0  0  0  0
   46.5263  -24.4651   -6.3724 P   0  0  0  0  0  0  0  0  0  0  0  0
   48.1040  -24.6807   -6.3580 O   0  0  0  0  0  0  0  0  0  0  0  0
   45.9296  -25.8296   -5.7713 O   0  0  0  0  0  0  0  0  0  0  0  0
   46.0898  -24.0233   -7.7428 O   0  0  0  0  0  0  0  0  0  0  0  0
   46.2996  -25.9827   -4.8878 H   0  0  0  0  0  0  0  0  0  0  0  0
   46.5302  -23.1892   -7.9691 H   0  0  0  0  0  0  0  0  0  0  0  0
   45.3929  -22.2445   -5.4694 C   0  0  0  0  0  0  0  0  0  0  0  0
   46.1577  -20.9344   -5.6888 C   0  0  0  0  0  0  0  0  0  0  0  0
   44.5043  -21.9917   -4.2678 C   0  0  0  0  0  0  0  0  0  0  0  0
   43.3289  -21.6725   -4.5446 O   0  0  0  0  0  0  0  0  0  0  0  0
   44.9931  -22.0937   -3.1221 O   0  0  0  0  0  0  0  0  0  0  0  0
   45.8907  -22.3407   -3.0160 H   0  0  0  0  0  0  0  0  0  0  0  0
 11 10  2  0  0  0
 12 10  1  0  0  0
 10  8  1  0  0  0
  8  9  1  0  0  0
  8  1  1  0  0  0
  3  2  2  0  0  0
  1  2  1  0  0  0
  2  4  1  0  0  0
  2  5  1  0  0  0
 12 13  1  0  0  0
  4  6  1  0  0  0
  5  7  1  0  0  0
M  END
> <minimizedAffinity>
-6.07457

$$$$
4UMB_0V5_A_1353


 13 12  0  0  0  0  0  0  0  0999 V2000
   45.4578  -23.4745   -4.9537 O   0  0  0  0  0  0  0  0  0  0  0  0
   45.1380  -22.1437   -4.0693 P   0  0  0  0  0  0  0  0  0  0  0  0
   44.8176  -22.7527   -2.6333 O   0  0  0  0  0  0  0  0  0  0  0  0
   46.5339  -21.3734   -3.8759 O   0  0  0  0  0  0  0  0  0  0  0  0
   43.9462  -21.3725   -4.5678 O   0  0  0  0  0  0  0  0  0  0  0  0
   47.2040  -21.9953   -3.5516 H   0  0  0  0  0  0  0  0  0  0  0  0
   43.1817  -21.9659   -4.6337 H   0  0  0  0  0  0  0  0  0  0  0  0
   46.0219  -23.3321   -6.2688 C   0  0  0  0  0  0  0  0  0  0  0  0
   44.9041  -23.2422   -7.3137 C   0  0  0  0  0  0  0  0  0  0  0  0
   46.8399  -24.5459   -6.6624 C   0  0  0  0  0  0  0  0  0  0  0  0
   47.8948  -24.6989   -6.0114 O   0  0  0  0  0  0  0  0  0  0  0  0
   46.4320  -25.2744   -7.5924 O   0  0  0  0  0  0  0  0  0  0  0  0
   45.6232  -25.0766   -8.0222 H   0  0  0  0  0  0  0  0  0  0  0  0
 11 10  2  0  0  0
 12 10  1  0  0  0
 10  8  1  0  0  0
  8  9  1  0  0  0
  8  1  1  0  0  0
  3  2  2  0  0  0
  1  2  1  0  0  0
  2  4  1  0  0  0
  2  5  1  0  0  0
 12 13  1  0  0  0
  4  6  1  0  0  0
  5  7  1  0  0  0
M  END
> <minimizedAffinity>
-6.00322

$$$$
4UMB_0V5_A_1353


 13 12  0  0  0  0  0  0  0  0999 V2000
   46.4776  -22.7012   -6.1696 O   0  0  0  0  0  0  0  0  0  0  0  0
   45.6991  -24.0450   -6.6631 P   0  0  0  0  0  0  0  0  0  0  0  0
   44.2606  -23.8724   -6.0024 O   0  0  0  0  0  0  0  0  0  0  0  0
   45.4399  -23.8741   -8.2388 O   0  0  0  0  0  0  0  0  0  0  0  0
   46.3340  -25.3150   -6.1653 O   0  0  0  0  0  0  0  0  0  0  0  0
   45.0284  -23.0120   -8.4071 H   0  0  0  0  0  0  0  0  0  0  0  0
   46.4264  -25.2737   -5.2006 H   0  0  0  0  0  0  0  0  0  0  0  0
   45.7332  -21.6394   -5.5480 C   0  0  0  0  0  0  0  0  0  0  0  0
   46.2390  -20.2809   -6.0458 C   0  0  0  0  0  0  0  0  0  0  0  0
   45.9376  -21.6159   -4.0463 C   0  0  0  0  0  0  0  0  0  0  0  0
   47.0189  -21.1137   -3.6737 O   0  0  0  0  0  0  0  0  0  0  0  0
   45.0543  -22.1022   -3.3081 O   0  0  0  0  0  0  0  0  0  0  0  0
   44.2729  -22.4574   -3.6839 H   0  0  0  0  0  0  0  0  0  0  0  0
 11 10  2  0  0  0
 12 10  1  0  0  0
 10  8  1  0  0  0
  8  9  1  0  0  0
  8  1  1  0  0  0
  3  2  2  0  0  0
  1  2  1  0  0  0
  2  4  1  0  0  0
  2  5  1  0  0  0
 12 13  1  0  0  0
  4  6  1  0  0  0
  5  7  1  0  0  0
M  END
> <minimizedAffinity>
-5.76364

$$$$
4UMB_0V5_A_1353


 13 12  0  0  0  0  0  0  0  0999 V2000
   44.8647  -24.7377   -6.0063 O   0  0  0  0  0  0  0  0  0  0  0  0
   46.2044  -23.9846   -6.5481 P   0  0  0  0  0  0  0  0  0  0  0  0
   45.9275  -23.8711   -8.1121 O   0  0  0  0  0  0  0  0  0  0  0  0
   46.1282  -22.4711   -6.0165 O   0  0  0  0  0  0  0  0  0  0  0  0
   47.4639  -24.7737   -6.3145 O   0  0  0  0  0  0  0  0  0  0  0  0
   45.2626  -22.0936   -6.2384 H   0  0  0  0  0  0  0  0  0  0  0  0
   47.3623  -25.6630   -6.6882 H   0  0  0  0  0  0  0  0  0  0  0  0
   44.7678  -25.0987   -4.6176 C   0  0  0  0  0  0  0  0  0  0  0  0
   44.1745  -26.5052   -4.4799 C   0  0  0  0  0  0  0  0  0  0  0  0
   43.8164  -24.1885   -3.8668 C   0  0  0  0  0  0  0  0  0  0  0  0
   43.4752  -23.1609   -4.4894 O   0  0  0  0  0  0  0  0  0  0  0  0
   43.4661  -24.5027   -2.7090 O   0  0  0  0  0  0  0  0  0  0  0  0
   43.7769  -25.2991   -2.3254 H   0  0  0  0  0  0  0  0  0  0  0  0
 11 10  2  0  0  0
 12 10  1  0  0  0
 10  8  1  0  0  0
  8  9  1  0  0  0
  8  1  1  0  0  0
  3  2  2  0  0  0
  1  2  1  0  0  0
  2  4  1  0  0  0
  2  5  1  0  0  0
 12 13  1  0  0  0
  4  6  1  0  0  0
  5  7  1  0  0  0
M  END
> <minimizedAffinity>
-5.74516

$$$$
4UMB_0V5_A_1353


 13 12  0  0  0  0  0  0  0  0999 V2000
   44.2206  -24.4113   -5.7284 O   0  0  0  0  0  0  0  0  0  0  0  0
   43.4689  -25.3978   -4.6713 P   0  0  0  0  0  0  0  0  0  0  0  0
   44.2006  -26.7903   -4.9189 O   0  0  0  0  0  0  0  0  0  0  0  0
   43.9458  -24.9495   -3.2047 O   0  0  0  0  0  0  0  0  0  0  0  0
   41.9965  -25.5461   -4.9423 O   0  0  0  0  0  0  0  0  0  0  0  0
   44.9141  -24.8970   -3.1816 H   0  0  0  0  0  0  0  0  0  0  0  0
   41.8631  -25.8198   -5.8632 H   0  0  0  0  0  0  0  0  0  0  0  0
   45.5747  -23.9999   -5.4733 C   0  0  0  0  0  0  0  0  0  0  0  0
   45.6350  -22.4810   -5.2773 C   0  0  0  0  0  0  0  0  0  0  0  0
   46.4797  -24.2863   -6.6551 C   0  0  0  0  0  0  0  0  0  0  0  0
   47.6283  -24.6725   -6.3524 O   0  0  0  0  0  0  0  0  0  0  0  0
   46.0412  -24.1031   -7.8109 O   0  0  0  0  0  0  0  0  0  0  0  0
   45.1600  -23.8106   -7.9368 H   0  0  0  0  0  0  0  0  0  0  0  0
 11 10  2  0  0  0
 12 10  1  0  0  0
 10  8  1  0  0  0
  8  9  1  0  0  0
  8  1  1  0  0  0
  3  2  2  0  0  0
  1  2  1  0  0  0
  2  4  1  0  0  0
  2  5  1  0  0  0
 12 13  1  0  0  0
  4  6  1  0  0  0
  5  7  1  0  0  0
M  END
> <minimizedAffinity>
-5.74145

$$$$
4UMB_0V5_A_1353


 13 12  0  0  0  0  0  0  0  0999 V2000
   44.0593  -24.6027   -5.4609 O   0  0  0  0  0  0  0  0  0  0  0  0
   43.3785  -25.1698   -4.0933 P   0  0  0  0  0  0  0  0  0  0  0  0
   43.7115  -24.0222   -3.0408 O   0  0  0  0  0  0  0  0  0  0  0  0
   41.7884  -25.0769   -4.2983 O   0  0  0  0  0  0  0  0  0  0  0  0
   43.9759  -26.4700   -3.6283 O   0  0  0  0  0  0  0  0  0  0  0  0
   41.5525  -24.1850   -4.5980 H   0  0  0  0  0  0  0  0  0  0  0  0
   44.9380  -26.3743   -3.5508 H   0  0  0  0  0  0  0  0  0  0  0  0
   45.4154  -24.1251   -5.4316 C   0  0  0  0  0  0  0  0  0  0  0  0
   45.5957  -22.9907   -6.4465 C   0  0  0  0  0  0  0  0  0  0  0  0
   46.3975  -25.1993   -5.8547 C   0  0  0  0  0  0  0  0  0  0  0  0
   47.5607  -24.7929   -6.0595 O   0  0  0  0  0  0  0  0  0  0  0  0
   45.9896  -26.3731   -5.9874 O   0  0  0  0  0  0  0  0  0  0  0  0
   45.0936  -26.5808   -5.8087 H   0  0  0  0  0  0  0  0  0  0  0  0
 11 10  2  0  0  0
 12 10  1  0  0  0
 10  8  1  0  0  0
  8  9  1  0  0  0
  8  1  1  0  0  0
  3  2  2  0  0  0
  1  2  1  0  0  0
  2  4  1  0  0  0
  2  5  1  0  0  0
 12 13  1  0  0  0
  4  6  1  0  0  0
  5  7  1  0  0  0
M  END
> <minimizedAffinity>
-5.69028

$$$$
4UMB_0V5_A_1353


 13 12  0  0  0  0  0  0  0  0999 V2000
   45.0439  -24.4048   -4.8184 O   0  0  0  0  0  0  0  0  0  0  0  0
   43.7325  -25.2347   -4.3212 P   0  0  0  0  0  0  0  0  0  0  0  0
   44.3295  -26.6826   -4.0332 O   0  0  0  0  0  0  0  0  0  0  0  0
   43.3493  -24.6631   -2.8701 O   0  0  0  0  0  0  0  0  0  0  0  0
   42.6586  -25.3311   -5.3705 O   0  0  0  0  0  0  0  0  0  0  0  0
   44.1377  -24.6605   -2.3051 H   0  0  0  0  0  0  0  0  0  0  0  0
   43.0367  -25.6911   -6.1880 H   0  0  0  0  0  0  0  0  0  0  0  0
   44.9167  -23.0109   -5.1482 C   0  0  0  0  0  0  0  0  0  0  0  0
   45.7153  -22.6957   -6.4179 C   0  0  0  0  0  0  0  0  0  0  0  0
   45.5107  -22.1238   -4.0722 C   0  0  0  0  0  0  0  0  0  0  0  0
   46.5174  -21.4748   -4.4266 O   0  0  0  0  0  0  0  0  0  0  0  0
   44.9875  -22.1167   -2.9373 O   0  0  0  0  0  0  0  0  0  0  0  0
   44.2294  -22.6406   -2.7676 H   0  0  0  0  0  0  0  0  0  0  0  0
 11 10  2  0  0  0
 12 10  1  0  0  0
 10  8  1  0  0  0
  8  9  1  0  0  0
  8  1  1  0  0  0
  3  2  2  0  0  0
  1  2  1  0  0  0
  2  4  1  0  0  0
  2  5  1  0  0  0
 12 13  1  0  0  0
  4  6  1  0  0  0
  5  7  1  0  0  0
M  END
> <minimizedAffinity>
-5.55591

$$$$
4UMB_0V5_A_1353


 13 12  0  0  0  0  0  0  0  0999 V2000
   46.2475  -23.5997   -4.9979 O   0  0  0  0  0  0  0  0  0  0  0  0
   46.4933  -24.6593   -6.2113 P   0  0  0  0  0  0  0  0  0  0  0  0
   45.7046  -23.9877   -7.4206 O   0  0  0  0  0  0  0  0  0  0  0  0
   48.0405  -24.5356   -6.6236 O   0  0  0  0  0  0  0  0  0  0  0  0
   45.9231  -26.0233   -5.9322 O   0  0  0  0  0  0  0  0  0  0  0  0
   48.2623  -23.6028   -6.7709 H   0  0  0  0  0  0  0  0  0  0  0  0
   44.9856  -25.9400   -5.6976 H   0  0  0  0  0  0  0  0  0  0  0  0
   44.9603  -22.9751   -4.8530 C   0  0  0  0  0  0  0  0  0  0  0  0
   45.0702  -21.7490   -3.9398 C   0  0  0  0  0  0  0  0  0  0  0  0
   43.9653  -23.8930   -4.1712 C   0  0  0  0  0  0  0  0  0  0  0  0
   43.9558  -23.8197   -2.9243 O   0  0  0  0  0  0  0  0  0  0  0  0
   43.2618  -24.6506   -4.8732 O   0  0  0  0  0  0  0  0  0  0  0  0
   43.3414  -24.6323   -5.8067 H   0  0  0  0  0  0  0  0  0  0  0  0
 11 10  2  0  0  0
 12 10  1  0  0  0
 10  8  1  0  0  0
  8  9  1  0  0  0
  8  1  1  0  0  0
  3  2  2  0  0  0
  1  2  1  0  0  0
  2  4  1  0  0  0
  2  5  1  0  0  0
 12 13  1  0  0  0
  4  6  1  0  0  0
  5  7  1  0  0  0
M  END
> <minimizedAffinity>
-5.53598

$$$$
4UMB_0V5_A_1353


 13 12  0  0  0  0  0  0  0  0999 V2000
   45.1380  -23.2121   -5.4380 O   0  0  0  0  0  0  0  0  0  0  0  0
   44.8985  -22.4132   -4.0380 P   0  0  0  0  0  0  0  0  0  0  0  0
   43.6828  -21.4487   -4.3949 O   0  0  0  0  0  0  0  0  0  0  0  0
   44.2786  -23.4738   -3.0035 O   0  0  0  0  0  0  0  0  0  0  0  0
   46.0857  -21.5927   -3.6127 O   0  0  0  0  0  0  0  0  0  0  0  0
   43.5244  -23.9240   -3.4150 H   0  0  0  0  0  0  0  0  0  0  0  0
   46.3462  -21.0017   -4.3363 H   0  0  0  0  0  0  0  0  0  0  0  0
   46.0214  -24.3465   -5.4639 C   0  0  0  0  0  0  0  0  0  0  0  0
   46.8098  -24.3694   -6.7781 C   0  0  0  0  0  0  0  0  0  0  0  0
   45.2556  -25.6542   -5.4347 C   0  0  0  0  0  0  0  0  0  0  0  0
   44.0350  -25.5400   -5.1953 O   0  0  0  0  0  0  0  0  0  0  0  0
   45.8760  -26.7226   -5.6229 O   0  0  0  0  0  0  0  0  0  0  0  0
   46.7966  -26.7055   -5.7967 H   0  0  0  0  0  0  0  0  0  0  0  0
 11 10  2  0  0  0
 12 10  1  0  0  0
 10  8  1  0  0  0
  8  9  1  0  0  0
  8  1  1  0  0  0
  3  2  2  0  0  0
  1  2  1  0  0  0
  2  4  1  0  0  0
  2  5  1  0  0  0
 12 13  1  0  0  0
  4  6  1  0  0  0
  5  7  1  0  0  0
M  END
> <minimizedAffinity>
-5.42951

$$$$
