4I9U_1E7_A_401


 25 26  0  0  0  0  0  0  0  0999 V2000
   12.3759   14.2036   27.7323 C   0  0  0  0  0  0  0  0  0  0  0  0
   12.3062   12.9941   28.4384 N   0  0  0  0  0  0  0  0  0  0  0  0
   12.3905   14.2275   26.4465 O   0  0  0  0  0  0  0  0  0  0  0  0
   12.0123   13.0814   29.3739 H   0  0  0  0  0  0  0  0  0  0  0  0
   12.6009   11.6087   28.0113 C   0  0  0  0  0  0  0  0  0  0  0  0
   11.7495   10.8163   27.1115 C   0  0  0  0  0  0  0  0  0  0  0  0
   12.0893    9.4346   26.7064 C   0  0  0  0  0  0  0  0  0  0  0  0
   13.2873    8.8279   27.1960 C   0  0  0  0  0  0  0  0  0  0  0  0
   14.1471    9.5632   28.0792 C   0  0  0  0  0  0  0  0  0  0  0  0
   13.8515   10.9468   28.5133 C   0  0  0  0  0  0  0  0  0  0  0  0
   11.0366    8.5326   25.6307 Cl  0  0  0  0  0  0  0  0  0  0  0  0
   14.6864   11.7174   29.3999 O   0  0  0  0  0  0  0  0  0  0  0  0
   15.5249   11.0200   30.3588 C   0  0  0  0  0  0  0  0  0  0  0  0
   12.4304   15.5293   28.5387 C   0  0  0  0  0  0  0  0  0  0  0  0
   11.2954   15.4591   29.9762 S   0  0  0  0  0  0  0  0  0  0  0  0
   12.4343   15.1594   31.3782 C   0  0  0  0  0  0  0  0  0  0  0  0
   12.4985   16.1146   32.4544 C   0  0  0  0  0  0  0  0  0  0  0  0
   13.4239   15.8338   33.5640 C   0  0  0  0  0  0  0  0  0  0  0  0
   14.2469   14.6358   33.5746 C   0  0  0  0  0  0  0  0  0  0  0  0
   14.0972   13.7568   32.4438 C   0  0  0  0  0  0  0  0  0  0  0  0
   13.2015   14.0246   31.3673 N   0  0  0  0  0  0  0  0  0  0  0  0
   15.2138   14.3341   34.7380 C   0  0  0  0  0  0  0  0  0  0  0  0
   16.4454   14.9934   34.7854 O   0  0  0  0  0  0  0  0  0  0  0  0
   14.9222   13.5250   35.6159 O   0  0  0  0  0  0  0  0  0  0  0  0
   14.0977   13.0806   35.5883 H   0  0  0  0  0  0  0  0  0  0  0  0
 15 14  1  0  0  0
 15 16  1  0  0  0
 14  1  1  0  0  0
 17 16  2  0  0  0
 17 18  1  0  0  0
 16 21  1  0  0  0
 18 19  2  0  0  0
 21 20  2  0  0  0
 19 20  1  0  0  0
 19 22  1  0  0  0
 23 22  2  0  0  0
  1  3  2  0  0  0
  1  2  1  0  0  0
 22 24  1  0  0  0
  2  5  1  0  0  0
  5  6  2  0  0  0
  5 10  1  0  0  0
 12 10  1  0  0  0
 12 13  1  0  0  0
  6  7  1  0  0  0
 10  9  2  0  0  0
  7  8  2  0  0  0
  7 11  1  0  0  0
  9  8  1  0  0  0
  2  4  1  0  0  0
 24 25  1  0  0  0
M  END
> <minimizedAffinity>
-6.19829

$$$$
4I9U_1E7_A_401


 25 26  0  0  0  0  0  0  0  0999 V2000
   12.9024    9.3584   26.8751 C   0  0  0  0  0  0  0  0  0  0  0  0
   12.7717   10.6224   27.4680 N   0  0  0  0  0  0  0  0  0  0  0  0
   13.3806    8.3593   27.5287 O   0  0  0  0  0  0  0  0  0  0  0  0
   12.1473   11.2289   27.0081 H   0  0  0  0  0  0  0  0  0  0  0  0
   13.4160   11.1962   28.6698 C   0  0  0  0  0  0  0  0  0  0  0  0
   14.6597   10.6900   29.2693 C   0  0  0  0  0  0  0  0  0  0  0  0
   15.2710   11.3017   30.4695 C   0  0  0  0  0  0  0  0  0  0  0  0
   14.6458   12.4301   31.0852 C   0  0  0  0  0  0  0  0  0  0  0  0
   13.4287   12.9562   30.5358 C   0  0  0  0  0  0  0  0  0  0  0  0
   12.7785   12.3801   29.3377 C   0  0  0  0  0  0  0  0  0  0  0  0
   16.7562   10.6566   31.1453 Cl  0  0  0  0  0  0  0  0  0  0  0  0
   11.5564   12.8766   28.7571 O   0  0  0  0  0  0  0  0  0  0  0  0
   10.7644   13.8389   29.5025 C   0  0  0  0  0  0  0  0  0  0  0  0
   12.4498    9.1824   25.4004 C   0  0  0  0  0  0  0  0  0  0  0  0
   10.8147    8.3581   25.3196 S   0  0  0  0  0  0  0  0  0  0  0  0
    9.6735    9.6614   25.9122 C   0  0  0  0  0  0  0  0  0  0  0  0
    8.3836    9.2888   26.4338 C   0  0  0  0  0  0  0  0  0  0  0  0
    7.4983   10.3668   26.9035 C   0  0  0  0  0  0  0  0  0  0  0  0
    7.9084   11.7599   26.8421 C   0  0  0  0  0  0  0  0  0  0  0  0
    9.2187   12.0090   26.2995 C   0  0  0  0  0  0  0  0  0  0  0  0
   10.0798   10.9678   25.8442 N   0  0  0  0  0  0  0  0  0  0  0  0
    6.9866   12.8926   27.3387 C   0  0  0  0  0  0  0  0  0  0  0  0
    7.2601   13.5011   28.5671 O   0  0  0  0  0  0  0  0  0  0  0  0
    6.0190   13.2632   26.6778 O   0  0  0  0  0  0  0  0  0  0  0  0
    5.8317   12.8583   25.8538 H   0  0  0  0  0  0  0  0  0  0  0  0
 15 14  1  0  0  0
 15 16  1  0  0  0
 14  1  1  0  0  0
 17 16  2  0  0  0
 17 18  1  0  0  0
 16 21  1  0  0  0
 18 19  2  0  0  0
 21 20  2  0  0  0
 19 20  1  0  0  0
 19 22  1  0  0  0
 23 22  2  0  0  0
  1  3  2  0  0  0
  1  2  1  0  0  0
 22 24  1  0  0  0
  2  5  1  0  0  0
  5  6  2  0  0  0
  5 10  1  0  0  0
 12 10  1  0  0  0
 12 13  1  0  0  0
  6  7  1  0  0  0
 10  9  2  0  0  0
  7  8  2  0  0  0
  7 11  1  0  0  0
  9  8  1  0  0  0
  2  4  1  0  0  0
 24 25  1  0  0  0
M  END
> <minimizedAffinity>
-6.19600

$$$$
4I9U_1E7_A_401


 25 26  0  0  0  0  0  0  0  0999 V2000
   14.5142   14.4542   33.4774 C   0  0  0  0  0  0  0  0  0  0  0  0
   14.8632   14.2737   32.1312 N   0  0  0  0  0  0  0  0  0  0  0  0
   13.8856   13.5437   34.1331 O   0  0  0  0  0  0  0  0  0  0  0  0
   15.5733   14.8739   31.8074 H   0  0  0  0  0  0  0  0  0  0  0  0
   14.3419   13.3315   31.1168 C   0  0  0  0  0  0  0  0  0  0  0  0
   13.2082   13.6134   30.2238 C   0  0  0  0  0  0  0  0  0  0  0  0
   12.7260   12.6411   29.2186 C   0  0  0  0  0  0  0  0  0  0  0  0
   13.3737   11.3731   29.0929 C   0  0  0  0  0  0  0  0  0  0  0  0
   14.4829   11.0536   29.9459 C   0  0  0  0  0  0  0  0  0  0  0  0
   15.0023   11.9917   30.9660 C   0  0  0  0  0  0  0  0  0  0  0  0
   11.3669   13.0282   28.1785 Cl  0  0  0  0  0  0  0  0  0  0  0  0
   16.1105   11.7084   31.8427 O   0  0  0  0  0  0  0  0  0  0  0  0
   17.0912   10.7167   31.4380 C   0  0  0  0  0  0  0  0  0  0  0  0
   14.9090   15.7854   34.1722 C   0  0  0  0  0  0  0  0  0  0  0  0
   13.4302   16.8305   34.4554 S   0  0  0  0  0  0  0  0  0  0  0  0
   12.6303   16.8567   32.8087 C   0  0  0  0  0  0  0  0  0  0  0  0
   11.2350   16.5179   32.6943 C   0  0  0  0  0  0  0  0  0  0  0  0
   10.6297   16.5552   31.3532 C   0  0  0  0  0  0  0  0  0  0  0  0
   11.4113   16.9190   30.1830 C   0  0  0  0  0  0  0  0  0  0  0  0
   12.7956   17.2354   30.4218 C   0  0  0  0  0  0  0  0  0  0  0  0
   13.3858   17.2013   31.7193 N   0  0  0  0  0  0  0  0  0  0  0  0
   10.7800   16.9655   28.7763 C   0  0  0  0  0  0  0  0  0  0  0  0
   11.5033   16.4632   27.6908 O   0  0  0  0  0  0  0  0  0  0  0  0
    9.6602   17.4383   28.5953 O   0  0  0  0  0  0  0  0  0  0  0  0
    9.1716   17.7762   29.3199 H   0  0  0  0  0  0  0  0  0  0  0  0
 15 14  1  0  0  0
 15 16  1  0  0  0
 14  1  1  0  0  0
 17 16  2  0  0  0
 17 18  1  0  0  0
 16 21  1  0  0  0
 18 19  2  0  0  0
 21 20  2  0  0  0
 19 20  1  0  0  0
 19 22  1  0  0  0
 23 22  2  0  0  0
  1  3  2  0  0  0
  1  2  1  0  0  0
 22 24  1  0  0  0
  2  5  1  0  0  0
  5  6  2  0  0  0
  5 10  1  0  0  0
 12 10  1  0  0  0
 12 13  1  0  0  0
  6  7  1  0  0  0
 10  9  2  0  0  0
  7  8  2  0  0  0
  7 11  1  0  0  0
  9  8  1  0  0  0
  2  4  1  0  0  0
 24 25  1  0  0  0
M  END
> <minimizedAffinity>
-6.03622

$$$$
4I9U_1E7_A_401


 25 26  0  0  0  0  0  0  0  0999 V2000
   11.8129   14.8408   28.7181 C   0  0  0  0  0  0  0  0  0  0  0  0
   11.9242   13.6250   29.4081 N   0  0  0  0  0  0  0  0  0  0  0  0
   12.3413   15.0012   27.5566 O   0  0  0  0  0  0  0  0  0  0  0  0
   11.2649   13.5002   30.1285 H   0  0  0  0  0  0  0  0  0  0  0  0
   12.8675   12.4989   29.2336 C   0  0  0  0  0  0  0  0  0  0  0  0
   14.0670   12.2828   30.0563 C   0  0  0  0  0  0  0  0  0  0  0  0
   14.9786   11.1364   29.8485 C   0  0  0  0  0  0  0  0  0  0  0  0
   14.7006   10.1895   28.8145 C   0  0  0  0  0  0  0  0  0  0  0  0
   13.5421   10.3622   27.9849 C   0  0  0  0  0  0  0  0  0  0  0  0
   12.6004   11.4915   28.1529 C   0  0  0  0  0  0  0  0  0  0  0  0
   16.3980   10.9266   30.8585 Cl  0  0  0  0  0  0  0  0  0  0  0  0
   11.4289   11.7018   27.3403 O   0  0  0  0  0  0  0  0  0  0  0  0
   10.9992   10.6463   26.4402 C   0  0  0  0  0  0  0  0  0  0  0  0
   11.0273   16.0015   29.3859 C   0  0  0  0  0  0  0  0  0  0  0  0
   12.1778   17.2743   30.0310 S   0  0  0  0  0  0  0  0  0  0  0  0
   12.9323   16.4435   31.4777 C   0  0  0  0  0  0  0  0  0  0  0  0
   12.3397   16.6131   32.7796 C   0  0  0  0  0  0  0  0  0  0  0  0
   12.9749   15.9248   33.9151 C   0  0  0  0  0  0  0  0  0  0  0  0
   14.1602   15.1038   33.7318 C   0  0  0  0  0  0  0  0  0  0  0  0
   14.6621   15.0111   32.3854 C   0  0  0  0  0  0  0  0  0  0  0  0
   14.0495   15.6754   31.2825 N   0  0  0  0  0  0  0  0  0  0  0  0
   14.8258   14.3757   34.9177 C   0  0  0  0  0  0  0  0  0  0  0  0
   16.1982   14.5361   35.1288 O   0  0  0  0  0  0  0  0  0  0  0  0
   14.1736   13.6577   35.6723 O   0  0  0  0  0  0  0  0  0  0  0  0
   13.2534   13.5471   35.5347 H   0  0  0  0  0  0  0  0  0  0  0  0
 15 14  1  0  0  0
 15 16  1  0  0  0
 14  1  1  0  0  0
 17 16  2  0  0  0
 17 18  1  0  0  0
 16 21  1  0  0  0
 18 19  2  0  0  0
 21 20  2  0  0  0
 19 20  1  0  0  0
 19 22  1  0  0  0
 23 22  2  0  0  0
  1  3  2  0  0  0
  1  2  1  0  0  0
 22 24  1  0  0  0
  2  5  1  0  0  0
  5  6  2  0  0  0
  5 10  1  0  0  0
 12 10  1  0  0  0
 12 13  1  0  0  0
  6  7  1  0  0  0
 10  9  2  0  0  0
  7  8  2  0  0  0
  7 11  1  0  0  0
  9  8  1  0  0  0
  2  4  1  0  0  0
 24 25  1  0  0  0
M  END
> <minimizedAffinity>
-6.00147

$$$$
4I9U_1E7_A_401


 25 26  0  0  0  0  0  0  0  0999 V2000
   12.3854   11.0247   27.5381 C   0  0  0  0  0  0  0  0  0  0  0  0
   12.7303    9.7684   27.0194 N   0  0  0  0  0  0  0  0  0  0  0  0
   11.3504   11.6612   27.1164 O   0  0  0  0  0  0  0  0  0  0  0  0
   13.3416    9.2443   27.5857 H   0  0  0  0  0  0  0  0  0  0  0  0
   12.3282    9.0995   25.7626 C   0  0  0  0  0  0  0  0  0  0  0  0
   11.1182    8.2784   25.6070 C   0  0  0  0  0  0  0  0  0  0  0  0
   10.7532    7.6337   24.3265 C   0  0  0  0  0  0  0  0  0  0  0  0
   11.5945    7.8037   23.1835 C   0  0  0  0  0  0  0  0  0  0  0  0
   12.7875    8.5946   23.2900 C   0  0  0  0  0  0  0  0  0  0  0  0
   13.1956    9.2594   24.5477 C   0  0  0  0  0  0  0  0  0  0  0  0
    9.2978    6.6624   24.1960 Cl  0  0  0  0  0  0  0  0  0  0  0  0
   14.3855   10.0587   24.6965 O   0  0  0  0  0  0  0  0  0  0  0  0
   14.6636   11.0944   23.7172 C   0  0  0  0  0  0  0  0  0  0  0  0
   13.2820   11.6391   28.6468 C   0  0  0  0  0  0  0  0  0  0  0  0
   12.5531   13.1977   29.2785 S   0  0  0  0  0  0  0  0  0  0  0  0
   13.4303   13.4413   30.8670 C   0  0  0  0  0  0  0  0  0  0  0  0
   14.3868   12.4576   31.3054 C   0  0  0  0  0  0  0  0  0  0  0  0
   15.0727   12.6936   32.5861 C   0  0  0  0  0  0  0  0  0  0  0  0
   14.7946   13.8765   33.3836 C   0  0  0  0  0  0  0  0  0  0  0  0
   13.8183   14.7869   32.8436 C   0  0  0  0  0  0  0  0  0  0  0  0
   13.1522   14.5626   31.6032 N   0  0  0  0  0  0  0  0  0  0  0  0
   15.5153   14.1313   34.7234 C   0  0  0  0  0  0  0  0  0  0  0  0
   16.4887   15.1322   34.7909 O   0  0  0  0  0  0  0  0  0  0  0  0
   15.2523   13.4694   35.7248 O   0  0  0  0  0  0  0  0  0  0  0  0
   14.6005   12.7974   35.6844 H   0  0  0  0  0  0  0  0  0  0  0  0
 15 14  1  0  0  0
 15 16  1  0  0  0
 14  1  1  0  0  0
 17 16  2  0  0  0
 17 18  1  0  0  0
 16 21  1  0  0  0
 18 19  2  0  0  0
 21 20  2  0  0  0
 19 20  1  0  0  0
 19 22  1  0  0  0
 23 22  2  0  0  0
  1  3  2  0  0  0
  1  2  1  0  0  0
 22 24  1  0  0  0
  2  5  1  0  0  0
  5  6  2  0  0  0
  5 10  1  0  0  0
 12 10  1  0  0  0
 12 13  1  0  0  0
  6  7  1  0  0  0
 10  9  2  0  0  0
  7  8  2  0  0  0
  7 11  1  0  0  0
  9  8  1  0  0  0
  2  4  1  0  0  0
 24 25  1  0  0  0
M  END
> <minimizedAffinity>
-5.85078

$$$$
4I9U_1E7_A_401


 25 26  0  0  0  0  0  0  0  0999 V2000
   10.3862   14.1173   28.9827 C   0  0  0  0  0  0  0  0  0  0  0  0
   11.6553   13.8343   28.4576 N   0  0  0  0  0  0  0  0  0  0  0  0
   10.0566   13.7494   30.1702 O   0  0  0  0  0  0  0  0  0  0  0  0
   11.9132   14.3889   27.6861 H   0  0  0  0  0  0  0  0  0  0  0  0
   12.6712   12.8412   28.8702 C   0  0  0  0  0  0  0  0  0  0  0  0
   12.9285   11.5738   28.1702 C   0  0  0  0  0  0  0  0  0  0  0  0
   13.9613   10.6135   28.6168 C   0  0  0  0  0  0  0  0  0  0  0  0
   14.7519   10.9100   29.7702 C   0  0  0  0  0  0  0  0  0  0  0  0
   14.5333   12.1343   30.4865 C   0  0  0  0  0  0  0  0  0  0  0  0
   13.5133   13.1266   30.0799 C   0  0  0  0  0  0  0  0  0  0  0  0
   14.2263    9.1139   27.7452 Cl  0  0  0  0  0  0  0  0  0  0  0  0
   13.2612   14.3649   30.7727 O   0  0  0  0  0  0  0  0  0  0  0  0
   14.0446   14.6816   31.9538 C   0  0  0  0  0  0  0  0  0  0  0  0
    9.3758   14.8958   28.0975 C   0  0  0  0  0  0  0  0  0  0  0  0
    7.7745   14.0084   28.0101 S   0  0  0  0  0  0  0  0  0  0  0  0
    8.2456   12.3908   27.2934 C   0  0  0  0  0  0  0  0  0  0  0  0
    7.3527   11.2689   27.4310 C   0  0  0  0  0  0  0  0  0  0  0  0
    7.7674    9.9877   26.8368 C   0  0  0  0  0  0  0  0  0  0  0  0
    9.0345    9.8562   26.1370 C   0  0  0  0  0  0  0  0  0  0  0  0
    9.8429   11.0457   26.0657 C   0  0  0  0  0  0  0  0  0  0  0  0
    9.4446   12.2889   26.6391 N   0  0  0  0  0  0  0  0  0  0  0  0
    9.4708    8.5173   25.5074 C   0  0  0  0  0  0  0  0  0  0  0  0
   10.7933    8.0925   25.6642 O   0  0  0  0  0  0  0  0  0  0  0  0
    8.6804    7.8247   24.8704 O   0  0  0  0  0  0  0  0  0  0  0  0
    7.7929    8.1053   24.7626 H   0  0  0  0  0  0  0  0  0  0  0  0
 15 14  1  0  0  0
 15 16  1  0  0  0
 14  1  1  0  0  0
 17 16  2  0  0  0
 17 18  1  0  0  0
 16 21  1  0  0  0
 18 19  2  0  0  0
 21 20  2  0  0  0
 19 20  1  0  0  0
 19 22  1  0  0  0
 23 22  2  0  0  0
  1  3  2  0  0  0
  1  2  1  0  0  0
 22 24  1  0  0  0
  2  5  1  0  0  0
  5  6  2  0  0  0
  5 10  1  0  0  0
 12 10  1  0  0  0
 12 13  1  0  0  0
  6  7  1  0  0  0
 10  9  2  0  0  0
  7  8  2  0  0  0
  7 11  1  0  0  0
  9  8  1  0  0  0
  2  4  1  0  0  0
 24 25  1  0  0  0
M  END
> <minimizedAffinity>
-5.74507

$$$$
4I9U_1E7_A_401


 25 26  0  0  0  0  0  0  0  0999 V2000
   14.1515   15.1833   33.0247 C   0  0  0  0  0  0  0  0  0  0  0  0
   13.4634   14.1228   32.4178 N   0  0  0  0  0  0  0  0  0  0  0  0
   15.3045   15.5628   32.5995 O   0  0  0  0  0  0  0  0  0  0  0  0
   12.4985   14.0954   32.6114 H   0  0  0  0  0  0  0  0  0  0  0  0
   13.9463   13.0382   31.5352 C   0  0  0  0  0  0  0  0  0  0  0  0
   15.2192   12.3241   31.7140 C   0  0  0  0  0  0  0  0  0  0  0  0
   15.6575   11.2398   30.8081 C   0  0  0  0  0  0  0  0  0  0  0  0
   14.8260   10.8546   29.7111 C   0  0  0  0  0  0  0  0  0  0  0  0
   13.5759   11.5263   29.4964 C   0  0  0  0  0  0  0  0  0  0  0  0
   13.0935   12.6161   30.3738 C   0  0  0  0  0  0  0  0  0  0  0  0
   17.1878   10.4210   31.0664 Cl  0  0  0  0  0  0  0  0  0  0  0  0
   11.8474   13.3167   30.1910 O   0  0  0  0  0  0  0  0  0  0  0  0
   11.2727   13.3928   28.8596 C   0  0  0  0  0  0  0  0  0  0  0  0
   13.4876   15.9033   34.2294 C   0  0  0  0  0  0  0  0  0  0  0  0
   12.9421   17.5878   33.7556 S   0  0  0  0  0  0  0  0  0  0  0  0
   11.8744   17.2748   32.3016 C   0  0  0  0  0  0  0  0  0  0  0  0
   12.1076   18.0049   31.0821 C   0  0  0  0  0  0  0  0  0  0  0  0
   11.2294   17.7202   29.9357 C   0  0  0  0  0  0  0  0  0  0  0  0
   10.1618   16.7384   30.0294 C   0  0  0  0  0  0  0  0  0  0  0  0
   10.0246   16.0739   31.2995 C   0  0  0  0  0  0  0  0  0  0  0  0
   10.8736   16.3461   32.4121 N   0  0  0  0  0  0  0  0  0  0  0  0
    9.2427   16.4322   28.8290 C   0  0  0  0  0  0  0  0  0  0  0  0
    8.1745   15.5470   29.0004 O   0  0  0  0  0  0  0  0  0  0  0  0
    9.4361   16.9473   27.7301 O   0  0  0  0  0  0  0  0  0  0  0  0
   10.1508   17.5413   27.6104 H   0  0  0  0  0  0  0  0  0  0  0  0
 15 14  1  0  0  0
 15 16  1  0  0  0
 14  1  1  0  0  0
 17 16  2  0  0  0
 17 18  1  0  0  0
 16 21  1  0  0  0
 18 19  2  0  0  0
 21 20  2  0  0  0
 19 20  1  0  0  0
 19 22  1  0  0  0
 23 22  2  0  0  0
  1  3  2  0  0  0
  1  2  1  0  0  0
 22 24  1  0  0  0
  2  5  1  0  0  0
  5  6  2  0  0  0
  5 10  1  0  0  0
 12 10  1  0  0  0
 12 13  1  0  0  0
  6  7  1  0  0  0
 10  9  2  0  0  0
  7  8  2  0  0  0
  7 11  1  0  0  0
  9  8  1  0  0  0
  2  4  1  0  0  0
 24 25  1  0  0  0
M  END
> <minimizedAffinity>
-5.73002

$$$$
4I9U_1E7_A_401


 25 26  0  0  0  0  0  0  0  0999 V2000
   12.2288   10.6455   26.8404 C   0  0  0  0  0  0  0  0  0  0  0  0
   11.3447   11.7340   26.8339 N   0  0  0  0  0  0  0  0  0  0  0  0
   11.8011    9.4360   26.7495 O   0  0  0  0  0  0  0  0  0  0  0  0
   11.7610   12.5995   26.6173 H   0  0  0  0  0  0  0  0  0  0  0  0
    9.8906   11.7981   27.0985 C   0  0  0  0  0  0  0  0  0  0  0  0
    8.8936   10.9058   26.4886 C   0  0  0  0  0  0  0  0  0  0  0  0
    7.4484   11.0036   26.7893 C   0  0  0  0  0  0  0  0  0  0  0  0
    6.9820   11.9958   27.7064 C   0  0  0  0  0  0  0  0  0  0  0  0
    7.9194   12.8905   28.3234 C   0  0  0  0  0  0  0  0  0  0  0  0
    9.3738   12.8329   28.0556 C   0  0  0  0  0  0  0  0  0  0  0  0
    6.3005    9.9138   26.0320 Cl  0  0  0  0  0  0  0  0  0  0  0  0
   10.3464   13.7135   28.6518 O   0  0  0  0  0  0  0  0  0  0  0  0
   10.1584   14.1402   30.0272 C   0  0  0  0  0  0  0  0  0  0  0  0
   13.7510   10.9291   26.9552 C   0  0  0  0  0  0  0  0  0  0  0  0
   14.5089    9.8779   28.2514 S   0  0  0  0  0  0  0  0  0  0  0  0
   14.4752   10.9636   29.7253 C   0  0  0  0  0  0  0  0  0  0  0  0
   13.2839   11.7168   30.0223 C   0  0  0  0  0  0  0  0  0  0  0  0
   13.2972   12.5742   31.2186 C   0  0  0  0  0  0  0  0  0  0  0  0
   14.4712   12.6610   32.0711 C   0  0  0  0  0  0  0  0  0  0  0  0
   15.6018   11.8637   31.6717 C   0  0  0  0  0  0  0  0  0  0  0  0
   15.5929   11.0313   30.5142 N   0  0  0  0  0  0  0  0  0  0  0  0
   14.4878   13.5535   33.3291 C   0  0  0  0  0  0  0  0  0  0  0  0
   15.6587   14.2431   33.6567 O   0  0  0  0  0  0  0  0  0  0  0  0
   13.4957   13.6634   34.0460 O   0  0  0  0  0  0  0  0  0  0  0  0
   12.7086   13.2031   33.8305 H   0  0  0  0  0  0  0  0  0  0  0  0
 15 14  1  0  0  0
 15 16  1  0  0  0
 14  1  1  0  0  0
 17 16  2  0  0  0
 17 18  1  0  0  0
 16 21  1  0  0  0
 18 19  2  0  0  0
 21 20  2  0  0  0
 19 20  1  0  0  0
 19 22  1  0  0  0
 23 22  2  0  0  0
  1  3  2  0  0  0
  1  2  1  0  0  0
 22 24  1  0  0  0
  2  5  1  0  0  0
  5  6  2  0  0  0
  5 10  1  0  0  0
 12 10  1  0  0  0
 12 13  1  0  0  0
  6  7  1  0  0  0
 10  9  2  0  0  0
  7  8  2  0  0  0
  7 11  1  0  0  0
  9  8  1  0  0  0
  2  4  1  0  0  0
 24 25  1  0  0  0
M  END
> <minimizedAffinity>
-5.71950

$$$$
4I9U_1E7_A_401


 25 26  0  0  0  0  0  0  0  0999 V2000
   10.3435   12.9185   26.1468 C   0  0  0  0  0  0  0  0  0  0  0  0
   10.5661   11.8995   27.0840 N   0  0  0  0  0  0  0  0  0  0  0  0
   11.1336   13.0918   25.1469 O   0  0  0  0  0  0  0  0  0  0  0  0
    9.7798   11.6622   27.6268 H   0  0  0  0  0  0  0  0  0  0  0  0
   11.7860   11.1216   27.3927 C   0  0  0  0  0  0  0  0  0  0  0  0
   12.8038   11.5246   28.3745 C   0  0  0  0  0  0  0  0  0  0  0  0
   14.0060   10.7092   28.6548 C   0  0  0  0  0  0  0  0  0  0  0  0
   14.2046    9.4780   27.9564 C   0  0  0  0  0  0  0  0  0  0  0  0
   13.2382    9.0465   26.9870 C   0  0  0  0  0  0  0  0  0  0  0  0
   12.0204    9.8259   26.6713 C   0  0  0  0  0  0  0  0  0  0  0  0
   15.1909   11.2379   29.8361 Cl  0  0  0  0  0  0  0  0  0  0  0  0
   11.0284    9.4292   25.7041 O   0  0  0  0  0  0  0  0  0  0  0  0
   10.8150    8.0143   25.4560 C   0  0  0  0  0  0  0  0  0  0  0  0
    9.1095   13.8416   26.3362 C   0  0  0  0  0  0  0  0  0  0  0  0
    9.6180   15.4738   26.9970 S   0  0  0  0  0  0  0  0  0  0  0  0
   10.7688   15.0241   28.3482 C   0  0  0  0  0  0  0  0  0  0  0  0
   12.1402   15.4598   28.2842 C   0  0  0  0  0  0  0  0  0  0  0  0
   13.0310   15.0803   29.3927 C   0  0  0  0  0  0  0  0  0  0  0  0
   12.5464   14.2914   30.5132 C   0  0  0  0  0  0  0  0  0  0  0  0
   11.1579   13.9130   30.4653 C   0  0  0  0  0  0  0  0  0  0  0  0
   10.2914   14.2791   29.3939 N   0  0  0  0  0  0  0  0  0  0  0  0
   13.4746   13.8963   31.6801 C   0  0  0  0  0  0  0  0  0  0  0  0
   14.5860   14.6952   31.9638 O   0  0  0  0  0  0  0  0  0  0  0  0
   13.2564   12.8942   32.3572 O   0  0  0  0  0  0  0  0  0  0  0  0
   12.5127   12.3556   32.1707 H   0  0  0  0  0  0  0  0  0  0  0  0
 15 14  1  0  0  0
 15 16  1  0  0  0
 14  1  1  0  0  0
 17 16  2  0  0  0
 17 18  1  0  0  0
 16 21  1  0  0  0
 18 19  2  0  0  0
 21 20  2  0  0  0
 19 20  1  0  0  0
 19 22  1  0  0  0
 23 22  2  0  0  0
  1  3  2  0  0  0
  1  2  1  0  0  0
 22 24  1  0  0  0
  2  5  1  0  0  0
  5  6  2  0  0  0
  5 10  1  0  0  0
 12 10  1  0  0  0
 12 13  1  0  0  0
  6  7  1  0  0  0
 10  9  2  0  0  0
  7  8  2  0  0  0
  7 11  1  0  0  0
  9  8  1  0  0  0
  2  4  1  0  0  0
 24 25  1  0  0  0
M  END
> <minimizedAffinity>
-5.66487

$$$$
4I9U_1E7_A_401


 25 26  0  0  0  0  0  0  0  0999 V2000
   10.7665   14.5796   29.4585 C   0  0  0  0  0  0  0  0  0  0  0  0
   11.7399   14.0496   28.5993 N   0  0  0  0  0  0  0  0  0  0  0  0
   10.0105   13.8155   30.1647 O   0  0  0  0  0  0  0  0  0  0  0  0
   12.4426   14.6858   28.3333 H   0  0  0  0  0  0  0  0  0  0  0  0
   11.8866   12.6937   28.0262 C   0  0  0  0  0  0  0  0  0  0  0  0
   13.0335   11.8064   28.2705 C   0  0  0  0  0  0  0  0  0  0  0  0
   13.1331   10.4538   27.6798 C   0  0  0  0  0  0  0  0  0  0  0  0
   12.0845    9.9705   26.8373 C   0  0  0  0  0  0  0  0  0  0  0  0
   10.9470   10.8035   26.5688 C   0  0  0  0  0  0  0  0  0  0  0  0
   10.8008   12.1629   27.1355 C   0  0  0  0  0  0  0  0  0  0  0  0
   14.5254    9.4360   28.0031 Cl  0  0  0  0  0  0  0  0  0  0  0  0
    9.6772   13.0308   26.8885 O   0  0  0  0  0  0  0  0  0  0  0  0
    8.3360   12.5322   27.1367 C   0  0  0  0  0  0  0  0  0  0  0  0
   10.6189   16.1226   29.5474 C   0  0  0  0  0  0  0  0  0  0  0  0
   12.2644   16.9271   29.6139 S   0  0  0  0  0  0  0  0  0  0  0  0
   13.0165   16.1897   31.1115 C   0  0  0  0  0  0  0  0  0  0  0  0
   12.6904   16.7299   32.4063 C   0  0  0  0  0  0  0  0  0  0  0  0
   13.3133   16.1055   33.5847 C   0  0  0  0  0  0  0  0  0  0  0  0
   14.2279   14.9840   33.4488 C   0  0  0  0  0  0  0  0  0  0  0  0
   14.4784   14.5329   32.1044 C   0  0  0  0  0  0  0  0  0  0  0  0
   13.8765   15.1343   30.9604 N   0  0  0  0  0  0  0  0  0  0  0  0
   14.8786   14.3225   34.6810 C   0  0  0  0  0  0  0  0  0  0  0  0
   16.2014   14.6397   35.0025 O   0  0  0  0  0  0  0  0  0  0  0  0
   14.2578   13.5226   35.3775 O   0  0  0  0  0  0  0  0  0  0  0  0
   13.3709   13.3068   35.1659 H   0  0  0  0  0  0  0  0  0  0  0  0
 15 14  1  0  0  0
 15 16  1  0  0  0
 14  1  1  0  0  0
 17 16  2  0  0  0
 17 18  1  0  0  0
 16 21  1  0  0  0
 18 19  2  0  0  0
 21 20  2  0  0  0
 19 20  1  0  0  0
 19 22  1  0  0  0
 23 22  2  0  0  0
  1  3  2  0  0  0
  1  2  1  0  0  0
 22 24  1  0  0  0
  2  5  1  0  0  0
  5  6  2  0  0  0
  5 10  1  0  0  0
 12 10  1  0  0  0
 12 13  1  0  0  0
  6  7  1  0  0  0
 10  9  2  0  0  0
  7  8  2  0  0  0
  7 11  1  0  0  0
  9  8  1  0  0  0
  2  4  1  0  0  0
 24 25  1  0  0  0
M  END
> <minimizedAffinity>
-5.64052

$$$$
