1ALW_ISA_A_11


 15 15  0  0  0  0  0  0  0  0999 V2000
    7.7559  -49.1363   36.6606 C   0  0  0  0  0  0  0  0  0  0  0  0
   13.0457  -50.7720   34.0663 I   0  0  0  0  0  0  0  0  0  0  0  0
   11.3282  -50.0646   34.7473 C   0  0  0  0  0  0  0  0  0  0  0  0
   11.3378  -49.4809   35.9932 C   0  0  0  0  0  0  0  0  0  0  0  0
   10.1918  -49.1496   36.5806 C   0  0  0  0  0  0  0  0  0  0  0  0
   10.1800  -50.2931   34.0703 C   0  0  0  0  0  0  0  0  0  0  0  0
    8.9856  -49.9564   34.6762 C   0  0  0  0  0  0  0  0  0  0  0  0
    8.9846  -49.3840   35.9566 C   0  0  0  0  0  0  0  0  0  0  0  0
    7.8821  -49.2692   38.2083 C   0  0  0  0  0  0  0  0  0  0  0  0
    7.9265  -50.9679   38.5917 S   0  0  0  0  0  0  0  0  0  0  0  0
    6.7817  -51.5606   38.1585 H   0  0  0  0  0  0  0  0  0  0  0  0
    6.7787  -48.5334   38.9205 C   0  0  0  0  0  0  0  0  0  0  0  0
    7.0175  -47.3411   39.3258 O   0  0  0  0  0  0  0  0  0  0  0  0
    5.6379  -49.1237   39.0599 O   0  0  0  0  0  0  0  0  0  0  0  0
    5.5209  -49.9978   38.7435 H   0  0  0  0  0  0  0  0  0  0  0  0
  2  3  1  0  0  0
  3  4  2  0  0  0
  3  6  1  0  0  0
  4  5  1  0  0  0
  5  8  2  0  0  0
  6  7  2  0  0  0
  7  8  1  0  0  0
  8  1  1  0  0  0
  1  9  1  0  0  0
  9 10  1  0  0  0
  9 12  1  0  0  0
 12 13  2  0  0  0
 12 14  1  0  0  0
 10 11  1  0  0  0
 14 15  1  0  0  0
M  END
> <minimizedAffinity>
-6.26070

$$$$
1ALW_ISA_A_11


 15 15  0  0  0  0  0  0  0  0999 V2000
   10.8910  -51.3883   35.3186 C   0  0  0  0  0  0  0  0  0  0  0  0
    6.3937  -49.0100   38.7107 I   0  0  0  0  0  0  0  0  0  0  0  0
    7.9995  -49.6801   37.7691 C   0  0  0  0  0  0  0  0  0  0  0  0
    8.2853  -49.1280   36.5416 C   0  0  0  0  0  0  0  0  0  0  0  0
    9.2401  -49.6561   35.7817 C   0  0  0  0  0  0  0  0  0  0  0  0
    8.6827  -50.7407   38.2560 C   0  0  0  0  0  0  0  0  0  0  0  0
    9.6723  -51.2977   37.4701 C   0  0  0  0  0  0  0  0  0  0  0  0
    9.9534  -50.7570   36.2069 C   0  0  0  0  0  0  0  0  0  0  0  0
   11.2819  -50.5098   34.0920 C   0  0  0  0  0  0  0  0  0  0  0  0
   10.5558  -51.2222   32.6779 S   0  0  0  0  0  0  0  0  0  0  0  0
   11.0220  -52.4898   32.5187 H   0  0  0  0  0  0  0  0  0  0  0  0
   12.7746  -50.3551   33.9732 C   0  0  0  0  0  0  0  0  0  0  0  0
   13.2774  -50.2760   32.7967 O   0  0  0  0  0  0  0  0  0  0  0  0
   13.4717  -50.2767   35.0581 O   0  0  0  0  0  0  0  0  0  0  0  0
   13.0494  -50.3413   35.8920 H   0  0  0  0  0  0  0  0  0  0  0  0
  2  3  1  0  0  0
  3  4  2  0  0  0
  3  6  1  0  0  0
  4  5  1  0  0  0
  5  8  2  0  0  0
  6  7  2  0  0  0
  7  8  1  0  0  0
  8  1  1  0  0  0
  1  9  1  0  0  0
  9 10  1  0  0  0
  9 12  1  0  0  0
 12 13  2  0  0  0
 12 14  1  0  0  0
 10 11  1  0  0  0
 14 15  1  0  0  0
M  END
> <minimizedAffinity>
-6.20185

$$$$
1ALW_ISA_A_11


 15 15  0  0  0  0  0  0  0  0999 V2000
   11.3038  -50.2157   35.4896 C   0  0  0  0  0  0  0  0  0  0  0  0
    6.2970  -49.1085   38.8205 I   0  0  0  0  0  0  0  0  0  0  0  0
    7.7712  -49.5691   37.5841 C   0  0  0  0  0  0  0  0  0  0  0  0
    8.6532  -50.5434   37.9919 C   0  0  0  0  0  0  0  0  0  0  0  0
    9.7610  -50.7715   37.2927 C   0  0  0  0  0  0  0  0  0  0  0  0
    7.9747  -48.8398   36.4637 C   0  0  0  0  0  0  0  0  0  0  0  0
    9.1256  -49.0676   35.7352 C   0  0  0  0  0  0  0  0  0  0  0  0
   10.0426  -50.0413   36.1572 C   0  0  0  0  0  0  0  0  0  0  0  0
   11.2382  -51.1803   34.2672 C   0  0  0  0  0  0  0  0  0  0  0  0
   12.3569  -52.4830   34.5605 S   0  0  0  0  0  0  0  0  0  0  0  0
   13.6128  -51.9797   34.6982 H   0  0  0  0  0  0  0  0  0  0  0  0
   11.5029  -50.4566   32.9741 C   0  0  0  0  0  0  0  0  0  0  0  0
   12.6624  -50.5834   32.4425 O   0  0  0  0  0  0  0  0  0  0  0  0
   10.5428  -49.7715   32.4466 O   0  0  0  0  0  0  0  0  0  0  0  0
    9.7147  -49.7139   32.8812 H   0  0  0  0  0  0  0  0  0  0  0  0
  2  3  1  0  0  0
  3  4  2  0  0  0
  3  6  1  0  0  0
  4  5  1  0  0  0
  5  8  2  0  0  0
  6  7  2  0  0  0
  7  8  1  0  0  0
  8  1  1  0  0  0
  1  9  1  0  0  0
  9 10  1  0  0  0
  9 12  1  0  0  0
 12 13  2  0  0  0
 12 14  1  0  0  0
 10 11  1  0  0  0
 14 15  1  0  0  0
M  END
> <minimizedAffinity>
-6.14297

$$$$
1ALW_ISA_A_11


 15 15  0  0  0  0  0  0  0  0999 V2000
   11.0261  -50.2320   34.2129 C   0  0  0  0  0  0  0  0  0  0  0  0
    6.7849  -49.5621   38.5663 I   0  0  0  0  0  0  0  0  0  0  0  0
    8.3153  -49.7060   37.3208 C   0  0  0  0  0  0  0  0  0  0  0  0
    8.3726  -48.7997   36.2871 C   0  0  0  0  0  0  0  0  0  0  0  0
    9.2703  -48.9529   35.3182 C   0  0  0  0  0  0  0  0  0  0  0  0
    9.1701  -50.7503   37.4084 C   0  0  0  0  0  0  0  0  0  0  0  0
   10.1018  -50.9187   36.4031 C   0  0  0  0  0  0  0  0  0  0  0  0
   10.1510  -50.0140   35.3325 C   0  0  0  0  0  0  0  0  0  0  0  0
   12.0613  -51.3747   34.4393 C   0  0  0  0  0  0  0  0  0  0  0  0
   13.6484  -50.7149   34.1556 S   0  0  0  0  0  0  0  0  0  0  0  0
   13.7259  -50.2534   32.8787 H   0  0  0  0  0  0  0  0  0  0  0  0
   11.7604  -52.5745   33.5813 C   0  0  0  0  0  0  0  0  0  0  0  0
   12.5758  -52.8526   32.6321 O   0  0  0  0  0  0  0  0  0  0  0  0
   10.7169  -53.2830   33.8614 O   0  0  0  0  0  0  0  0  0  0  0  0
   10.1555  -53.0311   34.5680 H   0  0  0  0  0  0  0  0  0  0  0  0
  2  3  1  0  0  0
  3  4  2  0  0  0
  3  6  1  0  0  0
  4  5  1  0  0  0
  5  8  2  0  0  0
  6  7  2  0  0  0
  7  8  1  0  0  0
  8  1  1  0  0  0
  1  9  1  0  0  0
  9 10  1  0  0  0
  9 12  1  0  0  0
 12 13  2  0  0  0
 12 14  1  0  0  0
 10 11  1  0  0  0
 14 15  1  0  0  0
M  END
> <minimizedAffinity>
-5.32861

$$$$
1ALW_ISA_A_11


 15 15  0  0  0  0  0  0  0  0999 V2000
    8.9436  -48.8645   35.7862 C   0  0  0  0  0  0  0  0  0  0  0  0
   12.8651  -52.6563   33.0234 I   0  0  0  0  0  0  0  0  0  0  0  0
   11.5938  -51.3063   33.7130 C   0  0  0  0  0  0  0  0  0  0  0  0
   12.0543  -50.4464   34.6834 C   0  0  0  0  0  0  0  0  0  0  0  0
   11.2055  -49.6394   35.3131 C   0  0  0  0  0  0  0  0  0  0  0  0
   10.2928  -51.3445   33.3462 C   0  0  0  0  0  0  0  0  0  0  0  0
    9.4045  -50.5129   33.9992 C   0  0  0  0  0  0  0  0  0  0  0  0
    9.8609  -49.6510   35.0072 C   0  0  0  0  0  0  0  0  0  0  0  0
    8.0874  -49.7033   36.7822 C   0  0  0  0  0  0  0  0  0  0  0  0
    6.6728  -48.7684   37.1817 S   0  0  0  0  0  0  0  0  0  0  0  0
    7.0520  -47.5955   37.7562 H   0  0  0  0  0  0  0  0  0  0  0  0
    8.8845  -50.1115   37.9922 C   0  0  0  0  0  0  0  0  0  0  0  0
    8.7977  -51.3287   38.3847 O   0  0  0  0  0  0  0  0  0  0  0  0
    9.6404  -49.2282   38.5558 O   0  0  0  0  0  0  0  0  0  0  0  0
    9.6635  -48.3518   38.2250 H   0  0  0  0  0  0  0  0  0  0  0  0
  2  3  1  0  0  0
  3  4  2  0  0  0
  3  6  1  0  0  0
  4  5  1  0  0  0
  5  8  2  0  0  0
  6  7  2  0  0  0
  7  8  1  0  0  0
  8  1  1  0  0  0
  1  9  1  0  0  0
  9 10  1  0  0  0
  9 12  1  0  0  0
 12 13  2  0  0  0
 12 14  1  0  0  0
 10 11  1  0  0  0
 14 15  1  0  0  0
M  END
> <minimizedAffinity>
-4.75440

$$$$
1ALW_ISA_A_11


 15 15  0  0  0  0  0  0  0  0999 V2000
   12.2559  -50.8834   34.4999 C   0  0  0  0  0  0  0  0  0  0  0  0
    7.1447  -48.8649   37.1814 I   0  0  0  0  0  0  0  0  0  0  0  0
    8.8467  -49.2893   36.2663 C   0  0  0  0  0  0  0  0  0  0  0  0
    8.7652  -49.9326   35.0528 C   0  0  0  0  0  0  0  0  0  0  0  0
    9.8665  -50.4035   34.4752 C   0  0  0  0  0  0  0  0  0  0  0  0
   10.0274  -49.0870   36.8939 C   0  0  0  0  0  0  0  0  0  0  0  0
   11.1748  -49.5777   36.3025 C   0  0  0  0  0  0  0  0  0  0  0  0
   11.0981  -50.2568   35.0777 C   0  0  0  0  0  0  0  0  0  0  0  0
   11.9499  -51.6920   33.2033 C   0  0  0  0  0  0  0  0  0  0  0  0
   12.0753  -53.3851   33.5935 S   0  0  0  0  0  0  0  0  0  0  0  0
   13.3330  -53.6568   34.0339 H   0  0  0  0  0  0  0  0  0  0  0  0
   12.8486  -51.2812   32.0677 C   0  0  0  0  0  0  0  0  0  0  0  0
   12.6934  -51.8670   30.9381 O   0  0  0  0  0  0  0  0  0  0  0  0
   13.7079  -50.3390   32.2752 O   0  0  0  0  0  0  0  0  0  0  0  0
   13.7773  -49.9466   33.1232 H   0  0  0  0  0  0  0  0  0  0  0  0
  2  3  1  0  0  0
  3  4  2  0  0  0
  3  6  1  0  0  0
  4  5  1  0  0  0
  5  8  2  0  0  0
  6  7  2  0  0  0
  7  8  1  0  0  0
  8  1  1  0  0  0
  1  9  1  0  0  0
  9 10  1  0  0  0
  9 12  1  0  0  0
 12 13  2  0  0  0
 12 14  1  0  0  0
 10 11  1  0  0  0
 14 15  1  0  0  0
M  END
> <minimizedAffinity>
-4.57176

$$$$
1ALW_ISA_A_11


 15 15  0  0  0  0  0  0  0  0999 V2000
   10.7231  -50.9456   32.4234 C   0  0  0  0  0  0  0  0  0  0  0  0
    8.8408  -49.8427   38.1356 I   0  0  0  0  0  0  0  0  0  0  0  0
    9.6714  -50.1675   36.3696 C   0  0  0  0  0  0  0  0  0  0  0  0
    9.4727  -49.2154   35.3962 C   0  0  0  0  0  0  0  0  0  0  0  0
    9.8496  -49.4568   34.1441 C   0  0  0  0  0  0  0  0  0  0  0  0
   10.2721  -51.3499   36.1054 C   0  0  0  0  0  0  0  0  0  0  0  0
   10.6616  -51.6097   34.8062 C   0  0  0  0  0  0  0  0  0  0  0  0
   10.4403  -50.6552   33.8027 C   0  0  0  0  0  0  0  0  0  0  0  0
    9.4479  -51.1548   31.5523 C   0  0  0  0  0  0  0  0  0  0  0  0
    9.0842  -52.8583   31.5470 S   0  0  0  0  0  0  0  0  0  0  0  0
   10.1337  -53.5443   31.0203 H   0  0  0  0  0  0  0  0  0  0  0  0
    9.6205  -50.5851   30.1696 C   0  0  0  0  0  0  0  0  0  0  0  0
    9.5689  -49.3114   30.0351 O   0  0  0  0  0  0  0  0  0  0  0  0
    9.8442  -51.4012   29.1932 O   0  0  0  0  0  0  0  0  0  0  0  0
    9.8708  -52.3244   29.3510 H   0  0  0  0  0  0  0  0  0  0  0  0
  2  3  1  0  0  0
  3  4  2  0  0  0
  3  6  1  0  0  0
  4  5  1  0  0  0
  5  8  2  0  0  0
  6  7  2  0  0  0
  7  8  1  0  0  0
  8  1  1  0  0  0
  1  9  1  0  0  0
  9 10  1  0  0  0
  9 12  1  0  0  0
 12 13  2  0  0  0
 12 14  1  0  0  0
 10 11  1  0  0  0
 14 15  1  0  0  0
M  END
> <minimizedAffinity>
-4.51929

$$$$
1ALW_ISA_A_11


 15 15  0  0  0  0  0  0  0  0999 V2000
   10.0976  -51.3073   35.4592 C   0  0  0  0  0  0  0  0  0  0  0  0
   15.6847  -51.9670   33.0637 I   0  0  0  0  0  0  0  0  0  0  0  0
   13.9863  -51.6722   34.0346 C   0  0  0  0  0  0  0  0  0  0  0  0
   13.2779  -52.7882   34.4165 C   0  0  0  0  0  0  0  0  0  0  0  0
   12.0498  -52.6591   34.9096 C   0  0  0  0  0  0  0  0  0  0  0  0
   13.4858  -50.4231   34.1697 C   0  0  0  0  0  0  0  0  0  0  0  0
   12.2090  -50.2815   34.6763 C   0  0  0  0  0  0  0  0  0  0  0  0
   11.4700  -51.4152   35.0447 C   0  0  0  0  0  0  0  0  0  0  0  0
    9.8527  -50.2087   36.5371 C   0  0  0  0  0  0  0  0  0  0  0  0
    9.2170  -50.9926   37.9569 S   0  0  0  0  0  0  0  0  0  0  0  0
    8.0498  -51.6174   37.6455 H   0  0  0  0  0  0  0  0  0  0  0  0
    8.9596  -49.1128   36.0198 C   0  0  0  0  0  0  0  0  0  0  0  0
    9.4783  -48.2312   35.2472 O   0  0  0  0  0  0  0  0  0  0  0  0
    7.7110  -49.1310   36.3510 O   0  0  0  0  0  0  0  0  0  0  0  0
    7.3870  -49.8010   36.9203 H   0  0  0  0  0  0  0  0  0  0  0  0
  2  3  1  0  0  0
  3  4  2  0  0  0
  3  6  1  0  0  0
  4  5  1  0  0  0
  5  8  2  0  0  0
  6  7  2  0  0  0
  7  8  1  0  0  0
  8  1  1  0  0  0
  1  9  1  0  0  0
  9 10  1  0  0  0
  9 12  1  0  0  0
 12 13  2  0  0  0
 12 14  1  0  0  0
 10 11  1  0  0  0
 14 15  1  0  0  0
M  END
> <minimizedAffinity>
-4.36656

$$$$
1ALW_ISA_A_11


 15 15  0  0  0  0  0  0  0  0999 V2000
   11.6567  -50.2585   33.6661 C   0  0  0  0  0  0  0  0  0  0  0  0
    7.5646  -49.0699   38.0514 I   0  0  0  0  0  0  0  0  0  0  0  0
    8.8006  -49.6761   36.6305 C   0  0  0  0  0  0  0  0  0  0  0  0
   10.1320  -49.7864   36.9596 C   0  0  0  0  0  0  0  0  0  0  0  0
   11.0346  -50.0136   36.0099 C   0  0  0  0  0  0  0  0  0  0  0  0
    8.3607  -49.8208   35.3599 C   0  0  0  0  0  0  0  0  0  0  0  0
    9.2928  -50.0519   34.3675 C   0  0  0  0  0  0  0  0  0  0  0  0
   10.6548  -50.1408   34.6903 C   0  0  0  0  0  0  0  0  0  0  0  0
   12.1606  -51.7169   33.4464 C   0  0  0  0  0  0  0  0  0  0  0  0
   10.7618  -52.7499   33.3416 S   0  0  0  0  0  0  0  0  0  0  0  0
   10.0484  -52.6655   34.4964 H   0  0  0  0  0  0  0  0  0  0  0  0
   13.1251  -52.1390   34.5223 C   0  0  0  0  0  0  0  0  0  0  0  0
   12.8186  -53.1587   35.2360 O   0  0  0  0  0  0  0  0  0  0  0  0
   14.2266  -51.4766   34.6532 O   0  0  0  0  0  0  0  0  0  0  0  0
   14.3975  -50.7380   34.1025 H   0  0  0  0  0  0  0  0  0  0  0  0
  2  3  1  0  0  0
  3  4  2  0  0  0
  3  6  1  0  0  0
  4  5  1  0  0  0
  5  8  2  0  0  0
  6  7  2  0  0  0
  7  8  1  0  0  0
  8  1  1  0  0  0
  1  9  1  0  0  0
  9 10  1  0  0  0
  9 12  1  0  0  0
 12 13  2  0  0  0
 12 14  1  0  0  0
 10 11  1  0  0  0
 14 15  1  0  0  0
M  END
> <minimizedAffinity>
-4.33772

$$$$
1ALW_ISA_A_11


 15 15  0  0  0  0  0  0  0  0999 V2000
   10.9781  -49.9139   33.3554 C   0  0  0  0  0  0  0  0  0  0  0  0
    7.9358  -50.6016   38.6148 I   0  0  0  0  0  0  0  0  0  0  0  0
    9.1077  -50.3166   37.0465 C   0  0  0  0  0  0  0  0  0  0  0  0
    8.8258  -49.2397   36.2378 C   0  0  0  0  0  0  0  0  0  0  0  0
    9.4587  -49.0968   35.0771 C   0  0  0  0  0  0  0  0  0  0  0  0
   10.0410  -51.2378   36.7160 C   0  0  0  0  0  0  0  0  0  0  0  0
   10.6987  -51.0987   35.5097 C   0  0  0  0  0  0  0  0  0  0  0  0
   10.3997  -50.0178   34.6675 C   0  0  0  0  0  0  0  0  0  0  0  0
   10.5212  -51.0384   32.3779 C   0  0  0  0  0  0  0  0  0  0  0  0
    8.8074  -51.2637   32.5942 S   0  0  0  0  0  0  0  0  0  0  0  0
    8.5567  -51.6257   33.8809 H   0  0  0  0  0  0  0  0  0  0  0  0
   11.3115  -52.3037   32.5790 C   0  0  0  0  0  0  0  0  0  0  0  0
   12.5890  -52.2110   32.6304 O   0  0  0  0  0  0  0  0  0  0  0  0
   10.6665  -53.4139   32.7225 O   0  0  0  0  0  0  0  0  0  0  0  0
    9.7307  -53.4215   32.6752 H   0  0  0  0  0  0  0  0  0  0  0  0
  2  3  1  0  0  0
  3  4  2  0  0  0
  3  6  1  0  0  0
  4  5  1  0  0  0
  5  8  2  0  0  0
  6  7  2  0  0  0
  7  8  1  0  0  0
  8  1  1  0  0  0
  1  9  1  0  0  0
  9 10  1  0  0  0
  9 12  1  0  0  0
 12 13  2  0  0  0
 12 14  1  0  0  0
 10 11  1  0  0  0
 14 15  1  0  0  0
M  END
> <minimizedAffinity>
-4.20644

$$$$
