185L_IND_A_400


 10 11  0  0  0  0  0  0  0  0999 V2000
   28.1737    7.2253    3.4100 N   0  0  0  0  0  0  0  0  0  0  0  0
   28.1226    6.3390    2.3704 C   0  0  0  0  0  0  0  0  0  0  0  0
   27.3429    5.2821    2.6916 C   0  0  0  0  0  0  0  0  0  0  0  0
   25.9706    4.8507    4.8272 C   0  0  0  0  0  0  0  0  0  0  0  0
   25.7286    5.3590    6.0722 C   0  0  0  0  0  0  0  0  0  0  0  0
   26.2968    6.5406    6.5009 C   0  0  0  0  0  0  0  0  0  0  0  0
   27.1248    7.2672    5.6933 C   0  0  0  0  0  0  0  0  0  0  0  0
   27.3795    6.7504    4.4305 C   0  0  0  0  0  0  0  0  0  0  0  0
   26.8389    5.5298    4.0048 C   0  0  0  0  0  0  0  0  0  0  0  0
   28.6912    8.0627    3.4265 H   0  0  0  0  0  0  0  0  0  0  0  0
  1  2  1  0  0  0
  1  8  1  0  0  0
  2  3  2  0  0  0
  3  9  1  0  0  0
  4  5  2  0  0  0
  4  9  1  0  0  0
  5  6  1  0  0  0
  6  7  2  0  0  0
  7  8  1  0  0  0
  8  9  2  0  0  0
  1 10  1  0  0  0
M  END
> <minimizedAffinity>
-6.97185

$$$$
185L_IND_A_400


 10 11  0  0  0  0  0  0  0  0999 V2000
   25.6369    5.1009    5.4621 N   0  0  0  0  0  0  0  0  0  0  0  0
   25.7026    5.9724    6.5132 C   0  0  0  0  0  0  0  0  0  0  0  0
   26.6009    6.9502    6.2578 C   0  0  0  0  0  0  0  0  0  0  0  0
   27.9997    7.3735    4.1379 C   0  0  0  0  0  0  0  0  0  0  0  0
   28.3072    6.8265    2.9241 C   0  0  0  0  0  0  0  0  0  0  0  0
   27.7262    5.6556    2.4834 C   0  0  0  0  0  0  0  0  0  0  0  0
   26.8039    4.9894    3.2392 C   0  0  0  0  0  0  0  0  0  0  0  0
   26.4945    5.5375    4.4763 C   0  0  0  0  0  0  0  0  0  0  0  0
   27.1122    6.7036    4.9473 C   0  0  0  0  0  0  0  0  0  0  0  0
   25.0715    4.2962    5.4171 H   0  0  0  0  0  0  0  0  0  0  0  0
  1  2  1  0  0  0
  1  8  1  0  0  0
  2  3  2  0  0  0
  3  9  1  0  0  0
  4  5  2  0  0  0
  4  9  1  0  0  0
  5  6  1  0  0  0
  6  7  2  0  0  0
  7  8  1  0  0  0
  8  9  2  0  0  0
  1 10  1  0  0  0
M  END
> <minimizedAffinity>
-6.38425

$$$$
185L_IND_A_400


 10 11  0  0  0  0  0  0  0  0999 V2000
   27.5539    6.4466    2.8667 N   0  0  0  0  0  0  0  0  0  0  0  0
   28.4461    7.4610    3.0762 C   0  0  0  0  0  0  0  0  0  0  0  0
   28.4017    7.8674    4.3650 C   0  0  0  0  0  0  0  0  0  0  0  0
   27.0152    6.9394    6.3262 C   0  0  0  0  0  0  0  0  0  0  0  0
   26.0312    6.0369    6.6168 C   0  0  0  0  0  0  0  0  0  0  0  0
   25.4965    5.2056    5.6547 C   0  0  0  0  0  0  0  0  0  0  0  0
   25.9346    5.2385    4.3613 C   0  0  0  0  0  0  0  0  0  0  0  0
   26.9286    6.1592    4.0602 C   0  0  0  0  0  0  0  0  0  0  0  0
   27.4460    7.0351    5.0236 C   0  0  0  0  0  0  0  0  0  0  0  0
   27.3863    5.9970    2.0071 H   0  0  0  0  0  0  0  0  0  0  0  0
  1  2  1  0  0  0
  1  8  1  0  0  0
  2  3  2  0  0  0
  3  9  1  0  0  0
  4  5  2  0  0  0
  4  9  1  0  0  0
  5  6  1  0  0  0
  6  7  2  0  0  0
  7  8  1  0  0  0
  8  9  2  0  0  0
  1 10  1  0  0  0
M  END
> <minimizedAffinity>
-6.38004

$$$$
185L_IND_A_400


 10 11  0  0  0  0  0  0  0  0999 V2000
   27.2020    7.4927    5.8468 N   0  0  0  0  0  0  0  0  0  0  0  0
   26.3208    6.7585    6.5906 C   0  0  0  0  0  0  0  0  0  0  0  0
   25.9112    5.6724    5.8973 C   0  0  0  0  0  0  0  0  0  0  0  0
   26.6370    4.8488    3.5682 C   0  0  0  0  0  0  0  0  0  0  0  0
   27.3944    5.2053    2.4882 C   0  0  0  0  0  0  0  0  0  0  0  0
   28.1444    6.3629    2.4732 C   0  0  0  0  0  0  0  0  0  0  0  0
   28.1734    7.2070    3.5467 C   0  0  0  0  0  0  0  0  0  0  0  0
   27.3993    6.8526    4.6429 C   0  0  0  0  0  0  0  0  0  0  0  0
   26.6027    5.6999    4.6480 C   0  0  0  0  0  0  0  0  0  0  0  0
   27.6247    8.3372    6.1248 H   0  0  0  0  0  0  0  0  0  0  0  0
  1  2  1  0  0  0
  1  8  1  0  0  0
  2  3  2  0  0  0
  3  9  1  0  0  0
  4  5  2  0  0  0
  4  9  1  0  0  0
  5  6  1  0  0  0
  6  7  2  0  0  0
  7  8  1  0  0  0
  8  9  2  0  0  0
  1 10  1  0  0  0
M  END
> <minimizedAffinity>
-6.37417

$$$$
185L_IND_A_400


 10 11  0  0  0  0  0  0  0  0999 V2000
   26.7999    4.4571    3.2181 N   0  0  0  0  0  0  0  0  0  0  0  0
   27.5990    5.1507    2.3526 C   0  0  0  0  0  0  0  0  0  0  0  0
   27.9335    6.3499    2.8799 C   0  0  0  0  0  0  0  0  0  0  0  0
   27.3670    7.3368    5.1896 C   0  0  0  0  0  0  0  0  0  0  0  0
   26.6324    7.0898    6.3150 C   0  0  0  0  0  0  0  0  0  0  0  0
   25.9050    5.9282    6.4709 C   0  0  0  0  0  0  0  0  0  0  0  0
   25.8924    4.9606    5.5070 C   0  0  0  0  0  0  0  0  0  0  0  0
   26.6310    5.2110    4.3588 C   0  0  0  0  0  0  0  0  0  0  0  0
   27.3379    6.4070    4.1767 C   0  0  0  0  0  0  0  0  0  0  0  0
   26.4103    3.5680    3.0539 H   0  0  0  0  0  0  0  0  0  0  0  0
  1  2  1  0  0  0
  1  8  1  0  0  0
  2  3  2  0  0  0
  3  9  1  0  0  0
  4  5  2  0  0  0
  4  9  1  0  0  0
  5  6  1  0  0  0
  6  7  2  0  0  0
  7  8  1  0  0  0
  8  9  2  0  0  0
  1 10  1  0  0  0
M  END
> <minimizedAffinity>
-6.32405

$$$$
185L_IND_A_400


 10 11  0  0  0  0  0  0  0  0999 V2000
   28.3798    7.2748    3.5689 N   0  0  0  0  0  0  0  0  0  0  0  0
   28.6862    8.2467    4.4801 C   0  0  0  0  0  0  0  0  0  0  0  0
   27.9367    8.0985    5.5956 C   0  0  0  0  0  0  0  0  0  0  0  0
   26.2204    6.2709    6.1824 C   0  0  0  0  0  0  0  0  0  0  0  0
   25.5767    5.1885    5.6521 C   0  0  0  0  0  0  0  0  0  0  0  0
   25.8421    4.7345    4.3769 C   0  0  0  0  0  0  0  0  0  0  0  0
   26.7730    5.3425    3.5835 C   0  0  0  0  0  0  0  0  0  0  0  0
   27.4237    6.4471    4.1155 C   0  0  0  0  0  0  0  0  0  0  0  0
   27.1283    6.9384    5.3940 C   0  0  0  0  0  0  0  0  0  0  0  0
   28.7760    7.1818    2.6724 H   0  0  0  0  0  0  0  0  0  0  0  0
  1  2  1  0  0  0
  1  8  1  0  0  0
  2  3  2  0  0  0
  3  9  1  0  0  0
  4  5  2  0  0  0
  4  9  1  0  0  0
  5  6  1  0  0  0
  6  7  2  0  0  0
  7  8  1  0  0  0
  8  9  2  0  0  0
  1 10  1  0  0  0
M  END
> <minimizedAffinity>
-5.50042

$$$$
185L_IND_A_400


 10 11  0  0  0  0  0  0  0  0999 V2000
   27.5824    7.7415    5.8077 N   0  0  0  0  0  0  0  0  0  0  0  0
   28.5424    8.3899    5.0821 C   0  0  0  0  0  0  0  0  0  0  0  0
   28.7527    7.7548    3.9071 C   0  0  0  0  0  0  0  0  0  0  0  0
   27.5606    5.6948    2.9247 C   0  0  0  0  0  0  0  0  0  0  0  0
   26.6377    4.7358    3.2342 C   0  0  0  0  0  0  0  0  0  0  0  0
   25.9662    4.7314    4.4391 C   0  0  0  0  0  0  0  0  0  0  0  0
   26.1859    5.6962    5.3807 C   0  0  0  0  0  0  0  0  0  0  0  0
   27.1283    6.6679    5.0735 C   0  0  0  0  0  0  0  0  0  0  0  0
   27.8440    6.6537    3.8690 C   0  0  0  0  0  0  0  0  0  0  0  0
   27.2681    7.9986    6.7046 H   0  0  0  0  0  0  0  0  0  0  0  0
  1  2  1  0  0  0
  1  8  1  0  0  0
  2  3  2  0  0  0
  3  9  1  0  0  0
  4  5  2  0  0  0
  4  9  1  0  0  0
  5  6  1  0  0  0
  6  7  2  0  0  0
  7  8  1  0  0  0
  8  9  2  0  0  0
  1 10  1  0  0  0
M  END
> <minimizedAffinity>
-4.94626

$$$$
185L_IND_A_400


 10 11  0  0  0  0  0  0  0  0999 V2000
   26.9273    6.7442    6.6728 N   0  0  0  0  0  0  0  0  0  0  0  0
   27.7102    7.8523    6.5052 C   0  0  0  0  0  0  0  0  0  0  0  0
   28.1707    7.9149    5.2355 C   0  0  0  0  0  0  0  0  0  0  0  0
   27.6818    6.3634    3.2396 C   0  0  0  0  0  0  0  0  0  0  0  0
   27.0507    5.1964    2.9126 C   0  0  0  0  0  0  0  0  0  0  0  0
   26.3286    4.4732    3.8391 C   0  0  0  0  0  0  0  0  0  0  0  0
   26.2014    4.8968    5.1314 C   0  0  0  0  0  0  0  0  0  0  0  0
   26.8473    6.0778    5.4697 C   0  0  0  0  0  0  0  0  0  0  0  0
   27.6169    6.7947    4.5438 C   0  0  0  0  0  0  0  0  0  0  0  0
   26.4934    6.4686    7.5124 H   0  0  0  0  0  0  0  0  0  0  0  0
  1  2  1  0  0  0
  1  8  1  0  0  0
  2  3  2  0  0  0
  3  9  1  0  0  0
  4  5  2  0  0  0
  4  9  1  0  0  0
  5  6  1  0  0  0
  6  7  2  0  0  0
  7  8  1  0  0  0
  8  9  2  0  0  0
  1 10  1  0  0  0
M  END
> <minimizedAffinity>
-4.02487

$$$$
