3UO4_0C0_A_1


 32 35  0  0  0  0  0  0  0  0999 V2000
    7.0161   27.8609    3.2994 N   0  0  0  0  0  0  0  0  0  0  0  0
    6.0229   28.9741    5.1055 N   0  0  0  0  0  0  0  0  0  0  0  0
    5.8794   27.9542    2.5906 C   0  0  0  0  0  0  0  0  0  0  0  0
    7.0715   28.3624    4.5373 C   0  0  0  0  0  0  0  0  0  0  0  0
    4.8603   29.0914    4.4301 C   0  0  0  0  0  0  0  0  0  0  0  0
    4.7616   28.5747    3.1390 C   0  0  0  0  0  0  0  0  0  0  0  0
    3.7121   29.7376    5.0133 N   0  0  0  0  0  0  0  0  0  0  0  0
    2.8769   29.7830    4.4940 H   0  0  0  0  0  0  0  0  0  0  0  0
    3.7453   30.3180    6.3272 C   0  0  0  0  0  0  0  0  0  0  0  0
    4.2754   29.5964    7.3867 C   0  0  0  0  0  0  0  0  0  0  0  0
    4.3043   30.1508    8.6580 C   0  0  0  0  0  0  0  0  0  0  0  0
    3.8040   31.4222    8.8861 C   0  0  0  0  0  0  0  0  0  0  0  0
    3.2705   32.1419    7.8291 C   0  0  0  0  0  0  0  0  0  0  0  0
    3.2382   31.5948    6.5532 C   0  0  0  0  0  0  0  0  0  0  0  0
    2.6601   32.4036    5.4379 C   0  0  0  0  0  0  0  0  0  0  0  0
    3.2677   32.4220    4.1904 C   0  0  0  0  0  0  0  0  0  0  0  0
    2.7143   33.1734    3.1654 C   0  0  0  0  0  0  0  0  0  0  0  0
    1.5557   33.9023    3.3876 C   0  0  0  0  0  0  0  0  0  0  0  0
    0.9461   33.8848    4.6314 C   0  0  0  0  0  0  0  0  0  0  0  0
    1.4990   33.1322    5.6553 C   0  0  0  0  0  0  0  0  0  0  0  0
    8.3251   28.2303    5.2265 N   0  0  0  0  0  0  0  0  0  0  0  0
    9.1150   28.6231    4.7894 H   0  0  0  0  0  0  0  0  0  0  0  0
    8.5399   27.5832    6.4875 C   0  0  0  0  0  0  0  0  0  0  0  0
    8.2555   28.2939    7.6464 C   0  0  0  0  0  0  0  0  0  0  0  0
    8.4317   27.7078    8.8900 C   0  0  0  0  0  0  0  0  0  0  0  0
    8.8935   26.4020    8.9768 C   0  0  0  0  0  0  0  0  0  0  0  0
    9.1733   25.6843    7.8190 C   0  0  0  0  0  0  0  0  0  0  0  0
    8.9926   26.2735    6.5737 C   0  0  0  0  0  0  0  0  0  0  0  0
    9.0853   25.7761   10.3187 C   0  0  0  0  0  0  0  0  0  0  0  0
    8.4974   24.6962   10.5940 O   0  0  0  0  0  0  0  0  0  0  0  0
    9.8332   26.3267   11.1741 O   0  0  0  0  0  0  0  0  0  0  0  0
   10.2695   27.1298   10.9673 H   0  0  0  0  0  0  0  0  0  0  0  0
 30 29  2  0  0  0
 31 29  1  0  0  0
 29 26  1  0  0  0
 12 11  2  0  0  0
 12 13  1  0  0  0
 11 10  1  0  0  0
 13 14  2  0  0  0
 26 27  2  0  0  0
 26 25  1  0  0  0
 27 28  1  0  0  0
 25 24  2  0  0  0
 10  9  2  0  0  0
 14  9  1  0  0  0
 14 15  1  0  0  0
 28 23  2  0  0  0
  9  7  1  0  0  0
 15 20  2  0  0  0
 15 16  1  0  0  0
 20 19  1  0  0  0
 24 23  1  0  0  0
 23 21  1  0  0  0
 16 17  2  0  0  0
 19 18  2  0  0  0
  7  5  1  0  0  0
 17 18  1  0  0  0
  2  5  2  0  0  0
  2  4  1  0  0  0
 21  4  1  0  0  0
  5  6  1  0  0  0
  4  1  2  0  0  0
  6  3  2  0  0  0
  1  3  1  0  0  0
  7  8  1  0  0  0
 21 22  1  0  0  0
 31 32  1  0  0  0
M  END
> <minimizedAffinity>
-10.88452

$$$$
3UO4_0C0_A_1


 32 35  0  0  0  0  0  0  0  0999 V2000
    3.5323   31.8190    8.8512 N   0  0  0  0  0  0  0  0  0  0  0  0
    4.2823   30.7102    6.9288 N   0  0  0  0  0  0  0  0  0  0  0  0
    3.9038   30.7818    9.6190 C   0  0  0  0  0  0  0  0  0  0  0  0
    3.7197   31.7686    7.5286 C   0  0  0  0  0  0  0  0  0  0  0  0
    4.6718   29.6453    7.6609 C   0  0  0  0  0  0  0  0  0  0  0  0
    4.4866   29.6578    9.0426 C   0  0  0  0  0  0  0  0  0  0  0  0
    5.2743   28.4892    7.0475 N   0  0  0  0  0  0  0  0  0  0  0  0
    4.6921   27.8169    6.6251 H   0  0  0  0  0  0  0  0  0  0  0  0
    6.6964   28.2844    7.0316 C   0  0  0  0  0  0  0  0  0  0  0  0
    7.3747   28.0637    8.2212 C   0  0  0  0  0  0  0  0  0  0  0  0
    8.7485   27.8711    8.2109 C   0  0  0  0  0  0  0  0  0  0  0  0
    9.4573   27.9003    7.0212 C   0  0  0  0  0  0  0  0  0  0  0  0
    8.7809   28.1250    5.8330 C   0  0  0  0  0  0  0  0  0  0  0  0
    7.4059   28.3181    5.8341 C   0  0  0  0  0  0  0  0  0  0  0  0
    6.7110   28.5520    4.5323 C   0  0  0  0  0  0  0  0  0  0  0  0
    6.4284   29.8414    4.1044 C   0  0  0  0  0  0  0  0  0  0  0  0
    5.7882   30.0401    2.8910 C   0  0  0  0  0  0  0  0  0  0  0  0
    5.4339   28.9520    2.1077 C   0  0  0  0  0  0  0  0  0  0  0  0
    5.7158   27.6637    2.5316 C   0  0  0  0  0  0  0  0  0  0  0  0
    6.3572   27.4658    3.7440 C   0  0  0  0  0  0  0  0  0  0  0  0
    3.3034   32.9210    6.7783 N   0  0  0  0  0  0  0  0  0  0  0  0
    3.3960   33.7955    7.2210 H   0  0  0  0  0  0  0  0  0  0  0  0
    2.7668   32.9237    5.4490 C   0  0  0  0  0  0  0  0  0  0  0  0
    1.5108   33.4821    5.2499 C   0  0  0  0  0  0  0  0  0  0  0  0
    0.9543   33.5231    3.9811 C   0  0  0  0  0  0  0  0  0  0  0  0
    1.6579   33.0042    2.9033 C   0  0  0  0  0  0  0  0  0  0  0  0
    2.9186   32.4500    3.0970 C   0  0  0  0  0  0  0  0  0  0  0  0
    3.4751   32.4134    4.3695 C   0  0  0  0  0  0  0  0  0  0  0  0
    1.0528   33.0471    1.5390 C   0  0  0  0  0  0  0  0  0  0  0  0
    0.2792   33.9918    1.2283 O   0  0  0  0  0  0  0  0  0  0  0  0
    1.3151   32.1404    0.7003 O   0  0  0  0  0  0  0  0  0  0  0  0
    1.8907   31.4388    0.9335 H   0  0  0  0  0  0  0  0  0  0  0  0
 30 29  2  0  0  0
 31 29  1  0  0  0
 29 26  1  0  0  0
 12 11  2  0  0  0
 12 13  1  0  0  0
 11 10  1  0  0  0
 13 14  2  0  0  0
 26 27  2  0  0  0
 26 25  1  0  0  0
 27 28  1  0  0  0
 25 24  2  0  0  0
 10  9  2  0  0  0
 14  9  1  0  0  0
 14 15  1  0  0  0
 28 23  2  0  0  0
  9  7  1  0  0  0
 15 20  2  0  0  0
 15 16  1  0  0  0
 20 19  1  0  0  0
 24 23  1  0  0  0
 23 21  1  0  0  0
 16 17  2  0  0  0
 19 18  2  0  0  0
  7  5  1  0  0  0
 17 18  1  0  0  0
  2  5  2  0  0  0
  2  4  1  0  0  0
 21  4  1  0  0  0
  5  6  1  0  0  0
  4  1  2  0  0  0
  6  3  2  0  0  0
  1  3  1  0  0  0
  7  8  1  0  0  0
 21 22  1  0  0  0
 31 32  1  0  0  0
M  END
> <minimizedAffinity>
-10.47096

$$$$
3UO4_0C0_A_1


 32 35  0  0  0  0  0  0  0  0999 V2000
    3.5685   31.5456    8.9251 N   0  0  0  0  0  0  0  0  0  0  0  0
    4.2877   30.6603    6.8790 N   0  0  0  0  0  0  0  0  0  0  0  0
    4.0440   30.4735    9.5792 C   0  0  0  0  0  0  0  0  0  0  0  0
    3.6905   31.6224    7.5962 C   0  0  0  0  0  0  0  0  0  0  0  0
    4.7810   29.5650    7.4943 C   0  0  0  0  0  0  0  0  0  0  0  0
    4.6667   29.4455    8.8785 C   0  0  0  0  0  0  0  0  0  0  0  0
    5.4234   28.5096    6.7530 N   0  0  0  0  0  0  0  0  0  0  0  0
    5.1809   27.5756    6.9479 H   0  0  0  0  0  0  0  0  0  0  0  0
    6.4061   28.7747    5.7388 C   0  0  0  0  0  0  0  0  0  0  0  0
    6.0419   29.4565    4.5871 C   0  0  0  0  0  0  0  0  0  0  0  0
    6.9863   29.7097    3.6029 C   0  0  0  0  0  0  0  0  0  0  0  0
    8.2958   29.2845    3.7541 C   0  0  0  0  0  0  0  0  0  0  0  0
    8.6594   28.5998    4.9024 C   0  0  0  0  0  0  0  0  0  0  0  0
    7.7206   28.3427    5.8928 C   0  0  0  0  0  0  0  0  0  0  0  0
    8.1518   27.6064    7.1193 C   0  0  0  0  0  0  0  0  0  0  0  0
    8.6304   26.3069    7.0312 C   0  0  0  0  0  0  0  0  0  0  0  0
    9.0315   25.6408    8.1788 C   0  0  0  0  0  0  0  0  0  0  0  0
    8.9557   26.2740    9.4102 C   0  0  0  0  0  0  0  0  0  0  0  0
    8.4797   27.5718    9.5012 C   0  0  0  0  0  0  0  0  0  0  0  0
    8.0803   28.2376    8.3534 C   0  0  0  0  0  0  0  0  0  0  0  0
    3.1641   32.8044    6.9718 N   0  0  0  0  0  0  0  0  0  0  0  0
    3.1487   33.6243    7.5166 H   0  0  0  0  0  0  0  0  0  0  0  0
    2.6589   32.9083    5.6343 C   0  0  0  0  0  0  0  0  0  0  0  0
    1.4013   33.4681    5.4497 C   0  0  0  0  0  0  0  0  0  0  0  0
    0.8745   33.6050    4.1750 C   0  0  0  0  0  0  0  0  0  0  0  0
    1.6096   33.1816    3.0768 C   0  0  0  0  0  0  0  0  0  0  0  0
    2.8720   32.6265    3.2563 C   0  0  0  0  0  0  0  0  0  0  0  0
    3.3987   32.4936    4.5351 C   0  0  0  0  0  0  0  0  0  0  0  0
    1.0364   33.3277    1.7058 C   0  0  0  0  0  0  0  0  0  0  0  0
    0.2411   34.2732    1.4588 O   0  0  0  0  0  0  0  0  0  0  0  0
    1.3472   32.5070    0.7979 O   0  0  0  0  0  0  0  0  0  0  0  0
    1.9388   31.8046    0.9838 H   0  0  0  0  0  0  0  0  0  0  0  0
 30 29  2  0  0  0
 31 29  1  0  0  0
 29 26  1  0  0  0
 12 11  2  0  0  0
 12 13  1  0  0  0
 11 10  1  0  0  0
 13 14  2  0  0  0
 26 27  2  0  0  0
 26 25  1  0  0  0
 27 28  1  0  0  0
 25 24  2  0  0  0
 10  9  2  0  0  0
 14  9  1  0  0  0
 14 15  1  0  0  0
 28 23  2  0  0  0
  9  7  1  0  0  0
 15 20  2  0  0  0
 15 16  1  0  0  0
 20 19  1  0  0  0
 24 23  1  0  0  0
 23 21  1  0  0  0
 16 17  2  0  0  0
 19 18  2  0  0  0
  7  5  1  0  0  0
 17 18  1  0  0  0
  2  5  2  0  0  0
  2  4  1  0  0  0
 21  4  1  0  0  0
  5  6  1  0  0  0
  4  1  2  0  0  0
  6  3  2  0  0  0
  1  3  1  0  0  0
  7  8  1  0  0  0
 21 22  1  0  0  0
 31 32  1  0  0  0
M  END
> <minimizedAffinity>
-10.45059

$$$$
3UO4_0C0_A_1


 32 35  0  0  0  0  0  0  0  0999 V2000
    7.9753   29.5257    1.5811 N   0  0  0  0  0  0  0  0  0  0  0  0
    6.6991   29.2391    3.5244 N   0  0  0  0  0  0  0  0  0  0  0  0
    6.8876   29.9228    0.9010 C   0  0  0  0  0  0  0  0  0  0  0  0
    7.8676   29.1874    2.8698 C   0  0  0  0  0  0  0  0  0  0  0  0
    5.5798   29.6328    2.8812 C   0  0  0  0  0  0  0  0  0  0  0  0
    5.6508   29.9870    1.5347 C   0  0  0  0  0  0  0  0  0  0  0  0
    4.3067   29.6939    3.5532 N   0  0  0  0  0  0  0  0  0  0  0  0
    3.8249   28.8552    3.7367 H   0  0  0  0  0  0  0  0  0  0  0  0
    3.7169   30.9379    3.9643 C   0  0  0  0  0  0  0  0  0  0  0  0
    3.1825   31.7952    3.0138 C   0  0  0  0  0  0  0  0  0  0  0  0
    2.6169   32.9998    3.4059 C   0  0  0  0  0  0  0  0  0  0  0  0
    2.5820   33.3621    4.7423 C   0  0  0  0  0  0  0  0  0  0  0  0
    3.1193   32.5082    5.6919 C   0  0  0  0  0  0  0  0  0  0  0  0
    3.6868   31.3003    5.3082 C   0  0  0  0  0  0  0  0  0  0  0  0
    4.2510   30.4035    6.3616 C   0  0  0  0  0  0  0  0  0  0  0  0
    5.3652   29.6193    6.0987 C   0  0  0  0  0  0  0  0  0  0  0  0
    5.8789   28.7973    7.0898 C   0  0  0  0  0  0  0  0  0  0  0  0
    5.2806   28.7620    8.3403 C   0  0  0  0  0  0  0  0  0  0  0  0
    4.1690   29.5448    8.6062 C   0  0  0  0  0  0  0  0  0  0  0  0
    3.6569   30.3674    7.6155 C   0  0  0  0  0  0  0  0  0  0  0  0
    9.0780   28.7818    3.5290 N   0  0  0  0  0  0  0  0  0  0  0  0
    9.9250   29.0301    3.0929 H   0  0  0  0  0  0  0  0  0  0  0  0
    9.1747   28.0513    4.7587 C   0  0  0  0  0  0  0  0  0  0  0  0
    9.4073   28.7636    5.9281 C   0  0  0  0  0  0  0  0  0  0  0  0
    9.4937   28.1055    7.1449 C   0  0  0  0  0  0  0  0  0  0  0  0
    9.3452   26.7266    7.1944 C   0  0  0  0  0  0  0  0  0  0  0  0
    9.1058   26.0101    6.0268 C   0  0  0  0  0  0  0  0  0  0  0  0
    9.0163   26.6730    4.8090 C   0  0  0  0  0  0  0  0  0  0  0  0
    9.4430   26.0216    8.5069 C   0  0  0  0  0  0  0  0  0  0  0  0
    9.7452   24.7989    8.5382 O   0  0  0  0  0  0  0  0  0  0  0  0
    9.2233   26.6481    9.5810 O   0  0  0  0  0  0  0  0  0  0  0  0
    8.9987   27.5574    9.5555 H   0  0  0  0  0  0  0  0  0  0  0  0
 30 29  2  0  0  0
 31 29  1  0  0  0
 29 26  1  0  0  0
 12 11  2  0  0  0
 12 13  1  0  0  0
 11 10  1  0  0  0
 13 14  2  0  0  0
 26 27  2  0  0  0
 26 25  1  0  0  0
 27 28  1  0  0  0
 25 24  2  0  0  0
 10  9  2  0  0  0
 14  9  1  0  0  0
 14 15  1  0  0  0
 28 23  2  0  0  0
  9  7  1  0  0  0
 15 20  2  0  0  0
 15 16  1  0  0  0
 20 19  1  0  0  0
 24 23  1  0  0  0
 23 21  1  0  0  0
 16 17  2  0  0  0
 19 18  2  0  0  0
  7  5  1  0  0  0
 17 18  1  0  0  0
  2  5  2  0  0  0
  2  4  1  0  0  0
 21  4  1  0  0  0
  5  6  1  0  0  0
  4  1  2  0  0  0
  6  3  2  0  0  0
  1  3  1  0  0  0
  7  8  1  0  0  0
 21 22  1  0  0  0
 31 32  1  0  0  0
M  END
> <minimizedAffinity>
-10.41688

$$$$
3UO4_0C0_A_1


 32 35  0  0  0  0  0  0  0  0999 V2000
    6.0655   27.3627    3.4474 N   0  0  0  0  0  0  0  0  0  0  0  0
    6.6647   29.2587    4.6857 N   0  0  0  0  0  0  0  0  0  0  0  0
    5.0277   28.0201    2.9048 C   0  0  0  0  0  0  0  0  0  0  0  0
    6.8598   27.9824    4.3259 C   0  0  0  0  0  0  0  0  0  0  0  0
    5.6346   29.9587    4.1655 C   0  0  0  0  0  0  0  0  0  0  0  0
    4.7801   29.3445    3.2511 C   0  0  0  0  0  0  0  0  0  0  0  0
    5.3928   31.3301    4.5350 N   0  0  0  0  0  0  0  0  0  0  0  0
    6.1343   31.8606    4.9065 H   0  0  0  0  0  0  0  0  0  0  0  0
    4.1057   31.9495    4.3795 C   0  0  0  0  0  0  0  0  0  0  0  0
    3.7504   32.5048    3.1591 C   0  0  0  0  0  0  0  0  0  0  0  0
    2.5109   33.1087    3.0063 C   0  0  0  0  0  0  0  0  0  0  0  0
    1.6187   33.1685    4.0641 C   0  0  0  0  0  0  0  0  0  0  0  0
    1.9745   32.6177    5.2847 C   0  0  0  0  0  0  0  0  0  0  0  0
    3.2130   32.0108    5.4462 C   0  0  0  0  0  0  0  0  0  0  0  0
    3.5585   31.4232    6.7758 C   0  0  0  0  0  0  0  0  0  0  0  0
    3.4752   32.1895    7.9296 C   0  0  0  0  0  0  0  0  0  0  0  0
    3.7940   31.6264    9.1555 C   0  0  0  0  0  0  0  0  0  0  0  0
    4.1930   30.3002    9.2264 C   0  0  0  0  0  0  0  0  0  0  0  0
    4.2758   29.5322    8.0765 C   0  0  0  0  0  0  0  0  0  0  0  0
    3.9555   30.0954    6.8514 C   0  0  0  0  0  0  0  0  0  0  0  0
    7.9526   27.2140    4.8545 N   0  0  0  0  0  0  0  0  0  0  0  0
    8.5620   26.8016    4.2004 H   0  0  0  0  0  0  0  0  0  0  0  0
    8.2436   26.9881    6.2399 C   0  0  0  0  0  0  0  0  0  0  0  0
    7.7908   27.9193    7.1655 C   0  0  0  0  0  0  0  0  0  0  0  0
    8.0329   27.7387    8.5183 C   0  0  0  0  0  0  0  0  0  0  0  0
    8.7307   26.6195    8.9498 C   0  0  0  0  0  0  0  0  0  0  0  0
    9.1804   25.6812    8.0270 C   0  0  0  0  0  0  0  0  0  0  0  0
    8.9333   25.8633    6.6720 C   0  0  0  0  0  0  0  0  0  0  0  0
    8.9925   26.4312   10.4077 C   0  0  0  0  0  0  0  0  0  0  0  0
    9.2392   27.4319   11.1323 O   0  0  0  0  0  0  0  0  0  0  0  0
    8.9671   25.2739   10.9121 O   0  0  0  0  0  0  0  0  0  0  0  0
    8.7835   24.5311   10.3713 H   0  0  0  0  0  0  0  0  0  0  0  0
 30 29  2  0  0  0
 31 29  1  0  0  0
 29 26  1  0  0  0
 12 11  2  0  0  0
 12 13  1  0  0  0
 11 10  1  0  0  0
 13 14  2  0  0  0
 26 27  2  0  0  0
 26 25  1  0  0  0
 27 28  1  0  0  0
 25 24  2  0  0  0
 10  9  2  0  0  0
 14  9  1  0  0  0
 14 15  1  0  0  0
 28 23  2  0  0  0
  9  7  1  0  0  0
 15 20  2  0  0  0
 15 16  1  0  0  0
 20 19  1  0  0  0
 24 23  1  0  0  0
 23 21  1  0  0  0
 16 17  2  0  0  0
 19 18  2  0  0  0
  7  5  1  0  0  0
 17 18  1  0  0  0
  2  5  2  0  0  0
  2  4  1  0  0  0
 21  4  1  0  0  0
  5  6  1  0  0  0
  4  1  2  0  0  0
  6  3  2  0  0  0
  1  3  1  0  0  0
  7  8  1  0  0  0
 21 22  1  0  0  0
 31 32  1  0  0  0
M  END
> <minimizedAffinity>
-10.40545

$$$$
3UO4_0C0_A_1


 32 35  0  0  0  0  0  0  0  0999 V2000
    3.5221   31.2571    8.8626 N   0  0  0  0  0  0  0  0  0  0  0  0
    4.1495   30.6860    6.6791 N   0  0  0  0  0  0  0  0  0  0  0  0
    4.2013   30.2079    9.3539 C   0  0  0  0  0  0  0  0  0  0  0  0
    3.5008   31.4778    7.5445 C   0  0  0  0  0  0  0  0  0  0  0  0
    4.8455   29.6203    7.1278 C   0  0  0  0  0  0  0  0  0  0  0  0
    4.8857   29.3534    8.4955 C   0  0  0  0  0  0  0  0  0  0  0  0
    5.5491   28.7455    6.2246 N   0  0  0  0  0  0  0  0  0  0  0  0
    6.0028   27.9511    6.5885 H   0  0  0  0  0  0  0  0  0  0  0  0
    5.6107   28.9936    4.8108 C   0  0  0  0  0  0  0  0  0  0  0  0
    4.4419   29.0250    4.0645 C   0  0  0  0  0  0  0  0  0  0  0  0
    4.4974   29.2588    2.6981 C   0  0  0  0  0  0  0  0  0  0  0  0
    5.7126   29.4587    2.0642 C   0  0  0  0  0  0  0  0  0  0  0  0
    6.8808   29.4234    2.8083 C   0  0  0  0  0  0  0  0  0  0  0  0
    6.8344   29.1907    4.1765 C   0  0  0  0  0  0  0  0  0  0  0  0
    8.1148   29.1654    4.9460 C   0  0  0  0  0  0  0  0  0  0  0  0
    8.8738   28.0058    5.0160 C   0  0  0  0  0  0  0  0  0  0  0  0
   10.0622   28.0020    5.7297 C   0  0  0  0  0  0  0  0  0  0  0  0
   10.4904   29.1554    6.3694 C   0  0  0  0  0  0  0  0  0  0  0  0
    9.7356   30.3150    6.3002 C   0  0  0  0  0  0  0  0  0  0  0  0
    8.5484   30.3186    5.5853 C   0  0  0  0  0  0  0  0  0  0  0  0
    2.7593   32.6250    7.0990 N   0  0  0  0  0  0  0  0  0  0  0  0
    2.4883   33.2730    7.7888 H   0  0  0  0  0  0  0  0  0  0  0  0
    2.3751   32.9196    5.7497 C   0  0  0  0  0  0  0  0  0  0  0  0
    1.2155   33.6557    5.5437 C   0  0  0  0  0  0  0  0  0  0  0  0
    0.8092   33.9799    4.2588 C   0  0  0  0  0  0  0  0  0  0  0  0
    1.5672   33.5675    3.1720 C   0  0  0  0  0  0  0  0  0  0  0  0
    2.7326   32.8358    3.3738 C   0  0  0  0  0  0  0  0  0  0  0  0
    3.1390   32.5153    4.6632 C   0  0  0  0  0  0  0  0  0  0  0  0
    1.1236   33.9158    1.7896 C   0  0  0  0  0  0  0  0  0  0  0  0
    0.0723   34.5899    1.6222 O   0  0  0  0  0  0  0  0  0  0  0  0
    1.7988   33.5362    0.7924 O   0  0  0  0  0  0  0  0  0  0  0  0
    2.5803   33.0350    0.9192 H   0  0  0  0  0  0  0  0  0  0  0  0
 30 29  2  0  0  0
 31 29  1  0  0  0
 29 26  1  0  0  0
 12 11  2  0  0  0
 12 13  1  0  0  0
 11 10  1  0  0  0
 13 14  2  0  0  0
 26 27  2  0  0  0
 26 25  1  0  0  0
 27 28  1  0  0  0
 25 24  2  0  0  0
 10  9  2  0  0  0
 14  9  1  0  0  0
 14 15  1  0  0  0
 28 23  2  0  0  0
  9  7  1  0  0  0
 15 20  2  0  0  0
 15 16  1  0  0  0
 20 19  1  0  0  0
 24 23  1  0  0  0
 23 21  1  0  0  0
 16 17  2  0  0  0
 19 18  2  0  0  0
  7  5  1  0  0  0
 17 18  1  0  0  0
  2  5  2  0  0  0
  2  4  1  0  0  0
 21  4  1  0  0  0
  5  6  1  0  0  0
  4  1  2  0  0  0
  6  3  2  0  0  0
  1  3  1  0  0  0
  7  8  1  0  0  0
 21 22  1  0  0  0
 31 32  1  0  0  0
M  END
> <minimizedAffinity>
-10.24908

$$$$
3UO4_0C0_A_1


 32 35  0  0  0  0  0  0  0  0999 V2000
    7.8076   29.5652    1.9066 N   0  0  0  0  0  0  0  0  0  0  0  0
    6.4668   29.5279    3.8271 N   0  0  0  0  0  0  0  0  0  0  0  0
    6.7307   29.7828    1.1343 C   0  0  0  0  0  0  0  0  0  0  0  0
    7.6629   29.4368    3.2292 C   0  0  0  0  0  0  0  0  0  0  0  0
    5.3570   29.7464    3.0907 C   0  0  0  0  0  0  0  0  0  0  0  0
    5.4667   29.8791    1.7072 C   0  0  0  0  0  0  0  0  0  0  0  0
    4.0553   29.8437    3.7005 N   0  0  0  0  0  0  0  0  0  0  0  0
    3.3034   29.3518    3.2981 H   0  0  0  0  0  0  0  0  0  0  0  0
    3.8177   30.6346    4.8763 C   0  0  0  0  0  0  0  0  0  0  0  0
    4.1016   30.1107    6.1289 C   0  0  0  0  0  0  0  0  0  0  0  0
    3.8686   30.8689    7.2671 C   0  0  0  0  0  0  0  0  0  0  0  0
    3.3491   32.1491    7.1691 C   0  0  0  0  0  0  0  0  0  0  0  0
    3.0613   32.6716    5.9185 C   0  0  0  0  0  0  0  0  0  0  0  0
    3.2921   31.9198    4.7741 C   0  0  0  0  0  0  0  0  0  0  0  0
    2.9743   32.5194    3.4430 C   0  0  0  0  0  0  0  0  0  0  0  0
    1.6701   32.5366    2.9694 C   0  0  0  0  0  0  0  0  0  0  0  0
    1.3926   33.1022    1.7347 C   0  0  0  0  0  0  0  0  0  0  0  0
    2.4167   33.6507    0.9774 C   0  0  0  0  0  0  0  0  0  0  0  0
    3.7195   33.6363    1.4481 C   0  0  0  0  0  0  0  0  0  0  0  0
    3.9961   33.0720    2.6833 C   0  0  0  0  0  0  0  0  0  0  0  0
    8.8636   29.2143    3.9863 N   0  0  0  0  0  0  0  0  0  0  0  0
    9.6849   29.6409    3.6507 H   0  0  0  0  0  0  0  0  0  0  0  0
    8.9842   28.4327    5.1820 C   0  0  0  0  0  0  0  0  0  0  0  0
    9.0740   27.0524    5.0571 C   0  0  0  0  0  0  0  0  0  0  0  0
    9.2075   26.2534    6.1818 C   0  0  0  0  0  0  0  0  0  0  0  0
    9.2533   26.8371    7.4400 C   0  0  0  0  0  0  0  0  0  0  0  0
    9.1702   28.2193    7.5694 C   0  0  0  0  0  0  0  0  0  0  0  0
    9.0398   29.0178    6.4398 C   0  0  0  0  0  0  0  0  0  0  0  0
    9.3933   25.9721    8.6489 C   0  0  0  0  0  0  0  0  0  0  0  0
    9.7250   24.7638    8.5173 O   0  0  0  0  0  0  0  0  0  0  0  0
    9.1798   26.4494    9.7982 O   0  0  0  0  0  0  0  0  0  0  0  0
    8.9331   27.3483    9.8938 H   0  0  0  0  0  0  0  0  0  0  0  0
 30 29  2  0  0  0
 31 29  1  0  0  0
 29 26  1  0  0  0
 12 11  2  0  0  0
 12 13  1  0  0  0
 11 10  1  0  0  0
 13 14  2  0  0  0
 26 27  2  0  0  0
 26 25  1  0  0  0
 27 28  1  0  0  0
 25 24  2  0  0  0
 10  9  2  0  0  0
 14  9  1  0  0  0
 14 15  1  0  0  0
 28 23  2  0  0  0
  9  7  1  0  0  0
 15 20  2  0  0  0
 15 16  1  0  0  0
 20 19  1  0  0  0
 24 23  1  0  0  0
 23 21  1  0  0  0
 16 17  2  0  0  0
 19 18  2  0  0  0
  7  5  1  0  0  0
 17 18  1  0  0  0
  2  5  2  0  0  0
  2  4  1  0  0  0
 21  4  1  0  0  0
  5  6  1  0  0  0
  4  1  2  0  0  0
  6  3  2  0  0  0
  1  3  1  0  0  0
  7  8  1  0  0  0
 21 22  1  0  0  0
 31 32  1  0  0  0
M  END
> <minimizedAffinity>
-10.18318

$$$$
3UO4_0C0_A_1


 32 35  0  0  0  0  0  0  0  0999 V2000
    5.4976   29.8822    0.9643 N   0  0  0  0  0  0  0  0  0  0  0  0
    7.0834   29.2973    2.5862 N   0  0  0  0  0  0  0  0  0  0  0  0
    6.4721   30.1793    0.0894 C   0  0  0  0  0  0  0  0  0  0  0  0
    5.8123   29.4541    2.1909 C   0  0  0  0  0  0  0  0  0  0  0  0
    8.0954   29.5832    1.7402 C   0  0  0  0  0  0  0  0  0  0  0  0
    7.8071   30.0388    0.4545 C   0  0  0  0  0  0  0  0  0  0  0  0
    9.4728   29.4316    2.1347 N   0  0  0  0  0  0  0  0  0  0  0  0
    9.9330   30.1921    2.5580 H   0  0  0  0  0  0  0  0  0  0  0  0
   10.1974   28.2077    1.9312 C   0  0  0  0  0  0  0  0  0  0  0  0
   10.7599   27.9370    0.6925 C   0  0  0  0  0  0  0  0  0  0  0  0
   11.4556   26.7539    0.4902 C   0  0  0  0  0  0  0  0  0  0  0  0
   11.5935   25.8313    1.5140 C   0  0  0  0  0  0  0  0  0  0  0  0
   11.0283   26.0991    2.7504 C   0  0  0  0  0  0  0  0  0  0  0  0
   10.3309   27.2811    2.9618 C   0  0  0  0  0  0  0  0  0  0  0  0
    9.7403   27.5368    4.3102 C   0  0  0  0  0  0  0  0  0  0  0  0
   10.3803   28.3724    5.2145 C   0  0  0  0  0  0  0  0  0  0  0  0
    9.8150   28.6031    6.4590 C   0  0  0  0  0  0  0  0  0  0  0  0
    8.6122   28.0010    6.7964 C   0  0  0  0  0  0  0  0  0  0  0  0
    7.9702   27.1674    5.8953 C   0  0  0  0  0  0  0  0  0  0  0  0
    8.5351   26.9384    4.6507 C   0  0  0  0  0  0  0  0  0  0  0  0
    4.7133   29.1493    3.0646 N   0  0  0  0  0  0  0  0  0  0  0  0
    4.1214   28.4114    2.7918 H   0  0  0  0  0  0  0  0  0  0  0  0
    4.3931   29.8130    4.2942 C   0  0  0  0  0  0  0  0  0  0  0  0
    3.6098   30.9584    4.2367 C   0  0  0  0  0  0  0  0  0  0  0  0
    3.2596   31.6280    5.3987 C   0  0  0  0  0  0  0  0  0  0  0  0
    3.6935   31.1494    6.6269 C   0  0  0  0  0  0  0  0  0  0  0  0
    4.4726   29.9991    6.6898 C   0  0  0  0  0  0  0  0  0  0  0  0
    4.8191   29.3282    5.5235 C   0  0  0  0  0  0  0  0  0  0  0  0
    3.3170   31.8762    7.8757 C   0  0  0  0  0  0  0  0  0  0  0  0
    3.7801   31.4952    8.9838 O   0  0  0  0  0  0  0  0  0  0  0  0
    2.5377   32.8681    7.8215 O   0  0  0  0  0  0  0  0  0  0  0  0
    2.1945   33.1497    6.9963 H   0  0  0  0  0  0  0  0  0  0  0  0
 30 29  2  0  0  0
 31 29  1  0  0  0
 29 26  1  0  0  0
 12 11  2  0  0  0
 12 13  1  0  0  0
 11 10  1  0  0  0
 13 14  2  0  0  0
 26 27  2  0  0  0
 26 25  1  0  0  0
 27 28  1  0  0  0
 25 24  2  0  0  0
 10  9  2  0  0  0
 14  9  1  0  0  0
 14 15  1  0  0  0
 28 23  2  0  0  0
  9  7  1  0  0  0
 15 20  2  0  0  0
 15 16  1  0  0  0
 20 19  1  0  0  0
 24 23  1  0  0  0
 23 21  1  0  0  0
 16 17  2  0  0  0
 19 18  2  0  0  0
  7  5  1  0  0  0
 17 18  1  0  0  0
  2  5  2  0  0  0
  2  4  1  0  0  0
 21  4  1  0  0  0
  5  6  1  0  0  0
  4  1  2  0  0  0
  6  3  2  0  0  0
  1  3  1  0  0  0
  7  8  1  0  0  0
 21 22  1  0  0  0
 31 32  1  0  0  0
M  END
> <minimizedAffinity>
-10.16684

$$$$
3UO4_0C0_A_1


 32 35  0  0  0  0  0  0  0  0999 V2000
    8.6659   28.4013    7.1242 N   0  0  0  0  0  0  0  0  0  0  0  0
    7.8928   26.8957    5.5047 N   0  0  0  0  0  0  0  0  0  0  0  0
    9.8811   28.4232    6.5531 C   0  0  0  0  0  0  0  0  0  0  0  0
    7.6984   27.6417    6.6012 C   0  0  0  0  0  0  0  0  0  0  0  0
    9.0979   26.8871    4.8970 C   0  0  0  0  0  0  0  0  0  0  0  0
   10.1341   27.6613    5.4169 C   0  0  0  0  0  0  0  0  0  0  0  0
    9.3427   26.0922    3.7205 N   0  0  0  0  0  0  0  0  0  0  0  0
    8.9620   25.1856    3.6712 H   0  0  0  0  0  0  0  0  0  0  0  0
   10.1237   26.5782    2.6168 C   0  0  0  0  0  0  0  0  0  0  0  0
   11.4237   26.1277    2.4405 C   0  0  0  0  0  0  0  0  0  0  0  0
   12.1832   26.5987    1.3794 C   0  0  0  0  0  0  0  0  0  0  0  0
   11.6587   27.5218    0.4899 C   0  0  0  0  0  0  0  0  0  0  0  0
   10.3616   27.9754    0.6677 C   0  0  0  0  0  0  0  0  0  0  0  0
    9.5943   27.5088    1.7268 C   0  0  0  0  0  0  0  0  0  0  0  0
    8.1979   28.0171    1.8825 C   0  0  0  0  0  0  0  0  0  0  0  0
    7.1223   27.2864    1.3981 C   0  0  0  0  0  0  0  0  0  0  0  0
    5.8330   27.7705    1.5565 C   0  0  0  0  0  0  0  0  0  0  0  0
    5.6210   28.9808    2.1993 C   0  0  0  0  0  0  0  0  0  0  0  0
    6.6927   29.7119    2.6852 C   0  0  0  0  0  0  0  0  0  0  0  0
    7.9812   29.2267    2.5278 C   0  0  0  0  0  0  0  0  0  0  0  0
    6.4248   27.6794    7.2651 N   0  0  0  0  0  0  0  0  0  0  0  0
    6.1516   26.8656    7.7470 H   0  0  0  0  0  0  0  0  0  0  0  0
    5.5123   28.7847    7.2953 C   0  0  0  0  0  0  0  0  0  0  0  0
    5.2308   29.4357    6.1013 C   0  0  0  0  0  0  0  0  0  0  0  0
    4.3435   30.5003    6.0748 C   0  0  0  0  0  0  0  0  0  0  0  0
    3.7318   30.9164    7.2489 C   0  0  0  0  0  0  0  0  0  0  0  0
    4.0057   30.2633    8.4458 C   0  0  0  0  0  0  0  0  0  0  0  0
    4.8931   29.1944    8.4684 C   0  0  0  0  0  0  0  0  0  0  0  0
    2.7796   32.0660    7.2162 C   0  0  0  0  0  0  0  0  0  0  0  0
    2.3633   32.5009    6.1094 O   0  0  0  0  0  0  0  0  0  0  0  0
    2.3934   32.6002    8.2931 O   0  0  0  0  0  0  0  0  0  0  0  0
    2.7042   32.2752    9.1151 H   0  0  0  0  0  0  0  0  0  0  0  0
 30 29  2  0  0  0
 31 29  1  0  0  0
 29 26  1  0  0  0
 12 11  2  0  0  0
 12 13  1  0  0  0
 11 10  1  0  0  0
 13 14  2  0  0  0
 26 27  2  0  0  0
 26 25  1  0  0  0
 27 28  1  0  0  0
 25 24  2  0  0  0
 10  9  2  0  0  0
 14  9  1  0  0  0
 14 15  1  0  0  0
 28 23  2  0  0  0
  9  7  1  0  0  0
 15 20  2  0  0  0
 15 16  1  0  0  0
 20 19  1  0  0  0
 24 23  1  0  0  0
 23 21  1  0  0  0
 16 17  2  0  0  0
 19 18  2  0  0  0
  7  5  1  0  0  0
 17 18  1  0  0  0
  2  5  2  0  0  0
  2  4  1  0  0  0
 21  4  1  0  0  0
  5  6  1  0  0  0
  4  1  2  0  0  0
  6  3  2  0  0  0
  1  3  1  0  0  0
  7  8  1  0  0  0
 21 22  1  0  0  0
 31 32  1  0  0  0
M  END
> <minimizedAffinity>
-9.88881

$$$$
3UO4_0C0_A_1


 32 35  0  0  0  0  0  0  0  0999 V2000
    4.8395   28.4114    3.3269 N   0  0  0  0  0  0  0  0  0  0  0  0
    6.7625   29.6331    3.8715 N   0  0  0  0  0  0  0  0  0  0  0  0
    5.4969   27.7764    2.3431 C   0  0  0  0  0  0  0  0  0  0  0  0
    5.4727   29.3261    4.0679 C   0  0  0  0  0  0  0  0  0  0  0  0
    7.4631   29.0197    2.8945 C   0  0  0  0  0  0  0  0  0  0  0  0
    6.8353   28.0647    2.0961 C   0  0  0  0  0  0  0  0  0  0  0  0
    8.8490   29.3303    2.6525 N   0  0  0  0  0  0  0  0  0  0  0  0
    9.1673   30.2469    2.8192 H   0  0  0  0  0  0  0  0  0  0  0  0
    9.7822   28.3471    2.1762 C   0  0  0  0  0  0  0  0  0  0  0  0
   10.1624   28.3464    0.8422 C   0  0  0  0  0  0  0  0  0  0  0  0
   11.0589   27.3954    0.3769 C   0  0  0  0  0  0  0  0  0  0  0  0
   11.5800   26.4378    1.2313 C   0  0  0  0  0  0  0  0  0  0  0  0
   11.1974   26.4353    2.5631 C   0  0  0  0  0  0  0  0  0  0  0  0
   10.3011   27.3839    3.0372 C   0  0  0  0  0  0  0  0  0  0  0  0
    9.9168   27.3525    4.4808 C   0  0  0  0  0  0  0  0  0  0  0  0
    9.1452   26.3145    4.9837 C   0  0  0  0  0  0  0  0  0  0  0  0
    8.8028   26.2984    6.3268 C   0  0  0  0  0  0  0  0  0  0  0  0
    9.2329   27.3168    7.1641 C   0  0  0  0  0  0  0  0  0  0  0  0
   10.0044   28.3536    6.6653 C   0  0  0  0  0  0  0  0  0  0  0  0
   10.3476   28.3683    5.3228 C   0  0  0  0  0  0  0  0  0  0  0  0
    4.7029   29.9544    5.1057 N   0  0  0  0  0  0  0  0  0  0  0  0
    4.8086   29.5945    6.0159 H   0  0  0  0  0  0  0  0  0  0  0  0
    3.7962   31.0534    4.9471 C   0  0  0  0  0  0  0  0  0  0  0  0
    3.2243   31.6018    6.0878 C   0  0  0  0  0  0  0  0  0  0  0  0
    2.3532   32.6754    5.9892 C   0  0  0  0  0  0  0  0  0  0  0  0
    2.0525   33.2062    4.7428 C   0  0  0  0  0  0  0  0  0  0  0  0
    2.6279   32.6645    3.5984 C   0  0  0  0  0  0  0  0  0  0  0  0
    3.5033   31.5904    3.7008 C   0  0  0  0  0  0  0  0  0  0  0  0
    1.1107   34.3603    4.6412 C   0  0  0  0  0  0  0  0  0  0  0  0
    0.3986   34.4965    3.6107 O   0  0  0  0  0  0  0  0  0  0  0  0
    1.0284   35.1964    5.5838 O   0  0  0  0  0  0  0  0  0  0  0  0
    1.5589   35.0932    6.3492 H   0  0  0  0  0  0  0  0  0  0  0  0
 30 29  2  0  0  0
 31 29  1  0  0  0
 29 26  1  0  0  0
 12 11  2  0  0  0
 12 13  1  0  0  0
 11 10  1  0  0  0
 13 14  2  0  0  0
 26 27  2  0  0  0
 26 25  1  0  0  0
 27 28  1  0  0  0
 25 24  2  0  0  0
 10  9  2  0  0  0
 14  9  1  0  0  0
 14 15  1  0  0  0
 28 23  2  0  0  0
  9  7  1  0  0  0
 15 20  2  0  0  0
 15 16  1  0  0  0
 20 19  1  0  0  0
 24 23  1  0  0  0
 23 21  1  0  0  0
 16 17  2  0  0  0
 19 18  2  0  0  0
  7  5  1  0  0  0
 17 18  1  0  0  0
  2  5  2  0  0  0
  2  4  1  0  0  0
 21  4  1  0  0  0
  5  6  1  0  0  0
  4  1  2  0  0  0
  6  3  2  0  0  0
  1  3  1  0  0  0
  7  8  1  0  0  0
 21 22  1  0  0  0
 31 32  1  0  0  0
M  END
> <minimizedAffinity>
-9.81112

$$$$
