1S39_AQO_A_900


 15 16  0  0  0  0  0  0  0  0999 V2000
   18.4503   17.3305   19.3464 C   0  0  0  0  0  0  0  0  0  0  0  0
   17.1775   16.8591   18.9023 C   0  0  0  0  0  0  0  0  0  0  0  0
   16.1221   16.6601   19.8254 C   0  0  0  0  0  0  0  0  0  0  0  0
   16.3100   16.9286   21.2211 C   0  0  0  0  0  0  0  0  0  0  0  0
   15.2494   16.7275   22.1129 N   0  0  0  0  0  0  0  0  0  0  0  0
   15.3972   16.9670   23.3970 C   0  0  0  0  0  0  0  0  0  0  0  0
   14.3617   16.7797   24.3183 N   0  0  0  0  0  0  0  0  0  0  0  0
   16.6465   17.4465   23.9540 N   0  0  0  0  0  0  0  0  0  0  0  0
   17.7953   17.6811   23.0983 C   0  0  0  0  0  0  0  0  0  0  0  0
   18.8528   18.0919   23.6083 O   0  0  0  0  0  0  0  0  0  0  0  0
   17.6016   17.4055   21.6663 C   0  0  0  0  0  0  0  0  0  0  0  0
   18.6574   17.6006   20.7191 C   0  0  0  0  0  0  0  0  0  0  0  0
   13.4836   16.4557   24.0128 H   0  0  0  0  0  0  0  0  0  0  0  0
   14.5108   16.9717   25.2723 H   0  0  0  0  0  0  0  0  0  0  0  0
   16.7165   17.6145   24.9216 H   0  0  0  0  0  0  0  0  0  0  0  0
  1  2  2  0  0  0
  1 12  1  0  0  0
  2  3  1  0  0  0
  3  4  2  0  0  0
  4  5  1  0  0  0
  4 11  1  0  0  0
  5  6  2  0  0  0
  6  7  1  0  0  0
  6  8  1  0  0  0
  8  9  1  0  0  0
  9 10  2  0  0  0
  9 11  1  0  0  0
 11 12  2  0  0  0
  7 13  1  0  0  0
  7 14  1  0  0  0
  8 15  1  0  0  0
M  END
> <minimizedAffinity>
-8.03192

$$$$
1S39_AQO_A_900


 15 16  0  0  0  0  0  0  0  0999 V2000
   17.5653   17.4579   23.3682 C   0  0  0  0  0  0  0  0  0  0  0  0
   16.1888   17.0851   23.4444 C   0  0  0  0  0  0  0  0  0  0  0  0
   15.4590   16.7845   22.2685 C   0  0  0  0  0  0  0  0  0  0  0  0
   16.0868   16.8472   20.9812 C   0  0  0  0  0  0  0  0  0  0  0  0
   15.3443   16.5414   19.8341 N   0  0  0  0  0  0  0  0  0  0  0  0
   15.8979   16.5915   18.6428 C   0  0  0  0  0  0  0  0  0  0  0  0
   15.1898   16.2920   17.4743 N   0  0  0  0  0  0  0  0  0  0  0  0
   17.2868   16.9592   18.4518 N   0  0  0  0  0  0  0  0  0  0  0  0
   18.1264   17.2907   19.5885 C   0  0  0  0  0  0  0  0  0  0  0  0
   19.3139   17.6029   19.3899 O   0  0  0  0  0  0  0  0  0  0  0  0
   17.4815   17.2259   20.9092 C   0  0  0  0  0  0  0  0  0  0  0  0
   18.2038   17.5270   22.1082 C   0  0  0  0  0  0  0  0  0  0  0  0
   14.2412   16.0339   17.5261 H   0  0  0  0  0  0  0  0  0  0  0  0
   15.6401   16.3393   16.6001 H   0  0  0  0  0  0  0  0  0  0  0  0
   17.6642   16.9842   17.5428 H   0  0  0  0  0  0  0  0  0  0  0  0
  1  2  2  0  0  0
  1 12  1  0  0  0
  2  3  1  0  0  0
  3  4  2  0  0  0
  4  5  1  0  0  0
  4 11  1  0  0  0
  5  6  2  0  0  0
  6  7  1  0  0  0
  6  8  1  0  0  0
  8  9  1  0  0  0
  9 10  2  0  0  0
  9 11  1  0  0  0
 11 12  2  0  0  0
  7 13  1  0  0  0
  7 14  1  0  0  0
  8 15  1  0  0  0
M  END
> <minimizedAffinity>
-6.51407

$$$$
1S39_AQO_A_900


 15 16  0  0  0  0  0  0  0  0999 V2000
   16.2610   16.8946   17.5752 C   0  0  0  0  0  0  0  0  0  0  0  0
   15.1151   16.5191   18.3403 C   0  0  0  0  0  0  0  0  0  0  0  0
   15.1659   16.5125   19.7556 C   0  0  0  0  0  0  0  0  0  0  0  0
   16.3661   16.8830   20.4467 C   0  0  0  0  0  0  0  0  0  0  0  0
   16.3893   16.8721   21.8467 N   0  0  0  0  0  0  0  0  0  0  0  0
   17.4778   17.2081   22.5028 C   0  0  0  0  0  0  0  0  0  0  0  0
   17.5397   17.2108   23.9002 N   0  0  0  0  0  0  0  0  0  0  0  0
   18.6964   17.6040   21.8253 N   0  0  0  0  0  0  0  0  0  0  0  0
   18.7567   17.6422   20.3755 C   0  0  0  0  0  0  0  0  0  0  0  0
   19.8181   17.9856   19.8253 O   0  0  0  0  0  0  0  0  0  0  0  0
   17.5247   17.2621   19.6670 C   0  0  0  0  0  0  0  0  0  0  0  0
   17.4555   17.2626   18.2369 C   0  0  0  0  0  0  0  0  0  0  0  0
   16.7498   16.9532   24.4284 H   0  0  0  0  0  0  0  0  0  0  0  0
   18.3730   17.4704   24.3555 H   0  0  0  0  0  0  0  0  0  0  0  0
   19.4905   17.8491   22.3531 H   0  0  0  0  0  0  0  0  0  0  0  0
  1  2  2  0  0  0
  1 12  1  0  0  0
  2  3  1  0  0  0
  3  4  2  0  0  0
  4  5  1  0  0  0
  4 11  1  0  0  0
  5  6  2  0  0  0
  6  7  1  0  0  0
  6  8  1  0  0  0
  8  9  1  0  0  0
  9 10  2  0  0  0
  9 11  1  0  0  0
 11 12  2  0  0  0
  7 13  1  0  0  0
  7 14  1  0  0  0
  8 15  1  0  0  0
M  END
> <minimizedAffinity>
-6.31986

$$$$
1S39_AQO_A_900


 15 16  0  0  0  0  0  0  0  0999 V2000
   15.4073   17.0073   23.2782 C   0  0  0  0  0  0  0  0  0  0  0  0
   16.6516   17.2068   23.9500 C   0  0  0  0  0  0  0  0  0  0  0  0
   17.8628   17.2649   23.2183 C   0  0  0  0  0  0  0  0  0  0  0  0
   17.8634   17.1260   21.7915 C   0  0  0  0  0  0  0  0  0  0  0  0
   19.0740   17.1912   21.0909 N   0  0  0  0  0  0  0  0  0  0  0  0
   19.1000   17.0670   19.7824 C   0  0  0  0  0  0  0  0  0  0  0  0
   20.2885   17.1278   19.0475 N   0  0  0  0  0  0  0  0  0  0  0  0
   17.8960   16.8601   19.0025 N   0  0  0  0  0  0  0  0  0  0  0  0
   16.5999   16.7807   19.6512 C   0  0  0  0  0  0  0  0  0  0  0  0
   15.5864   16.6016   18.9528 O   0  0  0  0  0  0  0  0  0  0  0  0
   16.6001   16.9235   21.1154 C   0  0  0  0  0  0  0  0  0  0  0  0
   15.3854   16.8669   21.8711 C   0  0  0  0  0  0  0  0  0  0  0  0
   21.1466   17.2663   19.5098 H   0  0  0  0  0  0  0  0  0  0  0  0
   20.2670   17.0319   18.0679 H   0  0  0  0  0  0  0  0  0  0  0  0
   17.9578   16.7725   18.0238 H   0  0  0  0  0  0  0  0  0  0  0  0
  1  2  2  0  0  0
  1 12  1  0  0  0
  2  3  1  0  0  0
  3  4  2  0  0  0
  4  5  1  0  0  0
  4 11  1  0  0  0
  5  6  2  0  0  0
  6  7  1  0  0  0
  6  8  1  0  0  0
  8  9  1  0  0  0
  9 10  2  0  0  0
  9 11  1  0  0  0
 11 12  2  0  0  0
  7 13  1  0  0  0
  7 14  1  0  0  0
  8 15  1  0  0  0
M  END
> <minimizedAffinity>
-6.02379

$$$$
1S39_AQO_A_900


 15 16  0  0  0  0  0  0  0  0999 V2000
   15.0689   15.0865   18.9447 C   0  0  0  0  0  0  0  0  0  0  0  0
   13.9415   14.2174   19.0594 C   0  0  0  0  0  0  0  0  0  0  0  0
   12.8117   14.3907   18.2233 C   0  0  0  0  0  0  0  0  0  0  0  0
   12.7780   15.4394   17.2463 C   0  0  0  0  0  0  0  0  0  0  0  0
   11.6507   15.5872   16.4290 N   0  0  0  0  0  0  0  0  0  0  0  0
   11.5966   16.5409   15.5258 C   0  0  0  0  0  0  0  0  0  0  0  0
   10.4892   16.7196   14.6904 N   0  0  0  0  0  0  0  0  0  0  0  0
   12.6841   17.4782   15.3267 N   0  0  0  0  0  0  0  0  0  0  0  0
   13.8887   17.3942   16.1322 C   0  0  0  0  0  0  0  0  0  0  0  0
   14.8029   18.2146   15.9365 O   0  0  0  0  0  0  0  0  0  0  0  0
   13.9225   16.3177   17.1343 C   0  0  0  0  0  0  0  0  0  0  0  0
   15.0561   16.1281   17.9882 C   0  0  0  0  0  0  0  0  0  0  0  0
    9.7121   16.1202   14.7681 H   0  0  0  0  0  0  0  0  0  0  0  0
   10.4868   17.4449   14.0246 H   0  0  0  0  0  0  0  0  0  0  0  0
   12.6049   18.1782   14.6390 H   0  0  0  0  0  0  0  0  0  0  0  0
  1  2  2  0  0  0
  1 12  1  0  0  0
  2  3  1  0  0  0
  3  4  2  0  0  0
  4  5  1  0  0  0
  4 11  1  0  0  0
  5  6  2  0  0  0
  6  7  1  0  0  0
  6  8  1  0  0  0
  8  9  1  0  0  0
  9 10  2  0  0  0
  9 11  1  0  0  0
 11 12  2  0  0  0
  7 13  1  0  0  0
  7 14  1  0  0  0
  8 15  1  0  0  0
M  END
> <minimizedAffinity>
-5.74980

$$$$
1S39_AQO_A_900


 15 16  0  0  0  0  0  0  0  0999 V2000
   18.7235   17.5202   18.5431 C   0  0  0  0  0  0  0  0  0  0  0  0
   19.5352   17.9382   19.6413 C   0  0  0  0  0  0  0  0  0  0  0  0
   19.0319   17.8967   20.9644 C   0  0  0  0  0  0  0  0  0  0  0  0
   17.7006   17.4342   21.2270 C   0  0  0  0  0  0  0  0  0  0  0  0
   17.2281   17.3991   22.5446 N   0  0  0  0  0  0  0  0  0  0  0  0
   16.0112   16.9786   22.8106 C   0  0  0  0  0  0  0  0  0  0  0  0
   15.5039   16.9279   24.1131 N   0  0  0  0  0  0  0  0  0  0  0  0
   15.1041   16.5332   21.7716 N   0  0  0  0  0  0  0  0  0  0  0  0
   15.5156   16.5375   20.3797 C   0  0  0  0  0  0  0  0  0  0  0  0
   14.7125   16.1497   19.5126 O   0  0  0  0  0  0  0  0  0  0  0  0
   16.8819   17.0122   20.1110 C   0  0  0  0  0  0  0  0  0  0  0  0
   17.4069   17.0613   18.7798 C   0  0  0  0  0  0  0  0  0  0  0  0
   16.0633   17.2148   24.8707 H   0  0  0  0  0  0  0  0  0  0  0  0
   14.5875   16.6051   24.2722 H   0  0  0  0  0  0  0  0  0  0  0  0
   14.2006   16.2249   22.0122 H   0  0  0  0  0  0  0  0  0  0  0  0
  1  2  2  0  0  0
  1 12  1  0  0  0
  2  3  1  0  0  0
  3  4  2  0  0  0
  4  5  1  0  0  0
  4 11  1  0  0  0
  5  6  2  0  0  0
  6  7  1  0  0  0
  6  8  1  0  0  0
  8  9  1  0  0  0
  9 10  2  0  0  0
  9 11  1  0  0  0
 11 12  2  0  0  0
  7 13  1  0  0  0
  7 14  1  0  0  0
  8 15  1  0  0  0
M  END
> <minimizedAffinity>
-5.74821

$$$$
1S39_AQO_A_900


 15 16  0  0  0  0  0  0  0  0999 V2000
   11.8732   15.3657   15.8778 C   0  0  0  0  0  0  0  0  0  0  0  0
   12.4923   16.5300   15.3295 C   0  0  0  0  0  0  0  0  0  0  0  0
   13.6698   17.0599   15.9110 C   0  0  0  0  0  0  0  0  0  0  0  0
   14.2631   16.4384   17.0587 C   0  0  0  0  0  0  0  0  0  0  0  0
   15.4297   16.9796   17.6125 N   0  0  0  0  0  0  0  0  0  0  0  0
   15.9924   16.4273   18.6644 C   0  0  0  0  0  0  0  0  0  0  0  0
   17.1581   16.9375   19.2451 N   0  0  0  0  0  0  0  0  0  0  0  0
   15.4466   15.2448   19.3003 N   0  0  0  0  0  0  0  0  0  0  0  0
   14.2399   14.6210   18.7887 C   0  0  0  0  0  0  0  0  0  0  0  0
   13.7973   13.6076   19.3582 O   0  0  0  0  0  0  0  0  0  0  0  0
   13.6318   15.2592   17.6109 C   0  0  0  0  0  0  0  0  0  0  0  0
   12.4414   14.7375   17.0104 C   0  0  0  0  0  0  0  0  0  0  0  0
   17.5861   17.7395   18.8670 H   0  0  0  0  0  0  0  0  0  0  0  0
   17.5507   16.4947   20.0319 H   0  0  0  0  0  0  0  0  0  0  0  0
   15.8984   14.8610   20.0863 H   0  0  0  0  0  0  0  0  0  0  0  0
  1  2  2  0  0  0
  1 12  1  0  0  0
  2  3  1  0  0  0
  3  4  2  0  0  0
  4  5  1  0  0  0
  4 11  1  0  0  0
  5  6  2  0  0  0
  6  7  1  0  0  0
  6  8  1  0  0  0
  8  9  1  0  0  0
  9 10  2  0  0  0
  9 11  1  0  0  0
 11 12  2  0  0  0
  7 13  1  0  0  0
  7 14  1  0  0  0
  8 15  1  0  0  0
M  END
> <minimizedAffinity>
-5.63504

$$$$
1S39_AQO_A_900


 15 16  0  0  0  0  0  0  0  0999 V2000
   14.3170   18.9109   15.5619 C   0  0  0  0  0  0  0  0  0  0  0  0
   15.6587   18.4637   15.7602 C   0  0  0  0  0  0  0  0  0  0  0  0
   15.9259   17.3185   16.5494 C   0  0  0  0  0  0  0  0  0  0  0  0
   14.8567   16.5863   17.1626 C   0  0  0  0  0  0  0  0  0  0  0  0
   15.1471   15.4550   17.9349 N   0  0  0  0  0  0  0  0  0  0  0  0
   14.1838   14.7671   18.5068 C   0  0  0  0  0  0  0  0  0  0  0  0
   14.4337   13.6316   19.2842 N   0  0  0  0  0  0  0  0  0  0  0  0
   12.7881   15.1340   18.3717 N   0  0  0  0  0  0  0  0  0  0  0  0
   12.4013   16.2930   17.5881 C   0  0  0  0  0  0  0  0  0  0  0  0
   11.1949   16.5809   17.4930 O   0  0  0  0  0  0  0  0  0  0  0  0
   13.4990   17.0437   16.9591 C   0  0  0  0  0  0  0  0  0  0  0  0
   13.2474   18.2038   16.1586 C   0  0  0  0  0  0  0  0  0  0  0  0
   15.3583   13.3220   19.4205 H   0  0  0  0  0  0  0  0  0  0  0  0
   13.6850   13.1418   19.6951 H   0  0  0  0  0  0  0  0  0  0  0  0
   12.0962   14.5922   18.8155 H   0  0  0  0  0  0  0  0  0  0  0  0
  1  2  2  0  0  0
  1 12  1  0  0  0
  2  3  1  0  0  0
  3  4  2  0  0  0
  4  5  1  0  0  0
  4 11  1  0  0  0
  5  6  2  0  0  0
  6  7  1  0  0  0
  6  8  1  0  0  0
  8  9  1  0  0  0
  9 10  2  0  0  0
  9 11  1  0  0  0
 11 12  2  0  0  0
  7 13  1  0  0  0
  7 14  1  0  0  0
  8 15  1  0  0  0
M  END
> <minimizedAffinity>
-5.62217

$$$$
1S39_AQO_A_900


 15 16  0  0  0  0  0  0  0  0999 V2000
   18.9527   17.5475   20.3573 C   0  0  0  0  0  0  0  0  0  0  0  0
   18.1510   17.1252   21.4611 C   0  0  0  0  0  0  0  0  0  0  0  0
   16.8037   16.7360   21.2642 C   0  0  0  0  0  0  0  0  0  0  0  0
   16.2194   16.7572   19.9552 C   0  0  0  0  0  0  0  0  0  0  0  0
   14.8862   16.3639   19.7865 N   0  0  0  0  0  0  0  0  0  0  0  0
   14.3285   16.3744   18.5961 C   0  0  0  0  0  0  0  0  0  0  0  0
   13.0007   15.9877   18.3873 N   0  0  0  0  0  0  0  0  0  0  0  0
   15.0508   16.7863   17.4089 N   0  0  0  0  0  0  0  0  0  0  0  0
   16.4368   17.2086   17.4965 C   0  0  0  0  0  0  0  0  0  0  0  0
   17.0275   17.5567   16.4587 O   0  0  0  0  0  0  0  0  0  0  0  0
   17.0356   17.1864   18.8401 C   0  0  0  0  0  0  0  0  0  0  0  0
   18.3958   17.5768   19.0576 C   0  0  0  0  0  0  0  0  0  0  0  0
   12.4477   15.6954   19.1476 H   0  0  0  0  0  0  0  0  0  0  0  0
   12.6190   16.0077   17.4800 H   0  0  0  0  0  0  0  0  0  0  0  0
   14.5972   16.7795   16.5351 H   0  0  0  0  0  0  0  0  0  0  0  0
  1  2  2  0  0  0
  1 12  1  0  0  0
  2  3  1  0  0  0
  3  4  2  0  0  0
  4  5  1  0  0  0
  4 11  1  0  0  0
  5  6  2  0  0  0
  6  7  1  0  0  0
  6  8  1  0  0  0
  8  9  1  0  0  0
  9 10  2  0  0  0
  9 11  1  0  0  0
 11 12  2  0  0  0
  7 13  1  0  0  0
  7 14  1  0  0  0
  8 15  1  0  0  0
M  END
> <minimizedAffinity>
-5.29194

$$$$
1S39_AQO_A_900


 15 16  0  0  0  0  0  0  0  0999 V2000
   12.7235   17.8559   14.7114 C   0  0  0  0  0  0  0  0  0  0  0  0
   11.6149   16.9670   14.8541 C   0  0  0  0  0  0  0  0  0  0  0  0
   11.6280   15.9541   15.8437 C   0  0  0  0  0  0  0  0  0  0  0  0
   12.7517   15.8020   16.7208 C   0  0  0  0  0  0  0  0  0  0  0  0
   12.7384   14.7950   17.6936 N   0  0  0  0  0  0  0  0  0  0  0  0
   13.7569   14.6361   18.5096 C   0  0  0  0  0  0  0  0  0  0  0  0
   13.7802   13.6432   19.4944 N   0  0  0  0  0  0  0  0  0  0  0  0
   14.9326   15.4817   18.4504 N   0  0  0  0  0  0  0  0  0  0  0  0
   15.0265   16.5492   17.4714 C   0  0  0  0  0  0  0  0  0  0  0  0
   16.0497   17.2561   17.4469 O   0  0  0  0  0  0  0  0  0  0  0  0
   13.8728   16.7047   16.5719 C   0  0  0  0  0  0  0  0  0  0  0  0
   13.8428   17.7228   15.5656 C   0  0  0  0  0  0  0  0  0  0  0  0
   13.0158   13.0308   19.5941 H   0  0  0  0  0  0  0  0  0  0  0  0
   14.5609   13.5568   20.0879 H   0  0  0  0  0  0  0  0  0  0  0  0
   15.6742   15.3306   19.0800 H   0  0  0  0  0  0  0  0  0  0  0  0
  1  2  2  0  0  0
  1 12  1  0  0  0
  2  3  1  0  0  0
  3  4  2  0  0  0
  4  5  1  0  0  0
  4 11  1  0  0  0
  5  6  2  0  0  0
  6  7  1  0  0  0
  6  8  1  0  0  0
  8  9  1  0  0  0
  9 10  2  0  0  0
  9 11  1  0  0  0
 11 12  2  0  0  0
  7 13  1  0  0  0
  7 14  1  0  0  0
  8 15  1  0  0  0
M  END
> <minimizedAffinity>
-5.27629

$$$$
