3GV9_GV9_A_1


 14 14  0  0  0  0  0  0  0  0999 V2000
  -36.4856    4.8934   15.4254 C   0  0  0  0  0  0  0  0  0  0  0  0
  -37.8381    4.6709   15.7351 C   0  0  0  0  0  0  0  0  0  0  0  0
  -38.5994    4.1382   14.6876 C   0  0  0  0  0  0  0  0  0  0  0  0
  -37.5794    3.9204   13.2908 S   0  0  0  0  0  0  0  0  0  0  0  0
  -36.1486    4.5162   14.0351 C   0  0  0  0  0  0  0  0  0  0  0  0
  -35.0045    3.5447   17.3331 O   0  0  0  0  0  0  0  0  0  0  0  0
  -34.8525    4.7369   17.1321 C   0  0  0  0  0  0  0  0  0  0  0  0
  -33.9841    5.5750   18.0234 C   0  0  0  0  0  0  0  0  0  0  0  0
  -35.4278    5.3832   16.1165 N   0  0  0  0  0  0  0  0  0  0  0  0
  -35.0654    6.2607   15.8559 H   0  0  0  0  0  0  0  0  0  0  0  0
  -34.8456    4.5969   13.3217 C   0  0  0  0  0  0  0  0  0  0  0  0
  -33.8455    4.1280   13.8939 O   0  0  0  0  0  0  0  0  0  0  0  0
  -34.7810    5.1245   12.1911 O   0  0  0  0  0  0  0  0  0  0  0  0
  -35.5548    5.4678   11.7894 H   0  0  0  0  0  0  0  0  0  0  0  0
  7  6  2  0  0  0
  8  7  1  0  0  0
  7  9  1  0  0  0
  9  1  1  0  0  0
  2  1  1  0  0  0
  1  5  2  0  0  0
  2  3  2  0  0  0
  3  4  1  0  0  0
  5  4  1  0  0  0
  5 11  1  0  0  0
 12 11  2  0  0  0
 11 13  1  0  0  0
  9 10  1  0  0  0
 13 14  1  0  0  0
M  END
> <minimizedAffinity>
-5.21852

$$$$
3GV9_GV9_A_1


 14 14  0  0  0  0  0  0  0  0999 V2000
  -35.9081    5.1219   16.4789 C   0  0  0  0  0  0  0  0  0  0  0  0
  -37.2965    4.9118   16.5330 C   0  0  0  0  0  0  0  0  0  0  0  0
  -37.8928    4.6141   15.3015 C   0  0  0  0  0  0  0  0  0  0  0  0
  -36.6692    4.6040   14.0598 S   0  0  0  0  0  0  0  0  0  0  0  0
  -35.3630    4.9865   15.1102 C   0  0  0  0  0  0  0  0  0  0  0  0
  -34.6127    3.3420   18.1541 O   0  0  0  0  0  0  0  0  0  0  0  0
  -34.4884    4.5473   18.2841 C   0  0  0  0  0  0  0  0  0  0  0  0
  -33.7710    5.1360   19.4629 C   0  0  0  0  0  0  0  0  0  0  0  0
  -34.9636    5.4277   17.4014 N   0  0  0  0  0  0  0  0  0  0  0  0
  -34.6101    6.3463   17.4212 H   0  0  0  0  0  0  0  0  0  0  0  0
  -33.9624    5.1327   14.6304 C   0  0  0  0  0  0  0  0  0  0  0  0
  -33.3628    6.1849   14.9147 O   0  0  0  0  0  0  0  0  0  0  0  0
  -33.4290    4.2203   13.9641 O   0  0  0  0  0  0  0  0  0  0  0  0
  -33.9103    3.4405   13.7681 H   0  0  0  0  0  0  0  0  0  0  0  0
  7  6  2  0  0  0
  8  7  1  0  0  0
  7  9  1  0  0  0
  9  1  1  0  0  0
  2  1  1  0  0  0
  1  5  2  0  0  0
  2  3  2  0  0  0
  3  4  1  0  0  0
  5  4  1  0  0  0
  5 11  1  0  0  0
 12 11  2  0  0  0
 11 13  1  0  0  0
  9 10  1  0  0  0
 13 14  1  0  0  0
M  END
> <minimizedAffinity>
-5.16637

$$$$
3GV9_GV9_A_1


 14 14  0  0  0  0  0  0  0  0999 V2000
  -35.6768    6.3297   18.1049 C   0  0  0  0  0  0  0  0  0  0  0  0
  -36.7306    7.2397   18.2947 C   0  0  0  0  0  0  0  0  0  0  0  0
  -37.8533    7.0127   17.4894 C   0  0  0  0  0  0  0  0  0  0  0  0
  -37.5612    5.6241   16.4768 S   0  0  0  0  0  0  0  0  0  0  0  0
  -35.9798    5.3118   17.0750 C   0  0  0  0  0  0  0  0  0  0  0  0
  -35.0859    5.1345   20.5287 O   0  0  0  0  0  0  0  0  0  0  0  0
  -34.2408    5.7388   19.8918 C   0  0  0  0  0  0  0  0  0  0  0  0
  -32.8831    6.0195   20.4651 C   0  0  0  0  0  0  0  0  0  0  0  0
  -34.4451    6.1855   18.6513 N   0  0  0  0  0  0  0  0  0  0  0  0
  -33.6610    6.4224   18.1051 H   0  0  0  0  0  0  0  0  0  0  0  0
  -35.1412    4.1870   16.5803 C   0  0  0  0  0  0  0  0  0  0  0  0
  -34.7423    4.2401   15.4032 O   0  0  0  0  0  0  0  0  0  0  0  0
  -34.8633    3.2318   17.3362 O   0  0  0  0  0  0  0  0  0  0  0  0
  -35.1808    3.2243   18.2177 H   0  0  0  0  0  0  0  0  0  0  0  0
  7  6  2  0  0  0
  8  7  1  0  0  0
  7  9  1  0  0  0
  9  1  1  0  0  0
  2  1  1  0  0  0
  1  5  2  0  0  0
  2  3  2  0  0  0
  3  4  1  0  0  0
  5  4  1  0  0  0
  5 11  1  0  0  0
 12 11  2  0  0  0
 11 13  1  0  0  0
  9 10  1  0  0  0
 13 14  1  0  0  0
M  END
> <minimizedAffinity>
-4.95334

$$$$
3GV9_GV9_A_1


 14 14  0  0  0  0  0  0  0  0999 V2000
  -36.3835    4.7457   16.2077 C   0  0  0  0  0  0  0  0  0  0  0  0
  -37.6247    5.3627   15.9763 C   0  0  0  0  0  0  0  0  0  0  0  0
  -38.2025    5.9584   17.1041 C   0  0  0  0  0  0  0  0  0  0  0  0
  -37.1520    5.7274   18.4760 S   0  0  0  0  0  0  0  0  0  0  0  0
  -35.9458    4.8539   17.6167 C   0  0  0  0  0  0  0  0  0  0  0  0
  -34.5029    5.8552   14.5093 O   0  0  0  0  0  0  0  0  0  0  0  0
  -34.7300    4.6579   14.5158 C   0  0  0  0  0  0  0  0  0  0  0  0
  -34.1337    3.7441   13.4861 C   0  0  0  0  0  0  0  0  0  0  0  0
  -35.5064    4.0690   15.4271 N   0  0  0  0  0  0  0  0  0  0  0  0
  -35.4386    3.0932   15.5382 H   0  0  0  0  0  0  0  0  0  0  0  0
  -34.7104    4.3392   18.2664 C   0  0  0  0  0  0  0  0  0  0  0  0
  -33.6249    4.8331   17.9125 O   0  0  0  0  0  0  0  0  0  0  0  0
  -34.7840    3.4403   19.1309 O   0  0  0  0  0  0  0  0  0  0  0  0
  -35.6188    3.0909   19.3736 H   0  0  0  0  0  0  0  0  0  0  0  0
  7  6  2  0  0  0
  8  7  1  0  0  0
  7  9  1  0  0  0
  9  1  1  0  0  0
  2  1  1  0  0  0
  1  5  2  0  0  0
  2  3  2  0  0  0
  3  4  1  0  0  0
  5  4  1  0  0  0
  5 11  1  0  0  0
 12 11  2  0  0  0
 11 13  1  0  0  0
  9 10  1  0  0  0
 13 14  1  0  0  0
M  END
> <minimizedAffinity>
-4.91954

$$$$
3GV9_GV9_A_1


 14 14  0  0  0  0  0  0  0  0999 V2000
  -35.6035    4.5797   16.6351 C   0  0  0  0  0  0  0  0  0  0  0  0
  -34.9684    5.0624   17.7920 C   0  0  0  0  0  0  0  0  0  0  0  0
  -35.8183    5.6982   18.7053 C   0  0  0  0  0  0  0  0  0  0  0  0
  -37.4458    5.6822   18.0808 S   0  0  0  0  0  0  0  0  0  0  0  0
  -37.0572    4.8540   16.6251 C   0  0  0  0  0  0  0  0  0  0  0  0
  -34.0653    5.6410   14.5956 O   0  0  0  0  0  0  0  0  0  0  0  0
  -34.5682    4.5345   14.5066 C   0  0  0  0  0  0  0  0  0  0  0  0
  -34.5298    3.7599   13.2224 C   0  0  0  0  0  0  0  0  0  0  0  0
  -35.1762    3.9269   15.5271 N   0  0  0  0  0  0  0  0  0  0  0  0
  -35.3217    2.9548   15.4723 H   0  0  0  0  0  0  0  0  0  0  0  0
  -38.0773    4.5156   15.5963 C   0  0  0  0  0  0  0  0  0  0  0  0
  -37.8872    4.9291   14.4386 O   0  0  0  0  0  0  0  0  0  0  0  0
  -39.0827    3.8424   15.9075 O   0  0  0  0  0  0  0  0  0  0  0  0
  -39.1941    3.5469   16.7897 H   0  0  0  0  0  0  0  0  0  0  0  0
  7  6  2  0  0  0
  8  7  1  0  0  0
  7  9  1  0  0  0
  9  1  1  0  0  0
  2  1  1  0  0  0
  1  5  2  0  0  0
  2  3  2  0  0  0
  3  4  1  0  0  0
  5  4  1  0  0  0
  5 11  1  0  0  0
 12 11  2  0  0  0
 11 13  1  0  0  0
  9 10  1  0  0  0
 13 14  1  0  0  0
M  END
> <minimizedAffinity>
-4.77564

$$$$
3GV9_GV9_A_1


 14 14  0  0  0  0  0  0  0  0999 V2000
  -36.4364    5.0903   14.3974 C   0  0  0  0  0  0  0  0  0  0  0  0
  -37.5457    5.1241   15.2594 C   0  0  0  0  0  0  0  0  0  0  0  0
  -37.2442    4.9177   16.6111 C   0  0  0  0  0  0  0  0  0  0  0  0
  -35.5265    4.6756   16.7848 S   0  0  0  0  0  0  0  0  0  0  0  0
  -35.1660    4.8350   15.1112 C   0  0  0  0  0  0  0  0  0  0  0  0
  -37.2967    3.3284   12.4460 O   0  0  0  0  0  0  0  0  0  0  0  0
  -36.5772    4.2751   12.1793 C   0  0  0  0  0  0  0  0  0  0  0  0
  -35.9751    4.4387   10.8149 C   0  0  0  0  0  0  0  0  0  0  0  0
  -36.2771    5.2321   13.0591 N   0  0  0  0  0  0  0  0  0  0  0  0
  -35.9218    6.0849   12.7188 H   0  0  0  0  0  0  0  0  0  0  0  0
  -33.7838    4.7217   14.5727 C   0  0  0  0  0  0  0  0  0  0  0  0
  -33.5683    3.8426   13.7194 O   0  0  0  0  0  0  0  0  0  0  0  0
  -32.8868    5.4899   14.9803 O   0  0  0  0  0  0  0  0  0  0  0  0
  -33.0845    6.1411   15.6243 H   0  0  0  0  0  0  0  0  0  0  0  0
  7  6  2  0  0  0
  8  7  1  0  0  0
  7  9  1  0  0  0
  9  1  1  0  0  0
  2  1  1  0  0  0
  1  5  2  0  0  0
  2  3  2  0  0  0
  3  4  1  0  0  0
  5  4  1  0  0  0
  5 11  1  0  0  0
 12 11  2  0  0  0
 11 13  1  0  0  0
  9 10  1  0  0  0
 13 14  1  0  0  0
M  END
> <minimizedAffinity>
-4.76782

$$$$
3GV9_GV9_A_1


 14 14  0  0  0  0  0  0  0  0999 V2000
  -36.2072    5.0045   16.4345 C   0  0  0  0  0  0  0  0  0  0  0  0
  -36.6655    5.2197   17.7453 C   0  0  0  0  0  0  0  0  0  0  0  0
  -35.7536    5.8697   18.5859 C   0  0  0  0  0  0  0  0  0  0  0  0
  -34.2939    6.2085   17.6951 S   0  0  0  0  0  0  0  0  0  0  0  0
  -34.8352    5.5140   16.2184 C   0  0  0  0  0  0  0  0  0  0  0  0
  -38.0195    6.1600   14.6930 O   0  0  0  0  0  0  0  0  0  0  0  0
  -37.7261    4.9796   14.6188 C   0  0  0  0  0  0  0  0  0  0  0  0
  -38.4582    4.0491   13.6974 C   0  0  0  0  0  0  0  0  0  0  0  0
  -36.7420    4.4277   15.3309 N   0  0  0  0  0  0  0  0  0  0  0  0
  -36.3862    3.5571   15.0399 H   0  0  0  0  0  0  0  0  0  0  0  0
  -33.9958    5.4815   14.9906 C   0  0  0  0  0  0  0  0  0  0  0  0
  -34.5765    5.5623   13.8934 O   0  0  0  0  0  0  0  0  0  0  0  0
  -32.7545    5.3725   15.0819 O   0  0  0  0  0  0  0  0  0  0  0  0
  -32.3501    5.3140   15.9251 H   0  0  0  0  0  0  0  0  0  0  0  0
  7  6  2  0  0  0
  8  7  1  0  0  0
  7  9  1  0  0  0
  9  1  1  0  0  0
  2  1  1  0  0  0
  1  5  2  0  0  0
  2  3  2  0  0  0
  3  4  1  0  0  0
  5  4  1  0  0  0
  5 11  1  0  0  0
 12 11  2  0  0  0
 11 13  1  0  0  0
  9 10  1  0  0  0
 13 14  1  0  0  0
M  END
> <minimizedAffinity>
-4.41237

$$$$
3GV9_GV9_A_1


 14 14  0  0  0  0  0  0  0  0999 V2000
  -37.0462    5.2897   13.8317 C   0  0  0  0  0  0  0  0  0  0  0  0
  -37.7656    5.4306   12.6327 C   0  0  0  0  0  0  0  0  0  0  0  0
  -37.0997    4.9668   11.4916 C   0  0  0  0  0  0  0  0  0  0  0  0
  -35.5373    4.3458   11.9524 S   0  0  0  0  0  0  0  0  0  0  0  0
  -35.7152    4.6761   13.6303 C   0  0  0  0  0  0  0  0  0  0  0  0
  -38.7177    3.9100   15.5506 O   0  0  0  0  0  0  0  0  0  0  0  0
  -38.2336    4.9855   15.8570 C   0  0  0  0  0  0  0  0  0  0  0  0
  -38.6536    5.7041   17.1052 C   0  0  0  0  0  0  0  0  0  0  0  0
  -37.3008    5.5988   15.1263 N   0  0  0  0  0  0  0  0  0  0  0  0
  -36.7703    6.3122   15.5493 H   0  0  0  0  0  0  0  0  0  0  0  0
  -34.6576    4.3606   14.6279 C   0  0  0  0  0  0  0  0  0  0  0  0
  -33.5086    4.7800   14.4015 O   0  0  0  0  0  0  0  0  0  0  0  0
  -34.9354    3.6936   15.6471 O   0  0  0  0  0  0  0  0  0  0  0  0
  -35.8121    3.3934   15.7860 H   0  0  0  0  0  0  0  0  0  0  0  0
  7  6  2  0  0  0
  8  7  1  0  0  0
  7  9  1  0  0  0
  9  1  1  0  0  0
  2  1  1  0  0  0
  1  5  2  0  0  0
  2  3  2  0  0  0
  3  4  1  0  0  0
  5  4  1  0  0  0
  5 11  1  0  0  0
 12 11  2  0  0  0
 11 13  1  0  0  0
  9 10  1  0  0  0
 13 14  1  0  0  0
M  END
> <minimizedAffinity>
-4.39517

$$$$
3GV9_GV9_A_1


 14 14  0  0  0  0  0  0  0  0999 V2000
  -35.4800    4.6306   16.5835 C   0  0  0  0  0  0  0  0  0  0  0  0
  -35.1201    4.5002   15.2314 C   0  0  0  0  0  0  0  0  0  0  0  0
  -36.0773    4.9670   14.3223 C   0  0  0  0  0  0  0  0  0  0  0  0
  -37.4531    5.5777   15.2017 S   0  0  0  0  0  0  0  0  0  0  0  0
  -36.8166    5.2388   16.7626 C   0  0  0  0  0  0  0  0  0  0  0  0
  -33.9286    6.3149   18.1356 O   0  0  0  0  0  0  0  0  0  0  0  0
  -34.0160    5.1237   18.3774 C   0  0  0  0  0  0  0  0  0  0  0  0
  -33.1532    4.4724   19.4177 C   0  0  0  0  0  0  0  0  0  0  0  0
  -34.8760    4.3155   17.7550 N   0  0  0  0  0  0  0  0  0  0  0  0
  -35.0824    3.4460   18.1679 H   0  0  0  0  0  0  0  0  0  0  0  0
  -37.5579    5.5434   18.0160 C   0  0  0  0  0  0  0  0  0  0  0  0
  -38.7293    5.1347   18.1064 O   0  0  0  0  0  0  0  0  0  0  0  0
  -37.0050    6.1911   18.9301 O   0  0  0  0  0  0  0  0  0  0  0  0
  -36.1207    6.4837   18.8283 H   0  0  0  0  0  0  0  0  0  0  0  0
  7  6  2  0  0  0
  8  7  1  0  0  0
  7  9  1  0  0  0
  9  1  1  0  0  0
  2  1  1  0  0  0
  1  5  2  0  0  0
  2  3  2  0  0  0
  3  4  1  0  0  0
  5  4  1  0  0  0
  5 11  1  0  0  0
 12 11  2  0  0  0
 11 13  1  0  0  0
  9 10  1  0  0  0
 13 14  1  0  0  0
M  END
> <minimizedAffinity>
-4.36147

$$$$
3GV9_GV9_A_1


 14 14  0  0  0  0  0  0  0  0999 V2000
  -35.4918    5.2411   16.9471 C   0  0  0  0  0  0  0  0  0  0  0  0
  -34.4172    6.0304   16.5033 C   0  0  0  0  0  0  0  0  0  0  0  0
  -34.6741    6.7717   15.3435 C   0  0  0  0  0  0  0  0  0  0  0  0
  -36.3041    6.4571   14.8114 S   0  0  0  0  0  0  0  0  0  0  0  0
  -36.6837    5.3589   16.0787 C   0  0  0  0  0  0  0  0  0  0  0  0
  -36.2571    5.9324   19.5140 O   0  0  0  0  0  0  0  0  0  0  0  0
  -35.8916    4.8029   19.2390 C   0  0  0  0  0  0  0  0  0  0  0  0
  -35.6678    3.7726   20.3063 C   0  0  0  0  0  0  0  0  0  0  0  0
  -35.6723    4.3928   17.9884 N   0  0  0  0  0  0  0  0  0  0  0  0
  -35.6398    3.4246   17.8132 H   0  0  0  0  0  0  0  0  0  0  0  0
  -38.0099    4.6950   16.1962 C   0  0  0  0  0  0  0  0  0  0  0  0
  -38.7358    5.0232   17.1516 O   0  0  0  0  0  0  0  0  0  0  0  0
  -38.3595    3.8387   15.3563 O   0  0  0  0  0  0  0  0  0  0  0  0
  -37.7872    3.6156   14.6487 H   0  0  0  0  0  0  0  0  0  0  0  0
  7  6  2  0  0  0
  8  7  1  0  0  0
  7  9  1  0  0  0
  9  1  1  0  0  0
  2  1  1  0  0  0
  1  5  2  0  0  0
  2  3  2  0  0  0
  3  4  1  0  0  0
  5  4  1  0  0  0
  5 11  1  0  0  0
 12 11  2  0  0  0
 11 13  1  0  0  0
  9 10  1  0  0  0
 13 14  1  0  0  0
M  END
> <minimizedAffinity>
-4.34094

$$$$
