4E1K_0N5_A_505


 32 35  0  0  0  0  0  0  0  0999 V2000
   26.7487    3.6968   89.7413 N   0  0  0  0  0  0  0  0  0  0  0  0
   26.5945    3.5121   88.7866 H   0  0  0  0  0  0  0  0  0  0  0  0
   30.0275    3.7178   87.1079 C   0  0  0  0  0  0  0  0  0  0  0  0
   28.9392    3.7111   87.9623 C   0  0  0  0  0  0  0  0  0  0  0  0
   29.1392    3.7681   89.3356 C   0  0  0  0  0  0  0  0  0  0  0  0
   30.4186    3.8333   89.8686 C   0  0  0  0  0  0  0  0  0  0  0  0
   31.4947    3.8405   89.0044 C   0  0  0  0  0  0  0  0  0  0  0  0
   31.2948    3.7855   87.6451 C   0  0  0  0  0  0  0  0  0  0  0  0
   32.3760    3.7968   86.8019 O   0  0  0  0  0  0  0  0  0  0  0  0
   30.6351    3.8863   91.1887 N   0  0  0  0  0  0  0  0  0  0  0  0
   29.5489    3.8729   91.9650 C   0  0  0  0  0  0  0  0  0  0  0  0
   28.2799    3.8177   91.5548 N   0  0  0  0  0  0  0  0  0  0  0  0
   28.0775    3.7625   90.2286 C   0  0  0  0  0  0  0  0  0  0  0  0
   32.2473    3.7595   85.8745 H   0  0  0  0  0  0  0  0  0  0  0  0
   28.9323    2.8136   85.2470 C   0  0  0  0  0  0  0  0  0  0  0  0
   29.9713    3.6634   85.7175 O   0  0  0  0  0  0  0  0  0  0  0  0
   25.6420    3.8903   90.5940 C   0  0  0  0  0  0  0  0  0  0  0  0
   25.1498    5.1519   90.8816 C   0  0  0  0  0  0  0  0  0  0  0  0
   24.0585    5.3225   91.7138 C   0  0  0  0  0  0  0  0  0  0  0  0
   23.4439    4.2227   92.2766 C   0  0  0  0  0  0  0  0  0  0  0  0
   23.9416    2.9675   92.0002 C   0  0  0  0  0  0  0  0  0  0  0  0
   25.0281    2.8000   91.1659 C   0  0  0  0  0  0  0  0  0  0  0  0
   22.3259    4.3420   93.1378 N   0  0  0  0  0  0  0  0  0  0  0  0
   22.4478    4.6135   94.4816 C   0  0  0  0  0  0  0  0  0  0  0  0
   23.4993    4.7903   95.0825 O   0  0  0  0  0  0  0  0  0  0  0  0
   21.4243    4.2259   92.7596 H   0  0  0  0  0  0  0  0  0  0  0  0
   21.1730    4.6874   95.2258 C   0  0  0  0  0  0  0  0  0  0  0  0
   21.1223    5.3074   96.4560 C   0  0  0  0  0  0  0  0  0  0  0  0
   19.9233    5.3641   97.1336 C   0  0  0  0  0  0  0  0  0  0  0  0
   18.7865    4.8061   96.5833 C   0  0  0  0  0  0  0  0  0  0  0  0
   18.8440    4.1896   95.3481 C   0  0  0  0  0  0  0  0  0  0  0  0
   20.0418    4.1303   94.6667 C   0  0  0  0  0  0  0  0  0  0  0  0
 15 16  1  0  0  0
 16  3  1  0  0  0
  9  8  1  0  0  0
  3  8  2  0  0  0
  3  4  1  0  0  0
  8  7  1  0  0  0
  4  5  2  0  0  0
  7  6  2  0  0  0
  5  6  1  0  0  0
  5 13  1  0  0  0
  1 13  1  0  0  0
  1 17  1  0  0  0
  6 10  1  0  0  0
 13 12  2  0  0  0
 22 17  2  0  0  0
 22 21  1  0  0  0
 17 18  1  0  0  0
 21 20  2  0  0  0
 10 11  2  0  0  0
 12 11  1  0  0  0
 18 19  2  0  0  0
 20 19  1  0  0  0
 20 23  1  0  0  0
 23 24  1  0  0  0
 24 25  2  0  0  0
 24 27  1  0  0  0
 28 27  2  0  0  0
 28 29  1  0  0  0
 27 32  1  0  0  0
 29 30  2  0  0  0
 32 31  2  0  0  0
 30 31  1  0  0  0
  9 14  1  0  0  0
  1  2  1  0  0  0
 23 26  1  0  0  0
M  END
> <minimizedAffinity>
-10.17189

$$$$
4E1K_0N5_A_505


 32 35  0  0  0  0  0  0  0  0999 V2000
   27.1550    3.7579   89.9043 N   0  0  0  0  0  0  0  0  0  0  0  0
   26.9286    3.7057   88.9476 H   0  0  0  0  0  0  0  0  0  0  0  0
   30.2477    3.6411   87.0572 C   0  0  0  0  0  0  0  0  0  0  0  0
   29.2200    3.6815   87.9826 C   0  0  0  0  0  0  0  0  0  0  0  0
   29.5103    3.6244   89.3397 C   0  0  0  0  0  0  0  0  0  0  0  0
   30.8205    3.5284   89.7861 C   0  0  0  0  0  0  0  0  0  0  0  0
   31.8356    3.4903   88.8518 C   0  0  0  0  0  0  0  0  0  0  0  0
   31.5465    3.5484   87.5087 C   0  0  0  0  0  0  0  0  0  0  0  0
   32.5684    3.5125   86.5951 O   0  0  0  0  0  0  0  0  0  0  0  0
   31.1234    3.4693   91.0888 N   0  0  0  0  0  0  0  0  0  0  0  0
   30.0922    3.5082   91.9360 C   0  0  0  0  0  0  0  0  0  0  0  0
   28.8009    3.6049   91.6118 N   0  0  0  0  0  0  0  0  0  0  0  0
   28.5114    3.6607   90.3018 C   0  0  0  0  0  0  0  0  0  0  0  0
   32.3788    3.5517   85.6783 H   0  0  0  0  0  0  0  0  0  0  0  0
   28.7430    3.5569   85.2659 C   0  0  0  0  0  0  0  0  0  0  0  0
   30.0994    3.6880   85.6732 O   0  0  0  0  0  0  0  0  0  0  0  0
   26.1218    3.9279   90.8493 C   0  0  0  0  0  0  0  0  0  0  0  0
   25.7365    2.9104   91.7053 C   0  0  0  0  0  0  0  0  0  0  0  0
   24.7265    3.0972   92.6314 C   0  0  0  0  0  0  0  0  0  0  0  0
   24.0813    4.3145   92.7096 C   0  0  0  0  0  0  0  0  0  0  0  0
   24.4565    5.3236   91.8489 C   0  0  0  0  0  0  0  0  0  0  0  0
   25.4677    5.1356   90.9288 C   0  0  0  0  0  0  0  0  0  0  0  0
   23.0389    4.5573   93.6370 N   0  0  0  0  0  0  0  0  0  0  0  0
   21.8004    3.9652   93.5359 C   0  0  0  0  0  0  0  0  0  0  0  0
   21.4555    3.1735   92.6686 O   0  0  0  0  0  0  0  0  0  0  0  0
   23.2070    5.1751   94.3849 H   0  0  0  0  0  0  0  0  0  0  0  0
   20.8333    4.3484   94.5856 C   0  0  0  0  0  0  0  0  0  0  0  0
   19.5294    3.9054   94.5233 C   0  0  0  0  0  0  0  0  0  0  0  0
   18.6434    4.2756   95.5124 C   0  0  0  0  0  0  0  0  0  0  0  0
   19.0604    5.0807   96.5537 C   0  0  0  0  0  0  0  0  0  0  0  0
   20.3699    5.5179   96.6117 C   0  0  0  0  0  0  0  0  0  0  0  0
   21.2597    5.1501   95.6240 C   0  0  0  0  0  0  0  0  0  0  0  0
 15 16  1  0  0  0
 16  3  1  0  0  0
  9  8  1  0  0  0
  3  8  2  0  0  0
  3  4  1  0  0  0
  8  7  1  0  0  0
  4  5  2  0  0  0
  7  6  2  0  0  0
  5  6  1  0  0  0
  5 13  1  0  0  0
  1 13  1  0  0  0
  1 17  1  0  0  0
  6 10  1  0  0  0
 13 12  2  0  0  0
 22 17  2  0  0  0
 22 21  1  0  0  0
 17 18  1  0  0  0
 21 20  2  0  0  0
 10 11  2  0  0  0
 12 11  1  0  0  0
 18 19  2  0  0  0
 20 19  1  0  0  0
 20 23  1  0  0  0
 23 24  1  0  0  0
 24 25  2  0  0  0
 24 27  1  0  0  0
 28 27  2  0  0  0
 28 29  1  0  0  0
 27 32  1  0  0  0
 29 30  2  0  0  0
 32 31  2  0  0  0
 30 31  1  0  0  0
  9 14  1  0  0  0
  1  2  1  0  0  0
 23 26  1  0  0  0
M  END
> <minimizedAffinity>
-9.55937

$$$$
4E1K_0N5_A_505


 32 35  0  0  0  0  0  0  0  0999 V2000
   28.4482    1.8579   90.1215 N   0  0  0  0  0  0  0  0  0  0  0  0
   28.2671    1.3189   89.3178 H   0  0  0  0  0  0  0  0  0  0  0  0
   30.8939    3.6557   87.2108 C   0  0  0  0  0  0  0  0  0  0  0  0
   30.0775    3.0643   88.1585 C   0  0  0  0  0  0  0  0  0  0  0  0
   30.5648    2.8252   89.4370 C   0  0  0  0  0  0  0  0  0  0  0  0
   31.8631    3.1722   89.7827 C   0  0  0  0  0  0  0  0  0  0  0  0
   32.6657    3.7625   88.8276 C   0  0  0  0  0  0  0  0  0  0  0  0
   32.1811    3.9998   87.5628 C   0  0  0  0  0  0  0  0  0  0  0  0
   32.9922    4.5901   86.6279 O   0  0  0  0  0  0  0  0  0  0  0  0
   32.3545    2.9487   91.0077 N   0  0  0  0  0  0  0  0  0  0  0  0
   31.5241    2.3724   91.8798 C   0  0  0  0  0  0  0  0  0  0  0  0
   30.2610    2.0060   91.6512 N   0  0  0  0  0  0  0  0  0  0  0  0
   29.7819    2.2337   90.4177 C   0  0  0  0  0  0  0  0  0  0  0  0
   32.6687    4.7548   85.7641 H   0  0  0  0  0  0  0  0  0  0  0  0
   29.2710    3.4048   85.5424 C   0  0  0  0  0  0  0  0  0  0  0  0
   30.5360    3.9496   85.8974 O   0  0  0  0  0  0  0  0  0  0  0  0
   27.3746    2.2393   90.9528 C   0  0  0  0  0  0  0  0  0  0  0  0
   26.7263    1.3335   91.7750 C   0  0  0  0  0  0  0  0  0  0  0  0
   25.6803    1.7267   92.5897 C   0  0  0  0  0  0  0  0  0  0  0  0
   25.2640    3.0423   92.5881 C   0  0  0  0  0  0  0  0  0  0  0  0
   25.9012    3.9415   91.7603 C   0  0  0  0  0  0  0  0  0  0  0  0
   26.9476    3.5472   90.9516 C   0  0  0  0  0  0  0  0  0  0  0  0
   24.1963    3.4965   93.4002 N   0  0  0  0  0  0  0  0  0  0  0  0
   22.8813    3.4454   92.9970 C   0  0  0  0  0  0  0  0  0  0  0  0
   22.4782    3.0078   91.9275 O   0  0  0  0  0  0  0  0  0  0  0  0
   24.4033    3.8638   94.2899 H   0  0  0  0  0  0  0  0  0  0  0  0
   21.9046    3.9772   93.9704 C   0  0  0  0  0  0  0  0  0  0  0  0
   22.3069    4.8716   94.9393 C   0  0  0  0  0  0  0  0  0  0  0  0
   21.3798    5.3544   95.8380 C   0  0  0  0  0  0  0  0  0  0  0  0
   20.0629    4.9457   95.7657 C   0  0  0  0  0  0  0  0  0  0  0  0
   19.6661    4.0519   94.7895 C   0  0  0  0  0  0  0  0  0  0  0  0
   20.5905    3.5661   93.8884 C   0  0  0  0  0  0  0  0  0  0  0  0
 15 16  1  0  0  0
 16  3  1  0  0  0
  9  8  1  0  0  0
  3  8  2  0  0  0
  3  4  1  0  0  0
  8  7  1  0  0  0
  4  5  2  0  0  0
  7  6  2  0  0  0
  5  6  1  0  0  0
  5 13  1  0  0  0
  1 13  1  0  0  0
  1 17  1  0  0  0
  6 10  1  0  0  0
 13 12  2  0  0  0
 22 17  2  0  0  0
 22 21  1  0  0  0
 17 18  1  0  0  0
 21 20  2  0  0  0
 10 11  2  0  0  0
 12 11  1  0  0  0
 18 19  2  0  0  0
 20 19  1  0  0  0
 20 23  1  0  0  0
 23 24  1  0  0  0
 24 25  2  0  0  0
 24 27  1  0  0  0
 28 27  2  0  0  0
 28 29  1  0  0  0
 27 32  1  0  0  0
 29 30  2  0  0  0
 32 31  2  0  0  0
 30 31  1  0  0  0
  9 14  1  0  0  0
  1  2  1  0  0  0
 23 26  1  0  0  0
M  END
> <minimizedAffinity>
-8.55983

$$$$
4E1K_0N5_A_505


 32 35  0  0  0  0  0  0  0  0999 V2000
   27.7126    4.0648   90.7700 N   0  0  0  0  0  0  0  0  0  0  0  0
   28.3993    4.7652   90.6852 H   0  0  0  0  0  0  0  0  0  0  0  0
   31.2060    3.2965   88.5584 C   0  0  0  0  0  0  0  0  0  0  0  0
   30.0622    3.5630   89.2899 C   0  0  0  0  0  0  0  0  0  0  0  0
   29.0789    2.5899   89.4129 C   0  0  0  0  0  0  0  0  0  0  0  0
   29.2249    1.3475   88.8125 C   0  0  0  0  0  0  0  0  0  0  0  0
   30.3716    1.0951   88.0869 C   0  0  0  0  0  0  0  0  0  0  0  0
   31.3447    2.0592   87.9674 C   0  0  0  0  0  0  0  0  0  0  0  0
   32.4786    1.7893   87.2452 O   0  0  0  0  0  0  0  0  0  0  0  0
   28.2892    0.3957   88.9154 N   0  0  0  0  0  0  0  0  0  0  0  0
   27.2055    0.7093   89.6295 C   0  0  0  0  0  0  0  0  0  0  0  0
   26.9705    1.8680   90.2492 N   0  0  0  0  0  0  0  0  0  0  0  0
   27.9161    2.8144   90.1356 C   0  0  0  0  0  0  0  0  0  0  0  0
   33.1459    2.4415   87.1596 H   0  0  0  0  0  0  0  0  0  0  0  0
   33.3246    3.9806   89.2817 C   0  0  0  0  0  0  0  0  0  0  0  0
   32.2651    4.1774   88.3535 O   0  0  0  0  0  0  0  0  0  0  0  0
   26.5476    4.3281   91.5202 C   0  0  0  0  0  0  0  0  0  0  0  0
   25.3876    4.8015   90.9313 C   0  0  0  0  0  0  0  0  0  0  0  0
   24.2519    5.0467   91.6813 C   0  0  0  0  0  0  0  0  0  0  0  0
   24.2651    4.8231   93.0428 C   0  0  0  0  0  0  0  0  0  0  0  0
   25.4237    4.3637   93.6311 C   0  0  0  0  0  0  0  0  0  0  0  0
   26.5542    4.1157   92.8795 C   0  0  0  0  0  0  0  0  0  0  0  0
   23.1310    5.0610   93.8572 N   0  0  0  0  0  0  0  0  0  0  0  0
   22.2409    4.0690   94.2009 C   0  0  0  0  0  0  0  0  0  0  0  0
   22.3167    2.8938   93.8677 O   0  0  0  0  0  0  0  0  0  0  0  0
   22.9729    5.9735   94.1912 H   0  0  0  0  0  0  0  0  0  0  0  0
   21.1092    4.5055   95.0454 C   0  0  0  0  0  0  0  0  0  0  0  0
   19.8201    4.1401   94.7216 C   0  0  0  0  0  0  0  0  0  0  0  0
   18.7791    4.5589   95.5223 C   0  0  0  0  0  0  0  0  0  0  0  0
   19.0279    5.3353   96.6367 C   0  0  0  0  0  0  0  0  0  0  0  0
   20.3230    5.6946   96.9573 C   0  0  0  0  0  0  0  0  0  0  0  0
   21.3676    5.2779   96.1587 C   0  0  0  0  0  0  0  0  0  0  0  0
 15 16  1  0  0  0
 16  3  1  0  0  0
  9  8  1  0  0  0
  3  8  2  0  0  0
  3  4  1  0  0  0
  8  7  1  0  0  0
  4  5  2  0  0  0
  7  6  2  0  0  0
  5  6  1  0  0  0
  5 13  1  0  0  0
  1 13  1  0  0  0
  1 17  1  0  0  0
  6 10  1  0  0  0
 13 12  2  0  0  0
 22 17  2  0  0  0
 22 21  1  0  0  0
 17 18  1  0  0  0
 21 20  2  0  0  0
 10 11  2  0  0  0
 12 11  1  0  0  0
 18 19  2  0  0  0
 20 19  1  0  0  0
 20 23  1  0  0  0
 23 24  1  0  0  0
 24 25  2  0  0  0
 24 27  1  0  0  0
 28 27  2  0  0  0
 28 29  1  0  0  0
 27 32  1  0  0  0
 29 30  2  0  0  0
 32 31  2  0  0  0
 30 31  1  0  0  0
  9 14  1  0  0  0
  1  2  1  0  0  0
 23 26  1  0  0  0
M  END
> <minimizedAffinity>
-8.33073

$$$$
4E1K_0N5_A_505


 32 35  0  0  0  0  0  0  0  0999 V2000
   27.3826    4.1296   91.4190 N   0  0  0  0  0  0  0  0  0  0  0  0
   27.6152    4.7200   90.6663 H   0  0  0  0  0  0  0  0  0  0  0  0
   29.1488    4.4707   95.2202 C   0  0  0  0  0  0  0  0  0  0  0  0
   28.5589    4.3707   93.9727 C   0  0  0  0  0  0  0  0  0  0  0  0
   28.8960    3.3177   93.1320 C   0  0  0  0  0  0  0  0  0  0  0  0
   29.8184    2.3581   93.5242 C   0  0  0  0  0  0  0  0  0  0  0  0
   30.3978    2.4699   94.7718 C   0  0  0  0  0  0  0  0  0  0  0  0
   30.0618    3.5122   95.6034 C   0  0  0  0  0  0  0  0  0  0  0  0
   30.6455    3.6050   96.8407 O   0  0  0  0  0  0  0  0  0  0  0  0
   30.1603    1.3365   92.7295 N   0  0  0  0  0  0  0  0  0  0  0  0
   29.5629    1.2925   91.5363 C   0  0  0  0  0  0  0  0  0  0  0  0
   28.6621    2.1582   91.0664 N   0  0  0  0  0  0  0  0  0  0  0  0
   28.3303    3.1792   91.8728 C   0  0  0  0  0  0  0  0  0  0  0  0
   30.4213    4.3125   97.4126 H   0  0  0  0  0  0  0  0  0  0  0  0
   27.5598    5.4686   96.6201 C   0  0  0  0  0  0  0  0  0  0  0  0
   28.9051    5.4709   96.1582 O   0  0  0  0  0  0  0  0  0  0  0  0
   26.1131    4.2483   92.0220 C   0  0  0  0  0  0  0  0  0  0  0  0
   25.4874    5.4733   92.1785 C   0  0  0  0  0  0  0  0  0  0  0  0
   24.2387    5.5702   92.7650 C   0  0  0  0  0  0  0  0  0  0  0  0
   23.5974    4.4322   93.2099 C   0  0  0  0  0  0  0  0  0  0  0  0
   24.2257    3.2140   93.0654 C   0  0  0  0  0  0  0  0  0  0  0  0
   25.4699    3.1199   92.4757 C   0  0  0  0  0  0  0  0  0  0  0  0
   22.3202    4.4761   93.8203 N   0  0  0  0  0  0  0  0  0  0  0  0
   22.1421    4.7755   95.1519 C   0  0  0  0  0  0  0  0  0  0  0  0
   23.0312    5.0425   95.9495 O   0  0  0  0  0  0  0  0  0  0  0  0
   21.5270    4.2846   93.2694 H   0  0  0  0  0  0  0  0  0  0  0  0
   20.7394    4.7603   95.6170 C   0  0  0  0  0  0  0  0  0  0  0  0
   19.7438    4.2623   94.8040 C   0  0  0  0  0  0  0  0  0  0  0  0
   18.4419    4.2585   95.2571 C   0  0  0  0  0  0  0  0  0  0  0  0
   18.1412    4.7479   96.5126 C   0  0  0  0  0  0  0  0  0  0  0  0
   19.1448    5.2420   97.3237 C   0  0  0  0  0  0  0  0  0  0  0  0
   20.4488    5.2480   96.8742 C   0  0  0  0  0  0  0  0  0  0  0  0
 15 16  1  0  0  0
 16  3  1  0  0  0
  9  8  1  0  0  0
  3  8  2  0  0  0
  3  4  1  0  0  0
  8  7  1  0  0  0
  4  5  2  0  0  0
  7  6  2  0  0  0
  5  6  1  0  0  0
  5 13  1  0  0  0
  1 13  1  0  0  0
  1 17  1  0  0  0
  6 10  1  0  0  0
 13 12  2  0  0  0
 22 17  2  0  0  0
 22 21  1  0  0  0
 17 18  1  0  0  0
 21 20  2  0  0  0
 10 11  2  0  0  0
 12 11  1  0  0  0
 18 19  2  0  0  0
 20 19  1  0  0  0
 20 23  1  0  0  0
 23 24  1  0  0  0
 24 25  2  0  0  0
 24 27  1  0  0  0
 28 27  2  0  0  0
 28 29  1  0  0  0
 27 32  1  0  0  0
 29 30  2  0  0  0
 32 31  2  0  0  0
 30 31  1  0  0  0
  9 14  1  0  0  0
  1  2  1  0  0  0
 23 26  1  0  0  0
M  END
> <minimizedAffinity>
-8.21019

$$$$
4E1K_0N5_A_505


 32 35  0  0  0  0  0  0  0  0999 V2000
   26.0693    5.7614   94.9188 N   0  0  0  0  0  0  0  0  0  0  0  0
   26.1881    6.7193   95.1126 H   0  0  0  0  0  0  0  0  0  0  0  0
   28.5834    4.4557   98.0268 C   0  0  0  0  0  0  0  0  0  0  0  0
   27.7676    4.8940   96.9988 C   0  0  0  0  0  0  0  0  0  0  0  0
   26.4400    4.4888   96.9503 C   0  0  0  0  0  0  0  0  0  0  0  0
   25.9141    3.6483   97.9211 C   0  0  0  0  0  0  0  0  0  0  0  0
   26.7391    3.2200   98.9413 C   0  0  0  0  0  0  0  0  0  0  0  0
   28.0528    3.6233   98.9885 C   0  0  0  0  0  0  0  0  0  0  0  0
   28.8565    3.1900  100.0116 O   0  0  0  0  0  0  0  0  0  0  0  0
   24.6386    3.2430   97.8928 N   0  0  0  0  0  0  0  0  0  0  0  0
   23.8993    3.6937   96.8765 C   0  0  0  0  0  0  0  0  0  0  0  0
   24.3049    4.5062   95.8982 N   0  0  0  0  0  0  0  0  0  0  0  0
   25.5871    4.9029   95.9375 C   0  0  0  0  0  0  0  0  0  0  0  0
   29.7527    3.4608  100.0501 H   0  0  0  0  0  0  0  0  0  0  0  0
   30.7564    4.2082   97.1920 C   0  0  0  0  0  0  0  0  0  0  0  0
   29.9269    4.7813   98.1953 O   0  0  0  0  0  0  0  0  0  0  0  0
   26.3830    5.2738   93.6331 C   0  0  0  0  0  0  0  0  0  0  0  0
   25.5440    5.4703   92.5496 C   0  0  0  0  0  0  0  0  0  0  0  0
   25.8713    4.9919   91.2940 C   0  0  0  0  0  0  0  0  0  0  0  0
   27.0510    4.3010   91.1070 C   0  0  0  0  0  0  0  0  0  0  0  0
   27.8804    4.0945   92.1883 C   0  0  0  0  0  0  0  0  0  0  0  0
   27.5533    4.5769   93.4392 C   0  0  0  0  0  0  0  0  0  0  0  0
   27.4321    3.7872   89.8434 N   0  0  0  0  0  0  0  0  0  0  0  0
   28.7212    3.8640   89.3673 C   0  0  0  0  0  0  0  0  0  0  0  0
   29.6726    4.3592   89.9569 O   0  0  0  0  0  0  0  0  0  0  0  0
   26.7466    3.3575   89.2824 H   0  0  0  0  0  0  0  0  0  0  0  0
   28.9296    3.2874   88.0225 C   0  0  0  0  0  0  0  0  0  0  0  0
   28.8763    1.9226   87.8366 C   0  0  0  0  0  0  0  0  0  0  0  0
   29.0747    1.4058   86.5742 C   0  0  0  0  0  0  0  0  0  0  0  0
   29.3229    2.2484   85.5089 C   0  0  0  0  0  0  0  0  0  0  0  0
   29.3712    3.6157   85.7021 C   0  0  0  0  0  0  0  0  0  0  0  0
   29.1736    4.1371   86.9637 C   0  0  0  0  0  0  0  0  0  0  0  0
 15 16  1  0  0  0
 16  3  1  0  0  0
  9  8  1  0  0  0
  3  8  2  0  0  0
  3  4  1  0  0  0
  8  7  1  0  0  0
  4  5  2  0  0  0
  7  6  2  0  0  0
  5  6  1  0  0  0
  5 13  1  0  0  0
  1 13  1  0  0  0
  1 17  1  0  0  0
  6 10  1  0  0  0
 13 12  2  0  0  0
 22 17  2  0  0  0
 22 21  1  0  0  0
 17 18  1  0  0  0
 21 20  2  0  0  0
 10 11  2  0  0  0
 12 11  1  0  0  0
 18 19  2  0  0  0
 20 19  1  0  0  0
 20 23  1  0  0  0
 23 24  1  0  0  0
 24 25  2  0  0  0
 24 27  1  0  0  0
 28 27  2  0  0  0
 28 29  1  0  0  0
 27 32  1  0  0  0
 29 30  2  0  0  0
 32 31  2  0  0  0
 30 31  1  0  0  0
  9 14  1  0  0  0
  1  2  1  0  0  0
 23 26  1  0  0  0
M  END
> <minimizedAffinity>
-7.99740

$$$$
4E1K_0N5_A_505


 32 35  0  0  0  0  0  0  0  0999 V2000
   26.5944    2.4842   89.8421 N   0  0  0  0  0  0  0  0  0  0  0  0
   26.4394    1.7790   89.1729 H   0  0  0  0  0  0  0  0  0  0  0  0
   29.3156    1.0855   92.7273 C   0  0  0  0  0  0  0  0  0  0  0  0
   28.4104    1.5348   91.7823 C   0  0  0  0  0  0  0  0  0  0  0  0
   28.7632    2.5694   90.9253 C   0  0  0  0  0  0  0  0  0  0  0  0
   30.0152    3.1627   91.0000 C   0  0  0  0  0  0  0  0  0  0  0  0
   30.9084    2.7036   91.9466 C   0  0  0  0  0  0  0  0  0  0  0  0
   30.5580    1.6783   92.7933 C   0  0  0  0  0  0  0  0  0  0  0  0
   31.4598    1.2332   93.7254 O   0  0  0  0  0  0  0  0  0  0  0  0
   30.3757    4.1628   90.1863 N   0  0  0  0  0  0  0  0  0  0  0  0
   29.4614    4.5578   89.2971 C   0  0  0  0  0  0  0  0  0  0  0  0
   28.2360    4.0525   89.1397 N   0  0  0  0  0  0  0  0  0  0  0  0
   27.8868    3.0518   89.9641 C   0  0  0  0  0  0  0  0  0  0  0  0
   31.2278    0.5350   94.3056 H   0  0  0  0  0  0  0  0  0  0  0  0
   27.8346    0.1795   94.2976 C   0  0  0  0  0  0  0  0  0  0  0  0
   29.0934    0.0626   93.6458 O   0  0  0  0  0  0  0  0  0  0  0  0
   25.5250    2.9073   90.6586 C   0  0  0  0  0  0  0  0  0  0  0  0
   25.2955    4.2450   90.9314 C   0  0  0  0  0  0  0  0  0  0  0  0
   24.2371    4.6425   91.7279 C   0  0  0  0  0  0  0  0  0  0  0  0
   23.3905    3.6968   92.2693 C   0  0  0  0  0  0  0  0  0  0  0  0
   23.6263    2.3642   92.0079 C   0  0  0  0  0  0  0  0  0  0  0  0
   24.6807    1.9708   91.2092 C   0  0  0  0  0  0  0  0  0  0  0  0
   22.2945    4.0497   93.0938 N   0  0  0  0  0  0  0  0  0  0  0  0
   22.3850    4.1100   94.4660 C   0  0  0  0  0  0  0  0  0  0  0  0
   23.3904    3.8844   95.1264 O   0  0  0  0  0  0  0  0  0  0  0  0
   21.4322    4.2606   92.6680 H   0  0  0  0  0  0  0  0  0  0  0  0
   21.1355    4.4819   95.1622 C   0  0  0  0  0  0  0  0  0  0  0  0
   21.1830    5.2080   96.3331 C   0  0  0  0  0  0  0  0  0  0  0  0
   20.0057    5.5432   96.9669 C   0  0  0  0  0  0  0  0  0  0  0  0
   18.7932    5.1555   96.4320 C   0  0  0  0  0  0  0  0  0  0  0  0
   18.7531    4.4311   95.2561 C   0  0  0  0  0  0  0  0  0  0  0  0
   19.9288    4.0933   94.6187 C   0  0  0  0  0  0  0  0  0  0  0  0
 15 16  1  0  0  0
 16  3  1  0  0  0
  9  8  1  0  0  0
  3  8  2  0  0  0
  3  4  1  0  0  0
  8  7  1  0  0  0
  4  5  2  0  0  0
  7  6  2  0  0  0
  5  6  1  0  0  0
  5 13  1  0  0  0
  1 13  1  0  0  0
  1 17  1  0  0  0
  6 10  1  0  0  0
 13 12  2  0  0  0
 22 17  2  0  0  0
 22 21  1  0  0  0
 17 18  1  0  0  0
 21 20  2  0  0  0
 10 11  2  0  0  0
 12 11  1  0  0  0
 18 19  2  0  0  0
 20 19  1  0  0  0
 20 23  1  0  0  0
 23 24  1  0  0  0
 24 25  2  0  0  0
 24 27  1  0  0  0
 28 27  2  0  0  0
 28 29  1  0  0  0
 27 32  1  0  0  0
 29 30  2  0  0  0
 32 31  2  0  0  0
 30 31  1  0  0  0
  9 14  1  0  0  0
  1  2  1  0  0  0
 23 26  1  0  0  0
M  END
> <minimizedAffinity>
-7.95558

$$$$
4E1K_0N5_A_505


 32 35  0  0  0  0  0  0  0  0999 V2000
   23.5231    3.4328   93.7134 N   0  0  0  0  0  0  0  0  0  0  0  0
   22.7049    3.9738   93.6291 H   0  0  0  0  0  0  0  0  0  0  0  0
   25.6803    4.6297   97.1192 C   0  0  0  0  0  0  0  0  0  0  0  0
   24.9727    4.2498   95.9925 C   0  0  0  0  0  0  0  0  0  0  0  0
   24.3879    2.9912   95.9363 C   0  0  0  0  0  0  0  0  0  0  0  0
   24.5006    2.1036   96.9968 C   0  0  0  0  0  0  0  0  0  0  0  0
   25.2083    2.4964   98.1147 C   0  0  0  0  0  0  0  0  0  0  0  0
   25.7853    3.7433   98.1693 C   0  0  0  0  0  0  0  0  0  0  0  0
   26.4820    4.1173   99.2895 O   0  0  0  0  0  0  0  0  0  0  0  0
   23.9477    0.8848   96.9633 N   0  0  0  0  0  0  0  0  0  0  0  0
   23.2804    0.5707   95.8504 C   0  0  0  0  0  0  0  0  0  0  0  0
   23.1088    1.3500   94.7803 N   0  0  0  0  0  0  0  0  0  0  0  0
   23.6708    2.5686   94.8264 C   0  0  0  0  0  0  0  0  0  0  0  0
   26.8778    4.9655   99.3337 H   0  0  0  0  0  0  0  0  0  0  0  0
   27.5952    5.9056   96.6888 C   0  0  0  0  0  0  0  0  0  0  0  0
   26.3153    5.8548   97.3071 O   0  0  0  0  0  0  0  0  0  0  0  0
   24.5226    3.5350   92.7236 C   0  0  0  0  0  0  0  0  0  0  0  0
   24.9771    4.7593   92.2641 C   0  0  0  0  0  0  0  0  0  0  0  0
   25.9637    4.8408   91.2985 C   0  0  0  0  0  0  0  0  0  0  0  0
   26.5093    3.6872   90.7733 C   0  0  0  0  0  0  0  0  0  0  0  0
   26.0480    2.4682   91.2217 C   0  0  0  0  0  0  0  0  0  0  0  0
   25.0665    2.3900   92.1886 C   0  0  0  0  0  0  0  0  0  0  0  0
   27.5191    3.7146   89.7807 N   0  0  0  0  0  0  0  0  0  0  0  0
   28.8604    3.7665   90.0853 C   0  0  0  0  0  0  0  0  0  0  0  0
   29.3370    3.7851   91.2125 O   0  0  0  0  0  0  0  0  0  0  0  0
   27.2506    3.6957   88.8337 H   0  0  0  0  0  0  0  0  0  0  0  0
   29.7684    3.8032   88.9198 C   0  0  0  0  0  0  0  0  0  0  0  0
   29.2576    3.7580   87.6402 C   0  0  0  0  0  0  0  0  0  0  0  0
   30.1224    3.7923   86.5674 C   0  0  0  0  0  0  0  0  0  0  0  0
   31.4851    3.8721   86.7749 C   0  0  0  0  0  0  0  0  0  0  0  0
   31.9898    3.9209   88.0602 C   0  0  0  0  0  0  0  0  0  0  0  0
   31.1280    3.8865   89.1367 C   0  0  0  0  0  0  0  0  0  0  0  0
 15 16  1  0  0  0
 16  3  1  0  0  0
  9  8  1  0  0  0
  3  8  2  0  0  0
  3  4  1  0  0  0
  8  7  1  0  0  0
  4  5  2  0  0  0
  7  6  2  0  0  0
  5  6  1  0  0  0
  5 13  1  0  0  0
  1 13  1  0  0  0
  1 17  1  0  0  0
  6 10  1  0  0  0
 13 12  2  0  0  0
 22 17  2  0  0  0
 22 21  1  0  0  0
 17 18  1  0  0  0
 21 20  2  0  0  0
 10 11  2  0  0  0
 12 11  1  0  0  0
 18 19  2  0  0  0
 20 19  1  0  0  0
 20 23  1  0  0  0
 23 24  1  0  0  0
 24 25  2  0  0  0
 24 27  1  0  0  0
 28 27  2  0  0  0
 28 29  1  0  0  0
 27 32  1  0  0  0
 29 30  2  0  0  0
 32 31  2  0  0  0
 30 31  1  0  0  0
  9 14  1  0  0  0
  1  2  1  0  0  0
 23 26  1  0  0  0
M  END
> <minimizedAffinity>
-7.72609

$$$$
4E1K_0N5_A_505


 32 35  0  0  0  0  0  0  0  0999 V2000
   25.8662    2.1096   94.0498 N   0  0  0  0  0  0  0  0  0  0  0  0
   25.6324    1.1542   94.0938 H   0  0  0  0  0  0  0  0  0  0  0  0
   21.7950    2.8100   93.2624 C   0  0  0  0  0  0  0  0  0  0  0  0
   23.1345    2.5687   93.5107 C   0  0  0  0  0  0  0  0  0  0  0  0
   23.7810    3.2507   94.5335 C   0  0  0  0  0  0  0  0  0  0  0  0
   23.1026    4.1742   95.3160 C   0  0  0  0  0  0  0  0  0  0  0  0
   21.7664    4.4039   95.0578 C   0  0  0  0  0  0  0  0  0  0  0  0
   21.1277    3.7268   94.0458 C   0  0  0  0  0  0  0  0  0  0  0  0
   19.7989    3.9658   93.8061 O   0  0  0  0  0  0  0  0  0  0  0  0
   23.7060    4.8449   96.3050 N   0  0  0  0  0  0  0  0  0  0  0  0
   24.9994    4.5749   96.4969 C   0  0  0  0  0  0  0  0  0  0  0  0
   25.7401    3.7046   95.8070 N   0  0  0  0  0  0  0  0  0  0  0  0
   25.1229    3.0408   94.8164 C   0  0  0  0  0  0  0  0  0  0  0  0
   19.3572    3.5080   93.1181 H   0  0  0  0  0  0  0  0  0  0  0  0
   21.5227    0.9171   91.9124 C   0  0  0  0  0  0  0  0  0  0  0  0
   21.0278    2.2010   92.2725 O   0  0  0  0  0  0  0  0  0  0  0  0
   26.9337    2.5213   93.2251 C   0  0  0  0  0  0  0  0  0  0  0  0
   26.7357    3.3286   92.1180 C   0  0  0  0  0  0  0  0  0  0  0  0
   27.7954    3.7293   91.3248 C   0  0  0  0  0  0  0  0  0  0  0  0
   29.0770    3.3194   91.6306 C   0  0  0  0  0  0  0  0  0  0  0  0
   29.2726    2.5054   92.7255 C   0  0  0  0  0  0  0  0  0  0  0  0
   28.2138    2.1108   93.5177 C   0  0  0  0  0  0  0  0  0  0  0  0
   30.1964    3.6981   90.8498 N   0  0  0  0  0  0  0  0  0  0  0  0
   30.6137    2.9815   89.7513 C   0  0  0  0  0  0  0  0  0  0  0  0
   30.0849    1.9668   89.3169 O   0  0  0  0  0  0  0  0  0  0  0  0
   30.6966    4.5073   91.1033 H   0  0  0  0  0  0  0  0  0  0  0  0
   31.8089    3.5187   89.0678 C   0  0  0  0  0  0  0  0  0  0  0  0
   31.7432    3.8861   87.7407 C   0  0  0  0  0  0  0  0  0  0  0  0
   32.8701    4.3838   87.1223 C   0  0  0  0  0  0  0  0  0  0  0  0
   34.0504    4.5129   87.8270 C   0  0  0  0  0  0  0  0  0  0  0  0
   34.1079    4.1461   89.1579 C   0  0  0  0  0  0  0  0  0  0  0  0
   32.9827    3.6474   89.7806 C   0  0  0  0  0  0  0  0  0  0  0  0
 15 16  1  0  0  0
 16  3  1  0  0  0
  9  8  1  0  0  0
  3  8  2  0  0  0
  3  4  1  0  0  0
  8  7  1  0  0  0
  4  5  2  0  0  0
  7  6  2  0  0  0
  5  6  1  0  0  0
  5 13  1  0  0  0
  1 13  1  0  0  0
  1 17  1  0  0  0
  6 10  1  0  0  0
 13 12  2  0  0  0
 22 17  2  0  0  0
 22 21  1  0  0  0
 17 18  1  0  0  0
 21 20  2  0  0  0
 10 11  2  0  0  0
 12 11  1  0  0  0
 18 19  2  0  0  0
 20 19  1  0  0  0
 20 23  1  0  0  0
 23 24  1  0  0  0
 24 25  2  0  0  0
 24 27  1  0  0  0
 28 27  2  0  0  0
 28 29  1  0  0  0
 27 32  1  0  0  0
 29 30  2  0  0  0
 32 31  2  0  0  0
 30 31  1  0  0  0
  9 14  1  0  0  0
  1  2  1  0  0  0
 23 26  1  0  0  0
M  END
> <minimizedAffinity>
-7.67989

$$$$
4E1K_0N5_A_505


 32 35  0  0  0  0  0  0  0  0999 V2000
   28.5250    3.6708   96.1261 N   0  0  0  0  0  0  0  0  0  0  0  0
   29.0440    4.4424   95.8027 H   0  0  0  0  0  0  0  0  0  0  0  0
   31.3637    1.8841   93.5894 C   0  0  0  0  0  0  0  0  0  0  0  0
   30.4282    2.4834   94.4140 C   0  0  0  0  0  0  0  0  0  0  0  0
   30.1377    1.9223   95.6509 C   0  0  0  0  0  0  0  0  0  0  0  0
   30.7741    0.7652   96.0771 C   0  0  0  0  0  0  0  0  0  0  0  0
   31.7059    0.1790   95.2448 C   0  0  0  0  0  0  0  0  0  0  0  0
   31.9933    0.7367   94.0212 C   0  0  0  0  0  0  0  0  0  0  0  0
   32.9244    0.1419   93.2091 O   0  0  0  0  0  0  0  0  0  0  0  0
   30.5080    0.2056   97.2637 N   0  0  0  0  0  0  0  0  0  0  0  0
   29.5945    0.8242   98.0156 C   0  0  0  0  0  0  0  0  0  0  0  0
   28.9313    1.9396   97.7028 N   0  0  0  0  0  0  0  0  0  0  0  0
   29.2061    2.4888   96.5087 C   0  0  0  0  0  0  0  0  0  0  0  0
   33.1252    0.5164   92.3740 H   0  0  0  0  0  0  0  0  0  0  0  0
   30.6832    2.2932   91.3873 C   0  0  0  0  0  0  0  0  0  0  0  0
   31.7476    2.3370   92.3297 O   0  0  0  0  0  0  0  0  0  0  0  0
   27.1197    3.7662   96.1983 C   0  0  0  0  0  0  0  0  0  0  0  0
   26.2897    2.9285   95.4730 C   0  0  0  0  0  0  0  0  0  0  0  0
   24.9134    3.0309   95.5621 C   0  0  0  0  0  0  0  0  0  0  0  0
   24.3462    3.9846   96.3824 C   0  0  0  0  0  0  0  0  0  0  0  0
   25.1725    4.8268   97.0949 C   0  0  0  0  0  0  0  0  0  0  0  0
   26.5455    4.7194   97.0074 C   0  0  0  0  0  0  0  0  0  0  0  0
   22.9434    4.1339   96.5074 N   0  0  0  0  0  0  0  0  0  0  0  0
   22.1789    4.7910   95.5702 C   0  0  0  0  0  0  0  0  0  0  0  0
   22.5958    5.3039   94.5401 O   0  0  0  0  0  0  0  0  0  0  0  0
   22.4966    3.7521   97.2972 H   0  0  0  0  0  0  0  0  0  0  0  0
   20.7345    4.8611   95.8750 C   0  0  0  0  0  0  0  0  0  0  0  0
   19.8066    4.4686   94.9340 C   0  0  0  0  0  0  0  0  0  0  0  0
   18.4643    4.5432   95.2385 C   0  0  0  0  0  0  0  0  0  0  0  0
   18.0562    5.0054   96.4739 C   0  0  0  0  0  0  0  0  0  0  0  0
   18.9920    5.3935   97.4137 C   0  0  0  0  0  0  0  0  0  0  0  0
   20.3362    5.3208   97.1130 C   0  0  0  0  0  0  0  0  0  0  0  0
 15 16  1  0  0  0
 16  3  1  0  0  0
  9  8  1  0  0  0
  3  8  2  0  0  0
  3  4  1  0  0  0
  8  7  1  0  0  0
  4  5  2  0  0  0
  7  6  2  0  0  0
  5  6  1  0  0  0
  5 13  1  0  0  0
  1 13  1  0  0  0
  1 17  1  0  0  0
  6 10  1  0  0  0
 13 12  2  0  0  0
 22 17  2  0  0  0
 22 21  1  0  0  0
 17 18  1  0  0  0
 21 20  2  0  0  0
 10 11  2  0  0  0
 12 11  1  0  0  0
 18 19  2  0  0  0
 20 19  1  0  0  0
 20 23  1  0  0  0
 23 24  1  0  0  0
 24 25  2  0  0  0
 24 27  1  0  0  0
 28 27  2  0  0  0
 28 29  1  0  0  0
 27 32  1  0  0  0
 29 30  2  0  0  0
 32 31  2  0  0  0
 30 31  1  0  0  0
  9 14  1  0  0  0
  1  2  1  0  0  0
 23 26  1  0  0  0
M  END
> <minimizedAffinity>
-7.66130

$$$$
