3NU5_478_B_401


 39 41  0  0  0  0  0  0  0  0999 V2000
   15.3248   23.7269   17.8817 C   0  0  0  0  0  0  0  0  0  0  0  0
   14.2373   24.4517   18.4620 O   0  0  0  0  0  0  0  0  0  0  0  0
   13.7146   24.8683   17.7590 H   0  0  0  0  0  0  0  0  0  0  0  0
   14.7784   22.6106   17.0093 C   0  0  0  0  0  0  0  0  0  0  0  0
   14.0469   20.5183   18.1129 C   0  0  0  0  0  0  0  0  0  0  0  0
   13.8230   21.7956   17.7840 N   0  0  0  0  0  0  0  0  0  0  0  0
   15.0692   19.8782   17.8359 O   0  0  0  0  0  0  0  0  0  0  0  0
   12.9792   22.2124   18.0732 H   0  0  0  0  0  0  0  0  0  0  0  0
   13.0183   19.9561   18.7749 O   0  0  0  0  0  0  0  0  0  0  0  0
   11.8596   18.0135   19.5350 C   0  0  0  0  0  0  0  0  0  0  0  0
   13.9340   18.5532   20.5883 C   0  0  0  0  0  0  0  0  0  0  0  0
   13.2438   18.5998   19.2334 C   0  0  0  0  0  0  0  0  0  0  0  0
   12.8350   18.0928   21.5669 C   0  0  0  0  0  0  0  0  0  0  0  0
   11.6062   18.4296   20.8850 O   0  0  0  0  0  0  0  0  0  0  0  0
   14.0663   23.1466   15.7515 C   0  0  0  0  0  0  0  0  0  0  0  0
   13.4494   22.0596   14.8875 C   0  0  0  0  0  0  0  0  0  0  0  0
   12.0944   21.7331   14.9104 C   0  0  0  0  0  0  0  0  0  0  0  0
   14.2763   21.2651   14.0997 C   0  0  0  0  0  0  0  0  0  0  0  0
   11.6259   20.7079   14.0912 C   0  0  0  0  0  0  0  0  0  0  0  0
   13.8469   20.1965   13.3214 C   0  0  0  0  0  0  0  0  0  0  0  0
   12.5081   19.9016   13.4106 C   0  0  0  0  0  0  0  0  0  0  0  0
   16.2923   24.6660   17.1651 C   0  0  0  0  0  0  0  0  0  0  0  0
   17.6562   24.1889   17.1942 N   0  0  0  0  0  0  0  0  0  0  0  0
   17.4299   23.4191   14.7909 O   0  0  0  0  0  0  0  0  0  0  0  0
   19.5157   22.9259   16.0293 O   0  0  0  0  0  0  0  0  0  0  0  0
   18.4366   23.9427   15.7628 S   0  0  0  0  0  0  0  0  0  0  0  0
   19.1134   25.4181   15.1159 C   0  0  0  0  0  0  0  0  0  0  0  0
   20.4434   25.7553   15.3056 C   0  0  0  0  0  0  0  0  0  0  0  0
   21.0399   26.8668   14.7124 C   0  0  0  0  0  0  0  0  0  0  0  0
   20.3094   27.6647   13.8455 C   0  0  0  0  0  0  0  0  0  0  0  0
   18.9786   27.3152   13.6120 C   0  0  0  0  0  0  0  0  0  0  0  0
   18.4221   26.1869   14.1930 C   0  0  0  0  0  0  0  0  0  0  0  0
   20.8523   28.7193   13.2395 N   0  0  0  0  0  0  0  0  0  0  0  0
   21.7921   28.9564   13.4120 H   0  0  0  0  0  0  0  0  0  0  0  0
   20.3137   29.2617   12.6190 H   0  0  0  0  0  0  0  0  0  0  0  0
   18.4400   24.8002   18.2421 C   0  0  0  0  0  0  0  0  0  0  0  0
   18.8880   23.8299   19.3534 C   0  0  0  0  0  0  0  0  0  0  0  0
   20.4199   23.8390   19.5213 C   0  0  0  0  0  0  0  0  0  0  0  0
   18.2519   24.1865   20.7027 C   0  0  0  0  0  0  0  0  0  0  0  0
 10 12  1  0  0  0
 10 14  1  0  0  0
 11 12  1  0  0  0
 11 13  1  0  0  0
  5  6  1  0  0  0
  5  9  1  0  0  0
  5  7  2  0  0  0
 12  9  1  0  0  0
  4  1  1  0  0  0
  4 15  1  0  0  0
  4  6  1  0  0  0
  1 22  1  0  0  0
  1  2  1  0  0  0
 15 16  1  0  0  0
 16 17  2  0  0  0
 16 18  1  0  0  0
 17 19  1  0  0  0
 18 20  2  0  0  0
 19 21  2  0  0  0
 20 21  1  0  0  0
 22 23  1  0  0  0
 36 37  1  0  0  0
 36 23  1  0  0  0
 37 38  1  0  0  0
 37 39  1  0  0  0
 27 28  2  0  0  0
 27 32  1  0  0  0
 27 26  1  0  0  0
 28 29  1  0  0  0
 29 30  2  0  0  0
 30 31  1  0  0  0
 30 33  1  0  0  0
 31 32  2  0  0  0
 13 14  1  0  0  0
 23 26  1  0  0  0
 24 26  2  0  0  0
 25 26  2  0  0  0
  6  8  1  0  0  0
 33 34  1  0  0  0
 33 35  1  0  0  0
  2  3  1  0  0  0
M  END
> <minimizedAffinity>
-9.62327

$$$$
3NU5_478_B_401


 39 41  0  0  0  0  0  0  0  0999 V2000
   17.5832   25.1898   16.8635 C   0  0  0  0  0  0  0  0  0  0  0  0
   16.7652   25.7325   17.9034 O   0  0  0  0  0  0  0  0  0  0  0  0
   17.1889   25.5777   18.7621 H   0  0  0  0  0  0  0  0  0  0  0  0
   18.9172   25.9147   16.8411 C   0  0  0  0  0  0  0  0  0  0  0  0
   20.4347   26.6298   18.6623 C   0  0  0  0  0  0  0  0  0  0  0  0
   19.6110   25.7205   18.1288 N   0  0  0  0  0  0  0  0  0  0  0  0
   20.6967   27.7334   18.1676 O   0  0  0  0  0  0  0  0  0  0  0  0
   19.4603   24.8804   18.6195 H   0  0  0  0  0  0  0  0  0  0  0  0
   20.9968   26.2201   19.8149 O   0  0  0  0  0  0  0  0  0  0  0  0
   21.4015   24.3644   21.2594 C   0  0  0  0  0  0  0  0  0  0  0  0
   22.9888   24.7904   19.5265 C   0  0  0  0  0  0  0  0  0  0  0  0
   21.4961   24.8595   19.8114 C   0  0  0  0  0  0  0  0  0  0  0  0
   23.6242   24.4135   20.8800 C   0  0  0  0  0  0  0  0  0  0  0  0
   22.6300   24.8154   21.8487 O   0  0  0  0  0  0  0  0  0  0  0  0
   19.8334   25.4183   15.7050 C   0  0  0  0  0  0  0  0  0  0  0  0
   20.3986   26.5345   14.8428 C   0  0  0  0  0  0  0  0  0  0  0  0
   21.5973   27.1902   15.1193 C   0  0  0  0  0  0  0  0  0  0  0  0
   19.6487   27.0153   13.7740 C   0  0  0  0  0  0  0  0  0  0  0  0
   22.0248   28.2142   14.2764 C   0  0  0  0  0  0  0  0  0  0  0  0
   20.0195   28.0753   12.9549 C   0  0  0  0  0  0  0  0  0  0  0  0
   21.1928   28.7030   13.2964 C   0  0  0  0  0  0  0  0  0  0  0  0
   17.6965   23.6721   16.9874 C   0  0  0  0  0  0  0  0  0  0  0  0
   16.4117   23.0120   16.9414 N   0  0  0  0  0  0  0  0  0  0  0  0
   14.4772   23.8143   18.3675 O   0  0  0  0  0  0  0  0  0  0  0  0
   16.5584   23.0505   19.4686 O   0  0  0  0  0  0  0  0  0  0  0  0
   15.5796   22.8061   18.3500 S   0  0  0  0  0  0  0  0  0  0  0  0
   14.8729   21.2128   18.4740 C   0  0  0  0  0  0  0  0  0  0  0  0
   15.6063   20.1212   18.9089 C   0  0  0  0  0  0  0  0  0  0  0  0
   15.0459   18.8629   19.1231 C   0  0  0  0  0  0  0  0  0  0  0  0
   13.6834   18.6733   18.9512 C   0  0  0  0  0  0  0  0  0  0  0  0
   12.9232   19.7736   18.5522 C   0  0  0  0  0  0  0  0  0  0  0  0
   13.5040   21.0194   18.3761 C   0  0  0  0  0  0  0  0  0  0  0  0
   13.1077   17.4927   19.1719 N   0  0  0  0  0  0  0  0  0  0  0  0
   13.6541   16.7235   19.4530 H   0  0  0  0  0  0  0  0  0  0  0  0
   12.1358   17.3891   19.0538 H   0  0  0  0  0  0  0  0  0  0  0  0
   15.6237   23.4016   15.7954 C   0  0  0  0  0  0  0  0  0  0  0  0
   14.7542   22.2735   15.2047 C   0  0  0  0  0  0  0  0  0  0  0  0
   13.2769   22.7003   15.1015 C   0  0  0  0  0  0  0  0  0  0  0  0
   15.2371   21.8625   13.8083 C   0  0  0  0  0  0  0  0  0  0  0  0
 10 12  1  0  0  0
 10 14  1  0  0  0
 11 12  1  0  0  0
 11 13  1  0  0  0
  5  6  1  0  0  0
  5  9  1  0  0  0
  5  7  2  0  0  0
 12  9  1  0  0  0
  4  1  1  0  0  0
  4 15  1  0  0  0
  4  6  1  0  0  0
  1 22  1  0  0  0
  1  2  1  0  0  0
 15 16  1  0  0  0
 16 17  2  0  0  0
 16 18  1  0  0  0
 17 19  1  0  0  0
 18 20  2  0  0  0
 19 21  2  0  0  0
 20 21  1  0  0  0
 22 23  1  0  0  0
 36 37  1  0  0  0
 36 23  1  0  0  0
 37 38  1  0  0  0
 37 39  1  0  0  0
 27 28  2  0  0  0
 27 32  1  0  0  0
 27 26  1  0  0  0
 28 29  1  0  0  0
 29 30  2  0  0  0
 30 31  1  0  0  0
 30 33  1  0  0  0
 31 32  2  0  0  0
 13 14  1  0  0  0
 23 26  1  0  0  0
 24 26  2  0  0  0
 25 26  2  0  0  0
  6  8  1  0  0  0
 33 34  1  0  0  0
 33 35  1  0  0  0
  2  3  1  0  0  0
M  END
> <minimizedAffinity>
-9.48067

$$$$
3NU5_478_B_401


 39 41  0  0  0  0  0  0  0  0999 V2000
   18.0977   25.0897   16.6327 C   0  0  0  0  0  0  0  0  0  0  0  0
   17.0844   25.6686   17.4590 O   0  0  0  0  0  0  0  0  0  0  0  0
   17.3694   25.6433   18.3858 H   0  0  0  0  0  0  0  0  0  0  0  0
   19.3656   25.9191   16.7335 C   0  0  0  0  0  0  0  0  0  0  0  0
   20.6646   26.6609   18.7066 C   0  0  0  0  0  0  0  0  0  0  0  0
   19.9968   25.7055   18.0499 N   0  0  0  0  0  0  0  0  0  0  0  0
   20.8157   27.8249   18.3144 O   0  0  0  0  0  0  0  0  0  0  0  0
   19.9230   24.8160   18.4655 H   0  0  0  0  0  0  0  0  0  0  0  0
   21.2011   26.2292   19.8634 O   0  0  0  0  0  0  0  0  0  0  0  0
   21.8175   24.4074   21.2759 C   0  0  0  0  0  0  0  0  0  0  0  0
   23.2358   24.9033   19.4195 C   0  0  0  0  0  0  0  0  0  0  0  0
   21.7693   24.8965   19.8236 C   0  0  0  0  0  0  0  0  0  0  0  0
   23.9968   24.5697   20.7184 C   0  0  0  0  0  0  0  0  0  0  0  0
   23.0639   24.9261   21.7630 O   0  0  0  0  0  0  0  0  0  0  0  0
   20.3847   25.5656   15.6322 C   0  0  0  0  0  0  0  0  0  0  0  0
   21.0431   26.7782   14.9957 C   0  0  0  0  0  0  0  0  0  0  0  0
   22.2339   27.3385   15.4553 C   0  0  0  0  0  0  0  0  0  0  0  0
   20.3898   27.4441   13.9635 C   0  0  0  0  0  0  0  0  0  0  0  0
   22.7511   28.4621   14.8137 C   0  0  0  0  0  0  0  0  0  0  0  0
   20.8496   28.6018   13.3469 C   0  0  0  0  0  0  0  0  0  0  0  0
   22.0095   29.1256   13.8644 C   0  0  0  0  0  0  0  0  0  0  0  0
   18.2901   23.6091   16.9532 C   0  0  0  0  0  0  0  0  0  0  0  0
   17.0947   22.9940   17.4834 N   0  0  0  0  0  0  0  0  0  0  0  0
   17.7541   20.6318   16.8469 O   0  0  0  0  0  0  0  0  0  0  0  0
   16.1462   21.8651   15.4253 O   0  0  0  0  0  0  0  0  0  0  0  0
   16.5879   21.5656   16.8340 S   0  0  0  0  0  0  0  0  0  0  0  0
   15.2913   20.8428   17.7558 C   0  0  0  0  0  0  0  0  0  0  0  0
   13.9741   20.9003   17.3312 C   0  0  0  0  0  0  0  0  0  0  0  0
   12.9334   20.2421   17.9845 C   0  0  0  0  0  0  0  0  0  0  0  0
   13.2021   19.4423   19.0844 C   0  0  0  0  0  0  0  0  0  0  0  0
   14.5303   19.3412   19.5008 C   0  0  0  0  0  0  0  0  0  0  0  0
   15.5473   19.9837   18.8128 C   0  0  0  0  0  0  0  0  0  0  0  0
   12.2379   18.7769   19.7183 N   0  0  0  0  0  0  0  0  0  0  0  0
   11.3045   18.8558   19.4156 H   0  0  0  0  0  0  0  0  0  0  0  0
   12.4588   18.2062   20.4895 H   0  0  0  0  0  0  0  0  0  0  0  0
   17.0013   23.1008   18.9207 C   0  0  0  0  0  0  0  0  0  0  0  0
   18.3604   23.1479   19.6474 C   0  0  0  0  0  0  0  0  0  0  0  0
   18.2771   23.9859   20.9380 C   0  0  0  0  0  0  0  0  0  0  0  0
   18.8518   21.7423   20.0147 C   0  0  0  0  0  0  0  0  0  0  0  0
 10 12  1  0  0  0
 10 14  1  0  0  0
 11 12  1  0  0  0
 11 13  1  0  0  0
  5  6  1  0  0  0
  5  9  1  0  0  0
  5  7  2  0  0  0
 12  9  1  0  0  0
  4  1  1  0  0  0
  4 15  1  0  0  0
  4  6  1  0  0  0
  1 22  1  0  0  0
  1  2  1  0  0  0
 15 16  1  0  0  0
 16 17  2  0  0  0
 16 18  1  0  0  0
 17 19  1  0  0  0
 18 20  2  0  0  0
 19 21  2  0  0  0
 20 21  1  0  0  0
 22 23  1  0  0  0
 36 37  1  0  0  0
 36 23  1  0  0  0
 37 38  1  0  0  0
 37 39  1  0  0  0
 27 28  2  0  0  0
 27 32  1  0  0  0
 27 26  1  0  0  0
 28 29  1  0  0  0
 29 30  2  0  0  0
 30 31  1  0  0  0
 30 33  1  0  0  0
 31 32  2  0  0  0
 13 14  1  0  0  0
 23 26  1  0  0  0
 24 26  2  0  0  0
 25 26  2  0  0  0
  6  8  1  0  0  0
 33 34  1  0  0  0
 33 35  1  0  0  0
  2  3  1  0  0  0
M  END
> <minimizedAffinity>
-9.42906

$$$$
3NU5_478_B_401


 39 41  0  0  0  0  0  0  0  0999 V2000
   18.3492   25.1824   16.3574 C   0  0  0  0  0  0  0  0  0  0  0  0
   17.7407   25.6349   15.1451 O   0  0  0  0  0  0  0  0  0  0  0  0
   17.4130   26.5398   15.2659 H   0  0  0  0  0  0  0  0  0  0  0  0
   19.5510   26.0545   16.6747 C   0  0  0  0  0  0  0  0  0  0  0  0
   20.6745   26.6682   18.7941 C   0  0  0  0  0  0  0  0  0  0  0  0
   20.0234   25.7722   18.0437 N   0  0  0  0  0  0  0  0  0  0  0  0
   20.9380   27.8284   18.4533 O   0  0  0  0  0  0  0  0  0  0  0  0
   19.8511   24.8804   18.4237 H   0  0  0  0  0  0  0  0  0  0  0  0
   21.0566   26.1780   19.9882 O   0  0  0  0  0  0  0  0  0  0  0  0
   21.5416   24.3212   21.4065 C   0  0  0  0  0  0  0  0  0  0  0  0
   23.0834   24.8096   19.6492 C   0  0  0  0  0  0  0  0  0  0  0  0
   21.5949   24.8325   19.9620 C   0  0  0  0  0  0  0  0  0  0  0  0
   23.7545   24.4386   20.9869 C   0  0  0  0  0  0  0  0  0  0  0  0
   22.7673   24.8022   21.9777 O   0  0  0  0  0  0  0  0  0  0  0  0
   20.7159   25.8251   15.6915 C   0  0  0  0  0  0  0  0  0  0  0  0
   21.2362   27.1008   15.0507 C   0  0  0  0  0  0  0  0  0  0  0  0
   20.6500   27.6978   13.9358 C   0  0  0  0  0  0  0  0  0  0  0  0
   22.4183   27.6650   15.5198 C   0  0  0  0  0  0  0  0  0  0  0  0
   21.2112   28.8599   13.4102 C   0  0  0  0  0  0  0  0  0  0  0  0
   23.0352   28.7860   14.9769 C   0  0  0  0  0  0  0  0  0  0  0  0
   22.4303   29.3102   13.8604 C   0  0  0  0  0  0  0  0  0  0  0  0
   17.3254   25.0911   17.4867 C   0  0  0  0  0  0  0  0  0  0  0  0
   16.7645   23.7663   17.6244 N   0  0  0  0  0  0  0  0  0  0  0  0
   17.1254   23.6449   20.1294 O   0  0  0  0  0  0  0  0  0  0  0  0
   18.6994   22.4727   18.6208 O   0  0  0  0  0  0  0  0  0  0  0  0
   17.2596   22.8273   18.8862 S   0  0  0  0  0  0  0  0  0  0  0  0
   16.2834   21.3888   19.0631 C   0  0  0  0  0  0  0  0  0  0  0  0
   15.2704   21.3057   20.0041 C   0  0  0  0  0  0  0  0  0  0  0  0
   14.4042   20.2175   20.0974 C   0  0  0  0  0  0  0  0  0  0  0  0
   14.5011   19.1754   19.1884 C   0  0  0  0  0  0  0  0  0  0  0  0
   15.4909   19.2627   18.2083 C   0  0  0  0  0  0  0  0  0  0  0  0
   16.3177   20.3715   18.1225 C   0  0  0  0  0  0  0  0  0  0  0  0
   13.6746   18.1317   19.2294 N   0  0  0  0  0  0  0  0  0  0  0  0
   12.9801   18.0808   19.9253 H   0  0  0  0  0  0  0  0  0  0  0  0
   13.7581   17.4112   18.5637 H   0  0  0  0  0  0  0  0  0  0  0  0
   15.3528   23.7227   17.3226 C   0  0  0  0  0  0  0  0  0  0  0  0
   15.0166   23.1902   15.9151 C   0  0  0  0  0  0  0  0  0  0  0  0
   16.2233   22.4662   15.2869 C   0  0  0  0  0  0  0  0  0  0  0  0
   13.8327   22.2159   15.9494 C   0  0  0  0  0  0  0  0  0  0  0  0
 10 12  1  0  0  0
 10 14  1  0  0  0
 11 12  1  0  0  0
 11 13  1  0  0  0
  5  6  1  0  0  0
  5  9  1  0  0  0
  5  7  2  0  0  0
 12  9  1  0  0  0
  4  1  1  0  0  0
  4 15  1  0  0  0
  4  6  1  0  0  0
  1 22  1  0  0  0
  1  2  1  0  0  0
 15 16  1  0  0  0
 16 17  2  0  0  0
 16 18  1  0  0  0
 17 19  1  0  0  0
 18 20  2  0  0  0
 19 21  2  0  0  0
 20 21  1  0  0  0
 22 23  1  0  0  0
 36 37  1  0  0  0
 36 23  1  0  0  0
 37 38  1  0  0  0
 37 39  1  0  0  0
 27 28  2  0  0  0
 27 32  1  0  0  0
 27 26  1  0  0  0
 28 29  1  0  0  0
 29 30  2  0  0  0
 30 31  1  0  0  0
 30 33  1  0  0  0
 31 32  2  0  0  0
 13 14  1  0  0  0
 23 26  1  0  0  0
 24 26  2  0  0  0
 25 26  2  0  0  0
  6  8  1  0  0  0
 33 34  1  0  0  0
 33 35  1  0  0  0
  2  3  1  0  0  0
M  END
> <minimizedAffinity>
-9.20113

$$$$
3NU5_478_B_401


 39 41  0  0  0  0  0  0  0  0999 V2000
   17.1774   21.5561   17.3578 C   0  0  0  0  0  0  0  0  0  0  0  0
   17.6712   20.2314   17.1430 O   0  0  0  0  0  0  0  0  0  0  0  0
   18.5984   20.1825   17.4236 H   0  0  0  0  0  0  0  0  0  0  0  0
   17.2128   21.8730   18.8424 C   0  0  0  0  0  0  0  0  0  0  0  0
   14.9091   21.4067   19.6212 C   0  0  0  0  0  0  0  0  0  0  0  0
   16.2004   21.0643   19.5482 N   0  0  0  0  0  0  0  0  0  0  0  0
   14.4057   22.4097   19.0995 O   0  0  0  0  0  0  0  0  0  0  0  0
   16.4893   20.2318   19.9872 H   0  0  0  0  0  0  0  0  0  0  0  0
   14.1773   20.5503   20.3582 O   0  0  0  0  0  0  0  0  0  0  0  0
   12.5026   19.2234   19.2958 C   0  0  0  0  0  0  0  0  0  0  0  0
   14.0085   18.1251   20.7890 C   0  0  0  0  0  0  0  0  0  0  0  0
   13.9629   19.2466   19.7622 C   0  0  0  0  0  0  0  0  0  0  0  0
   12.5424   17.6690   20.9294 C   0  0  0  0  0  0  0  0  0  0  0  0
   11.7834   18.8083   20.4664 O   0  0  0  0  0  0  0  0  0  0  0  0
   18.5939   21.5932   19.4673 C   0  0  0  0  0  0  0  0  0  0  0  0
   19.3005   22.8397   19.9733 C   0  0  0  0  0  0  0  0  0  0  0  0
   18.7395   23.7235   20.8938 C   0  0  0  0  0  0  0  0  0  0  0  0
   20.5299   23.1943   19.4269 C   0  0  0  0  0  0  0  0  0  0  0  0
   19.4609   24.8497   21.2849 C   0  0  0  0  0  0  0  0  0  0  0  0
   21.2430   24.3426   19.7507 C   0  0  0  0  0  0  0  0  0  0  0  0
   20.6252   25.1910   20.6372 C   0  0  0  0  0  0  0  0  0  0  0  0
   17.9152   22.5673   16.4833 C   0  0  0  0  0  0  0  0  0  0  0  0
   17.0294   23.5452   15.8939 N   0  0  0  0  0  0  0  0  0  0  0  0
   16.8890   25.5247   17.4693 O   0  0  0  0  0  0  0  0  0  0  0  0
   16.6121   25.8907   15.0369 O   0  0  0  0  0  0  0  0  0  0  0  0
   17.3675   25.1451   16.1058 S   0  0  0  0  0  0  0  0  0  0  0  0
   19.0802   25.4777   16.0090 C   0  0  0  0  0  0  0  0  0  0  0  0
   19.8154   25.1935   14.8700 C   0  0  0  0  0  0  0  0  0  0  0  0
   21.1558   25.5458   14.7206 C   0  0  0  0  0  0  0  0  0  0  0  0
   21.7997   26.2601   15.7191 C   0  0  0  0  0  0  0  0  0  0  0  0
   21.0611   26.5898   16.8564 C   0  0  0  0  0  0  0  0  0  0  0  0
   19.7215   26.2517   16.9632 C   0  0  0  0  0  0  0  0  0  0  0  0
   23.0716   26.6373   15.6008 N   0  0  0  0  0  0  0  0  0  0  0  0
   23.5827   26.3990   14.7939 H   0  0  0  0  0  0  0  0  0  0  0  0
   23.5005   27.1545   16.3204 H   0  0  0  0  0  0  0  0  0  0  0  0
   16.5759   23.1664   14.5760 C   0  0  0  0  0  0  0  0  0  0  0  0
   15.3754   22.1987   14.5672 C   0  0  0  0  0  0  0  0  0  0  0  0
   14.1128   22.8669   15.1454 C   0  0  0  0  0  0  0  0  0  0  0  0
   15.0569   21.7093   13.1490 C   0  0  0  0  0  0  0  0  0  0  0  0
 10 12  1  0  0  0
 10 14  1  0  0  0
 11 12  1  0  0  0
 11 13  1  0  0  0
  5  6  1  0  0  0
  5  9  1  0  0  0
  5  7  2  0  0  0
 12  9  1  0  0  0
  4  1  1  0  0  0
  4 15  1  0  0  0
  4  6  1  0  0  0
  1 22  1  0  0  0
  1  2  1  0  0  0
 15 16  1  0  0  0
 16 17  2  0  0  0
 16 18  1  0  0  0
 17 19  1  0  0  0
 18 20  2  0  0  0
 19 21  2  0  0  0
 20 21  1  0  0  0
 22 23  1  0  0  0
 36 37  1  0  0  0
 36 23  1  0  0  0
 37 38  1  0  0  0
 37 39  1  0  0  0
 27 28  2  0  0  0
 27 32  1  0  0  0
 27 26  1  0  0  0
 28 29  1  0  0  0
 29 30  2  0  0  0
 30 31  1  0  0  0
 30 33  1  0  0  0
 31 32  2  0  0  0
 13 14  1  0  0  0
 23 26  1  0  0  0
 24 26  2  0  0  0
 25 26  2  0  0  0
  6  8  1  0  0  0
 33 34  1  0  0  0
 33 35  1  0  0  0
  2  3  1  0  0  0
M  END
> <minimizedAffinity>
-9.18520

$$$$
3NU5_478_B_401


 39 41  0  0  0  0  0  0  0  0999 V2000
   14.4755   22.2612   17.4923 C   0  0  0  0  0  0  0  0  0  0  0  0
   13.7049   23.0319   16.5666 O   0  0  0  0  0  0  0  0  0  0  0  0
   13.5985   22.5338   15.7411 H   0  0  0  0  0  0  0  0  0  0  0  0
   13.7260   20.9854   17.8332 C   0  0  0  0  0  0  0  0  0  0  0  0
   11.7651   19.9913   16.6940 C   0  0  0  0  0  0  0  0  0  0  0  0
   13.0012   20.5007   16.6429 N   0  0  0  0  0  0  0  0  0  0  0  0
   11.0786   19.8845   17.7181 O   0  0  0  0  0  0  0  0  0  0  0  0
   13.4492   20.5549   15.7679 H   0  0  0  0  0  0  0  0  0  0  0  0
   11.3207   19.5647   15.4971 O   0  0  0  0  0  0  0  0  0  0  0  0
   11.1228   20.9364   13.5545 C   0  0  0  0  0  0  0  0  0  0  0  0
   12.3914   18.9216   13.3674 C   0  0  0  0  0  0  0  0  0  0  0  0
   12.0740   20.0366   14.3523 C   0  0  0  0  0  0  0  0  0  0  0  0
   11.4756   19.2004   12.1587 C   0  0  0  0  0  0  0  0  0  0  0  0
   10.4168   20.0138   12.7117 O   0  0  0  0  0  0  0  0  0  0  0  0
   14.6666   19.8692   18.3290 C   0  0  0  0  0  0  0  0  0  0  0  0
   14.1343   19.1102   19.5329 C   0  0  0  0  0  0  0  0  0  0  0  0
   13.2512   18.0359   19.4377 C   0  0  0  0  0  0  0  0  0  0  0  0
   14.4489   19.5566   20.8125 C   0  0  0  0  0  0  0  0  0  0  0  0
   12.8061   17.4136   20.6023 C   0  0  0  0  0  0  0  0  0  0  0  0
   13.9704   18.9958   21.9908 C   0  0  0  0  0  0  0  0  0  0  0  0
   13.0786   17.9627   21.8335 C   0  0  0  0  0  0  0  0  0  0  0  0
   15.8940   22.0354   16.9741 C   0  0  0  0  0  0  0  0  0  0  0  0
   16.8389   22.9931   17.5018 N   0  0  0  0  0  0  0  0  0  0  0  0
   16.4210   25.4816   17.7309 O   0  0  0  0  0  0  0  0  0  0  0  0
   16.1178   24.4007   15.5248 O   0  0  0  0  0  0  0  0  0  0  0  0
   16.9575   24.4678   16.7737 S   0  0  0  0  0  0  0  0  0  0  0  0
   18.6108   24.8871   16.3941 C   0  0  0  0  0  0  0  0  0  0  0  0
   19.1664   24.6149   15.1548 C   0  0  0  0  0  0  0  0  0  0  0  0
   20.4433   25.0332   14.7836 C   0  0  0  0  0  0  0  0  0  0  0  0
   21.1998   25.8035   15.6532 C   0  0  0  0  0  0  0  0  0  0  0  0
   20.6381   26.1209   16.8908 C   0  0  0  0  0  0  0  0  0  0  0  0
   19.3543   25.7158   17.2195 C   0  0  0  0  0  0  0  0  0  0  0  0
   22.4129   26.2438   15.3237 N   0  0  0  0  0  0  0  0  0  0  0  0
   22.7990   26.0136   14.4478 H   0  0  0  0  0  0  0  0  0  0  0  0
   22.9234   26.7996   15.9559 H   0  0  0  0  0  0  0  0  0  0  0  0
   16.8828   22.9980   18.9454 C   0  0  0  0  0  0  0  0  0  0  0  0
   18.3035   23.0642   19.5410 C   0  0  0  0  0  0  0  0  0  0  0  0
   18.3360   23.9257   20.8185 C   0  0  0  0  0  0  0  0  0  0  0  0
   18.8352   21.6678   19.8864 C   0  0  0  0  0  0  0  0  0  0  0  0
 10 12  1  0  0  0
 10 14  1  0  0  0
 11 12  1  0  0  0
 11 13  1  0  0  0
  5  6  1  0  0  0
  5  9  1  0  0  0
  5  7  2  0  0  0
 12  9  1  0  0  0
  4  1  1  0  0  0
  4 15  1  0  0  0
  4  6  1  0  0  0
  1 22  1  0  0  0
  1  2  1  0  0  0
 15 16  1  0  0  0
 16 17  2  0  0  0
 16 18  1  0  0  0
 17 19  1  0  0  0
 18 20  2  0  0  0
 19 21  2  0  0  0
 20 21  1  0  0  0
 22 23  1  0  0  0
 36 37  1  0  0  0
 36 23  1  0  0  0
 37 38  1  0  0  0
 37 39  1  0  0  0
 27 28  2  0  0  0
 27 32  1  0  0  0
 27 26  1  0  0  0
 28 29  1  0  0  0
 29 30  2  0  0  0
 30 31  1  0  0  0
 30 33  1  0  0  0
 31 32  2  0  0  0
 13 14  1  0  0  0
 23 26  1  0  0  0
 24 26  2  0  0  0
 25 26  2  0  0  0
  6  8  1  0  0  0
 33 34  1  0  0  0
 33 35  1  0  0  0
  2  3  1  0  0  0
M  END
> <minimizedAffinity>
-9.16944

$$$$
3NU5_478_B_401


 39 41  0  0  0  0  0  0  0  0999 V2000
   17.9234   22.4042   18.2438 C   0  0  0  0  0  0  0  0  0  0  0  0
   18.8533   21.7875   19.1381 O   0  0  0  0  0  0  0  0  0  0  0  0
   19.5859   21.4056   18.6299 H   0  0  0  0  0  0  0  0  0  0  0  0
   18.6066   23.5481   17.5156 C   0  0  0  0  0  0  0  0  0  0  0  0
   20.2736   25.1439   18.4131 C   0  0  0  0  0  0  0  0  0  0  0  0
   19.8714   23.8865   18.1960 N   0  0  0  0  0  0  0  0  0  0  0  0
   19.6411   26.1602   18.0989 O   0  0  0  0  0  0  0  0  0  0  0  0
   20.4478   23.1508   18.5055 H   0  0  0  0  0  0  0  0  0  0  0  0
   21.4817   25.2168   19.0024 O   0  0  0  0  0  0  0  0  0  0  0  0
   21.3015   24.3002   21.1982 C   0  0  0  0  0  0  0  0  0  0  0  0
   23.3584   23.9825   20.0270 C   0  0  0  0  0  0  0  0  0  0  0  0
   21.8578   24.0596   19.7899 C   0  0  0  0  0  0  0  0  0  0  0  0
   23.5338   24.3399   21.5166 C   0  0  0  0  0  0  0  0  0  0  0  0
   22.3294   25.0713   21.8374 O   0  0  0  0  0  0  0  0  0  0  0  0
   18.9121   23.2050   16.0441 C   0  0  0  0  0  0  0  0  0  0  0  0
   19.0672   24.4245   15.1509 C   0  0  0  0  0  0  0  0  0  0  0  0
   20.3012   24.9623   14.7885 C   0  0  0  0  0  0  0  0  0  0  0  0
   17.9325   25.1197   14.7449 C   0  0  0  0  0  0  0  0  0  0  0  0
   20.3399   26.0945   13.9771 C   0  0  0  0  0  0  0  0  0  0  0  0
   17.9420   26.2859   13.9889 C   0  0  0  0  0  0  0  0  0  0  0  0
   19.1862   26.7862   13.6908 C   0  0  0  0  0  0  0  0  0  0  0  0
   17.2776   21.3715   17.3228 C   0  0  0  0  0  0  0  0  0  0  0  0
   15.8355   21.3661   17.4164 N   0  0  0  0  0  0  0  0  0  0  0  0
   14.5908   22.3107   19.4110 O   0  0  0  0  0  0  0  0  0  0  0  0
   16.2346   20.4930   19.7591 O   0  0  0  0  0  0  0  0  0  0  0  0
   15.1407   21.0298   18.8735 S   0  0  0  0  0  0  0  0  0  0  0  0
   13.8304   19.8823   18.7324 C   0  0  0  0  0  0  0  0  0  0  0  0
   13.7726   18.7410   19.5153 C   0  0  0  0  0  0  0  0  0  0  0  0
   12.6891   17.8641   19.5053 C   0  0  0  0  0  0  0  0  0  0  0  0
   11.5785   18.1444   18.7245 C   0  0  0  0  0  0  0  0  0  0  0  0
   11.6039   19.3119   17.9603 C   0  0  0  0  0  0  0  0  0  0  0  0
   12.6831   20.1796   18.0141 C   0  0  0  0  0  0  0  0  0  0  0  0
   10.5137   17.3443   18.7091 N   0  0  0  0  0  0  0  0  0  0  0  0
   10.5070   16.5233   19.2524 H   0  0  0  0  0  0  0  0  0  0  0  0
    9.7334   17.5740   18.1545 H   0  0  0  0  0  0  0  0  0  0  0  0
   15.2219   22.4302   16.6566 C   0  0  0  0  0  0  0  0  0  0  0  0
   14.5468   21.9735   15.3478 C   0  0  0  0  0  0  0  0  0  0  0  0
   13.2499   22.7622   15.0813 C   0  0  0  0  0  0  0  0  0  0  0  0
   15.4774   22.1520   14.1419 C   0  0  0  0  0  0  0  0  0  0  0  0
 10 12  1  0  0  0
 10 14  1  0  0  0
 11 12  1  0  0  0
 11 13  1  0  0  0
  5  6  1  0  0  0
  5  9  1  0  0  0
  5  7  2  0  0  0
 12  9  1  0  0  0
  4  1  1  0  0  0
  4 15  1  0  0  0
  4  6  1  0  0  0
  1 22  1  0  0  0
  1  2  1  0  0  0
 15 16  1  0  0  0
 16 17  2  0  0  0
 16 18  1  0  0  0
 17 19  1  0  0  0
 18 20  2  0  0  0
 19 21  2  0  0  0
 20 21  1  0  0  0
 22 23  1  0  0  0
 36 37  1  0  0  0
 36 23  1  0  0  0
 37 38  1  0  0  0
 37 39  1  0  0  0
 27 28  2  0  0  0
 27 32  1  0  0  0
 27 26  1  0  0  0
 28 29  1  0  0  0
 29 30  2  0  0  0
 30 31  1  0  0  0
 30 33  1  0  0  0
 31 32  2  0  0  0
 13 14  1  0  0  0
 23 26  1  0  0  0
 24 26  2  0  0  0
 25 26  2  0  0  0
  6  8  1  0  0  0
 33 34  1  0  0  0
 33 35  1  0  0  0
  2  3  1  0  0  0
M  END
> <minimizedAffinity>
-9.11515

$$$$
3NU5_478_B_401


 39 41  0  0  0  0  0  0  0  0999 V2000
   16.2386   22.7840   15.1829 C   0  0  0  0  0  0  0  0  0  0  0  0
   16.1224   22.4607   13.7948 O   0  0  0  0  0  0  0  0  0  0  0  0
   15.6415   23.1680   13.3373 H   0  0  0  0  0  0  0  0  0  0  0  0
   17.0565   24.0538   15.3383 C   0  0  0  0  0  0  0  0  0  0  0  0
   17.4783   24.8020   17.6606 C   0  0  0  0  0  0  0  0  0  0  0  0
   17.7880   24.0212   16.6193 N   0  0  0  0  0  0  0  0  0  0  0  0
   16.5469   25.6163   17.6905 O   0  0  0  0  0  0  0  0  0  0  0  0
   18.5410   23.3939   16.7124 H   0  0  0  0  0  0  0  0  0  0  0  0
   18.3106   24.6411   18.7063 O   0  0  0  0  0  0  0  0  0  0  0  0
   20.1550   23.3443   19.4879 C   0  0  0  0  0  0  0  0  0  0  0  0
   20.6318   25.4432   18.4531 C   0  0  0  0  0  0  0  0  0  0  0  0
   19.6692   24.2686   18.3652 C   0  0  0  0  0  0  0  0  0  0  0  0
   21.4769   25.1580   19.7108 C   0  0  0  0  0  0  0  0  0  0  0  0
   20.6519   24.2546   20.4800 O   0  0  0  0  0  0  0  0  0  0  0  0
   18.0714   24.2395   14.1929 C   0  0  0  0  0  0  0  0  0  0  0  0
   19.0744   25.3541   14.4387 C   0  0  0  0  0  0  0  0  0  0  0  0
   18.7656   26.7084   14.3213 C   0  0  0  0  0  0  0  0  0  0  0  0
   20.4030   25.0301   14.6950 C   0  0  0  0  0  0  0  0  0  0  0  0
   19.7599   27.6571   14.5516 C   0  0  0  0  0  0  0  0  0  0  0  0
   21.4282   25.9528   14.8666 C   0  0  0  0  0  0  0  0  0  0  0  0
   21.0704   27.2695   14.7063 C   0  0  0  0  0  0  0  0  0  0  0  0
   14.8674   22.8357   15.8529 C   0  0  0  0  0  0  0  0  0  0  0  0
   14.6034   21.6745   16.6717 N   0  0  0  0  0  0  0  0  0  0  0  0
   14.3348   23.0874   18.7577 O   0  0  0  0  0  0  0  0  0  0  0  0
   16.3700   21.7050   18.4850 O   0  0  0  0  0  0  0  0  0  0  0  0
   14.8773   21.7746   18.2946 S   0  0  0  0  0  0  0  0  0  0  0  0
   14.0735   20.5013   19.1810 C   0  0  0  0  0  0  0  0  0  0  0  0
   12.9132   19.9067   18.7130 C   0  0  0  0  0  0  0  0  0  0  0  0
   12.3093   18.8172   19.3387 C   0  0  0  0  0  0  0  0  0  0  0  0
   12.8995   18.2451   20.4550 C   0  0  0  0  0  0  0  0  0  0  0  0
   14.0910   18.8072   20.9156 C   0  0  0  0  0  0  0  0  0  0  0  0
   14.6831   19.8715   20.2545 C   0  0  0  0  0  0  0  0  0  0  0  0
   12.3664   17.1872   21.0638 N   0  0  0  0  0  0  0  0  0  0  0  0
   11.5254   16.7991   20.7300 H   0  0  0  0  0  0  0  0  0  0  0  0
   12.8132   16.7933   21.8477 H   0  0  0  0  0  0  0  0  0  0  0  0
   13.4037   20.9734   16.2774 C   0  0  0  0  0  0  0  0  0  0  0  0
   12.9645   21.2278   14.8215 C   0  0  0  0  0  0  0  0  0  0  0  0
   13.4162   20.0845   13.8920 C   0  0  0  0  0  0  0  0  0  0  0  0
   11.4416   21.3689   14.7090 C   0  0  0  0  0  0  0  0  0  0  0  0
 10 12  1  0  0  0
 10 14  1  0  0  0
 11 12  1  0  0  0
 11 13  1  0  0  0
  5  6  1  0  0  0
  5  9  1  0  0  0
  5  7  2  0  0  0
 12  9  1  0  0  0
  4  1  1  0  0  0
  4 15  1  0  0  0
  4  6  1  0  0  0
  1 22  1  0  0  0
  1  2  1  0  0  0
 15 16  1  0  0  0
 16 17  2  0  0  0
 16 18  1  0  0  0
 17 19  1  0  0  0
 18 20  2  0  0  0
 19 21  2  0  0  0
 20 21  1  0  0  0
 22 23  1  0  0  0
 36 37  1  0  0  0
 36 23  1  0  0  0
 37 38  1  0  0  0
 37 39  1  0  0  0
 27 28  2  0  0  0
 27 32  1  0  0  0
 27 26  1  0  0  0
 28 29  1  0  0  0
 29 30  2  0  0  0
 30 31  1  0  0  0
 30 33  1  0  0  0
 31 32  2  0  0  0
 13 14  1  0  0  0
 23 26  1  0  0  0
 24 26  2  0  0  0
 25 26  2  0  0  0
  6  8  1  0  0  0
 33 34  1  0  0  0
 33 35  1  0  0  0
  2  3  1  0  0  0
M  END
> <minimizedAffinity>
-9.06647

$$$$
3NU5_478_B_401


 39 41  0  0  0  0  0  0  0  0999 V2000
   16.9188   21.2296   17.1770 C   0  0  0  0  0  0  0  0  0  0  0  0
   17.6021   19.9818   17.0316 O   0  0  0  0  0  0  0  0  0  0  0  0
   18.4628   20.0309   17.4761 H   0  0  0  0  0  0  0  0  0  0  0  0
   16.6482   21.4880   18.6486 C   0  0  0  0  0  0  0  0  0  0  0  0
   18.5906   22.5996   19.7080 C   0  0  0  0  0  0  0  0  0  0  0  0
   17.4048   22.6743   19.0930 N   0  0  0  0  0  0  0  0  0  0  0  0
   19.2012   21.5524   19.9569 O   0  0  0  0  0  0  0  0  0  0  0  0
   17.0180   23.5646   18.9289 H   0  0  0  0  0  0  0  0  0  0  0  0
   19.0734   23.8029   20.0703 O   0  0  0  0  0  0  0  0  0  0  0  0
   20.5402   25.1517   21.3831 C   0  0  0  0  0  0  0  0  0  0  0  0
   21.5164   23.7440   19.7190 C   0  0  0  0  0  0  0  0  0  0  0  0
   20.3698   23.7808   20.7180 C   0  0  0  0  0  0  0  0  0  0  0  0
   22.1399   25.1522   19.7933 C   0  0  0  0  0  0  0  0  0  0  0  0
   21.0770   25.9693   20.3328 O   0  0  0  0  0  0  0  0  0  0  0  0
   15.1514   21.7189   18.9361 C   0  0  0  0  0  0  0  0  0  0  0  0
   14.4235   20.4776   19.4242 C   0  0  0  0  0  0  0  0  0  0  0  0
   14.8885   19.6688   20.4599 C   0  0  0  0  0  0  0  0  0  0  0  0
   13.2849   20.0470   18.7504 C   0  0  0  0  0  0  0  0  0  0  0  0
   14.1571   18.5404   20.8251 C   0  0  0  0  0  0  0  0  0  0  0  0
   12.5709   18.8931   19.0513 C   0  0  0  0  0  0  0  0  0  0  0  0
   13.0956   18.1199   20.0583 C   0  0  0  0  0  0  0  0  0  0  0  0
   17.6715   22.3550   16.4709 C   0  0  0  0  0  0  0  0  0  0  0  0
   16.7883   23.3659   15.9358 N   0  0  0  0  0  0  0  0  0  0  0  0
   16.7464   25.2883   17.5859 O   0  0  0  0  0  0  0  0  0  0  0  0
   16.3691   25.7465   15.1828 O   0  0  0  0  0  0  0  0  0  0  0  0
   17.1592   24.9524   16.1899 S   0  0  0  0  0  0  0  0  0  0  0  0
   18.8708   25.2654   16.0296 C   0  0  0  0  0  0  0  0  0  0  0  0
   19.5557   24.9930   14.8569 C   0  0  0  0  0  0  0  0  0  0  0  0
   20.8935   25.3313   14.6594 C   0  0  0  0  0  0  0  0  0  0  0  0
   21.5864   26.0191   15.6435 C   0  0  0  0  0  0  0  0  0  0  0  0
   20.8988   26.3371   16.8156 C   0  0  0  0  0  0  0  0  0  0  0  0
   19.5602   26.0137   16.9707 C   0  0  0  0  0  0  0  0  0  0  0  0
   22.8574   26.3826   15.4805 N   0  0  0  0  0  0  0  0  0  0  0  0
   23.3324   26.1528   14.6493 H   0  0  0  0  0  0  0  0  0  0  0  0
   23.3218   26.8812   16.1911 H   0  0  0  0  0  0  0  0  0  0  0  0
   16.2955   23.0374   14.6185 C   0  0  0  0  0  0  0  0  0  0  0  0
   15.0671   22.1055   14.6101 C   0  0  0  0  0  0  0  0  0  0  0  0
   13.7862   22.8631   15.0105 C   0  0  0  0  0  0  0  0  0  0  0  0
   14.8455   21.4781   13.2283 C   0  0  0  0  0  0  0  0  0  0  0  0
 10 12  1  0  0  0
 10 14  1  0  0  0
 11 12  1  0  0  0
 11 13  1  0  0  0
  5  6  1  0  0  0
  5  9  1  0  0  0
  5  7  2  0  0  0
 12  9  1  0  0  0
  4  1  1  0  0  0
  4 15  1  0  0  0
  4  6  1  0  0  0
  1 22  1  0  0  0
  1  2  1  0  0  0
 15 16  1  0  0  0
 16 17  2  0  0  0
 16 18  1  0  0  0
 17 19  1  0  0  0
 18 20  2  0  0  0
 19 21  2  0  0  0
 20 21  1  0  0  0
 22 23  1  0  0  0
 36 37  1  0  0  0
 36 23  1  0  0  0
 37 38  1  0  0  0
 37 39  1  0  0  0
 27 28  2  0  0  0
 27 32  1  0  0  0
 27 26  1  0  0  0
 28 29  1  0  0  0
 29 30  2  0  0  0
 30 31  1  0  0  0
 30 33  1  0  0  0
 31 32  2  0  0  0
 13 14  1  0  0  0
 23 26  1  0  0  0
 24 26  2  0  0  0
 25 26  2  0  0  0
  6  8  1  0  0  0
 33 34  1  0  0  0
 33 35  1  0  0  0
  2  3  1  0  0  0
M  END
> <minimizedAffinity>
-8.95182

$$$$
3NU5_478_B_401


 39 41  0  0  0  0  0  0  0  0999 V2000
   16.2745   24.4893   18.0650 C   0  0  0  0  0  0  0  0  0  0  0  0
   15.7451   25.6868   18.6398 O   0  0  0  0  0  0  0  0  0  0  0  0
   15.8741   25.6686   19.6010 H   0  0  0  0  0  0  0  0  0  0  0  0
   17.7711   24.4290   18.3143 C   0  0  0  0  0  0  0  0  0  0  0  0
   19.1013   25.6067   16.5896 C   0  0  0  0  0  0  0  0  0  0  0  0
   18.4198   25.6237   17.7408 N   0  0  0  0  0  0  0  0  0  0  0  0
   19.2524   24.6157   15.8638 O   0  0  0  0  0  0  0  0  0  0  0  0
   18.3477   26.4754   18.2293 H   0  0  0  0  0  0  0  0  0  0  0  0
   19.6519   26.7967   16.2850 O   0  0  0  0  0  0  0  0  0  0  0  0
   21.7414   27.8504   15.8183 C   0  0  0  0  0  0  0  0  0  0  0  0
   20.4026   27.1672   13.9624 C   0  0  0  0  0  0  0  0  0  0  0  0
   20.7781   26.7433   15.3743 C   0  0  0  0  0  0  0  0  0  0  0  0
   21.0586   28.5514   13.7863 C   0  0  0  0  0  0  0  0  0  0  0  0
   21.2474   29.0158   15.1418 O   0  0  0  0  0  0  0  0  0  0  0  0
   18.1112   24.3535   19.8160 C   0  0  0  0  0  0  0  0  0  0  0  0
   19.6027   24.3511   20.1063 C   0  0  0  0  0  0  0  0  0  0  0  0
   20.5332   23.6370   19.3531 C   0  0  0  0  0  0  0  0  0  0  0  0
   20.0767   25.0051   21.2392 C   0  0  0  0  0  0  0  0  0  0  0  0
   21.8797   23.6851   19.7087 C   0  0  0  0  0  0  0  0  0  0  0  0
   21.4033   25.0182   21.6536 C   0  0  0  0  0  0  0  0  0  0  0  0
   22.2675   24.2701   20.8914 C   0  0  0  0  0  0  0  0  0  0  0  0
   15.5083   23.2605   18.5495 C   0  0  0  0  0  0  0  0  0  0  0  0
   15.7179   22.1053   17.7068 N   0  0  0  0  0  0  0  0  0  0  0  0
   17.4895   21.1930   19.2718 O   0  0  0  0  0  0  0  0  0  0  0  0
   16.9007   19.9173   17.2338 O   0  0  0  0  0  0  0  0  0  0  0  0
   16.3793   20.7508   18.3752 S   0  0  0  0  0  0  0  0  0  0  0  0
   15.2237   19.8520   19.3292 C   0  0  0  0  0  0  0  0  0  0  0  0
   14.7565   18.6105   18.9302 C   0  0  0  0  0  0  0  0  0  0  0  0
   13.9210   17.8211   19.7187 C   0  0  0  0  0  0  0  0  0  0  0  0
   13.5628   18.2460   20.9888 C   0  0  0  0  0  0  0  0  0  0  0  0
   14.0582   19.4767   21.4220 C   0  0  0  0  0  0  0  0  0  0  0  0
   14.9113   20.2253   20.6269 C   0  0  0  0  0  0  0  0  0  0  0  0
   12.7881   17.5074   21.7814 N   0  0  0  0  0  0  0  0  0  0  0  0
   12.4444   16.6408   21.4650 H   0  0  0  0  0  0  0  0  0  0  0  0
   12.5592   17.8280   22.6836 H   0  0  0  0  0  0  0  0  0  0  0  0
   14.6321   21.8848   16.7803 C   0  0  0  0  0  0  0  0  0  0  0  0
   14.6781   22.7715   15.5197 C   0  0  0  0  0  0  0  0  0  0  0  0
   15.9255   22.4688   14.6668 C   0  0  0  0  0  0  0  0  0  0  0  0
   13.4345   22.5716   14.6447 C   0  0  0  0  0  0  0  0  0  0  0  0
 10 12  1  0  0  0
 10 14  1  0  0  0
 11 12  1  0  0  0
 11 13  1  0  0  0
  5  6  1  0  0  0
  5  9  1  0  0  0
  5  7  2  0  0  0
 12  9  1  0  0  0
  4  1  1  0  0  0
  4 15  1  0  0  0
  4  6  1  0  0  0
  1 22  1  0  0  0
  1  2  1  0  0  0
 15 16  1  0  0  0
 16 17  2  0  0  0
 16 18  1  0  0  0
 17 19  1  0  0  0
 18 20  2  0  0  0
 19 21  2  0  0  0
 20 21  1  0  0  0
 22 23  1  0  0  0
 36 37  1  0  0  0
 36 23  1  0  0  0
 37 38  1  0  0  0
 37 39  1  0  0  0
 27 28  2  0  0  0
 27 32  1  0  0  0
 27 26  1  0  0  0
 28 29  1  0  0  0
 29 30  2  0  0  0
 30 31  1  0  0  0
 30 33  1  0  0  0
 31 32  2  0  0  0
 13 14  1  0  0  0
 23 26  1  0  0  0
 24 26  2  0  0  0
 25 26  2  0  0  0
  6  8  1  0  0  0
 33 34  1  0  0  0
 33 35  1  0  0  0
  2  3  1  0  0  0
M  END
> <minimizedAffinity>
-8.85409

$$$$
