6ELN_P4A_A_301


 25 27  0  0  0  0  0  0  0  0999 V2000
   63.4912   35.7040   22.3873 N   0  0  0  0  0  0  0  0  0  0  0  0
   63.3076   34.6353   23.2676 N   0  0  0  0  0  0  0  0  0  0  0  0
   64.0493   34.8573   24.3449 C   0  0  0  0  0  0  0  0  0  0  0  0
   64.6894   36.1347   24.1946 C   0  0  0  0  0  0  0  0  0  0  0  0
   64.3188   36.6130   22.9594 C   0  0  0  0  0  0  0  0  0  0  0  0
   64.7371   37.9092   22.3056 C   0  0  0  0  0  0  0  0  0  0  0  0
   63.0848   35.7844   21.4942 H   0  0  0  0  0  0  0  0  0  0  0  0
   64.1126   33.9895   25.5495 C   0  0  0  0  0  0  0  0  0  0  0  0
   62.9801   33.8784   26.3969 C   0  0  0  0  0  0  0  0  0  0  0  0
   63.0452   33.1189   27.5669 C   0  0  0  0  0  0  0  0  0  0  0  0
   64.2250   32.4200   27.8601 C   0  0  0  0  0  0  0  0  0  0  0  0
   65.3449   32.5105   27.0120 C   0  0  0  0  0  0  0  0  0  0  0  0
   65.2933   33.2799   25.8629 C   0  0  0  0  0  0  0  0  0  0  0  0
   64.3225   31.6799   28.9917 O   0  0  0  0  0  0  0  0  0  0  0  0
   61.8291   34.5253   26.0860 O   0  0  0  0  0  0  0  0  0  0  0  0
   63.5880   31.6076   29.5690 H   0  0  0  0  0  0  0  0  0  0  0  0
   61.7762   35.0372   25.3030 H   0  0  0  0  0  0  0  0  0  0  0  0
   65.5702   36.8142   25.2052 C   0  0  0  0  0  0  0  0  0  0  0  0
   65.0114   37.7652   26.0901 C   0  0  0  0  0  0  0  0  0  0  0  0
   65.8106   38.4077   27.0293 C   0  0  0  0  0  0  0  0  0  0  0  0
   67.1899   38.1627   27.0891 C   0  0  0  0  0  0  0  0  0  0  0  0
   67.7647   37.2345   26.1960 C   0  0  0  0  0  0  0  0  0  0  0  0
   66.9657   36.5872   25.2396 C   0  0  0  0  0  0  0  0  0  0  0  0
   67.8946   38.8316   28.0626 O   0  0  0  0  0  0  0  0  0  0  0  0
   69.2074   39.3530   27.8199 C   0  0  0  0  0  0  0  0  0  0  0  0
  1  2  1  0  0  0
  1  5  1  0  0  0
  2  3  2  0  0  0
  3  4  1  0  0  0
  3  8  1  0  0  0
  4  5  2  0  0  0
  4 18  1  0  0  0
  5  6  1  0  0  0
  8  9  2  0  0  0
  8 13  1  0  0  0
 18 19  2  0  0  0
 18 23  1  0  0  0
 19 20  1  0  0  0
 20 21  2  0  0  0
 21 22  1  0  0  0
 21 24  1  0  0  0
 22 23  2  0  0  0
  9 10  1  0  0  0
  9 15  1  0  0  0
 10 11  2  0  0  0
 11 12  1  0  0  0
 11 14  1  0  0  0
 12 13  2  0  0  0
 24 25  1  0  0  0
  1  7  1  0  0  0
 14 16  1  0  0  0
 15 17  1  0  0  0
M  END
> <minimizedAffinity>
-9.46361

$$$$
6ELN_P4A_A_301


 25 27  0  0  0  0  0  0  0  0999 V2000
   64.4567   38.1502   22.6799 N   0  0  0  0  0  0  0  0  0  0  0  0
   65.3164   38.7677   23.5912 N   0  0  0  0  0  0  0  0  0  0  0  0
   65.5296   37.9241   24.5926 C   0  0  0  0  0  0  0  0  0  0  0  0
   64.8408   36.6974   24.3015 C   0  0  0  0  0  0  0  0  0  0  0  0
   64.1826   36.8937   23.1098 C   0  0  0  0  0  0  0  0  0  0  0  0
   63.2936   35.9198   22.3725 C   0  0  0  0  0  0  0  0  0  0  0  0
   64.1059   38.5614   21.8571 H   0  0  0  0  0  0  0  0  0  0  0  0
   66.4228   38.1648   25.7556 C   0  0  0  0  0  0  0  0  0  0  0  0
   67.7957   37.8168   25.6720 C   0  0  0  0  0  0  0  0  0  0  0  0
   68.6332   37.9763   26.7780 C   0  0  0  0  0  0  0  0  0  0  0  0
   68.1121   38.5409   27.9509 C   0  0  0  0  0  0  0  0  0  0  0  0
   66.7552   38.9069   28.0323 C   0  0  0  0  0  0  0  0  0  0  0  0
   65.9154   38.7300   26.9467 C   0  0  0  0  0  0  0  0  0  0  0  0
   68.8973   38.7022   29.0442 O   0  0  0  0  0  0  0  0  0  0  0  0
   68.3020   37.3082   24.5210 O   0  0  0  0  0  0  0  0  0  0  0  0
   69.8030   38.4644   29.0097 H   0  0  0  0  0  0  0  0  0  0  0  0
   67.7474   37.1976   23.7739 H   0  0  0  0  0  0  0  0  0  0  0  0
   64.8616   35.4452   25.1323 C   0  0  0  0  0  0  0  0  0  0  0  0
   63.6757   35.0101   25.7679 C   0  0  0  0  0  0  0  0  0  0  0  0
   63.6756   33.8563   26.5442 C   0  0  0  0  0  0  0  0  0  0  0  0
   64.8555   33.1276   26.7509 C   0  0  0  0  0  0  0  0  0  0  0  0
   66.0511   33.5640   26.1426 C   0  0  0  0  0  0  0  0  0  0  0  0
   66.0610   34.7323   25.3635 C   0  0  0  0  0  0  0  0  0  0  0  0
   64.7532   31.9909   27.5186 O   0  0  0  0  0  0  0  0  0  0  0  0
   64.1306   32.0059   28.8095 C   0  0  0  0  0  0  0  0  0  0  0  0
  1  2  1  0  0  0
  1  5  1  0  0  0
  2  3  2  0  0  0
  3  4  1  0  0  0
  3  8  1  0  0  0
  4  5  2  0  0  0
  4 18  1  0  0  0
  5  6  1  0  0  0
  8  9  2  0  0  0
  8 13  1  0  0  0
 18 19  2  0  0  0
 18 23  1  0  0  0
 19 20  1  0  0  0
 20 21  2  0  0  0
 21 22  1  0  0  0
 21 24  1  0  0  0
 22 23  2  0  0  0
  9 10  1  0  0  0
  9 15  1  0  0  0
 10 11  2  0  0  0
 11 12  1  0  0  0
 11 14  1  0  0  0
 12 13  2  0  0  0
 24 25  1  0  0  0
  1  7  1  0  0  0
 14 16  1  0  0  0
 15 17  1  0  0  0
M  END
> <minimizedAffinity>
-7.53799

$$$$
6ELN_P4A_A_301


 25 27  0  0  0  0  0  0  0  0999 V2000
   64.7018   38.1613   22.5777 N   0  0  0  0  0  0  0  0  0  0  0  0
   65.5967   38.7672   23.4625 N   0  0  0  0  0  0  0  0  0  0  0  0
   65.7921   37.9400   24.4811 C   0  0  0  0  0  0  0  0  0  0  0  0
   65.0539   36.7337   24.2286 C   0  0  0  0  0  0  0  0  0  0  0  0
   64.3869   36.9266   23.0412 C   0  0  0  0  0  0  0  0  0  0  0  0
   63.4518   35.9698   22.3392 C   0  0  0  0  0  0  0  0  0  0  0  0
   64.3551   38.5659   21.7498 H   0  0  0  0  0  0  0  0  0  0  0  0
   66.7099   38.1741   25.6261 C   0  0  0  0  0  0  0  0  0  0  0  0
   66.1764   38.4946   26.9011 C   0  0  0  0  0  0  0  0  0  0  0  0
   67.0271   38.7813   27.9708 C   0  0  0  0  0  0  0  0  0  0  0  0
   68.4134   38.6886   27.7820 C   0  0  0  0  0  0  0  0  0  0  0  0
   68.9475   38.3509   26.5241 C   0  0  0  0  0  0  0  0  0  0  0  0
   68.1096   38.0879   25.4546 C   0  0  0  0  0  0  0  0  0  0  0  0
   69.2659   38.9677   28.7984 O   0  0  0  0  0  0  0  0  0  0  0  0
   64.8337   38.5434   27.0864 O   0  0  0  0  0  0  0  0  0  0  0  0
   68.9296   39.1945   29.6431 H   0  0  0  0  0  0  0  0  0  0  0  0
   64.2552   38.3526   26.3743 H   0  0  0  0  0  0  0  0  0  0  0  0
   65.0394   35.5014   25.0889 C   0  0  0  0  0  0  0  0  0  0  0  0
   66.2293   34.7573   25.2617 C   0  0  0  0  0  0  0  0  0  0  0  0
   66.2353   33.6120   26.0504 C   0  0  0  0  0  0  0  0  0  0  0  0
   65.0575   33.1458   26.6515 C   0  0  0  0  0  0  0  0  0  0  0  0
   63.8580   33.8650   26.4677 C   0  0  0  0  0  0  0  0  0  0  0  0
   63.8421   35.0181   25.6664 C   0  0  0  0  0  0  0  0  0  0  0  0
   65.1656   32.0155   27.4277 O   0  0  0  0  0  0  0  0  0  0  0  0
   64.6988   31.9831   28.7825 C   0  0  0  0  0  0  0  0  0  0  0  0
  1  2  1  0  0  0
  1  5  1  0  0  0
  2  3  2  0  0  0
  3  4  1  0  0  0
  3  8  1  0  0  0
  4  5  2  0  0  0
  4 18  1  0  0  0
  5  6  1  0  0  0
  8  9  2  0  0  0
  8 13  1  0  0  0
 18 19  2  0  0  0
 18 23  1  0  0  0
 19 20  1  0  0  0
 20 21  2  0  0  0
 21 22  1  0  0  0
 21 24  1  0  0  0
 22 23  2  0  0  0
  9 10  1  0  0  0
  9 15  1  0  0  0
 10 11  2  0  0  0
 11 12  1  0  0  0
 11 14  1  0  0  0
 12 13  2  0  0  0
 24 25  1  0  0  0
  1  7  1  0  0  0
 14 16  1  0  0  0
 15 17  1  0  0  0
M  END
> <minimizedAffinity>
-7.32024

$$$$
6ELN_P4A_A_301


 25 27  0  0  0  0  0  0  0  0999 V2000
   64.1991   35.7932   25.5380 N   0  0  0  0  0  0  0  0  0  0  0  0
   64.9592   36.7740   26.1791 N   0  0  0  0  0  0  0  0  0  0  0  0
   65.6058   37.4663   25.2503 C   0  0  0  0  0  0  0  0  0  0  0  0
   65.2127   36.9665   23.9620 C   0  0  0  0  0  0  0  0  0  0  0  0
   64.3478   35.9231   24.1965 C   0  0  0  0  0  0  0  0  0  0  0  0
   63.6643   35.0411   23.1778 C   0  0  0  0  0  0  0  0  0  0  0  0
   63.6442   35.1160   25.9880 H   0  0  0  0  0  0  0  0  0  0  0  0
   66.4913   38.6339   25.4967 C   0  0  0  0  0  0  0  0  0  0  0  0
   67.8866   38.4364   25.6612 C   0  0  0  0  0  0  0  0  0  0  0  0
   68.7224   39.5149   25.9580 C   0  0  0  0  0  0  0  0  0  0  0  0
   68.1723   40.8027   26.0310 C   0  0  0  0  0  0  0  0  0  0  0  0
   66.7915   41.0069   25.8482 C   0  0  0  0  0  0  0  0  0  0  0  0
   65.9550   39.9385   25.5763 C   0  0  0  0  0  0  0  0  0  0  0  0
   68.9557   41.8694   26.3244 O   0  0  0  0  0  0  0  0  0  0  0  0
   68.4176   37.1932   25.5497 O   0  0  0  0  0  0  0  0  0  0  0  0
   69.8771   41.7537   26.4497 H   0  0  0  0  0  0  0  0  0  0  0  0
   67.8644   36.4636   25.3508 H   0  0  0  0  0  0  0  0  0  0  0  0
   65.6499   37.5017   22.6274 C   0  0  0  0  0  0  0  0  0  0  0  0
   64.7400   38.2475   21.8429 C   0  0  0  0  0  0  0  0  0  0  0  0
   65.1242   38.7476   20.6036 C   0  0  0  0  0  0  0  0  0  0  0  0
   66.4008   38.4859   20.0860 C   0  0  0  0  0  0  0  0  0  0  0  0
   67.3104   37.7227   20.8474 C   0  0  0  0  0  0  0  0  0  0  0  0
   66.9274   37.2076   22.0965 C   0  0  0  0  0  0  0  0  0  0  0  0
   66.6958   39.0374   18.8610 O   0  0  0  0  0  0  0  0  0  0  0  0
   65.6673   39.4496   17.9519 C   0  0  0  0  0  0  0  0  0  0  0  0
  1  2  1  0  0  0
  1  5  1  0  0  0
  2  3  2  0  0  0
  3  4  1  0  0  0
  3  8  1  0  0  0
  4  5  2  0  0  0
  4 18  1  0  0  0
  5  6  1  0  0  0
  8  9  2  0  0  0
  8 13  1  0  0  0
 18 19  2  0  0  0
 18 23  1  0  0  0
 19 20  1  0  0  0
 20 21  2  0  0  0
 21 22  1  0  0  0
 21 24  1  0  0  0
 22 23  2  0  0  0
  9 10  1  0  0  0
  9 15  1  0  0  0
 10 11  2  0  0  0
 11 12  1  0  0  0
 11 14  1  0  0  0
 12 13  2  0  0  0
 24 25  1  0  0  0
  1  7  1  0  0  0
 14 16  1  0  0  0
 15 17  1  0  0  0
M  END
> <minimizedAffinity>
-6.65116

$$$$
