4RPN_PCI_D_401


 13 13  0  0  0  0  0  0  0  0999 V2000
   48.7950   77.2566   78.5919 O   0  0  0  0  0  0  0  0  0  0  0  0
   49.3171   78.4903   78.2224 C   0  0  0  0  0  0  0  0  0  0  0  0
   49.1383   78.9559   76.9341 C   0  0  0  0  0  0  0  0  0  0  0  0
   48.2900   78.0154   75.7306 Cl  0  0  0  0  0  0  0  0  0  0  0  0
   49.6554   80.1911   76.6032 C   0  0  0  0  0  0  0  0  0  0  0  0
   49.4425   80.8187   75.0022 Cl  0  0  0  0  0  0  0  0  0  0  0  0
   50.3397   80.9641   77.5271 C   0  0  0  0  0  0  0  0  0  0  0  0
   50.9754   82.5065   76.9972 Cl  0  0  0  0  0  0  0  0  0  0  0  0
   50.5125   80.4894   78.8140 C   0  0  0  0  0  0  0  0  0  0  0  0
   51.3418   81.4309   80.0319 Cl  0  0  0  0  0  0  0  0  0  0  0  0
   49.9934   79.2527   79.1656 C   0  0  0  0  0  0  0  0  0  0  0  0
   50.2237   78.6568   80.7952 Cl  0  0  0  0  0  0  0  0  0  0  0  0
   48.3370   76.7344   77.9630 H   0  0  0  0  0  0  0  0  0  0  0  0
  1  2  1  0  0  0
  2  3  2  0  0  0
  2 11  1  0  0  0
  3  4  1  0  0  0
  3  5  1  0  0  0
  5  6  1  0  0  0
  5  7  2  0  0  0
  7  8  1  0  0  0
  7  9  1  0  0  0
  9 10  1  0  0  0
  9 11  2  0  0  0
 11 12  1  0  0  0
  1 13  1  0  0  0
M  END
> <minimizedAffinity>
-7.57460

$$$$
4RPN_PCI_D_401


 13 13  0  0  0  0  0  0  0  0999 V2000
   48.8534   77.3644   78.7874 O   0  0  0  0  0  0  0  0  0  0  0  0
   49.3558   78.5924   78.3739 C   0  0  0  0  0  0  0  0  0  0  0  0
   50.0828   79.3707   79.2538 C   0  0  0  0  0  0  0  0  0  0  0  0
   50.3687   78.8651   80.9016 Cl  0  0  0  0  0  0  0  0  0  0  0  0
   50.5809   80.5772   78.8081 C   0  0  0  0  0  0  0  0  0  0  0  0
   51.5092   81.5784   79.8749 Cl  0  0  0  0  0  0  0  0  0  0  0  0
   50.3704   81.0161   77.5110 C   0  0  0  0  0  0  0  0  0  0  0  0
   51.0265   82.5734   77.0544 Cl  0  0  0  0  0  0  0  0  0  0  0  0
   49.6422   80.2294   76.6380 C   0  0  0  0  0  0  0  0  0  0  0  0
   49.3675   80.7160   74.9811 Cl  0  0  0  0  0  0  0  0  0  0  0  0
   49.1398   79.0106   77.0675 C   0  0  0  0  0  0  0  0  0  0  0  0
   48.2127   78.0249   75.9572 Cl  0  0  0  0  0  0  0  0  0  0  0  0
   48.9936   77.0730   79.6668 H   0  0  0  0  0  0  0  0  0  0  0  0
  1  2  1  0  0  0
  2  3  2  0  0  0
  2 11  1  0  0  0
  3  4  1  0  0  0
  3  5  1  0  0  0
  5  6  1  0  0  0
  5  7  2  0  0  0
  7  8  1  0  0  0
  7  9  1  0  0  0
  9 10  1  0  0  0
  9 11  2  0  0  0
 11 12  1  0  0  0
  1 13  1  0  0  0
M  END
> <minimizedAffinity>
-7.50307

$$$$
4RPN_PCI_D_401


 13 13  0  0  0  0  0  0  0  0999 V2000
   49.1542   80.6928   75.8185 O   0  0  0  0  0  0  0  0  0  0  0  0
   49.7189   80.6382   77.0871 C   0  0  0  0  0  0  0  0  0  0  0  0
   50.6110   81.6145   77.4865 C   0  0  0  0  0  0  0  0  0  0  0  0
   51.0799   82.9170   76.4205 Cl  0  0  0  0  0  0  0  0  0  0  0  0
   51.1421   81.5404   78.7573 C   0  0  0  0  0  0  0  0  0  0  0  0
   52.2545   82.7515   79.3032 Cl  0  0  0  0  0  0  0  0  0  0  0  0
   50.8004   80.5199   79.6297 C   0  0  0  0  0  0  0  0  0  0  0  0
   51.5498   80.5064   81.2116 Cl  0  0  0  0  0  0  0  0  0  0  0  0
   49.9061   79.5482   79.2206 C   0  0  0  0  0  0  0  0  0  0  0  0
   49.4142   78.2518   80.2860 Cl  0  0  0  0  0  0  0  0  0  0  0  0
   49.3575   79.6110   77.9488 C   0  0  0  0  0  0  0  0  0  0  0  0
   48.2319   78.3721   77.4372 Cl  0  0  0  0  0  0  0  0  0  0  0  0
   49.3914   81.3818   75.2294 H   0  0  0  0  0  0  0  0  0  0  0  0
  1  2  1  0  0  0
  2  3  2  0  0  0
  2 11  1  0  0  0
  3  4  1  0  0  0
  3  5  1  0  0  0
  5  6  1  0  0  0
  5  7  2  0  0  0
  7  8  1  0  0  0
  7  9  1  0  0  0
  9 10  1  0  0  0
  9 11  2  0  0  0
 11 12  1  0  0  0
  1 13  1  0  0  0
M  END
> <minimizedAffinity>
-7.48291

$$$$
4RPN_PCI_D_401


 13 13  0  0  0  0  0  0  0  0999 V2000
   48.7510   79.0640   76.0410 O   0  0  0  0  0  0  0  0  0  0  0  0
   49.4832   79.7249   77.0198 C   0  0  0  0  0  0  0  0  0  0  0  0
   50.1683   80.8822   76.7037 C   0  0  0  0  0  0  0  0  0  0  0  0
   50.1663   81.5328   75.0822 Cl  0  0  0  0  0  0  0  0  0  0  0  0
   50.8731   81.5229   77.7013 C   0  0  0  0  0  0  0  0  0  0  0  0
   51.7355   82.9843   77.3511 Cl  0  0  0  0  0  0  0  0  0  0  0  0
   50.9045   81.0351   78.9977 C   0  0  0  0  0  0  0  0  0  0  0  0
   51.8482   81.9123   80.1825 Cl  0  0  0  0  0  0  0  0  0  0  0  0
   50.2148   79.8767   79.3039 C   0  0  0  0  0  0  0  0  0  0  0  0
   50.1931   79.2279   80.9275 Cl  0  0  0  0  0  0  0  0  0  0  0  0
   49.4957   79.2234   78.3147 C   0  0  0  0  0  0  0  0  0  0  0  0
   48.6319   77.7534   78.7101 Cl  0  0  0  0  0  0  0  0  0  0  0  0
   48.7359   79.3941   75.1642 H   0  0  0  0  0  0  0  0  0  0  0  0
  1  2  1  0  0  0
  2  3  2  0  0  0
  2 11  1  0  0  0
  3  4  1  0  0  0
  3  5  1  0  0  0
  5  6  1  0  0  0
  5  7  2  0  0  0
  7  8  1  0  0  0
  7  9  1  0  0  0
  9 10  1  0  0  0
  9 11  2  0  0  0
 11 12  1  0  0  0
  1 13  1  0  0  0
M  END
> <minimizedAffinity>
-7.48179

$$$$
4RPN_PCI_D_401


 13 13  0  0  0  0  0  0  0  0999 V2000
   48.8115   79.0329   75.9875 O   0  0  0  0  0  0  0  0  0  0  0  0
   49.5108   79.6788   76.9999 C   0  0  0  0  0  0  0  0  0  0  0  0
   49.5524   79.1296   78.2669 C   0  0  0  0  0  0  0  0  0  0  0  0
   48.7169   77.6431   78.6478 Cl  0  0  0  0  0  0  0  0  0  0  0  0
   50.2679   79.7870   79.2458 C   0  0  0  0  0  0  0  0  0  0  0  0
   50.3570   79.1262   80.8450 Cl  0  0  0  0  0  0  0  0  0  0  0  0
   50.9384   80.9710   78.9850 C   0  0  0  0  0  0  0  0  0  0  0  0
   51.7974   81.7361   80.3044 Cl  0  0  0  0  0  0  0  0  0  0  0  0
   50.8912   81.5119   77.7136 C   0  0  0  0  0  0  0  0  0  0  0  0
   51.7403   82.9879   77.3161 Cl  0  0  0  0  0  0  0  0  0  0  0  0
   50.1822   80.8607   76.7158 C   0  0  0  0  0  0  0  0  0  0  0  0
   50.1219   81.5570   75.1111 Cl  0  0  0  0  0  0  0  0  0  0  0  0
   48.3552   78.2349   76.1687 H   0  0  0  0  0  0  0  0  0  0  0  0
  1  2  1  0  0  0
  2  3  2  0  0  0
  2 11  1  0  0  0
  3  4  1  0  0  0
  3  5  1  0  0  0
  5  6  1  0  0  0
  5  7  2  0  0  0
  7  8  1  0  0  0
  7  9  1  0  0  0
  9 10  1  0  0  0
  9 11  2  0  0  0
 11 12  1  0  0  0
  1 13  1  0  0  0
M  END
> <minimizedAffinity>
-7.44952

$$$$
4RPN_PCI_D_401


 13 13  0  0  0  0  0  0  0  0999 V2000
   49.0634   80.7167   75.9308 O   0  0  0  0  0  0  0  0  0  0  0  0
   49.6313   80.6533   77.1975 C   0  0  0  0  0  0  0  0  0  0  0  0
   49.2851   79.6285   78.0569 C   0  0  0  0  0  0  0  0  0  0  0  0
   48.1174   78.4101   77.6048 Cl  0  0  0  0  0  0  0  0  0  0  0  0
   49.8781   79.5850   79.3015 C   0  0  0  0  0  0  0  0  0  0  0  0
   49.4824   78.3095   80.4055 Cl  0  0  0  0  0  0  0  0  0  0  0  0
   50.8036   80.5360   79.6996 C   0  0  0  0  0  0  0  0  0  0  0  0
   51.4790   80.4014   81.3089 Cl  0  0  0  0  0  0  0  0  0  0  0  0
   51.1438   81.5570   78.8318 C   0  0  0  0  0  0  0  0  0  0  0  0
   52.3263   82.7698   79.2660 Cl  0  0  0  0  0  0  0  0  0  0  0  0
   50.5623   81.6122   77.5743 C   0  0  0  0  0  0  0  0  0  0  0  0
   50.9937   82.9128   76.4853 Cl  0  0  0  0  0  0  0  0  0  0  0  0
   48.4341   80.0746   75.6667 H   0  0  0  0  0  0  0  0  0  0  0  0
  1  2  1  0  0  0
  2  3  2  0  0  0
  2 11  1  0  0  0
  3  4  1  0  0  0
  3  5  1  0  0  0
  5  6  1  0  0  0
  5  7  2  0  0  0
  7  8  1  0  0  0
  7  9  1  0  0  0
  9 10  1  0  0  0
  9 11  2  0  0  0
 11 12  1  0  0  0
  1 13  1  0  0  0
M  END
> <minimizedAffinity>
-7.40414

$$$$
4RPN_PCI_D_401


 13 13  0  0  0  0  0  0  0  0999 V2000
   51.6946   81.6391   80.3700 O   0  0  0  0  0  0  0  0  0  0  0  0
   51.0742   80.9941   79.3069 C   0  0  0  0  0  0  0  0  0  0  0  0
   50.4163   79.7976   79.5166 C   0  0  0  0  0  0  0  0  0  0  0  0
   50.3648   79.0455   81.0928 Cl  0  0  0  0  0  0  0  0  0  0  0  0
   49.7974   79.1902   78.4439 C   0  0  0  0  0  0  0  0  0  0  0  0
   48.9499   77.6953   78.6654 Cl  0  0  0  0  0  0  0  0  0  0  0  0
   49.8212   79.7515   77.1775 C   0  0  0  0  0  0  0  0  0  0  0  0
   49.0240   78.8869   75.8810 Cl  0  0  0  0  0  0  0  0  0  0  0  0
   50.4817   80.9496   76.9784 C   0  0  0  0  0  0  0  0  0  0  0  0
   50.5221   81.7214   75.4098 Cl  0  0  0  0  0  0  0  0  0  0  0  0
   51.1035   81.5771   78.0470 C   0  0  0  0  0  0  0  0  0  0  0  0
   51.9436   83.0899   77.7836 Cl  0  0  0  0  0  0  0  0  0  0  0  0
   51.6806   81.2542   81.2242 H   0  0  0  0  0  0  0  0  0  0  0  0
  1  2  1  0  0  0
  2  3  2  0  0  0
  2 11  1  0  0  0
  3  4  1  0  0  0
  3  5  1  0  0  0
  5  6  1  0  0  0
  5  7  2  0  0  0
  7  8  1  0  0  0
  7  9  1  0  0  0
  9 10  1  0  0  0
  9 11  2  0  0  0
 11 12  1  0  0  0
  1 13  1  0  0  0
M  END
> <minimizedAffinity>
-7.29690

$$$$
4RPN_PCI_D_401


 13 13  0  0  0  0  0  0  0  0999 V2000
   51.7022   81.5910   80.3265 O   0  0  0  0  0  0  0  0  0  0  0  0
   51.0501   80.9806   79.2618 C   0  0  0  0  0  0  0  0  0  0  0  0
   51.0718   81.5692   78.0122 C   0  0  0  0  0  0  0  0  0  0  0  0
   51.8799   83.0927   77.7321 Cl  0  0  0  0  0  0  0  0  0  0  0  0
   50.4282   80.9305   76.9728 C   0  0  0  0  0  0  0  0  0  0  0  0
   50.4419   81.6273   75.3865 Cl  0  0  0  0  0  0  0  0  0  0  0  0
   49.7709   79.7247   77.1559 C   0  0  0  0  0  0  0  0  0  0  0  0
   48.9664   79.0100   75.7754 Cl  0  0  0  0  0  0  0  0  0  0  0  0
   49.7558   79.1436   78.4103 C   0  0  0  0  0  0  0  0  0  0  0  0
   48.9678   77.6092   78.6974 Cl  0  0  0  0  0  0  0  0  0  0  0  0
   50.4034   79.7687   79.4649 C   0  0  0  0  0  0  0  0  0  0  0  0
   50.3724   79.0291   81.0510 Cl  0  0  0  0  0  0  0  0  0  0  0  0
   52.1415   82.4088   80.2000 H   0  0  0  0  0  0  0  0  0  0  0  0
  1  2  1  0  0  0
  2  3  2  0  0  0
  2 11  1  0  0  0
  3  4  1  0  0  0
  3  5  1  0  0  0
  5  6  1  0  0  0
  5  7  2  0  0  0
  7  8  1  0  0  0
  7  9  1  0  0  0
  9 10  1  0  0  0
  9 11  2  0  0  0
 11 12  1  0  0  0
  1 13  1  0  0  0
M  END
> <minimizedAffinity>
-7.23628

$$$$
4RPN_PCI_D_401


 13 13  0  0  0  0  0  0  0  0999 V2000
   50.0594   78.0678   80.9826 O   0  0  0  0  0  0  0  0  0  0  0  0
   50.2807   79.0639   80.0392 C   0  0  0  0  0  0  0  0  0  0  0  0
   49.7618   78.9337   78.7655 C   0  0  0  0  0  0  0  0  0  0  0  0
   48.8486   77.5223   78.2892 Cl  0  0  0  0  0  0  0  0  0  0  0  0
   49.9861   79.9469   77.8569 C   0  0  0  0  0  0  0  0  0  0  0  0
   49.3422   79.8300   76.2525 Cl  0  0  0  0  0  0  0  0  0  0  0  0
   50.7105   81.0787   78.1941 C   0  0  0  0  0  0  0  0  0  0  0  0
   50.9566   82.2944   76.9590 Cl  0  0  0  0  0  0  0  0  0  0  0  0
   51.2248   81.1997   79.4716 C   0  0  0  0  0  0  0  0  0  0  0  0
   52.1225   82.6168   79.9652 Cl  0  0  0  0  0  0  0  0  0  0  0  0
   51.0032   80.1937   80.3996 C   0  0  0  0  0  0  0  0  0  0  0  0
   51.6646   80.3523   82.0124 Cl  0  0  0  0  0  0  0  0  0  0  0  0
   49.5731   77.3015   80.7496 H   0  0  0  0  0  0  0  0  0  0  0  0
  1  2  1  0  0  0
  2  3  2  0  0  0
  2 11  1  0  0  0
  3  4  1  0  0  0
  3  5  1  0  0  0
  5  6  1  0  0  0
  5  7  2  0  0  0
  7  8  1  0  0  0
  7  9  1  0  0  0
  9 10  1  0  0  0
  9 11  2  0  0  0
 11 12  1  0  0  0
  1 13  1  0  0  0
M  END
> <minimizedAffinity>
-7.23277

$$$$
4RPN_PCI_D_401


 13 13  0  0  0  0  0  0  0  0999 V2000
   50.3151   79.1105   80.5192 O   0  0  0  0  0  0  0  0  0  0  0  0
   50.3011   79.6813   79.2523 C   0  0  0  0  0  0  0  0  0  0  0  0
   50.9270   80.8937   79.0362 C   0  0  0  0  0  0  0  0  0  0  0  0
   51.7208   81.7574   80.3310 Cl  0  0  0  0  0  0  0  0  0  0  0  0
   50.9086   81.4262   77.7639 C   0  0  0  0  0  0  0  0  0  0  0  0
   51.6926   82.9384   77.4463 Cl  0  0  0  0  0  0  0  0  0  0  0  0
   50.2843   80.7753   76.7123 C   0  0  0  0  0  0  0  0  0  0  0  0
   50.2994   81.5493   75.1424 Cl  0  0  0  0  0  0  0  0  0  0  0  0
   49.6615   79.5620   76.9389 C   0  0  0  0  0  0  0  0  0  0  0  0
   48.8819   78.6792   75.6463 Cl  0  0  0  0  0  0  0  0  0  0  0  0
   49.6762   79.0090   78.2103 C   0  0  0  0  0  0  0  0  0  0  0  0
   48.8787   77.4761   78.4890 Cl  0  0  0  0  0  0  0  0  0  0  0  0
   50.7341   79.5559   81.2292 H   0  0  0  0  0  0  0  0  0  0  0  0
  1  2  1  0  0  0
  2  3  2  0  0  0
  2 11  1  0  0  0
  3  4  1  0  0  0
  3  5  1  0  0  0
  5  6  1  0  0  0
  5  7  2  0  0  0
  7  8  1  0  0  0
  7  9  1  0  0  0
  9 10  1  0  0  0
  9 11  2  0  0  0
 11 12  1  0  0  0
  1 13  1  0  0  0
M  END
> <minimizedAffinity>
-7.21422

$$$$
