4BAH_MEL_B_1291


 37 39  0  0  0  0  0  0  0  0999 V2000
   17.9316  -13.2386   22.2616 C   0  0  0  0  0  0  0  0  0  0  0  0
   16.8830  -12.6555   22.5208 O   0  0  0  0  0  0  0  0  0  0  0  0
   18.7245  -12.7280   21.2991 N   0  0  0  0  0  0  0  0  0  0  0  0
   18.4917  -11.6106   20.3798 C   0  0  0  0  0  0  0  0  0  0  0  0
   19.6591  -12.0669   19.4837 C   0  0  0  0  0  0  0  0  0  0  0  0
   19.9790  -13.0753   20.5942 C   0  0  0  0  0  0  0  0  0  0  0  0
   17.0964  -11.8159   19.8008 C   0  0  0  0  0  0  0  0  0  0  0  0
   16.7820  -12.9249   19.3859 O   0  0  0  0  0  0  0  0  0  0  0  0
   16.1625  -10.8395   19.8476 N   0  0  0  0  0  0  0  0  0  0  0  0
   16.3786   -9.9519   20.2146 H   0  0  0  0  0  0  0  0  0  0  0  0
   14.8115  -11.1370   19.3350 C   0  0  0  0  0  0  0  0  0  0  0  0
   13.8407  -11.0709   20.4835 C   0  0  0  0  0  0  0  0  0  0  0  0
   13.3485  -12.2322   21.0606 C   0  0  0  0  0  0  0  0  0  0  0  0
   12.4774  -12.1485   22.1445 C   0  0  0  0  0  0  0  0  0  0  0  0
   12.1214  -10.8849   22.6557 C   0  0  0  0  0  0  0  0  0  0  0  0
   12.6292   -9.7165   22.0601 C   0  0  0  0  0  0  0  0  0  0  0  0
   13.5111   -9.8259   21.0053 C   0  0  0  0  0  0  0  0  0  0  0  0
   11.1540  -10.7920   23.7804 C   0  0  0  0  0  0  0  0  0  0  0  0
   10.5964  -11.8630   24.2659 N   0  0  0  0  0  0  0  0  0  0  0  0
   10.8740   -9.5620   24.3598 N   0  0  0  0  0  0  0  0  0  0  0  0
   10.7861  -12.7418   23.8648 H   0  0  0  0  0  0  0  0  0  0  0  0
   11.2888   -8.7437   24.0027 H   0  0  0  0  0  0  0  0  0  0  0  0
   10.2606   -9.5080   25.1279 H   0  0  0  0  0  0  0  0  0  0  0  0
   18.2682  -14.5053   23.0025 C   0  0  0  0  0  0  0  0  0  0  0  0
   18.7718  -14.1500   24.4160 C   0  0  0  0  0  0  0  0  0  0  0  0
   18.9815  -15.4290   25.2420 C   0  0  0  0  0  0  0  0  0  0  0  0
   19.4130  -15.0308   26.6618 C   0  0  0  0  0  0  0  0  0  0  0  0
   20.7075  -14.2002   26.6358 C   0  0  0  0  0  0  0  0  0  0  0  0
   20.5373  -12.9288   25.7903 C   0  0  0  0  0  0  0  0  0  0  0  0
   20.0738  -13.3147   24.3718 C   0  0  0  0  0  0  0  0  0  0  0  0
   17.0308  -15.3237   23.0939 N   0  0  0  0  0  0  0  0  0  0  0  0
   16.2794  -14.7170   23.4221 H   0  0  0  0  0  0  0  0  0  0  0  0
   16.5778  -15.9662   21.8331 C   0  0  0  0  0  0  0  0  0  0  0  0
   15.1056  -15.7043   21.5795 C   0  0  0  0  0  0  0  0  0  0  0  0
   14.2747  -15.7526   22.4650 O   0  0  0  0  0  0  0  0  0  0  0  0
   14.6961  -15.4370   20.3375 O   0  0  0  0  0  0  0  0  0  0  0  0
   14.5379  -15.9385   23.3448 H   0  0  0  0  0  0  0  0  0  0  0  0
 25 26  1  0  0  0
 25 30  1  0  0  0
 25 24  1  0  0  0
 26 27  1  0  0  0
 27 28  1  0  0  0
 28 29  1  0  0  0
 29 30  1  0  0  0
 31 24  1  0  0  0
 31 33  1  0  0  0
 24  1  1  0  0  0
  1  2  2  0  0  0
  1  3  1  0  0  0
  3  4  1  0  0  0
  3  6  1  0  0  0
  4  7  1  0  0  0
  4  5  1  0  0  0
  7  8  2  0  0  0
  7  9  1  0  0  0
  9 11  1  0  0  0
 11 12  1  0  0  0
 12 13  2  0  0  0
 12 17  1  0  0  0
 13 14  1  0  0  0
 14 15  2  0  0  0
 15 16  1  0  0  0
 15 18  1  0  0  0
 16 17  2  0  0  0
 18 19  2  0  0  0
 18 20  1  0  0  0
  5  6  1  0  0  0
 33 34  1  0  0  0
 34 35  1  0  0  0
 34 36  2  0  0  0
 31 32  1  0  0  0
  9 10  1  0  0  0
 19 21  1  0  0  0
 20 22  1  0  0  0
 20 23  1  0  0  0
 35 37  1  0  0  0
M  END
> <minimizedAffinity>
-10.12523

$$$$
4BAH_MEL_B_1291


 37 39  0  0  0  0  0  0  0  0999 V2000
   13.8561  -13.0052   21.3975 C   0  0  0  0  0  0  0  0  0  0  0  0
   14.8715  -12.9880   22.0870 O   0  0  0  0  0  0  0  0  0  0  0  0
   13.3684  -14.2000   21.0096 N   0  0  0  0  0  0  0  0  0  0  0  0
   13.9267  -15.5450   21.1742 C   0  0  0  0  0  0  0  0  0  0  0  0
   12.9585  -16.1078   20.1161 C   0  0  0  0  0  0  0  0  0  0  0  0
   12.2830  -14.7313   20.1547 C   0  0  0  0  0  0  0  0  0  0  0  0
   15.3885  -15.4567   20.7502 C   0  0  0  0  0  0  0  0  0  0  0  0
   15.6550  -15.2841   19.5670 O   0  0  0  0  0  0  0  0  0  0  0  0
   16.3876  -15.4415   21.6609 N   0  0  0  0  0  0  0  0  0  0  0  0
   16.1957  -15.5369   22.6218 H   0  0  0  0  0  0  0  0  0  0  0  0
   17.7724  -15.2783   21.1792 C   0  0  0  0  0  0  0  0  0  0  0  0
   18.6018  -14.7064   22.2976 C   0  0  0  0  0  0  0  0  0  0  0  0
   19.6822  -13.8801   22.0251 C   0  0  0  0  0  0  0  0  0  0  0  0
   20.4156  -13.3343   23.0762 C   0  0  0  0  0  0  0  0  0  0  0  0
   20.0397  -13.6113   24.4053 C   0  0  0  0  0  0  0  0  0  0  0  0
   18.9415  -14.4504   24.6655 C   0  0  0  0  0  0  0  0  0  0  0  0
   18.2148  -14.9571   23.6084 C   0  0  0  0  0  0  0  0  0  0  0  0
   20.8502  -13.0699   25.5274 C   0  0  0  0  0  0  0  0  0  0  0  0
   20.9972  -11.7858   25.6804 N   0  0  0  0  0  0  0  0  0  0  0  0
   21.4181  -13.9308   26.4566 N   0  0  0  0  0  0  0  0  0  0  0  0
   20.5997  -11.1638   25.0290 H   0  0  0  0  0  0  0  0  0  0  0  0
   21.3148  -14.9043   26.3532 H   0  0  0  0  0  0  0  0  0  0  0  0
   21.9242  -13.5677   27.2191 H   0  0  0  0  0  0  0  0  0  0  0  0
   13.2231  -11.7006   20.9927 C   0  0  0  0  0  0  0  0  0  0  0  0
   12.9266  -10.8652   22.2545 C   0  0  0  0  0  0  0  0  0  0  0  0
   12.8150   -9.3761   21.8912 C   0  0  0  0  0  0  0  0  0  0  0  0
   12.5913   -8.5719   23.1812 C   0  0  0  0  0  0  0  0  0  0  0  0
   11.3183   -9.0350   23.9100 C   0  0  0  0  0  0  0  0  0  0  0  0
   11.3880  -10.5296   24.2588 C   0  0  0  0  0  0  0  0  0  0  0  0
   11.6437  -11.3441   22.9754 C   0  0  0  0  0  0  0  0  0  0  0  0
   14.1840  -10.9783   20.1185 N   0  0  0  0  0  0  0  0  0  0  0  0
   15.0171  -10.7763   20.6712 H   0  0  0  0  0  0  0  0  0  0  0  0
   14.6163  -11.6950   18.8907 C   0  0  0  0  0  0  0  0  0  0  0  0
   16.1176  -11.5996   18.6972 C   0  0  0  0  0  0  0  0  0  0  0  0
   16.6159  -11.0130   17.7567 O   0  0  0  0  0  0  0  0  0  0  0  0
   16.9266  -12.2015   19.5718 O   0  0  0  0  0  0  0  0  0  0  0  0
   16.0686  -10.5829   17.1296 H   0  0  0  0  0  0  0  0  0  0  0  0
 25 26  1  0  0  0
 25 30  1  0  0  0
 25 24  1  0  0  0
 26 27  1  0  0  0
 27 28  1  0  0  0
 28 29  1  0  0  0
 29 30  1  0  0  0
 31 24  1  0  0  0
 31 33  1  0  0  0
 24  1  1  0  0  0
  1  2  2  0  0  0
  1  3  1  0  0  0
  3  4  1  0  0  0
  3  6  1  0  0  0
  4  7  1  0  0  0
  4  5  1  0  0  0
  7  8  2  0  0  0
  7  9  1  0  0  0
  9 11  1  0  0  0
 11 12  1  0  0  0
 12 13  2  0  0  0
 12 17  1  0  0  0
 13 14  1  0  0  0
 14 15  2  0  0  0
 15 16  1  0  0  0
 15 18  1  0  0  0
 16 17  2  0  0  0
 18 19  2  0  0  0
 18 20  1  0  0  0
  5  6  1  0  0  0
 33 34  1  0  0  0
 34 35  1  0  0  0
 34 36  2  0  0  0
 31 32  1  0  0  0
  9 10  1  0  0  0
 19 21  1  0  0  0
 20 22  1  0  0  0
 20 23  1  0  0  0
 35 37  1  0  0  0
M  END
> <minimizedAffinity>
-8.72603

$$$$
4BAH_MEL_B_1291


 37 39  0  0  0  0  0  0  0  0999 V2000
   13.1782  -14.3016   20.8607 C   0  0  0  0  0  0  0  0  0  0  0  0
   13.6168  -14.5425   21.9815 O   0  0  0  0  0  0  0  0  0  0  0  0
   12.4672  -15.2597   20.2344 N   0  0  0  0  0  0  0  0  0  0  0  0
   12.2098  -16.6492   20.6229 C   0  0  0  0  0  0  0  0  0  0  0  0
   11.7425  -16.9923   19.1954 C   0  0  0  0  0  0  0  0  0  0  0  0
   11.8271  -15.4860   18.9188 C   0  0  0  0  0  0  0  0  0  0  0  0
   13.5557  -17.2350   21.0351 C   0  0  0  0  0  0  0  0  0  0  0  0
   13.6257  -17.8992   22.0620 O   0  0  0  0  0  0  0  0  0  0  0  0
   14.6407  -17.1419   20.2338 N   0  0  0  0  0  0  0  0  0  0  0  0
   14.5986  -16.6484   19.3830 H   0  0  0  0  0  0  0  0  0  0  0  0
   15.8892  -17.7983   20.6660 C   0  0  0  0  0  0  0  0  0  0  0  0
   16.8334  -16.7405   21.1717 C   0  0  0  0  0  0  0  0  0  0  0  0
   16.7203  -15.4273   20.7398 C   0  0  0  0  0  0  0  0  0  0  0  0
   17.5829  -14.4577   21.2463 C   0  0  0  0  0  0  0  0  0  0  0  0
   18.5480  -14.8179   22.2074 C   0  0  0  0  0  0  0  0  0  0  0  0
   18.6498  -16.1534   22.6358 C   0  0  0  0  0  0  0  0  0  0  0  0
   17.7670  -17.0899   22.1398 C   0  0  0  0  0  0  0  0  0  0  0  0
   19.5010  -13.7951   22.7124 C   0  0  0  0  0  0  0  0  0  0  0  0
   19.4682  -13.4149   23.9567 N   0  0  0  0  0  0  0  0  0  0  0  0
   20.4727  -13.2712   21.8708 N   0  0  0  0  0  0  0  0  0  0  0  0
   18.7844  -13.7784   24.5646 H   0  0  0  0  0  0  0  0  0  0  0  0
   20.5091  -13.5500   20.9273 H   0  0  0  0  0  0  0  0  0  0  0  0
   21.1255  -12.6208   22.2174 H   0  0  0  0  0  0  0  0  0  0  0  0
   13.4776  -12.9690   20.2273 C   0  0  0  0  0  0  0  0  0  0  0  0
   13.3525  -11.8599   21.2913 C   0  0  0  0  0  0  0  0  0  0  0  0
   13.5912  -10.4824   20.6529 C   0  0  0  0  0  0  0  0  0  0  0  0
   13.5292   -9.4136   21.7549 C   0  0  0  0  0  0  0  0  0  0  0  0
   12.1688   -9.4349   22.4727 C   0  0  0  0  0  0  0  0  0  0  0  0
   11.8884  -10.8113   23.0952 C   0  0  0  0  0  0  0  0  0  0  0  0
   11.9791  -11.8957   22.0035 C   0  0  0  0  0  0  0  0  0  0  0  0
   14.8671  -13.0151   19.7013 N   0  0  0  0  0  0  0  0  0  0  0  0
   15.3022  -13.8712   20.0448 H   0  0  0  0  0  0  0  0  0  0  0  0
   15.0066  -12.9967   18.2221 C   0  0  0  0  0  0  0  0  0  0  0  0
   15.7866  -11.7818   17.7575 C   0  0  0  0  0  0  0  0  0  0  0  0
   16.3851  -11.0591   18.5297 O   0  0  0  0  0  0  0  0  0  0  0  0
   15.7990  -11.4732   16.4589 O   0  0  0  0  0  0  0  0  0  0  0  0
   16.3909  -11.2551   19.4460 H   0  0  0  0  0  0  0  0  0  0  0  0
 25 26  1  0  0  0
 25 30  1  0  0  0
 25 24  1  0  0  0
 26 27  1  0  0  0
 27 28  1  0  0  0
 28 29  1  0  0  0
 29 30  1  0  0  0
 31 24  1  0  0  0
 31 33  1  0  0  0
 24  1  1  0  0  0
  1  2  2  0  0  0
  1  3  1  0  0  0
  3  4  1  0  0  0
  3  6  1  0  0  0
  4  7  1  0  0  0
  4  5  1  0  0  0
  7  8  2  0  0  0
  7  9  1  0  0  0
  9 11  1  0  0  0
 11 12  1  0  0  0
 12 13  2  0  0  0
 12 17  1  0  0  0
 13 14  1  0  0  0
 14 15  2  0  0  0
 15 16  1  0  0  0
 15 18  1  0  0  0
 16 17  2  0  0  0
 18 19  2  0  0  0
 18 20  1  0  0  0
  5  6  1  0  0  0
 33 34  1  0  0  0
 34 35  1  0  0  0
 34 36  2  0  0  0
 31 32  1  0  0  0
  9 10  1  0  0  0
 19 21  1  0  0  0
 20 22  1  0  0  0
 20 23  1  0  0  0
 35 37  1  0  0  0
M  END
> <minimizedAffinity>
-7.77812

$$$$
4BAH_MEL_B_1291


 37 39  0  0  0  0  0  0  0  0999 V2000
   12.8673  -13.8122   20.4456 C   0  0  0  0  0  0  0  0  0  0  0  0
   13.1327  -13.8401   19.2474 O   0  0  0  0  0  0  0  0  0  0  0  0
   12.7640  -12.6114   21.0483 N   0  0  0  0  0  0  0  0  0  0  0  0
   13.0405  -11.2689   20.5296 C   0  0  0  0  0  0  0  0  0  0  0  0
   13.0555  -10.6890   21.9570 C   0  0  0  0  0  0  0  0  0  0  0  0
   12.5549  -12.0666   22.4088 C   0  0  0  0  0  0  0  0  0  0  0  0
   14.3956  -11.3485   19.8356 C   0  0  0  0  0  0  0  0  0  0  0  0
   14.4679  -11.0881   18.6408 O   0  0  0  0  0  0  0  0  0  0  0  0
   15.5319  -11.5786   20.5310 N   0  0  0  0  0  0  0  0  0  0  0  0
   15.5043  -11.7496   21.5001 H   0  0  0  0  0  0  0  0  0  0  0  0
   16.8142  -11.5670   19.8016 C   0  0  0  0  0  0  0  0  0  0  0  0
   17.8531  -12.2461   20.6534 C   0  0  0  0  0  0  0  0  0  0  0  0
   19.1715  -12.3270   20.2298 C   0  0  0  0  0  0  0  0  0  0  0  0
   20.1236  -12.9298   21.0488 C   0  0  0  0  0  0  0  0  0  0  0  0
   19.7408  -13.4330   22.3078 C   0  0  0  0  0  0  0  0  0  0  0  0
   18.4003  -13.3429   22.7234 C   0  0  0  0  0  0  0  0  0  0  0  0
   17.4816  -12.7177   21.9065 C   0  0  0  0  0  0  0  0  0  0  0  0
   20.7447  -14.1201   23.1619 C   0  0  0  0  0  0  0  0  0  0  0  0
   21.3312  -13.4871   24.1362 N   0  0  0  0  0  0  0  0  0  0  0  0
   21.0295  -15.4636   22.9602 N   0  0  0  0  0  0  0  0  0  0  0  0
   21.1384  -12.5340   24.2906 H   0  0  0  0  0  0  0  0  0  0  0  0
   20.5931  -15.9547   22.2270 H   0  0  0  0  0  0  0  0  0  0  0  0
   21.6680  -15.9254   23.5504 H   0  0  0  0  0  0  0  0  0  0  0  0
   12.7010  -15.1103   21.1898 C   0  0  0  0  0  0  0  0  0  0  0  0
   12.6891  -16.2773   20.1819 C   0  0  0  0  0  0  0  0  0  0  0  0
   12.8521  -17.6164   20.9181 C   0  0  0  0  0  0  0  0  0  0  0  0
   12.9073  -18.7451   19.8770 C   0  0  0  0  0  0  0  0  0  0  0  0
   11.6335  -18.7675   19.0149 C   0  0  0  0  0  0  0  0  0  0  0  0
   11.4273  -17.4287   18.2900 C   0  0  0  0  0  0  0  0  0  0  0  0
   11.4018  -16.2850   19.3230 C   0  0  0  0  0  0  0  0  0  0  0  0
   13.8507  -15.2538   22.1208 N   0  0  0  0  0  0  0  0  0  0  0  0
   13.7072  -16.1048   22.6645 H   0  0  0  0  0  0  0  0  0  0  0  0
   15.1942  -15.3381   21.4917 C   0  0  0  0  0  0  0  0  0  0  0  0
   16.0956  -16.2978   22.2445 C   0  0  0  0  0  0  0  0  0  0  0  0
   15.7676  -16.8069   23.2981 O   0  0  0  0  0  0  0  0  0  0  0  0
   17.3046  -16.5774   21.7527 O   0  0  0  0  0  0  0  0  0  0  0  0
   14.9239  -16.6258   23.6634 H   0  0  0  0  0  0  0  0  0  0  0  0
 25 26  1  0  0  0
 25 30  1  0  0  0
 25 24  1  0  0  0
 26 27  1  0  0  0
 27 28  1  0  0  0
 28 29  1  0  0  0
 29 30  1  0  0  0
 31 24  1  0  0  0
 31 33  1  0  0  0
 24  1  1  0  0  0
  1  2  2  0  0  0
  1  3  1  0  0  0
  3  4  1  0  0  0
  3  6  1  0  0  0
  4  7  1  0  0  0
  4  5  1  0  0  0
  7  8  2  0  0  0
  7  9  1  0  0  0
  9 11  1  0  0  0
 11 12  1  0  0  0
 12 13  2  0  0  0
 12 17  1  0  0  0
 13 14  1  0  0  0
 14 15  2  0  0  0
 15 16  1  0  0  0
 15 18  1  0  0  0
 16 17  2  0  0  0
 18 19  2  0  0  0
 18 20  1  0  0  0
  5  6  1  0  0  0
 33 34  1  0  0  0
 34 35  1  0  0  0
 34 36  2  0  0  0
 31 32  1  0  0  0
  9 10  1  0  0  0
 19 21  1  0  0  0
 20 22  1  0  0  0
 20 23  1  0  0  0
 35 37  1  0  0  0
M  END
> <minimizedAffinity>
-7.71713

$$$$
4BAH_MEL_B_1291


 37 39  0  0  0  0  0  0  0  0999 V2000
   14.6259  -13.1423   21.0624 C   0  0  0  0  0  0  0  0  0  0  0  0
   14.0296  -13.3694   22.1111 O   0  0  0  0  0  0  0  0  0  0  0  0
   14.3640  -13.9249   19.9972 N   0  0  0  0  0  0  0  0  0  0  0  0
   13.5399  -15.1324   19.8939 C   0  0  0  0  0  0  0  0  0  0  0  0
   14.1796  -15.4880   18.5381 C   0  0  0  0  0  0  0  0  0  0  0  0
   14.8450  -14.1080   18.6092 C   0  0  0  0  0  0  0  0  0  0  0  0
   13.9376  -16.0239   21.0650 C   0  0  0  0  0  0  0  0  0  0  0  0
   13.0672  -16.6478   21.6598 O   0  0  0  0  0  0  0  0  0  0  0  0
   15.2348  -16.2358   21.3816 N   0  0  0  0  0  0  0  0  0  0  0  0
   15.9551  -15.7778   20.8909 H   0  0  0  0  0  0  0  0  0  0  0  0
   15.5443  -17.1702   22.4804 C   0  0  0  0  0  0  0  0  0  0  0  0
   17.0347  -17.1813   22.6911 C   0  0  0  0  0  0  0  0  0  0  0  0
   17.5845  -16.7145   23.8760 C   0  0  0  0  0  0  0  0  0  0  0  0
   18.9639  -16.7653   24.0637 C   0  0  0  0  0  0  0  0  0  0  0  0
   19.7843  -17.3091   23.0557 C   0  0  0  0  0  0  0  0  0  0  0  0
   19.2119  -17.7789   21.8601 C   0  0  0  0  0  0  0  0  0  0  0  0
   17.8414  -17.7427   21.7088 C   0  0  0  0  0  0  0  0  0  0  0  0
   21.2599  -17.3193   23.2336 C   0  0  0  0  0  0  0  0  0  0  0  0
   21.8930  -18.4334   23.4610 N   0  0  0  0  0  0  0  0  0  0  0  0
   21.9859  -16.1428   23.1071 N   0  0  0  0  0  0  0  0  0  0  0  0
   21.3907  -19.2751   23.5528 H   0  0  0  0  0  0  0  0  0  0  0  0
   21.5198  -15.2929   22.9350 H   0  0  0  0  0  0  0  0  0  0  0  0
   22.9668  -16.1584   23.1896 H   0  0  0  0  0  0  0  0  0  0  0  0
   15.6379  -12.0284   21.0213 C   0  0  0  0  0  0  0  0  0  0  0  0
   17.0146  -12.6052   20.6344 C   0  0  0  0  0  0  0  0  0  0  0  0
   18.0170  -11.4667   20.3878 C   0  0  0  0  0  0  0  0  0  0  0  0
   19.3524  -12.0779   19.9363 C   0  0  0  0  0  0  0  0  0  0  0  0
   19.9045  -13.0482   20.9947 C   0  0  0  0  0  0  0  0  0  0  0  0
   18.9089  -14.1817   21.2852 C   0  0  0  0  0  0  0  0  0  0  0  0
   17.5551  -13.5789   21.7090 C   0  0  0  0  0  0  0  0  0  0  0  0
   15.1932  -11.0445   19.9998 N   0  0  0  0  0  0  0  0  0  0  0  0
   15.2740  -11.4874   19.0845 H   0  0  0  0  0  0  0  0  0  0  0  0
   13.8021  -10.5413   20.1395 C   0  0  0  0  0  0  0  0  0  0  0  0
   13.6859   -9.5542   21.2852 C   0  0  0  0  0  0  0  0  0  0  0  0
   14.3260   -8.5218   21.3213 O   0  0  0  0  0  0  0  0  0  0  0  0
   12.8743   -9.8349   22.3070 O   0  0  0  0  0  0  0  0  0  0  0  0
   14.9024   -8.3030   20.6157 H   0  0  0  0  0  0  0  0  0  0  0  0
 25 26  1  0  0  0
 25 30  1  0  0  0
 25 24  1  0  0  0
 26 27  1  0  0  0
 27 28  1  0  0  0
 28 29  1  0  0  0
 29 30  1  0  0  0
 31 24  1  0  0  0
 31 33  1  0  0  0
 24  1  1  0  0  0
  1  2  2  0  0  0
  1  3  1  0  0  0
  3  4  1  0  0  0
  3  6  1  0  0  0
  4  7  1  0  0  0
  4  5  1  0  0  0
  7  8  2  0  0  0
  7  9  1  0  0  0
  9 11  1  0  0  0
 11 12  1  0  0  0
 12 13  2  0  0  0
 12 17  1  0  0  0
 13 14  1  0  0  0
 14 15  2  0  0  0
 15 16  1  0  0  0
 15 18  1  0  0  0
 16 17  2  0  0  0
 18 19  2  0  0  0
 18 20  1  0  0  0
  5  6  1  0  0  0
 33 34  1  0  0  0
 34 35  1  0  0  0
 34 36  2  0  0  0
 31 32  1  0  0  0
  9 10  1  0  0  0
 19 21  1  0  0  0
 20 22  1  0  0  0
 20 23  1  0  0  0
 35 37  1  0  0  0
M  END
> <minimizedAffinity>
-7.66578

$$$$
4BAH_MEL_B_1291


 37 39  0  0  0  0  0  0  0  0999 V2000
   13.6980  -14.6454   21.5249 C   0  0  0  0  0  0  0  0  0  0  0  0
   13.5052  -15.3801   22.4892 O   0  0  0  0  0  0  0  0  0  0  0  0
   13.6045  -15.1761   20.2898 N   0  0  0  0  0  0  0  0  0  0  0  0
   13.4194  -16.5690   19.8733 C   0  0  0  0  0  0  0  0  0  0  0  0
   13.8507  -16.2264   18.4344 C   0  0  0  0  0  0  0  0  0  0  0  0
   13.8132  -14.7606   18.8844 C   0  0  0  0  0  0  0  0  0  0  0  0
   14.4148  -17.3936   20.6817 C   0  0  0  0  0  0  0  0  0  0  0  0
   14.0369  -18.4335   21.2076 O   0  0  0  0  0  0  0  0  0  0  0  0
   15.7264  -17.0690   20.7282 N   0  0  0  0  0  0  0  0  0  0  0  0
   16.0621  -16.2601   20.2785 H   0  0  0  0  0  0  0  0  0  0  0  0
   16.6420  -17.9570   21.4695 C   0  0  0  0  0  0  0  0  0  0  0  0
   17.7286  -17.1155   22.0839 C   0  0  0  0  0  0  0  0  0  0  0  0
   18.8747  -16.8071   21.3660 C   0  0  0  0  0  0  0  0  0  0  0  0
   19.8525  -15.9987   21.9414 C   0  0  0  0  0  0  0  0  0  0  0  0
   19.6574  -15.4865   23.2392 C   0  0  0  0  0  0  0  0  0  0  0  0
   18.4897  -15.8077   23.9541 C   0  0  0  0  0  0  0  0  0  0  0  0
   17.5241  -16.5878   23.3529 C   0  0  0  0  0  0  0  0  0  0  0  0
   20.7210  -14.6644   23.8735 C   0  0  0  0  0  0  0  0  0  0  0  0
   21.0514  -14.8529   25.1182 N   0  0  0  0  0  0  0  0  0  0  0  0
   21.4104  -13.7189   23.1268 N   0  0  0  0  0  0  0  0  0  0  0  0
   20.5708  -15.5202   25.6595 H   0  0  0  0  0  0  0  0  0  0  0  0
   21.1710  -13.5661   22.1841 H   0  0  0  0  0  0  0  0  0  0  0  0
   22.1389  -13.2012   23.5398 H   0  0  0  0  0  0  0  0  0  0  0  0
   14.0581  -13.2031   21.7629 C   0  0  0  0  0  0  0  0  0  0  0  0
   15.3611  -12.8722   21.0075 C   0  0  0  0  0  0  0  0  0  0  0  0
   15.4757  -11.3557   20.7858 C   0  0  0  0  0  0  0  0  0  0  0  0
   16.7469  -11.0739   19.9701 C   0  0  0  0  0  0  0  0  0  0  0  0
   17.9986  -11.5983   20.6944 C   0  0  0  0  0  0  0  0  0  0  0  0
   17.8986  -13.1086   20.9579 C   0  0  0  0  0  0  0  0  0  0  0  0
   16.6098  -13.4067   21.7492 C   0  0  0  0  0  0  0  0  0  0  0  0
   12.9446  -12.3634   21.2488 N   0  0  0  0  0  0  0  0  0  0  0  0
   12.4121  -12.9247   20.5841 H   0  0  0  0  0  0  0  0  0  0  0  0
   11.9953  -11.8427   22.2664 C   0  0  0  0  0  0  0  0  0  0  0  0
   12.1583  -10.3469   22.4572 C   0  0  0  0  0  0  0  0  0  0  0  0
   12.1229   -9.8236   23.5535 O   0  0  0  0  0  0  0  0  0  0  0  0
   12.3200   -9.5674   21.3858 O   0  0  0  0  0  0  0  0  0  0  0  0
   12.0103  -10.3500   24.3204 H   0  0  0  0  0  0  0  0  0  0  0  0
 25 26  1  0  0  0
 25 30  1  0  0  0
 25 24  1  0  0  0
 26 27  1  0  0  0
 27 28  1  0  0  0
 28 29  1  0  0  0
 29 30  1  0  0  0
 31 24  1  0  0  0
 31 33  1  0  0  0
 24  1  1  0  0  0
  1  2  2  0  0  0
  1  3  1  0  0  0
  3  4  1  0  0  0
  3  6  1  0  0  0
  4  7  1  0  0  0
  4  5  1  0  0  0
  7  8  2  0  0  0
  7  9  1  0  0  0
  9 11  1  0  0  0
 11 12  1  0  0  0
 12 13  2  0  0  0
 12 17  1  0  0  0
 13 14  1  0  0  0
 14 15  2  0  0  0
 15 16  1  0  0  0
 15 18  1  0  0  0
 16 17  2  0  0  0
 18 19  2  0  0  0
 18 20  1  0  0  0
  5  6  1  0  0  0
 33 34  1  0  0  0
 34 35  1  0  0  0
 34 36  2  0  0  0
 31 32  1  0  0  0
  9 10  1  0  0  0
 19 21  1  0  0  0
 20 22  1  0  0  0
 20 23  1  0  0  0
 35 37  1  0  0  0
M  END
> <minimizedAffinity>
-7.65724

$$$$
4BAH_MEL_B_1291


 37 39  0  0  0  0  0  0  0  0999 V2000
   17.5331  -15.3398   22.4542 C   0  0  0  0  0  0  0  0  0  0  0  0
   17.2059  -15.4026   21.2728 O   0  0  0  0  0  0  0  0  0  0  0  0
   17.4352  -16.4555   23.2035 N   0  0  0  0  0  0  0  0  0  0  0  0
   16.8696  -17.7666   22.8735 C   0  0  0  0  0  0  0  0  0  0  0  0
   16.8280  -18.1560   24.3637 C   0  0  0  0  0  0  0  0  0  0  0  0
   17.6158  -16.8642   24.6148 C   0  0  0  0  0  0  0  0  0  0  0  0
   15.5167  -17.4982   22.2238 C   0  0  0  0  0  0  0  0  0  0  0  0
   14.5375  -17.3251   22.9392 O   0  0  0  0  0  0  0  0  0  0  0  0
   15.3974  -17.3257   20.8882 N   0  0  0  0  0  0  0  0  0  0  0  0
   16.1782  -17.4186   20.2958 H   0  0  0  0  0  0  0  0  0  0  0  0
   14.0681  -16.9948   20.3406 C   0  0  0  0  0  0  0  0  0  0  0  0
   13.9035  -15.4986   20.3602 C   0  0  0  0  0  0  0  0  0  0  0  0
   14.4530  -14.7139   19.3571 C   0  0  0  0  0  0  0  0  0  0  0  0
   14.2598  -13.3344   19.3764 C   0  0  0  0  0  0  0  0  0  0  0  0
   13.4910  -12.7533   20.4039 C   0  0  0  0  0  0  0  0  0  0  0  0
   12.9398  -13.5623   21.4136 C   0  0  0  0  0  0  0  0  0  0  0  0
   13.1225  -14.9283   21.3580 C   0  0  0  0  0  0  0  0  0  0  0  0
   13.3247  -11.2770   20.4536 C   0  0  0  0  0  0  0  0  0  0  0  0
   13.6263  -10.5405   19.4239 N   0  0  0  0  0  0  0  0  0  0  0  0
   12.7955  -10.6724   21.5856 N   0  0  0  0  0  0  0  0  0  0  0  0
   14.0023  -10.9562   18.6145 H   0  0  0  0  0  0  0  0  0  0  0  0
   12.5629  -11.2175   22.3717 H   0  0  0  0  0  0  0  0  0  0  0  0
   12.6528   -9.6984   21.6023 H   0  0  0  0  0  0  0  0  0  0  0  0
   17.9961  -14.0226   23.0173 C   0  0  0  0  0  0  0  0  0  0  0  0
   19.3266  -14.2294   23.7689 C   0  0  0  0  0  0  0  0  0  0  0  0
   20.4591  -13.4670   23.0633 C   0  0  0  0  0  0  0  0  0  0  0  0
   21.7771  -13.7553   23.7986 C   0  0  0  0  0  0  0  0  0  0  0  0
   21.6934  -13.3303   25.2746 C   0  0  0  0  0  0  0  0  0  0  0  0
   20.5483  -14.0543   25.9992 C   0  0  0  0  0  0  0  0  0  0  0  0
   19.2250  -13.7975   25.2516 C   0  0  0  0  0  0  0  0  0  0  0  0
   18.1939  -13.0843   21.8816 N   0  0  0  0  0  0  0  0  0  0  0  0
   18.3547  -13.6408   21.0420 H   0  0  0  0  0  0  0  0  0  0  0  0
   17.0709  -12.1527   21.6007 C   0  0  0  0  0  0  0  0  0  0  0  0
   17.2541  -11.4561   20.2659 C   0  0  0  0  0  0  0  0  0  0  0  0
   16.5595  -10.5209   19.9198 O   0  0  0  0  0  0  0  0  0  0  0  0
   18.1916  -11.8971   19.4243 O   0  0  0  0  0  0  0  0  0  0  0  0
   15.8947  -10.1936   20.4934 H   0  0  0  0  0  0  0  0  0  0  0  0
 25 26  1  0  0  0
 25 30  1  0  0  0
 25 24  1  0  0  0
 26 27  1  0  0  0
 27 28  1  0  0  0
 28 29  1  0  0  0
 29 30  1  0  0  0
 31 24  1  0  0  0
 31 33  1  0  0  0
 24  1  1  0  0  0
  1  2  2  0  0  0
  1  3  1  0  0  0
  3  4  1  0  0  0
  3  6  1  0  0  0
  4  7  1  0  0  0
  4  5  1  0  0  0
  7  8  2  0  0  0
  7  9  1  0  0  0
  9 11  1  0  0  0
 11 12  1  0  0  0
 12 13  2  0  0  0
 12 17  1  0  0  0
 13 14  1  0  0  0
 14 15  2  0  0  0
 15 16  1  0  0  0
 15 18  1  0  0  0
 16 17  2  0  0  0
 18 19  2  0  0  0
 18 20  1  0  0  0
  5  6  1  0  0  0
 33 34  1  0  0  0
 34 35  1  0  0  0
 34 36  2  0  0  0
 31 32  1  0  0  0
  9 10  1  0  0  0
 19 21  1  0  0  0
 20 22  1  0  0  0
 20 23  1  0  0  0
 35 37  1  0  0  0
M  END
> <minimizedAffinity>
-7.63697

$$$$
4BAH_MEL_B_1291


 37 39  0  0  0  0  0  0  0  0999 V2000
   17.3641  -16.3791   21.6913 C   0  0  0  0  0  0  0  0  0  0  0  0
   16.9125  -16.4057   20.5502 O   0  0  0  0  0  0  0  0  0  0  0  0
   16.7800  -17.1533   22.6268 N   0  0  0  0  0  0  0  0  0  0  0  0
   15.5684  -17.9742   22.5494 C   0  0  0  0  0  0  0  0  0  0  0  0
   15.5080  -18.0815   24.0853 C   0  0  0  0  0  0  0  0  0  0  0  0
   16.8859  -17.4078   24.0813 C   0  0  0  0  0  0  0  0  0  0  0  0
   14.4983  -17.0989   21.9067 C   0  0  0  0  0  0  0  0  0  0  0  0
   13.6149  -17.6295   21.2443 O   0  0  0  0  0  0  0  0  0  0  0  0
   14.4324  -15.7709   22.1516 N   0  0  0  0  0  0  0  0  0  0  0  0
   15.1072  -15.3278   22.7150 H   0  0  0  0  0  0  0  0  0  0  0  0
   13.3241  -15.0024   21.5537 C   0  0  0  0  0  0  0  0  0  0  0  0
   13.8958  -14.0621   20.5265 C   0  0  0  0  0  0  0  0  0  0  0  0
   14.5848  -14.5513   19.4265 C   0  0  0  0  0  0  0  0  0  0  0  0
   15.0762  -13.6654   18.4704 C   0  0  0  0  0  0  0  0  0  0  0  0
   14.8506  -12.2829   18.6208 C   0  0  0  0  0  0  0  0  0  0  0  0
   14.1497  -11.8024   19.7414 C   0  0  0  0  0  0  0  0  0  0  0  0
   13.6498  -12.7011   20.6604 C   0  0  0  0  0  0  0  0  0  0  0  0
   15.4162  -11.3325   17.6277 C   0  0  0  0  0  0  0  0  0  0  0  0
   14.6335  -10.6361   16.8555 N   0  0  0  0  0  0  0  0  0  0  0  0
   16.7888  -11.1400   17.5497 N   0  0  0  0  0  0  0  0  0  0  0  0
   13.6582  -10.7625   16.9004 H   0  0  0  0  0  0  0  0  0  0  0  0
   17.3924  -11.6600   18.1279 H   0  0  0  0  0  0  0  0  0  0  0  0
   17.1585  -10.4835   16.9160 H   0  0  0  0  0  0  0  0  0  0  0  0
   18.5213  -15.4670   22.0004 C   0  0  0  0  0  0  0  0  0  0  0  0
   18.3850  -14.1730   21.1729 C   0  0  0  0  0  0  0  0  0  0  0  0
   17.5658  -13.1300   21.9494 C   0  0  0  0  0  0  0  0  0  0  0  0
   17.3919  -11.8854   21.0653 C   0  0  0  0  0  0  0  0  0  0  0  0
   18.7546  -11.2952   20.6640 C   0  0  0  0  0  0  0  0  0  0  0  0
   19.6094  -12.3267   19.9121 C   0  0  0  0  0  0  0  0  0  0  0  0
   19.7642  -13.5928   20.7775 C   0  0  0  0  0  0  0  0  0  0  0  0
   18.4779  -15.1497   23.4519 N   0  0  0  0  0  0  0  0  0  0  0  0
   17.8587  -15.8249   23.9002 H   0  0  0  0  0  0  0  0  0  0  0  0
   19.7800  -15.1830   24.1671 C   0  0  0  0  0  0  0  0  0  0  0  0
   19.8454  -14.1149   25.2419 C   0  0  0  0  0  0  0  0  0  0  0  0
   19.9634  -12.9343   24.9790 O   0  0  0  0  0  0  0  0  0  0  0  0
   19.7994  -14.4787   26.5253 O   0  0  0  0  0  0  0  0  0  0  0  0
   19.9981  -12.6545   24.0854 H   0  0  0  0  0  0  0  0  0  0  0  0
 25 26  1  0  0  0
 25 30  1  0  0  0
 25 24  1  0  0  0
 26 27  1  0  0  0
 27 28  1  0  0  0
 28 29  1  0  0  0
 29 30  1  0  0  0
 31 24  1  0  0  0
 31 33  1  0  0  0
 24  1  1  0  0  0
  1  2  2  0  0  0
  1  3  1  0  0  0
  3  4  1  0  0  0
  3  6  1  0  0  0
  4  7  1  0  0  0
  4  5  1  0  0  0
  7  8  2  0  0  0
  7  9  1  0  0  0
  9 11  1  0  0  0
 11 12  1  0  0  0
 12 13  2  0  0  0
 12 17  1  0  0  0
 13 14  1  0  0  0
 14 15  2  0  0  0
 15 16  1  0  0  0
 15 18  1  0  0  0
 16 17  2  0  0  0
 18 19  2  0  0  0
 18 20  1  0  0  0
  5  6  1  0  0  0
 33 34  1  0  0  0
 34 35  1  0  0  0
 34 36  2  0  0  0
 31 32  1  0  0  0
  9 10  1  0  0  0
 19 21  1  0  0  0
 20 22  1  0  0  0
 20 23  1  0  0  0
 35 37  1  0  0  0
M  END
> <minimizedAffinity>
-7.60410

$$$$
4BAH_MEL_B_1291


 37 39  0  0  0  0  0  0  0  0999 V2000
   17.3745  -16.4303   21.6543 C   0  0  0  0  0  0  0  0  0  0  0  0
   16.6239  -16.1318   20.7300 O   0  0  0  0  0  0  0  0  0  0  0  0
   17.2963  -17.6757   22.1629 N   0  0  0  0  0  0  0  0  0  0  0  0
   16.3478  -18.7548   21.8735 C   0  0  0  0  0  0  0  0  0  0  0  0
   16.7740  -19.5101   23.1470 C   0  0  0  0  0  0  0  0  0  0  0  0
   17.8871  -18.4620   23.2693 C   0  0  0  0  0  0  0  0  0  0  0  0
   14.9592  -18.1265   21.9128 C   0  0  0  0  0  0  0  0  0  0  0  0
   14.4531  -17.8702   22.9985 O   0  0  0  0  0  0  0  0  0  0  0  0
   14.3297  -17.7352   20.7822 N   0  0  0  0  0  0  0  0  0  0  0  0
   14.7350  -17.8926   19.8989 H   0  0  0  0  0  0  0  0  0  0  0  0
   13.0205  -17.0665   20.9048 C   0  0  0  0  0  0  0  0  0  0  0  0
   13.2279  -15.5824   20.7610 C   0  0  0  0  0  0  0  0  0  0  0  0
   13.2916  -14.7659   21.8805 C   0  0  0  0  0  0  0  0  0  0  0  0
   13.5182  -13.4001   21.7263 C   0  0  0  0  0  0  0  0  0  0  0  0
   13.7003  -12.8658   20.4356 C   0  0  0  0  0  0  0  0  0  0  0  0
   13.6335  -13.7067   19.3103 C   0  0  0  0  0  0  0  0  0  0  0  0
   13.4349  -15.0596   19.4903 C   0  0  0  0  0  0  0  0  0  0  0  0
   13.8931  -11.4019   20.2655 C   0  0  0  0  0  0  0  0  0  0  0  0
   14.3197  -10.9157   19.1361 N   0  0  0  0  0  0  0  0  0  0  0  0
   13.5698  -10.5312   21.2973 N   0  0  0  0  0  0  0  0  0  0  0  0
   14.5525  -11.5217   18.3960 H   0  0  0  0  0  0  0  0  0  0  0  0
   13.2460  -10.8853   22.1569 H   0  0  0  0  0  0  0  0  0  0  0  0
   13.6644   -9.5596   21.1693 H   0  0  0  0  0  0  0  0  0  0  0  0
   18.3199  -15.3910   22.1953 C   0  0  0  0  0  0  0  0  0  0  0  0
   18.3334  -14.1731   21.2496 C   0  0  0  0  0  0  0  0  0  0  0  0
   17.4544  -13.0486   21.8195 C   0  0  0  0  0  0  0  0  0  0  0  0
   17.4364  -11.8842   20.8171 C   0  0  0  0  0  0  0  0  0  0  0  0
   18.8577  -11.3602   20.5499 C   0  0  0  0  0  0  0  0  0  0  0  0
   19.7691  -12.4719   20.0079 C   0  0  0  0  0  0  0  0  0  0  0  0
   19.7700  -13.6590   20.9912 C   0  0  0  0  0  0  0  0  0  0  0  0
   17.8326  -14.9858   23.5398 N   0  0  0  0  0  0  0  0  0  0  0  0
   16.9771  -15.5071   23.7314 H   0  0  0  0  0  0  0  0  0  0  0  0
   18.7682  -15.2170   24.6708 C   0  0  0  0  0  0  0  0  0  0  0  0
   19.9372  -14.2518   24.6246 C   0  0  0  0  0  0  0  0  0  0  0  0
   19.7842  -13.0478   24.5628 O   0  0  0  0  0  0  0  0  0  0  0  0
   21.1814  -14.7353   24.6243 O   0  0  0  0  0  0  0  0  0  0  0  0
   18.9204  -12.6847   24.5616 H   0  0  0  0  0  0  0  0  0  0  0  0
 25 26  1  0  0  0
 25 30  1  0  0  0
 25 24  1  0  0  0
 26 27  1  0  0  0
 27 28  1  0  0  0
 28 29  1  0  0  0
 29 30  1  0  0  0
 31 24  1  0  0  0
 31 33  1  0  0  0
 24  1  1  0  0  0
  1  2  2  0  0  0
  1  3  1  0  0  0
  3  4  1  0  0  0
  3  6  1  0  0  0
  4  7  1  0  0  0
  4  5  1  0  0  0
  7  8  2  0  0  0
  7  9  1  0  0  0
  9 11  1  0  0  0
 11 12  1  0  0  0
 12 13  2  0  0  0
 12 17  1  0  0  0
 13 14  1  0  0  0
 14 15  2  0  0  0
 15 16  1  0  0  0
 15 18  1  0  0  0
 16 17  2  0  0  0
 18 19  2  0  0  0
 18 20  1  0  0  0
  5  6  1  0  0  0
 33 34  1  0  0  0
 34 35  1  0  0  0
 34 36  2  0  0  0
 31 32  1  0  0  0
  9 10  1  0  0  0
 19 21  1  0  0  0
 20 22  1  0  0  0
 20 23  1  0  0  0
 35 37  1  0  0  0
M  END
> <minimizedAffinity>
-7.55737

$$$$
4BAH_MEL_B_1291


 37 39  0  0  0  0  0  0  0  0999 V2000
   17.9186  -16.6283   21.7379 C   0  0  0  0  0  0  0  0  0  0  0  0
   17.7122  -16.9771   20.5793 O   0  0  0  0  0  0  0  0  0  0  0  0
   17.2172  -17.2287   22.7195 N   0  0  0  0  0  0  0  0  0  0  0  0
   16.1133  -18.1892   22.6379 C   0  0  0  0  0  0  0  0  0  0  0  0
   15.7498  -17.9408   24.1145 C   0  0  0  0  0  0  0  0  0  0  0  0
   17.0439  -17.1207   24.1857 C   0  0  0  0  0  0  0  0  0  0  0  0
   15.1327  -17.6287   21.6139 C   0  0  0  0  0  0  0  0  0  0  0  0
   14.6241  -18.3894   20.7994 O   0  0  0  0  0  0  0  0  0  0  0  0
   14.7204  -16.3421   21.6626 N   0  0  0  0  0  0  0  0  0  0  0  0
   15.0836  -15.7211   22.3347 H   0  0  0  0  0  0  0  0  0  0  0  0
   13.7129  -15.8917   20.6836 C   0  0  0  0  0  0  0  0  0  0  0  0
   13.5903  -14.3944   20.7803 C   0  0  0  0  0  0  0  0  0  0  0  0
   13.2507  -13.7893   21.9814 C   0  0  0  0  0  0  0  0  0  0  0  0
   13.1759  -12.4003   22.0572 C   0  0  0  0  0  0  0  0  0  0  0  0
   13.4658  -11.6241   20.9178 C   0  0  0  0  0  0  0  0  0  0  0  0
   13.8093  -12.2524   19.7074 C   0  0  0  0  0  0  0  0  0  0  0  0
   13.9029  -13.6278   19.6644 C   0  0  0  0  0  0  0  0  0  0  0  0
   13.3389  -10.1446   20.9835 C   0  0  0  0  0  0  0  0  0  0  0  0
   12.1805   -9.5865   21.1843 N   0  0  0  0  0  0  0  0  0  0  0  0
   14.4673   -9.3425   20.8821 N   0  0  0  0  0  0  0  0  0  0  0  0
   11.3719  -10.1434   21.2581 H   0  0  0  0  0  0  0  0  0  0  0  0
   15.3499   -9.7514   20.7303 H   0  0  0  0  0  0  0  0  0  0  0  0
   14.3850   -8.3647   20.9621 H   0  0  0  0  0  0  0  0  0  0  0  0
   18.9153  -15.5325   22.0069 C   0  0  0  0  0  0  0  0  0  0  0  0
   18.5332  -14.2840   21.1865 C   0  0  0  0  0  0  0  0  0  0  0  0
   17.5361  -13.4174   21.9717 C   0  0  0  0  0  0  0  0  0  0  0  0
   17.1262  -12.2243   21.0946 C   0  0  0  0  0  0  0  0  0  0  0  0
   18.3511  -11.3860   20.6905 C   0  0  0  0  0  0  0  0  0  0  0  0
   19.3811  -12.2349   19.9297 C   0  0  0  0  0  0  0  0  0  0  0  0
   19.7763  -13.4526   20.7881 C   0  0  0  0  0  0  0  0  0  0  0  0
   18.8702  -15.2203   23.4594 N   0  0  0  0  0  0  0  0  0  0  0  0
   18.2513  -15.8978   23.9048 H   0  0  0  0  0  0  0  0  0  0  0  0
   20.1716  -15.2544   24.1757 C   0  0  0  0  0  0  0  0  0  0  0  0
   20.9115  -13.9378   24.0365 C   0  0  0  0  0  0  0  0  0  0  0  0
   22.0198  -13.8637   23.5437 O   0  0  0  0  0  0  0  0  0  0  0  0
   20.3432  -12.8199   24.4937 O   0  0  0  0  0  0  0  0  0  0  0  0
   22.4392  -14.6348   23.2158 H   0  0  0  0  0  0  0  0  0  0  0  0
 25 26  1  0  0  0
 25 30  1  0  0  0
 25 24  1  0  0  0
 26 27  1  0  0  0
 27 28  1  0  0  0
 28 29  1  0  0  0
 29 30  1  0  0  0
 31 24  1  0  0  0
 31 33  1  0  0  0
 24  1  1  0  0  0
  1  2  2  0  0  0
  1  3  1  0  0  0
  3  4  1  0  0  0
  3  6  1  0  0  0
  4  7  1  0  0  0
  4  5  1  0  0  0
  7  8  2  0  0  0
  7  9  1  0  0  0
  9 11  1  0  0  0
 11 12  1  0  0  0
 12 13  2  0  0  0
 12 17  1  0  0  0
 13 14  1  0  0  0
 14 15  2  0  0  0
 15 16  1  0  0  0
 15 18  1  0  0  0
 16 17  2  0  0  0
 18 19  2  0  0  0
 18 20  1  0  0  0
  5  6  1  0  0  0
 33 34  1  0  0  0
 34 35  1  0  0  0
 34 36  2  0  0  0
 31 32  1  0  0  0
  9 10  1  0  0  0
 19 21  1  0  0  0
 20 22  1  0  0  0
 20 23  1  0  0  0
 35 37  1  0  0  0
M  END
> <minimizedAffinity>
-7.45642

$$$$
