4GQP_B40_H_1201


 12 12  0  0  0  0  0  0  0  0999 V2000
   -3.1903   -4.0484   16.9363 C   0  0  0  0  0  0  0  0  0  0  0  0
   -4.0949   -5.1836   17.1136 C   0  0  0  0  0  0  0  0  0  0  0  0
   -3.6190   -6.3623   17.6400 C   0  0  0  0  0  0  0  0  0  0  0  0
   -5.4676   -5.0974   16.8632 C   0  0  0  0  0  0  0  0  0  0  0  0
   -4.4996   -7.4150   17.8751 C   0  0  0  0  0  0  0  0  0  0  0  0
   -6.3770   -6.1601   17.0369 C   0  0  0  0  0  0  0  0  0  0  0  0
   -5.8953   -7.3549   17.5546 C   0  0  0  0  0  0  0  0  0  0  0  0
   -3.0106   -3.5782   15.4119 C   0  0  0  0  0  0  0  0  0  0  0  0
   -1.7827   -4.3188   14.9294 C   0  0  0  0  0  0  0  0  0  0  0  0
   -2.6273   -2.1349   15.2513 N   0  0  0  0  0  0  0  0  0  0  0  0
   -3.6813   -1.3456   15.9797 C   0  0  0  0  0  0  0  0  0  0  0  0
   -1.7091   -1.9638   15.6614 H   0  0  0  0  0  0  0  0  0  0  0  0
 10 11  1  0  0  0
 10  8  1  0  0  0
  9  8  1  0  0  0
  8  1  1  0  0  0
  1  2  1  0  0  0
  4  2  2  0  0  0
  2  3  1  0  0  0
  3  5  2  0  0  0
  4  6  1  0  0  0
  7  5  1  0  0  0
  6  7  2  0  0  0
 10 12  1  0  0  0
M  END
> <minimizedAffinity>
-7.75739

$$$$
4GQP_B40_H_1201


 12 12  0  0  0  0  0  0  0  0999 V2000
   -2.9819   -4.2353   16.9475 C   0  0  0  0  0  0  0  0  0  0  0  0
   -4.0117   -5.2472   17.1801 C   0  0  0  0  0  0  0  0  0  0  0  0
   -5.3098   -5.0038   16.7946 C   0  0  0  0  0  0  0  0  0  0  0  0
   -3.7186   -6.5139   17.6937 C   0  0  0  0  0  0  0  0  0  0  0  0
   -6.2712   -5.9990   16.9512 C   0  0  0  0  0  0  0  0  0  0  0  0
   -4.6762   -7.5236   17.9172 C   0  0  0  0  0  0  0  0  0  0  0  0
   -5.9894   -7.2741   17.5420 C   0  0  0  0  0  0  0  0  0  0  0  0
   -2.8722   -3.7420   15.4238 C   0  0  0  0  0  0  0  0  0  0  0  0
   -1.5871   -4.3592   14.9174 C   0  0  0  0  0  0  0  0  0  0  0  0
   -2.6311   -2.2679   15.2672 N   0  0  0  0  0  0  0  0  0  0  0  0
   -3.7131   -1.5872   16.0612 C   0  0  0  0  0  0  0  0  0  0  0  0
   -1.7122   -2.0178   15.6323 H   0  0  0  0  0  0  0  0  0  0  0  0
 10 11  1  0  0  0
 10  8  1  0  0  0
  9  8  1  0  0  0
  8  1  1  0  0  0
  1  2  1  0  0  0
  4  2  2  0  0  0
  2  3  1  0  0  0
  3  5  2  0  0  0
  4  6  1  0  0  0
  7  5  1  0  0  0
  6  7  2  0  0  0
 10 12  1  0  0  0
M  END
> <minimizedAffinity>
-7.64407

$$$$
4GQP_B40_H_1201


 12 12  0  0  0  0  0  0  0  0999 V2000
   -4.7882   -3.6214   16.2842 C   0  0  0  0  0  0  0  0  0  0  0  0
   -4.8879   -4.9614   16.8614 C   0  0  0  0  0  0  0  0  0  0  0  0
   -6.0963   -5.6193   16.8594 C   0  0  0  0  0  0  0  0  0  0  0  0
   -3.7739   -5.6613   17.3341 C   0  0  0  0  0  0  0  0  0  0  0  0
   -6.1697   -6.9230   17.3431 C   0  0  0  0  0  0  0  0  0  0  0  0
   -3.8222   -6.9592   17.8813 C   0  0  0  0  0  0  0  0  0  0  0  0
   -5.0438   -7.6187   17.8931 C   0  0  0  0  0  0  0  0  0  0  0  0
   -3.2835   -3.1082   16.0611 C   0  0  0  0  0  0  0  0  0  0  0  0
   -3.4189   -1.6152   15.8573 C   0  0  0  0  0  0  0  0  0  0  0  0
   -2.6550   -3.5750   14.7794 N   0  0  0  0  0  0  0  0  0  0  0  0
   -1.3129   -4.1388   15.1605 C   0  0  0  0  0  0  0  0  0  0  0  0
   -3.2313   -4.2945   14.3429 H   0  0  0  0  0  0  0  0  0  0  0  0
 10 11  1  0  0  0
 10  8  1  0  0  0
  9  8  1  0  0  0
  8  1  1  0  0  0
  1  2  1  0  0  0
  4  2  2  0  0  0
  2  3  1  0  0  0
  3  5  2  0  0  0
  4  6  1  0  0  0
  7  5  1  0  0  0
  6  7  2  0  0  0
 10 12  1  0  0  0
M  END
> <minimizedAffinity>
-7.27960

$$$$
4GQP_B40_H_1201


 12 12  0  0  0  0  0  0  0  0999 V2000
   -3.3103   -4.2010   16.8761 C   0  0  0  0  0  0  0  0  0  0  0  0
   -4.2363   -5.3123   17.0906 C   0  0  0  0  0  0  0  0  0  0  0  0
   -3.7767   -6.4920   17.6293 C   0  0  0  0  0  0  0  0  0  0  0  0
   -5.6112   -5.1997   16.8644 C   0  0  0  0  0  0  0  0  0  0  0  0
   -4.6759   -7.5203   17.8998 C   0  0  0  0  0  0  0  0  0  0  0  0
   -6.5405   -6.2383   17.0742 C   0  0  0  0  0  0  0  0  0  0  0  0
   -6.0757   -7.4344   17.6043 C   0  0  0  0  0  0  0  0  0  0  0  0
   -2.0216   -4.5753   15.9950 C   0  0  0  0  0  0  0  0  0  0  0  0
   -0.8932   -4.6760   16.9979 C   0  0  0  0  0  0  0  0  0  0  0  0
   -1.5651   -3.4819   15.0720 N   0  0  0  0  0  0  0  0  0  0  0  0
   -0.0941   -3.7133   14.8556 C   0  0  0  0  0  0  0  0  0  0  0  0
   -2.0668   -3.5334   14.1854 H   0  0  0  0  0  0  0  0  0  0  0  0
 10 11  1  0  0  0
 10  8  1  0  0  0
  9  8  1  0  0  0
  8  1  1  0  0  0
  1  2  1  0  0  0
  4  2  2  0  0  0
  2  3  1  0  0  0
  3  5  2  0  0  0
  4  6  1  0  0  0
  7  5  1  0  0  0
  6  7  2  0  0  0
 10 12  1  0  0  0
M  END
> <minimizedAffinity>
-6.97483

$$$$
4GQP_B40_H_1201


 12 12  0  0  0  0  0  0  0  0999 V2000
   -5.1031   -6.1815   17.9928 C   0  0  0  0  0  0  0  0  0  0  0  0
   -4.2102   -5.4153   17.1243 C   0  0  0  0  0  0  0  0  0  0  0  0
   -4.6998   -4.3435   16.4141 C   0  0  0  0  0  0  0  0  0  0  0  0
   -2.8356   -5.6605   17.0552 C   0  0  0  0  0  0  0  0  0  0  0  0
   -3.8303   -3.5729   15.6464 C   0  0  0  0  0  0  0  0  0  0  0  0
   -1.9372   -4.9363   16.2460 C   0  0  0  0  0  0  0  0  0  0  0  0
   -2.4327   -3.8633   15.5174 C   0  0  0  0  0  0  0  0  0  0  0  0
   -6.4988   -6.5882   17.3119 C   0  0  0  0  0  0  0  0  0  0  0  0
   -7.5414   -5.8277   18.1016 C   0  0  0  0  0  0  0  0  0  0  0  0
   -6.8913   -8.0235   17.5167 N   0  0  0  0  0  0  0  0  0  0  0  0
   -8.3491   -8.1074   17.1535 C   0  0  0  0  0  0  0  0  0  0  0  0
   -6.3393   -8.6321   16.9122 H   0  0  0  0  0  0  0  0  0  0  0  0
 10 11  1  0  0  0
 10  8  1  0  0  0
  9  8  1  0  0  0
  8  1  1  0  0  0
  1  2  1  0  0  0
  4  2  2  0  0  0
  2  3  1  0  0  0
  3  5  2  0  0  0
  4  6  1  0  0  0
  7  5  1  0  0  0
  6  7  2  0  0  0
 10 12  1  0  0  0
M  END
> <minimizedAffinity>
-6.84516

$$$$
4GQP_B40_H_1201


 12 12  0  0  0  0  0  0  0  0999 V2000
   -5.0747   -6.2874   17.9811 C   0  0  0  0  0  0  0  0  0  0  0  0
   -4.1905   -5.4371   17.1852 C   0  0  0  0  0  0  0  0  0  0  0  0
   -2.8463   -5.7223   17.1164 C   0  0  0  0  0  0  0  0  0  0  0  0
   -4.6678   -4.3874   16.3948 C   0  0  0  0  0  0  0  0  0  0  0  0
   -2.0217   -4.9539   16.2987 C   0  0  0  0  0  0  0  0  0  0  0  0
   -3.8540   -3.5552   15.6000 C   0  0  0  0  0  0  0  0  0  0  0  0
   -2.4950   -3.8331   15.5410 C   0  0  0  0  0  0  0  0  0  0  0  0
   -6.4885   -6.6019   17.2887 C   0  0  0  0  0  0  0  0  0  0  0  0
   -7.4913   -5.8086   18.0975 C   0  0  0  0  0  0  0  0  0  0  0  0
   -6.9564   -8.0194   17.4551 N   0  0  0  0  0  0  0  0  0  0  0  0
   -8.2882   -8.0976   16.7588 C   0  0  0  0  0  0  0  0  0  0  0  0
   -6.2932   -8.6648   17.0261 H   0  0  0  0  0  0  0  0  0  0  0  0
 10 11  1  0  0  0
 10  8  1  0  0  0
  9  8  1  0  0  0
  8  1  1  0  0  0
  1  2  1  0  0  0
  4  2  2  0  0  0
  2  3  1  0  0  0
  3  5  2  0  0  0
  4  6  1  0  0  0
  7  5  1  0  0  0
  6  7  2  0  0  0
 10 12  1  0  0  0
M  END
> <minimizedAffinity>
-6.81222

$$$$
4GQP_B40_H_1201


 12 12  0  0  0  0  0  0  0  0999 V2000
   -4.4943   -6.9874   17.6184 C   0  0  0  0  0  0  0  0  0  0  0  0
   -5.9564   -6.9979   17.5940 C   0  0  0  0  0  0  0  0  0  0  0  0
   -6.6265   -8.1390   17.2173 C   0  0  0  0  0  0  0  0  0  0  0  0
   -6.7236   -5.9172   18.0389 C   0  0  0  0  0  0  0  0  0  0  0  0
   -8.0179   -8.1668   17.2665 C   0  0  0  0  0  0  0  0  0  0  0  0
   -8.1327   -5.8916   18.0490 C   0  0  0  0  0  0  0  0  0  0  0  0
   -8.8104   -7.0376   17.6552 C   0  0  0  0  0  0  0  0  0  0  0  0
   -3.8471   -5.5318   17.8171 C   0  0  0  0  0  0  0  0  0  0  0  0
   -4.0060   -4.8597   16.4709 C   0  0  0  0  0  0  0  0  0  0  0  0
   -2.3595   -5.5399   18.0242 N   0  0  0  0  0  0  0  0  0  0  0  0
   -1.7726   -4.8530   16.8208 C   0  0  0  0  0  0  0  0  0  0  0  0
   -2.1169   -5.0332   18.8756 H   0  0  0  0  0  0  0  0  0  0  0  0
 10 11  1  0  0  0
 10  8  1  0  0  0
  9  8  1  0  0  0
  8  1  1  0  0  0
  1  2  1  0  0  0
  4  2  2  0  0  0
  2  3  1  0  0  0
  3  5  2  0  0  0
  4  6  1  0  0  0
  7  5  1  0  0  0
  6  7  2  0  0  0
 10 12  1  0  0  0
M  END
> <minimizedAffinity>
-6.80209

$$$$
4GQP_B40_H_1201


 12 12  0  0  0  0  0  0  0  0999 V2000
   -4.4188   -5.9577   18.1204 C   0  0  0  0  0  0  0  0  0  0  0  0
   -5.7686   -6.4548   17.8569 C   0  0  0  0  0  0  0  0  0  0  0  0
   -5.9526   -7.7606   17.4645 C   0  0  0  0  0  0  0  0  0  0  0  0
   -6.9119   -5.6831   18.0846 C   0  0  0  0  0  0  0  0  0  0  0  0
   -7.2444   -8.2491   17.2864 C   0  0  0  0  0  0  0  0  0  0  0  0
   -8.2304   -6.1279   17.8610 C   0  0  0  0  0  0  0  0  0  0  0  0
   -8.4168   -7.4412   17.4511 C   0  0  0  0  0  0  0  0  0  0  0  0
   -3.6316   -5.4583   16.8135 C   0  0  0  0  0  0  0  0  0  0  0  0
   -2.3692   -4.8215   17.3519 C   0  0  0  0  0  0  0  0  0  0  0  0
   -4.3011   -4.3302   16.0821 N   0  0  0  0  0  0  0  0  0  0  0  0
   -3.2235   -3.6746   15.2615 C   0  0  0  0  0  0  0  0  0  0  0  0
   -5.0397   -4.6885   15.4767 H   0  0  0  0  0  0  0  0  0  0  0  0
 10 11  1  0  0  0
 10  8  1  0  0  0
  9  8  1  0  0  0
  8  1  1  0  0  0
  1  2  1  0  0  0
  4  2  2  0  0  0
  2  3  1  0  0  0
  3  5  2  0  0  0
  4  6  1  0  0  0
  7  5  1  0  0  0
  6  7  2  0  0  0
 10 12  1  0  0  0
M  END
> <minimizedAffinity>
-6.66399

$$$$
4GQP_B40_H_1201


 12 12  0  0  0  0  0  0  0  0999 V2000
   -7.0770   -7.0950   17.7426 C   0  0  0  0  0  0  0  0  0  0  0  0
   -5.8091   -6.4433   17.4168 C   0  0  0  0  0  0  0  0  0  0  0  0
   -5.8076   -5.2679   16.7016 C   0  0  0  0  0  0  0  0  0  0  0  0
   -4.5798   -6.9108   17.8906 C   0  0  0  0  0  0  0  0  0  0  0  0
   -4.6029   -4.6133   16.4578 C   0  0  0  0  0  0  0  0  0  0  0  0
   -3.3376   -6.3045   17.6157 C   0  0  0  0  0  0  0  0  0  0  0  0
   -3.3334   -5.1260   16.8817 C   0  0  0  0  0  0  0  0  0  0  0  0
   -7.5800   -8.1496   16.6418 C   0  0  0  0  0  0  0  0  0  0  0  0
   -8.6723   -7.4207   15.8902 C   0  0  0  0  0  0  0  0  0  0  0  0
   -8.2914   -9.3441   17.2100 N   0  0  0  0  0  0  0  0  0  0  0  0
   -9.7594   -9.0854   17.0040 C   0  0  0  0  0  0  0  0  0  0  0  0
   -8.0083  -10.1924   16.7194 H   0  0  0  0  0  0  0  0  0  0  0  0
 10 11  1  0  0  0
 10  8  1  0  0  0
  9  8  1  0  0  0
  8  1  1  0  0  0
  1  2  1  0  0  0
  4  2  2  0  0  0
  2  3  1  0  0  0
  3  5  2  0  0  0
  4  6  1  0  0  0
  7  5  1  0  0  0
  6  7  2  0  0  0
 10 12  1  0  0  0
M  END
> <minimizedAffinity>
-6.66028

$$$$
4GQP_B40_H_1201


 12 12  0  0  0  0  0  0  0  0999 V2000
   -5.4581   -7.2932   17.3001 C   0  0  0  0  0  0  0  0  0  0  0  0
   -6.9055   -7.3625   17.4974 C   0  0  0  0  0  0  0  0  0  0  0  0
   -7.5970   -6.2404   17.8918 C   0  0  0  0  0  0  0  0  0  0  0  0
   -7.6505   -8.5083   17.2030 C   0  0  0  0  0  0  0  0  0  0  0  0
   -8.9837   -6.2928   18.0068 C   0  0  0  0  0  0  0  0  0  0  0  0
   -9.0470   -8.6126   17.3616 C   0  0  0  0  0  0  0  0  0  0  0  0
   -9.7444   -7.4850   17.7735 C   0  0  0  0  0  0  0  0  0  0  0  0
   -4.7634   -6.0012   17.9522 C   0  0  0  0  0  0  0  0  0  0  0  0
   -4.6391   -5.0197   16.8075 C   0  0  0  0  0  0  0  0  0  0  0  0
   -3.3392   -6.2145   18.3789 N   0  0  0  0  0  0  0  0  0  0  0  0
   -2.5360   -5.1525   17.6778 C   0  0  0  0  0  0  0  0  0  0  0  0
   -3.2530   -6.1149   19.3903 H   0  0  0  0  0  0  0  0  0  0  0  0
 10 11  1  0  0  0
 10  8  1  0  0  0
  9  8  1  0  0  0
  8  1  1  0  0  0
  1  2  1  0  0  0
  4  2  2  0  0  0
  2  3  1  0  0  0
  3  5  2  0  0  0
  4  6  1  0  0  0
  7  5  1  0  0  0
  6  7  2  0  0  0
 10 12  1  0  0  0
M  END
> <minimizedAffinity>
-6.12263

$$$$
