2WN9_ZY5_A_301


 23 25  0  0  0  0  0  0  0  0999 V2000
   29.7606   -6.2793   58.5607 C   0  0  0  0  0  0  0  0  0  0  0  0
   30.9510   -6.9180   58.5618 C   0  0  0  0  0  0  0  0  0  0  0  0
   31.1476   -8.3166   58.0119 C   0  0  0  0  0  0  0  0  0  0  0  0
   32.4054   -8.9842   58.5418 C   0  0  0  0  0  0  0  0  0  0  0  0
   33.6050   -8.0895   58.3111 C   0  0  0  0  0  0  0  0  0  0  0  0
   33.2533   -6.8464   58.9864 N   0  0  0  0  0  0  0  0  0  0  0  0
   32.1414   -6.2230   59.0469 C   0  0  0  0  0  0  0  0  0  0  0  0
   28.4771   -6.8769   58.0351 C   0  0  0  0  0  0  0  0  0  0  0  0
   27.3139   -6.6843   58.7520 C   0  0  0  0  0  0  0  0  0  0  0  0
   26.0981   -7.2248   58.2966 C   0  0  0  0  0  0  0  0  0  0  0  0
   28.4230   -7.5939   56.8445 C   0  0  0  0  0  0  0  0  0  0  0  0
   27.2300   -8.1411   56.4015 C   0  0  0  0  0  0  0  0  0  0  0  0
   26.0624   -7.9525   57.1091 C   0  0  0  0  0  0  0  0  0  0  0  0
   24.8852   -8.5167   56.6464 O   0  0  0  0  0  0  0  0  0  0  0  0
   24.0876   -8.3928   57.1222 H   0  0  0  0  0  0  0  0  0  0  0  0
   27.4552   -5.9559   59.8977 O   0  0  0  0  0  0  0  0  0  0  0  0
   27.8087   -6.4810   61.1977 C   0  0  0  0  0  0  0  0  0  0  0  0
   32.1739   -4.8094   59.5649 C   0  0  0  0  0  0  0  0  0  0  0  0
   32.9013   -4.4878   60.7012 C   0  0  0  0  0  0  0  0  0  0  0  0
   32.9873   -3.2300   61.1457 N   0  0  0  0  0  0  0  0  0  0  0  0
   32.3614   -2.2329   60.5047 C   0  0  0  0  0  0  0  0  0  0  0  0
   31.6164   -2.4965   59.3351 C   0  0  0  0  0  0  0  0  0  0  0  0
   31.5183   -3.7960   58.8669 C   0  0  0  0  0  0  0  0  0  0  0  0
  1  8  1  0  0  0
  1  2  2  0  0  0
  8  9  1  0  0  0
  8 11  2  0  0  0
  9 16  1  0  0  0
  9 10  2  0  0  0
 16 17  1  0  0  0
 10 13  1  0  0  0
 11 12  1  0  0  0
 12 13  2  0  0  0
 13 14  1  0  0  0
  2  3  1  0  0  0
  2  7  1  0  0  0
  3  4  1  0  0  0
  4  5  1  0  0  0
  5  6  1  0  0  0
  6  7  2  0  0  0
  7 18  1  0  0  0
 18 19  1  0  0  0
 18 23  2  0  0  0
 19 20  2  0  0  0
 20 21  1  0  0  0
 21 22  2  0  0  0
 22 23  1  0  0  0
 14 15  1  0  0  0
M  END
> <minimizedAffinity>
-8.76264

$$$$
2WN9_ZY5_A_301


 23 25  0  0  0  0  0  0  0  0999 V2000
   29.4254   -6.0198   59.8158 C   0  0  0  0  0  0  0  0  0  0  0  0
   29.7222   -6.4699   61.0545 C   0  0  0  0  0  0  0  0  0  0  0  0
   29.1671   -7.7579   61.6291 C   0  0  0  0  0  0  0  0  0  0  0  0
   29.2476   -7.8067   63.1456 C   0  0  0  0  0  0  0  0  0  0  0  0
   30.6642   -7.5246   63.5999 C   0  0  0  0  0  0  0  0  0  0  0  0
   30.9669   -6.2206   63.0228 N   0  0  0  0  0  0  0  0  0  0  0  0
   30.6796   -5.7350   61.8783 C   0  0  0  0  0  0  0  0  0  0  0  0
   28.4943   -6.7235   58.8575 C   0  0  0  0  0  0  0  0  0  0  0  0
   29.0365   -7.5352   57.8821 C   0  0  0  0  0  0  0  0  0  0  0  0
   28.2035   -8.2076   56.9702 C   0  0  0  0  0  0  0  0  0  0  0  0
   27.1113   -6.5999   58.9379 C   0  0  0  0  0  0  0  0  0  0  0  0
   26.2888   -7.2483   58.0312 C   0  0  0  0  0  0  0  0  0  0  0  0
   26.8205   -8.0629   57.0548 C   0  0  0  0  0  0  0  0  0  0  0  0
   25.9750   -8.6936   56.1573 O   0  0  0  0  0  0  0  0  0  0  0  0
   26.3292   -9.2489   55.4908 H   0  0  0  0  0  0  0  0  0  0  0  0
   30.3993   -7.6120   57.8861 O   0  0  0  0  0  0  0  0  0  0  0  0
   31.2745   -7.2042   56.8098 C   0  0  0  0  0  0  0  0  0  0  0  0
   31.3972   -4.4768   61.4663 C   0  0  0  0  0  0  0  0  0  0  0  0
   30.8721   -3.2297   61.7712 C   0  0  0  0  0  0  0  0  0  0  0  0
   31.5201   -2.1019   61.4626 N   0  0  0  0  0  0  0  0  0  0  0  0
   32.7050   -2.1421   60.8371 C   0  0  0  0  0  0  0  0  0  0  0  0
   33.2959   -3.3823   60.5124 C   0  0  0  0  0  0  0  0  0  0  0  0
   32.6325   -4.5569   60.8249 C   0  0  0  0  0  0  0  0  0  0  0  0
  1  8  1  0  0  0
  1  2  2  0  0  0
  8  9  1  0  0  0
  8 11  2  0  0  0
  9 16  1  0  0  0
  9 10  2  0  0  0
 16 17  1  0  0  0
 10 13  1  0  0  0
 11 12  1  0  0  0
 12 13  2  0  0  0
 13 14  1  0  0  0
  2  3  1  0  0  0
  2  7  1  0  0  0
  3  4  1  0  0  0
  4  5  1  0  0  0
  5  6  1  0  0  0
  6  7  2  0  0  0
  7 18  1  0  0  0
 18 19  1  0  0  0
 18 23  2  0  0  0
 19 20  2  0  0  0
 20 21  1  0  0  0
 21 22  2  0  0  0
 22 23  1  0  0  0
 14 15  1  0  0  0
M  END
> <minimizedAffinity>
-8.61440

$$$$
2WN9_ZY5_A_301


 23 25  0  0  0  0  0  0  0  0999 V2000
   29.8322   -6.7391   59.5437 C   0  0  0  0  0  0  0  0  0  0  0  0
   29.7943   -5.8638   60.5720 C   0  0  0  0  0  0  0  0  0  0  0  0
   28.5298   -5.1594   61.0214 C   0  0  0  0  0  0  0  0  0  0  0  0
   28.8125   -3.9118   61.8412 C   0  0  0  0  0  0  0  0  0  0  0  0
   29.7385   -4.2453   62.9920 C   0  0  0  0  0  0  0  0  0  0  0  0
   30.9122   -4.8196   62.3456 N   0  0  0  0  0  0  0  0  0  0  0  0
   31.0039   -5.6176   61.3541 C   0  0  0  0  0  0  0  0  0  0  0  0
   28.6353   -7.1118   58.7016 C   0  0  0  0  0  0  0  0  0  0  0  0
   28.8293   -7.9015   57.5867 C   0  0  0  0  0  0  0  0  0  0  0  0
   27.7408   -8.2701   56.7762 C   0  0  0  0  0  0  0  0  0  0  0  0
   27.3442   -6.7064   59.0228 C   0  0  0  0  0  0  0  0  0  0  0  0
   26.2721   -7.0547   58.2176 C   0  0  0  0  0  0  0  0  0  0  0  0
   26.4551   -7.8447   57.1033 C   0  0  0  0  0  0  0  0  0  0  0  0
   25.3662   -8.1720   56.3124 O   0  0  0  0  0  0  0  0  0  0  0  0
   25.4830   -8.7087   55.5533 H   0  0  0  0  0  0  0  0  0  0  0  0
   30.1239   -8.2670   57.3557 O   0  0  0  0  0  0  0  0  0  0  0  0
   30.6373   -9.6187   57.3629 C   0  0  0  0  0  0  0  0  0  0  0  0
   32.3407   -6.2696   61.1185 C   0  0  0  0  0  0  0  0  0  0  0  0
   32.7153   -7.3965   61.8352 C   0  0  0  0  0  0  0  0  0  0  0  0
   33.8738   -8.0218   61.6027 N   0  0  0  0  0  0  0  0  0  0  0  0
   34.7197   -7.5705   60.6659 C   0  0  0  0  0  0  0  0  0  0  0  0
   34.3875   -6.4354   59.8955 C   0  0  0  0  0  0  0  0  0  0  0  0
   33.1914   -5.7781   60.1293 C   0  0  0  0  0  0  0  0  0  0  0  0
  1  8  1  0  0  0
  1  2  2  0  0  0
  8  9  1  0  0  0
  8 11  2  0  0  0
  9 16  1  0  0  0
  9 10  2  0  0  0
 16 17  1  0  0  0
 10 13  1  0  0  0
 11 12  1  0  0  0
 12 13  2  0  0  0
 13 14  1  0  0  0
  2  3  1  0  0  0
  2  7  1  0  0  0
  3  4  1  0  0  0
  4  5  1  0  0  0
  5  6  1  0  0  0
  6  7  2  0  0  0
  7 18  1  0  0  0
 18 19  1  0  0  0
 18 23  2  0  0  0
 19 20  2  0  0  0
 20 21  1  0  0  0
 21 22  2  0  0  0
 22 23  1  0  0  0
 14 15  1  0  0  0
M  END
> <minimizedAffinity>
-8.54002

$$$$
2WN9_ZY5_A_301


 23 25  0  0  0  0  0  0  0  0999 V2000
   30.0641   -7.7659   57.9659 C   0  0  0  0  0  0  0  0  0  0  0  0
   30.9006   -7.8500   56.9084 C   0  0  0  0  0  0  0  0  0  0  0  0
   30.4270   -7.8542   55.4686 C   0  0  0  0  0  0  0  0  0  0  0  0
   31.4610   -8.4238   54.5122 C   0  0  0  0  0  0  0  0  0  0  0  0
   32.7840   -7.7096   54.6921 C   0  0  0  0  0  0  0  0  0  0  0  0
   33.0992   -7.9003   56.1026 N   0  0  0  0  0  0  0  0  0  0  0  0
   32.3447   -7.8679   57.1312 C   0  0  0  0  0  0  0  0  0  0  0  0
   28.5602   -7.6864   57.8544 C   0  0  0  0  0  0  0  0  0  0  0  0
   27.8730   -6.8692   58.7285 C   0  0  0  0  0  0  0  0  0  0  0  0
   26.4721   -6.7679   58.6577 C   0  0  0  0  0  0  0  0  0  0  0  0
   27.8474   -8.3893   56.8887 C   0  0  0  0  0  0  0  0  0  0  0  0
   26.4662   -8.3039   56.8267 C   0  0  0  0  0  0  0  0  0  0  0  0
   25.7709   -7.4889   57.6938 C   0  0  0  0  0  0  0  0  0  0  0  0
   24.3895   -7.4279   57.6136 O   0  0  0  0  0  0  0  0  0  0  0  0
   23.9101   -6.8761   58.1998 H   0  0  0  0  0  0  0  0  0  0  0  0
   28.6516   -6.2046   59.6314 O   0  0  0  0  0  0  0  0  0  0  0  0
   28.2943   -5.9043   60.9999 C   0  0  0  0  0  0  0  0  0  0  0  0
   33.0191   -7.7979   58.4758 C   0  0  0  0  0  0  0  0  0  0  0  0
   33.3360   -8.9558   59.1705 C   0  0  0  0  0  0  0  0  0  0  0  0
   33.9833   -8.9168   60.3394 N   0  0  0  0  0  0  0  0  0  0  0  0
   34.3432   -7.7462   60.8843 C   0  0  0  0  0  0  0  0  0  0  0  0
   34.0594   -6.5346   60.2179 C   0  0  0  0  0  0  0  0  0  0  0  0
   33.3870   -6.5627   59.0077 C   0  0  0  0  0  0  0  0  0  0  0  0
  1  8  1  0  0  0
  1  2  2  0  0  0
  8  9  1  0  0  0
  8 11  2  0  0  0
  9 16  1  0  0  0
  9 10  2  0  0  0
 16 17  1  0  0  0
 10 13  1  0  0  0
 11 12  1  0  0  0
 12 13  2  0  0  0
 13 14  1  0  0  0
  2  3  1  0  0  0
  2  7  1  0  0  0
  3  4  1  0  0  0
  4  5  1  0  0  0
  5  6  1  0  0  0
  6  7  2  0  0  0
  7 18  1  0  0  0
 18 19  1  0  0  0
 18 23  2  0  0  0
 19 20  2  0  0  0
 20 21  1  0  0  0
 21 22  2  0  0  0
 22 23  1  0  0  0
 14 15  1  0  0  0
M  END
> <minimizedAffinity>
-8.50915

$$$$
2WN9_ZY5_A_301


 23 25  0  0  0  0  0  0  0  0999 V2000
   30.0538   -6.4018   59.8803 C   0  0  0  0  0  0  0  0  0  0  0  0
   29.0962   -6.7760   59.0039 C   0  0  0  0  0  0  0  0  0  0  0  0
   27.6711   -6.2628   59.0562 C   0  0  0  0  0  0  0  0  0  0  0  0
   26.6977   -7.1556   58.3053 C   0  0  0  0  0  0  0  0  0  0  0  0
   27.1873   -7.3835   56.8907 C   0  0  0  0  0  0  0  0  0  0  0  0
   28.5168   -7.9553   57.0650 N   0  0  0  0  0  0  0  0  0  0  0  0
   29.4404   -7.6649   57.8963 C   0  0  0  0  0  0  0  0  0  0  0  0
   29.8273   -5.4478   61.0289 C   0  0  0  0  0  0  0  0  0  0  0  0
   30.3775   -4.1842   60.9593 C   0  0  0  0  0  0  0  0  0  0  0  0
   30.1901   -3.2665   62.0083 C   0  0  0  0  0  0  0  0  0  0  0  0
   29.0662   -5.7902   62.1415 C   0  0  0  0  0  0  0  0  0  0  0  0
   28.8932   -4.8939   63.1835 C   0  0  0  0  0  0  0  0  0  0  0  0
   29.4367   -3.6289   63.1227 C   0  0  0  0  0  0  0  0  0  0  0  0
   29.2534   -2.7557   64.1820 O   0  0  0  0  0  0  0  0  0  0  0  0
   29.6200   -1.8940   64.1477 H   0  0  0  0  0  0  0  0  0  0  0  0
   31.0941   -3.9276   59.8263 O   0  0  0  0  0  0  0  0  0  0  0  0
   31.5230   -2.6237   59.3717 C   0  0  0  0  0  0  0  0  0  0  0  0
   30.8110   -8.2260   57.6238 C   0  0  0  0  0  0  0  0  0  0  0  0
   31.7599   -7.4786   56.9421 C   0  0  0  0  0  0  0  0  0  0  0  0
   32.9989   -7.9370   56.7380 N   0  0  0  0  0  0  0  0  0  0  0  0
   33.3635   -9.1473   57.1843 C   0  0  0  0  0  0  0  0  0  0  0  0
   32.4452   -9.9489   57.8962 C   0  0  0  0  0  0  0  0  0  0  0  0
   31.1582   -9.4853   58.1111 C   0  0  0  0  0  0  0  0  0  0  0  0
  1  8  1  0  0  0
  1  2  2  0  0  0
  8  9  1  0  0  0
  8 11  2  0  0  0
  9 16  1  0  0  0
  9 10  2  0  0  0
 16 17  1  0  0  0
 10 13  1  0  0  0
 11 12  1  0  0  0
 12 13  2  0  0  0
 13 14  1  0  0  0
  2  3  1  0  0  0
  2  7  1  0  0  0
  3  4  1  0  0  0
  4  5  1  0  0  0
  5  6  1  0  0  0
  6  7  2  0  0  0
  7 18  1  0  0  0
 18 19  1  0  0  0
 18 23  2  0  0  0
 19 20  2  0  0  0
 20 21  1  0  0  0
 21 22  2  0  0  0
 22 23  1  0  0  0
 14 15  1  0  0  0
M  END
> <minimizedAffinity>
-8.26821

$$$$
2WN9_ZY5_A_301


 23 25  0  0  0  0  0  0  0  0999 V2000
   30.4941   -6.6074   60.4664 C   0  0  0  0  0  0  0  0  0  0  0  0
   30.3226   -5.5380   61.2739 C   0  0  0  0  0  0  0  0  0  0  0  0
   30.1614   -4.1216   60.7591 C   0  0  0  0  0  0  0  0  0  0  0  0
   30.4598   -3.0744   61.8187 C   0  0  0  0  0  0  0  0  0  0  0  0
   29.6375   -3.3437   63.0613 C   0  0  0  0  0  0  0  0  0  0  0  0
   30.0034   -4.7034   63.4389 N   0  0  0  0  0  0  0  0  0  0  0  0
   30.2120   -5.7351   62.7176 C   0  0  0  0  0  0  0  0  0  0  0  0
   30.5676   -6.5305   58.9600 C   0  0  0  0  0  0  0  0  0  0  0  0
   29.4028   -6.6622   58.2319 C   0  0  0  0  0  0  0  0  0  0  0  0
   29.4290   -6.5970   56.8274 C   0  0  0  0  0  0  0  0  0  0  0  0
   31.7627   -6.3095   58.2837 C   0  0  0  0  0  0  0  0  0  0  0  0
   31.7941   -6.2606   56.8997 C   0  0  0  0  0  0  0  0  0  0  0  0
   30.6360   -6.3889   56.1636 C   0  0  0  0  0  0  0  0  0  0  0  0
   30.6977   -6.3428   54.7807 O   0  0  0  0  0  0  0  0  0  0  0  0
   29.9145   -6.4293   54.2736 H   0  0  0  0  0  0  0  0  0  0  0  0
   28.2756   -6.8595   58.9759 O   0  0  0  0  0  0  0  0  0  0  0  0
   26.9168   -6.8177   58.4833 C   0  0  0  0  0  0  0  0  0  0  0  0
   30.2716   -7.0649   63.4218 C   0  0  0  0  0  0  0  0  0  0  0  0
   31.2577   -7.3251   64.3618 C   0  0  0  0  0  0  0  0  0  0  0  0
   31.2954   -8.4781   65.0372 N   0  0  0  0  0  0  0  0  0  0  0  0
   30.3767   -9.4297   64.8195 C   0  0  0  0  0  0  0  0  0  0  0  0
   29.3410   -9.2173   63.8842 C   0  0  0  0  0  0  0  0  0  0  0  0
   29.2936   -8.0278   63.1769 C   0  0  0  0  0  0  0  0  0  0  0  0
  1  8  1  0  0  0
  1  2  2  0  0  0
  8  9  1  0  0  0
  8 11  2  0  0  0
  9 16  1  0  0  0
  9 10  2  0  0  0
 16 17  1  0  0  0
 10 13  1  0  0  0
 11 12  1  0  0  0
 12 13  2  0  0  0
 13 14  1  0  0  0
  2  3  1  0  0  0
  2  7  1  0  0  0
  3  4  1  0  0  0
  4  5  1  0  0  0
  5  6  1  0  0  0
  6  7  2  0  0  0
  7 18  1  0  0  0
 18 19  1  0  0  0
 18 23  2  0  0  0
 19 20  2  0  0  0
 20 21  1  0  0  0
 21 22  2  0  0  0
 22 23  1  0  0  0
 14 15  1  0  0  0
M  END
> <minimizedAffinity>
-8.22366

$$$$
2WN9_ZY5_A_301


 23 25  0  0  0  0  0  0  0  0999 V2000
   31.9221   -5.2535   60.6339 C   0  0  0  0  0  0  0  0  0  0  0  0
   30.8714   -5.7201   61.3433 C   0  0  0  0  0  0  0  0  0  0  0  0
   29.6062   -4.9209   61.5832 C   0  0  0  0  0  0  0  0  0  0  0  0
   28.8011   -5.4367   62.7640 C   0  0  0  0  0  0  0  0  0  0  0  0
   28.5367   -6.9191   62.6045 C   0  0  0  0  0  0  0  0  0  0  0  0
   29.8665   -7.5036   62.4814 N   0  0  0  0  0  0  0  0  0  0  0  0
   30.8991   -7.0877   61.8575 C   0  0  0  0  0  0  0  0  0  0  0  0
   31.9821   -3.8796   60.0099 C   0  0  0  0  0  0  0  0  0  0  0  0
   31.4667   -3.7044   58.7419 C   0  0  0  0  0  0  0  0  0  0  0  0
   31.5037   -2.4408   58.1257 C   0  0  0  0  0  0  0  0  0  0  0  0
   32.5172   -2.7824   60.6764 C   0  0  0  0  0  0  0  0  0  0  0  0
   32.5695   -1.5400   60.0659 C   0  0  0  0  0  0  0  0  0  0  0  0
   32.0555   -1.3542   58.8007 C   0  0  0  0  0  0  0  0  0  0  0  0
   32.1274   -0.1027   58.2119 O   0  0  0  0  0  0  0  0  0  0  0  0
   31.7800    0.0311   57.3520 H   0  0  0  0  0  0  0  0  0  0  0  0
   30.9470   -4.8290   58.1689 O   0  0  0  0  0  0  0  0  0  0  0  0
   31.2201   -5.3018   56.8301 C   0  0  0  0  0  0  0  0  0  0  0  0
   32.0269   -8.0670   61.6663 C   0  0  0  0  0  0  0  0  0  0  0  0
   31.9624   -9.0375   60.6774 C   0  0  0  0  0  0  0  0  0  0  0  0
   32.9757   -9.8808   60.4559 N   0  0  0  0  0  0  0  0  0  0  0  0
   34.0927   -9.8182   61.1944 C   0  0  0  0  0  0  0  0  0  0  0  0
   34.2219   -8.8433   62.2070 C   0  0  0  0  0  0  0  0  0  0  0  0
   33.1776   -7.9662   62.4471 C   0  0  0  0  0  0  0  0  0  0  0  0
  1  8  1  0  0  0
  1  2  2  0  0  0
  8  9  1  0  0  0
  8 11  2  0  0  0
  9 16  1  0  0  0
  9 10  2  0  0  0
 16 17  1  0  0  0
 10 13  1  0  0  0
 11 12  1  0  0  0
 12 13  2  0  0  0
 13 14  1  0  0  0
  2  3  1  0  0  0
  2  7  1  0  0  0
  3  4  1  0  0  0
  4  5  1  0  0  0
  5  6  1  0  0  0
  6  7  2  0  0  0
  7 18  1  0  0  0
 18 19  1  0  0  0
 18 23  2  0  0  0
 19 20  2  0  0  0
 20 21  1  0  0  0
 21 22  2  0  0  0
 22 23  1  0  0  0
 14 15  1  0  0  0
M  END
> <minimizedAffinity>
-8.16615

$$$$
2WN9_ZY5_A_301


 23 25  0  0  0  0  0  0  0  0999 V2000
   29.0879   -5.6412   60.3032 C   0  0  0  0  0  0  0  0  0  0  0  0
   30.0015   -6.0303   59.3873 C   0  0  0  0  0  0  0  0  0  0  0  0
   31.4881   -5.7721   59.5304 C   0  0  0  0  0  0  0  0  0  0  0  0
   32.2296   -5.8621   58.2073 C   0  0  0  0  0  0  0  0  0  0  0  0
   31.9263   -7.1823   57.5307 C   0  0  0  0  0  0  0  0  0  0  0  0
   30.4737   -7.1909   57.4085 N   0  0  0  0  0  0  0  0  0  0  0  0
   29.5720   -6.8033   58.2240 C   0  0  0  0  0  0  0  0  0  0  0  0
   29.4220   -4.8869   61.5681 C   0  0  0  0  0  0  0  0  0  0  0  0
   29.9029   -5.5916   62.6527 C   0  0  0  0  0  0  0  0  0  0  0  0
   30.2253   -4.9262   63.8490 C   0  0  0  0  0  0  0  0  0  0  0  0
   29.2835   -3.5067   61.6700 C   0  0  0  0  0  0  0  0  0  0  0  0
   29.5852   -2.8506   62.8522 C   0  0  0  0  0  0  0  0  0  0  0  0
   30.0681   -3.5450   63.9402 C   0  0  0  0  0  0  0  0  0  0  0  0
   30.3551   -2.8643   65.1118 O   0  0  0  0  0  0  0  0  0  0  0  0
   30.6837   -3.3298   65.8556 H   0  0  0  0  0  0  0  0  0  0  0  0
   30.0229   -6.9376   62.4601 O   0  0  0  0  0  0  0  0  0  0  0  0
   29.6236   -7.9665   63.3943 C   0  0  0  0  0  0  0  0  0  0  0  0
   28.1561   -7.2267   57.9344 C   0  0  0  0  0  0  0  0  0  0  0  0
   27.0925   -6.6572   58.6187 C   0  0  0  0  0  0  0  0  0  0  0  0
   25.8257   -6.9795   58.3384 N   0  0  0  0  0  0  0  0  0  0  0  0
   25.5425   -7.8763   57.3832 C   0  0  0  0  0  0  0  0  0  0  0  0
   26.5824   -8.4800   56.6439 C   0  0  0  0  0  0  0  0  0  0  0  0
   27.8985   -8.1558   56.9274 C   0  0  0  0  0  0  0  0  0  0  0  0
  1  8  1  0  0  0
  1  2  2  0  0  0
  8  9  1  0  0  0
  8 11  2  0  0  0
  9 16  1  0  0  0
  9 10  2  0  0  0
 16 17  1  0  0  0
 10 13  1  0  0  0
 11 12  1  0  0  0
 12 13  2  0  0  0
 13 14  1  0  0  0
  2  3  1  0  0  0
  2  7  1  0  0  0
  3  4  1  0  0  0
  4  5  1  0  0  0
  5  6  1  0  0  0
  6  7  2  0  0  0
  7 18  1  0  0  0
 18 19  1  0  0  0
 18 23  2  0  0  0
 19 20  2  0  0  0
 20 21  1  0  0  0
 21 22  2  0  0  0
 22 23  1  0  0  0
 14 15  1  0  0  0
M  END
> <minimizedAffinity>
-8.13893

$$$$
2WN9_ZY5_A_301


 23 25  0  0  0  0  0  0  0  0999 V2000
   31.5168   -4.9432   60.0461 C   0  0  0  0  0  0  0  0  0  0  0  0
   30.4561   -5.3588   60.7724 C   0  0  0  0  0  0  0  0  0  0  0  0
   29.6589   -4.4456   61.6821 C   0  0  0  0  0  0  0  0  0  0  0  0
   28.8554   -5.2085   62.7217 C   0  0  0  0  0  0  0  0  0  0  0  0
   27.9977   -6.2585   62.0473 C   0  0  0  0  0  0  0  0  0  0  0  0
   28.9538   -7.0739   61.3083 N   0  0  0  0  0  0  0  0  0  0  0  0
   29.9872   -6.7365   60.6400 C   0  0  0  0  0  0  0  0  0  0  0  0
   32.0552   -3.5324   60.0608 C   0  0  0  0  0  0  0  0  0  0  0  0
   31.7503   -2.6956   59.0067 C   0  0  0  0  0  0  0  0  0  0  0  0
   32.2327   -1.3748   58.9826 C   0  0  0  0  0  0  0  0  0  0  0  0
   32.8271   -3.0414   61.1084 C   0  0  0  0  0  0  0  0  0  0  0  0
   33.3170   -1.7459   61.0799 C   0  0  0  0  0  0  0  0  0  0  0  0
   33.0164   -0.9017   60.0328 C   0  0  0  0  0  0  0  0  0  0  0  0
   33.5252    0.3864   60.0269 O   0  0  0  0  0  0  0  0  0  0  0  0
   33.3252    0.9660   59.3184 H   0  0  0  0  0  0  0  0  0  0  0  0
   30.9751   -3.2535   58.0316 O   0  0  0  0  0  0  0  0  0  0  0  0
   31.4544   -3.8425   56.8011 C   0  0  0  0  0  0  0  0  0  0  0  0
   30.5925   -7.7794   59.7380 C   0  0  0  0  0  0  0  0  0  0  0  0
   31.5123   -8.6938   60.2296 C   0  0  0  0  0  0  0  0  0  0  0  0
   32.0197   -9.6609   59.4588 N   0  0  0  0  0  0  0  0  0  0  0  0
   31.6568   -9.7734   58.1733 C   0  0  0  0  0  0  0  0  0  0  0  0
   30.7147   -8.8799   57.6197 C   0  0  0  0  0  0  0  0  0  0  0  0
   30.1844   -7.8725   58.4081 C   0  0  0  0  0  0  0  0  0  0  0  0
  1  8  1  0  0  0
  1  2  2  0  0  0
  8  9  1  0  0  0
  8 11  2  0  0  0
  9 16  1  0  0  0
  9 10  2  0  0  0
 16 17  1  0  0  0
 10 13  1  0  0  0
 11 12  1  0  0  0
 12 13  2  0  0  0
 13 14  1  0  0  0
  2  3  1  0  0  0
  2  7  1  0  0  0
  3  4  1  0  0  0
  4  5  1  0  0  0
  5  6  1  0  0  0
  6  7  2  0  0  0
  7 18  1  0  0  0
 18 19  1  0  0  0
 18 23  2  0  0  0
 19 20  2  0  0  0
 20 21  1  0  0  0
 21 22  2  0  0  0
 22 23  1  0  0  0
 14 15  1  0  0  0
M  END
> <minimizedAffinity>
-8.02953

$$$$
2WN9_ZY5_A_301


 23 25  0  0  0  0  0  0  0  0999 V2000
   30.0976   -6.3412   61.7538 C   0  0  0  0  0  0  0  0  0  0  0  0
   30.0939   -5.1817   62.4471 C   0  0  0  0  0  0  0  0  0  0  0  0
   29.2882   -3.9660   62.0348 C   0  0  0  0  0  0  0  0  0  0  0  0
   29.7996   -2.6815   62.6650 C   0  0  0  0  0  0  0  0  0  0  0  0
   29.8923   -2.8413   64.1679 C   0  0  0  0  0  0  0  0  0  0  0  0
   30.7706   -3.9909   64.3471 N   0  0  0  0  0  0  0  0  0  0  0  0
   30.8395   -5.0889   63.7004 C   0  0  0  0  0  0  0  0  0  0  0  0
   29.3229   -6.5697   60.4778 C   0  0  0  0  0  0  0  0  0  0  0  0
   30.0123   -6.9397   59.3411 C   0  0  0  0  0  0  0  0  0  0  0  0
   29.3277   -7.1615   58.1329 C   0  0  0  0  0  0  0  0  0  0  0  0
   27.9394   -6.4423   60.4143 C   0  0  0  0  0  0  0  0  0  0  0  0
   27.2640   -6.6446   59.2218 C   0  0  0  0  0  0  0  0  0  0  0  0
   27.9431   -7.0165   58.0817 C   0  0  0  0  0  0  0  0  0  0  0  0
   27.2432   -7.2055   56.9015 O   0  0  0  0  0  0  0  0  0  0  0  0
   27.6981   -7.4584   56.1224 H   0  0  0  0  0  0  0  0  0  0  0  0
   31.3631   -7.0574   59.4972 O   0  0  0  0  0  0  0  0  0  0  0  0
   32.3608   -6.7734   58.4898 C   0  0  0  0  0  0  0  0  0  0  0  0
   31.6421   -6.2020   64.3205 C   0  0  0  0  0  0  0  0  0  0  0  0
   31.5331   -6.4850   65.6740 C   0  0  0  0  0  0  0  0  0  0  0  0
   32.1952   -7.5031   66.2326 N   0  0  0  0  0  0  0  0  0  0  0  0
   32.9976   -8.2846   65.4962 C   0  0  0  0  0  0  0  0  0  0  0  0
   33.1390   -8.0536   64.1109 C   0  0  0  0  0  0  0  0  0  0  0  0
   32.4600   -7.0002   63.5219 C   0  0  0  0  0  0  0  0  0  0  0  0
  1  8  1  0  0  0
  1  2  2  0  0  0
  8  9  1  0  0  0
  8 11  2  0  0  0
  9 16  1  0  0  0
  9 10  2  0  0  0
 16 17  1  0  0  0
 10 13  1  0  0  0
 11 12  1  0  0  0
 12 13  2  0  0  0
 13 14  1  0  0  0
  2  3  1  0  0  0
  2  7  1  0  0  0
  3  4  1  0  0  0
  4  5  1  0  0  0
  5  6  1  0  0  0
  6  7  2  0  0  0
  7 18  1  0  0  0
 18 19  1  0  0  0
 18 23  2  0  0  0
 19 20  2  0  0  0
 20 21  1  0  0  0
 21 22  2  0  0  0
 22 23  1  0  0  0
 14 15  1  0  0  0
M  END
> <minimizedAffinity>
-8.00435

$$$$
