3R1V_AZB_A_128


 19 20  0  0  0  0  0  0  0  0999 V2000
    6.0619   -4.4097   16.1713 N   0  0  0  0  0  0  0  0  0  0  0  0
    7.0945   -5.1835   16.0421 N   0  0  0  0  0  0  0  0  0  0  0  0
   10.8826   -4.4098   20.2101 O   0  0  0  0  0  0  0  0  0  0  0  0
    9.5098   -5.0968   16.8763 C   0  0  0  0  0  0  0  0  0  0  0  0
   10.4507   -4.9027   17.9700 C   0  0  0  0  0  0  0  0  0  0  0  0
   10.0254   -4.5974   19.2181 C   0  0  0  0  0  0  0  0  0  0  0  0
    8.6777   -4.5012   19.3780 C   0  0  0  0  0  0  0  0  0  0  0  0
    7.7224   -4.7054   18.2497 C   0  0  0  0  0  0  0  0  0  0  0  0
    8.1355   -5.0086   17.0088 C   0  0  0  0  0  0  0  0  0  0  0  0
   11.8034   -4.4860   20.0544 H   0  0  0  0  0  0  0  0  0  0  0  0
    3.1528   -5.7744   14.2643 C   0  0  0  0  0  0  0  0  0  0  0  0
    4.3791   -5.7470   14.9783 C   0  0  0  0  0  0  0  0  0  0  0  0
    4.9025   -4.4698   15.4788 C   0  0  0  0  0  0  0  0  0  0  0  0
    4.1776   -3.2484   15.2320 C   0  0  0  0  0  0  0  0  0  0  0  0
    2.8941   -3.2992   14.4867 C   0  0  0  0  0  0  0  0  0  0  0  0
    2.4177   -4.5795   14.0170 C   0  0  0  0  0  0  0  0  0  0  0  0
    0.6801   -3.4556   12.5799 C   0  0  0  0  0  0  0  0  0  0  0  0
    0.1383   -5.4364   14.0936 C   0  0  0  0  0  0  0  0  0  0  0  0
    1.1369   -4.7183   13.2576 C   0  0  0  0  0  0  0  0  0  0  0  0
 17 19  1  0  0  0
  1  2  2  0  0  0
  1 13  1  0  0  0
  3  6  1  0  0  0
  2  9  1  0  0  0
 18 19  1  0  0  0
  4  5  2  0  0  0
  4  9  1  0  0  0
  5  6  1  0  0  0
  6  7  2  0  0  0
  7  8  1  0  0  0
  8  9  2  0  0  0
 11 12  2  0  0  0
 11 16  1  0  0  0
 12 13  1  0  0  0
 13 14  2  0  0  0
 14 15  1  0  0  0
 15 16  2  0  0  0
 16 19  1  0  0  0
  3 10  1  0  0  0
M  END
> <minimizedAffinity>
-8.83282

$$$$
3R1V_AZB_A_128


 19 20  0  0  0  0  0  0  0  0999 V2000
    5.5590   -4.2982   15.5626 N   0  0  0  0  0  0  0  0  0  0  0  0
    4.5531   -3.4805   15.5970 N   0  0  0  0  0  0  0  0  0  0  0  0
    0.0604   -4.8216   12.3816 O   0  0  0  0  0  0  0  0  0  0  0  0
    3.3321   -3.4693   13.3506 C   0  0  0  0  0  0  0  0  0  0  0  0
    2.1609   -3.8196   12.5601 C   0  0  0  0  0  0  0  0  0  0  0  0
    1.1207   -4.4933   13.1042 C   0  0  0  0  0  0  0  0  0  0  0  0
    1.2395   -4.8015   14.4241 C   0  0  0  0  0  0  0  0  0  0  0  0
    2.4440   -4.4344   15.2252 C   0  0  0  0  0  0  0  0  0  0  0  0
    3.4801   -3.7661   14.6937 C   0  0  0  0  0  0  0  0  0  0  0  0
    0.0211   -4.5888   11.4749 H   0  0  0  0  0  0  0  0  0  0  0  0
    8.6831   -5.4324   17.2701 C   0  0  0  0  0  0  0  0  0  0  0  0
    7.5733   -5.4421   16.3853 C   0  0  0  0  0  0  0  0  0  0  0  0
    6.6205   -4.3252   16.3991 C   0  0  0  0  0  0  0  0  0  0  0  0
    6.8071   -3.2310   17.3190 C   0  0  0  0  0  0  0  0  0  0  0  0
    7.9772   -3.2377   18.2335 C   0  0  0  0  0  0  0  0  0  0  0  0
    8.8893   -4.3567   18.1809 C   0  0  0  0  0  0  0  0  0  0  0  0
   10.7991   -5.7682   19.0223 C   0  0  0  0  0  0  0  0  0  0  0  0
    9.7554   -3.9005   20.4120 C   0  0  0  0  0  0  0  0  0  0  0  0
   10.0901   -4.4424   19.0680 C   0  0  0  0  0  0  0  0  0  0  0  0
 17 19  1  0  0  0
  1  2  2  0  0  0
  1 13  1  0  0  0
  3  6  1  0  0  0
  2  9  1  0  0  0
 18 19  1  0  0  0
  4  5  2  0  0  0
  4  9  1  0  0  0
  5  6  1  0  0  0
  6  7  2  0  0  0
  7  8  1  0  0  0
  8  9  2  0  0  0
 11 12  2  0  0  0
 11 16  1  0  0  0
 12 13  1  0  0  0
 13 14  2  0  0  0
 14 15  1  0  0  0
 15 16  2  0  0  0
 16 19  1  0  0  0
  3 10  1  0  0  0
M  END
> <minimizedAffinity>
-8.83148

$$$$
3R1V_AZB_A_128


 19 20  0  0  0  0  0  0  0  0999 V2000
    5.4512   -4.9118   16.1019 N   0  0  0  0  0  0  0  0  0  0  0  0
    5.1105   -4.0267   15.2174 N   0  0  0  0  0  0  0  0  0  0  0  0
   -0.0863   -5.0633   13.1581 O   0  0  0  0  0  0  0  0  0  0  0  0
    3.2569   -3.5902   13.5113 C   0  0  0  0  0  0  0  0  0  0  0  0
    1.9169   -3.8735   13.0179 C   0  0  0  0  0  0  0  0  0  0  0  0
    1.1285   -4.7979   13.6143 C   0  0  0  0  0  0  0  0  0  0  0  0
    1.6631   -5.4221   14.6987 C   0  0  0  0  0  0  0  0  0  0  0  0
    3.0372   -5.1211   15.1972 C   0  0  0  0  0  0  0  0  0  0  0  0
    3.8259   -4.2058   14.6119 C   0  0  0  0  0  0  0  0  0  0  0  0
   -0.4144   -4.6087   12.4073 H   0  0  0  0  0  0  0  0  0  0  0  0
    7.6367   -4.3220   19.0746 C   0  0  0  0  0  0  0  0  0  0  0  0
    6.4779   -4.3180   18.2550 C   0  0  0  0  0  0  0  0  0  0  0  0
    6.5388   -4.8902   16.9043 C   0  0  0  0  0  0  0  0  0  0  0  0
    7.7764   -5.4407   16.4107 C   0  0  0  0  0  0  0  0  0  0  0  0
    8.9763   -5.4392   17.2856 C   0  0  0  0  0  0  0  0  0  0  0  0
    8.8668   -4.8683   18.6081 C   0  0  0  0  0  0  0  0  0  0  0  0
   10.9897   -5.9708   19.3991 C   0  0  0  0  0  0  0  0  0  0  0  0
    9.5403   -4.5283   20.9247 C   0  0  0  0  0  0  0  0  0  0  0  0
   10.0267   -4.8253   19.5510 C   0  0  0  0  0  0  0  0  0  0  0  0
 17 19  1  0  0  0
  1  2  2  0  0  0
  1 13  1  0  0  0
  3  6  1  0  0  0
  2  9  1  0  0  0
 18 19  1  0  0  0
  4  5  2  0  0  0
  4  9  1  0  0  0
  5  6  1  0  0  0
  6  7  2  0  0  0
  7  8  1  0  0  0
  8  9  2  0  0  0
 11 12  2  0  0  0
 11 16  1  0  0  0
 12 13  1  0  0  0
 13 14  2  0  0  0
 14 15  1  0  0  0
 15 16  2  0  0  0
 16 19  1  0  0  0
  3 10  1  0  0  0
M  END
> <minimizedAffinity>
-8.79209

$$$$
3R1V_AZB_A_128


 19 20  0  0  0  0  0  0  0  0999 V2000
    6.7705   -4.5526   16.7028 N   0  0  0  0  0  0  0  0  0  0  0  0
    5.5269   -4.2688   16.9365 N   0  0  0  0  0  0  0  0  0  0  0  0
    2.1136   -4.8351   12.4254 O   0  0  0  0  0  0  0  0  0  0  0  0
    3.9971   -3.2599   15.1535 C   0  0  0  0  0  0  0  0  0  0  0  0
    3.1206   -3.4436   14.0057 C   0  0  0  0  0  0  0  0  0  0  0  0
    2.9022   -4.6701   13.4766 C   0  0  0  0  0  0  0  0  0  0  0  0
    3.5376   -5.7033   14.0929 C   0  0  0  0  0  0  0  0  0  0  0  0
    4.4316   -5.5031   15.2711 C   0  0  0  0  0  0  0  0  0  0  0  0
    4.6538   -4.2903   15.8025 C   0  0  0  0  0  0  0  0  0  0  0  0
    1.6958   -4.0942   12.0323 H   0  0  0  0  0  0  0  0  0  0  0  0
   10.0831   -5.4153   18.2007 C   0  0  0  0  0  0  0  0  0  0  0  0
    9.0699   -5.2508   17.2205 C   0  0  0  0  0  0  0  0  0  0  0  0
    7.7541   -4.7311   17.6128 C   0  0  0  0  0  0  0  0  0  0  0  0
    7.4914   -4.4030   18.9918 C   0  0  0  0  0  0  0  0  0  0  0  0
    8.5664   -4.5782   20.0013 C   0  0  0  0  0  0  0  0  0  0  0  0
    9.8458   -5.0895   19.5671 C   0  0  0  0  0  0  0  0  0  0  0  0
   11.7878   -6.5390   20.2564 C   0  0  0  0  0  0  0  0  0  0  0  0
   10.5071   -5.0803   21.9120 C   0  0  0  0  0  0  0  0  0  0  0  0
   10.9803   -5.2974   20.5188 C   0  0  0  0  0  0  0  0  0  0  0  0
 17 19  1  0  0  0
  1  2  2  0  0  0
  1 13  1  0  0  0
  3  6  1  0  0  0
  2  9  1  0  0  0
 18 19  1  0  0  0
  4  5  2  0  0  0
  4  9  1  0  0  0
  5  6  1  0  0  0
  6  7  2  0  0  0
  7  8  1  0  0  0
  8  9  2  0  0  0
 11 12  2  0  0  0
 11 16  1  0  0  0
 12 13  1  0  0  0
 13 14  2  0  0  0
 14 15  1  0  0  0
 15 16  2  0  0  0
 16 19  1  0  0  0
  3 10  1  0  0  0
M  END
> <minimizedAffinity>
-8.64193

$$$$
3R1V_AZB_A_128


 19 20  0  0  0  0  0  0  0  0999 V2000
    5.6012   -4.4506   16.4984 N   0  0  0  0  0  0  0  0  0  0  0  0
    6.2723   -3.4115   16.8878 N   0  0  0  0  0  0  0  0  0  0  0  0
   11.0410   -4.9074   19.5976 O   0  0  0  0  0  0  0  0  0  0  0  0
    8.1983   -2.8721   18.4805 C   0  0  0  0  0  0  0  0  0  0  0  0
    9.4232   -3.2857   19.1497 C   0  0  0  0  0  0  0  0  0  0  0  0
    9.9327   -4.5280   18.9796 C   0  0  0  0  0  0  0  0  0  0  0  0
    9.2381   -5.3438   18.1410 C   0  0  0  0  0  0  0  0  0  0  0  0
    7.9849   -4.9076   17.4580 C   0  0  0  0  0  0  0  0  0  0  0  0
    7.4726   -3.6773   17.6208 C   0  0  0  0  0  0  0  0  0  0  0  0
   11.4872   -4.3118   20.1670 H   0  0  0  0  0  0  0  0  0  0  0  0
    2.7570   -5.7170   14.4324 C   0  0  0  0  0  0  0  0  0  0  0  0
    3.8961   -5.7346   15.2789 C   0  0  0  0  0  0  0  0  0  0  0  0
    4.5218   -4.4699   15.6850 C   0  0  0  0  0  0  0  0  0  0  0  0
    3.9865   -3.2175   15.2124 C   0  0  0  0  0  0  0  0  0  0  0  0
    2.7913   -3.2207   14.3311 C   0  0  0  0  0  0  0  0  0  0  0  0
    2.2084   -4.4897   13.9613 C   0  0  0  0  0  0  0  0  0  0  0  0
    0.5839   -3.2719   12.4694 C   0  0  0  0  0  0  0  0  0  0  0  0
   -0.0477   -5.3851   13.7516 C   0  0  0  0  0  0  0  0  0  0  0  0
    1.0062   -4.5816   13.0767 C   0  0  0  0  0  0  0  0  0  0  0  0
 17 19  1  0  0  0
  1  2  2  0  0  0
  1 13  1  0  0  0
  3  6  1  0  0  0
  2  9  1  0  0  0
 18 19  1  0  0  0
  4  5  2  0  0  0
  4  9  1  0  0  0
  5  6  1  0  0  0
  6  7  2  0  0  0
  7  8  1  0  0  0
  8  9  2  0  0  0
 11 12  2  0  0  0
 11 16  1  0  0  0
 12 13  1  0  0  0
 13 14  2  0  0  0
 14 15  1  0  0  0
 15 16  2  0  0  0
 16 19  1  0  0  0
  3 10  1  0  0  0
M  END
> <minimizedAffinity>
-8.54178

$$$$
3R1V_AZB_A_128


 19 20  0  0  0  0  0  0  0  0999 V2000
    6.7495   -3.8899   17.7562 N   0  0  0  0  0  0  0  0  0  0  0  0
    7.6368   -4.8225   17.9132 N   0  0  0  0  0  0  0  0  0  0  0  0
   11.1190   -4.7137   22.4058 O   0  0  0  0  0  0  0  0  0  0  0  0
    8.0936   -4.2889   20.3715 C   0  0  0  0  0  0  0  0  0  0  0  0
    9.0159   -4.2661   21.4976 C   0  0  0  0  0  0  0  0  0  0  0  0
   10.2838   -4.7244   21.3779 C   0  0  0  0  0  0  0  0  0  0  0  0
   10.6333   -5.1862   20.1467 C   0  0  0  0  0  0  0  0  0  0  0  0
    9.6799   -5.2018   18.9987 C   0  0  0  0  0  0  0  0  0  0  0  0
    8.4206   -4.7492   19.1085 C   0  0  0  0  0  0  0  0  0  0  0  0
   10.8353   -4.3862   23.2366 H   0  0  0  0  0  0  0  0  0  0  0  0
    3.9550   -2.5888   15.6444 C   0  0  0  0  0  0  0  0  0  0  0  0
    4.9297   -2.6401   16.6749 C   0  0  0  0  0  0  0  0  0  0  0  0
    5.8042   -3.8135   16.7929 C   0  0  0  0  0  0  0  0  0  0  0  0
    5.6612   -4.9136   15.8723 C   0  0  0  0  0  0  0  0  0  0  0  0
    4.6382   -4.8384   14.7984 C   0  0  0  0  0  0  0  0  0  0  0  0
    3.8034   -3.6621   14.7200 C   0  0  0  0  0  0  0  0  0  0  0  0
    1.4660   -4.2328   13.9727 C   0  0  0  0  0  0  0  0  0  0  0  0
    3.3481   -3.7236   12.3274 C   0  0  0  0  0  0  0  0  0  0  0  0
    2.7487   -3.5074   13.6712 C   0  0  0  0  0  0  0  0  0  0  0  0
 17 19  1  0  0  0
  1  2  2  0  0  0
  1 13  1  0  0  0
  3  6  1  0  0  0
  2  9  1  0  0  0
 18 19  1  0  0  0
  4  5  2  0  0  0
  4  9  1  0  0  0
  5  6  1  0  0  0
  6  7  2  0  0  0
  7  8  1  0  0  0
  8  9  2  0  0  0
 11 12  2  0  0  0
 11 16  1  0  0  0
 12 13  1  0  0  0
 13 14  2  0  0  0
 14 15  1  0  0  0
 15 16  2  0  0  0
 16 19  1  0  0  0
  3 10  1  0  0  0
M  END
> <minimizedAffinity>
-8.47562

$$$$
3R1V_AZB_A_128


 19 20  0  0  0  0  0  0  0  0999 V2000
    5.9593   -4.6655   16.0558 N   0  0  0  0  0  0  0  0  0  0  0  0
    4.9728   -3.8240   16.0751 N   0  0  0  0  0  0  0  0  0  0  0  0
    0.7523   -4.2110   12.2858 O   0  0  0  0  0  0  0  0  0  0  0  0
    4.0367   -4.6805   13.8554 C   0  0  0  0  0  0  0  0  0  0  0  0
    2.9381   -4.7492   12.9027 C   0  0  0  0  0  0  0  0  0  0  0  0
    1.7553   -4.1387   13.1478 C   0  0  0  0  0  0  0  0  0  0  0  0
    1.6730   -3.4552   14.3214 C   0  0  0  0  0  0  0  0  0  0  0  0
    2.8072   -3.3892   15.2890 C   0  0  0  0  0  0  0  0  0  0  0  0
    3.9839   -3.9917   15.0540 C   0  0  0  0  0  0  0  0  0  0  0  0
    0.8534   -4.6933   11.4889 H   0  0  0  0  0  0  0  0  0  0  0  0
    7.8091   -4.4703   19.2964 C   0  0  0  0  0  0  0  0  0  0  0  0
    6.7665   -4.2994   18.3487 C   0  0  0  0  0  0  0  0  0  0  0  0
    6.9363   -4.8026   16.9799 C   0  0  0  0  0  0  0  0  0  0  0  0
    8.1644   -5.4551   16.5998 C   0  0  0  0  0  0  0  0  0  0  0  0
    9.2413   -5.6279   17.6076 C   0  0  0  0  0  0  0  0  0  0  0  0
    9.0269   -5.1193   18.9426 C   0  0  0  0  0  0  0  0  0  0  0  0
   10.2842   -3.9954   20.8144 C   0  0  0  0  0  0  0  0  0  0  0  0
   11.2654   -5.9261   19.4661 C   0  0  0  0  0  0  0  0  0  0  0  0
   10.0601   -5.2501   20.0158 C   0  0  0  0  0  0  0  0  0  0  0  0
 17 19  1  0  0  0
  1  2  2  0  0  0
  1 13  1  0  0  0
  3  6  1  0  0  0
  2  9  1  0  0  0
 18 19  1  0  0  0
  4  5  2  0  0  0
  4  9  1  0  0  0
  5  6  1  0  0  0
  6  7  2  0  0  0
  7  8  1  0  0  0
  8  9  2  0  0  0
 11 12  2  0  0  0
 11 16  1  0  0  0
 12 13  1  0  0  0
 13 14  2  0  0  0
 14 15  1  0  0  0
 15 16  2  0  0  0
 16 19  1  0  0  0
  3 10  1  0  0  0
M  END
> <minimizedAffinity>
-8.42359

$$$$
3R1V_AZB_A_128


 19 20  0  0  0  0  0  0  0  0999 V2000
    5.1616   -4.5818   16.3197 N   0  0  0  0  0  0  0  0  0  0  0  0
    4.7789   -5.3577   15.3537 N   0  0  0  0  0  0  0  0  0  0  0  0
    0.2765   -3.6601   12.3261 O   0  0  0  0  0  0  0  0  0  0  0  0
    2.2501   -5.1573   15.0342 C   0  0  0  0  0  0  0  0  0  0  0  0
    1.1207   -4.7180   14.2276 C   0  0  0  0  0  0  0  0  0  0  0  0
    1.3045   -4.0694   13.0540 C   0  0  0  0  0  0  0  0  0  0  0  0
    2.5982   -3.8739   12.6810 C   0  0  0  0  0  0  0  0  0  0  0  0
    3.7482   -4.3315   13.5150 C   0  0  0  0  0  0  0  0  0  0  0  0
    3.5752   -4.9756   14.6802 C   0  0  0  0  0  0  0  0  0  0  0  0
   -0.5988   -3.8163   12.6218 H   0  0  0  0  0  0  0  0  0  0  0  0
    7.7295   -4.0069   18.9725 C   0  0  0  0  0  0  0  0  0  0  0  0
    6.5027   -3.9059   18.2659 C   0  0  0  0  0  0  0  0  0  0  0  0
    6.3208   -4.6476   17.0120 C   0  0  0  0  0  0  0  0  0  0  0  0
    7.3916   -5.4636   16.4963 C   0  0  0  0  0  0  0  0  0  0  0  0
    8.6657   -5.5594   17.2530 C   0  0  0  0  0  0  0  0  0  0  0  0
    8.7966   -4.8140   18.4836 C   0  0  0  0  0  0  0  0  0  0  0  0
    9.8102   -5.0241   20.7805 C   0  0  0  0  0  0  0  0  0  0  0  0
   10.9505   -3.7493   18.8876 C   0  0  0  0  0  0  0  0  0  0  0  0
   10.0458   -4.8535   19.3048 C   0  0  0  0  0  0  0  0  0  0  0  0
 17 19  1  0  0  0
  1  2  2  0  0  0
  1 13  1  0  0  0
  3  6  1  0  0  0
  2  9  1  0  0  0
 18 19  1  0  0  0
  4  5  2  0  0  0
  4  9  1  0  0  0
  5  6  1  0  0  0
  6  7  2  0  0  0
  7  8  1  0  0  0
  8  9  2  0  0  0
 11 12  2  0  0  0
 11 16  1  0  0  0
 12 13  1  0  0  0
 13 14  2  0  0  0
 14 15  1  0  0  0
 15 16  2  0  0  0
 16 19  1  0  0  0
  3 10  1  0  0  0
M  END
> <minimizedAffinity>
-8.19208

$$$$
3R1V_AZB_A_128


 19 20  0  0  0  0  0  0  0  0999 V2000
    8.2416   -4.9854   18.6954 N   0  0  0  0  0  0  0  0  0  0  0  0
    9.1959   -4.2034   19.0946 N   0  0  0  0  0  0  0  0  0  0  0  0
   13.5497   -6.3830   22.0298 O   0  0  0  0  0  0  0  0  0  0  0  0
   10.9885   -5.9955   19.4295 C   0  0  0  0  0  0  0  0  0  0  0  0
   12.0936   -6.5307   20.2116 C   0  0  0  0  0  0  0  0  0  0  0  0
   12.5370   -5.9015   21.3249 C   0  0  0  0  0  0  0  0  0  0  0  0
   11.8777   -4.7605   21.6634 C   0  0  0  0  0  0  0  0  0  0  0  0
   10.7439   -4.2230   20.8552 C   0  0  0  0  0  0  0  0  0  0  0  0
   10.2975   -4.8406   19.7498 C   0  0  0  0  0  0  0  0  0  0  0  0
   13.9750   -7.1729   21.7595 H   0  0  0  0  0  0  0  0  0  0  0  0
    6.0900   -4.3235   15.7130 C   0  0  0  0  0  0  0  0  0  0  0  0
    7.2368   -4.6703   16.4741 C   0  0  0  0  0  0  0  0  0  0  0  0
    7.1712   -4.6508   17.9406 C   0  0  0  0  0  0  0  0  0  0  0  0
    5.9488   -4.2668   18.6016 C   0  0  0  0  0  0  0  0  0  0  0  0
    4.7590   -3.9118   17.7871 C   0  0  0  0  0  0  0  0  0  0  0  0
    4.8707   -3.9490   16.3473 C   0  0  0  0  0  0  0  0  0  0  0  0
    3.7364   -4.3124   14.1272 C   0  0  0  0  0  0  0  0  0  0  0  0
    3.5342   -2.1293   15.4317 C   0  0  0  0  0  0  0  0  0  0  0  0
    3.7218   -3.6045   15.4543 C   0  0  0  0  0  0  0  0  0  0  0  0
 17 19  1  0  0  0
  1  2  2  0  0  0
  1 13  1  0  0  0
  3  6  1  0  0  0
  2  9  1  0  0  0
 18 19  1  0  0  0
  4  5  2  0  0  0
  4  9  1  0  0  0
  5  6  1  0  0  0
  6  7  2  0  0  0
  7  8  1  0  0  0
  8  9  2  0  0  0
 11 12  2  0  0  0
 11 16  1  0  0  0
 12 13  1  0  0  0
 13 14  2  0  0  0
 14 15  1  0  0  0
 15 16  2  0  0  0
 16 19  1  0  0  0
  3 10  1  0  0  0
M  END
> <minimizedAffinity>
-7.45972

$$$$
3R1V_AZB_A_128


 19 20  0  0  0  0  0  0  0  0999 V2000
    5.3180   -4.3047   17.1132 N   0  0  0  0  0  0  0  0  0  0  0  0
    5.8653   -3.2202   17.5671 N   0  0  0  0  0  0  0  0  0  0  0  0
   10.1564   -4.3452   21.1227 O   0  0  0  0  0  0  0  0  0  0  0  0
    7.3282   -2.5963   19.5691 C   0  0  0  0  0  0  0  0  0  0  0  0
    8.4402   -2.9116   20.4542 C   0  0  0  0  0  0  0  0  0  0  0  0
    9.1520   -4.0536   20.3100 C   0  0  0  0  0  0  0  0  0  0  0  0
    8.7700   -4.8651   19.2869 C   0  0  0  0  0  0  0  0  0  0  0  0
    7.6300   -4.5298   18.3839 C   0  0  0  0  0  0  0  0  0  0  0  0
    6.9187   -3.3993   18.5195 C   0  0  0  0  0  0  0  0  0  0  0  0
   10.3851   -3.7565   21.8148 H   0  0  0  0  0  0  0  0  0  0  0  0
    2.5302   -3.4589   14.7733 C   0  0  0  0  0  0  0  0  0  0  0  0
    3.4641   -3.3209   15.8332 C   0  0  0  0  0  0  0  0  0  0  0  0
    4.4090   -4.4079   16.1180 C   0  0  0  0  0  0  0  0  0  0  0  0
    4.3762   -5.6151   15.3306 C   0  0  0  0  0  0  0  0  0  0  0  0
    3.3944   -5.7379   14.2233 C   0  0  0  0  0  0  0  0  0  0  0  0
    2.4872   -4.6406   13.9789 C   0  0  0  0  0  0  0  0  0  0  0  0
    1.1689   -3.3466   12.2656 C   0  0  0  0  0  0  0  0  0  0  0  0
    0.3046   -5.5017   13.3228 C   0  0  0  0  0  0  0  0  0  0  0  0
    1.4675   -4.6840   12.8859 C   0  0  0  0  0  0  0  0  0  0  0  0
 17 19  1  0  0  0
  1  2  2  0  0  0
  1 13  1  0  0  0
  3  6  1  0  0  0
  2  9  1  0  0  0
 18 19  1  0  0  0
  4  5  2  0  0  0
  4  9  1  0  0  0
  5  6  1  0  0  0
  6  7  2  0  0  0
  7  8  1  0  0  0
  8  9  2  0  0  0
 11 12  2  0  0  0
 11 16  1  0  0  0
 12 13  1  0  0  0
 13 14  2  0  0  0
 14 15  1  0  0  0
 15 16  2  0  0  0
 16 19  1  0  0  0
  3 10  1  0  0  0
M  END
> <minimizedAffinity>
-7.26137

$$$$
