4XIR_40X_A_301


 31 34  0  0  0  0  0  0  0  0999 V2000
    4.1945   -8.4879  -23.7498 C   0  0  0  0  0  0  0  0  0  0  0  0
    4.6867   -9.8456  -23.9625 C   0  0  0  0  0  0  0  0  0  0  0  0
    6.0163  -10.1624  -24.0155 C   0  0  0  0  0  0  0  0  0  0  0  0
    6.0820  -11.5789  -24.2994 C   0  0  0  0  0  0  0  0  0  0  0  0
    4.7819  -12.0417  -24.4301 C   0  0  0  0  0  0  0  0  0  0  0  0
    1.7293  -11.8769  -23.7018 C   0  0  0  0  0  0  0  0  0  0  0  0
    0.5042   -9.8711  -25.2421 C   0  0  0  0  0  0  0  0  0  0  0  0
    5.4598  -14.2540  -25.4787 C   0  0  0  0  0  0  0  0  0  0  0  0
    5.5619  -13.8378  -26.9509 C   0  0  0  0  0  0  0  0  0  0  0  0
    5.0998  -15.7334  -25.4044 C   0  0  0  0  0  0  0  0  0  0  0  0
    7.2147   -9.2583  -23.8956 C   0  0  0  0  0  0  0  0  0  0  0  0
    8.3447  -12.2240  -24.4992 O   0  0  0  0  0  0  0  0  0  0  0  0
    7.1616  -12.5587  -24.5107 C   0  0  0  0  0  0  0  0  0  0  0  0
    6.7986  -14.0072  -24.7602 C   0  0  0  0  0  0  0  0  0  0  0  0
    4.3665  -13.4370  -24.7826 C   0  0  0  0  0  0  0  0  0  0  0  0
    3.9362  -10.9789  -24.2197 N   0  0  0  0  0  0  0  0  0  0  0  0
    2.5035  -10.9034  -24.3146 C   0  0  0  0  0  0  0  0  0  0  0  0
    1.8855   -9.9029  -25.0816 C   0  0  0  0  0  0  0  0  0  0  0  0
   -0.2787  -10.8914  -24.6663 C   0  0  0  0  0  0  0  0  0  0  0  0
    0.3623  -11.8846  -23.9064 C   0  0  0  0  0  0  0  0  0  0  0  0
   -0.4901  -13.2423  -23.2599 Cl  0  0  0  0  0  0  0  0  0  0  0  0
    2.6590   -8.9820  -25.7734 O   0  0  0  0  0  0  0  0  0  0  0  0
    3.3861   -8.0143  -24.9549 C   0  0  0  0  0  0  0  0  0  0  0  0
   -2.1640  -10.9474  -26.2092 N   0  0  0  0  0  0  0  0  0  0  0  0
   -1.7550  -10.8660  -24.9504 C   0  0  0  0  0  0  0  0  0  0  0  0
   -2.5530  -10.7936  -24.0214 O   0  0  0  0  0  0  0  0  0  0  0  0
   -3.1265  -10.9324  -26.4160 H   0  0  0  0  0  0  0  0  0  0  0  0
   -1.5053  -11.0228  -26.9369 H   0  0  0  0  0  0  0  0  0  0  0  0
    2.6393   -6.7188  -24.8206 C   0  0  0  0  0  0  0  0  0  0  0  0
    2.0864   -6.5029  -23.4403 C   0  0  0  0  0  0  0  0  0  0  0  0
    0.5571   -6.5146  -23.3877 C   0  0  0  0  0  0  0  0  0  0  0  0
  9  8  1  0  0  0
 26 25  2  0  0  0
 10  8  1  0  0  0
 31 30  1  0  0  0
  8 15  1  0  0  0
  8 14  1  0  0  0
 22 18  1  0  0  0
 22 23  1  0  0  0
  7 18  2  0  0  0
  7 19  1  0  0  0
 25 19  1  0  0  0
 25 24  1  0  0  0
 15  5  1  0  0  0
 18 17  1  0  0  0
 14 13  1  0  0  0
 19 20  2  0  0  0
 23 29  1  0  0  0
 23  1  1  0  0  0
 13 12  2  0  0  0
 13  4  1  0  0  0
  5  4  2  0  0  0
  5 16  1  0  0  0
 30 29  1  0  0  0
 17 16  1  0  0  0
 17  6  2  0  0  0
  4  3  1  0  0  0
 16  2  1  0  0  0
 20  6  1  0  0  0
 20 21  1  0  0  0
  3  2  2  0  0  0
  3 11  1  0  0  0
  2  1  1  0  0  0
 24 27  1  0  0  0
 24 28  1  0  0  0
M  END
> <minimizedAffinity>
-12.15166

$$$$
