1FL3_SPB_L_225


 25 26  0  0  0  0  0  0  0  0999 V2000
   62.4418   -0.4411  -29.5672 C   0  0  0  0  0  0  0  0  0  0  0  0
   62.8189   -1.7628  -29.2309 C   0  0  0  0  0  0  0  0  0  0  0  0
   64.0090   -2.3002  -29.7272 C   0  0  0  0  0  0  0  0  0  0  0  0
   64.8743   -1.5425  -30.5587 C   0  0  0  0  0  0  0  0  0  0  0  0
   64.5016   -0.1995  -30.9061 C   0  0  0  0  0  0  0  0  0  0  0  0
   63.2735    0.3449  -30.4016 C   0  0  0  0  0  0  0  0  0  0  0  0
   66.0793   -2.2277  -30.9745 N   0  0  0  0  0  0  0  0  0  0  0  0
   67.3734   -1.9903  -30.9109 C   0  0  0  0  0  0  0  0  0  0  0  0
   67.9000   -1.1378  -30.2247 O   0  0  0  0  0  0  0  0  0  0  0  0
   65.8827   -3.0858  -31.4152 H   0  0  0  0  0  0  0  0  0  0  0  0
   68.2528   -2.8463  -31.8208 C   0  0  0  0  0  0  0  0  0  0  0  0
   67.5510   -3.5523  -32.9271 C   0  0  0  0  0  0  0  0  0  0  0  0
   67.2226   -4.9579  -32.5453 C   0  0  0  0  0  0  0  0  0  0  0  0
   65.7864   -5.0792  -32.1619 C   0  0  0  0  0  0  0  0  0  0  0  0
   65.6619   -5.1108  -30.7805 O   0  0  0  0  0  0  0  0  0  0  0  0
   64.8809   -5.2139  -32.9638 O   0  0  0  0  0  0  0  0  0  0  0  0
   65.0598   -5.1779  -33.8828 H   0  0  0  0  0  0  0  0  0  0  0  0
   60.6615    1.2819  -29.4630 C   0  0  0  0  0  0  0  0  0  0  0  0
   61.1633    0.1180  -29.0280 C   0  0  0  0  0  0  0  0  0  0  0  0
   59.3578    3.3338  -28.9070 C   0  0  0  0  0  0  0  0  0  0  0  0
   58.1660    3.9620  -28.4697 C   0  0  0  0  0  0  0  0  0  0  0  0
   57.0350    3.1668  -28.1277 C   0  0  0  0  0  0  0  0  0  0  0  0
   57.0988    1.7643  -28.2127 C   0  0  0  0  0  0  0  0  0  0  0  0
   58.2713    1.1386  -28.6437 C   0  0  0  0  0  0  0  0  0  0  0  0
   59.4048    1.9235  -28.9905 C   0  0  0  0  0  0  0  0  0  0  0  0
 20 21  2  0  0  0
 20 25  1  0  0  0
 21 22  1  0  0  0
 22 23  2  0  0  0
 23 24  1  0  0  0
 24 25  2  0  0  0
 25 18  1  0  0  0
 18 19  2  0  0  0
 19  1  1  0  0  0
  1  2  2  0  0  0
  1  6  1  0  0  0
  2  3  1  0  0  0
  3  4  2  0  0  0
  4  5  1  0  0  0
  4  7  1  0  0  0
  5  6  2  0  0  0
  7  8  1  0  0  0
  8 11  1  0  0  0
  8  9  2  0  0  0
 11 12  1  0  0  0
 12 13  1  0  0  0
 13 14  1  0  0  0
 14 15  2  0  0  0
 14 16  1  0  0  0
  7 10  1  0  0  0
 16 17  1  0  0  0
M  END
> <minimizedAffinity>
-11.58498

$$$$
1FL3_SPB_L_225


 25 26  0  0  0  0  0  0  0  0999 V2000
   62.3617   -0.4958  -29.3178 C   0  0  0  0  0  0  0  0  0  0  0  0
   62.1110   -1.8866  -29.3872 C   0  0  0  0  0  0  0  0  0  0  0  0
   63.0757   -2.7474  -29.9165 C   0  0  0  0  0  0  0  0  0  0  0  0
   64.3273   -2.2634  -30.3786 C   0  0  0  0  0  0  0  0  0  0  0  0
   64.5926   -0.8533  -30.3124 C   0  0  0  0  0  0  0  0  0  0  0  0
   63.5949    0.0281  -29.7768 C   0  0  0  0  0  0  0  0  0  0  0  0
   65.2301   -3.2785  -30.8777 N   0  0  0  0  0  0  0  0  0  0  0  0
   65.9597   -4.2393  -30.3490 C   0  0  0  0  0  0  0  0  0  0  0  0
   65.8585   -4.6563  -29.2129 O   0  0  0  0  0  0  0  0  0  0  0  0
   65.3219   -3.2416  -31.8572 H   0  0  0  0  0  0  0  0  0  0  0  0
   67.0430   -4.8263  -31.2522 C   0  0  0  0  0  0  0  0  0  0  0  0
   67.2522   -4.1327  -32.5523 C   0  0  0  0  0  0  0  0  0  0  0  0
   68.4178   -3.2020  -32.4840 C   0  0  0  0  0  0  0  0  0  0  0  0
   69.6012   -3.7859  -33.1791 C   0  0  0  0  0  0  0  0  0  0  0  0
   70.1925   -4.7557  -32.3826 O   0  0  0  0  0  0  0  0  0  0  0  0
   70.0172   -3.3927  -34.2531 O   0  0  0  0  0  0  0  0  0  0  0  0
   69.5492   -2.7308  -34.7229 H   0  0  0  0  0  0  0  0  0  0  0  0
   60.2917    0.8590  -29.4874 C   0  0  0  0  0  0  0  0  0  0  0  0
   61.3169    0.4117  -28.7495 C   0  0  0  0  0  0  0  0  0  0  0  0
   57.9826    1.1918  -28.6062 C   0  0  0  0  0  0  0  0  0  0  0  0
   56.9431    2.0377  -28.1476 C   0  0  0  0  0  0  0  0  0  0  0  0
   57.1484    3.4464  -28.1045 C   0  0  0  0  0  0  0  0  0  0  0  0
   58.3715    4.0009  -28.5228 C   0  0  0  0  0  0  0  0  0  0  0  0
   59.4009    3.1719  -28.9757 C   0  0  0  0  0  0  0  0  0  0  0  0
   59.2071    1.7642  -29.0198 C   0  0  0  0  0  0  0  0  0  0  0  0
 20 21  2  0  0  0
 20 25  1  0  0  0
 21 22  1  0  0  0
 22 23  2  0  0  0
 23 24  1  0  0  0
 24 25  2  0  0  0
 25 18  1  0  0  0
 18 19  2  0  0  0
 19  1  1  0  0  0
  1  2  2  0  0  0
  1  6  1  0  0  0
  2  3  1  0  0  0
  3  4  2  0  0  0
  4  5  1  0  0  0
  4  7  1  0  0  0
  5  6  2  0  0  0
  7  8  1  0  0  0
  8 11  1  0  0  0
  8  9  2  0  0  0
 11 12  1  0  0  0
 12 13  1  0  0  0
 13 14  1  0  0  0
 14 15  2  0  0  0
 14 16  1  0  0  0
  7 10  1  0  0  0
 16 17  1  0  0  0
M  END
> <minimizedAffinity>
-11.37578

$$$$
1FL3_SPB_L_225


 25 26  0  0  0  0  0  0  0  0999 V2000
   62.4161   -0.5815  -29.3828 C   0  0  0  0  0  0  0  0  0  0  0  0
   62.5713   -1.9473  -29.0476 C   0  0  0  0  0  0  0  0  0  0  0  0
   63.6371   -2.6816  -29.5736 C   0  0  0  0  0  0  0  0  0  0  0  0
   64.5946   -2.0851  -30.4347 C   0  0  0  0  0  0  0  0  0  0  0  0
   64.4469   -0.6990  -30.7813 C   0  0  0  0  0  0  0  0  0  0  0  0
   63.3452    0.0487  -30.2462 C   0  0  0  0  0  0  0  0  0  0  0  0
   65.6521   -2.9674  -30.8795 N   0  0  0  0  0  0  0  0  0  0  0  0
   65.7242   -4.1914  -31.3606 C   0  0  0  0  0  0  0  0  0  0  0  0
   64.7855   -4.8424  -31.7728 O   0  0  0  0  0  0  0  0  0  0  0  0
   66.5394   -2.5477  -30.8034 H   0  0  0  0  0  0  0  0  0  0  0  0
   67.1108   -4.8326  -31.3440 C   0  0  0  0  0  0  0  0  0  0  0  0
   68.2611   -3.8985  -31.4819 C   0  0  0  0  0  0  0  0  0  0  0  0
   68.4235   -3.4504  -32.8969 C   0  0  0  0  0  0  0  0  0  0  0  0
   69.7468   -3.8764  -33.4372 C   0  0  0  0  0  0  0  0  0  0  0  0
   70.4138   -4.6584  -32.5054 O   0  0  0  0  0  0  0  0  0  0  0  0
   70.1902   -3.5088  -34.5093 O   0  0  0  0  0  0  0  0  0  0  0  0
   69.6648   -2.9800  -35.0771 H   0  0  0  0  0  0  0  0  0  0  0  0
   60.6559    1.1612  -29.5021 C   0  0  0  0  0  0  0  0  0  0  0  0
   61.2682    0.1894  -28.8118 C   0  0  0  0  0  0  0  0  0  0  0  0
   59.6650    3.3908  -28.9865 C   0  0  0  0  0  0  0  0  0  0  0  0
   58.5836    4.1922  -28.5454 C   0  0  0  0  0  0  0  0  0  0  0  0
   57.3619    3.5735  -28.1542 C   0  0  0  0  0  0  0  0  0  0  0  0
   57.2276    2.1740  -28.1946 C   0  0  0  0  0  0  0  0  0  0  0  0
   58.2904    1.3780  -28.6291 C   0  0  0  0  0  0  0  0  0  0  0  0
   59.5131    1.9860  -29.0248 C   0  0  0  0  0  0  0  0  0  0  0  0
 20 21  2  0  0  0
 20 25  1  0  0  0
 21 22  1  0  0  0
 22 23  2  0  0  0
 23 24  1  0  0  0
 24 25  2  0  0  0
 25 18  1  0  0  0
 18 19  2  0  0  0
 19  1  1  0  0  0
  1  2  2  0  0  0
  1  6  1  0  0  0
  2  3  1  0  0  0
  3  4  2  0  0  0
  4  5  1  0  0  0
  4  7  1  0  0  0
  5  6  2  0  0  0
  7  8  1  0  0  0
  8 11  1  0  0  0
  8  9  2  0  0  0
 11 12  1  0  0  0
 12 13  1  0  0  0
 13 14  1  0  0  0
 14 15  2  0  0  0
 14 16  1  0  0  0
  7 10  1  0  0  0
 16 17  1  0  0  0
M  END
> <minimizedAffinity>
-11.33513

$$$$
1FL3_SPB_L_225


 25 26  0  0  0  0  0  0  0  0999 V2000
   62.6622   -0.5753  -29.3889 C   0  0  0  0  0  0  0  0  0  0  0  0
   63.5953   -0.0913  -30.3360 C   0  0  0  0  0  0  0  0  0  0  0  0
   64.5601   -0.9483  -30.8710 C   0  0  0  0  0  0  0  0  0  0  0  0
   64.6233   -2.3167  -30.5001 C   0  0  0  0  0  0  0  0  0  0  0  0
   63.6806   -2.8190  -29.5397 C   0  0  0  0  0  0  0  0  0  0  0  0
   62.6974   -1.9326  -28.9858 C   0  0  0  0  0  0  0  0  0  0  0  0
   65.6620   -3.0818  -31.1561 N   0  0  0  0  0  0  0  0  0  0  0  0
   65.7408   -4.2523  -31.7550 C   0  0  0  0  0  0  0  0  0  0  0  0
   64.7952   -4.9298  -32.1040 O   0  0  0  0  0  0  0  0  0  0  0  0
   66.5256   -2.6092  -31.1541 H   0  0  0  0  0  0  0  0  0  0  0  0
   67.1523   -4.7941  -31.9745 C   0  0  0  0  0  0  0  0  0  0  0  0
   68.2428   -4.0768  -31.2596 C   0  0  0  0  0  0  0  0  0  0  0  0
   68.9389   -3.1158  -32.1658 C   0  0  0  0  0  0  0  0  0  0  0  0
   69.8283   -3.8392  -33.1198 C   0  0  0  0  0  0  0  0  0  0  0  0
   70.4991   -4.8622  -32.4655 O   0  0  0  0  0  0  0  0  0  0  0  0
   69.9884   -3.5077  -34.2798 O   0  0  0  0  0  0  0  0  0  0  0  0
   69.4882   -2.8013  -34.6385 H   0  0  0  0  0  0  0  0  0  0  0  0
   60.6411    0.8494  -29.5746 C   0  0  0  0  0  0  0  0  0  0  0  0
   61.6367    0.3566  -28.8251 C   0  0  0  0  0  0  0  0  0  0  0  0
   58.3349    1.2416  -28.7104 C   0  0  0  0  0  0  0  0  0  0  0  0
   57.3151    2.1138  -28.2570 C   0  0  0  0  0  0  0  0  0  0  0  0
   57.5580    3.5163  -28.2072 C   0  0  0  0  0  0  0  0  0  0  0  0
   58.7989    4.0388  -28.6140 C   0  0  0  0  0  0  0  0  0  0  0  0
   59.8091    3.1839  -29.0617 C   0  0  0  0  0  0  0  0  0  0  0  0
   59.5777    1.7820  -29.1123 C   0  0  0  0  0  0  0  0  0  0  0  0
 20 21  2  0  0  0
 20 25  1  0  0  0
 21 22  1  0  0  0
 22 23  2  0  0  0
 23 24  1  0  0  0
 24 25  2  0  0  0
 25 18  1  0  0  0
 18 19  2  0  0  0
 19  1  1  0  0  0
  1  2  2  0  0  0
  1  6  1  0  0  0
  2  3  1  0  0  0
  3  4  2  0  0  0
  4  5  1  0  0  0
  4  7  1  0  0  0
  5  6  2  0  0  0
  7  8  1  0  0  0
  8 11  1  0  0  0
  8  9  2  0  0  0
 11 12  1  0  0  0
 12 13  1  0  0  0
 13 14  1  0  0  0
 14 15  2  0  0  0
 14 16  1  0  0  0
  7 10  1  0  0  0
 16 17  1  0  0  0
M  END
> <minimizedAffinity>
-11.32621

$$$$
1FL3_SPB_L_225


 25 26  0  0  0  0  0  0  0  0999 V2000
   65.8170   -2.4659  -30.8549 C   0  0  0  0  0  0  0  0  0  0  0  0
   64.8045   -3.2248  -30.2217 C   0  0  0  0  0  0  0  0  0  0  0  0
   63.6528   -2.5958  -29.7428 C   0  0  0  0  0  0  0  0  0  0  0  0
   63.4562   -1.1980  -29.8896 C   0  0  0  0  0  0  0  0  0  0  0  0
   64.4774   -0.4179  -30.5313 C   0  0  0  0  0  0  0  0  0  0  0  0
   65.6630   -1.0669  -31.0131 C   0  0  0  0  0  0  0  0  0  0  0  0
   62.2045   -0.6969  -29.3634 N   0  0  0  0  0  0  0  0  0  0  0  0
   61.4330    0.3467  -29.5884 C   0  0  0  0  0  0  0  0  0  0  0  0
   61.5178    1.0923  -30.5433 O   0  0  0  0  0  0  0  0  0  0  0  0
   61.8381   -1.2825  -28.6620 H   0  0  0  0  0  0  0  0  0  0  0  0
   60.3834    0.6418  -28.5182 C   0  0  0  0  0  0  0  0  0  0  0  0
   59.1496    1.3282  -28.9890 C   0  0  0  0  0  0  0  0  0  0  0  0
   58.9642    2.6371  -28.2949 C   0  0  0  0  0  0  0  0  0  0  0  0
   59.4829    3.7570  -29.1323 C   0  0  0  0  0  0  0  0  0  0  0  0
   58.4887    4.7036  -29.3327 O   0  0  0  0  0  0  0  0  0  0  0  0
   60.5951    3.7739  -29.6260 O   0  0  0  0  0  0  0  0  0  0  0  0
   61.2040    3.0884  -29.4327 H   0  0  0  0  0  0  0  0  0  0  0  0
   67.3507   -3.1880  -32.6647 C   0  0  0  0  0  0  0  0  0  0  0  0
   67.0446   -3.1555  -31.3605 C   0  0  0  0  0  0  0  0  0  0  0  0
   68.7147   -3.7749  -34.6683 C   0  0  0  0  0  0  0  0  0  0  0  0
   69.8475   -4.3877  -35.2578 C   0  0  0  0  0  0  0  0  0  0  0  0
   70.7937   -5.0606  -34.4329 C   0  0  0  0  0  0  0  0  0  0  0  0
   70.6044   -5.1274  -33.0408 C   0  0  0  0  0  0  0  0  0  0  0  0
   69.4893   -4.5246  -32.4531 C   0  0  0  0  0  0  0  0  0  0  0  0
   68.5405   -3.8478  -33.2674 C   0  0  0  0  0  0  0  0  0  0  0  0
 20 21  2  0  0  0
 20 25  1  0  0  0
 21 22  1  0  0  0
 22 23  2  0  0  0
 23 24  1  0  0  0
 24 25  2  0  0  0
 25 18  1  0  0  0
 18 19  2  0  0  0
 19  1  1  0  0  0
  1  2  2  0  0  0
  1  6  1  0  0  0
  2  3  1  0  0  0
  3  4  2  0  0  0
  4  5  1  0  0  0
  4  7  1  0  0  0
  5  6  2  0  0  0
  7  8  1  0  0  0
  8 11  1  0  0  0
  8  9  2  0  0  0
 11 12  1  0  0  0
 12 13  1  0  0  0
 13 14  1  0  0  0
 14 15  2  0  0  0
 14 16  1  0  0  0
  7 10  1  0  0  0
 16 17  1  0  0  0
M  END
> <minimizedAffinity>
-9.93852

$$$$
1FL3_SPB_L_225


 25 26  0  0  0  0  0  0  0  0999 V2000
   65.4626   -2.2497  -30.8174 C   0  0  0  0  0  0  0  0  0  0  0  0
   65.4044   -0.8698  -31.1251 C   0  0  0  0  0  0  0  0  0  0  0  0
   64.3273   -0.0977  -30.6831 C   0  0  0  0  0  0  0  0  0  0  0  0
   63.2807   -0.6607  -29.9074 C   0  0  0  0  0  0  0  0  0  0  0  0
   63.3299   -2.0605  -29.5887 C   0  0  0  0  0  0  0  0  0  0  0  0
   64.4333   -2.8516  -30.0530 C   0  0  0  0  0  0  0  0  0  0  0  0
   62.2476    0.2696  -29.5054 N   0  0  0  0  0  0  0  0  0  0  0  0
   61.1164    0.7080  -30.0186 C   0  0  0  0  0  0  0  0  0  0  0  0
   60.5301    0.2105  -30.9586 O   0  0  0  0  0  0  0  0  0  0  0  0
   62.4378    0.6767  -28.6294 H   0  0  0  0  0  0  0  0  0  0  0  0
   60.5439    1.9743  -29.3839 C   0  0  0  0  0  0  0  0  0  0  0  0
   59.5607    1.7645  -28.2865 C   0  0  0  0  0  0  0  0  0  0  0  0
   58.4787    2.7924  -28.3300 C   0  0  0  0  0  0  0  0  0  0  0  0
   57.1348    2.1460  -28.3050 C   0  0  0  0  0  0  0  0  0  0  0  0
   57.2663    0.7675  -28.3895 O   0  0  0  0  0  0  0  0  0  0  0  0
   56.0866    2.7642  -28.2960 O   0  0  0  0  0  0  0  0  0  0  0  0
   56.0946    3.6992  -28.2358 H   0  0  0  0  0  0  0  0  0  0  0  0
   67.1584   -2.8773  -32.5143 C   0  0  0  0  0  0  0  0  0  0  0  0
   66.6225   -3.0619  -31.3000 C   0  0  0  0  0  0  0  0  0  0  0  0
   69.1898   -4.2899  -32.2027 C   0  0  0  0  0  0  0  0  0  0  0  0
   70.2807   -5.0223  -32.7317 C   0  0  0  0  0  0  0  0  0  0  0  0
   70.4664   -5.0896  -34.1422 C   0  0  0  0  0  0  0  0  0  0  0  0
   69.5797   -4.4265  -35.0096 C   0  0  0  0  0  0  0  0  0  0  0  0
   68.5014   -3.7028  -34.4941 C   0  0  0  0  0  0  0  0  0  0  0  0
   68.3055   -3.6320  -33.0877 C   0  0  0  0  0  0  0  0  0  0  0  0
 20 21  2  0  0  0
 20 25  1  0  0  0
 21 22  1  0  0  0
 22 23  2  0  0  0
 23 24  1  0  0  0
 24 25  2  0  0  0
 25 18  1  0  0  0
 18 19  2  0  0  0
 19  1  1  0  0  0
  1  2  2  0  0  0
  1  6  1  0  0  0
  2  3  1  0  0  0
  3  4  2  0  0  0
  4  5  1  0  0  0
  4  7  1  0  0  0
  5  6  2  0  0  0
  7  8  1  0  0  0
  8 11  1  0  0  0
  8  9  2  0  0  0
 11 12  1  0  0  0
 12 13  1  0  0  0
 13 14  1  0  0  0
 14 15  2  0  0  0
 14 16  1  0  0  0
  7 10  1  0  0  0
 16 17  1  0  0  0
M  END
> <minimizedAffinity>
-9.57362

$$$$
