5DQ8_FLF_A_501


 22 23  0  0  0  0  0  0  0  0999 V2000
   47.8432   48.2845  -17.5413 N   0  0  0  0  0  0  0  0  0  0  0  0
   48.6646   48.6877  -17.1781 H   0  0  0  0  0  0  0  0  0  0  0  0
   48.1815   49.3033  -19.5569 C   0  0  0  0  0  0  0  0  0  0  0  0
   48.0934   49.3996  -20.9244 C   0  0  0  0  0  0  0  0  0  0  0  0
   47.4438   48.4009  -21.6372 C   0  0  0  0  0  0  0  0  0  0  0  0
   46.8866   47.3136  -20.9859 C   0  0  0  0  0  0  0  0  0  0  0  0
   46.9708   47.2169  -19.6064 C   0  0  0  0  0  0  0  0  0  0  0  0
   47.6428   48.2369  -18.9224 C   0  0  0  0  0  0  0  0  0  0  0  0
   49.9846   50.9285  -19.5838 O   0  0  0  0  0  0  0  0  0  0  0  0
   48.5305   51.0082  -17.9695 O   0  0  0  0  0  0  0  0  0  0  0  0
   48.9468   50.4856  -19.0276 C   0  0  0  0  0  0  0  0  0  0  0  0
   47.7574   50.6774  -17.5561 H   0  0  0  0  0  0  0  0  0  0  0  0
   46.8938   47.7684  -16.6845 C   0  0  0  0  0  0  0  0  0  0  0  0
   45.6811   48.3822  -16.7356 C   0  0  0  0  0  0  0  0  0  0  0  0
   44.6862   47.9247  -15.9136 C   0  0  0  0  0  0  0  0  0  0  0  0
   44.9008   46.8675  -15.0317 C   0  0  0  0  0  0  0  0  0  0  0  0
   46.1428   46.2484  -14.9914 C   0  0  0  0  0  0  0  0  0  0  0  0
   47.1534   46.7101  -15.8290 C   0  0  0  0  0  0  0  0  0  0  0  0
   43.3673   48.6136  -15.9513 C   0  0  0  0  0  0  0  0  0  0  0  0
   42.7088   48.2401  -17.0670 F   0  0  0  0  0  0  0  0  0  0  0  0
   42.5470   48.2846  -14.9417 F   0  0  0  0  0  0  0  0  0  0  0  0
   43.7811   49.8966  -15.9130 F   0  0  0  0  0  0  0  0  0  0  0  0
  3  4  2  0  0  0
  3  8  1  0  0  0
  3 11  1  0  0  0
  9 11  2  0  0  0
  4  5  1  0  0  0
  5  6  2  0  0  0
 10 11  1  0  0  0
  6  7  1  0  0  0
  7  8  2  0  0  0
  8  1  1  0  0  0
  1 13  1  0  0  0
 13 14  2  0  0  0
 13 18  1  0  0  0
 14 15  1  0  0  0
 15 16  2  0  0  0
 15 19  1  0  0  0
 16 17  1  0  0  0
 17 18  2  0  0  0
 19 20  1  0  0  0
 19 21  1  0  0  0
 19 22  1  0  0  0
 10 12  1  0  0  0
  1  2  1  0  0  0
M  END
> <minimizedAffinity>
-9.61465

$$$$
5DQ8_FLF_A_501


 22 23  0  0  0  0  0  0  0  0999 V2000
   46.9472   48.5981  -16.0780 N   0  0  0  0  0  0  0  0  0  0  0  0
   47.5628   48.4167  -15.3314 H   0  0  0  0  0  0  0  0  0  0  0  0
   45.2824   47.1708  -15.4402 C   0  0  0  0  0  0  0  0  0  0  0  0
   43.9755   46.8249  -15.1971 C   0  0  0  0  0  0  0  0  0  0  0  0
   42.9688   47.7481  -15.4460 C   0  0  0  0  0  0  0  0  0  0  0  0
   43.2684   49.0085  -15.9345 C   0  0  0  0  0  0  0  0  0  0  0  0
   44.5856   49.3576  -16.1843 C   0  0  0  0  0  0  0  0  0  0  0  0
   45.5743   48.4050  -15.9109 C   0  0  0  0  0  0  0  0  0  0  0  0
   47.4091   46.0072  -15.3129 O   0  0  0  0  0  0  0  0  0  0  0  0
   45.6335   45.0267  -14.5302 O   0  0  0  0  0  0  0  0  0  0  0  0
   46.1748   46.0176  -15.0698 C   0  0  0  0  0  0  0  0  0  0  0  0
   44.7141   45.0357  -14.3496 H   0  0  0  0  0  0  0  0  0  0  0  0
   47.4433   49.0420  -17.2857 C   0  0  0  0  0  0  0  0  0  0  0  0
   47.2060   48.2174  -18.3410 C   0  0  0  0  0  0  0  0  0  0  0  0
   47.6681   48.5914  -19.5744 C   0  0  0  0  0  0  0  0  0  0  0  0
   48.3775   49.7768  -19.7561 C   0  0  0  0  0  0  0  0  0  0  0  0
   48.6107   50.6104  -18.6706 C   0  0  0  0  0  0  0  0  0  0  0  0
   48.1384   50.2331  -17.4174 C   0  0  0  0  0  0  0  0  0  0  0  0
   47.4307   47.6761  -20.7240 C   0  0  0  0  0  0  0  0  0  0  0  0
   48.5904   47.0700  -21.0493 F   0  0  0  0  0  0  0  0  0  0  0  0
   46.5805   46.6721  -20.4599 F   0  0  0  0  0  0  0  0  0  0  0  0
   46.9560   48.5614  -21.6237 F   0  0  0  0  0  0  0  0  0  0  0  0
  3  4  2  0  0  0
  3  8  1  0  0  0
  3 11  1  0  0  0
  9 11  2  0  0  0
  4  5  1  0  0  0
  5  6  2  0  0  0
 10 11  1  0  0  0
  6  7  1  0  0  0
  7  8  2  0  0  0
  8  1  1  0  0  0
  1 13  1  0  0  0
 13 14  2  0  0  0
 13 18  1  0  0  0
 14 15  1  0  0  0
 15 16  2  0  0  0
 15 19  1  0  0  0
 16 17  1  0  0  0
 17 18  2  0  0  0
 19 20  1  0  0  0
 19 21  1  0  0  0
 19 22  1  0  0  0
 10 12  1  0  0  0
  1  2  1  0  0  0
M  END
> <minimizedAffinity>
-9.45604

$$$$
5DQ8_FLF_A_501


 22 23  0  0  0  0  0  0  0  0999 V2000
   46.8044   48.4077  -16.2686 N   0  0  0  0  0  0  0  0  0  0  0  0
   47.4504   48.5018  -15.5317 H   0  0  0  0  0  0  0  0  0  0  0  0
   45.2211   46.9946  -15.4249 C   0  0  0  0  0  0  0  0  0  0  0  0
   43.9433   46.6430  -15.0637 C   0  0  0  0  0  0  0  0  0  0  0  0
   42.9024   47.5338  -15.2886 C   0  0  0  0  0  0  0  0  0  0  0  0
   43.1390   48.7676  -15.8705 C   0  0  0  0  0  0  0  0  0  0  0  0
   44.4265   49.1221  -16.2392 C   0  0  0  0  0  0  0  0  0  0  0  0
   45.4520   48.2032  -15.9870 C   0  0  0  0  0  0  0  0  0  0  0  0
   47.4045   45.9497  -15.2405 O   0  0  0  0  0  0  0  0  0  0  0  0
   45.6556   44.8378  -14.5835 O   0  0  0  0  0  0  0  0  0  0  0  0
   46.1619   45.8796  -15.0571 C   0  0  0  0  0  0  0  0  0  0  0  0
   44.7300   44.7867  -14.4474 H   0  0  0  0  0  0  0  0  0  0  0  0
   47.2376   48.4783  -17.5759 C   0  0  0  0  0  0  0  0  0  0  0  0
   48.1215   49.4794  -17.8338 C   0  0  0  0  0  0  0  0  0  0  0  0
   48.5976   49.6128  -19.1106 C   0  0  0  0  0  0  0  0  0  0  0  0
   48.1846   48.7608  -20.1330 C   0  0  0  0  0  0  0  0  0  0  0  0
   47.2837   47.7416  -19.8554 C   0  0  0  0  0  0  0  0  0  0  0  0
   46.8021   47.6029  -18.5574 C   0  0  0  0  0  0  0  0  0  0  0  0
   49.5447   50.7245  -19.3978 C   0  0  0  0  0  0  0  0  0  0  0  0
   50.7767   50.3706  -18.9796 F   0  0  0  0  0  0  0  0  0  0  0  0
   49.6904   50.9981  -20.7034 F   0  0  0  0  0  0  0  0  0  0  0  0
   48.9485   51.7147  -18.7031 F   0  0  0  0  0  0  0  0  0  0  0  0
  3  4  2  0  0  0
  3  8  1  0  0  0
  3 11  1  0  0  0
  9 11  2  0  0  0
  4  5  1  0  0  0
  5  6  2  0  0  0
 10 11  1  0  0  0
  6  7  1  0  0  0
  7  8  2  0  0  0
  8  1  1  0  0  0
  1 13  1  0  0  0
 13 14  2  0  0  0
 13 18  1  0  0  0
 14 15  1  0  0  0
 15 16  2  0  0  0
 15 19  1  0  0  0
 16 17  1  0  0  0
 17 18  2  0  0  0
 19 20  1  0  0  0
 19 21  1  0  0  0
 19 22  1  0  0  0
 10 12  1  0  0  0
  1  2  1  0  0  0
M  END
> <minimizedAffinity>
-9.21888

$$$$
5DQ8_FLF_A_501


 22 23  0  0  0  0  0  0  0  0999 V2000
   44.0998   45.4961  -13.7101 N   0  0  0  0  0  0  0  0  0  0  0  0
   44.0117   45.6563  -12.7427 H   0  0  0  0  0  0  0  0  0  0  0  0
   44.2965   43.2810  -13.1907 C   0  0  0  0  0  0  0  0  0  0  0  0
   44.4374   41.9480  -13.4909 C   0  0  0  0  0  0  0  0  0  0  0  0
   44.5630   41.5580  -14.8174 C   0  0  0  0  0  0  0  0  0  0  0  0
   44.5472   42.4956  -15.8361 C   0  0  0  0  0  0  0  0  0  0  0  0
   44.4093   43.8408  -15.5348 C   0  0  0  0  0  0  0  0  0  0  0  0
   44.2742   44.1954  -14.1873 C   0  0  0  0  0  0  0  0  0  0  0  0
   45.1320   43.3541  -10.9127 O   0  0  0  0  0  0  0  0  0  0  0  0
   43.0021   43.6264  -11.2532 O   0  0  0  0  0  0  0  0  0  0  0  0
   44.1554   43.4388  -11.7011 C   0  0  0  0  0  0  0  0  0  0  0  0
   42.2755   43.6892  -11.8415 H   0  0  0  0  0  0  0  0  0  0  0  0
   44.0506   46.5569  -14.5899 C   0  0  0  0  0  0  0  0  0  0  0  0
   45.2582   46.9644  -15.0650 C   0  0  0  0  0  0  0  0  0  0  0  0
   45.2900   48.0133  -15.9445 C   0  0  0  0  0  0  0  0  0  0  0  0
   44.1240   48.6654  -16.3405 C   0  0  0  0  0  0  0  0  0  0  0  0
   42.8978   48.2377  -15.8497 C   0  0  0  0  0  0  0  0  0  0  0  0
   42.8640   47.1695  -14.9586 C   0  0  0  0  0  0  0  0  0  0  0  0
   46.6139   48.4753  -16.4438 C   0  0  0  0  0  0  0  0  0  0  0  0
   46.7302   48.1484  -17.7467 F   0  0  0  0  0  0  0  0  0  0  0  0
   46.7803   49.8063  -16.4073 F   0  0  0  0  0  0  0  0  0  0  0  0
   47.4214   47.8080  -15.5946 F   0  0  0  0  0  0  0  0  0  0  0  0
  3  4  2  0  0  0
  3  8  1  0  0  0
  3 11  1  0  0  0
  9 11  2  0  0  0
  4  5  1  0  0  0
  5  6  2  0  0  0
 10 11  1  0  0  0
  6  7  1  0  0  0
  7  8  2  0  0  0
  8  1  1  0  0  0
  1 13  1  0  0  0
 13 14  2  0  0  0
 13 18  1  0  0  0
 14 15  1  0  0  0
 15 16  2  0  0  0
 15 19  1  0  0  0
 16 17  1  0  0  0
 17 18  2  0  0  0
 19 20  1  0  0  0
 19 21  1  0  0  0
 19 22  1  0  0  0
 10 12  1  0  0  0
  1  2  1  0  0  0
M  END
> <minimizedAffinity>
-9.10620

$$$$
5DQ8_FLF_A_501


 22 23  0  0  0  0  0  0  0  0999 V2000
   45.2360   44.5198  -14.0930 N   0  0  0  0  0  0  0  0  0  0  0  0
   45.3776   44.4849  -13.1194 H   0  0  0  0  0  0  0  0  0  0  0  0
   45.6120   42.3038  -14.4973 C   0  0  0  0  0  0  0  0  0  0  0  0
   45.3364   41.0874  -15.0727 C   0  0  0  0  0  0  0  0  0  0  0  0
   44.2619   40.9741  -15.9447 C   0  0  0  0  0  0  0  0  0  0  0  0
   43.4689   42.0704  -16.2381 C   0  0  0  0  0  0  0  0  0  0  0  0
   43.7480   43.2990  -15.6619 C   0  0  0  0  0  0  0  0  0  0  0  0
   44.8323   43.3726  -14.7794 C   0  0  0  0  0  0  0  0  0  0  0  0
   47.0650   42.9925  -12.6786 O   0  0  0  0  0  0  0  0  0  0  0  0
   47.5508   41.1784  -13.7740 O   0  0  0  0  0  0  0  0  0  0  0  0
   46.7975   42.1592  -13.5823 C   0  0  0  0  0  0  0  0  0  0  0  0
   47.3505   40.5584  -14.4474 H   0  0  0  0  0  0  0  0  0  0  0  0
   45.4369   45.7015  -14.7750 C   0  0  0  0  0  0  0  0  0  0  0  0
   44.3179   46.4508  -14.9657 C   0  0  0  0  0  0  0  0  0  0  0  0
   44.4381   47.6392  -15.6351 C   0  0  0  0  0  0  0  0  0  0  0  0
   45.6668   48.0754  -16.1267 C   0  0  0  0  0  0  0  0  0  0  0  0
   46.8015   47.3018  -15.9230 C   0  0  0  0  0  0  0  0  0  0  0  0
   46.6810   46.0957  -15.2396 C   0  0  0  0  0  0  0  0  0  0  0  0
   43.2089   48.4462  -15.8661 C   0  0  0  0  0  0  0  0  0  0  0  0
   43.5388   49.7535  -15.8828 F   0  0  0  0  0  0  0  0  0  0  0  0
   42.6218   48.2248  -17.0522 F   0  0  0  0  0  0  0  0  0  0  0  0
   42.4697   48.0384  -14.8146 F   0  0  0  0  0  0  0  0  0  0  0  0
  3  4  2  0  0  0
  3  8  1  0  0  0
  3 11  1  0  0  0
  9 11  2  0  0  0
  4  5  1  0  0  0
  5  6  2  0  0  0
 10 11  1  0  0  0
  6  7  1  0  0  0
  7  8  2  0  0  0
  8  1  1  0  0  0
  1 13  1  0  0  0
 13 14  2  0  0  0
 13 18  1  0  0  0
 14 15  1  0  0  0
 15 16  2  0  0  0
 15 19  1  0  0  0
 16 17  1  0  0  0
 17 18  2  0  0  0
 19 20  1  0  0  0
 19 21  1  0  0  0
 19 22  1  0  0  0
 10 12  1  0  0  0
  1  2  1  0  0  0
M  END
> <minimizedAffinity>
-8.83763

$$$$
5DQ8_FLF_A_501


 22 23  0  0  0  0  0  0  0  0999 V2000
   44.0342   45.0165  -13.8896 N   0  0  0  0  0  0  0  0  0  0  0  0
   43.9604   45.0348  -12.9080 H   0  0  0  0  0  0  0  0  0  0  0  0
   45.0768   42.9849  -13.9207 C   0  0  0  0  0  0  0  0  0  0  0  0
   45.3375   41.7362  -14.4302 C   0  0  0  0  0  0  0  0  0  0  0  0
   44.7008   41.3291  -15.5948 C   0  0  0  0  0  0  0  0  0  0  0  0
   43.8093   42.1658  -16.2446 C   0  0  0  0  0  0  0  0  0  0  0  0
   43.5484   43.4271  -15.7345 C   0  0  0  0  0  0  0  0  0  0  0  0
   44.2004   43.7988  -14.5527 C   0  0  0  0  0  0  0  0  0  0  0  0
   45.3429   43.5820  -11.5829 O   0  0  0  0  0  0  0  0  0  0  0  0
   47.0930   42.9429  -12.7034 O   0  0  0  0  0  0  0  0  0  0  0  0
   45.8642   43.1744  -12.6528 C   0  0  0  0  0  0  0  0  0  0  0  0
   47.4801   42.6394  -13.5009 H   0  0  0  0  0  0  0  0  0  0  0  0
   43.9730   46.1935  -14.6056 C   0  0  0  0  0  0  0  0  0  0  0  0
   45.1714   46.6549  -15.0538 C   0  0  0  0  0  0  0  0  0  0  0  0
   45.1911   47.8194  -15.7738 C   0  0  0  0  0  0  0  0  0  0  0  0
   44.0226   48.5317  -16.0359 C   0  0  0  0  0  0  0  0  0  0  0  0
   42.8058   48.0482  -15.5745 C   0  0  0  0  0  0  0  0  0  0  0  0
   42.7842   46.8629  -14.8458 C   0  0  0  0  0  0  0  0  0  0  0  0
   46.5058   48.3373  -16.2417 C   0  0  0  0  0  0  0  0  0  0  0  0
   47.4874   47.5622  -15.7381 F   0  0  0  0  0  0  0  0  0  0  0  0
   46.6747   48.2848  -17.5718 F   0  0  0  0  0  0  0  0  0  0  0  0
   46.4396   49.5937  -15.7563 F   0  0  0  0  0  0  0  0  0  0  0  0
  3  4  2  0  0  0
  3  8  1  0  0  0
  3 11  1  0  0  0
  9 11  2  0  0  0
  4  5  1  0  0  0
  5  6  2  0  0  0
 10 11  1  0  0  0
  6  7  1  0  0  0
  7  8  2  0  0  0
  8  1  1  0  0  0
  1 13  1  0  0  0
 13 14  2  0  0  0
 13 18  1  0  0  0
 14 15  1  0  0  0
 15 16  2  0  0  0
 15 19  1  0  0  0
 16 17  1  0  0  0
 17 18  2  0  0  0
 19 20  1  0  0  0
 19 21  1  0  0  0
 19 22  1  0  0  0
 10 12  1  0  0  0
  1  2  1  0  0  0
M  END
> <minimizedAffinity>
-8.72558

$$$$
5DQ8_FLF_A_501


 22 23  0  0  0  0  0  0  0  0999 V2000
   45.6960   45.6717  -14.6031 N   0  0  0  0  0  0  0  0  0  0  0  0
   46.6654   45.8412  -14.6330 H   0  0  0  0  0  0  0  0  0  0  0  0
   45.4269   47.6658  -15.6830 C   0  0  0  0  0  0  0  0  0  0  0  0
   44.6895   48.7060  -16.1941 C   0  0  0  0  0  0  0  0  0  0  0  0
   43.3107   48.7082  -16.0310 C   0  0  0  0  0  0  0  0  0  0  0  0
   42.6748   47.6767  -15.3614 C   0  0  0  0  0  0  0  0  0  0  0  0
   43.4174   46.6290  -14.8416 C   0  0  0  0  0  0  0  0  0  0  0  0
   44.8036   46.6551  -15.0350 C   0  0  0  0  0  0  0  0  0  0  0  0
   47.7635   47.0162  -15.7896 O   0  0  0  0  0  0  0  0  0  0  0  0
   47.1965   48.9950  -16.4894 O   0  0  0  0  0  0  0  0  0  0  0  0
   46.8791   47.8832  -16.0106 C   0  0  0  0  0  0  0  0  0  0  0  0
   46.5369   49.6399  -16.6535 H   0  0  0  0  0  0  0  0  0  0  0  0
   45.2235   44.4637  -14.1347 C   0  0  0  0  0  0  0  0  0  0  0  0
   45.0860   43.4961  -15.0806 C   0  0  0  0  0  0  0  0  0  0  0  0
   44.6220   42.2682  -14.6912 C   0  0  0  0  0  0  0  0  0  0  0  0
   44.2818   42.0067  -13.3654 C   0  0  0  0  0  0  0  0  0  0  0  0
   44.4292   43.0028  -12.4096 C   0  0  0  0  0  0  0  0  0  0  0  0
   44.9042   44.2499  -12.8037 C   0  0  0  0  0  0  0  0  0  0  0  0
   44.4471   41.2178  -15.7312 C   0  0  0  0  0  0  0  0  0  0  0  0
   45.5234   41.2207  -16.5434 F   0  0  0  0  0  0  0  0  0  0  0  0
   44.3868   39.9686  -15.2451 F   0  0  0  0  0  0  0  0  0  0  0  0
   43.2908   41.6372  -16.2840 F   0  0  0  0  0  0  0  0  0  0  0  0
  3  4  2  0  0  0
  3  8  1  0  0  0
  3 11  1  0  0  0
  9 11  2  0  0  0
  4  5  1  0  0  0
  5  6  2  0  0  0
 10 11  1  0  0  0
  6  7  1  0  0  0
  7  8  2  0  0  0
  8  1  1  0  0  0
  1 13  1  0  0  0
 13 14  2  0  0  0
 13 18  1  0  0  0
 14 15  1  0  0  0
 15 16  2  0  0  0
 15 19  1  0  0  0
 16 17  1  0  0  0
 17 18  2  0  0  0
 19 20  1  0  0  0
 19 21  1  0  0  0
 19 22  1  0  0  0
 10 12  1  0  0  0
  1  2  1  0  0  0
M  END
> <minimizedAffinity>
-8.59963

$$$$
5DQ8_FLF_A_501


 22 23  0  0  0  0  0  0  0  0999 V2000
   47.9189   47.2952  -17.1893 N   0  0  0  0  0  0  0  0  0  0  0  0
   48.5526   46.5559  -17.3345 H   0  0  0  0  0  0  0  0  0  0  0  0
   48.1732   48.4140  -19.1638 C   0  0  0  0  0  0  0  0  0  0  0  0
   48.3499   49.5366  -19.9355 C   0  0  0  0  0  0  0  0  0  0  0  0
   48.4882   50.7726  -19.3183 C   0  0  0  0  0  0  0  0  0  0  0  0
   48.4495   50.8840  -17.9388 C   0  0  0  0  0  0  0  0  0  0  0  0
   48.2755   49.7523  -17.1589 C   0  0  0  0  0  0  0  0  0  0  0  0
   48.1286   48.5251  -17.8164 C   0  0  0  0  0  0  0  0  0  0  0  0
   48.8838   46.9050  -20.9276 O   0  0  0  0  0  0  0  0  0  0  0  0
   46.9786   46.5405  -19.9457 O   0  0  0  0  0  0  0  0  0  0  0  0
   48.0253   47.2163  -20.0623 C   0  0  0  0  0  0  0  0  0  0  0  0
   46.3400   46.7733  -19.3008 H   0  0  0  0  0  0  0  0  0  0  0  0
   46.8268   47.1131  -16.3671 C   0  0  0  0  0  0  0  0  0  0  0  0
   45.7835   47.9526  -16.6052 C   0  0  0  0  0  0  0  0  0  0  0  0
   44.6622   47.8319  -15.8288 C   0  0  0  0  0  0  0  0  0  0  0  0
   44.5836   46.8871  -14.8076 C   0  0  0  0  0  0  0  0  0  0  0  0
   45.6549   46.0348  -14.5768 C   0  0  0  0  0  0  0  0  0  0  0  0
   46.7935   46.1542  -15.3678 C   0  0  0  0  0  0  0  0  0  0  0  0
   43.5310   48.7681  -16.0727 C   0  0  0  0  0  0  0  0  0  0  0  0
   42.8387   48.3484  -17.1509 F   0  0  0  0  0  0  0  0  0  0  0  0
   42.6291   48.8098  -15.0801 F   0  0  0  0  0  0  0  0  0  0  0  0
   44.2183   49.9183  -16.2249 F   0  0  0  0  0  0  0  0  0  0  0  0
  3  4  2  0  0  0
  3  8  1  0  0  0
  3 11  1  0  0  0
  9 11  2  0  0  0
  4  5  1  0  0  0
  5  6  2  0  0  0
 10 11  1  0  0  0
  6  7  1  0  0  0
  7  8  2  0  0  0
  8  1  1  0  0  0
  1 13  1  0  0  0
 13 14  2  0  0  0
 13 18  1  0  0  0
 14 15  1  0  0  0
 15 16  2  0  0  0
 15 19  1  0  0  0
 16 17  1  0  0  0
 17 18  2  0  0  0
 19 20  1  0  0  0
 19 21  1  0  0  0
 19 22  1  0  0  0
 10 12  1  0  0  0
  1  2  1  0  0  0
M  END
> <minimizedAffinity>
-8.58772

$$$$
5DQ8_FLF_A_501


 22 23  0  0  0  0  0  0  0  0999 V2000
   47.2437   48.3429  -16.5113 N   0  0  0  0  0  0  0  0  0  0  0  0
   47.8353   47.7206  -16.0296 H   0  0  0  0  0  0  0  0  0  0  0  0
   47.6774   48.5855  -18.7403 C   0  0  0  0  0  0  0  0  0  0  0  0
   48.1238   49.2666  -19.8465 C   0  0  0  0  0  0  0  0  0  0  0  0
   48.6656   50.5355  -19.6925 C   0  0  0  0  0  0  0  0  0  0  0  0
   48.7596   51.1186  -18.4402 C   0  0  0  0  0  0  0  0  0  0  0  0
   48.3138   50.4313  -17.3229 C   0  0  0  0  0  0  0  0  0  0  0  0
   47.7635   49.1590  -17.5182 C   0  0  0  0  0  0  0  0  0  0  0  0
   47.2531   46.2084  -18.4901 O   0  0  0  0  0  0  0  0  0  0  0  0
   46.5286   47.2166  -20.2749 O   0  0  0  0  0  0  0  0  0  0  0  0
   47.1178   47.2572  -19.1716 C   0  0  0  0  0  0  0  0  0  0  0  0
   46.4285   47.9984  -20.7816 H   0  0  0  0  0  0  0  0  0  0  0  0
   45.9041   48.4060  -16.1898 C   0  0  0  0  0  0  0  0  0  0  0  0
   45.4012   47.2851  -15.6060 C   0  0  0  0  0  0  0  0  0  0  0  0
   44.0771   47.2725  -15.2573 C   0  0  0  0  0  0  0  0  0  0  0  0
   43.2508   48.3676  -15.5015 C   0  0  0  0  0  0  0  0  0  0  0  0
   43.7777   49.5062  -16.0960 C   0  0  0  0  0  0  0  0  0  0  0  0
   45.1240   49.5214  -16.4473 C   0  0  0  0  0  0  0  0  0  0  0  0
   43.5213   46.0362  -14.6423 C   0  0  0  0  0  0  0  0  0  0  0  0
   43.8603   46.0043  -13.3377 F   0  0  0  0  0  0  0  0  0  0  0  0
   42.1810   45.9737  -14.6508 F   0  0  0  0  0  0  0  0  0  0  0  0
   44.1088   45.1097  -15.4265 F   0  0  0  0  0  0  0  0  0  0  0  0
  3  4  2  0  0  0
  3  8  1  0  0  0
  3 11  1  0  0  0
  9 11  2  0  0  0
  4  5  1  0  0  0
  5  6  2  0  0  0
 10 11  1  0  0  0
  6  7  1  0  0  0
  7  8  2  0  0  0
  8  1  1  0  0  0
  1 13  1  0  0  0
 13 14  2  0  0  0
 13 18  1  0  0  0
 14 15  1  0  0  0
 15 16  2  0  0  0
 15 19  1  0  0  0
 16 17  1  0  0  0
 17 18  2  0  0  0
 19 20  1  0  0  0
 19 21  1  0  0  0
 19 22  1  0  0  0
 10 12  1  0  0  0
  1  2  1  0  0  0
M  END
> <minimizedAffinity>
-8.51791

$$$$
5DQ8_FLF_A_501


 22 23  0  0  0  0  0  0  0  0999 V2000
   47.0178   48.1736  -16.6977 N   0  0  0  0  0  0  0  0  0  0  0  0
   47.7478   48.2972  -16.0489 H   0  0  0  0  0  0  0  0  0  0  0  0
   47.9007   49.0321  -18.6210 C   0  0  0  0  0  0  0  0  0  0  0  0
   48.2780   48.9777  -19.9407 C   0  0  0  0  0  0  0  0  0  0  0  0
   48.0432   47.8194  -20.6692 C   0  0  0  0  0  0  0  0  0  0  0  0
   47.4354   46.7234  -20.0808 C   0  0  0  0  0  0  0  0  0  0  0  0
   47.0504   46.7779  -18.7511 C   0  0  0  0  0  0  0  0  0  0  0  0
   47.3132   47.9580  -18.0454 C   0  0  0  0  0  0  0  0  0  0  0  0
   48.4688   50.5618  -16.8237 O   0  0  0  0  0  0  0  0  0  0  0  0
   48.3803   51.3261  -18.8571 O   0  0  0  0  0  0  0  0  0  0  0  0
   48.2835   50.3718  -18.0534 C   0  0  0  0  0  0  0  0  0  0  0  0
   48.2421   51.1833  -19.7728 H   0  0  0  0  0  0  0  0  0  0  0  0
   45.7064   48.2140  -16.2730 C   0  0  0  0  0  0  0  0  0  0  0  0
   45.2702   47.0859  -15.6507 C   0  0  0  0  0  0  0  0  0  0  0  0
   43.9778   47.0509  -15.2001 C   0  0  0  0  0  0  0  0  0  0  0  0
   43.1157   48.1308  -15.3803 C   0  0  0  0  0  0  0  0  0  0  0  0
   43.5746   49.2770  -16.0151 C   0  0  0  0  0  0  0  0  0  0  0  0
   44.8890   49.3150  -16.4702 C   0  0  0  0  0  0  0  0  0  0  0  0
   43.4934   45.8066  -14.5424 C   0  0  0  0  0  0  0  0  0  0  0  0
   43.8861   44.7430  -15.2722 F   0  0  0  0  0  0  0  0  0  0  0  0
   44.0083   45.5947  -13.3216 F   0  0  0  0  0  0  0  0  0  0  0  0
   42.1684   46.0572  -14.5322 F   0  0  0  0  0  0  0  0  0  0  0  0
  3  4  2  0  0  0
  3  8  1  0  0  0
  3 11  1  0  0  0
  9 11  2  0  0  0
  4  5  1  0  0  0
  5  6  2  0  0  0
 10 11  1  0  0  0
  6  7  1  0  0  0
  7  8  2  0  0  0
  8  1  1  0  0  0
  1 13  1  0  0  0
 13 14  2  0  0  0
 13 18  1  0  0  0
 14 15  1  0  0  0
 15 16  2  0  0  0
 15 19  1  0  0  0
 16 17  1  0  0  0
 17 18  2  0  0  0
 19 20  1  0  0  0
 19 21  1  0  0  0
 19 22  1  0  0  0
 10 12  1  0  0  0
  1  2  1  0  0  0
M  END
> <minimizedAffinity>
-8.49794

$$$$
