4MMP_SLB_A_401


 28 28  0  0  0  0  0  0  0  0999 V2000
   16.0104   28.3490   13.4930 C   0  0  0  0  0  0  0  0  0  0  0  0
   15.5767   27.7210   12.1743 C   0  0  0  0  0  0  0  0  0  0  0  0
   15.6841   28.7783   11.0885 C   0  0  0  0  0  0  0  0  0  0  0  0
   17.0985   29.3324   10.9970 C   0  0  0  0  0  0  0  0  0  0  0  0
   17.4318   29.9255   12.4378 C   0  0  0  0  0  0  0  0  0  0  0  0
   15.0767   29.3976   13.9539 O   0  0  0  0  0  0  0  0  0  0  0  0
   15.3269   28.2471    9.8125 O   0  0  0  0  0  0  0  0  0  0  0  0
   17.3262   28.8732   13.4630 O   0  0  0  0  0  0  0  0  0  0  0  0
   14.1749   29.0410   13.9752 H   0  0  0  0  0  0  0  0  0  0  0  0
   15.9431   27.5369    9.5739 H   0  0  0  0  0  0  0  0  0  0  0  0
   18.1042   30.1772    8.9398 C   0  0  0  0  0  0  0  0  0  0  0  0
   18.1881   31.3606    7.9823 C   0  0  0  0  0  0  0  0  0  0  0  0
   17.2773   30.3663    9.9814 N   0  0  0  0  0  0  0  0  0  0  0  0
   18.7395   29.1028    8.8107 O   0  0  0  0  0  0  0  0  0  0  0  0
   16.7844   31.2148   10.0612 H   0  0  0  0  0  0  0  0  0  0  0  0
   16.1266   27.3190   14.5839 C   0  0  0  0  0  0  0  0  0  0  0  0
   17.2645   27.0079   15.0011 O   0  0  0  0  0  0  0  0  0  0  0  0
   15.0822   26.7906   15.0514 O   0  0  0  0  0  0  0  0  0  0  0  0
   14.2420   27.0416   14.7212 H   0  0  0  0  0  0  0  0  0  0  0  0
   18.8417   30.4359   12.6296 C   0  0  0  0  0  0  0  0  0  0  0  0
   19.1162   31.5639   11.7361 O   0  0  0  0  0  0  0  0  0  0  0  0
   19.0659   31.2660   10.8143 H   0  0  0  0  0  0  0  0  0  0  0  0
   19.9287   29.3479   12.4251 C   0  0  0  0  0  0  0  0  0  0  0  0
   19.8626   28.4684   13.5355 O   0  0  0  0  0  0  0  0  0  0  0  0
   20.0616   28.9586   14.3486 H   0  0  0  0  0  0  0  0  0  0  0  0
   21.3427   29.8744   12.2415 C   0  0  0  0  0  0  0  0  0  0  0  0
   21.6099   31.0388   13.1483 O   0  0  0  0  0  0  0  0  0  0  0  0
   20.9937   31.7585   12.9404 H   0  0  0  0  0  0  0  0  0  0  0  0
 16  1  1  0  0  0
 16 17  2  0  0  0
 16 18  1  0  0  0
  1  2  1  0  0  0
  1  6  1  0  0  0
  1  8  1  0  0  0
  2  3  1  0  0  0
  3  4  1  0  0  0
  3  7  1  0  0  0
  4  5  1  0  0  0
  4 13  1  0  0  0
  5 20  1  0  0  0
  5  8  1  0  0  0
 20 23  1  0  0  0
 20 21  1  0  0  0
 23 26  1  0  0  0
 23 24  1  0  0  0
 26 27  1  0  0  0
 11 12  1  0  0  0
 11 13  1  0  0  0
 11 14  2  0  0  0
 13 15  1  0  0  0
 18 19  1  0  0  0
  6  9  1  0  0  0
  7 10  1  0  0  0
 21 22  1  0  0  0
 24 25  1  0  0  0
 27 28  1  0  0  0
M  END
> <minimizedAffinity>
-9.27708

$$$$
4MMP_SLB_A_401


 28 28  0  0  0  0  0  0  0  0999 V2000
   19.9757   30.1499   12.6044 C   0  0  0  0  0  0  0  0  0  0  0  0
   19.5298   28.8945   13.3434 C   0  0  0  0  0  0  0  0  0  0  0  0
   18.0221   28.7721   13.2018 C   0  0  0  0  0  0  0  0  0  0  0  0
   17.6080   28.7270   11.7380 C   0  0  0  0  0  0  0  0  0  0  0  0
   18.1582   30.0720   11.0845 C   0  0  0  0  0  0  0  0  0  0  0  0
   19.4784   31.3874   13.2410 O   0  0  0  0  0  0  0  0  0  0  0  0
   17.5367   27.5918   13.8418 O   0  0  0  0  0  0  0  0  0  0  0  0
   19.6214   30.1535   11.2327 O   0  0  0  0  0  0  0  0  0  0  0  0
   19.7199   31.3872   14.1805 H   0  0  0  0  0  0  0  0  0  0  0  0
   17.9226   26.8108   13.4153 H   0  0  0  0  0  0  0  0  0  0  0  0
   15.5844   27.4317   11.3088 C   0  0  0  0  0  0  0  0  0  0  0  0
   14.0782   27.5017   11.0837 C   0  0  0  0  0  0  0  0  0  0  0  0
   16.1677   28.6229   11.5210 N   0  0  0  0  0  0  0  0  0  0  0  0
   16.2636   26.3765   11.2984 O   0  0  0  0  0  0  0  0  0  0  0  0
   15.6159   29.4382   11.5302 H   0  0  0  0  0  0  0  0  0  0  0  0
   21.4756   30.2402   12.5231 C   0  0  0  0  0  0  0  0  0  0  0  0
   22.0999   29.3570   11.8941 O   0  0  0  0  0  0  0  0  0  0  0  0
   22.0706   31.1962   13.0894 O   0  0  0  0  0  0  0  0  0  0  0  0
   21.5791   31.8446   13.5541 H   0  0  0  0  0  0  0  0  0  0  0  0
   17.9677   30.2041    9.5908 C   0  0  0  0  0  0  0  0  0  0  0  0
   18.5765   29.0747    8.8835 O   0  0  0  0  0  0  0  0  0  0  0  0
   19.5354   29.0808    9.0295 H   0  0  0  0  0  0  0  0  0  0  0  0
   18.5254   31.5298    9.0090 C   0  0  0  0  0  0  0  0  0  0  0  0
   18.2948   32.5455    9.9714 O   0  0  0  0  0  0  0  0  0  0  0  0
   17.3406   32.6450   10.1143 H   0  0  0  0  0  0  0  0  0  0  0  0
   17.9563   31.9320    7.6582 C   0  0  0  0  0  0  0  0  0  0  0  0
   16.8785   30.9855    7.2201 O   0  0  0  0  0  0  0  0  0  0  0  0
   17.2474   30.0924    7.1350 H   0  0  0  0  0  0  0  0  0  0  0  0
 16  1  1  0  0  0
 16 17  2  0  0  0
 16 18  1  0  0  0
  1  2  1  0  0  0
  1  6  1  0  0  0
  1  8  1  0  0  0
  2  3  1  0  0  0
  3  4  1  0  0  0
  3  7  1  0  0  0
  4  5  1  0  0  0
  4 13  1  0  0  0
  5 20  1  0  0  0
  5  8  1  0  0  0
 20 23  1  0  0  0
 20 21  1  0  0  0
 23 26  1  0  0  0
 23 24  1  0  0  0
 26 27  1  0  0  0
 11 12  1  0  0  0
 11 13  1  0  0  0
 11 14  2  0  0  0
 13 15  1  0  0  0
 18 19  1  0  0  0
  6  9  1  0  0  0
  7 10  1  0  0  0
 21 22  1  0  0  0
 24 25  1  0  0  0
 27 28  1  0  0  0
M  END
> <minimizedAffinity>
-9.23726

$$$$
4MMP_SLB_A_401


 28 28  0  0  0  0  0  0  0  0999 V2000
   16.6531   30.3662   13.2195 C   0  0  0  0  0  0  0  0  0  0  0  0
   17.6368   29.7081   14.1788 C   0  0  0  0  0  0  0  0  0  0  0  0
   18.4763   28.7174   13.3901 C   0  0  0  0  0  0  0  0  0  0  0  0
   19.2010   29.4019   12.2403 C   0  0  0  0  0  0  0  0  0  0  0  0
   18.0668   30.0672   11.3404 C   0  0  0  0  0  0  0  0  0  0  0  0
   15.6481   29.4154   12.7000 O   0  0  0  0  0  0  0  0  0  0  0  0
   19.4501   28.0871   14.2224 O   0  0  0  0  0  0  0  0  0  0  0  0
   17.2791   31.0263   12.1336 O   0  0  0  0  0  0  0  0  0  0  0  0
   15.2180   28.9620   13.4419 H   0  0  0  0  0  0  0  0  0  0  0  0
   20.0599   28.7563   14.5705 H   0  0  0  0  0  0  0  0  0  0  0  0
   21.3469   28.6907   11.3202 C   0  0  0  0  0  0  0  0  0  0  0  0
   22.0491   27.6813   10.4188 C   0  0  0  0  0  0  0  0  0  0  0  0
   20.0202   28.5086   11.4258 N   0  0  0  0  0  0  0  0  0  0  0  0
   21.9165   29.6309   11.9253 O   0  0  0  0  0  0  0  0  0  0  0  0
   19.5938   27.7617   10.9468 H   0  0  0  0  0  0  0  0  0  0  0  0
   15.9193   31.5047   13.8751 C   0  0  0  0  0  0  0  0  0  0  0  0
   16.5191   32.1983   14.7265 O   0  0  0  0  0  0  0  0  0  0  0  0
   14.7212   31.7345   13.5582 O   0  0  0  0  0  0  0  0  0  0  0  0
   14.2953   31.1997   12.9175 H   0  0  0  0  0  0  0  0  0  0  0  0
   18.5538   30.9121   10.1855 C   0  0  0  0  0  0  0  0  0  0  0  0
   18.1591   32.3124   10.3583 O   0  0  0  0  0  0  0  0  0  0  0  0
   17.1915   32.3795   10.3456 H   0  0  0  0  0  0  0  0  0  0  0  0
   18.0640   30.4120    8.8009 C   0  0  0  0  0  0  0  0  0  0  0  0
   18.5972   29.1124    8.6065 O   0  0  0  0  0  0  0  0  0  0  0  0
   19.5660   29.1586    8.5962 H   0  0  0  0  0  0  0  0  0  0  0  0
   18.4111   31.3149    7.6285 C   0  0  0  0  0  0  0  0  0  0  0  0
   17.5520   32.5443    7.6178 O   0  0  0  0  0  0  0  0  0  0  0  0
   16.6206   32.2872    7.5315 H   0  0  0  0  0  0  0  0  0  0  0  0
 16  1  1  0  0  0
 16 17  2  0  0  0
 16 18  1  0  0  0
  1  2  1  0  0  0
  1  6  1  0  0  0
  1  8  1  0  0  0
  2  3  1  0  0  0
  3  4  1  0  0  0
  3  7  1  0  0  0
  4  5  1  0  0  0
  4 13  1  0  0  0
  5 20  1  0  0  0
  5  8  1  0  0  0
 20 23  1  0  0  0
 20 21  1  0  0  0
 23 26  1  0  0  0
 23 24  1  0  0  0
 26 27  1  0  0  0
 11 12  1  0  0  0
 11 13  1  0  0  0
 11 14  2  0  0  0
 13 15  1  0  0  0
 18 19  1  0  0  0
  6  9  1  0  0  0
  7 10  1  0  0  0
 21 22  1  0  0  0
 24 25  1  0  0  0
 27 28  1  0  0  0
M  END
> <minimizedAffinity>
-8.73439

$$$$
4MMP_SLB_A_401


 28 28  0  0  0  0  0  0  0  0999 V2000
   18.5210   30.8436   10.5184 C   0  0  0  0  0  0  0  0  0  0  0  0
   19.8496   30.6285   11.2323 C   0  0  0  0  0  0  0  0  0  0  0  0
   19.6019   30.7127   12.7290 C   0  0  0  0  0  0  0  0  0  0  0  0
   18.5648   29.6918   13.1741 C   0  0  0  0  0  0  0  0  0  0  0  0
   17.2477   30.0100   12.3358 C   0  0  0  0  0  0  0  0  0  0  0  0
   18.0001   32.2154   10.6945 O   0  0  0  0  0  0  0  0  0  0  0  0
   20.8030   30.4825   13.4655 O   0  0  0  0  0  0  0  0  0  0  0  0
   17.5218   29.9114   10.8920 O   0  0  0  0  0  0  0  0  0  0  0  0
   18.6827   32.8556   10.4393 H   0  0  0  0  0  0  0  0  0  0  0  0
   21.1262   29.5859   13.2850 H   0  0  0  0  0  0  0  0  0  0  0  0
   18.5303   28.6650   15.3880 C   0  0  0  0  0  0  0  0  0  0  0  0
   18.1384   28.8543   16.8492 C   0  0  0  0  0  0  0  0  0  0  0  0
   18.2630   29.7213   14.6025 N   0  0  0  0  0  0  0  0  0  0  0  0
   19.0529   27.6274   14.9135 O   0  0  0  0  0  0  0  0  0  0  0  0
   17.8574   30.5276   14.9958 H   0  0  0  0  0  0  0  0  0  0  0  0
   18.6373   30.5774    9.0420 C   0  0  0  0  0  0  0  0  0  0  0  0
   19.0226   31.5011    8.2909 O   0  0  0  0  0  0  0  0  0  0  0  0
   18.3433   29.4372    8.5925 O   0  0  0  0  0  0  0  0  0  0  0  0
   18.0573   28.7628    9.1768 H   0  0  0  0  0  0  0  0  0  0  0  0
   16.0993   29.0449   12.5226 C   0  0  0  0  0  0  0  0  0  0  0  0
   15.4634   29.2344   13.8288 O   0  0  0  0  0  0  0  0  0  0  0  0
   16.0997   29.0275   14.5311 H   0  0  0  0  0  0  0  0  0  0  0  0
   16.5079   27.5564   12.3661 C   0  0  0  0  0  0  0  0  0  0  0  0
   16.4465   27.2428   10.9845 O   0  0  0  0  0  0  0  0  0  0  0  0
   15.5357   27.3507   10.6686 H   0  0  0  0  0  0  0  0  0  0  0  0
   15.6816   26.5714   13.1768 C   0  0  0  0  0  0  0  0  0  0  0  0
   16.2837   26.3444   14.5316 O   0  0  0  0  0  0  0  0  0  0  0  0
   17.1752   25.9753   14.4315 H   0  0  0  0  0  0  0  0  0  0  0  0
 16  1  1  0  0  0
 16 17  2  0  0  0
 16 18  1  0  0  0
  1  2  1  0  0  0
  1  6  1  0  0  0
  1  8  1  0  0  0
  2  3  1  0  0  0
  3  4  1  0  0  0
  3  7  1  0  0  0
  4  5  1  0  0  0
  4 13  1  0  0  0
  5 20  1  0  0  0
  5  8  1  0  0  0
 20 23  1  0  0  0
 20 21  1  0  0  0
 23 26  1  0  0  0
 23 24  1  0  0  0
 26 27  1  0  0  0
 11 12  1  0  0  0
 11 13  1  0  0  0
 11 14  2  0  0  0
 13 15  1  0  0  0
 18 19  1  0  0  0
  6  9  1  0  0  0
  7 10  1  0  0  0
 21 22  1  0  0  0
 24 25  1  0  0  0
 27 28  1  0  0  0
M  END
> <minimizedAffinity>
-8.63321

$$$$
4MMP_SLB_A_401


 28 28  0  0  0  0  0  0  0  0999 V2000
   15.8041   28.0352   13.1262 C   0  0  0  0  0  0  0  0  0  0  0  0
   15.1405   27.5328   11.8501 C   0  0  0  0  0  0  0  0  0  0  0  0
   15.2491   28.6243   10.7987 C   0  0  0  0  0  0  0  0  0  0  0  0
   16.7007   29.0086   10.5514 C   0  0  0  0  0  0  0  0  0  0  0  0
   17.2757   29.4820   11.9599 C   0  0  0  0  0  0  0  0  0  0  0  0
   15.0713   29.1631   13.7382 O   0  0  0  0  0  0  0  0  0  0  0  0
   14.6781   28.2065    9.5588 O   0  0  0  0  0  0  0  0  0  0  0  0
   17.1622   28.3984   12.9511 O   0  0  0  0  0  0  0  0  0  0  0  0
   14.1409   28.9166   13.8591 H   0  0  0  0  0  0  0  0  0  0  0  0
   15.1672   27.4408    9.2192 H   0  0  0  0  0  0  0  0  0  0  0  0
   17.9285   30.0449    8.7141 C   0  0  0  0  0  0  0  0  0  0  0  0
   17.9816   31.2292    7.7553 C   0  0  0  0  0  0  0  0  0  0  0  0
   16.8851   30.0647    9.5599 N   0  0  0  0  0  0  0  0  0  0  0  0
   18.7682   29.1132    8.7513 O   0  0  0  0  0  0  0  0  0  0  0  0
   16.2349   30.8023    9.5105 H   0  0  0  0  0  0  0  0  0  0  0  0
   15.9198   26.9437   14.1556 C   0  0  0  0  0  0  0  0  0  0  0  0
   14.9473   26.1768   14.3336 O   0  0  0  0  0  0  0  0  0  0  0  0
   16.9863   26.8257   14.8168 O   0  0  0  0  0  0  0  0  0  0  0  0
   17.6999   27.4134   14.6639 H   0  0  0  0  0  0  0  0  0  0  0  0
   18.7512   29.8088   11.9925 C   0  0  0  0  0  0  0  0  0  0  0  0
   19.5586   28.6068   11.7696 O   0  0  0  0  0  0  0  0  0  0  0  0
   19.4107   27.9790   12.4941 H   0  0  0  0  0  0  0  0  0  0  0  0
   19.2066   30.4914   13.3091 C   0  0  0  0  0  0  0  0  0  0  0  0
   20.3088   31.3266   12.9947 O   0  0  0  0  0  0  0  0  0  0  0  0
   21.0386   30.7849   12.6559 H   0  0  0  0  0  0  0  0  0  0  0  0
   19.5604   29.5403   14.4407 C   0  0  0  0  0  0  0  0  0  0  0  0
   18.3997   29.3488   15.3712 O   0  0  0  0  0  0  0  0  0  0  0  0
   18.1555   30.2018   15.7632 H   0  0  0  0  0  0  0  0  0  0  0  0
 16  1  1  0  0  0
 16 17  2  0  0  0
 16 18  1  0  0  0
  1  2  1  0  0  0
  1  6  1  0  0  0
  1  8  1  0  0  0
  2  3  1  0  0  0
  3  4  1  0  0  0
  3  7  1  0  0  0
  4  5  1  0  0  0
  4 13  1  0  0  0
  5 20  1  0  0  0
  5  8  1  0  0  0
 20 23  1  0  0  0
 20 21  1  0  0  0
 23 26  1  0  0  0
 23 24  1  0  0  0
 26 27  1  0  0  0
 11 12  1  0  0  0
 11 13  1  0  0  0
 11 14  2  0  0  0
 13 15  1  0  0  0
 18 19  1  0  0  0
  6  9  1  0  0  0
  7 10  1  0  0  0
 21 22  1  0  0  0
 24 25  1  0  0  0
 27 28  1  0  0  0
M  END
> <minimizedAffinity>
-8.59565

$$$$
4MMP_SLB_A_401


 28 28  0  0  0  0  0  0  0  0999 V2000
   16.5552   29.9225   13.0587 C   0  0  0  0  0  0  0  0  0  0  0  0
   17.7774   29.6414   13.9239 C   0  0  0  0  0  0  0  0  0  0  0  0
   18.6474   28.6283   13.1994 C   0  0  0  0  0  0  0  0  0  0  0  0
   19.0510   29.1338   11.8218 C   0  0  0  0  0  0  0  0  0  0  0  0
   17.6907   29.4139   11.0410 C   0  0  0  0  0  0  0  0  0  0  0  0
   15.6677   28.7474   12.9350 O   0  0  0  0  0  0  0  0  0  0  0  0
   19.8352   28.3442   13.9387 O   0  0  0  0  0  0  0  0  0  0  0  0
   16.8772   30.4048   11.7662 O   0  0  0  0  0  0  0  0  0  0  0  0
   15.4458   28.4153   13.8190 H   0  0  0  0  0  0  0  0  0  0  0  0
   20.3623   29.1536   14.0273 H   0  0  0  0  0  0  0  0  0  0  0  0
   21.2171   28.3312   11.0339 C   0  0  0  0  0  0  0  0  0  0  0  0
   21.9297   27.2924   10.1751 C   0  0  0  0  0  0  0  0  0  0  0  0
   19.8799   28.2060   11.0573 N   0  0  0  0  0  0  0  0  0  0  0  0
   21.7880   29.2465   11.6749 O   0  0  0  0  0  0  0  0  0  0  0  0
   19.4522   27.4777   10.5513 H   0  0  0  0  0  0  0  0  0  0  0  0
   15.7410   31.0634   13.6063 C   0  0  0  0  0  0  0  0  0  0  0  0
   16.2651   31.8313   14.4437 O   0  0  0  0  0  0  0  0  0  0  0  0
   14.5530   31.2208   13.2155 O   0  0  0  0  0  0  0  0  0  0  0  0
   14.1845   30.6313   12.5873 H   0  0  0  0  0  0  0  0  0  0  0  0
   17.8339   30.0393    9.6723 C   0  0  0  0  0  0  0  0  0  0  0  0
   18.4252   29.0925    8.7234 O   0  0  0  0  0  0  0  0  0  0  0  0
   19.3253   28.8694    9.0078 H   0  0  0  0  0  0  0  0  0  0  0  0
   18.6671   31.3480    9.6722 C   0  0  0  0  0  0  0  0  0  0  0  0
   18.1208   32.1987   10.6666 O   0  0  0  0  0  0  0  0  0  0  0  0
   17.2027   32.4139   10.4392 H   0  0  0  0  0  0  0  0  0  0  0  0
   18.7418   32.0658    8.3345 C   0  0  0  0  0  0  0  0  0  0  0  0
   17.5523   31.7443    7.4793 O   0  0  0  0  0  0  0  0  0  0  0  0
   17.5274   30.7903    7.3055 H   0  0  0  0  0  0  0  0  0  0  0  0
 16  1  1  0  0  0
 16 17  2  0  0  0
 16 18  1  0  0  0
  1  2  1  0  0  0
  1  6  1  0  0  0
  1  8  1  0  0  0
  2  3  1  0  0  0
  3  4  1  0  0  0
  3  7  1  0  0  0
  4  5  1  0  0  0
  4 13  1  0  0  0
  5 20  1  0  0  0
  5  8  1  0  0  0
 20 23  1  0  0  0
 20 21  1  0  0  0
 23 26  1  0  0  0
 23 24  1  0  0  0
 26 27  1  0  0  0
 11 12  1  0  0  0
 11 13  1  0  0  0
 11 14  2  0  0  0
 13 15  1  0  0  0
 18 19  1  0  0  0
  6  9  1  0  0  0
  7 10  1  0  0  0
 21 22  1  0  0  0
 24 25  1  0  0  0
 27 28  1  0  0  0
M  END
> <minimizedAffinity>
-8.44886

$$$$
4MMP_SLB_A_401


 28 28  0  0  0  0  0  0  0  0999 V2000
   18.2841   30.0949   13.9285 C   0  0  0  0  0  0  0  0  0  0  0  0
   19.6057   30.7344   13.5218 C   0  0  0  0  0  0  0  0  0  0  0  0
   20.4949   29.6513   12.9347 C   0  0  0  0  0  0  0  0  0  0  0  0
   19.8243   28.9697   11.7507 C   0  0  0  0  0  0  0  0  0  0  0  0
   18.4532   28.3764   12.3045 C   0  0  0  0  0  0  0  0  0  0  0  0
   18.4373   29.1441   15.0494 O   0  0  0  0  0  0  0  0  0  0  0  0
   21.7426   30.1884   12.4955 O   0  0  0  0  0  0  0  0  0  0  0  0
   17.6142   29.4532   12.8578 O   0  0  0  0  0  0  0  0  0  0  0  0
   18.8959   29.5813   15.7839 H   0  0  0  0  0  0  0  0  0  0  0  0
   21.5857   30.8352   11.7899 H   0  0  0  0  0  0  0  0  0  0  0  0
   20.7851   27.8460    9.8088 C   0  0  0  0  0  0  0  0  0  0  0  0
   21.6224   26.6633    9.3348 C   0  0  0  0  0  0  0  0  0  0  0  0
   20.6150   27.9048   11.1400 N   0  0  0  0  0  0  0  0  0  0  0  0
   20.2729   28.7102    9.0569 O   0  0  0  0  0  0  0  0  0  0  0  0
   21.0297   27.2196   11.7125 H   0  0  0  0  0  0  0  0  0  0  0  0
   17.2705   31.1306   14.3339 C   0  0  0  0  0  0  0  0  0  0  0  0
   17.0443   31.3093   15.5515 O   0  0  0  0  0  0  0  0  0  0  0  0
   16.6702   31.7920   13.4445 O   0  0  0  0  0  0  0  0  0  0  0  0
   16.8582   31.6385   12.5395 H   0  0  0  0  0  0  0  0  0  0  0  0
   17.5456   27.7441   11.2743 C   0  0  0  0  0  0  0  0  0  0  0  0
   17.4105   28.6053   10.0968 O   0  0  0  0  0  0  0  0  0  0  0  0
   16.9818   29.4372   10.3521 H   0  0  0  0  0  0  0  0  0  0  0  0
   16.1340   27.4003   11.8184 C   0  0  0  0  0  0  0  0  0  0  0  0
   15.8891   26.0338   11.5290 O   0  0  0  0  0  0  0  0  0  0  0  0
   15.8935   25.9010   10.5681 H   0  0  0  0  0  0  0  0  0  0  0  0
   15.0073   28.2712   11.2870 C   0  0  0  0  0  0  0  0  0  0  0  0
   15.0006   29.6153   11.9525 O   0  0  0  0  0  0  0  0  0  0  0  0
   14.8668   29.5030   12.9066 H   0  0  0  0  0  0  0  0  0  0  0  0
 16  1  1  0  0  0
 16 17  2  0  0  0
 16 18  1  0  0  0
  1  2  1  0  0  0
  1  6  1  0  0  0
  1  8  1  0  0  0
  2  3  1  0  0  0
  3  4  1  0  0  0
  3  7  1  0  0  0
  4  5  1  0  0  0
  4 13  1  0  0  0
  5 20  1  0  0  0
  5  8  1  0  0  0
 20 23  1  0  0  0
 20 21  1  0  0  0
 23 26  1  0  0  0
 23 24  1  0  0  0
 26 27  1  0  0  0
 11 12  1  0  0  0
 11 13  1  0  0  0
 11 14  2  0  0  0
 13 15  1  0  0  0
 18 19  1  0  0  0
  6  9  1  0  0  0
  7 10  1  0  0  0
 21 22  1  0  0  0
 24 25  1  0  0  0
 27 28  1  0  0  0
M  END
> <minimizedAffinity>
-8.30059

$$$$
4MMP_SLB_A_401


 28 28  0  0  0  0  0  0  0  0999 V2000
   16.6955   28.6202   11.4669 C   0  0  0  0  0  0  0  0  0  0  0  0
   15.5866   28.9414   12.4610 C   0  0  0  0  0  0  0  0  0  0  0  0
   15.9423   28.2987   13.7910 C   0  0  0  0  0  0  0  0  0  0  0  0
   17.2931   28.7861   14.2947 C   0  0  0  0  0  0  0  0  0  0  0  0
   18.3454   28.4165   13.1568 C   0  0  0  0  0  0  0  0  0  0  0  0
   16.7592   27.1812   11.1365 O   0  0  0  0  0  0  0  0  0  0  0  0
   14.9605   28.5909   14.7854 O   0  0  0  0  0  0  0  0  0  0  0  0
   17.9747   29.0620   11.8857 O   0  0  0  0  0  0  0  0  0  0  0  0
   15.8843   26.8763   10.8494 H   0  0  0  0  0  0  0  0  0  0  0  0
   14.9286   29.5485   14.9366 H   0  0  0  0  0  0  0  0  0  0  0  0
   17.9040   28.9684   16.6506 C   0  0  0  0  0  0  0  0  0  0  0  0
   18.3541   28.2022   17.8896 C   0  0  0  0  0  0  0  0  0  0  0  0
   17.7106   28.2005   15.5656 N   0  0  0  0  0  0  0  0  0  0  0  0
   17.7241   30.2093   16.6000 O   0  0  0  0  0  0  0  0  0  0  0  0
   17.8524   27.2283   15.6282 H   0  0  0  0  0  0  0  0  0  0  0  0
   16.5243   29.3842   10.1819 C   0  0  0  0  0  0  0  0  0  0  0  0
   15.4963   29.1885    9.4960 O   0  0  0  0  0  0  0  0  0  0  0  0
   17.4157   30.1994    9.8218 O   0  0  0  0  0  0  0  0  0  0  0  0
   18.1762   30.3273   10.3541 H   0  0  0  0  0  0  0  0  0  0  0  0
   19.7569   28.9091   13.3803 C   0  0  0  0  0  0  0  0  0  0  0  0
   19.7706   30.0721   14.2711 O   0  0  0  0  0  0  0  0  0  0  0  0
   19.2974   30.8071   13.8506 H   0  0  0  0  0  0  0  0  0  0  0  0
   20.5054   29.2636   12.0684 C   0  0  0  0  0  0  0  0  0  0  0  0
   20.5255   28.0966   11.2630 O   0  0  0  0  0  0  0  0  0  0  0  0
   21.0150   27.3958   11.7214 H   0  0  0  0  0  0  0  0  0  0  0  0
   21.9112   29.8108   12.2547 C   0  0  0  0  0  0  0  0  0  0  0  0
   21.8845   31.1706   12.8871 O   0  0  0  0  0  0  0  0  0  0  0  0
   21.3986   31.7841   12.3141 H   0  0  0  0  0  0  0  0  0  0  0  0
 16  1  1  0  0  0
 16 17  2  0  0  0
 16 18  1  0  0  0
  1  2  1  0  0  0
  1  6  1  0  0  0
  1  8  1  0  0  0
  2  3  1  0  0  0
  3  4  1  0  0  0
  3  7  1  0  0  0
  4  5  1  0  0  0
  4 13  1  0  0  0
  5 20  1  0  0  0
  5  8  1  0  0  0
 20 23  1  0  0  0
 20 21  1  0  0  0
 23 26  1  0  0  0
 23 24  1  0  0  0
 26 27  1  0  0  0
 11 12  1  0  0  0
 11 13  1  0  0  0
 11 14  2  0  0  0
 13 15  1  0  0  0
 18 19  1  0  0  0
  6  9  1  0  0  0
  7 10  1  0  0  0
 21 22  1  0  0  0
 24 25  1  0  0  0
 27 28  1  0  0  0
M  END
> <minimizedAffinity>
-8.17721

$$$$
4MMP_SLB_A_401


 28 28  0  0  0  0  0  0  0  0999 V2000
   18.2286   29.4417   14.9048 C   0  0  0  0  0  0  0  0  0  0  0  0
   19.2333   30.4836   14.4290 C   0  0  0  0  0  0  0  0  0  0  0  0
   19.4899   30.2527   12.9494 C   0  0  0  0  0  0  0  0  0  0  0  0
   18.1982   30.3256   12.1482 C   0  0  0  0  0  0  0  0  0  0  0  0
   17.2363   29.2147   12.7640 C   0  0  0  0  0  0  0  0  0  0  0  0
   18.7776   28.0700   14.8706 O   0  0  0  0  0  0  0  0  0  0  0  0
   20.3984   31.2211   12.4250 O   0  0  0  0  0  0  0  0  0  0  0  0
   17.0030   29.4738   14.1951 O   0  0  0  0  0  0  0  0  0  0  0  0
   19.6171   28.0456   15.3560 H   0  0  0  0  0  0  0  0  0  0  0  0
   20.0104   32.1063   12.5073 H   0  0  0  0  0  0  0  0  0  0  0  0
   18.4340   31.1302    9.8560 C   0  0  0  0  0  0  0  0  0  0  0  0
   18.5891   30.7202    8.3957 C   0  0  0  0  0  0  0  0  0  0  0  0
   18.3631   30.0998   10.7149 N   0  0  0  0  0  0  0  0  0  0  0  0
   18.3665   32.3142   10.2660 O   0  0  0  0  0  0  0  0  0  0  0  0
   18.4233   29.1786   10.3730 H   0  0  0  0  0  0  0  0  0  0  0  0
   17.7654   29.7213   16.3089 C   0  0  0  0  0  0  0  0  0  0  0  0
   17.1065   30.7616   16.5309 O   0  0  0  0  0  0  0  0  0  0  0  0
   18.0507   28.9088   17.2292 O   0  0  0  0  0  0  0  0  0  0  0  0
   18.5456   28.1369   17.0360 H   0  0  0  0  0  0  0  0  0  0  0  0
   15.8340   29.1725   12.2011 C   0  0  0  0  0  0  0  0  0  0  0  0
   14.8484   29.5326   13.2236 O   0  0  0  0  0  0  0  0  0  0  0  0
   14.8672   28.8751   13.9365 H   0  0  0  0  0  0  0  0  0  0  0  0
   15.4527   27.7996   11.5873 C   0  0  0  0  0  0  0  0  0  0  0  0
   16.6062   27.2901   10.9387 O   0  0  0  0  0  0  0  0  0  0  0  0
   16.8661   27.8903   10.2223 H   0  0  0  0  0  0  0  0  0  0  0  0
   14.2688   27.8247   10.6344 C   0  0  0  0  0  0  0  0  0  0  0  0
   14.6026   28.5663    9.3742 O   0  0  0  0  0  0  0  0  0  0  0  0
   14.8319   29.4838    9.5900 H   0  0  0  0  0  0  0  0  0  0  0  0
 16  1  1  0  0  0
 16 17  2  0  0  0
 16 18  1  0  0  0
  1  2  1  0  0  0
  1  6  1  0  0  0
  1  8  1  0  0  0
  2  3  1  0  0  0
  3  4  1  0  0  0
  3  7  1  0  0  0
  4  5  1  0  0  0
  4 13  1  0  0  0
  5 20  1  0  0  0
  5  8  1  0  0  0
 20 23  1  0  0  0
 20 21  1  0  0  0
 23 26  1  0  0  0
 23 24  1  0  0  0
 26 27  1  0  0  0
 11 12  1  0  0  0
 11 13  1  0  0  0
 11 14  2  0  0  0
 13 15  1  0  0  0
 18 19  1  0  0  0
  6  9  1  0  0  0
  7 10  1  0  0  0
 21 22  1  0  0  0
 24 25  1  0  0  0
 27 28  1  0  0  0
M  END
> <minimizedAffinity>
-8.17312

$$$$
4MMP_SLB_A_401


 28 28  0  0  0  0  0  0  0  0999 V2000
   16.0230   27.0758   12.8434 C   0  0  0  0  0  0  0  0  0  0  0  0
   16.6791   27.1212   11.4692 C   0  0  0  0  0  0  0  0  0  0  0  0
   17.4941   28.4000   11.3757 C   0  0  0  0  0  0  0  0  0  0  0  0
   18.5326   28.4739   12.4858 C   0  0  0  0  0  0  0  0  0  0  0  0
   17.7202   28.3867   13.8536 C   0  0  0  0  0  0  0  0  0  0  0  0
   15.0064   28.1338   13.0197 O   0  0  0  0  0  0  0  0  0  0  0  0
   18.1705   28.4917   10.1218 O   0  0  0  0  0  0  0  0  0  0  0  0
   16.9493   27.1329   13.9137 O   0  0  0  0  0  0  0  0  0  0  0  0
   14.3708   28.0967   12.2879 H   0  0  0  0  0  0  0  0  0  0  0  0
   18.7951   27.7545   10.0368 H   0  0  0  0  0  0  0  0  0  0  0  0
   20.6716   29.6248   12.2467 C   0  0  0  0  0  0  0  0  0  0  0  0
   21.3758   30.9766   12.2801 C   0  0  0  0  0  0  0  0  0  0  0  0
   19.3484   29.6850   12.4697 N   0  0  0  0  0  0  0  0  0  0  0  0
   21.2389   28.5247   12.0400 O   0  0  0  0  0  0  0  0  0  0  0  0
   18.9221   30.5588   12.6246 H   0  0  0  0  0  0  0  0  0  0  0  0
   15.3601   25.7487   13.0959 C   0  0  0  0  0  0  0  0  0  0  0  0
   14.6905   25.2245   12.1780 O   0  0  0  0  0  0  0  0  0  0  0  0
   15.4888   25.1955   14.2211 O   0  0  0  0  0  0  0  0  0  0  0  0
   15.9959   25.6096   14.8915 H   0  0  0  0  0  0  0  0  0  0  0  0
   18.5548   28.3241   15.1123 C   0  0  0  0  0  0  0  0  0  0  0  0
   18.3460   27.0564   15.8164 O   0  0  0  0  0  0  0  0  0  0  0  0
   17.4228   26.9968   16.1080 H   0  0  0  0  0  0  0  0  0  0  0  0
   18.2917   29.4993   16.0904 C   0  0  0  0  0  0  0  0  0  0  0  0
   17.8138   28.9423   17.3038 O   0  0  0  0  0  0  0  0  0  0  0  0
   16.9770   28.4800   17.1399 H   0  0  0  0  0  0  0  0  0  0  0  0
   17.3373   30.5651   15.5772 C   0  0  0  0  0  0  0  0  0  0  0  0
   18.0372   31.5239   14.6605 O   0  0  0  0  0  0  0  0  0  0  0  0
   18.7513   31.9694   15.1426 H   0  0  0  0  0  0  0  0  0  0  0  0
 16  1  1  0  0  0
 16 17  2  0  0  0
 16 18  1  0  0  0
  1  2  1  0  0  0
  1  6  1  0  0  0
  1  8  1  0  0  0
  2  3  1  0  0  0
  3  4  1  0  0  0
  3  7  1  0  0  0
  4  5  1  0  0  0
  4 13  1  0  0  0
  5 20  1  0  0  0
  5  8  1  0  0  0
 20 23  1  0  0  0
 20 21  1  0  0  0
 23 26  1  0  0  0
 23 24  1  0  0  0
 26 27  1  0  0  0
 11 12  1  0  0  0
 11 13  1  0  0  0
 11 14  2  0  0  0
 13 15  1  0  0  0
 18 19  1  0  0  0
  6  9  1  0  0  0
  7 10  1  0  0  0
 21 22  1  0  0  0
 24 25  1  0  0  0
 27 28  1  0  0  0
M  END
> <minimizedAffinity>
-8.14552

$$$$
