5J8Z_FC4_A_303


 36 38  0  0  0  0  0  0  0  0999 V2000
   -0.3196    7.6606   13.0718 S   0  0  0  0  0  0  0  0  0  0  0  0
   -1.0788    4.6119   10.6375 C   0  0  0  0  0  0  0  0  0  0  0  0
   -1.0805    5.4219   11.7432 N   0  0  0  0  0  0  0  0  0  0  0  0
   -0.3871    4.9113    9.5049 C   0  0  0  0  0  0  0  0  0  0  0  0
    0.3878    6.1264    9.4632 C   0  0  0  0  0  0  0  0  0  0  0  0
    1.0444    6.5121    8.4853 O   0  0  0  0  0  0  0  0  0  0  0  0
    0.3457    6.8849   10.6150 N   0  0  0  0  0  0  0  0  0  0  0  0
   -0.3765    6.5275   11.7096 C   0  0  0  0  0  0  0  0  0  0  0  0
    0.8620    7.7226   10.6454 H   0  0  0  0  0  0  0  0  0  0  0  0
   -3.2620    3.4220   10.9389 C   0  0  0  0  0  0  0  0  0  0  0  0
   -4.0006    2.2726   11.1986 C   0  0  0  0  0  0  0  0  0  0  0  0
   -3.3468    1.0639   11.3305 C   0  0  0  0  0  0  0  0  0  0  0  0
   -4.2475   -0.3732   11.6688 Cl  0  0  0  0  0  0  0  0  0  0  0  0
   -1.9743    0.9884   11.2032 C   0  0  0  0  0  0  0  0  0  0  0  0
   -1.2474    2.1444   10.9395 C   0  0  0  0  0  0  0  0  0  0  0  0
   -1.8784    3.3767   10.8073 C   0  0  0  0  0  0  0  0  0  0  0  0
   -0.5083    4.0202    8.4056 C   0  0  0  0  0  0  0  0  0  0  0  0
   -0.6040    3.2961    7.5168 N   0  0  0  0  0  0  0  0  0  0  0  0
   -2.0194    9.7718   13.7292 C   0  0  0  0  0  0  0  0  0  0  0  0
   -2.0180    8.3244   13.2337 C   0  0  0  0  0  0  0  0  0  0  0  0
   -2.7996    7.4080   14.1760 C   0  0  0  0  0  0  0  0  0  0  0  0
   -3.3391    6.3288   13.5717 N   0  0  0  0  0  0  0  0  0  0  0  0
   -2.9141    7.6560   15.3548 O   0  0  0  0  0  0  0  0  0  0  0  0
   -3.4142    6.3769   12.5913 H   0  0  0  0  0  0  0  0  0  0  0  0
   -3.5218    3.0264   15.2723 C   0  0  0  0  0  0  0  0  0  0  0  0
   -2.9808    4.1232   14.6312 C   0  0  0  0  0  0  0  0  0  0  0  0
   -3.8085    5.1413   14.1686 C   0  0  0  0  0  0  0  0  0  0  0  0
   -5.1826    5.0391   14.3526 C   0  0  0  0  0  0  0  0  0  0  0  0
   -5.7143    3.9361   14.9900 C   0  0  0  0  0  0  0  0  0  0  0  0
   -4.8876    2.9323   15.4518 C   0  0  0  0  0  0  0  0  0  0  0  0
   -5.5699    1.5499   16.2974 S   0  0  0  0  0  0  0  0  0  0  0  0
   -5.0787    1.6571   17.6372 O   0  0  0  0  0  0  0  0  0  0  0  0
   -6.9916    1.5779   16.1460 O   0  0  0  0  0  0  0  0  0  0  0  0
   -4.9928    0.1986   15.6707 N   0  0  0  0  0  0  0  0  0  0  0  0
   -5.3287    0.0974   14.7129 H   0  0  0  0  0  0  0  0  0  0  0  0
   -5.3078   -0.5960   16.2272 H   0  0  0  0  0  0  0  0  0  0  0  0
 13 12  1  0  0  0
 14 12  2  0  0  0
 14 15  1  0  0  0
 12 11  1  0  0  0
 15 16  2  0  0  0
 11 10  2  0  0  0
 16 10  1  0  0  0
 16  2  1  0  0  0
 18 17  3  0  0  0
 19 20  1  0  0  0
 17  4  1  0  0  0
  2  4  2  0  0  0
  2  3  1  0  0  0
  4  5  1  0  0  0
  3  8  2  0  0  0
 20 21  1  0  0  0
 20  1  1  0  0  0
  5  6  2  0  0  0
  5  7  1  0  0  0
 21 23  2  0  0  0
 21 22  1  0  0  0
  8  7  1  0  0  0
  8  1  1  0  0  0
 22 27  1  0  0  0
 27 26  2  0  0  0
 27 28  1  0  0  0
 26 25  1  0  0  0
 28 29  2  0  0  0
 25 30  2  0  0  0
 29 30  1  0  0  0
 30 31  1  0  0  0
 34 31  1  0  0  0
 33 31  2  0  0  0
 31 32  2  0  0  0
  7  9  1  0  0  0
 22 24  1  0  0  0
 34 35  1  0  0  0
 34 36  1  0  0  0
M  END
> <minimizedAffinity>
-8.06015

$$$$
5J8Z_FC4_A_303


 36 38  0  0  0  0  0  0  0  0999 V2000
    1.0912    7.3152    9.3566 S   0  0  0  0  0  0  0  0  0  0  0  0
   -0.9609    7.2620   12.7599 C   0  0  0  0  0  0  0  0  0  0  0  0
   -0.4889    6.9075   11.5229 N   0  0  0  0  0  0  0  0  0  0  0  0
   -0.5425    8.3772   13.4173 C   0  0  0  0  0  0  0  0  0  0  0  0
    0.4315    9.2328   12.7864 C   0  0  0  0  0  0  0  0  0  0  0  0
    0.8985   10.2638   13.2916 O   0  0  0  0  0  0  0  0  0  0  0  0
    0.8524    8.8175   11.5398 N   0  0  0  0  0  0  0  0  0  0  0  0
    0.3964    7.6833   10.9455 C   0  0  0  0  0  0  0  0  0  0  0  0
    1.5125    9.3674   11.0591 H   0  0  0  0  0  0  0  0  0  0  0  0
   -1.6238    5.1147   13.8657 C   0  0  0  0  0  0  0  0  0  0  0  0
   -2.5865    4.1979   14.2742 C   0  0  0  0  0  0  0  0  0  0  0  0
   -3.9230    4.5004   14.1061 C   0  0  0  0  0  0  0  0  0  0  0  0
   -5.1336    3.3658   14.5942 Cl  0  0  0  0  0  0  0  0  0  0  0  0
   -4.3076    5.7003   13.5425 C   0  0  0  0  0  0  0  0  0  0  0  0
   -3.3354    6.6104   13.1416 C   0  0  0  0  0  0  0  0  0  0  0  0
   -1.9815    6.3305   13.2934 C   0  0  0  0  0  0  0  0  0  0  0  0
   -1.0642    8.6084   14.7178 C   0  0  0  0  0  0  0  0  0  0  0  0
   -1.4888    8.7985   15.7700 N   0  0  0  0  0  0  0  0  0  0  0  0
    3.2120    5.6608    8.6190 C   0  0  0  0  0  0  0  0  0  0  0  0
    2.0199    5.7526    9.5735 C   0  0  0  0  0  0  0  0  0  0  0  0
    1.0483    4.5891    9.3711 C   0  0  0  0  0  0  0  0  0  0  0  0
    0.3920    4.2194   10.4906 N   0  0  0  0  0  0  0  0  0  0  0  0
    0.9049    4.0603    8.2922 O   0  0  0  0  0  0  0  0  0  0  0  0
    0.7830    4.5265   11.3403 H   0  0  0  0  0  0  0  0  0  0  0  0
   -2.0109    1.4567   11.1424 C   0  0  0  0  0  0  0  0  0  0  0  0
   -0.8066    2.1156   10.9933 C   0  0  0  0  0  0  0  0  0  0  0  0
   -0.7835    3.4486   10.5958 C   0  0  0  0  0  0  0  0  0  0  0  0
   -1.9824    4.1059   10.3449 C   0  0  0  0  0  0  0  0  0  0  0  0
   -3.1810    3.4371   10.4917 C   0  0  0  0  0  0  0  0  0  0  0  0
   -3.1976    2.1165   10.8919 C   0  0  0  0  0  0  0  0  0  0  0  0
   -4.7302    1.2839   11.1143 S   0  0  0  0  0  0  0  0  0  0  0  0
   -4.5342    0.4490   12.2599 O   0  0  0  0  0  0  0  0  0  0  0  0
   -5.7696    2.2603   11.2198 O   0  0  0  0  0  0  0  0  0  0  0  0
   -5.0135    0.3360    9.8600 N   0  0  0  0  0  0  0  0  0  0  0  0
   -5.1573    0.9075    9.0275 H   0  0  0  0  0  0  0  0  0  0  0  0
   -5.8485   -0.2223   10.0375 H   0  0  0  0  0  0  0  0  0  0  0  0
 13 12  1  0  0  0
 14 12  2  0  0  0
 14 15  1  0  0  0
 12 11  1  0  0  0
 15 16  2  0  0  0
 11 10  2  0  0  0
 16 10  1  0  0  0
 16  2  1  0  0  0
 18 17  3  0  0  0
 19 20  1  0  0  0
 17  4  1  0  0  0
  2  4  2  0  0  0
  2  3  1  0  0  0
  4  5  1  0  0  0
  3  8  2  0  0  0
 20 21  1  0  0  0
 20  1  1  0  0  0
  5  6  2  0  0  0
  5  7  1  0  0  0
 21 23  2  0  0  0
 21 22  1  0  0  0
  8  7  1  0  0  0
  8  1  1  0  0  0
 22 27  1  0  0  0
 27 26  2  0  0  0
 27 28  1  0  0  0
 26 25  1  0  0  0
 28 29  2  0  0  0
 25 30  2  0  0  0
 29 30  1  0  0  0
 30 31  1  0  0  0
 34 31  1  0  0  0
 33 31  2  0  0  0
 31 32  2  0  0  0
  7  9  1  0  0  0
 22 24  1  0  0  0
 34 35  1  0  0  0
 34 36  1  0  0  0
M  END
> <minimizedAffinity>
-7.96660

$$$$
5J8Z_FC4_A_303


 36 38  0  0  0  0  0  0  0  0999 V2000
   -0.6084    8.5633   11.9758 S   0  0  0  0  0  0  0  0  0  0  0  0
   -2.3897    5.6396    9.9571 C   0  0  0  0  0  0  0  0  0  0  0  0
   -1.7148    6.3135   10.9415 N   0  0  0  0  0  0  0  0  0  0  0  0
   -2.8112    6.2373    8.8099 C   0  0  0  0  0  0  0  0  0  0  0  0
   -2.5300    7.6373    8.6105 C   0  0  0  0  0  0  0  0  0  0  0  0
   -2.8757    8.2926    7.6168 O   0  0  0  0  0  0  0  0  0  0  0  0
   -1.8396    8.2459    9.6384 N   0  0  0  0  0  0  0  0  0  0  0  0
   -1.4565    7.5866   10.7637 C   0  0  0  0  0  0  0  0  0  0  0  0
   -1.6143    9.2004    9.5531 H   0  0  0  0  0  0  0  0  0  0  0  0
   -3.7697    3.7387   10.8258 C   0  0  0  0  0  0  0  0  0  0  0  0
   -3.9175    2.4064   11.1963 C   0  0  0  0  0  0  0  0  0  0  0  0
   -2.8717    1.5281   10.9941 C   0  0  0  0  0  0  0  0  0  0  0  0
   -3.0322   -0.1289   11.4628 Cl  0  0  0  0  0  0  0  0  0  0  0  0
   -1.6896    1.9599   10.4270 C   0  0  0  0  0  0  0  0  0  0  0  0
   -1.5556    3.2938   10.0572 C   0  0  0  0  0  0  0  0  0  0  0  0
   -2.5901    4.2025   10.2540 C   0  0  0  0  0  0  0  0  0  0  0  0
   -3.5492    5.4467    7.8894 C   0  0  0  0  0  0  0  0  0  0  0  0
   -4.1439    4.8044    7.1429 N   0  0  0  0  0  0  0  0  0  0  0  0
   -1.4617   10.5327   13.7570 C   0  0  0  0  0  0  0  0  0  0  0  0
   -1.9144    9.2477   13.0609 C   0  0  0  0  0  0  0  0  0  0  0  0
   -2.3063    8.1698   14.0724 C   0  0  0  0  0  0  0  0  0  0  0  0
   -3.1823    7.2608   13.5960 N   0  0  0  0  0  0  0  0  0  0  0  0
   -1.8600    8.1603   15.1971 O   0  0  0  0  0  0  0  0  0  0  0  0
   -3.6745    7.5213   12.7841 H   0  0  0  0  0  0  0  0  0  0  0  0
   -4.9720    4.2882   14.9346 C   0  0  0  0  0  0  0  0  0  0  0  0
   -4.7539    5.5830   14.5073 C   0  0  0  0  0  0  0  0  0  0  0  0
   -3.4810    5.9848   14.1152 C   0  0  0  0  0  0  0  0  0  0  0  0
   -2.4331    5.0728   14.1644 C   0  0  0  0  0  0  0  0  0  0  0  0
   -2.6601    3.7821   14.5981 C   0  0  0  0  0  0  0  0  0  0  0  0
   -3.9261    3.3879   14.9803 C   0  0  0  0  0  0  0  0  0  0  0  0
   -4.2141    1.7312   15.4940 S   0  0  0  0  0  0  0  0  0  0  0  0
   -4.5499    1.0257   14.2950 O   0  0  0  0  0  0  0  0  0  0  0  0
   -3.0592    1.2629   16.1952 O   0  0  0  0  0  0  0  0  0  0  0  0
   -5.4833    1.6822   16.4629 N   0  0  0  0  0  0  0  0  0  0  0  0
   -5.2702    2.1793   17.3277 H   0  0  0  0  0  0  0  0  0  0  0  0
   -5.7109    0.7111   16.6762 H   0  0  0  0  0  0  0  0  0  0  0  0
 13 12  1  0  0  0
 14 12  2  0  0  0
 14 15  1  0  0  0
 12 11  1  0  0  0
 15 16  2  0  0  0
 11 10  2  0  0  0
 16 10  1  0  0  0
 16  2  1  0  0  0
 18 17  3  0  0  0
 19 20  1  0  0  0
 17  4  1  0  0  0
  2  4  2  0  0  0
  2  3  1  0  0  0
  4  5  1  0  0  0
  3  8  2  0  0  0
 20 21  1  0  0  0
 20  1  1  0  0  0
  5  6  2  0  0  0
  5  7  1  0  0  0
 21 23  2  0  0  0
 21 22  1  0  0  0
  8  7  1  0  0  0
  8  1  1  0  0  0
 22 27  1  0  0  0
 27 26  2  0  0  0
 27 28  1  0  0  0
 26 25  1  0  0  0
 28 29  2  0  0  0
 25 30  2  0  0  0
 29 30  1  0  0  0
 30 31  1  0  0  0
 34 31  1  0  0  0
 33 31  2  0  0  0
 31 32  2  0  0  0
  7  9  1  0  0  0
 22 24  1  0  0  0
 34 35  1  0  0  0
 34 36  1  0  0  0
M  END
> <minimizedAffinity>
-7.86673

$$$$
5J8Z_FC4_A_303


 36 38  0  0  0  0  0  0  0  0999 V2000
    0.4159    8.8974   13.1363 S   0  0  0  0  0  0  0  0  0  0  0  0
   -0.3010    5.7336   10.8401 C   0  0  0  0  0  0  0  0  0  0  0  0
   -0.4468    6.7001   11.8010 N   0  0  0  0  0  0  0  0  0  0  0  0
    0.7826    5.6661   10.0202 C   0  0  0  0  0  0  0  0  0  0  0  0
    1.8311    6.6442   10.1704 C   0  0  0  0  0  0  0  0  0  0  0  0
    2.8555    6.6941    9.4744 O   0  0  0  0  0  0  0  0  0  0  0  0
    1.6194    7.5786   11.1634 N   0  0  0  0  0  0  0  0  0  0  0  0
    0.5049    7.5910   11.9413 C   0  0  0  0  0  0  0  0  0  0  0  0
    2.3064    8.2672   11.3152 H   0  0  0  0  0  0  0  0  0  0  0  0
   -2.6740    5.1242   10.3198 C   0  0  0  0  0  0  0  0  0  0  0  0
   -3.7494    4.2442   10.3770 C   0  0  0  0  0  0  0  0  0  0  0  0
   -3.5685    2.9897   10.9242 C   0  0  0  0  0  0  0  0  0  0  0  0
   -4.8983    1.8880   11.0175 Cl  0  0  0  0  0  0  0  0  0  0  0  0
   -2.3346    2.6042   11.4082 C   0  0  0  0  0  0  0  0  0  0  0  0
   -1.2661    3.4919   11.3418 C   0  0  0  0  0  0  0  0  0  0  0  0
   -1.4201    4.7640   10.8011 C   0  0  0  0  0  0  0  0  0  0  0  0
    0.7930    4.6515    9.0265 C   0  0  0  0  0  0  0  0  0  0  0  0
    0.7978    3.8293    8.2218 N   0  0  0  0  0  0  0  0  0  0  0  0
   -1.5525   10.7805   13.7346 C   0  0  0  0  0  0  0  0  0  0  0  0
   -1.3561    9.3425   13.2508 C   0  0  0  0  0  0  0  0  0  0  0  0
   -2.0399    8.3393   14.1807 C   0  0  0  0  0  0  0  0  0  0  0  0
   -2.6798    7.3406   13.5374 N   0  0  0  0  0  0  0  0  0  0  0  0
   -2.0004    8.4582   15.3843 O   0  0  0  0  0  0  0  0  0  0  0  0
   -2.8746    7.4970   12.5852 H   0  0  0  0  0  0  0  0  0  0  0  0
   -4.7541    4.4297   14.5647 C   0  0  0  0  0  0  0  0  0  0  0  0
   -4.4332    5.6925   14.1073 C   0  0  0  0  0  0  0  0  0  0  0  0
   -3.1043    6.1015   14.0582 C   0  0  0  0  0  0  0  0  0  0  0  0
   -2.1069    5.2297   14.4796 C   0  0  0  0  0  0  0  0  0  0  0  0
   -2.4382    3.9713   14.9402 C   0  0  0  0  0  0  0  0  0  0  0  0
   -3.7577    3.5693   14.9811 C   0  0  0  0  0  0  0  0  0  0  0  0
   -4.1676    1.9507   15.5322 S   0  0  0  0  0  0  0  0  0  0  0  0
   -4.7365    1.3043   14.3892 O   0  0  0  0  0  0  0  0  0  0  0  0
   -2.9937    1.3428   16.0775 O   0  0  0  0  0  0  0  0  0  0  0  0
   -5.2968    2.0368   16.6589 N   0  0  0  0  0  0  0  0  0  0  0  0
   -4.9164    2.4948   17.4872 H   0  0  0  0  0  0  0  0  0  0  0  0
   -5.6064    1.0960   16.9025 H   0  0  0  0  0  0  0  0  0  0  0  0
 13 12  1  0  0  0
 14 12  2  0  0  0
 14 15  1  0  0  0
 12 11  1  0  0  0
 15 16  2  0  0  0
 11 10  2  0  0  0
 16 10  1  0  0  0
 16  2  1  0  0  0
 18 17  3  0  0  0
 19 20  1  0  0  0
 17  4  1  0  0  0
  2  4  2  0  0  0
  2  3  1  0  0  0
  4  5  1  0  0  0
  3  8  2  0  0  0
 20 21  1  0  0  0
 20  1  1  0  0  0
  5  6  2  0  0  0
  5  7  1  0  0  0
 21 23  2  0  0  0
 21 22  1  0  0  0
  8  7  1  0  0  0
  8  1  1  0  0  0
 22 27  1  0  0  0
 27 26  2  0  0  0
 27 28  1  0  0  0
 26 25  1  0  0  0
 28 29  2  0  0  0
 25 30  2  0  0  0
 29 30  1  0  0  0
 30 31  1  0  0  0
 34 31  1  0  0  0
 33 31  2  0  0  0
 31 32  2  0  0  0
  7  9  1  0  0  0
 22 24  1  0  0  0
 34 35  1  0  0  0
 34 36  1  0  0  0
M  END
> <minimizedAffinity>
-7.77341

$$$$
5J8Z_FC4_A_303


 36 38  0  0  0  0  0  0  0  0999 V2000
   -3.7561    6.3093   10.9640 S   0  0  0  0  0  0  0  0  0  0  0  0
   -4.3265    2.9309   12.9784 C   0  0  0  0  0  0  0  0  0  0  0  0
   -4.3106    4.2629   12.6553 N   0  0  0  0  0  0  0  0  0  0  0  0
   -3.8563    1.9640   12.1448 C   0  0  0  0  0  0  0  0  0  0  0  0
   -3.3067    2.3514   10.8695 C   0  0  0  0  0  0  0  0  0  0  0  0
   -2.8637    1.5625   10.0223 O   0  0  0  0  0  0  0  0  0  0  0  0
   -3.3153    3.7081   10.6184 N   0  0  0  0  0  0  0  0  0  0  0  0
   -3.8110    4.6194   11.4966 C   0  0  0  0  0  0  0  0  0  0  0  0
   -2.9458    4.0306    9.7647 H   0  0  0  0  0  0  0  0  0  0  0  0
   -6.1289    3.1312   14.7060 C   0  0  0  0  0  0  0  0  0  0  0  0
   -6.6031    2.9575   16.0017 C   0  0  0  0  0  0  0  0  0  0  0  0
   -5.8167    2.3013   16.9275 C   0  0  0  0  0  0  0  0  0  0  0  0
   -6.3837    2.0898   18.5476 Cl  0  0  0  0  0  0  0  0  0  0  0  0
   -4.5728    1.8164   16.5769 C   0  0  0  0  0  0  0  0  0  0  0  0
   -4.1115    1.9931   15.2768 C   0  0  0  0  0  0  0  0  0  0  0  0
   -4.8793    2.6550   14.3246 C   0  0  0  0  0  0  0  0  0  0  0  0
   -3.9778    0.6141   12.5691 C   0  0  0  0  0  0  0  0  0  0  0  0
   -4.0792   -0.4785   12.9148 N   0  0  0  0  0  0  0  0  0  0  0  0
   -2.4217    7.2982    8.7234 C   0  0  0  0  0  0  0  0  0  0  0  0
   -3.4459    6.2493    9.1608 C   0  0  0  0  0  0  0  0  0  0  0  0
   -4.7823    6.4358    8.4413 C   0  0  0  0  0  0  0  0  0  0  0  0
   -5.6448    7.2498    9.0850 N   0  0  0  0  0  0  0  0  0  0  0  0
   -5.0218    5.8847    7.3910 O   0  0  0  0  0  0  0  0  0  0  0  0
   -5.4544    7.4124   10.0372 H   0  0  0  0  0  0  0  0  0  0  0  0
   -9.1450    8.1201    8.1782 C   0  0  0  0  0  0  0  0  0  0  0  0
   -8.0751    7.3844    8.6479 C   0  0  0  0  0  0  0  0  0  0  0  0
   -6.7842    7.8965    8.5649 C   0  0  0  0  0  0  0  0  0  0  0  0
   -6.5835    9.1504    7.9996 C   0  0  0  0  0  0  0  0  0  0  0  0
   -7.6589    9.8761    7.5280 C   0  0  0  0  0  0  0  0  0  0  0  0
   -8.9377    9.3652    7.6184 C   0  0  0  0  0  0  0  0  0  0  0  0
  -10.3058   10.3128    7.0511 S   0  0  0  0  0  0  0  0  0  0  0  0
  -10.2215   11.5488    7.7675 O   0  0  0  0  0  0  0  0  0  0  0  0
  -10.2365   10.4075    5.6260 O   0  0  0  0  0  0  0  0  0  0  0  0
  -11.6687    9.5942    7.4729 N   0  0  0  0  0  0  0  0  0  0  0  0
  -11.7540    8.7080    6.9750 H   0  0  0  0  0  0  0  0  0  0  0  0
  -12.4578   10.1952    7.2349 H   0  0  0  0  0  0  0  0  0  0  0  0
 13 12  1  0  0  0
 14 12  2  0  0  0
 14 15  1  0  0  0
 12 11  1  0  0  0
 15 16  2  0  0  0
 11 10  2  0  0  0
 16 10  1  0  0  0
 16  2  1  0  0  0
 18 17  3  0  0  0
 19 20  1  0  0  0
 17  4  1  0  0  0
  2  4  2  0  0  0
  2  3  1  0  0  0
  4  5  1  0  0  0
  3  8  2  0  0  0
 20 21  1  0  0  0
 20  1  1  0  0  0
  5  6  2  0  0  0
  5  7  1  0  0  0
 21 23  2  0  0  0
 21 22  1  0  0  0
  8  7  1  0  0  0
  8  1  1  0  0  0
 22 27  1  0  0  0
 27 26  2  0  0  0
 27 28  1  0  0  0
 26 25  1  0  0  0
 28 29  2  0  0  0
 25 30  2  0  0  0
 29 30  1  0  0  0
 30 31  1  0  0  0
 34 31  1  0  0  0
 33 31  2  0  0  0
 31 32  2  0  0  0
  7  9  1  0  0  0
 22 24  1  0  0  0
 34 35  1  0  0  0
 34 36  1  0  0  0
M  END
> <minimizedAffinity>
-7.65941

$$$$
5J8Z_FC4_A_303


 36 38  0  0  0  0  0  0  0  0999 V2000
   -3.5490    7.0850   10.1206 S   0  0  0  0  0  0  0  0  0  0  0  0
   -6.5496    9.3672    8.8618 C   0  0  0  0  0  0  0  0  0  0  0  0
   -5.3439    8.9814    9.3874 N   0  0  0  0  0  0  0  0  0  0  0  0
   -7.4800    8.4783    8.4200 C   0  0  0  0  0  0  0  0  0  0  0  0
   -7.1958    7.0681    8.5155 C   0  0  0  0  0  0  0  0  0  0  0  0
   -7.9561    6.1669    8.1331 O   0  0  0  0  0  0  0  0  0  0  0  0
   -5.9685    6.7560    9.0633 N   0  0  0  0  0  0  0  0  0  0  0  0
   -5.0820    7.6998    9.4767 C   0  0  0  0  0  0  0  0  0  0  0  0
   -5.7239    5.8072    9.1591 H   0  0  0  0  0  0  0  0  0  0  0  0
   -6.6999   11.5597    7.6604 C   0  0  0  0  0  0  0  0  0  0  0  0
   -6.7842   12.9478    7.6586 C   0  0  0  0  0  0  0  0  0  0  0  0
   -6.9140   13.6192    8.8579 C   0  0  0  0  0  0  0  0  0  0  0  0
   -7.0048   15.3462    8.8759 Cl  0  0  0  0  0  0  0  0  0  0  0  0
   -6.9644   12.9261   10.0506 C   0  0  0  0  0  0  0  0  0  0  0  0
   -6.8831   11.5379   10.0389 C   0  0  0  0  0  0  0  0  0  0  0  0
   -6.7461   10.8352    8.8464 C   0  0  0  0  0  0  0  0  0  0  0  0
   -8.6683    9.0017    7.8448 C   0  0  0  0  0  0  0  0  0  0  0  0
   -9.6324    9.4263    7.3823 N   0  0  0  0  0  0  0  0  0  0  0  0
   -2.4251    7.5353   12.6332 C   0  0  0  0  0  0  0  0  0  0  0  0
   -3.7268    7.1247   11.9422 C   0  0  0  0  0  0  0  0  0  0  0  0
   -4.1966    5.7450   12.4050 C   0  0  0  0  0  0  0  0  0  0  0  0
   -3.8527    5.4439   13.6745 N   0  0  0  0  0  0  0  0  0  0  0  0
   -4.8154    5.0054   11.6740 O   0  0  0  0  0  0  0  0  0  0  0  0
   -3.1327    5.9891   14.0664 H   0  0  0  0  0  0  0  0  0  0  0  0
   -6.1988    3.3243   15.6326 C   0  0  0  0  0  0  0  0  0  0  0  0
   -5.7370    4.3795   14.8710 C   0  0  0  0  0  0  0  0  0  0  0  0
   -4.3951    4.4465   14.5099 C   0  0  0  0  0  0  0  0  0  0  0  0
   -3.5259    3.4458   14.9284 C   0  0  0  0  0  0  0  0  0  0  0  0
   -3.9960    2.3977   15.6940 C   0  0  0  0  0  0  0  0  0  0  0  0
   -5.3293    2.3338   16.0442 C   0  0  0  0  0  0  0  0  0  0  0  0
   -5.9273    0.9749   16.9862 S   0  0  0  0  0  0  0  0  0  0  0  0
   -5.4144   -0.1865   16.3258 O   0  0  0  0  0  0  0  0  0  0  0  0
   -5.5266    1.1511   18.3475 O   0  0  0  0  0  0  0  0  0  0  0  0
   -7.5216    0.9227   16.9014 N   0  0  0  0  0  0  0  0  0  0  0  0
   -7.9138    1.7417   17.3661 H   0  0  0  0  0  0  0  0  0  0  0  0
   -7.8591    0.0770   17.3610 H   0  0  0  0  0  0  0  0  0  0  0  0
 13 12  1  0  0  0
 14 12  2  0  0  0
 14 15  1  0  0  0
 12 11  1  0  0  0
 15 16  2  0  0  0
 11 10  2  0  0  0
 16 10  1  0  0  0
 16  2  1  0  0  0
 18 17  3  0  0  0
 19 20  1  0  0  0
 17  4  1  0  0  0
  2  4  2  0  0  0
  2  3  1  0  0  0
  4  5  1  0  0  0
  3  8  2  0  0  0
 20 21  1  0  0  0
 20  1  1  0  0  0
  5  6  2  0  0  0
  5  7  1  0  0  0
 21 23  2  0  0  0
 21 22  1  0  0  0
  8  7  1  0  0  0
  8  1  1  0  0  0
 22 27  1  0  0  0
 27 26  2  0  0  0
 27 28  1  0  0  0
 26 25  1  0  0  0
 28 29  2  0  0  0
 25 30  2  0  0  0
 29 30  1  0  0  0
 30 31  1  0  0  0
 34 31  1  0  0  0
 33 31  2  0  0  0
 31 32  2  0  0  0
  7  9  1  0  0  0
 22 24  1  0  0  0
 34 35  1  0  0  0
 34 36  1  0  0  0
M  END
> <minimizedAffinity>
-7.49846

$$$$
5J8Z_FC4_A_303


 36 38  0  0  0  0  0  0  0  0999 V2000
   -0.7156    5.9828   12.6493 S   0  0  0  0  0  0  0  0  0  0  0  0
   -3.3174    3.0015   13.0213 C   0  0  0  0  0  0  0  0  0  0  0  0
   -2.5809    4.1239   13.2978 N   0  0  0  0  0  0  0  0  0  0  0  0
   -3.1894    2.3025   11.8612 C   0  0  0  0  0  0  0  0  0  0  0  0
   -2.2321    2.7505   10.8806 C   0  0  0  0  0  0  0  0  0  0  0  0
   -2.0375    2.2070    9.7838 O   0  0  0  0  0  0  0  0  0  0  0  0
   -1.5216    3.8797   11.2324 N   0  0  0  0  0  0  0  0  0  0  0  0
   -1.7087    4.5342   12.4089 C   0  0  0  0  0  0  0  0  0  0  0  0
   -0.8489    4.2270   10.6031 H   0  0  0  0  0  0  0  0  0  0  0  0
   -5.4538    3.2682   14.3010 C   0  0  0  0  0  0  0  0  0  0  0  0
   -6.2726    2.9727   15.3856 C   0  0  0  0  0  0  0  0  0  0  0  0
   -5.8715    2.0142   16.2946 C   0  0  0  0  0  0  0  0  0  0  0  0
   -6.8697    1.6448   17.6577 Cl  0  0  0  0  0  0  0  0  0  0  0  0
   -4.6730    1.3487   16.1330 C   0  0  0  0  0  0  0  0  0  0  0  0
   -3.8649    1.6504   15.0421 C   0  0  0  0  0  0  0  0  0  0  0  0
   -4.2405    2.6153   14.1134 C   0  0  0  0  0  0  0  0  0  0  0  0
   -4.0478    1.1879   11.6671 C   0  0  0  0  0  0  0  0  0  0  0  0
   -4.7461    0.2871   11.5105 N   0  0  0  0  0  0  0  0  0  0  0  0
   -2.7182    7.4892   13.8737 C   0  0  0  0  0  0  0  0  0  0  0  0
   -1.8800    7.3945   12.5974 C   0  0  0  0  0  0  0  0  0  0  0  0
   -2.7614    7.2394   11.3574 C   0  0  0  0  0  0  0  0  0  0  0  0
   -4.0699    7.4838   11.5785 N   0  0  0  0  0  0  0  0  0  0  0  0
   -2.3008    6.9180   10.2856 O   0  0  0  0  0  0  0  0  0  0  0  0
   -4.3587    7.4640   12.5195 H   0  0  0  0  0  0  0  0  0  0  0  0
   -6.8097    7.1499    9.0859 C   0  0  0  0  0  0  0  0  0  0  0  0
   -5.7883    6.7883    9.9418 C   0  0  0  0  0  0  0  0  0  0  0  0
   -5.0750    7.7640   10.6308 C   0  0  0  0  0  0  0  0  0  0  0  0
   -5.3968    9.1033   10.4434 C   0  0  0  0  0  0  0  0  0  0  0  0
   -6.4160    9.4551    9.5815 C   0  0  0  0  0  0  0  0  0  0  0  0
   -7.1237    8.4823    8.9053 C   0  0  0  0  0  0  0  0  0  0  0  0
   -8.4461    8.9372    7.8395 S   0  0  0  0  0  0  0  0  0  0  0  0
   -7.9306    8.7627    6.5160 O   0  0  0  0  0  0  0  0  0  0  0  0
   -9.5936    8.1525    8.1746 O   0  0  0  0  0  0  0  0  0  0  0  0
   -8.7836   10.4866    8.0335 N   0  0  0  0  0  0  0  0  0  0  0  0
   -9.1539   10.6390    8.9716 H   0  0  0  0  0  0  0  0  0  0  0  0
   -9.4780   10.7723    7.3432 H   0  0  0  0  0  0  0  0  0  0  0  0
 13 12  1  0  0  0
 14 12  2  0  0  0
 14 15  1  0  0  0
 12 11  1  0  0  0
 15 16  2  0  0  0
 11 10  2  0  0  0
 16 10  1  0  0  0
 16  2  1  0  0  0
 18 17  3  0  0  0
 19 20  1  0  0  0
 17  4  1  0  0  0
  2  4  2  0  0  0
  2  3  1  0  0  0
  4  5  1  0  0  0
  3  8  2  0  0  0
 20 21  1  0  0  0
 20  1  1  0  0  0
  5  6  2  0  0  0
  5  7  1  0  0  0
 21 23  2  0  0  0
 21 22  1  0  0  0
  8  7  1  0  0  0
  8  1  1  0  0  0
 22 27  1  0  0  0
 27 26  2  0  0  0
 27 28  1  0  0  0
 26 25  1  0  0  0
 28 29  2  0  0  0
 25 30  2  0  0  0
 29 30  1  0  0  0
 30 31  1  0  0  0
 34 31  1  0  0  0
 33 31  2  0  0  0
 31 32  2  0  0  0
  7  9  1  0  0  0
 22 24  1  0  0  0
 34 35  1  0  0  0
 34 36  1  0  0  0
M  END
> <minimizedAffinity>
-7.46134

$$$$
5J8Z_FC4_A_303


 36 38  0  0  0  0  0  0  0  0999 V2000
   -3.7418    7.0531    8.9107 S   0  0  0  0  0  0  0  0  0  0  0  0
   -3.4053    4.1013   11.5507 C   0  0  0  0  0  0  0  0  0  0  0  0
   -3.5227    4.7719   10.3611 N   0  0  0  0  0  0  0  0  0  0  0  0
   -3.3620    4.7351   12.7537 C   0  0  0  0  0  0  0  0  0  0  0  0
   -3.4536    6.1736   12.7862 C   0  0  0  0  0  0  0  0  0  0  0  0
   -3.4101    6.8610   13.8167 O   0  0  0  0  0  0  0  0  0  0  0  0
   -3.5795    6.7782   11.5523 N   0  0  0  0  0  0  0  0  0  0  0  0
   -3.6069    6.0801   10.3864 C   0  0  0  0  0  0  0  0  0  0  0  0
   -3.6529    7.7593   11.5148 H   0  0  0  0  0  0  0  0  0  0  0  0
   -4.4966    1.8470   11.5430 C   0  0  0  0  0  0  0  0  0  0  0  0
   -4.4307    0.4585   11.4989 C   0  0  0  0  0  0  0  0  0  0  0  0
   -3.2086   -0.1550   11.3094 C   0  0  0  0  0  0  0  0  0  0  0  0
   -3.1055   -1.8808   11.2673 Cl  0  0  0  0  0  0  0  0  0  0  0  0
   -2.0597    0.5957   11.1606 C   0  0  0  0  0  0  0  0  0  0  0  0
   -2.1394    1.9835   11.2026 C   0  0  0  0  0  0  0  0  0  0  0  0
   -3.3559    2.6288   11.3978 C   0  0  0  0  0  0  0  0  0  0  0  0
   -3.1829    3.9343   13.9128 C   0  0  0  0  0  0  0  0  0  0  0  0
   -3.0343    3.2846   14.8506 N   0  0  0  0  0  0  0  0  0  0  0  0
   -3.3766    5.9023    6.3965 C   0  0  0  0  0  0  0  0  0  0  0  0
   -4.3106    5.8992    7.6082 C   0  0  0  0  0  0  0  0  0  0  0  0
   -5.7373    6.2875    7.2180 C   0  0  0  0  0  0  0  0  0  0  0  0
   -6.2332    7.3317    7.9141 N   0  0  0  0  0  0  0  0  0  0  0  0
   -6.3476    5.6897    6.3610 O   0  0  0  0  0  0  0  0  0  0  0  0
   -5.7651    7.5522    8.7516 H   0  0  0  0  0  0  0  0  0  0  0  0
   -9.6051    8.8991    7.8467 C   0  0  0  0  0  0  0  0  0  0  0  0
   -8.5984    8.0088    8.1641 C   0  0  0  0  0  0  0  0  0  0  0  0
   -7.3376    8.1463    7.5922 C   0  0  0  0  0  0  0  0  0  0  0  0
   -7.1053    9.1827    6.6956 C   0  0  0  0  0  0  0  0  0  0  0  0
   -8.1196   10.0645    6.3806 C   0  0  0  0  0  0  0  0  0  0  0  0
   -9.3665    9.9264    6.9556 C   0  0  0  0  0  0  0  0  0  0  0  0
  -10.6413   11.0773    6.5788 S   0  0  0  0  0  0  0  0  0  0  0  0
  -11.5252   10.3747    5.6995 O   0  0  0  0  0  0  0  0  0  0  0  0
  -11.2136   11.5425    7.8039 O   0  0  0  0  0  0  0  0  0  0  0  0
  -10.0284   12.3128    5.7727 N   0  0  0  0  0  0  0  0  0  0  0  0
   -9.3928   12.8322    6.3783 H   0  0  0  0  0  0  0  0  0  0  0  0
  -10.7831   12.9265    5.4658 H   0  0  0  0  0  0  0  0  0  0  0  0
 13 12  1  0  0  0
 14 12  2  0  0  0
 14 15  1  0  0  0
 12 11  1  0  0  0
 15 16  2  0  0  0
 11 10  2  0  0  0
 16 10  1  0  0  0
 16  2  1  0  0  0
 18 17  3  0  0  0
 19 20  1  0  0  0
 17  4  1  0  0  0
  2  4  2  0  0  0
  2  3  1  0  0  0
  4  5  1  0  0  0
  3  8  2  0  0  0
 20 21  1  0  0  0
 20  1  1  0  0  0
  5  6  2  0  0  0
  5  7  1  0  0  0
 21 23  2  0  0  0
 21 22  1  0  0  0
  8  7  1  0  0  0
  8  1  1  0  0  0
 22 27  1  0  0  0
 27 26  2  0  0  0
 27 28  1  0  0  0
 26 25  1  0  0  0
 28 29  2  0  0  0
 25 30  2  0  0  0
 29 30  1  0  0  0
 30 31  1  0  0  0
 34 31  1  0  0  0
 33 31  2  0  0  0
 31 32  2  0  0  0
  7  9  1  0  0  0
 22 24  1  0  0  0
 34 35  1  0  0  0
 34 36  1  0  0  0
M  END
> <minimizedAffinity>
-7.18747

$$$$
5J8Z_FC4_A_303


 36 38  0  0  0  0  0  0  0  0999 V2000
   -4.9674    6.5721    8.9331 S   0  0  0  0  0  0  0  0  0  0  0  0
   -3.9888    3.7259   11.5289 C   0  0  0  0  0  0  0  0  0  0  0  0
   -4.3031    4.3603   10.3552 N   0  0  0  0  0  0  0  0  0  0  0  0
   -3.9302    4.3728   12.7243 C   0  0  0  0  0  0  0  0  0  0  0  0
   -4.2202    5.7845   12.7668 C   0  0  0  0  0  0  0  0  0  0  0  0
   -4.1840    6.4824   13.7905 O   0  0  0  0  0  0  0  0  0  0  0  0
   -4.5375    6.3518   11.5497 N   0  0  0  0  0  0  0  0  0  0  0  0
   -4.5682    5.6440   10.3897 C   0  0  0  0  0  0  0  0  0  0  0  0
   -4.7513    7.3123   11.5202 H   0  0  0  0  0  0  0  0  0  0  0  0
   -4.7811    1.3506   11.4739 C   0  0  0  0  0  0  0  0  0  0  0  0
   -4.5363   -0.0175   11.4249 C   0  0  0  0  0  0  0  0  0  0  0  0
   -3.2401   -0.4676   11.2723 C   0  0  0  0  0  0  0  0  0  0  0  0
   -2.9152   -2.1656   11.2247 Cl  0  0  0  0  0  0  0  0  0  0  0  0
   -2.1930    0.4253   11.1649 C   0  0  0  0  0  0  0  0  0  0  0  0
   -2.4513    1.7911   11.2115 C   0  0  0  0  0  0  0  0  0  0  0  0
   -3.7461    2.2735   11.3701 C   0  0  0  0  0  0  0  0  0  0  0  0
   -3.5392    3.6178   13.8619 C   0  0  0  0  0  0  0  0  0  0  0  0
   -3.2207    3.0092   14.7848 N   0  0  0  0  0  0  0  0  0  0  0  0
   -7.3660    7.5513    7.9000 C   0  0  0  0  0  0  0  0  0  0  0  0
   -6.6509    7.2338    9.2148 C   0  0  0  0  0  0  0  0  0  0  0  0
   -6.5330    8.4732   10.1028 C   0  0  0  0  0  0  0  0  0  0  0  0
   -6.0310    9.5557    9.4727 N   0  0  0  0  0  0  0  0  0  0  0  0
   -6.8621    8.4554   11.2671 O   0  0  0  0  0  0  0  0  0  0  0  0
   -5.5530    9.3804    8.6301 H   0  0  0  0  0  0  0  0  0  0  0  0
   -5.2332   12.9064   10.8753 C   0  0  0  0  0  0  0  0  0  0  0  0
   -5.1131   11.5600   10.5931 C   0  0  0  0  0  0  0  0  0  0  0  0
   -6.1055   10.9061    9.8698 C   0  0  0  0  0  0  0  0  0  0  0  0
   -7.2189   11.6196    9.4415 C   0  0  0  0  0  0  0  0  0  0  0  0
   -7.3323   12.9641    9.7332 C   0  0  0  0  0  0  0  0  0  0  0  0
   -6.3419   13.6085   10.4460 C   0  0  0  0  0  0  0  0  0  0  0  0
   -6.4757   15.3297   10.7792 S   0  0  0  0  0  0  0  0  0  0  0  0
   -7.7102   15.7280   10.1747 O   0  0  0  0  0  0  0  0  0  0  0  0
   -6.3747   15.5309   12.1913 O   0  0  0  0  0  0  0  0  0  0  0  0
   -5.2944   16.1129   10.0423 N   0  0  0  0  0  0  0  0  0  0  0  0
   -4.4005   15.8465   10.4552 H   0  0  0  0  0  0  0  0  0  0  0  0
   -5.4330   17.1176   10.1508 H   0  0  0  0  0  0  0  0  0  0  0  0
 13 12  1  0  0  0
 14 12  2  0  0  0
 14 15  1  0  0  0
 12 11  1  0  0  0
 15 16  2  0  0  0
 11 10  2  0  0  0
 16 10  1  0  0  0
 16  2  1  0  0  0
 18 17  3  0  0  0
 19 20  1  0  0  0
 17  4  1  0  0  0
  2  4  2  0  0  0
  2  3  1  0  0  0
  4  5  1  0  0  0
  3  8  2  0  0  0
 20 21  1  0  0  0
 20  1  1  0  0  0
  5  6  2  0  0  0
  5  7  1  0  0  0
 21 23  2  0  0  0
 21 22  1  0  0  0
  8  7  1  0  0  0
  8  1  1  0  0  0
 22 27  1  0  0  0
 27 26  2  0  0  0
 27 28  1  0  0  0
 26 25  1  0  0  0
 28 29  2  0  0  0
 25 30  2  0  0  0
 29 30  1  0  0  0
 30 31  1  0  0  0
 34 31  1  0  0  0
 33 31  2  0  0  0
 31 32  2  0  0  0
  7  9  1  0  0  0
 22 24  1  0  0  0
 34 35  1  0  0  0
 34 36  1  0  0  0
M  END
> <minimizedAffinity>
-7.11967

$$$$
5J8Z_FC4_A_303


 36 38  0  0  0  0  0  0  0  0999 V2000
   -5.1229    6.5688    8.8356 S   0  0  0  0  0  0  0  0  0  0  0  0
   -3.9492    3.8223   11.4577 C   0  0  0  0  0  0  0  0  0  0  0  0
   -4.3520    4.4117   10.2876 N   0  0  0  0  0  0  0  0  0  0  0  0
   -3.7999    4.5147   12.6193 C   0  0  0  0  0  0  0  0  0  0  0  0
   -4.0861    5.9277   12.6290 C   0  0  0  0  0  0  0  0  0  0  0  0
   -3.9723    6.6646   13.6191 O   0  0  0  0  0  0  0  0  0  0  0  0
   -4.4952    6.4485   11.4185 N   0  0  0  0  0  0  0  0  0  0  0  0
   -4.6139    5.6965   10.2925 C   0  0  0  0  0  0  0  0  0  0  0  0
   -4.7107    7.4077   11.3681 H   0  0  0  0  0  0  0  0  0  0  0  0
   -4.7568    1.4517   11.4937 C   0  0  0  0  0  0  0  0  0  0  0  0
   -4.5213    0.0811   11.4804 C   0  0  0  0  0  0  0  0  0  0  0  0
   -3.2319   -0.3820   11.3106 C   0  0  0  0  0  0  0  0  0  0  0  0
   -2.9184   -2.0828   11.3067 Cl  0  0  0  0  0  0  0  0  0  0  0  0
   -2.1823    0.5003   11.1512 C   0  0  0  0  0  0  0  0  0  0  0  0
   -2.4314    1.8685   11.1624 C   0  0  0  0  0  0  0  0  0  0  0  0
   -3.7191    2.3641   11.3372 C   0  0  0  0  0  0  0  0  0  0  0  0
   -3.3235    3.8031   13.7522 C   0  0  0  0  0  0  0  0  0  0  0  0
   -2.9409    3.2252   14.6705 N   0  0  0  0  0  0  0  0  0  0  0  0
   -7.7326    6.6609    7.8557 C   0  0  0  0  0  0  0  0  0  0  0  0
   -6.8896    6.9732    9.0936 C   0  0  0  0  0  0  0  0  0  0  0  0
   -6.9884    8.4490    9.4820 C   0  0  0  0  0  0  0  0  0  0  0  0
   -7.2796    9.2706    8.4520 N   0  0  0  0  0  0  0  0  0  0  0  0
   -6.8100    8.8209   10.6196 O   0  0  0  0  0  0  0  0  0  0  0  0
   -7.1313    8.9015    7.5514 H   0  0  0  0  0  0  0  0  0  0  0  0
   -7.5991   12.9331    9.0134 C   0  0  0  0  0  0  0  0  0  0  0  0
   -7.0780   11.6558    9.0731 C   0  0  0  0  0  0  0  0  0  0  0  0
   -7.7697   10.5912    8.5040 C   0  0  0  0  0  0  0  0  0  0  0  0
   -8.9905   10.8262    7.8822 C   0  0  0  0  0  0  0  0  0  0  0  0
   -9.5057   12.1059    7.8323 C   0  0  0  0  0  0  0  0  0  0  0  0
   -8.8121   13.1586    8.3937 C   0  0  0  0  0  0  0  0  0  0  0  0
   -9.4568   14.7912    8.2911 S   0  0  0  0  0  0  0  0  0  0  0  0
   -8.3060   15.6408    8.2486 O   0  0  0  0  0  0  0  0  0  0  0  0
  -10.3342   14.8661    7.1644 O   0  0  0  0  0  0  0  0  0  0  0  0
  -10.2689   15.1327    9.6238 N   0  0  0  0  0  0  0  0  0  0  0  0
  -11.0967   14.5394    9.6789 H   0  0  0  0  0  0  0  0  0  0  0  0
  -10.5531   16.1122    9.6072 H   0  0  0  0  0  0  0  0  0  0  0  0
 13 12  1  0  0  0
 14 12  2  0  0  0
 14 15  1  0  0  0
 12 11  1  0  0  0
 15 16  2  0  0  0
 11 10  2  0  0  0
 16 10  1  0  0  0
 16  2  1  0  0  0
 18 17  3  0  0  0
 19 20  1  0  0  0
 17  4  1  0  0  0
  2  4  2  0  0  0
  2  3  1  0  0  0
  4  5  1  0  0  0
  3  8  2  0  0  0
 20 21  1  0  0  0
 20  1  1  0  0  0
  5  6  2  0  0  0
  5  7  1  0  0  0
 21 23  2  0  0  0
 21 22  1  0  0  0
  8  7  1  0  0  0
  8  1  1  0  0  0
 22 27  1  0  0  0
 27 26  2  0  0  0
 27 28  1  0  0  0
 26 25  1  0  0  0
 28 29  2  0  0  0
 25 30  2  0  0  0
 29 30  1  0  0  0
 30 31  1  0  0  0
 34 31  1  0  0  0
 33 31  2  0  0  0
 31 32  2  0  0  0
  7  9  1  0  0  0
 22 24  1  0  0  0
 34 35  1  0  0  0
 34 36  1  0  0  0
M  END
> <minimizedAffinity>
-6.81837

$$$$
