1EGH_PGA_A_201


 12 11  0  0  0  0  0  0  0  0999 V2000
   84.2352  -12.5441   66.4799 P   0  0  0  0  0  0  0  0  0  0  0  0
   84.4442  -11.1682   66.0098 O   0  0  0  0  0  0  0  0  0  0  0  0
   83.2516  -13.3846   65.7224 O   0  0  0  0  0  0  0  0  0  0  0  0
   84.0805  -12.6569   67.9471 O   0  0  0  0  0  0  0  0  0  0  0  0
   83.3971  -13.2732   64.7699 H   0  0  0  0  0  0  0  0  0  0  0  0
   84.7387  -12.0954   68.3858 H   0  0  0  0  0  0  0  0  0  0  0  0
   85.6321  -13.2353   66.1062 O   0  0  0  0  0  0  0  0  0  0  0  0
   85.8142  -14.5988   66.4215 C   0  0  0  0  0  0  0  0  0  0  0  0
   86.0035  -15.4357   65.1809 C   0  0  0  0  0  0  0  0  0  0  0  0
   85.0426  -15.5333   64.3864 O   0  0  0  0  0  0  0  0  0  0  0  0
   87.1131  -15.9921   64.9983 O   0  0  0  0  0  0  0  0  0  0  0  0
   87.7998  -15.8855   65.6268 H   0  0  0  0  0  0  0  0  0  0  0  0
  1  7  1  0  0  0
  1  2  2  0  0  0
  1  3  1  0  0  0
  1  4  1  0  0  0
  7  8  1  0  0  0
  8  9  1  0  0  0
  9 10  2  0  0  0
  9 11  1  0  0  0
  3  5  1  0  0  0
  4  6  1  0  0  0
 11 12  1  0  0  0
M  END
> <minimizedAffinity>
-6.91778

$$$$
1EGH_PGA_A_201


 12 11  0  0  0  0  0  0  0  0999 V2000
   84.2256  -12.5250   66.4625 P   0  0  0  0  0  0  0  0  0  0  0  0
   83.2796  -13.3373   65.6859 O   0  0  0  0  0  0  0  0  0  0  0  0
   84.1326  -12.6066   67.9566 O   0  0  0  0  0  0  0  0  0  0  0  0
   84.3670  -11.1374   65.9685 O   0  0  0  0  0  0  0  0  0  0  0  0
   84.0416  -13.5343   68.2247 H   0  0  0  0  0  0  0  0  0  0  0  0
   84.4226  -11.1430   65.0001 H   0  0  0  0  0  0  0  0  0  0  0  0
   85.6156  -13.2664   66.1673 O   0  0  0  0  0  0  0  0  0  0  0  0
   85.7192  -14.6434   66.4584 C   0  0  0  0  0  0  0  0  0  0  0  0
   85.9485  -15.4595   65.2107 C   0  0  0  0  0  0  0  0  0  0  0  0
   87.0431  -16.0522   65.0898 O   0  0  0  0  0  0  0  0  0  0  0  0
   85.0337  -15.5117   64.3535 O   0  0  0  0  0  0  0  0  0  0  0  0
   84.2322  -15.0475   64.4950 H   0  0  0  0  0  0  0  0  0  0  0  0
  1  7  1  0  0  0
  1  2  2  0  0  0
  1  3  1  0  0  0
  1  4  1  0  0  0
  7  8  1  0  0  0
  8  9  1  0  0  0
  9 10  2  0  0  0
  9 11  1  0  0  0
  3  5  1  0  0  0
  4  6  1  0  0  0
 11 12  1  0  0  0
M  END
> <minimizedAffinity>
-6.67204

$$$$
1EGH_PGA_A_201


 12 11  0  0  0  0  0  0  0  0999 V2000
   84.4592  -12.3836   66.5457 P   0  0  0  0  0  0  0  0  0  0  0  0
   84.4762  -11.0016   66.0480 O   0  0  0  0  0  0  0  0  0  0  0  0
   83.9965  -12.5981   67.9555 O   0  0  0  0  0  0  0  0  0  0  0  0
   85.6801  -13.1520   66.2164 O   0  0  0  0  0  0  0  0  0  0  0  0
   83.1968  -12.0733   68.1166 H   0  0  0  0  0  0  0  0  0  0  0  0
   85.9341  -12.9769   65.2967 H   0  0  0  0  0  0  0  0  0  0  0  0
   83.2631  -13.0256   65.6936 O   0  0  0  0  0  0  0  0  0  0  0  0
   83.5615  -14.0766   64.8002 C   0  0  0  0  0  0  0  0  0  0  0  0
   83.4351  -15.4244   65.4656 C   0  0  0  0  0  0  0  0  0  0  0  0
   82.3281  -16.0039   65.4122 O   0  0  0  0  0  0  0  0  0  0  0  0
   84.4426  -15.9059   66.0378 O   0  0  0  0  0  0  0  0  0  0  0  0
   85.2486  -15.4282   66.0477 H   0  0  0  0  0  0  0  0  0  0  0  0
  1  7  1  0  0  0
  1  2  2  0  0  0
  1  3  1  0  0  0
  1  4  1  0  0  0
  7  8  1  0  0  0
  8  9  1  0  0  0
  9 10  2  0  0  0
  9 11  1  0  0  0
  3  5  1  0  0  0
  4  6  1  0  0  0
 11 12  1  0  0  0
M  END
> <minimizedAffinity>
-6.22524

$$$$
1EGH_PGA_A_201


 12 11  0  0  0  0  0  0  0  0999 V2000
   84.4031  -12.4478   66.5588 P   0  0  0  0  0  0  0  0  0  0  0  0
   85.5667  -13.2860   66.2404 O   0  0  0  0  0  0  0  0  0  0  0  0
   84.3944  -11.0520   66.0118 O   0  0  0  0  0  0  0  0  0  0  0  0
   83.9902  -12.5135   67.9781 O   0  0  0  0  0  0  0  0  0  0  0  0
   84.6719  -11.0672   65.0824 H   0  0  0  0  0  0  0  0  0  0  0  0
   84.0137  -13.4352   68.2794 H   0  0  0  0  0  0  0  0  0  0  0  0
   83.2450  -13.1548   65.7056 O   0  0  0  0  0  0  0  0  0  0  0  0
   83.6160  -14.0093   64.6454 C   0  0  0  0  0  0  0  0  0  0  0  0
   83.2912  -15.4499   64.9531 C   0  0  0  0  0  0  0  0  0  0  0  0
   83.8259  -16.3353   64.2502 O   0  0  0  0  0  0  0  0  0  0  0  0
   82.5052  -15.6969   65.8995 O   0  0  0  0  0  0  0  0  0  0  0  0
   82.1324  -14.9940   66.3944 H   0  0  0  0  0  0  0  0  0  0  0  0
  1  7  1  0  0  0
  1  2  2  0  0  0
  1  3  1  0  0  0
  1  4  1  0  0  0
  7  8  1  0  0  0
  8  9  1  0  0  0
  9 10  2  0  0  0
  9 11  1  0  0  0
  3  5  1  0  0  0
  4  6  1  0  0  0
 11 12  1  0  0  0
M  END
> <minimizedAffinity>
-6.19656

$$$$
1EGH_PGA_A_201


 12 11  0  0  0  0  0  0  0  0999 V2000
   83.0032  -15.2626   64.4377 P   0  0  0  0  0  0  0  0  0  0  0  0
   82.2543  -14.5291   63.4086 O   0  0  0  0  0  0  0  0  0  0  0  0
   84.4443  -15.5622   64.1528 O   0  0  0  0  0  0  0  0  0  0  0  0
   82.2726  -16.4222   64.9955 O   0  0  0  0  0  0  0  0  0  0  0  0
   84.8735  -14.7713   63.7905 H   0  0  0  0  0  0  0  0  0  0  0  0
   81.3495  -16.1739   65.1602 H   0  0  0  0  0  0  0  0  0  0  0  0
   83.1072  -14.1730   65.6084 O   0  0  0  0  0  0  0  0  0  0  0  0
   84.3806  -13.6660   65.9451 C   0  0  0  0  0  0  0  0  0  0  0  0
   84.2784  -12.3689   66.7083 C   0  0  0  0  0  0  0  0  0  0  0  0
   84.0357  -12.4266   67.9338 O   0  0  0  0  0  0  0  0  0  0  0  0
   84.4446  -11.2931   66.0845 O   0  0  0  0  0  0  0  0  0  0  0  0
   84.6243  -11.3077   65.1650 H   0  0  0  0  0  0  0  0  0  0  0  0
  1  7  1  0  0  0
  1  2  2  0  0  0
  1  3  1  0  0  0
  1  4  1  0  0  0
  7  8  1  0  0  0
  8  9  1  0  0  0
  9 10  2  0  0  0
  9 11  1  0  0  0
  3  5  1  0  0  0
  4  6  1  0  0  0
 11 12  1  0  0  0
M  END
> <minimizedAffinity>
-6.19519

$$$$
1EGH_PGA_A_201


 12 11  0  0  0  0  0  0  0  0999 V2000
   83.0565  -15.1485   64.5236 P   0  0  0  0  0  0  0  0  0  0  0  0
   82.4737  -15.8193   65.6933 O   0  0  0  0  0  0  0  0  0  0  0  0
   82.1428  -14.8698   63.3681 O   0  0  0  0  0  0  0  0  0  0  0  0
   84.3622  -15.7047   64.1051 O   0  0  0  0  0  0  0  0  0  0  0  0
   81.3053  -14.5083   63.6981 H   0  0  0  0  0  0  0  0  0  0  0  0
   84.9113  -15.8654   64.8884 H   0  0  0  0  0  0  0  0  0  0  0  0
   83.3404  -13.6782   65.0950 O   0  0  0  0  0  0  0  0  0  0  0  0
   84.4855  -13.4762   65.8948 C   0  0  0  0  0  0  0  0  0  0  0  0
   84.3602  -12.2340   66.7413 C   0  0  0  0  0  0  0  0  0  0  0  0
   84.6012  -11.1308   66.2039 O   0  0  0  0  0  0  0  0  0  0  0  0
   84.0172  -12.3602   67.9415 O   0  0  0  0  0  0  0  0  0  0  0  0
   83.8486  -13.2120   68.2936 H   0  0  0  0  0  0  0  0  0  0  0  0
  1  7  1  0  0  0
  1  2  2  0  0  0
  1  3  1  0  0  0
  1  4  1  0  0  0
  7  8  1  0  0  0
  8  9  1  0  0  0
  9 10  2  0  0  0
  9 11  1  0  0  0
  3  5  1  0  0  0
  4  6  1  0  0  0
 11 12  1  0  0  0
M  END
> <minimizedAffinity>
-6.13958

$$$$
1EGH_PGA_A_201


 12 11  0  0  0  0  0  0  0  0999 V2000
   85.8372  -15.4413   65.5292 P   0  0  0  0  0  0  0  0  0  0  0  0
   84.6961  -15.4837   64.6051 O   0  0  0  0  0  0  0  0  0  0  0  0
   87.1956  -15.7052   64.9524 O   0  0  0  0  0  0  0  0  0  0  0  0
   85.6020  -16.1584   66.8020 O   0  0  0  0  0  0  0  0  0  0  0  0
   87.2958  -15.2127   64.1227 H   0  0  0  0  0  0  0  0  0  0  0  0
   84.7124  -15.9527   67.1293 H   0  0  0  0  0  0  0  0  0  0  0  0
   85.9156  -13.8803   65.8839 O   0  0  0  0  0  0  0  0  0  0  0  0
   84.9084  -13.3242   66.7013 C   0  0  0  0  0  0  0  0  0  0  0  0
   84.2998  -12.0946   66.0744 C   0  0  0  0  0  0  0  0  0  0  0  0
   84.7831  -10.9814   66.3762 O   0  0  0  0  0  0  0  0  0  0  0  0
   83.3417  -12.2413   65.2776 O   0  0  0  0  0  0  0  0  0  0  0  0
   83.0184  -13.0998   65.0867 H   0  0  0  0  0  0  0  0  0  0  0  0
  1  7  1  0  0  0
  1  2  2  0  0  0
  1  3  1  0  0  0
  1  4  1  0  0  0
  7  8  1  0  0  0
  8  9  1  0  0  0
  9 10  2  0  0  0
  9 11  1  0  0  0
  3  5  1  0  0  0
  4  6  1  0  0  0
 11 12  1  0  0  0
M  END
> <minimizedAffinity>
-5.70910

$$$$
1EGH_PGA_A_201


 12 11  0  0  0  0  0  0  0  0999 V2000
   82.8701  -15.3582   64.3273 P   0  0  0  0  0  0  0  0  0  0  0  0
   82.1013  -14.6858   63.2716 O   0  0  0  0  0  0  0  0  0  0  0  0
   84.3398  -15.5404   64.0939 O   0  0  0  0  0  0  0  0  0  0  0  0
   82.2160  -16.5737   64.8605 O   0  0  0  0  0  0  0  0  0  0  0  0
   84.7164  -14.7169   63.7460 H   0  0  0  0  0  0  0  0  0  0  0  0
   81.2706  -16.4008   64.9922 H   0  0  0  0  0  0  0  0  0  0  0  0
   82.8446  -14.2656   65.4996 O   0  0  0  0  0  0  0  0  0  0  0  0
   83.8767  -13.3041   65.5464 C   0  0  0  0  0  0  0  0  0  0  0  0
   84.8956  -13.6336   66.6087 C   0  0  0  0  0  0  0  0  0  0  0  0
   86.0739  -13.8448   66.2467 O   0  0  0  0  0  0  0  0  0  0  0  0
   84.5196  -13.6774   67.8050 O   0  0  0  0  0  0  0  0  0  0  0  0
   83.6232  -13.5105   68.0207 H   0  0  0  0  0  0  0  0  0  0  0  0
  1  7  1  0  0  0
  1  2  2  0  0  0
  1  3  1  0  0  0
  1  4  1  0  0  0
  7  8  1  0  0  0
  8  9  1  0  0  0
  9 10  2  0  0  0
  9 11  1  0  0  0
  3  5  1  0  0  0
  4  6  1  0  0  0
 11 12  1  0  0  0
M  END
> <minimizedAffinity>
-5.58510

$$$$
1EGH_PGA_A_201


 12 11  0  0  0  0  0  0  0  0999 V2000
   82.8827  -15.4636   64.1300 P   0  0  0  0  0  0  0  0  0  0  0  0
   82.3365  -15.9149   65.4169 O   0  0  0  0  0  0  0  0  0  0  0  0
   82.7967  -13.9982   63.8257 O   0  0  0  0  0  0  0  0  0  0  0  0
   82.4920  -16.3144   62.9841 O   0  0  0  0  0  0  0  0  0  0  0  0
   83.0626  -13.4894   64.6077 H   0  0  0  0  0  0  0  0  0  0  0  0
   82.5658  -17.2485   63.2350 H   0  0  0  0  0  0  0  0  0  0  0  0
   84.4565  -15.6740   64.3486 O   0  0  0  0  0  0  0  0  0  0  0  0
   85.1748  -14.6896   65.0606 C   0  0  0  0  0  0  0  0  0  0  0  0
   86.5558  -15.1692   65.4321 C   0  0  0  0  0  0  0  0  0  0  0  0
   87.1709  -14.5501   66.3279 O   0  0  0  0  0  0  0  0  0  0  0  0
   87.0241  -16.1666   64.8321 O   0  0  0  0  0  0  0  0  0  0  0  0
   86.5194  -16.5935   64.1680 H   0  0  0  0  0  0  0  0  0  0  0  0
  1  7  1  0  0  0
  1  2  2  0  0  0
  1  3  1  0  0  0
  1  4  1  0  0  0
  7  8  1  0  0  0
  8  9  1  0  0  0
  9 10  2  0  0  0
  9 11  1  0  0  0
  3  5  1  0  0  0
  4  6  1  0  0  0
 11 12  1  0  0  0
M  END
> <minimizedAffinity>
-4.87557

$$$$
1EGH_PGA_A_201


 12 11  0  0  0  0  0  0  0  0999 V2000
   85.6207  -15.0262   65.8926 P   0  0  0  0  0  0  0  0  0  0  0  0
   85.8094  -13.5829   66.0904 O   0  0  0  0  0  0  0  0  0  0  0  0
   85.7721  -15.9078   67.0957 O   0  0  0  0  0  0  0  0  0  0  0  0
   86.3087  -15.5600   64.6963 O   0  0  0  0  0  0  0  0  0  0  0  0
   85.3039  -15.5121   67.8475 H   0  0  0  0  0  0  0  0  0  0  0  0
   86.1788  -14.9531   63.9509 H   0  0  0  0  0  0  0  0  0  0  0  0
   84.0472  -15.1154   65.6013 O   0  0  0  0  0  0  0  0  0  0  0  0
   83.6075  -15.0782   64.2607 C   0  0  0  0  0  0  0  0  0  0  0  0
   82.2155  -15.6410   64.1164 C   0  0  0  0  0  0  0  0  0  0  0  0
   81.9761  -16.7545   64.6329 O   0  0  0  0  0  0  0  0  0  0  0  0
   81.3604  -14.9689   63.4908 O   0  0  0  0  0  0  0  0  0  0  0  0
   81.5940  -14.1392   63.1233 H   0  0  0  0  0  0  0  0  0  0  0  0
  1  7  1  0  0  0
  1  2  2  0  0  0
  1  3  1  0  0  0
  1  4  1  0  0  0
  7  8  1  0  0  0
  8  9  1  0  0  0
  9 10  2  0  0  0
  9 11  1  0  0  0
  3  5  1  0  0  0
  4  6  1  0  0  0
 11 12  1  0  0  0
M  END
> <minimizedAffinity>
-4.75093

$$$$
