1NVS_UCM_A_400


 31 38  0  0  0  0  0  0  0  0999 V2000
    5.4939   10.1125   19.7600 N   0  0  0  0  0  0  0  0  0  0  0  0
    4.1382    9.4386   19.6109 C   0  0  0  0  0  0  0  0  0  0  0  0
    3.1065    9.8446   20.1229 O   0  0  0  0  0  0  0  0  0  0  0  0
    4.2682    8.2484   18.7674 C   0  0  0  0  0  0  0  0  0  0  0  0
    3.2779    7.2982   18.3406 C   0  0  0  0  0  0  0  0  0  0  0  0
    1.8665    7.0942   18.5231 C   0  0  0  0  0  0  0  0  0  0  0  0
    1.5134    5.9218   17.7931 C   0  0  0  0  0  0  0  0  0  0  0  0
    0.1567    5.4410   17.7666 C   0  0  0  0  0  0  0  0  0  0  0  0
   -0.8717    6.1333   18.4759 C   0  0  0  0  0  0  0  0  0  0  0  0
   -0.5431    7.3081   19.2157 C   0  0  0  0  0  0  0  0  0  0  0  0
    0.8063    7.7778   19.2336 C   0  0  0  0  0  0  0  0  0  0  0  0
    2.6753    5.4343   17.1945 N   0  0  0  0  0  0  0  0  0  0  0  0
    3.7559    6.2480   17.5116 C   0  0  0  0  0  0  0  0  0  0  0  0
    5.0871    6.1279   17.1225 C   0  0  0  0  0  0  0  0  0  0  0  0
    5.6830    5.1599   16.3222 N   0  0  0  0  0  0  0  0  0  0  0  0
    7.0375    5.4158   16.1832 C   0  0  0  0  0  0  0  0  0  0  0  0
    7.3292    6.5987   16.9240 C   0  0  0  0  0  0  0  0  0  0  0  0
    8.6998    7.0605   16.9182 C   0  0  0  0  0  0  0  0  0  0  0  0
    9.7278    6.3763   16.2075 C   0  0  0  0  0  0  0  0  0  0  0  0
    9.4107    5.1958   15.4774 C   0  0  0  0  0  0  0  0  0  0  0  0
    8.0668    4.7153   15.4624 C   0  0  0  0  0  0  0  0  0  0  0  0
    6.0969    7.0396   17.5163 C   0  0  0  0  0  0  0  0  0  0  0  0
    5.6594    8.1213   18.3596 C   0  0  0  0  0  0  0  0  0  0  0  0
    6.4129    9.2271   18.9434 C   0  0  0  0  0  0  0  0  0  0  0  0
    7.6046    9.4246   18.8031 O   0  0  0  0  0  0  0  0  0  0  0  0
    4.9867    4.0081   15.6966 C   0  0  0  0  0  0  0  0  0  0  0  0
    3.9661    3.4935   16.5666 O   0  0  0  0  0  0  0  0  0  0  0  0
    2.7410    4.2144   16.3415 C   0  0  0  0  0  0  0  0  0  0  0  0
    2.7765    4.5847   14.8533 C   0  0  0  0  0  0  0  0  0  0  0  0
    4.2396    4.4474   14.4308 C   0  0  0  0  0  0  0  0  0  0  0  0
    5.7194   10.9270   20.2650 H   0  0  0  0  0  0  0  0  0  0  0  0
  1  2  1  0  0  0
  1 24  1  0  0  0
  2  3  2  0  0  0
  2  4  1  0  0  0
  4  5  2  0  0  0
  4 23  1  0  0  0
  5  6  1  0  0  0
  5 13  1  0  0  0
  6  7  2  0  0  0
  6 11  1  0  0  0
  7  8  1  0  0  0
  7 12  1  0  0  0
  8  9  2  0  0  0
  9 10  1  0  0  0
 10 11  2  0  0  0
 12 13  1  0  0  0
 12 28  1  0  0  0
 13 14  2  0  0  0
 14 15  1  0  0  0
 14 22  1  0  0  0
 15 16  1  0  0  0
 15 26  1  0  0  0
 16 17  2  0  0  0
 16 21  1  0  0  0
 17 18  1  0  0  0
 17 22  1  0  0  0
 18 19  2  0  0  0
 19 20  1  0  0  0
 20 21  2  0  0  0
 22 23  2  0  0  0
 23 24  1  0  0  0
 24 25  2  0  0  0
 26 27  1  0  0  0
 26 30  1  0  0  0
 27 28  1  0  0  0
 28 29  1  0  0  0
 29 30  1  0  0  0
  1 31  1  0  0  0
M  END
> <minimizedAffinity>
-11.83895

$$$$
1NVS_UCM_A_400


 31 38  0  0  0  0  0  0  0  0999 V2000
    5.4253   10.0895   19.9727 N   0  0  0  0  0  0  0  0  0  0  0  0
    6.3552    9.2745   19.0866 C   0  0  0  0  0  0  0  0  0  0  0  0
    7.5565    9.4695   18.9843 O   0  0  0  0  0  0  0  0  0  0  0  0
    5.5912    8.2359   18.3918 C   0  0  0  0  0  0  0  0  0  0  0  0
    6.0230    7.2287   17.4620 C   0  0  0  0  0  0  0  0  0  0  0  0
    7.2581    6.8207   16.8497 C   0  0  0  0  0  0  0  0  0  0  0  0
    6.9617    5.7126   16.0032 C   0  0  0  0  0  0  0  0  0  0  0  0
    7.9941    5.0606   15.2405 C   0  0  0  0  0  0  0  0  0  0  0  0
    9.3468    5.5130   15.3163 C   0  0  0  0  0  0  0  0  0  0  0  0
    9.6684    6.6216   16.1549 C   0  0  0  0  0  0  0  0  0  0  0  0
    8.6364    7.2602   16.9092 C   0  0  0  0  0  0  0  0  0  0  0  0
    5.5924    5.4649   16.1002 N   0  0  0  0  0  0  0  0  0  0  0  0
    5.0022    6.3689   16.9747 C   0  0  0  0  0  0  0  0  0  0  0  0
    3.6683    6.4727   17.3593 C   0  0  0  0  0  0  0  0  0  0  0  0
    2.5793    5.7044   16.9638 N   0  0  0  0  0  0  0  0  0  0  0  0
    1.4250    6.1451   17.5908 C   0  0  0  0  0  0  0  0  0  0  0  0
    1.7829    7.2434   18.4266 C   0  0  0  0  0  0  0  0  0  0  0  0
    0.7231    7.8664   19.1885 C   0  0  0  0  0  0  0  0  0  0  0  0
   -0.6266    7.4149   19.1204 C   0  0  0  0  0  0  0  0  0  0  0  0
   -0.9581    6.3175   18.2759 C   0  0  0  0  0  0  0  0  0  0  0  0
    0.0657    5.6804   17.5124 C   0  0  0  0  0  0  0  0  0  0  0  0
    3.1967    7.4467   18.2728 C   0  0  0  0  0  0  0  0  0  0  0  0
    4.1963    8.3429   18.7929 C   0  0  0  0  0  0  0  0  0  0  0  0
    4.0730    9.4475   19.7394 C   0  0  0  0  0  0  0  0  0  0  0  0
    3.0428    9.8114   20.2734 O   0  0  0  0  0  0  0  0  0  0  0  0
    2.6240    4.5703   16.0075 C   0  0  0  0  0  0  0  0  0  0  0  0
    3.5661    4.8266   14.9539 O   0  0  0  0  0  0  0  0  0  0  0  0
    4.8727    4.3861   15.3663 C   0  0  0  0  0  0  0  0  0  0  0  0
    4.6062    3.1827   16.2794 C   0  0  0  0  0  0  0  0  0  0  0  0
    3.1395    3.2997   16.6954 C   0  0  0  0  0  0  0  0  0  0  0  0
    5.6483   10.8502   20.5565 H   0  0  0  0  0  0  0  0  0  0  0  0
  1  2  1  0  0  0
  1 24  1  0  0  0
  2  3  2  0  0  0
  2  4  1  0  0  0
  4  5  2  0  0  0
  4 23  1  0  0  0
  5  6  1  0  0  0
  5 13  1  0  0  0
  6  7  2  0  0  0
  6 11  1  0  0  0
  7  8  1  0  0  0
  7 12  1  0  0  0
  8  9  2  0  0  0
  9 10  1  0  0  0
 10 11  2  0  0  0
 12 13  1  0  0  0
 12 28  1  0  0  0
 13 14  2  0  0  0
 14 15  1  0  0  0
 14 22  1  0  0  0
 15 16  1  0  0  0
 15 26  1  0  0  0
 16 17  2  0  0  0
 16 21  1  0  0  0
 17 18  1  0  0  0
 17 22  1  0  0  0
 18 19  2  0  0  0
 19 20  1  0  0  0
 20 21  2  0  0  0
 22 23  2  0  0  0
 23 24  1  0  0  0
 24 25  2  0  0  0
 26 27  1  0  0  0
 26 30  1  0  0  0
 27 28  1  0  0  0
 28 29  1  0  0  0
 29 30  1  0  0  0
  1 31  1  0  0  0
M  END
> <minimizedAffinity>
-11.36407

$$$$
1NVS_UCM_A_400


 31 38  0  0  0  0  0  0  0  0999 V2000
    3.3269    3.2275   15.3696 N   0  0  0  0  0  0  0  0  0  0  0  0
    4.7649    3.7239   15.3721 C   0  0  0  0  0  0  0  0  0  0  0  0
    5.6647    3.2334   14.7078 O   0  0  0  0  0  0  0  0  0  0  0  0
    4.8919    4.8655   16.2808 C   0  0  0  0  0  0  0  0  0  0  0  0
    6.0379    5.6666   16.6131 C   0  0  0  0  0  0  0  0  0  0  0  0
    7.4294    5.7141   16.2548 C   0  0  0  0  0  0  0  0  0  0  0  0
    8.0122    6.7974   16.9753 C   0  0  0  0  0  0  0  0  0  0  0  0
    9.4083    7.1198   16.8353 C   0  0  0  0  0  0  0  0  0  0  0  0
   10.2451    6.3561   15.9654 C   0  0  0  0  0  0  0  0  0  0  0  0
    9.6856    5.2656   15.2350 C   0  0  0  0  0  0  0  0  0  0  0  0
    8.2983    4.9555   15.3797 C   0  0  0  0  0  0  0  0  0  0  0  0
    7.0050    7.3797   17.7449 N   0  0  0  0  0  0  0  0  0  0  0  0
    5.8025    6.7132   17.5447 C   0  0  0  0  0  0  0  0  0  0  0  0
    4.5553    6.9677   18.1083 C   0  0  0  0  0  0  0  0  0  0  0  0
    4.1898    7.9491   19.0225 N   0  0  0  0  0  0  0  0  0  0  0  0
    2.8405    7.8513   19.3217 C   0  0  0  0  0  0  0  0  0  0  0  0
    2.3118    6.7616   18.5693 C   0  0  0  0  0  0  0  0  0  0  0  0
    0.9029    6.4739   18.7242 C   0  0  0  0  0  0  0  0  0  0  0  0
    0.0633    7.2366   19.5865 C   0  0  0  0  0  0  0  0  0  0  0  0
    0.6166    8.3183   20.3289 C   0  0  0  0  0  0  0  0  0  0  0  0
    2.0034    8.6283   20.1966 C   0  0  0  0  0  0  0  0  0  0  0  0
    3.3983    6.2072   17.8103 C   0  0  0  0  0  0  0  0  0  0  0  0
    3.5888    5.1330   16.8709 C   0  0  0  0  0  0  0  0  0  0  0  0
    2.6354    4.1632   16.3400 C   0  0  0  0  0  0  0  0  0  0  0  0
    1.4544    4.1024   16.6235 O   0  0  0  0  0  0  0  0  0  0  0  0
    5.0988    8.9660   19.6077 C   0  0  0  0  0  0  0  0  0  0  0  0
    6.4030    8.4116   19.8425 O   0  0  0  0  0  0  0  0  0  0  0  0
    7.1990    8.5465   18.6511 C   0  0  0  0  0  0  0  0  0  0  0  0
    6.7005    9.8408   17.9960 C   0  0  0  0  0  0  0  0  0  0  0  0
    5.3328   10.1173   18.6213 C   0  0  0  0  0  0  0  0  0  0  0  0
    2.9394    2.4793   14.8605 H   0  0  0  0  0  0  0  0  0  0  0  0
  1  2  1  0  0  0
  1 24  1  0  0  0
  2  3  2  0  0  0
  2  4  1  0  0  0
  4  5  2  0  0  0
  4 23  1  0  0  0
  5  6  1  0  0  0
  5 13  1  0  0  0
  6  7  2  0  0  0
  6 11  1  0  0  0
  7  8  1  0  0  0
  7 12  1  0  0  0
  8  9  2  0  0  0
  9 10  1  0  0  0
 10 11  2  0  0  0
 12 13  1  0  0  0
 12 28  1  0  0  0
 13 14  2  0  0  0
 14 15  1  0  0  0
 14 22  1  0  0  0
 15 16  1  0  0  0
 15 26  1  0  0  0
 16 17  2  0  0  0
 16 21  1  0  0  0
 17 18  1  0  0  0
 17 22  1  0  0  0
 18 19  2  0  0  0
 19 20  1  0  0  0
 20 21  2  0  0  0
 22 23  2  0  0  0
 23 24  1  0  0  0
 24 25  2  0  0  0
 26 27  1  0  0  0
 26 30  1  0  0  0
 27 28  1  0  0  0
 28 29  1  0  0  0
 29 30  1  0  0  0
  1 31  1  0  0  0
M  END
> <minimizedAffinity>
-10.74046

$$$$
1NVS_UCM_A_400


 31 38  0  0  0  0  0  0  0  0999 V2000
    3.6892    2.7959   15.7711 N   0  0  0  0  0  0  0  0  0  0  0  0
    2.3162    3.3129   16.1733 C   0  0  0  0  0  0  0  0  0  0  0  0
    1.2700    2.7128   15.9809 O   0  0  0  0  0  0  0  0  0  0  0  0
    2.4502    4.6205   16.8191 C   0  0  0  0  0  0  0  0  0  0  0  0
    1.4492    5.4941   17.3674 C   0  0  0  0  0  0  0  0  0  0  0  0
    0.0194    5.4944   17.5171 C   0  0  0  0  0  0  0  0  0  0  0  0
   -0.3341    6.7087   18.1750 C   0  0  0  0  0  0  0  0  0  0  0  0
   -1.7064    7.0180   18.4811 C   0  0  0  0  0  0  0  0  0  0  0  0
   -2.7502    6.1084   18.1303 C   0  0  0  0  0  0  0  0  0  0  0  0
   -2.4221    4.8873   17.4693 C   0  0  0  0  0  0  0  0  0  0  0  0
   -1.0567    4.5893   17.1719 C   0  0  0  0  0  0  0  0  0  0  0  0
    0.8443    7.4173   18.4095 N   0  0  0  0  0  0  0  0  0  0  0  0
    1.9361    6.7048   17.9291 C   0  0  0  0  0  0  0  0  0  0  0  0
    3.2861    7.0430   17.9616 C   0  0  0  0  0  0  0  0  0  0  0  0
    3.8924    8.1834   18.4758 N   0  0  0  0  0  0  0  0  0  0  0  0
    5.2657    8.1188   18.3042 C   0  0  0  0  0  0  0  0  0  0  0  0
    5.5593    6.8852   17.6523 C   0  0  0  0  0  0  0  0  0  0  0  0
    6.9494    6.6009   17.3716 C   0  0  0  0  0  0  0  0  0  0  0  0
    7.9944    7.5027   17.7249 C   0  0  0  0  0  0  0  0  0  0  0  0
    7.6742    8.7294   18.3730 C   0  0  0  0  0  0  0  0  0  0  0  0
    6.3118    9.0383   18.6651 C   0  0  0  0  0  0  0  0  0  0  0  0
    4.3074    6.2145   17.4360 C   0  0  0  0  0  0  0  0  0  0  0  0
    3.8611    4.9756   16.8540 C   0  0  0  0  0  0  0  0  0  0  0  0
    4.6226    3.8973   16.2306 C   0  0  0  0  0  0  0  0  0  0  0  0
    5.8307    3.8702   16.0938 O   0  0  0  0  0  0  0  0  0  0  0  0
    3.1884    9.3201   19.1202 C   0  0  0  0  0  0  0  0  0  0  0  0
    1.9291    9.5728   18.4768 O   0  0  0  0  0  0  0  0  0  0  0  0
    0.9142    8.7477   19.0770 C   0  0  0  0  0  0  0  0  0  0  0  0
    1.3454    8.6061   20.5422 C   0  0  0  0  0  0  0  0  0  0  0  0
    2.8272    8.9824   20.5724 C   0  0  0  0  0  0  0  0  0  0  0  0
    3.9163    1.9503   15.3211 H   0  0  0  0  0  0  0  0  0  0  0  0
  1  2  1  0  0  0
  1 24  1  0  0  0
  2  3  2  0  0  0
  2  4  1  0  0  0
  4  5  2  0  0  0
  4 23  1  0  0  0
  5  6  1  0  0  0
  5 13  1  0  0  0
  6  7  2  0  0  0
  6 11  1  0  0  0
  7  8  1  0  0  0
  7 12  1  0  0  0
  8  9  2  0  0  0
  9 10  1  0  0  0
 10 11  2  0  0  0
 12 13  1  0  0  0
 12 28  1  0  0  0
 13 14  2  0  0  0
 14 15  1  0  0  0
 14 22  1  0  0  0
 15 16  1  0  0  0
 15 26  1  0  0  0
 16 17  2  0  0  0
 16 21  1  0  0  0
 17 18  1  0  0  0
 17 22  1  0  0  0
 18 19  2  0  0  0
 19 20  1  0  0  0
 20 21  2  0  0  0
 22 23  2  0  0  0
 23 24  1  0  0  0
 24 25  2  0  0  0
 26 27  1  0  0  0
 26 30  1  0  0  0
 27 28  1  0  0  0
 28 29  1  0  0  0
 29 30  1  0  0  0
  1 31  1  0  0  0
M  END
> <minimizedAffinity>
-10.32209

$$$$
1NVS_UCM_A_400


 31 38  0  0  0  0  0  0  0  0999 V2000
    0.8398    4.3269   17.0091 N   0  0  0  0  0  0  0  0  0  0  0  0
    1.6625    5.4416   17.6375 C   0  0  0  0  0  0  0  0  0  0  0  0
    1.2405    6.2192   18.4794 O   0  0  0  0  0  0  0  0  0  0  0  0
    3.0175    5.4290   17.0819 C   0  0  0  0  0  0  0  0  0  0  0  0
    4.1454    6.2747   17.3618 C   0  0  0  0  0  0  0  0  0  0  0  0
    4.4351    7.3963   18.2133 C   0  0  0  0  0  0  0  0  0  0  0  0
    5.7958    7.7558   17.9865 C   0  0  0  0  0  0  0  0  0  0  0  0
    6.4051    8.8511   18.6948 C   0  0  0  0  0  0  0  0  0  0  0  0
    5.6541    9.6060   19.6468 C   0  0  0  0  0  0  0  0  0  0  0  0
    4.2897    9.2670   19.8899 C   0  0  0  0  0  0  0  0  0  0  0  0
    3.6954    8.1768   19.1828 C   0  0  0  0  0  0  0  0  0  0  0  0
    6.3065    6.8815   17.0269 N   0  0  0  0  0  0  0  0  0  0  0  0
    5.3279    5.9778   16.6323 C   0  0  0  0  0  0  0  0  0  0  0  0
    5.4142    4.9413   15.7069 C   0  0  0  0  0  0  0  0  0  0  0  0
    6.4985    4.5455   14.9322 N   0  0  0  0  0  0  0  0  0  0  0  0
    6.1554    3.4615   14.1403 C   0  0  0  0  0  0  0  0  0  0  0  0
    4.7930    3.1433   14.4149 C   0  0  0  0  0  0  0  0  0  0  0  0
    4.2168    2.0291   13.6950 C   0  0  0  0  0  0  0  0  0  0  0  0
    4.9638    1.2697   12.7487 C   0  0  0  0  0  0  0  0  0  0  0  0
    6.3222    1.6097   12.4907 C   0  0  0  0  0  0  0  0  0  0  0  0
    6.9200    2.7031   13.1863 C   0  0  0  0  0  0  0  0  0  0  0  0
    4.3313    4.0819   15.3997 C   0  0  0  0  0  0  0  0  0  0  0  0
    3.1096    4.3459   16.1142 C   0  0  0  0  0  0  0  0  0  0  0  0
    1.8160    3.6720   16.0533 C   0  0  0  0  0  0  0  0  0  0  0  0
    1.5451    2.7211   15.3454 O   0  0  0  0  0  0  0  0  0  0  0  0
    7.8404    5.1794   14.9364 C   0  0  0  0  0  0  0  0  0  0  0  0
    7.7333    6.6026   15.0998 O   0  0  0  0  0  0  0  0  0  0  0  0
    7.7010    6.9193   16.5033 C   0  0  0  0  0  0  0  0  0  0  0  0
    8.5666    5.8394   17.1648 C   0  0  0  0  0  0  0  0  0  0  0  0
    8.6611    4.7059   16.1428 C   0  0  0  0  0  0  0  0  0  0  0  0
   -0.0997    4.0887   17.1817 H   0  0  0  0  0  0  0  0  0  0  0  0
  1  2  1  0  0  0
  1 24  1  0  0  0
  2  3  2  0  0  0
  2  4  1  0  0  0
  4  5  2  0  0  0
  4 23  1  0  0  0
  5  6  1  0  0  0
  5 13  1  0  0  0
  6  7  2  0  0  0
  6 11  1  0  0  0
  7  8  1  0  0  0
  7 12  1  0  0  0
  8  9  2  0  0  0
  9 10  1  0  0  0
 10 11  2  0  0  0
 12 13  1  0  0  0
 12 28  1  0  0  0
 13 14  2  0  0  0
 14 15  1  0  0  0
 14 22  1  0  0  0
 15 16  1  0  0  0
 15 26  1  0  0  0
 16 17  2  0  0  0
 16 21  1  0  0  0
 17 18  1  0  0  0
 17 22  1  0  0  0
 18 19  2  0  0  0
 19 20  1  0  0  0
 20 21  2  0  0  0
 22 23  2  0  0  0
 23 24  1  0  0  0
 24 25  2  0  0  0
 26 27  1  0  0  0
 26 30  1  0  0  0
 27 28  1  0  0  0
 28 29  1  0  0  0
 29 30  1  0  0  0
  1 31  1  0  0  0
M  END
> <minimizedAffinity>
-10.16395

$$$$
1NVS_UCM_A_400


 31 38  0  0  0  0  0  0  0  0999 V2000
    0.8929    5.9963   18.4052 N   0  0  0  0  0  0  0  0  0  0  0  0
    2.1952    6.7731   18.5260 C   0  0  0  0  0  0  0  0  0  0  0  0
    2.3662    7.7194   19.2789 O   0  0  0  0  0  0  0  0  0  0  0  0
    3.1924    6.2109   17.6125 C   0  0  0  0  0  0  0  0  0  0  0  0
    4.5560    6.5965   17.3726 C   0  0  0  0  0  0  0  0  0  0  0  0
    5.4683    7.5968   17.8564 C   0  0  0  0  0  0  0  0  0  0  0  0
    6.7045    7.4038   17.1732 C   0  0  0  0  0  0  0  0  0  0  0  0
    7.8402    8.2489   17.4351 C   0  0  0  0  0  0  0  0  0  0  0  0
    7.7522    9.3058   18.3918 C   0  0  0  0  0  0  0  0  0  0  0  0
    6.5250    9.5204   19.0872 C   0  0  0  0  0  0  0  0  0  0  0  0
    5.4045    8.6745   18.8211 C   0  0  0  0  0  0  0  0  0  0  0  0
    6.5398    6.3253   16.3040 N   0  0  0  0  0  0  0  0  0  0  0  0
    5.2491    5.8210   16.4047 C   0  0  0  0  0  0  0  0  0  0  0  0
    4.6700    4.7534   15.7244 C   0  0  0  0  0  0  0  0  0  0  0  0
    5.2290    3.9193   14.7630 N   0  0  0  0  0  0  0  0  0  0  0  0
    4.3025    2.9786   14.3428 C   0  0  0  0  0  0  0  0  0  0  0  0
    3.0946    3.2143   15.0629 C   0  0  0  0  0  0  0  0  0  0  0  0
    1.9779    2.3384   14.7843 C   0  0  0  0  0  0  0  0  0  0  0  0
    2.0630    1.2794   13.8350 C   0  0  0  0  0  0  0  0  0  0  0  0
    3.2801    1.0668   13.1273 C   0  0  0  0  0  0  0  0  0  0  0  0
    4.4007    1.9133   13.3809 C   0  0  0  0  0  0  0  0  0  0  0  0
    3.3321    4.3361   15.9284 C   0  0  0  0  0  0  0  0  0  0  0  0
    2.5886    5.0945   16.9004 C   0  0  0  0  0  0  0  0  0  0  0  0
    1.2103    4.9477   17.3587 C   0  0  0  0  0  0  0  0  0  0  0  0
    0.4194    4.1102   16.9690 O   0  0  0  0  0  0  0  0  0  0  0  0
    6.6174    4.0064   14.2457 C   0  0  0  0  0  0  0  0  0  0  0  0
    7.0395    5.3755   14.1417 O   0  0  0  0  0  0  0  0  0  0  0  0
    7.5991    5.7976   15.3986 C   0  0  0  0  0  0  0  0  0  0  0  0
    8.2413    4.5326   15.9818 C   0  0  0  0  0  0  0  0  0  0  0  0
    7.6046    3.3641   15.2286 C   0  0  0  0  0  0  0  0  0  0  0  0
    0.0481    6.1400   18.8899 H   0  0  0  0  0  0  0  0  0  0  0  0
  1  2  1  0  0  0
  1 24  1  0  0  0
  2  3  2  0  0  0
  2  4  1  0  0  0
  4  5  2  0  0  0
  4 23  1  0  0  0
  5  6  1  0  0  0
  5 13  1  0  0  0
  6  7  2  0  0  0
  6 11  1  0  0  0
  7  8  1  0  0  0
  7 12  1  0  0  0
  8  9  2  0  0  0
  9 10  1  0  0  0
 10 11  2  0  0  0
 12 13  1  0  0  0
 12 28  1  0  0  0
 13 14  2  0  0  0
 14 15  1  0  0  0
 14 22  1  0  0  0
 15 16  1  0  0  0
 15 26  1  0  0  0
 16 17  2  0  0  0
 16 21  1  0  0  0
 17 18  1  0  0  0
 17 22  1  0  0  0
 18 19  2  0  0  0
 19 20  1  0  0  0
 20 21  2  0  0  0
 22 23  2  0  0  0
 23 24  1  0  0  0
 24 25  2  0  0  0
 26 27  1  0  0  0
 26 30  1  0  0  0
 27 28  1  0  0  0
 28 29  1  0  0  0
 29 30  1  0  0  0
  1 31  1  0  0  0
M  END
> <minimizedAffinity>
-10.01721

$$$$
1NVS_UCM_A_400


 31 38  0  0  0  0  0  0  0  0999 V2000
    9.6323    6.1191   16.8105 N   0  0  0  0  0  0  0  0  0  0  0  0
    8.9720    5.1395   15.8521 C   0  0  0  0  0  0  0  0  0  0  0  0
    9.5808    4.3704   15.1246 O   0  0  0  0  0  0  0  0  0  0  0  0
    7.5156    5.2640   15.9441 C   0  0  0  0  0  0  0  0  0  0  0  0
    6.4760    4.5573   15.2474 C   0  0  0  0  0  0  0  0  0  0  0  0
    6.3897    3.5242   14.2513 C   0  0  0  0  0  0  0  0  0  0  0  0
    5.0048    3.2891   14.0085 C   0  0  0  0  0  0  0  0  0  0  0  0
    4.5730    2.2997   13.0560 C   0  0  0  0  0  0  0  0  0  0  0  0
    5.5294    1.5271   12.3291 C   0  0  0  0  0  0  0  0  0  0  0  0
    6.9215    1.7454   12.5529 C   0  0  0  0  0  0  0  0  0  0  0  0
    7.3392    2.7284   13.5020 C   0  0  0  0  0  0  0  0  0  0  0  0
    4.2819    4.1553   14.8288 N   0  0  0  0  0  0  0  0  0  0  0  0
    5.1484    4.9335   15.5863 C   0  0  0  0  0  0  0  0  0  0  0  0
    4.8494    5.9140   16.5281 C   0  0  0  0  0  0  0  0  0  0  0  0
    3.6076    6.3746   16.9506 N   0  0  0  0  0  0  0  0  0  0  0  0
    3.7603    7.3624   17.9100 C   0  0  0  0  0  0  0  0  0  0  0  0
    5.1589    7.5476   18.1167 C   0  0  0  0  0  0  0  0  0  0  0  0
    5.5570    8.5405   19.0901 C   0  0  0  0  0  0  0  0  0  0  0  0
    4.6064    9.3095   19.8216 C   0  0  0  0  0  0  0  0  0  0  0  0
    3.2154    9.1070   19.5946 C   0  0  0  0  0  0  0  0  0  0  0  0
    2.7905    8.1333   18.6415 C   0  0  0  0  0  0  0  0  0  0  0  0
    5.8389    6.6349   17.2401 C   0  0  0  0  0  0  0  0  0  0  0  0
    7.2012    6.2887   16.9285 C   0  0  0  0  0  0  0  0  0  0  0  0
    8.4544    6.8158   17.4605 C   0  0  0  0  0  0  0  0  0  0  0  0
    8.5557    7.6859   18.3039 O   0  0  0  0  0  0  0  0  0  0  0  0
    2.2937    5.8918   16.4572 C   0  0  0  0  0  0  0  0  0  0  0  0
    2.3537    5.5900   15.0541 O   0  0  0  0  0  0  0  0  0  0  0  0
    2.7946    4.2314   14.8780 C   0  0  0  0  0  0  0  0  0  0  0  0
    2.2455    3.4838   16.0997 C   0  0  0  0  0  0  0  0  0  0  0  0
    1.9153    4.5655   17.1288 C   0  0  0  0  0  0  0  0  0  0  0  0
   10.5928    6.2650   16.9699 H   0  0  0  0  0  0  0  0  0  0  0  0
  1  2  1  0  0  0
  1 24  1  0  0  0
  2  3  2  0  0  0
  2  4  1  0  0  0
  4  5  2  0  0  0
  4 23  1  0  0  0
  5  6  1  0  0  0
  5 13  1  0  0  0
  6  7  2  0  0  0
  6 11  1  0  0  0
  7  8  1  0  0  0
  7 12  1  0  0  0
  8  9  2  0  0  0
  9 10  1  0  0  0
 10 11  2  0  0  0
 12 13  1  0  0  0
 12 28  1  0  0  0
 13 14  2  0  0  0
 14 15  1  0  0  0
 14 22  1  0  0  0
 15 16  1  0  0  0
 15 26  1  0  0  0
 16 17  2  0  0  0
 16 21  1  0  0  0
 17 18  1  0  0  0
 17 22  1  0  0  0
 18 19  2  0  0  0
 19 20  1  0  0  0
 20 21  2  0  0  0
 22 23  2  0  0  0
 23 24  1  0  0  0
 24 25  2  0  0  0
 26 27  1  0  0  0
 26 30  1  0  0  0
 27 28  1  0  0  0
 28 29  1  0  0  0
 29 30  1  0  0  0
  1 31  1  0  0  0
M  END
> <minimizedAffinity>
-9.82793

$$$$
1NVS_UCM_A_400


 31 38  0  0  0  0  0  0  0  0999 V2000
    3.5746    2.7661   15.4877 N   0  0  0  0  0  0  0  0  0  0  0  0
    4.5716    3.7923   16.0044 C   0  0  0  0  0  0  0  0  0  0  0  0
    5.7728    3.7570   15.7865 O   0  0  0  0  0  0  0  0  0  0  0  0
    3.8703    4.8117   16.7879 C   0  0  0  0  0  0  0  0  0  0  0  0
    4.3753    5.9731   17.4674 C   0  0  0  0  0  0  0  0  0  0  0  0
    5.6524    6.6002   17.6740 C   0  0  0  0  0  0  0  0  0  0  0  0
    5.4262    7.7633   18.4667 C   0  0  0  0  0  0  0  0  0  0  0  0
    6.5130    8.6255   18.8515 C   0  0  0  0  0  0  0  0  0  0  0  0
    7.8503    8.3322   18.4443 C   0  0  0  0  0  0  0  0  0  0  0  0
    8.1026    7.1726   17.6522 C   0  0  0  0  0  0  0  0  0  0  0  0
    7.0164    6.3248   17.2741 C   0  0  0  0  0  0  0  0  0  0  0  0
    4.0584    7.8312   18.7316 N   0  0  0  0  0  0  0  0  0  0  0  0
    3.4015    6.7595   18.1397 C   0  0  0  0  0  0  0  0  0  0  0  0
    2.0445    6.4490   18.1511 C   0  0  0  0  0  0  0  0  0  0  0  0
    0.9952    7.1254   18.7627 N   0  0  0  0  0  0  0  0  0  0  0  0
   -0.2038    6.4740   18.5226 C   0  0  0  0  0  0  0  0  0  0  0  0
    0.0823    5.3293   17.7222 C   0  0  0  0  0  0  0  0  0  0  0  0
   -1.0348    4.4924   17.3431 C   0  0  0  0  0  0  0  0  0  0  0  0
   -2.3710    4.7842   17.7423 C   0  0  0  0  0  0  0  0  0  0  0  0
   -2.6296    5.9323   18.5438 C   0  0  0  0  0  0  0  0  0  0  0  0
   -1.5486    6.7789   18.9331 C   0  0  0  0  0  0  0  0  0  0  0  0
    1.5008    5.3176   17.4953 C   0  0  0  0  0  0  0  0  0  0  0  0
    2.4513    4.4888   16.8008 C   0  0  0  0  0  0  0  0  0  0  0  0
    2.2506    3.2662   16.0285 C   0  0  0  0  0  0  0  0  0  0  0  0
    1.1828    2.7170   15.8360 O   0  0  0  0  0  0  0  0  0  0  0  0
    1.1192    8.3688   19.5635 C   0  0  0  0  0  0  0  0  0  0  0  0
    2.3321    8.3628   20.3331 O   0  0  0  0  0  0  0  0  0  0  0  0
    3.4035    8.9004   19.5367 C   0  0  0  0  0  0  0  0  0  0  0  0
    2.7299    9.9377   18.6294 C   0  0  0  0  0  0  0  0  0  0  0  0
    1.2400    9.5943   18.6488 C   0  0  0  0  0  0  0  0  0  0  0  0
    3.7477    1.9697   14.9355 H   0  0  0  0  0  0  0  0  0  0  0  0
  1  2  1  0  0  0
  1 24  1  0  0  0
  2  3  2  0  0  0
  2  4  1  0  0  0
  4  5  2  0  0  0
  4 23  1  0  0  0
  5  6  1  0  0  0
  5 13  1  0  0  0
  6  7  2  0  0  0
  6 11  1  0  0  0
  7  8  1  0  0  0
  7 12  1  0  0  0
  8  9  2  0  0  0
  9 10  1  0  0  0
 10 11  2  0  0  0
 12 13  1  0  0  0
 12 28  1  0  0  0
 13 14  2  0  0  0
 14 15  1  0  0  0
 14 22  1  0  0  0
 15 16  1  0  0  0
 15 26  1  0  0  0
 16 17  2  0  0  0
 16 21  1  0  0  0
 17 18  1  0  0  0
 17 22  1  0  0  0
 18 19  2  0  0  0
 19 20  1  0  0  0
 20 21  2  0  0  0
 22 23  2  0  0  0
 23 24  1  0  0  0
 24 25  2  0  0  0
 26 27  1  0  0  0
 26 30  1  0  0  0
 27 28  1  0  0  0
 28 29  1  0  0  0
 29 30  1  0  0  0
  1 31  1  0  0  0
M  END
> <minimizedAffinity>
-9.64679

$$$$
1NVS_UCM_A_400


 31 38  0  0  0  0  0  0  0  0999 V2000
    3.1814    2.7199   15.4327 N   0  0  0  0  0  0  0  0  0  0  0  0
    2.3894    3.6982   16.2871 C   0  0  0  0  0  0  0  0  0  0  0  0
    1.2020    3.5812   16.5479 O   0  0  0  0  0  0  0  0  0  0  0  0
    3.2659    4.7805   16.7400 C   0  0  0  0  0  0  0  0  0  0  0  0
    2.9826    5.9241   17.5632 C   0  0  0  0  0  0  0  0  0  0  0  0
    1.8421    6.4760   18.2427 C   0  0  0  0  0  0  0  0  0  0  0  0
    2.2778    7.6648   18.8978 C   0  0  0  0  0  0  0  0  0  0  0  0
    1.3676    8.4618   19.6780 C   0  0  0  0  0  0  0  0  0  0  0  0
   -0.0009    8.0758   19.8136 C   0  0  0  0  0  0  0  0  0  0  0  0
   -0.4617    6.8911   19.1656 C   0  0  0  0  0  0  0  0  0  0  0  0
    0.4506    6.1062   18.3953 C   0  0  0  0  0  0  0  0  0  0  0  0
    3.6350    7.8247   18.6181 N   0  0  0  0  0  0  0  0  0  0  0  0
    4.0842    6.7862   17.8118 C   0  0  0  0  0  0  0  0  0  0  0  0
    5.3613    6.5584   17.3068 C   0  0  0  0  0  0  0  0  0  0  0  0
    6.5170    7.3134   17.4713 N   0  0  0  0  0  0  0  0  0  0  0  0
    7.5762    6.7271   16.7976 C   0  0  0  0  0  0  0  0  0  0  0  0
    7.0849    5.5438   16.1720 C   0  0  0  0  0  0  0  0  0  0  0  0
    8.0295    4.7602   15.4068 C   0  0  0  0  0  0  0  0  0  0  0  0
    9.3967    5.1384   15.2735 C   0  0  0  0  0  0  0  0  0  0  0  0
    9.8616    6.3263   15.9062 C   0  0  0  0  0  0  0  0  0  0  0  0
    8.9542    7.1203   16.6697 C   0  0  0  0  0  0  0  0  0  0  0  0
    5.6882    5.4459   16.4937 C   0  0  0  0  0  0  0  0  0  0  0  0
    4.6017    4.5439   16.2130 C   0  0  0  0  0  0  0  0  0  0  0  0
    4.5747    3.3148   15.4256 C   0  0  0  0  0  0  0  0  0  0  0  0
    5.5237    2.8250   14.8439 O   0  0  0  0  0  0  0  0  0  0  0  0
    6.6232    8.5710   18.2523 C   0  0  0  0  0  0  0  0  0  0  0  0
    5.4299    9.3592   18.1173 O   0  0  0  0  0  0  0  0  0  0  0  0
    4.4750    8.9512   19.1137 C   0  0  0  0  0  0  0  0  0  0  0  0
    5.3271    8.5162   20.3127 C   0  0  0  0  0  0  0  0  0  0  0  0
    6.7288    8.2713   19.7530 C   0  0  0  0  0  0  0  0  0  0  0  0
    2.8650    1.8988   14.9911 H   0  0  0  0  0  0  0  0  0  0  0  0
  1  2  1  0  0  0
  1 24  1  0  0  0
  2  3  2  0  0  0
  2  4  1  0  0  0
  4  5  2  0  0  0
  4 23  1  0  0  0
  5  6  1  0  0  0
  5 13  1  0  0  0
  6  7  2  0  0  0
  6 11  1  0  0  0
  7  8  1  0  0  0
  7 12  1  0  0  0
  8  9  2  0  0  0
  9 10  1  0  0  0
 10 11  2  0  0  0
 12 13  1  0  0  0
 12 28  1  0  0  0
 13 14  2  0  0  0
 14 15  1  0  0  0
 14 22  1  0  0  0
 15 16  1  0  0  0
 15 26  1  0  0  0
 16 17  2  0  0  0
 16 21  1  0  0  0
 17 18  1  0  0  0
 17 22  1  0  0  0
 18 19  2  0  0  0
 19 20  1  0  0  0
 20 21  2  0  0  0
 22 23  2  0  0  0
 23 24  1  0  0  0
 24 25  2  0  0  0
 26 27  1  0  0  0
 26 30  1  0  0  0
 27 28  1  0  0  0
 28 29  1  0  0  0
 29 30  1  0  0  0
  1 31  1  0  0  0
M  END
> <minimizedAffinity>
-9.18248

$$$$
1NVS_UCM_A_400


 31 38  0  0  0  0  0  0  0  0999 V2000
    8.5350    4.5587   14.8917 N   0  0  0  0  0  0  0  0  0  0  0  0
    8.2673    5.7644   15.7799 C   0  0  0  0  0  0  0  0  0  0  0  0
    9.0977    6.6170   16.0536 O   0  0  0  0  0  0  0  0  0  0  0  0
    6.8778    5.7387   16.2421 C   0  0  0  0  0  0  0  0  0  0  0  0
    6.1620    6.6538   17.0881 C   0  0  0  0  0  0  0  0  0  0  0  0
    6.4425    7.8742   17.7945 C   0  0  0  0  0  0  0  0  0  0  0  0
    5.2408    8.2629   18.4556 C   0  0  0  0  0  0  0  0  0  0  0  0
    5.1836    9.4588   19.2550 C   0  0  0  0  0  0  0  0  0  0  0  0
    6.3375   10.2874   19.4036 C   0  0  0  0  0  0  0  0  0  0  0  0
    7.5528    9.9185   18.7534 C   0  0  0  0  0  0  0  0  0  0  0  0
    7.5980    8.7306   17.9607 C   0  0  0  0  0  0  0  0  0  0  0  0
    4.2705    7.3053   18.1598 N   0  0  0  0  0  0  0  0  0  0  0  0
    4.8031    6.3215   17.3361 C   0  0  0  0  0  0  0  0  0  0  0  0
    4.1835    5.1939   16.8044 C   0  0  0  0  0  0  0  0  0  0  0  0
    2.8741    4.7551   16.9647 N   0  0  0  0  0  0  0  0  0  0  0  0
    2.6688    3.5812   16.2580 C   0  0  0  0  0  0  0  0  0  0  0  0
    3.8963    3.2476   15.6137 C   0  0  0  0  0  0  0  0  0  0  0  0
    3.9144    2.0466   14.8081 C   0  0  0  0  0  0  0  0  0  0  0  0
    2.7642    1.2202   14.6525 C   0  0  0  0  0  0  0  0  0  0  0  0
    1.5512    1.5742   15.3087 C   0  0  0  0  0  0  0  0  0  0  0  0
    1.5008    2.7544   16.1096 C   0  0  0  0  0  0  0  0  0  0  0  0
    4.8470    4.2656   15.9655 C   0  0  0  0  0  0  0  0  0  0  0  0
    6.2284    4.5604   15.6871 C   0  0  0  0  0  0  0  0  0  0  0  0
    7.2027    3.8376   14.8750 C   0  0  0  0  0  0  0  0  0  0  0  0
    6.9916    2.8065   14.2658 O   0  0  0  0  0  0  0  0  0  0  0  0
    1.8293    5.4315   17.7732 C   0  0  0  0  0  0  0  0  0  0  0  0
    2.3958    6.0115   18.9590 O   0  0  0  0  0  0  0  0  0  0  0  0
    2.8677    7.3380   18.6612 C   0  0  0  0  0  0  0  0  0  0  0  0
    1.9096    7.8575   17.5818 C   0  0  0  0  0  0  0  0  0  0  0  0
    1.2294    6.6157   17.0044 C   0  0  0  0  0  0  0  0  0  0  0  0
    9.3717    4.3078   14.4375 H   0  0  0  0  0  0  0  0  0  0  0  0
  1  2  1  0  0  0
  1 24  1  0  0  0
  2  3  2  0  0  0
  2  4  1  0  0  0
  4  5  2  0  0  0
  4 23  1  0  0  0
  5  6  1  0  0  0
  5 13  1  0  0  0
  6  7  2  0  0  0
  6 11  1  0  0  0
  7  8  1  0  0  0
  7 12  1  0  0  0
  8  9  2  0  0  0
  9 10  1  0  0  0
 10 11  2  0  0  0
 12 13  1  0  0  0
 12 28  1  0  0  0
 13 14  2  0  0  0
 14 15  1  0  0  0
 14 22  1  0  0  0
 15 16  1  0  0  0
 15 26  1  0  0  0
 16 17  2  0  0  0
 16 21  1  0  0  0
 17 18  1  0  0  0
 17 22  1  0  0  0
 18 19  2  0  0  0
 19 20  1  0  0  0
 20 21  2  0  0  0
 22 23  2  0  0  0
 23 24  1  0  0  0
 24 25  2  0  0  0
 26 27  1  0  0  0
 26 30  1  0  0  0
 27 28  1  0  0  0
 28 29  1  0  0  0
 29 30  1  0  0  0
  1 31  1  0  0  0
M  END
> <minimizedAffinity>
-8.87619

$$$$
