6EY9_C4N_A_302


 32 35  0  0  0  0  0  0  0  0999 V2000
   66.5761   34.2552   23.9256 C   0  0  0  0  0  0  0  0  0  0  0  0
   65.4189   33.8335   24.6225 C   0  0  0  0  0  0  0  0  0  0  0  0
   65.5137   33.0970   25.7929 C   0  0  0  0  0  0  0  0  0  0  0  0
   64.2016   34.1025   24.1036 O   0  0  0  0  0  0  0  0  0  0  0  0
   67.9431   33.2480   25.6500 C   0  0  0  0  0  0  0  0  0  0  0  0
   66.7699   32.8215   26.3348 C   0  0  0  0  0  0  0  0  0  0  0  0
   69.0687   32.8317   26.4804 C   0  0  0  0  0  0  0  0  0  0  0  0
   67.8478   33.8961   24.4097 C   0  0  0  0  0  0  0  0  0  0  0  0
   67.1807   32.2240   27.4982 N   0  0  0  0  0  0  0  0  0  0  0  0
   68.5742   32.3209   27.5738 N   0  0  0  0  0  0  0  0  0  0  0  0
   64.1289   34.5997   23.3127 H   0  0  0  0  0  0  0  0  0  0  0  0
   66.5953   31.7993   28.1661 H   0  0  0  0  0  0  0  0  0  0  0  0
   66.7859   36.9038   21.1442 C   0  0  0  0  0  0  0  0  0  0  0  0
   66.4693   34.9689   22.6249 C   0  0  0  0  0  0  0  0  0  0  0  0
   66.8777   36.2650   22.4607 N   0  0  0  0  0  0  0  0  0  0  0  0
   66.0731   34.3165   21.6668 O   0  0  0  0  0  0  0  0  0  0  0  0
   67.2613   37.1500   23.5745 C   0  0  0  0  0  0  0  0  0  0  0  0
   68.8368   37.0984   25.4740 C   0  0  0  0  0  0  0  0  0  0  0  0
   70.1081   36.9867   26.0190 C   0  0  0  0  0  0  0  0  0  0  0  0
   68.6671   37.0256   24.0887 C   0  0  0  0  0  0  0  0  0  0  0  0
   71.2032   36.8078   25.1716 C   0  0  0  0  0  0  0  0  0  0  0  0
   71.0243   36.7339   23.7862 C   0  0  0  0  0  0  0  0  0  0  0  0
   69.7537   36.8425   23.2323 C   0  0  0  0  0  0  0  0  0  0  0  0
   72.7968   36.6859   25.8608 Cl  0  0  0  0  0  0  0  0  0  0  0  0
   70.5246   33.1812   26.2414 C   0  0  0  0  0  0  0  0  0  0  0  0
   71.2327   32.4983   25.1012 C   0  0  0  0  0  0  0  0  0  0  0  0
   71.9787   33.2696   24.2035 C   0  0  0  0  0  0  0  0  0  0  0  0
   72.7341   32.6635   23.1908 C   0  0  0  0  0  0  0  0  0  0  0  0
   71.2854   31.1035   25.0232 C   0  0  0  0  0  0  0  0  0  0  0  0
   72.1288   29.0206   23.9086 C   0  0  0  0  0  0  0  0  0  0  0  0
   72.7687   31.2782   23.0963 C   0  0  0  0  0  0  0  0  0  0  0  0
   72.0478   30.5093   24.0121 C   0  0  0  0  0  0  0  0  0  0  0  0
 13 15  1  0  0  0
 16 14  2  0  0  0
 15 14  1  0  0  0
 15 17  1  0  0  0
 14  1  1  0  0  0
 31 28  2  0  0  0
 31 32  1  0  0  0
 28 27  1  0  0  0
 23 22  2  0  0  0
 23 20  1  0  0  0
 17 20  1  0  0  0
 22 21  1  0  0  0
  1  8  2  0  0  0
  1  2  1  0  0  0
 30 32  1  0  0  0
 32 29  2  0  0  0
 27 26  2  0  0  0
 20 18  2  0  0  0
  4  2  1  0  0  0
  8  5  1  0  0  0
  2  3  2  0  0  0
 26 29  1  0  0  0
 26 25  1  0  0  0
 21 24  1  0  0  0
 21 19  2  0  0  0
 18 19  1  0  0  0
  5  6  2  0  0  0
  5  7  1  0  0  0
  3  6  1  0  0  0
 25  7  1  0  0  0
  6  9  1  0  0  0
  7 10  2  0  0  0
  9 10  1  0  0  0
  4 11  1  0  0  0
  9 12  1  0  0  0
M  END
> <minimizedAffinity>
-10.92575

$$$$
6EY9_C4N_A_302


 32 35  0  0  0  0  0  0  0  0999 V2000
   68.6860   36.0411   23.2640 C   0  0  0  0  0  0  0  0  0  0  0  0
   67.2990   35.9319   23.0055 C   0  0  0  0  0  0  0  0  0  0  0  0
   66.5400   34.9204   23.5731 C   0  0  0  0  0  0  0  0  0  0  0  0
   66.7190   36.7931   22.1422 O   0  0  0  0  0  0  0  0  0  0  0  0
   68.5276   34.1354   24.7472 C   0  0  0  0  0  0  0  0  0  0  0  0
   67.1349   34.0317   24.4697 C   0  0  0  0  0  0  0  0  0  0  0  0
   68.8226   33.0937   25.7258 C   0  0  0  0  0  0  0  0  0  0  0  0
   69.3161   35.0894   24.0873 C   0  0  0  0  0  0  0  0  0  0  0  0
   66.6451   33.0193   25.2535 N   0  0  0  0  0  0  0  0  0  0  0  0
   67.6895   32.5336   26.0475 N   0  0  0  0  0  0  0  0  0  0  0  0
   67.2251   37.4795   21.7542 H   0  0  0  0  0  0  0  0  0  0  0  0
   65.7173   32.6903   25.2570 H   0  0  0  0  0  0  0  0  0  0  0  0
   71.1909   38.8680   22.5362 C   0  0  0  0  0  0  0  0  0  0  0  0
   69.5128   37.0741   22.5842 C   0  0  0  0  0  0  0  0  0  0  0  0
   70.3704   37.8956   23.2648 N   0  0  0  0  0  0  0  0  0  0  0  0
   69.4603   37.1076   21.3609 O   0  0  0  0  0  0  0  0  0  0  0  0
   70.4151   37.9962   24.7341 C   0  0  0  0  0  0  0  0  0  0  0  0
   71.2545   36.8390   26.7463 C   0  0  0  0  0  0  0  0  0  0  0  0
   72.2214   36.1368   27.4518 C   0  0  0  0  0  0  0  0  0  0  0  0
   71.5115   37.2454   25.4341 C   0  0  0  0  0  0  0  0  0  0  0  0
   73.4430   35.8504   26.8395 C   0  0  0  0  0  0  0  0  0  0  0  0
   73.6914   36.2590   25.5250 C   0  0  0  0  0  0  0  0  0  0  0  0
   72.7271   36.9607   24.8103 C   0  0  0  0  0  0  0  0  0  0  0  0
   74.6578   34.9846   27.7363 Cl  0  0  0  0  0  0  0  0  0  0  0  0
   70.1469   32.8930   26.4362 C   0  0  0  0  0  0  0  0  0  0  0  0
   71.2629   32.2349   25.6685 C   0  0  0  0  0  0  0  0  0  0  0  0
   72.5643   32.7315   25.7994 C   0  0  0  0  0  0  0  0  0  0  0  0
   73.6449   32.0861   25.1834 C   0  0  0  0  0  0  0  0  0  0  0  0
   71.0439   31.0490   24.9614 C   0  0  0  0  0  0  0  0  0  0  0  0
   71.9282   29.1370   23.5998 C   0  0  0  0  0  0  0  0  0  0  0  0
   73.4262   30.9207   24.4599 C   0  0  0  0  0  0  0  0  0  0  0  0
   72.1309   30.4100   24.3559 C   0  0  0  0  0  0  0  0  0  0  0  0
 13 15  1  0  0  0
 16 14  2  0  0  0
 15 14  1  0  0  0
 15 17  1  0  0  0
 14  1  1  0  0  0
 31 28  2  0  0  0
 31 32  1  0  0  0
 28 27  1  0  0  0
 23 22  2  0  0  0
 23 20  1  0  0  0
 17 20  1  0  0  0
 22 21  1  0  0  0
  1  8  2  0  0  0
  1  2  1  0  0  0
 30 32  1  0  0  0
 32 29  2  0  0  0
 27 26  2  0  0  0
 20 18  2  0  0  0
  4  2  1  0  0  0
  8  5  1  0  0  0
  2  3  2  0  0  0
 26 29  1  0  0  0
 26 25  1  0  0  0
 21 24  1  0  0  0
 21 19  2  0  0  0
 18 19  1  0  0  0
  5  6  2  0  0  0
  5  7  1  0  0  0
  3  6  1  0  0  0
 25  7  1  0  0  0
  6  9  1  0  0  0
  7 10  2  0  0  0
  9 10  1  0  0  0
  4 11  1  0  0  0
  9 12  1  0  0  0
M  END
> <minimizedAffinity>
-9.64564

$$$$
6EY9_C4N_A_302


 32 35  0  0  0  0  0  0  0  0999 V2000
   71.3032   36.7675   26.8660 C   0  0  0  0  0  0  0  0  0  0  0  0
   71.2046   38.1737   26.9894 C   0  0  0  0  0  0  0  0  0  0  0  0
   70.3287   38.9043   26.2017 C   0  0  0  0  0  0  0  0  0  0  0  0
   72.0227   38.8196   27.8477 O   0  0  0  0  0  0  0  0  0  0  0  0
   69.5589   36.8240   25.1893 C   0  0  0  0  0  0  0  0  0  0  0  0
   69.4780   38.2397   25.3173 C   0  0  0  0  0  0  0  0  0  0  0  0
   68.5353   36.4474   24.2197 C   0  0  0  0  0  0  0  0  0  0  0  0
   70.5218   36.0981   25.9058 C   0  0  0  0  0  0  0  0  0  0  0  0
   68.4587   38.6575   24.5014 N   0  0  0  0  0  0  0  0  0  0  0  0
   67.8734   37.5295   23.9165 N   0  0  0  0  0  0  0  0  0  0  0  0
   72.6177   38.3331   28.3837 H   0  0  0  0  0  0  0  0  0  0  0  0
   68.1854   39.5915   24.3525 H   0  0  0  0  0  0  0  0  0  0  0  0
   74.2535   34.5183   27.8822 C   0  0  0  0  0  0  0  0  0  0  0  0
   72.3060   35.9982   27.6504 C   0  0  0  0  0  0  0  0  0  0  0  0
   73.2653   35.2217   27.0585 N   0  0  0  0  0  0  0  0  0  0  0  0
   72.2952   36.1535   28.8654 O   0  0  0  0  0  0  0  0  0  0  0  0
   73.2830   34.8951   25.6218 C   0  0  0  0  0  0  0  0  0  0  0  0
   73.7926   32.8435   24.3473 C   0  0  0  0  0  0  0  0  0  0  0  0
   73.5305   31.5385   23.9549 C   0  0  0  0  0  0  0  0  0  0  0  0
   72.9306   33.4857   25.2405 C   0  0  0  0  0  0  0  0  0  0  0  0
   72.4025   30.8861   24.4562 C   0  0  0  0  0  0  0  0  0  0  0  0
   71.5460   31.5353   25.3515 C   0  0  0  0  0  0  0  0  0  0  0  0
   71.8028   32.8419   25.7516 C   0  0  0  0  0  0  0  0  0  0  0  0
   72.0704   29.2554   23.9462 Cl  0  0  0  0  0  0  0  0  0  0  0  0
   68.1393   35.0307   23.8525 C   0  0  0  0  0  0  0  0  0  0  0  0
   67.4172   34.2121   24.8899 C   0  0  0  0  0  0  0  0  0  0  0  0
   66.0194   34.1586   24.8628 C   0  0  0  0  0  0  0  0  0  0  0  0
   65.3149   33.3290   25.7454 C   0  0  0  0  0  0  0  0  0  0  0  0
   68.1232   33.3862   25.7696 C   0  0  0  0  0  0  0  0  0  0  0  0
   68.1374   31.6585   27.5880 C   0  0  0  0  0  0  0  0  0  0  0  0
   66.0137   32.5254   26.6371 C   0  0  0  0  0  0  0  0  0  0  0  0
   67.4096   32.5575   26.6417 C   0  0  0  0  0  0  0  0  0  0  0  0
 13 15  1  0  0  0
 16 14  2  0  0  0
 15 14  1  0  0  0
 15 17  1  0  0  0
 14  1  1  0  0  0
 31 28  2  0  0  0
 31 32  1  0  0  0
 28 27  1  0  0  0
 23 22  2  0  0  0
 23 20  1  0  0  0
 17 20  1  0  0  0
 22 21  1  0  0  0
  1  8  2  0  0  0
  1  2  1  0  0  0
 30 32  1  0  0  0
 32 29  2  0  0  0
 27 26  2  0  0  0
 20 18  2  0  0  0
  4  2  1  0  0  0
  8  5  1  0  0  0
  2  3  2  0  0  0
 26 29  1  0  0  0
 26 25  1  0  0  0
 21 24  1  0  0  0
 21 19  2  0  0  0
 18 19  1  0  0  0
  5  6  2  0  0  0
  5  7  1  0  0  0
  3  6  1  0  0  0
 25  7  1  0  0  0
  6  9  1  0  0  0
  7 10  2  0  0  0
  9 10  1  0  0  0
  4 11  1  0  0  0
  9 12  1  0  0  0
M  END
> <minimizedAffinity>
-9.53448

$$$$
6EY9_C4N_A_302


 32 35  0  0  0  0  0  0  0  0999 V2000
   68.5942   37.1482   25.1447 C   0  0  0  0  0  0  0  0  0  0  0  0
   67.5373   37.2860   24.2138 C   0  0  0  0  0  0  0  0  0  0  0  0
   66.9260   36.1762   23.6517 C   0  0  0  0  0  0  0  0  0  0  0  0
   67.1604   38.5219   23.8218 O   0  0  0  0  0  0  0  0  0  0  0  0
   68.3646   34.7433   25.0016 C   0  0  0  0  0  0  0  0  0  0  0  0
   67.3094   34.8974   24.0582 C   0  0  0  0  0  0  0  0  0  0  0  0
   68.4975   33.3076   25.2273 C   0  0  0  0  0  0  0  0  0  0  0  0
   69.0564   35.8634   25.4855 C   0  0  0  0  0  0  0  0  0  0  0  0
   66.8394   33.6412   23.7750 N   0  0  0  0  0  0  0  0  0  0  0  0
   67.5411   32.7216   24.5618 N   0  0  0  0  0  0  0  0  0  0  0  0
   67.5687   39.2772   24.1969 H   0  0  0  0  0  0  0  0  0  0  0  0
   66.1295   33.4234   23.1286 H   0  0  0  0  0  0  0  0  0  0  0  0
   71.1887   39.9149   25.7842 C   0  0  0  0  0  0  0  0  0  0  0  0
   69.3053   38.3408   25.6782 C   0  0  0  0  0  0  0  0  0  0  0  0
   70.5539   38.7053   25.2519 N   0  0  0  0  0  0  0  0  0  0  0  0
   68.6877   39.0463   26.4665 O   0  0  0  0  0  0  0  0  0  0  0  0
   71.4053   37.8616   24.3951 C   0  0  0  0  0  0  0  0  0  0  0  0
   72.4409   36.3083   26.0099 C   0  0  0  0  0  0  0  0  0  0  0  0
   73.5359   35.7243   26.6309 C   0  0  0  0  0  0  0  0  0  0  0  0
   72.6386   37.2795   25.0246 C   0  0  0  0  0  0  0  0  0  0  0  0
   74.8234   36.1211   26.2642 C   0  0  0  0  0  0  0  0  0  0  0  0
   75.0124   37.0923   25.2755 C   0  0  0  0  0  0  0  0  0  0  0  0
   73.9208   37.6805   24.6467 C   0  0  0  0  0  0  0  0  0  0  0  0
   76.1918   35.3970   27.0595 Cl  0  0  0  0  0  0  0  0  0  0  0  0
   69.3964   32.6507   26.2564 C   0  0  0  0  0  0  0  0  0  0  0  0
   70.6167   31.9213   25.7597 C   0  0  0  0  0  0  0  0  0  0  0  0
   70.4567   30.6993   25.0975 C   0  0  0  0  0  0  0  0  0  0  0  0
   71.5557   30.0397   24.5312 C   0  0  0  0  0  0  0  0  0  0  0  0
   71.8788   32.5204   25.8087 C   0  0  0  0  0  0  0  0  0  0  0  0
   74.3272   32.4753   25.2653 C   0  0  0  0  0  0  0  0  0  0  0  0
   72.8151   30.6215   24.5999 C   0  0  0  0  0  0  0  0  0  0  0  0
   72.9675   31.8558   25.2345 C   0  0  0  0  0  0  0  0  0  0  0  0
 13 15  1  0  0  0
 16 14  2  0  0  0
 15 14  1  0  0  0
 15 17  1  0  0  0
 14  1  1  0  0  0
 31 28  2  0  0  0
 31 32  1  0  0  0
 28 27  1  0  0  0
 23 22  2  0  0  0
 23 20  1  0  0  0
 17 20  1  0  0  0
 22 21  1  0  0  0
  1  8  2  0  0  0
  1  2  1  0  0  0
 30 32  1  0  0  0
 32 29  2  0  0  0
 27 26  2  0  0  0
 20 18  2  0  0  0
  4  2  1  0  0  0
  8  5  1  0  0  0
  2  3  2  0  0  0
 26 29  1  0  0  0
 26 25  1  0  0  0
 21 24  1  0  0  0
 21 19  2  0  0  0
 18 19  1  0  0  0
  5  6  2  0  0  0
  5  7  1  0  0  0
  3  6  1  0  0  0
 25  7  1  0  0  0
  6  9  1  0  0  0
  7 10  2  0  0  0
  9 10  1  0  0  0
  4 11  1  0  0  0
  9 12  1  0  0  0
M  END
> <minimizedAffinity>
-9.48314

$$$$
6EY9_C4N_A_302


 32 35  0  0  0  0  0  0  0  0999 V2000
   72.2931   34.7646   26.2926 C   0  0  0  0  0  0  0  0  0  0  0  0
   73.6548   34.4300   26.4831 C   0  0  0  0  0  0  0  0  0  0  0  0
   74.1205   33.1476   26.2384 C   0  0  0  0  0  0  0  0  0  0  0  0
   74.5014   35.3626   26.9698 O   0  0  0  0  0  0  0  0  0  0  0  0
   71.8787   32.5074   25.5243 C   0  0  0  0  0  0  0  0  0  0  0  0
   73.2496   32.1827   25.7304 C   0  0  0  0  0  0  0  0  0  0  0  0
   71.2587   31.3077   24.9710 C   0  0  0  0  0  0  0  0  0  0  0  0
   71.3858   33.7724   25.8768 C   0  0  0  0  0  0  0  0  0  0  0  0
   73.4242   30.8929   25.3001 N   0  0  0  0  0  0  0  0  0  0  0  0
   72.2082   30.4337   24.7829 N   0  0  0  0  0  0  0  0  0  0  0  0
   74.1945   36.2318   27.1379 H   0  0  0  0  0  0  0  0  0  0  0  0
   74.2620   30.3779   25.3471 H   0  0  0  0  0  0  0  0  0  0  0  0
   70.7692   38.2913   26.1048 C   0  0  0  0  0  0  0  0  0  0  0  0
   71.7809   36.1173   26.6399 C   0  0  0  0  0  0  0  0  0  0  0  0
   71.2994   36.9862   25.6983 N   0  0  0  0  0  0  0  0  0  0  0  0
   71.7264   36.3992   27.8307 O   0  0  0  0  0  0  0  0  0  0  0  0
   71.4272   36.7732   24.2460 C   0  0  0  0  0  0  0  0  0  0  0  0
   69.1946   35.7814   23.8926 C   0  0  0  0  0  0  0  0  0  0  0  0
   67.9914   35.6635   23.2115 C   0  0  0  0  0  0  0  0  0  0  0  0
   70.1526   36.6999   23.4547 C   0  0  0  0  0  0  0  0  0  0  0  0
   67.7572   36.4637   22.0915 C   0  0  0  0  0  0  0  0  0  0  0  0
   68.7206   37.3820   21.6611 C   0  0  0  0  0  0  0  0  0  0  0  0
   69.9276   37.5080   22.3394 C   0  0  0  0  0  0  0  0  0  0  0  0
   66.2530   36.2982   21.2316 Cl  0  0  0  0  0  0  0  0  0  0  0  0
   69.8369   31.2011   24.4553 C   0  0  0  0  0  0  0  0  0  0  0  0
   68.7225   31.6238   25.3756 C   0  0  0  0  0  0  0  0  0  0  0  0
   68.8269   31.3469   26.7430 C   0  0  0  0  0  0  0  0  0  0  0  0
   67.8617   31.8123   27.6460 C   0  0  0  0  0  0  0  0  0  0  0  0
   67.6732   32.4221   24.9106 C   0  0  0  0  0  0  0  0  0  0  0  0
   65.5906   33.7475   25.3550 C   0  0  0  0  0  0  0  0  0  0  0  0
   66.8049   32.5854   27.1827 C   0  0  0  0  0  0  0  0  0  0  0  0
   66.7191   32.8863   25.8220 C   0  0  0  0  0  0  0  0  0  0  0  0
 13 15  1  0  0  0
 16 14  2  0  0  0
 15 14  1  0  0  0
 15 17  1  0  0  0
 14  1  1  0  0  0
 31 28  2  0  0  0
 31 32  1  0  0  0
 28 27  1  0  0  0
 23 22  2  0  0  0
 23 20  1  0  0  0
 17 20  1  0  0  0
 22 21  1  0  0  0
  1  8  2  0  0  0
  1  2  1  0  0  0
 30 32  1  0  0  0
 32 29  2  0  0  0
 27 26  2  0  0  0
 20 18  2  0  0  0
  4  2  1  0  0  0
  8  5  1  0  0  0
  2  3  2  0  0  0
 26 29  1  0  0  0
 26 25  1  0  0  0
 21 24  1  0  0  0
 21 19  2  0  0  0
 18 19  1  0  0  0
  5  6  2  0  0  0
  5  7  1  0  0  0
  3  6  1  0  0  0
 25  7  1  0  0  0
  6  9  1  0  0  0
  7 10  2  0  0  0
  9 10  1  0  0  0
  4 11  1  0  0  0
  9 12  1  0  0  0
M  END
> <minimizedAffinity>
-9.48229

$$$$
6EY9_C4N_A_302


 32 35  0  0  0  0  0  0  0  0999 V2000
   68.3367   37.2826   24.7463 C   0  0  0  0  0  0  0  0  0  0  0  0
   67.3040   37.3832   23.7841 C   0  0  0  0  0  0  0  0  0  0  0  0
   66.7044   36.2520   23.2529 C   0  0  0  0  0  0  0  0  0  0  0  0
   66.9400   38.6024   23.3321 O   0  0  0  0  0  0  0  0  0  0  0  0
   68.1051   34.8741   24.6967 C   0  0  0  0  0  0  0  0  0  0  0  0
   67.0744   34.9905   23.7214 C   0  0  0  0  0  0  0  0  0  0  0  0
   68.2289   33.4487   24.9847 C   0  0  0  0  0  0  0  0  0  0  0  0
   68.7871   36.0123   25.1514 C   0  0  0  0  0  0  0  0  0  0  0  0
   66.6086   33.7244   23.4784 N   0  0  0  0  0  0  0  0  0  0  0  0
   67.2881   32.8371   24.3200 N   0  0  0  0  0  0  0  0  0  0  0  0
   67.3406   39.3720   23.6859 H   0  0  0  0  0  0  0  0  0  0  0  0
   65.9148   33.4810   22.8238 H   0  0  0  0  0  0  0  0  0  0  0  0
   70.9912   39.9638   25.4949 C   0  0  0  0  0  0  0  0  0  0  0  0
   69.0370   38.4952   25.2480 C   0  0  0  0  0  0  0  0  0  0  0  0
   70.3643   38.7303   25.0101 N   0  0  0  0  0  0  0  0  0  0  0  0
   68.3509   39.3328   25.8210 O   0  0  0  0  0  0  0  0  0  0  0  0
   71.2810   37.7339   24.4290 C   0  0  0  0  0  0  0  0  0  0  0  0
   73.4667   36.6914   24.9076 C   0  0  0  0  0  0  0  0  0  0  0  0
   74.3614   36.0271   25.7345 C   0  0  0  0  0  0  0  0  0  0  0  0
   72.1908   37.0106   25.3804 C   0  0  0  0  0  0  0  0  0  0  0  0
   73.9702   35.6816   27.0295 C   0  0  0  0  0  0  0  0  0  0  0  0
   72.6921   36.0067   27.4955 C   0  0  0  0  0  0  0  0  0  0  0  0
   71.7905   36.6744   26.6743 C   0  0  0  0  0  0  0  0  0  0  0  0
   75.0915   34.8331   28.0552 Cl  0  0  0  0  0  0  0  0  0  0  0  0
   69.0999   32.8337   26.0625 C   0  0  0  0  0  0  0  0  0  0  0  0
   70.4581   32.3221   25.6607 C   0  0  0  0  0  0  0  0  0  0  0  0
   71.5908   33.0831   25.9694 C   0  0  0  0  0  0  0  0  0  0  0  0
   72.8777   32.5959   25.7045 C   0  0  0  0  0  0  0  0  0  0  0  0
   70.6122   31.0366   25.1334 C   0  0  0  0  0  0  0  0  0  0  0  0
   72.0976   29.1852   24.3223 C   0  0  0  0  0  0  0  0  0  0  0  0
   73.0325   31.3284   25.1580 C   0  0  0  0  0  0  0  0  0  0  0  0
   71.9018   30.5582   24.8789 C   0  0  0  0  0  0  0  0  0  0  0  0
 13 15  1  0  0  0
 16 14  2  0  0  0
 15 14  1  0  0  0
 15 17  1  0  0  0
 14  1  1  0  0  0
 31 28  2  0  0  0
 31 32  1  0  0  0
 28 27  1  0  0  0
 23 22  2  0  0  0
 23 20  1  0  0  0
 17 20  1  0  0  0
 22 21  1  0  0  0
  1  8  2  0  0  0
  1  2  1  0  0  0
 30 32  1  0  0  0
 32 29  2  0  0  0
 27 26  2  0  0  0
 20 18  2  0  0  0
  4  2  1  0  0  0
  8  5  1  0  0  0
  2  3  2  0  0  0
 26 29  1  0  0  0
 26 25  1  0  0  0
 21 24  1  0  0  0
 21 19  2  0  0  0
 18 19  1  0  0  0
  5  6  2  0  0  0
  5  7  1  0  0  0
  3  6  1  0  0  0
 25  7  1  0  0  0
  6  9  1  0  0  0
  7 10  2  0  0  0
  9 10  1  0  0  0
  4 11  1  0  0  0
  9 12  1  0  0  0
M  END
> <minimizedAffinity>
-9.30465

$$$$
6EY9_C4N_A_302


 32 35  0  0  0  0  0  0  0  0999 V2000
   72.7456   33.9849   25.8570 C   0  0  0  0  0  0  0  0  0  0  0  0
   73.5070   33.0519   25.1138 C   0  0  0  0  0  0  0  0  0  0  0  0
   72.9949   31.8067   24.7845 C   0  0  0  0  0  0  0  0  0  0  0  0
   74.7769   33.3593   24.7728 O   0  0  0  0  0  0  0  0  0  0  0  0
   70.8995   32.4201   25.8700 C   0  0  0  0  0  0  0  0  0  0  0  0
   71.6812   31.4875   25.1307 C   0  0  0  0  0  0  0  0  0  0  0  0
   69.5895   31.8007   26.0432 C   0  0  0  0  0  0  0  0  0  0  0  0
   71.4560   33.6344   26.2981 C   0  0  0  0  0  0  0  0  0  0  0  0
   70.8748   30.4112   24.8654 N   0  0  0  0  0  0  0  0  0  0  0  0
   69.6000   30.6811   25.3745 N   0  0  0  0  0  0  0  0  0  0  0  0
   75.1306   34.1989   24.9918 H   0  0  0  0  0  0  0  0  0  0  0  0
   71.1463   29.5890   24.3969 H   0  0  0  0  0  0  0  0  0  0  0  0
   73.6538   37.7140   26.1112 C   0  0  0  0  0  0  0  0  0  0  0  0
   73.3305   35.2845   26.2831 C   0  0  0  0  0  0  0  0  0  0  0  0
   73.0822   36.4562   25.6204 N   0  0  0  0  0  0  0  0  0  0  0  0
   73.9872   35.2830   27.3172 O   0  0  0  0  0  0  0  0  0  0  0  0
   72.3988   36.5309   24.3172 C   0  0  0  0  0  0  0  0  0  0  0  0
   70.5593   37.7443   23.2052 C   0  0  0  0  0  0  0  0  0  0  0  0
   69.2568   38.2187   23.1402 C   0  0  0  0  0  0  0  0  0  0  0  0
   70.9770   37.0149   24.3218 C   0  0  0  0  0  0  0  0  0  0  0  0
   68.3816   37.9638   24.1977 C   0  0  0  0  0  0  0  0  0  0  0  0
   68.8071   37.2312   25.3107 C   0  0  0  0  0  0  0  0  0  0  0  0
   70.1096   36.7502   25.3826 C   0  0  0  0  0  0  0  0  0  0  0  0
   66.7545   38.5768   24.1174 Cl  0  0  0  0  0  0  0  0  0  0  0  0
   68.3675   32.4638   26.6480 C   0  0  0  0  0  0  0  0  0  0  0  0
   67.3457   33.0448   25.7066 C   0  0  0  0  0  0  0  0  0  0  0  0
   65.9941   33.0159   26.0670 C   0  0  0  0  0  0  0  0  0  0  0  0
   65.0241   33.6356   25.2679 C   0  0  0  0  0  0  0  0  0  0  0  0
   67.7414   33.7483   24.5652 C   0  0  0  0  0  0  0  0  0  0  0  0
   67.1590   35.1335   22.5567 C   0  0  0  0  0  0  0  0  0  0  0  0
   65.4123   34.3147   24.1201 C   0  0  0  0  0  0  0  0  0  0  0  0
   66.7650   34.3683   23.7785 C   0  0  0  0  0  0  0  0  0  0  0  0
 13 15  1  0  0  0
 16 14  2  0  0  0
 15 14  1  0  0  0
 15 17  1  0  0  0
 14  1  1  0  0  0
 31 28  2  0  0  0
 31 32  1  0  0  0
 28 27  1  0  0  0
 23 22  2  0  0  0
 23 20  1  0  0  0
 17 20  1  0  0  0
 22 21  1  0  0  0
  1  8  2  0  0  0
  1  2  1  0  0  0
 30 32  1  0  0  0
 32 29  2  0  0  0
 27 26  2  0  0  0
 20 18  2  0  0  0
  4  2  1  0  0  0
  8  5  1  0  0  0
  2  3  2  0  0  0
 26 29  1  0  0  0
 26 25  1  0  0  0
 21 24  1  0  0  0
 21 19  2  0  0  0
 18 19  1  0  0  0
  5  6  2  0  0  0
  5  7  1  0  0  0
  3  6  1  0  0  0
 25  7  1  0  0  0
  6  9  1  0  0  0
  7 10  2  0  0  0
  9 10  1  0  0  0
  4 11  1  0  0  0
  9 12  1  0  0  0
M  END
> <minimizedAffinity>
-9.26747

$$$$
6EY9_C4N_A_302


 32 35  0  0  0  0  0  0  0  0999 V2000
   70.7339   36.7577   25.4921 C   0  0  0  0  0  0  0  0  0  0  0  0
   70.8889   37.4144   26.7360 C   0  0  0  0  0  0  0  0  0  0  0  0
   71.8049   36.9672   27.6752 C   0  0  0  0  0  0  0  0  0  0  0  0
   70.0864   38.4583   27.0353 O   0  0  0  0  0  0  0  0  0  0  0  0
   72.5019   35.2273   26.1157 C   0  0  0  0  0  0  0  0  0  0  0  0
   72.6395   35.8919   27.3674 C   0  0  0  0  0  0  0  0  0  0  0  0
   73.5223   34.1840   26.0986 C   0  0  0  0  0  0  0  0  0  0  0  0
   71.5001   35.6109   25.2121 C   0  0  0  0  0  0  0  0  0  0  0  0
   73.6863   35.2973   28.0230 N   0  0  0  0  0  0  0  0  0  0  0  0
   74.2324   34.3202   27.1840 N   0  0  0  0  0  0  0  0  0  0  0  0
   69.4645   38.7667   26.4059 H   0  0  0  0  0  0  0  0  0  0  0  0
   74.0000   35.5198   28.9293 H   0  0  0  0  0  0  0  0  0  0  0  0
   67.7712   36.7971   23.0393 C   0  0  0  0  0  0  0  0  0  0  0  0
   69.6895   37.1874   24.5240 C   0  0  0  0  0  0  0  0  0  0  0  0
   68.8062   36.3094   23.9561 N   0  0  0  0  0  0  0  0  0  0  0  0
   69.5920   38.3901   24.3131 O   0  0  0  0  0  0  0  0  0  0  0  0
   68.9205   34.8447   24.0689 C   0  0  0  0  0  0  0  0  0  0  0  0
   68.3166   33.4142   25.9876 C   0  0  0  0  0  0  0  0  0  0  0  0
   67.4008   32.7427   26.7851 C   0  0  0  0  0  0  0  0  0  0  0  0
   67.8707   34.1412   24.8805 C   0  0  0  0  0  0  0  0  0  0  0  0
   66.0429   32.7996   26.4652 C   0  0  0  0  0  0  0  0  0  0  0  0
   65.6047   33.5313   25.3565 C   0  0  0  0  0  0  0  0  0  0  0  0
   66.5155   34.2089   24.5538 C   0  0  0  0  0  0  0  0  0  0  0  0
   64.9015   31.9408   27.4598 Cl  0  0  0  0  0  0  0  0  0  0  0  0
   73.8643   33.2968   24.9176 C   0  0  0  0  0  0  0  0  0  0  0  0
   73.1112   32.0010   24.7715 C   0  0  0  0  0  0  0  0  0  0  0  0
   73.8293   30.8073   24.6411 C   0  0  0  0  0  0  0  0  0  0  0  0
   73.1689   29.5719   24.6052 C   0  0  0  0  0  0  0  0  0  0  0  0
   71.7223   31.9585   24.9243 C   0  0  0  0  0  0  0  0  0  0  0  0
   69.5914   30.6422   25.0613 C   0  0  0  0  0  0  0  0  0  0  0  0
   71.7864   29.5289   24.7325 C   0  0  0  0  0  0  0  0  0  0  0  0
   71.0744   30.7192   24.8932 C   0  0  0  0  0  0  0  0  0  0  0  0
 13 15  1  0  0  0
 16 14  2  0  0  0
 15 14  1  0  0  0
 15 17  1  0  0  0
 14  1  1  0  0  0
 31 28  2  0  0  0
 31 32  1  0  0  0
 28 27  1  0  0  0
 23 22  2  0  0  0
 23 20  1  0  0  0
 17 20  1  0  0  0
 22 21  1  0  0  0
  1  8  2  0  0  0
  1  2  1  0  0  0
 30 32  1  0  0  0
 32 29  2  0  0  0
 27 26  2  0  0  0
 20 18  2  0  0  0
  4  2  1  0  0  0
  8  5  1  0  0  0
  2  3  2  0  0  0
 26 29  1  0  0  0
 26 25  1  0  0  0
 21 24  1  0  0  0
 21 19  2  0  0  0
 18 19  1  0  0  0
  5  6  2  0  0  0
  5  7  1  0  0  0
  3  6  1  0  0  0
 25  7  1  0  0  0
  6  9  1  0  0  0
  7 10  2  0  0  0
  9 10  1  0  0  0
  4 11  1  0  0  0
  9 12  1  0  0  0
M  END
> <minimizedAffinity>
-9.18911

$$$$
6EY9_C4N_A_302


 32 35  0  0  0  0  0  0  0  0999 V2000
   68.3645   37.2350   25.0908 C   0  0  0  0  0  0  0  0  0  0  0  0
   67.2320   37.2497   24.2425 C   0  0  0  0  0  0  0  0  0  0  0  0
   66.6737   36.0725   23.7691 C   0  0  0  0  0  0  0  0  0  0  0  0
   66.7249   38.4345   23.8395 O   0  0  0  0  0  0  0  0  0  0  0  0
   68.3252   34.8156   25.0489 C   0  0  0  0  0  0  0  0  0  0  0  0
   67.1919   34.8462   24.1875 C   0  0  0  0  0  0  0  0  0  0  0  0
   68.5937   33.4055   25.3124 C   0  0  0  0  0  0  0  0  0  0  0  0
   68.9565   36.0062   25.4377 C   0  0  0  0  0  0  0  0  0  0  0  0
   66.8076   33.5459   23.9857 N   0  0  0  0  0  0  0  0  0  0  0  0
   67.6412   32.7182   24.7454 N   0  0  0  0  0  0  0  0  0  0  0  0
   67.0966   39.2347   24.1549 H   0  0  0  0  0  0  0  0  0  0  0  0
   66.0710   33.2458   23.4055 H   0  0  0  0  0  0  0  0  0  0  0  0
   70.5421   40.4024   25.2354 C   0  0  0  0  0  0  0  0  0  0  0  0
   69.0128   38.5014   25.5250 C   0  0  0  0  0  0  0  0  0  0  0  0
   69.9677   39.1342   24.7757 N   0  0  0  0  0  0  0  0  0  0  0  0
   68.5935   39.0120   26.5565 O   0  0  0  0  0  0  0  0  0  0  0  0
   70.6028   38.5393   23.5868 C   0  0  0  0  0  0  0  0  0  0  0  0
   69.6363   37.4245   21.6079 C   0  0  0  0  0  0  0  0  0  0  0  0
   68.9368   37.4280   20.4094 C   0  0  0  0  0  0  0  0  0  0  0  0
   69.8413   38.6242   22.2949 C   0  0  0  0  0  0  0  0  0  0  0  0
   68.4510   38.6352   19.9035 C   0  0  0  0  0  0  0  0  0  0  0  0
   68.6587   39.8312   20.5985 C   0  0  0  0  0  0  0  0  0  0  0  0
   69.3564   39.8361   21.8011 C   0  0  0  0  0  0  0  0  0  0  0  0
   67.5895   38.6345   18.3911 Cl  0  0  0  0  0  0  0  0  0  0  0  0
   69.6199   32.8651   26.2889 C   0  0  0  0  0  0  0  0  0  0  0  0
   70.9117   32.3327   25.7271 C   0  0  0  0  0  0  0  0  0  0  0  0
   72.0920   33.0555   25.9317 C   0  0  0  0  0  0  0  0  0  0  0  0
   73.3285   32.5451   25.5143 C   0  0  0  0  0  0  0  0  0  0  0  0
   70.9717   31.0608   25.1500 C   0  0  0  0  0  0  0  0  0  0  0  0
   72.3080   29.1993   24.1298 C   0  0  0  0  0  0  0  0  0  0  0  0
   73.3876   31.2917   24.9187 C   0  0  0  0  0  0  0  0  0  0  0  0
   72.2122   30.5589   24.7430 C   0  0  0  0  0  0  0  0  0  0  0  0
 13 15  1  0  0  0
 16 14  2  0  0  0
 15 14  1  0  0  0
 15 17  1  0  0  0
 14  1  1  0  0  0
 31 28  2  0  0  0
 31 32  1  0  0  0
 28 27  1  0  0  0
 23 22  2  0  0  0
 23 20  1  0  0  0
 17 20  1  0  0  0
 22 21  1  0  0  0
  1  8  2  0  0  0
  1  2  1  0  0  0
 30 32  1  0  0  0
 32 29  2  0  0  0
 27 26  2  0  0  0
 20 18  2  0  0  0
  4  2  1  0  0  0
  8  5  1  0  0  0
  2  3  2  0  0  0
 26 29  1  0  0  0
 26 25  1  0  0  0
 21 24  1  0  0  0
 21 19  2  0  0  0
 18 19  1  0  0  0
  5  6  2  0  0  0
  5  7  1  0  0  0
  3  6  1  0  0  0
 25  7  1  0  0  0
  6  9  1  0  0  0
  7 10  2  0  0  0
  9 10  1  0  0  0
  4 11  1  0  0  0
  9 12  1  0  0  0
M  END
> <minimizedAffinity>
-9.18049

$$$$
6EY9_C4N_A_302


 32 35  0  0  0  0  0  0  0  0999 V2000
   68.3948   36.0695   22.7917 C   0  0  0  0  0  0  0  0  0  0  0  0
   67.0695   35.7000   22.4606 C   0  0  0  0  0  0  0  0  0  0  0  0
   66.4558   34.6119   23.0612 C   0  0  0  0  0  0  0  0  0  0  0  0
   66.4148   36.3843   21.4981 O   0  0  0  0  0  0  0  0  0  0  0  0
   68.4577   34.2719   24.4108 C   0  0  0  0  0  0  0  0  0  0  0  0
   67.1273   33.9056   24.0600 C   0  0  0  0  0  0  0  0  0  0  0  0
   68.8550   33.3680   25.4856 C   0  0  0  0  0  0  0  0  0  0  0  0
   69.1171   35.3024   23.7247 C   0  0  0  0  0  0  0  0  0  0  0  0
   66.7626   32.8788   24.8918 N   0  0  0  0  0  0  0  0  0  0  0  0
   67.8143   32.6404   25.7830 N   0  0  0  0  0  0  0  0  0  0  0  0
   66.8227   37.1210   21.0872 H   0  0  0  0  0  0  0  0  0  0  0  0
   65.9070   32.3924   24.8663 H   0  0  0  0  0  0  0  0  0  0  0  0
   69.8544   39.5038   21.8587 C   0  0  0  0  0  0  0  0  0  0  0  0
   69.0796   37.1829   22.0819 C   0  0  0  0  0  0  0  0  0  0  0  0
   69.1293   38.4556   22.5834 N   0  0  0  0  0  0  0  0  0  0  0  0
   69.6810   36.8967   21.0538 O   0  0  0  0  0  0  0  0  0  0  0  0
   68.3482   38.9079   23.7479 C   0  0  0  0  0  0  0  0  0  0  0  0
   69.7931   38.2030   25.6210 C   0  0  0  0  0  0  0  0  0  0  0  0
   70.5281   38.4497   26.7718 C   0  0  0  0  0  0  0  0  0  0  0  0
   69.1179   39.2520   24.9909 C   0  0  0  0  0  0  0  0  0  0  0  0
   70.5780   39.7460   27.2879 C   0  0  0  0  0  0  0  0  0  0  0  0
   69.9011   40.7907   26.6499 C   0  0  0  0  0  0  0  0  0  0  0  0
   69.1644   40.5526   25.4951 C   0  0  0  0  0  0  0  0  0  0  0  0
   71.4876   40.0449   28.7415 Cl  0  0  0  0  0  0  0  0  0  0  0  0
   70.1390   33.4530   26.2873 C   0  0  0  0  0  0  0  0  0  0  0  0
   71.3302   32.6777   25.7897 C   0  0  0  0  0  0  0  0  0  0  0  0
   72.6134   33.1968   25.9929 C   0  0  0  0  0  0  0  0  0  0  0  0
   73.7511   32.4603   25.6368 C   0  0  0  0  0  0  0  0  0  0  0  0
   71.1809   31.3855   25.2774 C   0  0  0  0  0  0  0  0  0  0  0  0
   72.1952   29.2707   24.3883 C   0  0  0  0  0  0  0  0  0  0  0  0
   73.6045   31.1855   25.1050 C   0  0  0  0  0  0  0  0  0  0  0  0
   72.3237   30.6571   24.9314 C   0  0  0  0  0  0  0  0  0  0  0  0
 13 15  1  0  0  0
 16 14  2  0  0  0
 15 14  1  0  0  0
 15 17  1  0  0  0
 14  1  1  0  0  0
 31 28  2  0  0  0
 31 32  1  0  0  0
 28 27  1  0  0  0
 23 22  2  0  0  0
 23 20  1  0  0  0
 17 20  1  0  0  0
 22 21  1  0  0  0
  1  8  2  0  0  0
  1  2  1  0  0  0
 30 32  1  0  0  0
 32 29  2  0  0  0
 27 26  2  0  0  0
 20 18  2  0  0  0
  4  2  1  0  0  0
  8  5  1  0  0  0
  2  3  2  0  0  0
 26 29  1  0  0  0
 26 25  1  0  0  0
 21 24  1  0  0  0
 21 19  2  0  0  0
 18 19  1  0  0  0
  5  6  2  0  0  0
  5  7  1  0  0  0
  3  6  1  0  0  0
 25  7  1  0  0  0
  6  9  1  0  0  0
  7 10  2  0  0  0
  9 10  1  0  0  0
  4 11  1  0  0  0
  9 12  1  0  0  0
M  END
> <minimizedAffinity>
-8.97671

$$$$
