2PK6_O33_B_301


 59 64  0  0  0  0  0  0  0  0999 V2000
   14.0906  -20.5267  -17.2576 C   0  0  0  0  0  0  0  0  0  0  0  0
   14.7853  -22.7163  -17.9909 C   0  0  0  0  0  0  0  0  0  0  0  0
   13.6198  -23.1025  -18.1123 O   0  0  0  0  0  0  0  0  0  0  0  0
   15.1383  -21.4868  -17.5889 N   0  0  0  0  0  0  0  0  0  0  0  0
   16.0878  -21.2362  -17.5185 H   0  0  0  0  0  0  0  0  0  0  0  0
   15.9230  -23.6501  -18.2799 C   0  0  0  0  0  0  0  0  0  0  0  0
   18.0470  -23.8028  -17.1518 C   0  0  0  0  0  0  0  0  0  0  0  0
   18.6581  -23.4510  -18.1411 O   0  0  0  0  0  0  0  0  0  0  0  0
   16.7140  -23.9333  -17.0934 N   0  0  0  0  0  0  0  0  0  0  0  0
   16.2766  -24.2171  -16.2583 H   0  0  0  0  0  0  0  0  0  0  0  0
   18.8496  -24.0802  -15.8939 C   0  0  0  0  0  0  0  0  0  0  0  0
   19.6183  -25.2692  -16.0106 O   0  0  0  0  0  0  0  0  0  0  0  0
   19.2027  -28.8289  -18.0797 C   0  0  0  0  0  0  0  0  0  0  0  0
   19.3277  -27.6051  -17.4112 C   0  0  0  0  0  0  0  0  0  0  0  0
   19.0932  -27.5789  -16.0383 C   0  0  0  0  0  0  0  0  0  0  0  0
   18.7120  -28.7525  -15.3688 C   0  0  0  0  0  0  0  0  0  0  0  0
   18.5911  -29.9338  -16.1019 C   0  0  0  0  0  0  0  0  0  0  0  0
   19.2345  -26.3936  -15.3234 C   0  0  0  0  0  0  0  0  0  0  0  0
   18.9789  -26.3574  -13.9485 C   0  0  0  0  0  0  0  0  0  0  0  0
   18.5946  -27.5351  -13.2791 C   0  0  0  0  0  0  0  0  0  0  0  0
   18.4632  -28.7352  -13.9865 C   0  0  0  0  0  0  0  0  0  0  0  0
   18.8407  -29.9347  -17.4231 N   0  0  0  0  0  0  0  0  0  0  0  0
   15.3660  -24.9768  -18.8229 C   0  0  0  0  0  0  0  0  0  0  0  0
   15.4414  -24.8960  -20.5956 S   0  0  0  0  0  0  0  0  0  0  0  0
   17.1849  -25.0558  -20.8291 C   0  0  0  0  0  0  0  0  0  0  0  0
   13.9356  -19.6627  -18.5039 C   0  0  0  0  0  0  0  0  0  0  0  0
   15.0002  -18.6974  -18.5582 O   0  0  0  0  0  0  0  0  0  0  0  0
   14.9694  -18.1371  -17.7670 H   0  0  0  0  0  0  0  0  0  0  0  0
   12.6143  -18.9559  -18.4399 C   0  0  0  0  0  0  0  0  0  0  0  0
   12.5219  -17.9175  -17.8319 O   0  0  0  0  0  0  0  0  0  0  0  0
   11.5819  -19.5260  -19.0376 N   0  0  0  0  0  0  0  0  0  0  0  0
   10.3163  -18.7979  -19.0388 C   0  0  0  0  0  0  0  0  0  0  0  0
    9.4485  -19.4560  -20.1255 C   0  0  0  0  0  0  0  0  0  0  0  0
   11.5943  -20.8145  -19.7321 C   0  0  0  0  0  0  0  0  0  0  0  0
    7.9329  -19.2820  -19.9862 C   0  0  0  0  0  0  0  0  0  0  0  0
    9.8313  -18.8165  -21.4659 C   0  0  0  0  0  0  0  0  0  0  0  0
    9.9143  -21.1853  -20.0510 S   0  0  0  0  0  0  0  0  0  0  0  0
    9.5765  -18.7620  -17.7098 C   0  0  0  0  0  0  0  0  0  0  0  0
    9.4323  -19.7870  -16.9864 O   0  0  0  0  0  0  0  0  0  0  0  0
    9.0830  -17.5496  -17.4228 N   0  0  0  0  0  0  0  0  0  0  0  0
    9.2829  -16.7972  -18.0256 H   0  0  0  0  0  0  0  0  0  0  0  0
    7.7090  -15.2980  -17.4758 O   0  0  0  0  0  0  0  0  0  0  0  0
    8.2551  -17.3113  -16.2386 C   0  0  0  0  0  0  0  0  0  0  0  0
    8.8790  -16.7272  -15.0342 C   0  0  0  0  0  0  0  0  0  0  0  0
   10.1163  -17.0738  -14.4785 C   0  0  0  0  0  0  0  0  0  0  0  0
   10.5251  -16.4254  -13.3062 C   0  0  0  0  0  0  0  0  0  0  0  0
    7.1665  -16.2793  -16.5791 C   0  0  0  0  0  0  0  0  0  0  0  0
    8.0678  -15.7926  -14.4639 C   0  0  0  0  0  0  0  0  0  0  0  0
    8.4544  -15.1181  -13.3090 C   0  0  0  0  0  0  0  0  0  0  0  0
    9.7013  -15.4341  -12.7538 C   0  0  0  0  0  0  0  0  0  0  0  0
    6.7939  -15.6067  -15.2588 C   0  0  0  0  0  0  0  0  0  0  0  0
    7.9463  -15.7229  -18.3149 H   0  0  0  0  0  0  0  0  0  0  0  0
   14.5441  -19.7485  -16.0132 C   0  0  0  0  0  0  0  0  0  0  0  0
   15.0142  -20.7538  -14.9820 C   0  0  0  0  0  0  0  0  0  0  0  0
   15.8967  -22.5717  -13.1237 C   0  0  0  0  0  0  0  0  0  0  0  0
   16.3856  -20.8754  -14.7487 C   0  0  0  0  0  0  0  0  0  0  0  0
   14.0769  -21.5163  -14.2649 C   0  0  0  0  0  0  0  0  0  0  0  0
   16.8251  -21.8094  -13.8279 C   0  0  0  0  0  0  0  0  0  0  0  0
   14.5254  -22.4490  -13.3218 C   0  0  0  0  0  0  0  0  0  0  0  0
  7  8  2  0  0  0
  7  9  1  0  0  0
  7 11  1  0  0  0
  6 23  1  0  0  0
  6  2  1  0  0  0
  6  9  1  0  0  0
  2  3  2  0  0  0
  2  4  1  0  0  0
  1 26  1  0  0  0
  1  4  1  0  0  0
  1 53  1  0  0  0
 26 27  1  0  0  0
 26 29  1  0  0  0
 29 31  1  0  0  0
 29 30  2  0  0  0
 53 54  1  0  0  0
 54 56  2  0  0  0
 54 57  1  0  0  0
 56 58  1  0  0  0
 55 58  2  0  0  0
 55 59  1  0  0  0
 59 57  2  0  0  0
 34 37  1  0  0  0
 34 31  1  0  0  0
 32 33  1  0  0  0
 32 31  1  0  0  0
 32 38  1  0  0  0
 35 33  1  0  0  0
 36 33  1  0  0  0
 23 24  1  0  0  0
 11 12  1  0  0  0
 25 24  1  0  0  0
 16 15  1  0  0  0
 16 21  1  0  0  0
 16 17  2  0  0  0
 15 18  1  0  0  0
 15 14  2  0  0  0
 17 22  1  0  0  0
 13 14  1  0  0  0
 13 22  2  0  0  0
 43 40  1  0  0  0
 43 47  1  0  0  0
 43 44  1  0  0  0
 39 38  2  0  0  0
 38 40  1  0  0  0
 44 48  2  0  0  0
 44 45  1  0  0  0
 45 46  2  0  0  0
 46 50  1  0  0  0
 50 49  2  0  0  0
 49 48  1  0  0  0
 48 51  1  0  0  0
 51 47  1  0  0  0
 47 42  1  0  0  0
 33 37  1  0  0  0
 12 18  1  0  0  0
 18 19  2  0  0  0
 19 20  1  0  0  0
 20 21  2  0  0  0
  9 10  1  0  0  0
  4  5  1  0  0  0
 27 28  1  0  0  0
 40 41  1  0  0  0
 42 52  1  0  0  0
M  END
> <minimizedAffinity>
-12.45342

$$$$
2PK6_O33_B_301


 59 64  0  0  0  0  0  0  0  0999 V2000
   14.1948  -20.5346  -17.2676 C   0  0  0  0  0  0  0  0  0  0  0  0
   14.8850  -22.7422  -17.9497 C   0  0  0  0  0  0  0  0  0  0  0  0
   13.7204  -23.1462  -18.0036 O   0  0  0  0  0  0  0  0  0  0  0  0
   15.2393  -21.4943  -17.6101 N   0  0  0  0  0  0  0  0  0  0  0  0
   16.1876  -21.2302  -17.5923 H   0  0  0  0  0  0  0  0  0  0  0  0
   16.0209  -23.6730  -18.2552 C   0  0  0  0  0  0  0  0  0  0  0  0
   18.1148  -24.0675  -17.1293 C   0  0  0  0  0  0  0  0  0  0  0  0
   18.7597  -23.8227  -18.1293 O   0  0  0  0  0  0  0  0  0  0  0  0
   16.7764  -24.0244  -17.0638 N   0  0  0  0  0  0  0  0  0  0  0  0
   16.3114  -24.2281  -16.2203 H   0  0  0  0  0  0  0  0  0  0  0  0
   18.8829  -24.4129  -15.8668 C   0  0  0  0  0  0  0  0  0  0  0  0
   18.0218  -24.8743  -14.8354 O   0  0  0  0  0  0  0  0  0  0  0  0
   15.7967  -27.0984  -12.1469 C   0  0  0  0  0  0  0  0  0  0  0  0
   16.5155  -26.3290  -13.0697 C   0  0  0  0  0  0  0  0  0  0  0  0
   17.7613  -25.8372  -12.6868 C   0  0  0  0  0  0  0  0  0  0  0  0
   18.2494  -26.0911  -11.3952 C   0  0  0  0  0  0  0  0  0  0  0  0
   17.4716  -26.8523  -10.5218 C   0  0  0  0  0  0  0  0  0  0  0  0
   18.5278  -25.0932  -13.5784 C   0  0  0  0  0  0  0  0  0  0  0  0
   19.7697  -24.5786  -13.1914 C   0  0  0  0  0  0  0  0  0  0  0  0
   20.2568  -24.8325  -11.8948 C   0  0  0  0  0  0  0  0  0  0  0  0
   19.4997  -25.5912  -10.9952 C   0  0  0  0  0  0  0  0  0  0  0  0
   16.2805  -27.3299  -10.9232 N   0  0  0  0  0  0  0  0  0  0  0  0
   15.4659  -24.9642  -18.8794 C   0  0  0  0  0  0  0  0  0  0  0  0
   15.4998  -24.7562  -20.6429 S   0  0  0  0  0  0  0  0  0  0  0  0
   17.0067  -25.5990  -21.0154 C   0  0  0  0  0  0  0  0  0  0  0  0
   14.0237  -19.6730  -18.5133 C   0  0  0  0  0  0  0  0  0  0  0  0
   15.0869  -18.7070  -18.5827 O   0  0  0  0  0  0  0  0  0  0  0  0
   15.0656  -18.1454  -17.7921 H   0  0  0  0  0  0  0  0  0  0  0  0
   12.7027  -18.9669  -18.4340 C   0  0  0  0  0  0  0  0  0  0  0  0
   12.6178  -17.9263  -17.8284 O   0  0  0  0  0  0  0  0  0  0  0  0
   11.6628  -19.5398  -19.0156 N   0  0  0  0  0  0  0  0  0  0  0  0
   10.3968  -18.8126  -19.0022 C   0  0  0  0  0  0  0  0  0  0  0  0
    9.5149  -19.4753  -20.0747 C   0  0  0  0  0  0  0  0  0  0  0  0
   11.6668  -20.8308  -19.7056 C   0  0  0  0  0  0  0  0  0  0  0  0
    8.0012  -19.3019  -19.9155 C   0  0  0  0  0  0  0  0  0  0  0  0
    9.8789  -18.8403  -21.4225 C   0  0  0  0  0  0  0  0  0  0  0  0
    9.9829  -21.2040  -20.0004 S   0  0  0  0  0  0  0  0  0  0  0  0
    9.6750  -18.7726  -17.6634 C   0  0  0  0  0  0  0  0  0  0  0  0
    9.6020  -19.7776  -16.9024 O   0  0  0  0  0  0  0  0  0  0  0  0
    9.1147  -17.5817  -17.4111 N   0  0  0  0  0  0  0  0  0  0  0  0
    9.2610  -16.8410  -18.0430 H   0  0  0  0  0  0  0  0  0  0  0  0
    7.6977  -15.3571  -17.4711 O   0  0  0  0  0  0  0  0  0  0  0  0
    8.2909  -17.3500  -16.2228 C   0  0  0  0  0  0  0  0  0  0  0  0
    8.9122  -16.7450  -15.0274 C   0  0  0  0  0  0  0  0  0  0  0  0
   10.1599  -17.0637  -14.4782 C   0  0  0  0  0  0  0  0  0  0  0  0
   10.5647  -16.3987  -13.3139 C   0  0  0  0  0  0  0  0  0  0  0  0
    7.1804  -16.3415  -16.5630 C   0  0  0  0  0  0  0  0  0  0  0  0
    8.0875  -15.8215  -14.4582 C   0  0  0  0  0  0  0  0  0  0  0  0
    8.4695  -15.1309  -13.3113 C   0  0  0  0  0  0  0  0  0  0  0  0
    9.7262  -15.4190  -12.7629 C   0  0  0  0  0  0  0  0  0  0  0  0
    6.8047  -15.6660  -15.2452 C   0  0  0  0  0  0  0  0  0  0  0  0
    7.9370  -15.7838  -18.3086 H   0  0  0  0  0  0  0  0  0  0  0  0
   14.6629  -19.7540  -16.0302 C   0  0  0  0  0  0  0  0  0  0  0  0
   15.0832  -20.7593  -14.9777 C   0  0  0  0  0  0  0  0  0  0  0  0
   15.8757  -22.5785  -13.0806 C   0  0  0  0  0  0  0  0  0  0  0  0
   16.4463  -20.9284  -14.7263 C   0  0  0  0  0  0  0  0  0  0  0  0
   14.1099  -21.4744  -14.2598 C   0  0  0  0  0  0  0  0  0  0  0  0
   16.8400  -21.8631  -13.7857 C   0  0  0  0  0  0  0  0  0  0  0  0
   14.5123  -22.4078  -13.2969 C   0  0  0  0  0  0  0  0  0  0  0  0
  7  8  2  0  0  0
  7  9  1  0  0  0
  7 11  1  0  0  0
  6 23  1  0  0  0
  6  2  1  0  0  0
  6  9  1  0  0  0
  2  3  2  0  0  0
  2  4  1  0  0  0
  1 26  1  0  0  0
  1  4  1  0  0  0
  1 53  1  0  0  0
 26 27  1  0  0  0
 26 29  1  0  0  0
 29 31  1  0  0  0
 29 30  2  0  0  0
 53 54  1  0  0  0
 54 56  2  0  0  0
 54 57  1  0  0  0
 56 58  1  0  0  0
 55 58  2  0  0  0
 55 59  1  0  0  0
 59 57  2  0  0  0
 34 37  1  0  0  0
 34 31  1  0  0  0
 32 33  1  0  0  0
 32 31  1  0  0  0
 32 38  1  0  0  0
 35 33  1  0  0  0
 36 33  1  0  0  0
 23 24  1  0  0  0
 11 12  1  0  0  0
 25 24  1  0  0  0
 16 15  1  0  0  0
 16 21  1  0  0  0
 16 17  2  0  0  0
 15 18  1  0  0  0
 15 14  2  0  0  0
 17 22  1  0  0  0
 13 14  1  0  0  0
 13 22  2  0  0  0
 43 40  1  0  0  0
 43 47  1  0  0  0
 43 44  1  0  0  0
 39 38  2  0  0  0
 38 40  1  0  0  0
 44 48  2  0  0  0
 44 45  1  0  0  0
 45 46  2  0  0  0
 46 50  1  0  0  0
 50 49  2  0  0  0
 49 48  1  0  0  0
 48 51  1  0  0  0
 51 47  1  0  0  0
 47 42  1  0  0  0
 33 37  1  0  0  0
 12 18  1  0  0  0
 18 19  2  0  0  0
 19 20  1  0  0  0
 20 21  2  0  0  0
  9 10  1  0  0  0
  4  5  1  0  0  0
 27 28  1  0  0  0
 40 41  1  0  0  0
 42 52  1  0  0  0
M  END
> <minimizedAffinity>
-12.41060

$$$$
2PK6_O33_B_301


 59 64  0  0  0  0  0  0  0  0999 V2000
   10.8496  -18.9908  -16.1067 C   0  0  0  0  0  0  0  0  0  0  0  0
   12.9163  -20.2264  -15.9749 C   0  0  0  0  0  0  0  0  0  0  0  0
   13.5936  -19.1951  -15.9788 O   0  0  0  0  0  0  0  0  0  0  0  0
   11.5767  -20.2536  -16.0283 N   0  0  0  0  0  0  0  0  0  0  0  0
   11.0922  -21.1105  -16.0149 H   0  0  0  0  0  0  0  0  0  0  0  0
   13.5856  -21.5679  -15.9289 C   0  0  0  0  0  0  0  0  0  0  0  0
   13.0338  -22.5773  -18.0465 C   0  0  0  0  0  0  0  0  0  0  0  0
   11.8647  -22.7047  -17.7415 O   0  0  0  0  0  0  0  0  0  0  0  0
   13.9674  -22.0351  -17.2516 N   0  0  0  0  0  0  0  0  0  0  0  0
   14.8990  -21.9543  -17.5595 H   0  0  0  0  0  0  0  0  0  0  0  0
   13.4508  -23.0355  -19.4320 C   0  0  0  0  0  0  0  0  0  0  0  0
   14.8353  -22.8177  -19.6646 O   0  0  0  0  0  0  0  0  0  0  0  0
   17.8148  -24.0873  -17.0886 C   0  0  0  0  0  0  0  0  0  0  0  0
   16.8147  -23.6198  -17.9497 C   0  0  0  0  0  0  0  0  0  0  0  0
   16.6329  -24.2771  -19.1643 C   0  0  0  0  0  0  0  0  0  0  0  0
   17.4618  -25.3563  -19.5094 C   0  0  0  0  0  0  0  0  0  0  0  0
   18.4492  -25.7583  -18.6090 C   0  0  0  0  0  0  0  0  0  0  0  0
   15.6321  -23.8700  -20.0411 C   0  0  0  0  0  0  0  0  0  0  0  0
   15.4597  -24.5128  -21.2716 C   0  0  0  0  0  0  0  0  0  0  0  0
   16.2934  -25.5938  -21.6169 C   0  0  0  0  0  0  0  0  0  0  0  0
   17.2938  -26.0197  -20.7361 C   0  0  0  0  0  0  0  0  0  0  0  0
   18.5915  -25.1176  -17.4355 N   0  0  0  0  0  0  0  0  0  0  0  0
   14.8514  -21.4746  -15.0604 C   0  0  0  0  0  0  0  0  0  0  0  0
   14.3960  -21.9460  -13.4096 S   0  0  0  0  0  0  0  0  0  0  0  0
   15.7291  -23.0416  -13.0322 C   0  0  0  0  0  0  0  0  0  0  0  0
   11.3327  -18.3341  -17.3947 C   0  0  0  0  0  0  0  0  0  0  0  0
   12.0000  -17.0981  -17.0864 O   0  0  0  0  0  0  0  0  0  0  0  0
   11.3850  -16.5042  -16.6282 H   0  0  0  0  0  0  0  0  0  0  0  0
   10.1470  -18.0639  -18.2727 C   0  0  0  0  0  0  0  0  0  0  0  0
    9.4541  -17.0990  -18.0593 O   0  0  0  0  0  0  0  0  0  0  0  0
    9.8894  -18.9259  -19.2415 N   0  0  0  0  0  0  0  0  0  0  0  0
    8.7811  -18.6188  -20.1411 C   0  0  0  0  0  0  0  0  0  0  0  0
    8.9735  -19.5178  -21.3747 C   0  0  0  0  0  0  0  0  0  0  0  0
   10.6356  -20.1539  -19.5207 C   0  0  0  0  0  0  0  0  0  0  0  0
    7.7206  -19.8137  -22.2050 C   0  0  0  0  0  0  0  0  0  0  0  0
    9.9507  -18.8013  -22.3149 C   0  0  0  0  0  0  0  0  0  0  0  0
    9.6757  -21.0219  -20.6984 S   0  0  0  0  0  0  0  0  0  0  0  0
    7.3886  -18.8012  -19.5558 C   0  0  0  0  0  0  0  0  0  0  0  0
    6.9189  -19.9369  -19.2652 O   0  0  0  0  0  0  0  0  0  0  0  0
    6.7272  -17.6438  -19.4189 N   0  0  0  0  0  0  0  0  0  0  0  0
    7.1899  -16.8009  -19.6306 H   0  0  0  0  0  0  0  0  0  0  0  0
    5.0498  -16.5254  -21.1206 O   0  0  0  0  0  0  0  0  0  0  0  0
    5.3362  -17.5963  -18.9635 C   0  0  0  0  0  0  0  0  0  0  0  0
    4.9145  -16.5050  -18.0622 C   0  0  0  0  0  0  0  0  0  0  0  0
    5.6164  -16.0125  -16.9555 C   0  0  0  0  0  0  0  0  0  0  0  0
    5.0334  -14.9881  -16.1989 C   0  0  0  0  0  0  0  0  0  0  0  0
    4.4110  -17.3980  -20.1761 C   0  0  0  0  0  0  0  0  0  0  0  0
    3.6881  -16.0245  -18.4114 C   0  0  0  0  0  0  0  0  0  0  0  0
    3.0908  -14.9945  -17.6900 C   0  0  0  0  0  0  0  0  0  0  0  0
    3.7910  -14.4721  -16.5946 C   0  0  0  0  0  0  0  0  0  0  0  0
    3.1489  -16.7249  -19.6393 C   0  0  0  0  0  0  0  0  0  0  0  0
    5.8516  -16.9508  -21.4628 H   0  0  0  0  0  0  0  0  0  0  0  0
   11.1710  -18.1852  -14.8388 C   0  0  0  0  0  0  0  0  0  0  0  0
    9.9621  -17.3335  -14.5102 C   0  0  0  0  0  0  0  0  0  0  0  0
    7.7524  -15.8106  -13.9315 C   0  0  0  0  0  0  0  0  0  0  0  0
    8.6928  -17.8459  -14.7862 C   0  0  0  0  0  0  0  0  0  0  0  0
   10.1313  -16.0724  -13.9143 C   0  0  0  0  0  0  0  0  0  0  0  0
    7.5845  -17.0643  -14.5137 C   0  0  0  0  0  0  0  0  0  0  0  0
    9.0058  -15.2913  -13.6249 C   0  0  0  0  0  0  0  0  0  0  0  0
  7  8  2  0  0  0
  7  9  1  0  0  0
  7 11  1  0  0  0
  6 23  1  0  0  0
  6  2  1  0  0  0
  6  9  1  0  0  0
  2  3  2  0  0  0
  2  4  1  0  0  0
  1 26  1  0  0  0
  1  4  1  0  0  0
  1 53  1  0  0  0
 26 27  1  0  0  0
 26 29  1  0  0  0
 29 31  1  0  0  0
 29 30  2  0  0  0
 53 54  1  0  0  0
 54 56  2  0  0  0
 54 57  1  0  0  0
 56 58  1  0  0  0
 55 58  2  0  0  0
 55 59  1  0  0  0
 59 57  2  0  0  0
 34 37  1  0  0  0
 34 31  1  0  0  0
 32 33  1  0  0  0
 32 31  1  0  0  0
 32 38  1  0  0  0
 35 33  1  0  0  0
 36 33  1  0  0  0
 23 24  1  0  0  0
 11 12  1  0  0  0
 25 24  1  0  0  0
 16 15  1  0  0  0
 16 21  1  0  0  0
 16 17  2  0  0  0
 15 18  1  0  0  0
 15 14  2  0  0  0
 17 22  1  0  0  0
 13 14  1  0  0  0
 13 22  2  0  0  0
 43 40  1  0  0  0
 43 47  1  0  0  0
 43 44  1  0  0  0
 39 38  2  0  0  0
 38 40  1  0  0  0
 44 48  2  0  0  0
 44 45  1  0  0  0
 45 46  2  0  0  0
 46 50  1  0  0  0
 50 49  2  0  0  0
 49 48  1  0  0  0
 48 51  1  0  0  0
 51 47  1  0  0  0
 47 42  1  0  0  0
 33 37  1  0  0  0
 12 18  1  0  0  0
 18 19  2  0  0  0
 19 20  1  0  0  0
 20 21  2  0  0  0
  9 10  1  0  0  0
  4  5  1  0  0  0
 27 28  1  0  0  0
 40 41  1  0  0  0
 42 52  1  0  0  0
M  END
> <minimizedAffinity>
-9.81961

$$$$
2PK6_O33_B_301


 59 64  0  0  0  0  0  0  0  0999 V2000
   17.2101  -23.6808  -16.9805 C   0  0  0  0  0  0  0  0  0  0  0  0
   15.3372  -22.2112  -16.5963 C   0  0  0  0  0  0  0  0  0  0  0  0
   14.8995  -22.9217  -15.6875 O   0  0  0  0  0  0  0  0  0  0  0  0
   16.4521  -22.4738  -17.2935 N   0  0  0  0  0  0  0  0  0  0  0  0
   16.7541  -21.8629  -18.0040 H   0  0  0  0  0  0  0  0  0  0  0  0
   14.6015  -20.9691  -17.0033 C   0  0  0  0  0  0  0  0  0  0  0  0
   13.2433  -21.6569  -18.8715 C   0  0  0  0  0  0  0  0  0  0  0  0
   14.2106  -21.7886  -19.5947 O   0  0  0  0  0  0  0  0  0  0  0  0
   13.3052  -21.2679  -17.5900 N   0  0  0  0  0  0  0  0  0  0  0  0
   12.4839  -21.1856  -17.0534 H   0  0  0  0  0  0  0  0  0  0  0  0
   11.8817  -21.9868  -19.4549 C   0  0  0  0  0  0  0  0  0  0  0  0
   10.8533  -21.1997  -18.8709 O   0  0  0  0  0  0  0  0  0  0  0  0
    9.0896  -17.7353  -17.4522 C   0  0  0  0  0  0  0  0  0  0  0  0
    9.6828  -18.9235  -17.8956 C   0  0  0  0  0  0  0  0  0  0  0  0
    9.3874  -19.3653  -19.1831 C   0  0  0  0  0  0  0  0  0  0  0  0
    8.4919  -18.6407  -19.9857 C   0  0  0  0  0  0  0  0  0  0  0  0
    7.9252  -17.4732  -19.4727 C   0  0  0  0  0  0  0  0  0  0  0  0
    9.9754  -20.5238  -19.6812 C   0  0  0  0  0  0  0  0  0  0  0  0
    9.6650  -20.9835  -20.9654 C   0  0  0  0  0  0  0  0  0  0  0  0
    8.7651  -20.2566  -21.7682 C   0  0  0  0  0  0  0  0  0  0  0  0
    8.1790  -19.0828  -21.2817 C   0  0  0  0  0  0  0  0  0  0  0  0
    8.2415  -17.0598  -18.2330 N   0  0  0  0  0  0  0  0  0  0  0  0
   14.3844  -20.0794  -15.7679 C   0  0  0  0  0  0  0  0  0  0  0  0
   12.6794  -20.2367  -15.2959 S   0  0  0  0  0  0  0  0  0  0  0  0
   12.1690  -18.5527  -15.4501 C   0  0  0  0  0  0  0  0  0  0  0  0
   18.1567  -23.2747  -15.8568 C   0  0  0  0  0  0  0  0  0  0  0  0
   19.1817  -22.4104  -16.3769 O   0  0  0  0  0  0  0  0  0  0  0  0
   19.6772  -22.8762  -17.0686 H   0  0  0  0  0  0  0  0  0  0  0  0
   18.7811  -24.5111  -15.2813 C   0  0  0  0  0  0  0  0  0  0  0  0
   19.7838  -24.9608  -15.7803 O   0  0  0  0  0  0  0  0  0  0  0  0
   18.1791  -25.0828  -14.2524 N   0  0  0  0  0  0  0  0  0  0  0  0
   18.8310  -26.2406  -13.6471 C   0  0  0  0  0  0  0  0  0  0  0  0
   18.1729  -26.4264  -12.2689 C   0  0  0  0  0  0  0  0  0  0  0  0
   16.9263  -24.6429  -13.6362 C   0  0  0  0  0  0  0  0  0  0  0  0
   18.2512  -27.8297  -11.6594 C   0  0  0  0  0  0  0  0  0  0  0  0
   18.8938  -25.4931  -11.2883 C   0  0  0  0  0  0  0  0  0  0  0  0
   16.4724  -25.9290  -12.5400 S   0  0  0  0  0  0  0  0  0  0  0  0
   18.7633  -27.5296  -14.4525 C   0  0  0  0  0  0  0  0  0  0  0  0
   17.6705  -28.0303  -14.8397 O   0  0  0  0  0  0  0  0  0  0  0  0
   19.9700  -28.0709  -14.6685 N   0  0  0  0  0  0  0  0  0  0  0  0
   20.7721  -27.5865  -14.3666 H   0  0  0  0  0  0  0  0  0  0  0  0
   21.8814  -29.5966  -13.6792 O   0  0  0  0  0  0  0  0  0  0  0  0
   20.1301  -29.3622  -15.3405 C   0  0  0  0  0  0  0  0  0  0  0  0
   20.9257  -29.4293  -16.5829 C   0  0  0  0  0  0  0  0  0  0  0  0
   20.8858  -28.5289  -17.6542 C   0  0  0  0  0  0  0  0  0  0  0  0
   21.6975  -28.7816  -18.7673 C   0  0  0  0  0  0  0  0  0  0  0  0
   20.8866  -30.3276  -14.4123 C   0  0  0  0  0  0  0  0  0  0  0  0
   21.7184  -30.5375  -16.6003 C   0  0  0  0  0  0  0  0  0  0  0  0
   22.5497  -30.8060  -17.6843 C   0  0  0  0  0  0  0  0  0  0  0  0
   22.5414  -29.9015  -18.7543 C   0  0  0  0  0  0  0  0  0  0  0  0
   21.5746  -31.3405  -15.3261 C   0  0  0  0  0  0  0  0  0  0  0  0
   21.4468  -28.9528  -13.0982 H   0  0  0  0  0  0  0  0  0  0  0  0
   17.9243  -24.1319  -18.2635 C   0  0  0  0  0  0  0  0  0  0  0  0
   16.8669  -24.5830  -19.2502 C   0  0  0  0  0  0  0  0  0  0  0  0
   14.9694  -25.3896  -21.0627 C   0  0  0  0  0  0  0  0  0  0  0  0
   17.1900  -24.6025  -20.6085 C   0  0  0  0  0  0  0  0  0  0  0  0
   15.6060  -24.9972  -18.7893 C   0  0  0  0  0  0  0  0  0  0  0  0
   16.2221  -24.9879  -21.5186 C   0  0  0  0  0  0  0  0  0  0  0  0
   14.6345  -25.4022  -19.7127 C   0  0  0  0  0  0  0  0  0  0  0  0
  7  8  2  0  0  0
  7  9  1  0  0  0
  7 11  1  0  0  0
  6 23  1  0  0  0
  6  2  1  0  0  0
  6  9  1  0  0  0
  2  3  2  0  0  0
  2  4  1  0  0  0
  1 26  1  0  0  0
  1  4  1  0  0  0
  1 53  1  0  0  0
 26 27  1  0  0  0
 26 29  1  0  0  0
 29 31  1  0  0  0
 29 30  2  0  0  0
 53 54  1  0  0  0
 54 56  2  0  0  0
 54 57  1  0  0  0
 56 58  1  0  0  0
 55 58  2  0  0  0
 55 59  1  0  0  0
 59 57  2  0  0  0
 34 37  1  0  0  0
 34 31  1  0  0  0
 32 33  1  0  0  0
 32 31  1  0  0  0
 32 38  1  0  0  0
 35 33  1  0  0  0
 36 33  1  0  0  0
 23 24  1  0  0  0
 11 12  1  0  0  0
 25 24  1  0  0  0
 16 15  1  0  0  0
 16 21  1  0  0  0
 16 17  2  0  0  0
 15 18  1  0  0  0
 15 14  2  0  0  0
 17 22  1  0  0  0
 13 14  1  0  0  0
 13 22  2  0  0  0
 43 40  1  0  0  0
 43 47  1  0  0  0
 43 44  1  0  0  0
 39 38  2  0  0  0
 38 40  1  0  0  0
 44 48  2  0  0  0
 44 45  1  0  0  0
 45 46  2  0  0  0
 46 50  1  0  0  0
 50 49  2  0  0  0
 49 48  1  0  0  0
 48 51  1  0  0  0
 51 47  1  0  0  0
 47 42  1  0  0  0
 33 37  1  0  0  0
 12 18  1  0  0  0
 18 19  2  0  0  0
 19 20  1  0  0  0
 20 21  2  0  0  0
  9 10  1  0  0  0
  4  5  1  0  0  0
 27 28  1  0  0  0
 40 41  1  0  0  0
 42 52  1  0  0  0
M  END
> <minimizedAffinity>
-9.69313

$$$$
