1X39_IDE_A_1001


 27 29  0  0  0  0  0  0  0  0999 V2000
   23.7796   25.0598   34.0858 C   0  0  0  0  0  0  0  0  0  0  0  0
   22.7259   24.3202   34.9405 C   0  0  0  0  0  0  0  0  0  0  0  0
   22.2278   23.1668   34.2588 O   0  0  0  0  0  0  0  0  0  0  0  0
   23.2895   23.8907   36.3146 C   0  0  0  0  0  0  0  0  0  0  0  0
   22.2845   23.1760   37.0558 O   0  0  0  0  0  0  0  0  0  0  0  0
   23.7283   25.0851   37.1618 C   0  0  0  0  0  0  0  0  0  0  0  0
   24.6898   24.7265   38.1600 O   0  0  0  0  0  0  0  0  0  0  0  0
   24.2974   26.1435   34.9677 N   0  0  0  0  0  0  0  0  0  0  0  0
   24.8654   27.3181   34.4682 C   0  0  0  0  0  0  0  0  0  0  0  0
   25.1855   27.9889   35.6024 C   0  0  0  0  0  0  0  0  0  0  0  0
   24.8332   27.2812   36.7240 N   0  0  0  0  0  0  0  0  0  0  0  0
   24.2899   26.1525   36.3041 C   0  0  0  0  0  0  0  0  0  0  0  0
   22.9528   22.5391   34.1130 H   0  0  0  0  0  0  0  0  0  0  0  0
   21.5274   23.7597   37.2197 H   0  0  0  0  0  0  0  0  0  0  0  0
   25.4956   24.3996   37.7301 H   0  0  0  0  0  0  0  0  0  0  0  0
   22.9211   24.3961   31.9382 O   0  0  0  0  0  0  0  0  0  0  0  0
   23.2352   25.5314   32.7335 C   0  0  0  0  0  0  0  0  0  0  0  0
   22.5757   24.6881   31.0801 H   0  0  0  0  0  0  0  0  0  0  0  0
   25.8544   29.3258   35.4934 C   0  0  0  0  0  0  0  0  0  0  0  0
   25.4312   29.9588   34.2495 N   0  0  0  0  0  0  0  0  0  0  0  0
   25.3223   29.4236   33.4304 H   0  0  0  0  0  0  0  0  0  0  0  0
   25.1717   31.3906   34.2330 C   0  0  0  0  0  0  0  0  0  0  0  0
   23.9480   31.8686   33.7547 C   0  0  0  0  0  0  0  0  0  0  0  0
   23.6965   33.2416   33.7391 C   0  0  0  0  0  0  0  0  0  0  0  0
   24.6778   34.1259   34.1946 C   0  0  0  0  0  0  0  0  0  0  0  0
   25.9067   33.6517   34.6609 C   0  0  0  0  0  0  0  0  0  0  0  0
   26.1511   32.2811   34.6856 C   0  0  0  0  0  0  0  0  0  0  0  0
 16 17  1  0  0  0
 17  1  1  0  0  0
  1  2  1  0  0  0
  1  8  1  0  0  0
  2  3  1  0  0  0
  2  4  1  0  0  0
  4  5  1  0  0  0
  4  6  1  0  0  0
  6  7  1  0  0  0
  6 12  1  0  0  0
  8  9  1  0  0  0
  8 12  1  0  0  0
  9 10  2  0  0  0
 10 11  1  0  0  0
 10 19  1  0  0  0
 11 12  2  0  0  0
 19 20  1  0  0  0
 20 22  1  0  0  0
 22 23  2  0  0  0
 22 27  1  0  0  0
 23 24  1  0  0  0
 24 25  2  0  0  0
 25 26  1  0  0  0
 26 27  2  0  0  0
 16 18  1  0  0  0
  3 13  1  0  0  0
  5 14  1  0  0  0
  7 15  1  0  0  0
 20 21  1  0  0  0
M  END
> <minimizedAffinity>
-9.01018

$$$$
1X39_IDE_A_1001


 27 29  0  0  0  0  0  0  0  0999 V2000
   27.9773   31.6893   36.6694 C   0  0  0  0  0  0  0  0  0  0  0  0
   29.2698   31.4207   37.4726 C   0  0  0  0  0  0  0  0  0  0  0  0
   29.9877   32.6331   37.7129 O   0  0  0  0  0  0  0  0  0  0  0  0
   28.9810   30.7282   38.8244 C   0  0  0  0  0  0  0  0  0  0  0  0
   30.2088   30.5336   39.5487 O   0  0  0  0  0  0  0  0  0  0  0  0
   28.3254   29.3586   38.6474 C   0  0  0  0  0  0  0  0  0  0  0  0
   27.5988   28.9434   39.8088 O   0  0  0  0  0  0  0  0  0  0  0  0
   27.2790   30.3741   36.6146 N   0  0  0  0  0  0  0  0  0  0  0  0
   26.3711   30.0417   35.6061 C   0  0  0  0  0  0  0  0  0  0  0  0
   25.9977   28.7860   35.9563 C   0  0  0  0  0  0  0  0  0  0  0  0
   26.6360   28.3692   37.0973 N   0  0  0  0  0  0  0  0  0  0  0  0
   27.4166   29.3644   37.4792 C   0  0  0  0  0  0  0  0  0  0  0  0
   29.4460   33.2276   38.2552 H   0  0  0  0  0  0  0  0  0  0  0  0
   30.7949   29.9508   39.0409 H   0  0  0  0  0  0  0  0  0  0  0  0
   26.8711   29.5633   39.9736 H   0  0  0  0  0  0  0  0  0  0  0  0
   29.4902   31.8865   34.8089 O   0  0  0  0  0  0  0  0  0  0  0  0
   28.2387   32.3398   35.3072 C   0  0  0  0  0  0  0  0  0  0  0  0
   29.6618   32.2949   33.9460 H   0  0  0  0  0  0  0  0  0  0  0  0
   24.9885   28.0651   35.1146 C   0  0  0  0  0  0  0  0  0  0  0  0
   24.1289   27.2768   35.9903 N   0  0  0  0  0  0  0  0  0  0  0  0
   23.8443   27.6346   36.8622 H   0  0  0  0  0  0  0  0  0  0  0  0
   23.6967   25.9555   35.5604 C   0  0  0  0  0  0  0  0  0  0  0  0
   23.6826   25.6390   34.1986 C   0  0  0  0  0  0  0  0  0  0  0  0
   23.2695   24.3717   33.7841 C   0  0  0  0  0  0  0  0  0  0  0  0
   22.8646   23.4339   34.7377 C   0  0  0  0  0  0  0  0  0  0  0  0
   22.8652   23.7520   36.0983 C   0  0  0  0  0  0  0  0  0  0  0  0
   23.2879   25.0132   36.5102 C   0  0  0  0  0  0  0  0  0  0  0  0
 16 17  1  0  0  0
 17  1  1  0  0  0
  1  2  1  0  0  0
  1  8  1  0  0  0
  2  3  1  0  0  0
  2  4  1  0  0  0
  4  5  1  0  0  0
  4  6  1  0  0  0
  6  7  1  0  0  0
  6 12  1  0  0  0
  8  9  1  0  0  0
  8 12  1  0  0  0
  9 10  2  0  0  0
 10 11  1  0  0  0
 10 19  1  0  0  0
 11 12  2  0  0  0
 19 20  1  0  0  0
 20 22  1  0  0  0
 22 23  2  0  0  0
 22 27  1  0  0  0
 23 24  1  0  0  0
 24 25  2  0  0  0
 25 26  1  0  0  0
 26 27  2  0  0  0
 16 18  1  0  0  0
  3 13  1  0  0  0
  5 14  1  0  0  0
  7 15  1  0  0  0
 20 21  1  0  0  0
M  END
> <minimizedAffinity>
-8.44743

$$$$
1X39_IDE_A_1001


 27 29  0  0  0  0  0  0  0  0999 V2000
   28.4840   29.5394   37.4613 C   0  0  0  0  0  0  0  0  0  0  0  0
   28.9582   30.9769   37.7719 C   0  0  0  0  0  0  0  0  0  0  0  0
   30.1569   30.9665   38.5503 O   0  0  0  0  0  0  0  0  0  0  0  0
   29.1981   31.8006   36.4857 C   0  0  0  0  0  0  0  0  0  0  0  0
   29.6722   33.1157   36.8261 O   0  0  0  0  0  0  0  0  0  0  0  0
   27.9248   31.9674   35.6564 C   0  0  0  0  0  0  0  0  0  0  0  0
   28.1990   32.2476   34.2796 O   0  0  0  0  0  0  0  0  0  0  0  0
   27.3210   29.7082   36.5452 N   0  0  0  0  0  0  0  0  0  0  0  0
   26.3115   28.7505   36.4206 C   0  0  0  0  0  0  0  0  0  0  0  0
   25.4903   29.3146   35.5007 C   0  0  0  0  0  0  0  0  0  0  0  0
   25.9563   30.5387   35.0912 N   0  0  0  0  0  0  0  0  0  0  0  0
   27.0814   30.7546   35.7492 C   0  0  0  0  0  0  0  0  0  0  0  0
   30.8686   30.5463   38.0425 H   0  0  0  0  0  0  0  0  0  0  0  0
   28.9973   33.5778   37.3477 H   0  0  0  0  0  0  0  0  0  0  0  0
   28.6727   31.4985   33.8853 H   0  0  0  0  0  0  0  0  0  0  0  0
   29.4321   28.2479   39.2565 O   0  0  0  0  0  0  0  0  0  0  0  0
   28.2008   28.7132   38.7201 C   0  0  0  0  0  0  0  0  0  0  0  0
   29.2597   27.7237   40.0542 H   0  0  0  0  0  0  0  0  0  0  0  0
   24.2645   28.5702   35.0651 C   0  0  0  0  0  0  0  0  0  0  0  0
   24.0511   27.4505   35.9751 N   0  0  0  0  0  0  0  0  0  0  0  0
   24.1366   27.5762   36.9478 H   0  0  0  0  0  0  0  0  0  0  0  0
   23.7103   26.1456   35.4287 C   0  0  0  0  0  0  0  0  0  0  0  0
   23.8274   25.9167   34.0544 C   0  0  0  0  0  0  0  0  0  0  0  0
   23.5021   24.6653   33.5284 C   0  0  0  0  0  0  0  0  0  0  0  0
   23.0527   23.6553   34.3831 C   0  0  0  0  0  0  0  0  0  0  0  0
   22.9222   23.8854   35.7551 C   0  0  0  0  0  0  0  0  0  0  0  0
   23.2576   25.1312   36.2791 C   0  0  0  0  0  0  0  0  0  0  0  0
 16 17  1  0  0  0
 17  1  1  0  0  0
  1  2  1  0  0  0
  1  8  1  0  0  0
  2  3  1  0  0  0
  2  4  1  0  0  0
  4  5  1  0  0  0
  4  6  1  0  0  0
  6  7  1  0  0  0
  6 12  1  0  0  0
  8  9  1  0  0  0
  8 12  1  0  0  0
  9 10  2  0  0  0
 10 11  1  0  0  0
 10 19  1  0  0  0
 11 12  2  0  0  0
 19 20  1  0  0  0
 20 22  1  0  0  0
 22 23  2  0  0  0
 22 27  1  0  0  0
 23 24  1  0  0  0
 24 25  2  0  0  0
 25 26  1  0  0  0
 26 27  2  0  0  0
 16 18  1  0  0  0
  3 13  1  0  0  0
  5 14  1  0  0  0
  7 15  1  0  0  0
 20 21  1  0  0  0
M  END
> <minimizedAffinity>
-8.32171

$$$$
1X39_IDE_A_1001


 27 29  0  0  0  0  0  0  0  0999 V2000
   25.4871   30.0910   34.5454 C   0  0  0  0  0  0  0  0  0  0  0  0
   24.0737   29.5341   34.2627 C   0  0  0  0  0  0  0  0  0  0  0  0
   23.4914   30.1642   33.1194 O   0  0  0  0  0  0  0  0  0  0  0  0
   24.0847   28.0034   34.0451 C   0  0  0  0  0  0  0  0  0  0  0  0
   22.7550   27.5399   33.7499 O   0  0  0  0  0  0  0  0  0  0  0  0
   24.5769   27.2447   35.2776 C   0  0  0  0  0  0  0  0  0  0  0  0
   25.0795   25.9433   34.9567 O   0  0  0  0  0  0  0  0  0  0  0  0
   26.0117   29.2575   35.6635 N   0  0  0  0  0  0  0  0  0  0  0  0
   26.9981   29.7082   36.5443 C   0  0  0  0  0  0  0  0  0  0  0  0
   27.1560   28.6442   37.3699 C   0  0  0  0  0  0  0  0  0  0  0  0
   26.3203   27.6110   37.0274 N   0  0  0  0  0  0  0  0  0  0  0  0
   25.6293   28.0157   35.9766 C   0  0  0  0  0  0  0  0  0  0  0  0
   24.0262   29.9674   32.3344 H   0  0  0  0  0  0  0  0  0  0  0  0
   22.1735   27.7239   34.5042 H   0  0  0  0  0  0  0  0  0  0  0  0
   25.8515   26.0290   34.3757 H   0  0  0  0  0  0  0  0  0  0  0  0
   25.5122   32.2850   33.5580 O   0  0  0  0  0  0  0  0  0  0  0  0
   25.4992   31.6011   34.8038 C   0  0  0  0  0  0  0  0  0  0  0  0
   25.5198   33.2422   33.7147 H   0  0  0  0  0  0  0  0  0  0  0  0
   28.1693   28.7215   38.4716 C   0  0  0  0  0  0  0  0  0  0  0  0
   27.4725   28.9644   39.7297 N   0  0  0  0  0  0  0  0  0  0  0  0
   27.0278   28.2248   40.2034 H   0  0  0  0  0  0  0  0  0  0  0  0
   27.4422   30.3126   40.2765 C   0  0  0  0  0  0  0  0  0  0  0  0
   26.6058   30.6039   41.3584 C   0  0  0  0  0  0  0  0  0  0  0  0
   26.5759   31.8962   41.8853 C   0  0  0  0  0  0  0  0  0  0  0  0
   27.3782   32.8894   41.3175 C   0  0  0  0  0  0  0  0  0  0  0  0
   28.2052   32.6042   40.2279 C   0  0  0  0  0  0  0  0  0  0  0  0
   28.2414   31.3118   39.7108 C   0  0  0  0  0  0  0  0  0  0  0  0
 16 17  1  0  0  0
 17  1  1  0  0  0
  1  2  1  0  0  0
  1  8  1  0  0  0
  2  3  1  0  0  0
  2  4  1  0  0  0
  4  5  1  0  0  0
  4  6  1  0  0  0
  6  7  1  0  0  0
  6 12  1  0  0  0
  8  9  1  0  0  0
  8 12  1  0  0  0
  9 10  2  0  0  0
 10 11  1  0  0  0
 10 19  1  0  0  0
 11 12  2  0  0  0
 19 20  1  0  0  0
 20 22  1  0  0  0
 22 23  2  0  0  0
 22 27  1  0  0  0
 23 24  1  0  0  0
 24 25  2  0  0  0
 25 26  1  0  0  0
 26 27  2  0  0  0
 16 18  1  0  0  0
  3 13  1  0  0  0
  5 14  1  0  0  0
  7 15  1  0  0  0
 20 21  1  0  0  0
M  END
> <minimizedAffinity>
-8.27307

$$$$
1X39_IDE_A_1001


 27 29  0  0  0  0  0  0  0  0999 V2000
   25.1560   31.9507   34.2387 C   0  0  0  0  0  0  0  0  0  0  0  0
   26.3913   32.8147   33.8993 C   0  0  0  0  0  0  0  0  0  0  0  0
   26.0077   34.0269   33.2461 O   0  0  0  0  0  0  0  0  0  0  0  0
   27.2228   33.1595   35.1563 C   0  0  0  0  0  0  0  0  0  0  0  0
   28.3379   33.9933   34.7940 O   0  0  0  0  0  0  0  0  0  0  0  0
   27.7802   31.9133   35.8442 C   0  0  0  0  0  0  0  0  0  0  0  0
   28.0868   32.1388   37.2243 O   0  0  0  0  0  0  0  0  0  0  0  0
   25.6935   30.8039   35.0237 N   0  0  0  0  0  0  0  0  0  0  0  0
   25.0447   29.5689   35.0989 C   0  0  0  0  0  0  0  0  0  0  0  0
   25.8739   28.8554   35.9002 C   0  0  0  0  0  0  0  0  0  0  0  0
   26.9627   29.5958   36.2871 N   0  0  0  0  0  0  0  0  0  0  0  0
   26.8256   30.7877   35.7338 C   0  0  0  0  0  0  0  0  0  0  0  0
   25.4581   34.5567   33.8444 H   0  0  0  0  0  0  0  0  0  0  0  0
   28.9172   33.5111   34.1834 H   0  0  0  0  0  0  0  0  0  0  0  0
   27.2737   32.3616   37.7039 H   0  0  0  0  0  0  0  0  0  0  0  0
   22.9631   31.8327   33.2556 O   0  0  0  0  0  0  0  0  0  0  0  0
   24.3356   31.5615   33.0047 C   0  0  0  0  0  0  0  0  0  0  0  0
   22.4378   31.5883   32.4776 H   0  0  0  0  0  0  0  0  0  0  0  0
   25.5111   27.4441   36.2512 C   0  0  0  0  0  0  0  0  0  0  0  0
   24.1163   27.2178   35.8902 N   0  0  0  0  0  0  0  0  0  0  0  0
   23.4096   27.8076   36.2394 H   0  0  0  0  0  0  0  0  0  0  0  0
   23.7812   26.1102   35.0079 C   0  0  0  0  0  0  0  0  0  0  0  0
   23.3081   24.9108   35.5488 C   0  0  0  0  0  0  0  0  0  0  0  0
   22.9850   23.8474   34.7042 C   0  0  0  0  0  0  0  0  0  0  0  0
   23.1476   23.9912   33.3238 C   0  0  0  0  0  0  0  0  0  0  0  0
   23.6327   25.1842   32.7816 C   0  0  0  0  0  0  0  0  0  0  0  0
   23.9442   26.2473   33.6253 C   0  0  0  0  0  0  0  0  0  0  0  0
 16 17  1  0  0  0
 17  1  1  0  0  0
  1  2  1  0  0  0
  1  8  1  0  0  0
  2  3  1  0  0  0
  2  4  1  0  0  0
  4  5  1  0  0  0
  4  6  1  0  0  0
  6  7  1  0  0  0
  6 12  1  0  0  0
  8  9  1  0  0  0
  8 12  1  0  0  0
  9 10  2  0  0  0
 10 11  1  0  0  0
 10 19  1  0  0  0
 11 12  2  0  0  0
 19 20  1  0  0  0
 20 22  1  0  0  0
 22 23  2  0  0  0
 22 27  1  0  0  0
 23 24  1  0  0  0
 24 25  2  0  0  0
 25 26  1  0  0  0
 26 27  2  0  0  0
 16 18  1  0  0  0
  3 13  1  0  0  0
  5 14  1  0  0  0
  7 15  1  0  0  0
 20 21  1  0  0  0
M  END
> <minimizedAffinity>
-7.95817

$$$$
1X39_IDE_A_1001


 27 29  0  0  0  0  0  0  0  0999 V2000
   24.4728   27.1912   35.9598 C   0  0  0  0  0  0  0  0  0  0  0  0
   23.8667   26.8303   34.5850 C   0  0  0  0  0  0  0  0  0  0  0  0
   22.9903   25.7059   34.6881 O   0  0  0  0  0  0  0  0  0  0  0  0
   23.0961   28.0160   33.9600 C   0  0  0  0  0  0  0  0  0  0  0  0
   22.5214   27.6196   32.7019 O   0  0  0  0  0  0  0  0  0  0  0  0
   23.9982   29.2220   33.6979 C   0  0  0  0  0  0  0  0  0  0  0  0
   23.2656   30.4495   33.6221 O   0  0  0  0  0  0  0  0  0  0  0  0
   25.2447   28.4434   35.7224 N   0  0  0  0  0  0  0  0  0  0  0  0
   26.3215   28.8312   36.5236 C   0  0  0  0  0  0  0  0  0  0  0  0
   26.7017   29.9998   35.9504 C   0  0  0  0  0  0  0  0  0  0  0  0
   25.9190   30.3086   34.8663 N   0  0  0  0  0  0  0  0  0  0  0  0
   25.0332   29.3353   34.7498 C   0  0  0  0  0  0  0  0  0  0  0  0
   22.2445   25.9293   35.2668 H   0  0  0  0  0  0  0  0  0  0  0  0
   23.2295   27.3739   32.0861 H   0  0  0  0  0  0  0  0  0  0  0  0
   22.8365   30.6231   34.4746 H   0  0  0  0  0  0  0  0  0  0  0  0
   24.4127   25.2642   37.3994 O   0  0  0  0  0  0  0  0  0  0  0  0
   25.2758   26.0453   36.5838 C   0  0  0  0  0  0  0  0  0  0  0  0
   24.9153   24.5364   37.7978 H   0  0  0  0  0  0  0  0  0  0  0  0
   27.8458   30.7642   36.5450 C   0  0  0  0  0  0  0  0  0  0  0  0
   28.2848   30.0794   37.7556 N   0  0  0  0  0  0  0  0  0  0  0  0
   28.7637   29.2213   37.6964 H   0  0  0  0  0  0  0  0  0  0  0  0
   28.0069   30.6792   39.0519 C   0  0  0  0  0  0  0  0  0  0  0  0
   28.3349   32.0188   39.2813 C   0  0  0  0  0  0  0  0  0  0  0  0
   28.0681   32.5965   40.5238 C   0  0  0  0  0  0  0  0  0  0  0  0
   27.4827   31.8239   41.5303 C   0  0  0  0  0  0  0  0  0  0  0  0
   27.1660   30.4813   41.3080 C   0  0  0  0  0  0  0  0  0  0  0  0
   27.4232   29.9102   40.0643 C   0  0  0  0  0  0  0  0  0  0  0  0
 16 17  1  0  0  0
 17  1  1  0  0  0
  1  2  1  0  0  0
  1  8  1  0  0  0
  2  3  1  0  0  0
  2  4  1  0  0  0
  4  5  1  0  0  0
  4  6  1  0  0  0
  6  7  1  0  0  0
  6 12  1  0  0  0
  8  9  1  0  0  0
  8 12  1  0  0  0
  9 10  2  0  0  0
 10 11  1  0  0  0
 10 19  1  0  0  0
 11 12  2  0  0  0
 19 20  1  0  0  0
 20 22  1  0  0  0
 22 23  2  0  0  0
 22 27  1  0  0  0
 23 24  1  0  0  0
 24 25  2  0  0  0
 25 26  1  0  0  0
 26 27  2  0  0  0
 16 18  1  0  0  0
  3 13  1  0  0  0
  5 14  1  0  0  0
  7 15  1  0  0  0
 20 21  1  0  0  0
M  END
> <minimizedAffinity>
-7.94689

$$$$
1X39_IDE_A_1001


 27 29  0  0  0  0  0  0  0  0999 V2000
   24.3103   27.6624   33.9303 C   0  0  0  0  0  0  0  0  0  0  0  0
   24.3279   26.7990   35.2117 C   0  0  0  0  0  0  0  0  0  0  0  0
   24.0626   25.4269   34.9115 O   0  0  0  0  0  0  0  0  0  0  0  0
   25.6755   26.9004   35.9627 C   0  0  0  0  0  0  0  0  0  0  0  0
   25.6549   26.0527   37.1250 O   0  0  0  0  0  0  0  0  0  0  0  0
   25.9730   28.3243   36.4329 C   0  0  0  0  0  0  0  0  0  0  0  0
   27.3700   28.5506   36.6483 O   0  0  0  0  0  0  0  0  0  0  0  0
   24.7298   29.0207   34.3767 N   0  0  0  0  0  0  0  0  0  0  0  0
   24.3801   30.1845   33.6875 C   0  0  0  0  0  0  0  0  0  0  0  0
   24.9664   31.1509   34.4367 C   0  0  0  0  0  0  0  0  0  0  0  0
   25.6261   30.6214   35.5172 N   0  0  0  0  0  0  0  0  0  0  0  0
   25.4636   29.3117   35.4551 C   0  0  0  0  0  0  0  0  0  0  0  0
   24.7633   25.0803   34.3372 H   0  0  0  0  0  0  0  0  0  0  0  0
   24.9591   26.3518   37.7311 H   0  0  0  0  0  0  0  0  0  0  0  0
   27.8476   28.4458   35.8106 H   0  0  0  0  0  0  0  0  0  0  0  0
   22.9577   26.4741   32.3341 O   0  0  0  0  0  0  0  0  0  0  0  0
   22.9714   27.6108   33.1873 C   0  0  0  0  0  0  0  0  0  0  0  0
   22.1121   26.4356   31.8604 H   0  0  0  0  0  0  0  0  0  0  0  0
   24.8401   32.5816   34.0080 C   0  0  0  0  0  0  0  0  0  0  0  0
   25.3270   32.7027   32.6385 N   0  0  0  0  0  0  0  0  0  0  0  0
   26.1677   32.2672   32.3686 H   0  0  0  0  0  0  0  0  0  0  0  0
   24.5558   33.4744   31.6757 C   0  0  0  0  0  0  0  0  0  0  0  0
   24.2277   34.8044   31.9558 C   0  0  0  0  0  0  0  0  0  0  0  0
   23.4890   35.5469   31.0330 C   0  0  0  0  0  0  0  0  0  0  0  0
   23.0765   34.9475   29.8401 C   0  0  0  0  0  0  0  0  0  0  0  0
   23.3917   33.6146   29.5635 C   0  0  0  0  0  0  0  0  0  0  0  0
   24.1379   32.8791   30.4807 C   0  0  0  0  0  0  0  0  0  0  0  0
 16 17  1  0  0  0
 17  1  1  0  0  0
  1  2  1  0  0  0
  1  8  1  0  0  0
  2  3  1  0  0  0
  2  4  1  0  0  0
  4  5  1  0  0  0
  4  6  1  0  0  0
  6  7  1  0  0  0
  6 12  1  0  0  0
  8  9  1  0  0  0
  8 12  1  0  0  0
  9 10  2  0  0  0
 10 11  1  0  0  0
 10 19  1  0  0  0
 11 12  2  0  0  0
 19 20  1  0  0  0
 20 22  1  0  0  0
 22 23  2  0  0  0
 22 27  1  0  0  0
 23 24  1  0  0  0
 24 25  2  0  0  0
 25 26  1  0  0  0
 26 27  2  0  0  0
 16 18  1  0  0  0
  3 13  1  0  0  0
  5 14  1  0  0  0
  7 15  1  0  0  0
 20 21  1  0  0  0
M  END
> <minimizedAffinity>
-7.85525

$$$$
1X39_IDE_A_1001


 27 29  0  0  0  0  0  0  0  0999 V2000
   24.1617   26.1399   36.1256 C   0  0  0  0  0  0  0  0  0  0  0  0
   23.9670   25.0814   35.0168 C   0  0  0  0  0  0  0  0  0  0  0  0
   23.5436   23.8318   35.5667 O   0  0  0  0  0  0  0  0  0  0  0  0
   22.9437   25.5371   33.9512 C   0  0  0  0  0  0  0  0  0  0  0  0
   22.7707   24.5051   32.9636 O   0  0  0  0  0  0  0  0  0  0  0  0
   23.3888   26.8053   33.2229 C   0  0  0  0  0  0  0  0  0  0  0  0
   22.2920   27.5176   32.6406 O   0  0  0  0  0  0  0  0  0  0  0  0
   24.4664   27.4049   35.3996 N   0  0  0  0  0  0  0  0  0  0  0  0
   25.1818   28.4557   35.9792 C   0  0  0  0  0  0  0  0  0  0  0  0
   25.2135   29.3700   34.9782 C   0  0  0  0  0  0  0  0  0  0  0  0
   24.5690   28.9128   33.8562 N   0  0  0  0  0  0  0  0  0  0  0  0
   24.1206   27.7038   34.1437 C   0  0  0  0  0  0  0  0  0  0  0  0
   22.6803   23.9429   35.9949 H   0  0  0  0  0  0  0  0  0  0  0  0
   23.6136   24.3465   32.5106 H   0  0  0  0  0  0  0  0  0  0  0  0
   21.6909   27.8148   33.3415 H   0  0  0  0  0  0  0  0  0  0  0  0
   24.6218   24.7734   38.0519 O   0  0  0  0  0  0  0  0  0  0  0  0
   25.2007   25.7299   37.1742 C   0  0  0  0  0  0  0  0  0  0  0  0
   25.2750   24.5095   38.7187 H   0  0  0  0  0  0  0  0  0  0  0  0
   25.8920   30.6854   35.2148 C   0  0  0  0  0  0  0  0  0  0  0  0
   24.9867   31.7559   34.8127 N   0  0  0  0  0  0  0  0  0  0  0  0
   24.2158   31.9941   35.3768 H   0  0  0  0  0  0  0  0  0  0  0  0
   25.2361   32.4677   33.5683 C   0  0  0  0  0  0  0  0  0  0  0  0
   24.2935   32.4135   32.5370 C   0  0  0  0  0  0  0  0  0  0  0  0
   24.5302   33.0965   31.3429 C   0  0  0  0  0  0  0  0  0  0  0  0
   25.7147   33.8214   31.1879 C   0  0  0  0  0  0  0  0  0  0  0  0
   26.6644   33.8664   32.2120 C   0  0  0  0  0  0  0  0  0  0  0  0
   26.4212   33.1931   33.4064 C   0  0  0  0  0  0  0  0  0  0  0  0
 16 17  1  0  0  0
 17  1  1  0  0  0
  1  2  1  0  0  0
  1  8  1  0  0  0
  2  3  1  0  0  0
  2  4  1  0  0  0
  4  5  1  0  0  0
  4  6  1  0  0  0
  6  7  1  0  0  0
  6 12  1  0  0  0
  8  9  1  0  0  0
  8 12  1  0  0  0
  9 10  2  0  0  0
 10 11  1  0  0  0
 10 19  1  0  0  0
 11 12  2  0  0  0
 19 20  1  0  0  0
 20 22  1  0  0  0
 22 23  2  0  0  0
 22 27  1  0  0  0
 23 24  1  0  0  0
 24 25  2  0  0  0
 25 26  1  0  0  0
 26 27  2  0  0  0
 16 18  1  0  0  0
  3 13  1  0  0  0
  5 14  1  0  0  0
  7 15  1  0  0  0
 20 21  1  0  0  0
M  END
> <minimizedAffinity>
-7.74138

$$$$
1X39_IDE_A_1001


 27 29  0  0  0  0  0  0  0  0999 V2000
   24.2967   27.5152   33.9239 C   0  0  0  0  0  0  0  0  0  0  0  0
   24.3095   26.7081   35.2415 C   0  0  0  0  0  0  0  0  0  0  0  0
   24.0632   25.3213   34.9980 O   0  0  0  0  0  0  0  0  0  0  0  0
   25.6473   26.8577   36.0020 C   0  0  0  0  0  0  0  0  0  0  0  0
   25.6232   26.0606   37.1995 O   0  0  0  0  0  0  0  0  0  0  0  0
   25.9234   28.3038   36.4134 C   0  0  0  0  0  0  0  0  0  0  0  0
   27.3152   28.5558   36.6340 O   0  0  0  0  0  0  0  0  0  0  0  0
   24.6956   28.8964   34.3157 N   0  0  0  0  0  0  0  0  0  0  0  0
   24.3406   30.0252   33.5732 C   0  0  0  0  0  0  0  0  0  0  0  0
   24.9075   31.0298   34.2862 C   0  0  0  0  0  0  0  0  0  0  0  0
   25.5608   30.5551   35.3956 N   0  0  0  0  0  0  0  0  0  0  0  0
   25.4139   29.2422   35.3884 C   0  0  0  0  0  0  0  0  0  0  0  0
   24.7742   24.9586   34.4468 H   0  0  0  0  0  0  0  0  0  0  0  0
   24.9172   26.3773   37.7846 H   0  0  0  0  0  0  0  0  0  0  0  0
   27.8034   28.4206   35.8067 H   0  0  0  0  0  0  0  0  0  0  0  0
   22.9824   26.2526   32.3530 O   0  0  0  0  0  0  0  0  0  0  0  0
   22.9669   27.4159   33.1694 C   0  0  0  0  0  0  0  0  0  0  0  0
   22.1428   26.1838   31.8722 H   0  0  0  0  0  0  0  0  0  0  0  0
   24.7698   32.4391   33.7948 C   0  0  0  0  0  0  0  0  0  0  0  0
   25.9386   33.1987   34.2238 N   0  0  0  0  0  0  0  0  0  0  0  0
   25.9921   33.5550   35.1400 H   0  0  0  0  0  0  0  0  0  0  0  0
   27.0249   33.4238   33.2821 C   0  0  0  0  0  0  0  0  0  0  0  0
   28.3349   33.0933   33.6419 C   0  0  0  0  0  0  0  0  0  0  0  0
   29.3783   33.3074   32.7396 C   0  0  0  0  0  0  0  0  0  0  0  0
   29.1016   33.8600   31.4863 C   0  0  0  0  0  0  0  0  0  0  0  0
   27.7951   34.2034   31.1291 C   0  0  0  0  0  0  0  0  0  0  0  0
   26.7545   33.9790   32.0268 C   0  0  0  0  0  0  0  0  0  0  0  0
 16 17  1  0  0  0
 17  1  1  0  0  0
  1  2  1  0  0  0
  1  8  1  0  0  0
  2  3  1  0  0  0
  2  4  1  0  0  0
  4  5  1  0  0  0
  4  6  1  0  0  0
  6  7  1  0  0  0
  6 12  1  0  0  0
  8  9  1  0  0  0
  8 12  1  0  0  0
  9 10  2  0  0  0
 10 11  1  0  0  0
 10 19  1  0  0  0
 11 12  2  0  0  0
 19 20  1  0  0  0
 20 22  1  0  0  0
 22 23  2  0  0  0
 22 27  1  0  0  0
 23 24  1  0  0  0
 24 25  2  0  0  0
 25 26  1  0  0  0
 26 27  2  0  0  0
 16 18  1  0  0  0
  3 13  1  0  0  0
  5 14  1  0  0  0
  7 15  1  0  0  0
 20 21  1  0  0  0
M  END
> <minimizedAffinity>
-7.49661

$$$$
1X39_IDE_A_1001


 27 29  0  0  0  0  0  0  0  0999 V2000
   29.4222   31.8285   38.5787 C   0  0  0  0  0  0  0  0  0  0  0  0
   30.1676   31.5117   39.8946 C   0  0  0  0  0  0  0  0  0  0  0  0
   31.0016   32.6033   40.2893 O   0  0  0  0  0  0  0  0  0  0  0  0
   29.1941   31.1769   41.0481 C   0  0  0  0  0  0  0  0  0  0  0  0
   29.9330   30.9261   42.2570 O   0  0  0  0  0  0  0  0  0  0  0  0
   28.3504   29.9363   40.7549 C   0  0  0  0  0  0  0  0  0  0  0  0
   27.1374   29.9052   41.5145 O   0  0  0  0  0  0  0  0  0  0  0  0
   28.5048   30.6732   38.3692 N   0  0  0  0  0  0  0  0  0  0  0  0
   28.0325   30.3018   37.1079 C   0  0  0  0  0  0  0  0  0  0  0  0
   27.2515   29.2313   37.3959 C   0  0  0  0  0  0  0  0  0  0  0  0
   27.2475   28.9563   38.7403 N   0  0  0  0  0  0  0  0  0  0  0  0
   28.0257   29.8573   39.3131 C   0  0  0  0  0  0  0  0  0  0  0  0
   30.4520   33.3828   40.4659 H   0  0  0  0  0  0  0  0  0  0  0  0
   30.5106   30.1574   42.1293 H   0  0  0  0  0  0  0  0  0  0  0  0
   26.5834   30.6630   41.2702 H   0  0  0  0  0  0  0  0  0  0  0  0
   31.5819   31.4165   37.6014 O   0  0  0  0  0  0  0  0  0  0  0  0
   30.3653   32.1256   37.4084 C   0  0  0  0  0  0  0  0  0  0  0  0
   32.1839   31.6004   36.8633 H   0  0  0  0  0  0  0  0  0  0  0  0
   26.5264   28.5384   36.2820 C   0  0  0  0  0  0  0  0  0  0  0  0
   25.8309   27.3788   36.8287 N   0  0  0  0  0  0  0  0  0  0  0  0
   26.0092   27.0798   37.7497 H   0  0  0  0  0  0  0  0  0  0  0  0
   24.8706   26.6689   35.9974 C   0  0  0  0  0  0  0  0  0  0  0  0
   24.6694   27.0696   34.6731 C   0  0  0  0  0  0  0  0  0  0  0  0
   23.7494   26.3892   33.8735 C   0  0  0  0  0  0  0  0  0  0  0  0
   23.0310   25.3178   34.4105 C   0  0  0  0  0  0  0  0  0  0  0  0
   23.2205   24.9236   35.7376 C   0  0  0  0  0  0  0  0  0  0  0  0
   24.1466   25.5969   36.5301 C   0  0  0  0  0  0  0  0  0  0  0  0
 16 17  1  0  0  0
 17  1  1  0  0  0
  1  2  1  0  0  0
  1  8  1  0  0  0
  2  3  1  0  0  0
  2  4  1  0  0  0
  4  5  1  0  0  0
  4  6  1  0  0  0
  6  7  1  0  0  0
  6 12  1  0  0  0
  8  9  1  0  0  0
  8 12  1  0  0  0
  9 10  2  0  0  0
 10 11  1  0  0  0
 10 19  1  0  0  0
 11 12  2  0  0  0
 19 20  1  0  0  0
 20 22  1  0  0  0
 22 23  2  0  0  0
 22 27  1  0  0  0
 23 24  1  0  0  0
 24 25  2  0  0  0
 25 26  1  0  0  0
 26 27  2  0  0  0
 16 18  1  0  0  0
  3 13  1  0  0  0
  5 14  1  0  0  0
  7 15  1  0  0  0
 20 21  1  0  0  0
M  END
> <minimizedAffinity>
-7.42016

$$$$
