3P3T_3M3_A_128


 19 20  0  0  0  0  0  0  0  0999 V2000
    0.1074   -1.5263   -7.9978 C   0  0  0  0  0  0  0  0  0  0  0  0
   -0.6669   -1.0432   -6.7630 C   0  0  0  0  0  0  0  0  0  0  0  0
    0.4296   -0.8505   -5.8803 O   0  0  0  0  0  0  0  0  0  0  0  0
    1.5126   -1.8497   -3.6918 F   0  0  0  0  0  0  0  0  0  0  0  0
   -0.5858    0.6947   -2.2446 C   0  0  0  0  0  0  0  0  0  0  0  0
   -1.1674    1.2551   -3.3716 C   0  0  0  0  0  0  0  0  0  0  0  0
    0.2994   -0.3477   -2.3294 C   0  0  0  0  0  0  0  0  0  0  0  0
   -0.8485    0.7720   -4.6479 C   0  0  0  0  0  0  0  0  0  0  0  0
    0.6101   -0.8472   -3.5645 C   0  0  0  0  0  0  0  0  0  0  0  0
    0.0562   -0.2776   -4.7023 C   0  0  0  0  0  0  0  0  0  0  0  0
    1.2774   -0.5959   -8.3875 C   0  0  0  0  0  0  0  0  0  0  0  0
   -0.2061   -0.0689  -11.1996 C   0  0  0  0  0  0  0  0  0  0  0  0
    1.4305    2.3428   -7.0226 C   0  0  0  0  0  0  0  0  0  0  0  0
   -0.1453    2.3017  -10.2372 N   0  0  0  0  0  0  0  0  0  0  0  0
    0.2651    2.8969   -9.2045 N   0  0  0  0  0  0  0  0  0  0  0  0
    0.1255    0.9873  -10.1477 C   0  0  0  0  0  0  0  0  0  0  0  0
    0.8320    2.0007   -8.3885 C   0  0  0  0  0  0  0  0  0  0  0  0
    0.7708    0.7342   -8.9549 C   0  0  0  0  0  0  0  0  0  0  0  0
   -0.5972    2.7349  -10.9970 H   0  0  0  0  0  0  0  0  0  0  0  0
 12 16  1  0  0  0
 13 17  1  0  0  0
  9  4  1  0  0  0
  5  6  2  0  0  0
  5  7  1  0  0  0
  6  8  1  0  0  0
  7  9  2  0  0  0
  8 10  2  0  0  0
  2  1  1  0  0  0
  1 11  1  0  0  0
  3  2  1  0  0  0
 11 18  1  0  0  0
 16 14  1  0  0  0
 15 14  1  0  0  0
 17 15  2  0  0  0
 10  3  1  0  0  0
  9 10  1  0  0  0
 18 16  2  0  0  0
 18 17  1  0  0  0
 14 19  1  0  0  0
M  END
> <minimizedAffinity>
-7.08727

$$$$
3P3T_3M3_A_128


 19 20  0  0  0  0  0  0  0  0999 V2000
   -0.0748    1.5405   -8.0805 C   0  0  0  0  0  0  0  0  0  0  0  0
    0.6927    1.1772   -6.8012 C   0  0  0  0  0  0  0  0  0  0  0  0
   -0.4141    0.8956   -5.9560 O   0  0  0  0  0  0  0  0  0  0  0  0
   -1.5129    1.8516   -3.7562 F   0  0  0  0  0  0  0  0  0  0  0  0
    0.6013   -0.6980   -2.3413 C   0  0  0  0  0  0  0  0  0  0  0  0
    1.1914   -1.2358   -3.4747 C   0  0  0  0  0  0  0  0  0  0  0  0
   -0.2922    0.3384   -2.4129 C   0  0  0  0  0  0  0  0  0  0  0  0
    0.8729   -0.7355   -4.7445 C   0  0  0  0  0  0  0  0  0  0  0  0
   -0.6026    0.8547   -3.6412 C   0  0  0  0  0  0  0  0  0  0  0  0
   -0.0401    0.3074   -4.7858 C   0  0  0  0  0  0  0  0  0  0  0  0
   -1.2496    0.5832   -8.3803 C   0  0  0  0  0  0  0  0  0  0  0  0
    0.2283    0.0630  -11.1966 C   0  0  0  0  0  0  0  0  0  0  0  0
   -1.4293   -2.3637   -7.0366 C   0  0  0  0  0  0  0  0  0  0  0  0
    0.1459   -2.3138  -10.2513 N   0  0  0  0  0  0  0  0  0  0  0  0
   -0.2697   -2.9127   -9.2229 N   0  0  0  0  0  0  0  0  0  0  0  0
   -0.1128   -0.9977  -10.1523 C   0  0  0  0  0  0  0  0  0  0  0  0
   -0.8281   -2.0172   -8.4002 C   0  0  0  0  0  0  0  0  0  0  0  0
   -0.7554   -0.7473   -8.9575 C   0  0  0  0  0  0  0  0  0  0  0  0
    0.5937   -2.7457  -11.0143 H   0  0  0  0  0  0  0  0  0  0  0  0
 12 16  1  0  0  0
 13 17  1  0  0  0
  9  4  1  0  0  0
  5  6  2  0  0  0
  5  7  1  0  0  0
  6  8  1  0  0  0
  7  9  2  0  0  0
  8 10  2  0  0  0
  2  1  1  0  0  0
  1 11  1  0  0  0
  3  2  1  0  0  0
 11 18  1  0  0  0
 16 14  1  0  0  0
 15 14  1  0  0  0
 17 15  2  0  0  0
 10  3  1  0  0  0
  9 10  1  0  0  0
 18 16  2  0  0  0
 18 17  1  0  0  0
 14 19  1  0  0  0
M  END
> <minimizedAffinity>
-7.06860

$$$$
3P3T_3M3_A_128


 19 20  0  0  0  0  0  0  0  0999 V2000
   -0.3310   -0.9247   -6.6290 C   0  0  0  0  0  0  0  0  0  0  0  0
   -0.3009   -0.3009   -5.2263 C   0  0  0  0  0  0  0  0  0  0  0  0
    1.0022   -0.7097   -4.8343 O   0  0  0  0  0  0  0  0  0  0  0  0
    2.9229   -2.3187   -4.0083 F   0  0  0  0  0  0  0  0  0  0  0  0
    1.4735   -1.3995   -0.8420 C   0  0  0  0  0  0  0  0  0  0  0  0
    0.4604   -0.5384   -1.2351 C   0  0  0  0  0  0  0  0  0  0  0  0
    2.2962   -2.0118   -1.7507 C   0  0  0  0  0  0  0  0  0  0  0  0
    0.2579   -0.2559   -2.5927 C   0  0  0  0  0  0  0  0  0  0  0  0
    2.1035   -1.7648   -3.0824 C   0  0  0  0  0  0  0  0  0  0  0  0
    1.1110   -0.8837   -3.4877 C   0  0  0  0  0  0  0  0  0  0  0  0
    0.9056   -0.5669   -7.4830 C   0  0  0  0  0  0  0  0  0  0  0  0
    0.5517   -2.6956   -9.8767 C   0  0  0  0  0  0  0  0  0  0  0  0
    0.2347    2.2873   -8.8707 C   0  0  0  0  0  0  0  0  0  0  0  0
    0.0053   -0.5109  -11.0923 N   0  0  0  0  0  0  0  0  0  0  0  0
   -0.0677    0.7224  -10.8419 N   0  0  0  0  0  0  0  0  0  0  0  0
    0.3527   -1.1852   -9.9817 C   0  0  0  0  0  0  0  0  0  0  0  0
    0.2352    0.9180   -9.5533 C   0  0  0  0  0  0  0  0  0  0  0  0
    0.5205   -0.2953   -8.9410 C   0  0  0  0  0  0  0  0  0  0  0  0
   -0.1667   -0.9200  -11.9711 H   0  0  0  0  0  0  0  0  0  0  0  0
 12 16  1  0  0  0
 13 17  1  0  0  0
  9  4  1  0  0  0
  5  6  2  0  0  0
  5  7  1  0  0  0
  6  8  1  0  0  0
  7  9  2  0  0  0
  8 10  2  0  0  0
  2  1  1  0  0  0
  1 11  1  0  0  0
  3  2  1  0  0  0
 11 18  1  0  0  0
 16 14  1  0  0  0
 15 14  1  0  0  0
 17 15  2  0  0  0
 10  3  1  0  0  0
  9 10  1  0  0  0
 18 16  2  0  0  0
 18 17  1  0  0  0
 14 19  1  0  0  0
M  END
> <minimizedAffinity>
-6.89510

$$$$
3P3T_3M3_A_128


 19 20  0  0  0  0  0  0  0  0999 V2000
    0.1226    0.2730   -6.4471 C   0  0  0  0  0  0  0  0  0  0  0  0
   -0.1269   -0.8211   -5.3992 C   0  0  0  0  0  0  0  0  0  0  0  0
    1.2033   -0.9746   -4.9239 O   0  0  0  0  0  0  0  0  0  0  0  0
    3.1413   -2.4608   -3.9259 F   0  0  0  0  0  0  0  0  0  0  0  0
    1.5409   -1.3942   -0.8808 C   0  0  0  0  0  0  0  0  0  0  0  0
    0.5167   -0.5953   -1.3655 C   0  0  0  0  0  0  0  0  0  0  0  0
    2.4176   -2.0338   -1.7173 C   0  0  0  0  0  0  0  0  0  0  0  0
    0.3582   -0.4062   -2.7451 C   0  0  0  0  0  0  0  0  0  0  0  0
    2.2691   -1.8782   -3.0683 C   0  0  0  0  0  0  0  0  0  0  0  0
    1.2652   -1.0593   -3.5658 C   0  0  0  0  0  0  0  0  0  0  0  0
   -1.0404    0.4334   -7.4512 C   0  0  0  0  0  0  0  0  0  0  0  0
   -0.5673    2.6754   -9.7175 C   0  0  0  0  0  0  0  0  0  0  0  0
   -0.2581   -2.3468   -8.9278 C   0  0  0  0  0  0  0  0  0  0  0  0
    0.0734    0.5547  -10.9988 N   0  0  0  0  0  0  0  0  0  0  0  0
    0.1443   -0.6884  -10.8022 N   0  0  0  0  0  0  0  0  0  0  0  0
   -0.3465    1.1732   -9.8807 C   0  0  0  0  0  0  0  0  0  0  0  0
   -0.2325   -0.9469   -9.5446 C   0  0  0  0  0  0  0  0  0  0  0  0
   -0.5665    0.2339   -8.8946 C   0  0  0  0  0  0  0  0  0  0  0  0
    0.2929    1.0062  -11.8457 H   0  0  0  0  0  0  0  0  0  0  0  0
 12 16  1  0  0  0
 13 17  1  0  0  0
  9  4  1  0  0  0
  5  6  2  0  0  0
  5  7  1  0  0  0
  6  8  1  0  0  0
  7  9  2  0  0  0
  8 10  2  0  0  0
  2  1  1  0  0  0
  1 11  1  0  0  0
  3  2  1  0  0  0
 11 18  1  0  0  0
 16 14  1  0  0  0
 15 14  1  0  0  0
 17 15  2  0  0  0
 10  3  1  0  0  0
  9 10  1  0  0  0
 18 16  2  0  0  0
 18 17  1  0  0  0
 14 19  1  0  0  0
M  END
> <minimizedAffinity>
-6.87057

$$$$
3P3T_3M3_A_128


 19 20  0  0  0  0  0  0  0  0999 V2000
    0.3725    0.3760   -6.4896 C   0  0  0  0  0  0  0  0  0  0  0  0
    0.0254   -0.0934   -5.0695 C   0  0  0  0  0  0  0  0  0  0  0  0
   -1.0110    0.8347   -4.7807 O   0  0  0  0  0  0  0  0  0  0  0  0
   -3.0670    2.3250   -4.0649 F   0  0  0  0  0  0  0  0  0  0  0  0
   -1.7308    1.5052   -0.8223 C   0  0  0  0  0  0  0  0  0  0  0  0
   -0.6478    0.7069   -1.1573 C   0  0  0  0  0  0  0  0  0  0  0  0
   -2.5410    2.0633   -1.7760 C   0  0  0  0  0  0  0  0  0  0  0  0
   -0.3580    0.4335   -2.5010 C   0  0  0  0  0  0  0  0  0  0  0  0
   -2.2645    1.8249   -3.0945 C   0  0  0  0  0  0  0  0  0  0  0  0
   -1.2002    1.0053   -3.4427 C   0  0  0  0  0  0  0  0  0  0  0  0
   -0.8597    0.4841   -7.4152 C   0  0  0  0  0  0  0  0  0  0  0  0
   -0.4464    2.7301   -9.6891 C   0  0  0  0  0  0  0  0  0  0  0  0
   -0.2528   -2.3062   -8.9542 C   0  0  0  0  0  0  0  0  0  0  0  0
    0.0514    0.6019  -11.0203 N   0  0  0  0  0  0  0  0  0  0  0  0
    0.0938   -0.6446  -10.8370 N   0  0  0  0  0  0  0  0  0  0  0  0
   -0.2835    1.2232   -9.8755 C   0  0  0  0  0  0  0  0  0  0  0  0
   -0.2181   -0.9023   -9.5615 C   0  0  0  0  0  0  0  0  0  0  0  0
   -0.4763    0.2826   -8.8849 C   0  0  0  0  0  0  0  0  0  0  0  0
    0.2362    1.0537  -11.8752 H   0  0  0  0  0  0  0  0  0  0  0  0
 12 16  1  0  0  0
 13 17  1  0  0  0
  9  4  1  0  0  0
  5  6  2  0  0  0
  5  7  1  0  0  0
  6  8  1  0  0  0
  7  9  2  0  0  0
  8 10  2  0  0  0
  2  1  1  0  0  0
  1 11  1  0  0  0
  3  2  1  0  0  0
 11 18  1  0  0  0
 16 14  1  0  0  0
 15 14  1  0  0  0
 17 15  2  0  0  0
 10  3  1  0  0  0
  9 10  1  0  0  0
 18 16  2  0  0  0
 18 17  1  0  0  0
 14 19  1  0  0  0
M  END
> <minimizedAffinity>
-6.84967

$$$$
3P3T_3M3_A_128


 19 20  0  0  0  0  0  0  0  0999 V2000
    0.4739    0.5944   -6.5256 C   0  0  0  0  0  0  0  0  0  0  0  0
    0.3391    0.0174   -5.1091 C   0  0  0  0  0  0  0  0  0  0  0  0
   -0.9201    0.5782   -4.7646 O   0  0  0  0  0  0  0  0  0  0  0  0
   -2.8434    2.2194   -4.0109 F   0  0  0  0  0  0  0  0  0  0  0  0
   -1.4482    1.3756   -0.7995 C   0  0  0  0  0  0  0  0  0  0  0  0
   -0.4345    0.4987   -1.1542 C   0  0  0  0  0  0  0  0  0  0  0  0
   -2.2531    1.9685   -1.7366 C   0  0  0  0  0  0  0  0  0  0  0  0
   -0.2130    0.1793   -2.5006 C   0  0  0  0  0  0  0  0  0  0  0  0
   -2.0416    1.6854   -3.0582 C   0  0  0  0  0  0  0  0  0  0  0  0
   -1.0484    0.7882   -3.4249 C   0  0  0  0  0  0  0  0  0  0  0  0
   -0.7969    0.4084   -7.3841 C   0  0  0  0  0  0  0  0  0  0  0  0
   -0.2026   -2.3612   -8.9210 C   0  0  0  0  0  0  0  0  0  0  0  0
   -0.5121    2.6628   -9.6990 C   0  0  0  0  0  0  0  0  0  0  0  0
    0.0563   -0.6840  -10.8366 N   0  0  0  0  0  0  0  0  0  0  0  0
   -0.0161    0.5603  -11.0254 N   0  0  0  0  0  0  0  0  0  0  0  0
   -0.2006   -0.9685   -9.5474 C   0  0  0  0  0  0  0  0  0  0  0  0
   -0.3185    1.1542   -9.8651 C   0  0  0  0  0  0  0  0  0  0  0  0
   -0.4497    0.2026   -8.8622 C   0  0  0  0  0  0  0  0  0  0  0  0
    0.2693   -1.3492  -11.5303 H   0  0  0  0  0  0  0  0  0  0  0  0
 12 16  1  0  0  0
 13 17  1  0  0  0
  9  4  1  0  0  0
  5  6  2  0  0  0
  5  7  1  0  0  0
  6  8  1  0  0  0
  7  9  2  0  0  0
  8 10  2  0  0  0
  2  1  1  0  0  0
  1 11  1  0  0  0
  3  2  1  0  0  0
 11 18  1  0  0  0
 16 14  1  0  0  0
 15 14  1  0  0  0
 17 15  2  0  0  0
 10  3  1  0  0  0
  9 10  1  0  0  0
 18 16  2  0  0  0
 18 17  1  0  0  0
 14 19  1  0  0  0
M  END
> <minimizedAffinity>
-6.84727

$$$$
3P3T_3M3_A_128


 19 20  0  0  0  0  0  0  0  0999 V2000
    0.2321   -0.9665   -6.6918 C   0  0  0  0  0  0  0  0  0  0  0  0
   -0.7041    0.0742   -6.0609 C   0  0  0  0  0  0  0  0  0  0  0  0
    0.2405    0.7480   -5.2409 O   0  0  0  0  0  0  0  0  0  0  0  0
    1.4369   -0.9562   -3.6208 F   0  0  0  0  0  0  0  0  0  0  0  0
   -0.7767    0.6708   -1.2918 C   0  0  0  0  0  0  0  0  0  0  0  0
   -1.4195    1.5888   -2.1081 C   0  0  0  0  0  0  0  0  0  0  0  0
    0.1683   -0.1936   -1.7787 C   0  0  0  0  0  0  0  0  0  0  0  0
   -1.1035    1.6679   -3.4712 C   0  0  0  0  0  0  0  0  0  0  0  0
    0.4781   -0.1464   -3.1104 C   0  0  0  0  0  0  0  0  0  0  0  0
   -0.1378    0.7863   -3.9330 C   0  0  0  0  0  0  0  0  0  0  0  0
    1.2592   -0.3514   -7.6682 C   0  0  0  0  0  0  0  0  0  0  0  0
    0.2168    2.3997   -8.9840 C   0  0  0  0  0  0  0  0  0  0  0  0
    0.7478   -2.5666   -9.9820 C   0  0  0  0  0  0  0  0  0  0  0  0
   -0.2426    0.7525  -10.8880 N   0  0  0  0  0  0  0  0  0  0  0  0
   -0.1146   -0.4778  -11.1306 N   0  0  0  0  0  0  0  0  0  0  0  0
    0.2081    1.0258   -9.6506 C   0  0  0  0  0  0  0  0  0  0  0  0
    0.4217   -1.0737  -10.0592 C   0  0  0  0  0  0  0  0  0  0  0  0
    0.6527   -0.1384   -9.0591 C   0  0  0  0  0  0  0  0  0  0  0  0
   -0.6171    1.4155  -11.5121 H   0  0  0  0  0  0  0  0  0  0  0  0
 12 16  1  0  0  0
 13 17  1  0  0  0
  9  4  1  0  0  0
  5  6  2  0  0  0
  5  7  1  0  0  0
  6  8  1  0  0  0
  7  9  2  0  0  0
  8 10  2  0  0  0
  2  1  1  0  0  0
  1 11  1  0  0  0
  3  2  1  0  0  0
 11 18  1  0  0  0
 16 14  1  0  0  0
 15 14  1  0  0  0
 17 15  2  0  0  0
 10  3  1  0  0  0
  9 10  1  0  0  0
 18 16  2  0  0  0
 18 17  1  0  0  0
 14 19  1  0  0  0
M  END
> <minimizedAffinity>
-6.79099

$$$$
3P3T_3M3_A_128


 19 20  0  0  0  0  0  0  0  0999 V2000
   -0.3961    0.6490   -6.5958 C   0  0  0  0  0  0  0  0  0  0  0  0
   -0.5633   -0.4665   -5.5540 C   0  0  0  0  0  0  0  0  0  0  0  0
   -0.2808    0.2860   -4.3823 O   0  0  0  0  0  0  0  0  0  0  0  0
   -0.8361    0.7266   -1.8410 F   0  0  0  0  0  0  0  0  0  0  0  0
    1.8052   -1.6970   -1.4921 C   0  0  0  0  0  0  0  0  0  0  0  0
    2.1185   -1.9650   -2.8159 C   0  0  0  0  0  0  0  0  0  0  0  0
    0.8332   -0.7951   -1.1467 C   0  0  0  0  0  0  0  0  0  0  0  0
    1.4279   -1.3213   -3.8516 C   0  0  0  0  0  0  0  0  0  0  0  0
    0.1599   -0.1412   -2.1421 C   0  0  0  0  0  0  0  0  0  0  0  0
    0.4446   -0.4205   -3.4713 C   0  0  0  0  0  0  0  0  0  0  0  0
    0.8555    0.4723   -7.4839 C   0  0  0  0  0  0  0  0  0  0  0  0
    0.7585   -2.3242   -9.0829 C   0  0  0  0  0  0  0  0  0  0  0  0
   -0.0640    2.6655   -9.6900 C   0  0  0  0  0  0  0  0  0  0  0  0
    0.0250   -0.6968  -10.9168 N   0  0  0  0  0  0  0  0  0  0  0  0
   -0.1731    0.5391  -11.0657 N   0  0  0  0  0  0  0  0  0  0  0  0
    0.4148   -0.9506   -9.6548 C   0  0  0  0  0  0  0  0  0  0  0  0
    0.0839    1.1583   -9.9077 C   0  0  0  0  0  0  0  0  0  0  0  0
    0.4744    0.2330   -8.9486 C   0  0  0  0  0  0  0  0  0  0  0  0
   -0.0889   -1.3761  -11.6203 H   0  0  0  0  0  0  0  0  0  0  0  0
 12 16  1  0  0  0
 13 17  1  0  0  0
  9  4  1  0  0  0
  5  6  2  0  0  0
  5  7  1  0  0  0
  6  8  1  0  0  0
  7  9  2  0  0  0
  8 10  2  0  0  0
  2  1  1  0  0  0
  1 11  1  0  0  0
  3  2  1  0  0  0
 11 18  1  0  0  0
 16 14  1  0  0  0
 15 14  1  0  0  0
 17 15  2  0  0  0
 10  3  1  0  0  0
  9 10  1  0  0  0
 18 16  2  0  0  0
 18 17  1  0  0  0
 14 19  1  0  0  0
M  END
> <minimizedAffinity>
-6.69905

$$$$
3P3T_3M3_A_128


 19 20  0  0  0  0  0  0  0  0999 V2000
   -0.8206   -0.3369   -4.0987 C   0  0  0  0  0  0  0  0  0  0  0  0
    0.1867   -0.7575   -5.1785 C   0  0  0  0  0  0  0  0  0  0  0  0
   -0.6647   -0.6777   -6.3132 O   0  0  0  0  0  0  0  0  0  0  0  0
   -2.3296   -0.1764   -8.2975 F   0  0  0  0  0  0  0  0  0  0  0  0
    0.2069    2.2900   -8.9721 C   0  0  0  0  0  0  0  0  0  0  0  0
    1.1009    2.0654   -7.9365 C   0  0  0  0  0  0  0  0  0  0  0  0
   -0.9348    1.5462   -9.1168 C   0  0  0  0  0  0  0  0  0  0  0  0
    0.8486    1.0660   -6.9871 C   0  0  0  0  0  0  0  0  0  0  0  0
   -1.1908    0.5526   -8.2119 C   0  0  0  0  0  0  0  0  0  0  0  0
   -0.3182    0.3357   -7.1549 C   0  0  0  0  0  0  0  0  0  0  0  0
   -0.4660    1.0062   -3.4229 C   0  0  0  0  0  0  0  0  0  0  0  0
   -3.2805    2.5717   -3.5406 C   0  0  0  0  0  0  0  0  0  0  0  0
   -0.1335    0.2320   -0.2904 C   0  0  0  0  0  0  0  0  0  0  0  0
   -3.1378    2.0276   -1.0440 N   0  0  0  0  0  0  0  0  0  0  0  0
   -2.3548    1.4523   -0.2409 N   0  0  0  0  0  0  0  0  0  0  0  0
   -2.6339    1.9800   -2.2901 C   0  0  0  0  0  0  0  0  0  0  0  0
   -1.2938    1.0039   -0.9219 C   0  0  0  0  0  0  0  0  0  0  0  0
   -1.4216    1.3221   -2.2676 C   0  0  0  0  0  0  0  0  0  0  0  0
   -3.9920    2.4495   -0.7957 H   0  0  0  0  0  0  0  0  0  0  0  0
 12 16  1  0  0  0
 13 17  1  0  0  0
  9  4  1  0  0  0
  5  6  2  0  0  0
  5  7  1  0  0  0
  6  8  1  0  0  0
  7  9  2  0  0  0
  8 10  2  0  0  0
  2  1  1  0  0  0
  1 11  1  0  0  0
  3  2  1  0  0  0
 11 18  1  0  0  0
 16 14  1  0  0  0
 15 14  1  0  0  0
 17 15  2  0  0  0
 10  3  1  0  0  0
  9 10  1  0  0  0
 18 16  2  0  0  0
 18 17  1  0  0  0
 14 19  1  0  0  0
M  END
> <minimizedAffinity>
-6.51555

$$$$
3P3T_3M3_A_128


 19 20  0  0  0  0  0  0  0  0999 V2000
   -0.7953   -0.3462   -4.0720 C   0  0  0  0  0  0  0  0  0  0  0  0
    0.2170   -0.7379   -5.1580 C   0  0  0  0  0  0  0  0  0  0  0  0
   -0.6443   -0.6869   -6.2869 O   0  0  0  0  0  0  0  0  0  0  0  0
   -2.2968   -0.2800   -8.3029 F   0  0  0  0  0  0  0  0  0  0  0  0
    0.1833    2.2339   -9.0110 C   0  0  0  0  0  0  0  0  0  0  0  0
    1.0699    2.0592   -7.9595 C   0  0  0  0  0  0  0  0  0  0  0  0
   -0.9368    1.4570   -9.1499 C   0  0  0  0  0  0  0  0  0  0  0  0
    0.8317    1.0780   -6.9876 C   0  0  0  0  0  0  0  0  0  0  0  0
   -1.1783    0.4805   -8.2228 C   0  0  0  0  0  0  0  0  0  0  0  0
   -0.3136    0.3134   -7.1502 C   0  0  0  0  0  0  0  0  0  0  0  0
   -0.5048    1.0308   -3.4347 C   0  0  0  0  0  0  0  0  0  0  0  0
   -0.1376    0.2384   -0.3325 C   0  0  0  0  0  0  0  0  0  0  0  0
   -3.3411    2.6030   -3.5087 C   0  0  0  0  0  0  0  0  0  0  0  0
   -2.3883    1.4540   -0.2545 N   0  0  0  0  0  0  0  0  0  0  0  0
   -3.1818    2.0344   -1.0435 N   0  0  0  0  0  0  0  0  0  0  0  0
   -1.3175    1.0013   -0.9307 C   0  0  0  0  0  0  0  0  0  0  0  0
   -2.6717    1.9849   -2.2796 C   0  0  0  0  0  0  0  0  0  0  0  0
   -1.4531    1.3191   -2.2663 C   0  0  0  0  0  0  0  0  0  0  0  0
   -2.5313    1.3478    0.7138 H   0  0  0  0  0  0  0  0  0  0  0  0
 12 16  1  0  0  0
 13 17  1  0  0  0
  9  4  1  0  0  0
  5  6  2  0  0  0
  5  7  1  0  0  0
  6  8  1  0  0  0
  7  9  2  0  0  0
  8 10  2  0  0  0
  2  1  1  0  0  0
  1 11  1  0  0  0
  3  2  1  0  0  0
 11 18  1  0  0  0
 16 14  1  0  0  0
 15 14  1  0  0  0
 17 15  2  0  0  0
 10  3  1  0  0  0
  9 10  1  0  0  0
 18 16  2  0  0  0
 18 17  1  0  0  0
 14 19  1  0  0  0
M  END
> <minimizedAffinity>
-6.50268

$$$$
