5IVV_6EN_A_601


 22 24  0  0  0  0  0  0  0  0999 V2000
  -25.5159   20.5133    4.3046 N   0  0  0  0  0  0  0  0  0  0  0  0
  -26.2092   19.8153    4.2697 H   0  0  0  0  0  0  0  0  0  0  0  0
  -22.2365   19.2163    4.9710 C   0  0  0  0  0  0  0  0  0  0  0  0
  -21.5592   18.7332    7.0853 C   0  0  0  0  0  0  0  0  0  0  0  0
  -23.4965   19.6374    5.4151 C   0  0  0  0  0  0  0  0  0  0  0  0
  -24.2497   20.0612    4.2691 C   0  0  0  0  0  0  0  0  0  0  0  0
  -23.4309   19.8576    3.1774 C   0  0  0  0  0  0  0  0  0  0  0  0
  -22.1923   19.3515    3.5985 N   0  0  0  0  0  0  0  0  0  0  0  0
  -21.0463   19.0195    2.7406 C   0  0  0  0  0  0  0  0  0  0  0  0
  -21.2374   18.7499    5.7767 N   0  0  0  0  0  0  0  0  0  0  0  0
  -22.7749   19.1312    7.6087 C   0  0  0  0  0  0  0  0  0  0  0  0
  -23.7719   19.5962    6.7708 C   0  0  0  0  0  0  0  0  0  0  0  0
  -27.1207   22.2297    3.6690 C   0  0  0  0  0  0  0  0  0  0  0  0
  -27.5714   23.5483    3.7727 C   0  0  0  0  0  0  0  0  0  0  0  0
  -26.8919   24.4471    4.6055 C   0  0  0  0  0  0  0  0  0  0  0  0
  -25.7901   24.0925    5.3215 N   0  0  0  0  0  0  0  0  0  0  0  0
  -25.3662   22.8013    5.1963 C   0  0  0  0  0  0  0  0  0  0  0  0
  -26.0019   21.8346    4.3842 C   0  0  0  0  0  0  0  0  0  0  0  0
  -28.6646   20.4346    3.2312 O   0  0  0  0  0  0  0  0  0  0  0  0
  -27.8746   21.2662    2.7508 C   0  0  0  0  0  0  0  0  0  0  0  0
  -27.6440   21.4047    1.5114 O   0  0  0  0  0  0  0  0  0  0  0  0
  -28.7872   20.3864    4.1589 H   0  0  0  0  0  0  0  0  0  0  0  0
  9  8  1  0  0  0
  8  7  1  0  0  0
  8  3  1  0  0  0
 16 17  2  0  0  0
 16 15  1  0  0  0
  7  6  2  0  0  0
 17 18  1  0  0  0
  3 10  2  0  0  0
  3  5  1  0  0  0
 10  4  1  0  0  0
 15 14  2  0  0  0
  6  5  1  0  0  0
  6  1  1  0  0  0
 18  1  1  0  0  0
 18 13  2  0  0  0
  5 12  2  0  0  0
  4 11  2  0  0  0
 14 13  1  0  0  0
 13 20  1  0  0  0
 12 11  1  0  0  0
 20 21  2  0  0  0
 20 19  1  0  0  0
 19 22  1  0  0  0
  1  2  1  0  0  0
M  END
> <minimizedAffinity>
-8.70186

$$$$
5IVV_6EN_A_601


 22 24  0  0  0  0  0  0  0  0999 V2000
  -24.3518   19.7029    4.8426 N   0  0  0  0  0  0  0  0  0  0  0  0
  -24.9102   18.9481    4.5466 H   0  0  0  0  0  0  0  0  0  0  0  0
  -25.4343   23.0288    4.0383 C   0  0  0  0  0  0  0  0  0  0  0  0
  -26.5460   24.3120    5.5483 C   0  0  0  0  0  0  0  0  0  0  0  0
  -25.3322   21.9628    4.9413 C   0  0  0  0  0  0  0  0  0  0  0  0
  -24.6498   20.8874    4.2795 C   0  0  0  0  0  0  0  0  0  0  0  0
  -24.3433   21.3496    3.0162 C   0  0  0  0  0  0  0  0  0  0  0  0
  -24.8298   22.6555    2.8555 N   0  0  0  0  0  0  0  0  0  0  0  0
  -24.7198   23.4870    1.6488 C   0  0  0  0  0  0  0  0  0  0  0  0
  -26.0310   24.2278    4.3057 N   0  0  0  0  0  0  0  0  0  0  0  0
  -26.4915   23.3107    6.4995 C   0  0  0  0  0  0  0  0  0  0  0  0
  -25.8781   22.1070    6.2050 C   0  0  0  0  0  0  0  0  0  0  0  0
  -22.1267   18.8876    5.3991 C   0  0  0  0  0  0  0  0  0  0  0  0
  -21.1716   18.5748    6.3698 C   0  0  0  0  0  0  0  0  0  0  0  0
  -21.4731   18.7706    7.7240 C   0  0  0  0  0  0  0  0  0  0  0  0
  -22.6757   19.2494    8.1448 N   0  0  0  0  0  0  0  0  0  0  0  0
  -23.5933   19.5395    7.1771 C   0  0  0  0  0  0  0  0  0  0  0  0
  -23.3617   19.3772    5.7922 C   0  0  0  0  0  0  0  0  0  0  0  0
  -21.9221   17.5372    3.4160 O   0  0  0  0  0  0  0  0  0  0  0  0
  -21.7784   18.6620    3.9268 C   0  0  0  0  0  0  0  0  0  0  0  0
  -21.3696   19.6872    3.3022 O   0  0  0  0  0  0  0  0  0  0  0  0
  -22.2291   16.8217    3.9373 H   0  0  0  0  0  0  0  0  0  0  0  0
  9  8  1  0  0  0
  8  7  1  0  0  0
  8  3  1  0  0  0
 16 17  2  0  0  0
 16 15  1  0  0  0
  7  6  2  0  0  0
 17 18  1  0  0  0
  3 10  2  0  0  0
  3  5  1  0  0  0
 10  4  1  0  0  0
 15 14  2  0  0  0
  6  5  1  0  0  0
  6  1  1  0  0  0
 18  1  1  0  0  0
 18 13  2  0  0  0
  5 12  2  0  0  0
  4 11  2  0  0  0
 14 13  1  0  0  0
 13 20  1  0  0  0
 12 11  1  0  0  0
 20 21  2  0  0  0
 20 19  1  0  0  0
 19 22  1  0  0  0
  1  2  1  0  0  0
M  END
> <minimizedAffinity>
-8.59446

$$$$
5IVV_6EN_A_601


 22 24  0  0  0  0  0  0  0  0999 V2000
  -23.5723   20.8422    4.7060 N   0  0  0  0  0  0  0  0  0  0  0  0
  -22.8211   21.3368    4.3057 H   0  0  0  0  0  0  0  0  0  0  0  0
  -26.8500   22.2282    4.2408 C   0  0  0  0  0  0  0  0  0  0  0  0
  -27.8408   23.4949    5.8458 C   0  0  0  0  0  0  0  0  0  0  0  0
  -25.7017   22.0439    5.0217 C   0  0  0  0  0  0  0  0  0  0  0  0
  -24.7922   21.2167    4.2810 C   0  0  0  0  0  0  0  0  0  0  0  0
  -25.4099   20.9542    3.0755 C   0  0  0  0  0  0  0  0  0  0  0  0
  -26.6749   21.5597    3.0465 N   0  0  0  0  0  0  0  0  0  0  0  0
  -27.6472   21.5007    1.9462 C   0  0  0  0  0  0  0  0  0  0  0  0
  -27.9440   22.9546    4.6154 N   0  0  0  0  0  0  0  0  0  0  0  0
  -26.7481   23.3622    6.6817 C   0  0  0  0  0  0  0  0  0  0  0  0
  -25.6509   22.6244    6.2770 C   0  0  0  0  0  0  0  0  0  0  0  0
  -22.4087   18.7786    5.2652 C   0  0  0  0  0  0  0  0  0  0  0  0
  -22.0670   17.8137    6.2164 C   0  0  0  0  0  0  0  0  0  0  0  0
  -22.5261   17.9490    7.5333 C   0  0  0  0  0  0  0  0  0  0  0  0
  -23.3099   18.9876    7.9326 N   0  0  0  0  0  0  0  0  0  0  0  0
  -23.6354   19.9116    6.9824 C   0  0  0  0  0  0  0  0  0  0  0  0
  -23.2052   19.8493    5.6374 C   0  0  0  0  0  0  0  0  0  0  0  0
  -21.9757   17.5028    3.2695 O   0  0  0  0  0  0  0  0  0  0  0  0
  -21.9005   18.6092    3.8324 C   0  0  0  0  0  0  0  0  0  0  0  0
  -21.4376   19.6593    3.2926 O   0  0  0  0  0  0  0  0  0  0  0  0
  -22.3296   16.7666    3.7287 H   0  0  0  0  0  0  0  0  0  0  0  0
  9  8  1  0  0  0
  8  7  1  0  0  0
  8  3  1  0  0  0
 16 17  2  0  0  0
 16 15  1  0  0  0
  7  6  2  0  0  0
 17 18  1  0  0  0
  3 10  2  0  0  0
  3  5  1  0  0  0
 10  4  1  0  0  0
 15 14  2  0  0  0
  6  5  1  0  0  0
  6  1  1  0  0  0
 18  1  1  0  0  0
 18 13  2  0  0  0
  5 12  2  0  0  0
  4 11  2  0  0  0
 14 13  1  0  0  0
 13 20  1  0  0  0
 12 11  1  0  0  0
 20 21  2  0  0  0
 20 19  1  0  0  0
 19 22  1  0  0  0
  1  2  1  0  0  0
M  END
> <minimizedAffinity>
-8.36278

$$$$
5IVV_6EN_A_601


 22 24  0  0  0  0  0  0  0  0999 V2000
  -24.2400   21.1268    4.9195 N   0  0  0  0  0  0  0  0  0  0  0  0
  -23.6510   21.7900    5.3468 H   0  0  0  0  0  0  0  0  0  0  0  0
  -27.3615   22.8034    4.3491 C   0  0  0  0  0  0  0  0  0  0  0  0
  -28.3069   24.1229    5.9390 C   0  0  0  0  0  0  0  0  0  0  0  0
  -26.2685   22.5049    5.1728 C   0  0  0  0  0  0  0  0  0  0  0  0
  -25.4031   21.6146    4.4526 C   0  0  0  0  0  0  0  0  0  0  0  0
  -25.9886   21.4292    3.2171 C   0  0  0  0  0  0  0  0  0  0  0  0
  -27.1937   22.1439    3.1488 N   0  0  0  0  0  0  0  0  0  0  0  0
  -28.1190   22.1904    2.0080 C   0  0  0  0  0  0  0  0  0  0  0  0
  -28.4034   23.6161    4.6938 N   0  0  0  0  0  0  0  0  0  0  0  0
  -27.2671   23.8796    6.8164 C   0  0  0  0  0  0  0  0  0  0  0  0
  -26.2217   23.0558    6.4415 C   0  0  0  0  0  0  0  0  0  0  0  0
  -23.4319   19.1346    6.0613 C   0  0  0  0  0  0  0  0  0  0  0  0
  -22.9324   17.8315    5.9920 C   0  0  0  0  0  0  0  0  0  0  0  0
  -22.7559   17.2249    4.7413 C   0  0  0  0  0  0  0  0  0  0  0  0
  -23.0436   17.8599    3.5722 N   0  0  0  0  0  0  0  0  0  0  0  0
  -23.5224   19.1342    3.6677 C   0  0  0  0  0  0  0  0  0  0  0  0
  -23.7353   19.8104    4.8906 C   0  0  0  0  0  0  0  0  0  0  0  0
  -24.5491   20.5728    7.6365 O   0  0  0  0  0  0  0  0  0  0  0  0
  -23.6126   19.7793    7.4366 C   0  0  0  0  0  0  0  0  0  0  0  0
  -22.7697   19.4274    8.3164 O   0  0  0  0  0  0  0  0  0  0  0  0
  -25.1365   20.7894    6.9394 H   0  0  0  0  0  0  0  0  0  0  0  0
  9  8  1  0  0  0
  8  7  1  0  0  0
  8  3  1  0  0  0
 16 17  2  0  0  0
 16 15  1  0  0  0
  7  6  2  0  0  0
 17 18  1  0  0  0
  3 10  2  0  0  0
  3  5  1  0  0  0
 10  4  1  0  0  0
 15 14  2  0  0  0
  6  5  1  0  0  0
  6  1  1  0  0  0
 18  1  1  0  0  0
 18 13  2  0  0  0
  5 12  2  0  0  0
  4 11  2  0  0  0
 14 13  1  0  0  0
 13 20  1  0  0  0
 12 11  1  0  0  0
 20 21  2  0  0  0
 20 19  1  0  0  0
 19 22  1  0  0  0
  1  2  1  0  0  0
M  END
> <minimizedAffinity>
-8.34082

$$$$
5IVV_6EN_A_601


 22 24  0  0  0  0  0  0  0  0999 V2000
  -25.4574   21.0040    4.3140 N   0  0  0  0  0  0  0  0  0  0  0  0
  -26.1709   20.4654    4.7263 H   0  0  0  0  0  0  0  0  0  0  0  0
  -22.3524   19.2956    4.8809 C   0  0  0  0  0  0  0  0  0  0  0  0
  -21.7037   18.6757    6.9683 C   0  0  0  0  0  0  0  0  0  0  0  0
  -23.5429   19.8564    5.3609 C   0  0  0  0  0  0  0  0  0  0  0  0
  -24.2575   20.4006    4.2414 C   0  0  0  0  0  0  0  0  0  0  0  0
  -23.4892   20.1274    3.1285 C   0  0  0  0  0  0  0  0  0  0  0  0
  -22.3155   19.4614    3.5115 N   0  0  0  0  0  0  0  0  0  0  0  0
  -21.2343   19.0143    2.6224 C   0  0  0  0  0  0  0  0  0  0  0  0
  -21.4049   18.6881    5.6541 N   0  0  0  0  0  0  0  0  0  0  0  0
  -22.8517   19.2060    7.5261 C   0  0  0  0  0  0  0  0  0  0  0  0
  -23.7978   19.8127    6.7206 C   0  0  0  0  0  0  0  0  0  0  0  0
  -26.3061   23.2342    4.7950 C   0  0  0  0  0  0  0  0  0  0  0  0
  -26.6868   24.4979    4.3360 C   0  0  0  0  0  0  0  0  0  0  0  0
  -26.5909   24.7945    2.9700 C   0  0  0  0  0  0  0  0  0  0  0  0
  -26.1468   23.8912    2.0538 N   0  0  0  0  0  0  0  0  0  0  0  0
  -25.7889   22.6623    2.5272 C   0  0  0  0  0  0  0  0  0  0  0  0
  -25.8493   22.2903    3.8896 C   0  0  0  0  0  0  0  0  0  0  0  0
  -27.5375   22.9273    6.8413 O   0  0  0  0  0  0  0  0  0  0  0  0
  -26.4230   22.9300    6.2895 C   0  0  0  0  0  0  0  0  0  0  0  0
  -25.3297   22.6722    6.8784 O   0  0  0  0  0  0  0  0  0  0  0  0
  -28.3065   23.1276    6.3449 H   0  0  0  0  0  0  0  0  0  0  0  0
  9  8  1  0  0  0
  8  7  1  0  0  0
  8  3  1  0  0  0
 16 17  2  0  0  0
 16 15  1  0  0  0
  7  6  2  0  0  0
 17 18  1  0  0  0
  3 10  2  0  0  0
  3  5  1  0  0  0
 10  4  1  0  0  0
 15 14  2  0  0  0
  6  5  1  0  0  0
  6  1  1  0  0  0
 18  1  1  0  0  0
 18 13  2  0  0  0
  5 12  2  0  0  0
  4 11  2  0  0  0
 14 13  1  0  0  0
 13 20  1  0  0  0
 12 11  1  0  0  0
 20 21  2  0  0  0
 20 19  1  0  0  0
 19 22  1  0  0  0
  1  2  1  0  0  0
M  END
> <minimizedAffinity>
-8.16826

$$$$
5IVV_6EN_A_601


 22 24  0  0  0  0  0  0  0  0999 V2000
  -24.2583   20.0212    4.5948 N   0  0  0  0  0  0  0  0  0  0  0  0
  -24.5423   19.3170    3.9682 H   0  0  0  0  0  0  0  0  0  0  0  0
  -25.2385   23.1972    3.2411 C   0  0  0  0  0  0  0  0  0  0  0  0
  -24.5248   23.8864    1.1970 C   0  0  0  0  0  0  0  0  0  0  0  0
  -24.5383   21.9886    3.1357 C   0  0  0  0  0  0  0  0  0  0  0  0
  -24.7586   21.2440    4.3428 C   0  0  0  0  0  0  0  0  0  0  0  0
  -25.6003   22.0143    5.1185 C   0  0  0  0  0  0  0  0  0  0  0  0
  -25.8902   23.2169    4.4571 N   0  0  0  0  0  0  0  0  0  0  0  0
  -26.7362   24.3087    4.9592 C   0  0  0  0  0  0  0  0  0  0  0  0
  -25.2626   24.1745    2.2875 N   0  0  0  0  0  0  0  0  0  0  0  0
  -23.8035   22.7221    1.0118 C   0  0  0  0  0  0  0  0  0  0  0  0
  -23.7987   21.7460    1.9912 C   0  0  0  0  0  0  0  0  0  0  0  0
  -22.1792   18.9870    5.3248 C   0  0  0  0  0  0  0  0  0  0  0  0
  -21.3452   18.5759    6.3678 C   0  0  0  0  0  0  0  0  0  0  0  0
  -21.7401   18.7928    7.6946 C   0  0  0  0  0  0  0  0  0  0  0  0
  -22.9215   19.3856    8.0195 N   0  0  0  0  0  0  0  0  0  0  0  0
  -23.7206   19.7704    6.9823 C   0  0  0  0  0  0  0  0  0  0  0  0
  -23.3891   19.5939    5.6196 C   0  0  0  0  0  0  0  0  0  0  0  0
  -21.8214   17.5987    3.3903 O   0  0  0  0  0  0  0  0  0  0  0  0
  -21.7307   18.7365    3.8840 C   0  0  0  0  0  0  0  0  0  0  0  0
  -21.2988   19.7555    3.2647 O   0  0  0  0  0  0  0  0  0  0  0  0
  -22.1501   16.8889    3.9062 H   0  0  0  0  0  0  0  0  0  0  0  0
  9  8  1  0  0  0
  8  7  1  0  0  0
  8  3  1  0  0  0
 16 17  2  0  0  0
 16 15  1  0  0  0
  7  6  2  0  0  0
 17 18  1  0  0  0
  3 10  2  0  0  0
  3  5  1  0  0  0
 10  4  1  0  0  0
 15 14  2  0  0  0
  6  5  1  0  0  0
  6  1  1  0  0  0
 18  1  1  0  0  0
 18 13  2  0  0  0
  5 12  2  0  0  0
  4 11  2  0  0  0
 14 13  1  0  0  0
 13 20  1  0  0  0
 12 11  1  0  0  0
 20 21  2  0  0  0
 20 19  1  0  0  0
 19 22  1  0  0  0
  1  2  1  0  0  0
M  END
> <minimizedAffinity>
-8.00629

$$$$
5IVV_6EN_A_601


 22 24  0  0  0  0  0  0  0  0999 V2000
  -24.1947   20.4282    4.6804 N   0  0  0  0  0  0  0  0  0  0  0  0
  -24.0433   20.1109    3.7608 H   0  0  0  0  0  0  0  0  0  0  0  0
  -26.9050   22.7515    4.3098 C   0  0  0  0  0  0  0  0  0  0  0  0
  -28.1157   22.8651    2.3905 C   0  0  0  0  0  0  0  0  0  0  0  0
  -26.0951   21.7287    3.7998 C   0  0  0  0  0  0  0  0  0  0  0  0
  -25.1302   21.3865    4.8057 C   0  0  0  0  0  0  0  0  0  0  0  0
  -25.4071   22.1926    5.8906 C   0  0  0  0  0  0  0  0  0  0  0  0
  -26.4847   23.0397    5.5920 N   0  0  0  0  0  0  0  0  0  0  0  0
  -27.0704   24.0547    6.4787 C   0  0  0  0  0  0  0  0  0  0  0  0
  -27.9341   23.3453    3.6366 N   0  0  0  0  0  0  0  0  0  0  0  0
  -27.3638   21.8615    1.8094 C   0  0  0  0  0  0  0  0  0  0  0  0
  -26.3293   21.2735    2.5139 C   0  0  0  0  0  0  0  0  0  0  0  0
  -22.2759   19.0734    5.3190 C   0  0  0  0  0  0  0  0  0  0  0  0
  -21.5119   18.4732    6.3232 C   0  0  0  0  0  0  0  0  0  0  0  0
  -21.8857   18.6326    7.6641 C   0  0  0  0  0  0  0  0  0  0  0  0
  -22.9814   19.3479    8.0389 N   0  0  0  0  0  0  0  0  0  0  0  0
  -23.7144   19.9170    7.0384 C   0  0  0  0  0  0  0  0  0  0  0  0
  -23.3978   19.8088    5.6650 C   0  0  0  0  0  0  0  0  0  0  0  0
  -21.7648   17.7395    3.3807 O   0  0  0  0  0  0  0  0  0  0  0  0
  -21.8524   18.8830    3.8615 C   0  0  0  0  0  0  0  0  0  0  0  0
  -21.6311   19.9521    3.2161 O   0  0  0  0  0  0  0  0  0  0  0  0
  -21.9428   16.9912    3.9159 H   0  0  0  0  0  0  0  0  0  0  0  0
  9  8  1  0  0  0
  8  7  1  0  0  0
  8  3  1  0  0  0
 16 17  2  0  0  0
 16 15  1  0  0  0
  7  6  2  0  0  0
 17 18  1  0  0  0
  3 10  2  0  0  0
  3  5  1  0  0  0
 10  4  1  0  0  0
 15 14  2  0  0  0
  6  5  1  0  0  0
  6  1  1  0  0  0
 18  1  1  0  0  0
 18 13  2  0  0  0
  5 12  2  0  0  0
  4 11  2  0  0  0
 14 13  1  0  0  0
 13 20  1  0  0  0
 12 11  1  0  0  0
 20 21  2  0  0  0
 20 19  1  0  0  0
 19 22  1  0  0  0
  1  2  1  0  0  0
M  END
> <minimizedAffinity>
-7.91063

$$$$
5IVV_6EN_A_601


 22 24  0  0  0  0  0  0  0  0999 V2000
  -23.7273   21.3366    3.1824 N   0  0  0  0  0  0  0  0  0  0  0  0
  -23.2463   22.1677    3.3997 H   0  0  0  0  0  0  0  0  0  0  0  0
  -26.6374   21.5900    1.0972 C   0  0  0  0  0  0  0  0  0  0  0  0
  -28.7332   21.4888    1.9687 C   0  0  0  0  0  0  0  0  0  0  0  0
  -26.0490   21.4393    2.3596 C   0  0  0  0  0  0  0  0  0  0  0  0
  -24.6243   21.4413    2.1857 C   0  0  0  0  0  0  0  0  0  0  0  0
  -24.4045   21.6181    0.8352 C   0  0  0  0  0  0  0  0  0  0  0  0
  -25.6312   21.6986    0.1593 N   0  0  0  0  0  0  0  0  0  0  0  0
  -25.8223   21.8694   -1.2877 C   0  0  0  0  0  0  0  0  0  0  0  0
  -27.9814   21.6258    0.8585 N   0  0  0  0  0  0  0  0  0  0  0  0
  -28.2368   21.3341    3.2492 C   0  0  0  0  0  0  0  0  0  0  0  0
  -26.8712   21.3050    3.4648 C   0  0  0  0  0  0  0  0  0  0  0  0
  -22.3528   19.3652    3.5692 C   0  0  0  0  0  0  0  0  0  0  0  0
  -22.0291   18.2665    4.3695 C   0  0  0  0  0  0  0  0  0  0  0  0
  -22.7311   18.0502    5.5627 C   0  0  0  0  0  0  0  0  0  0  0  0
  -23.7361   18.8679    5.9797 N   0  0  0  0  0  0  0  0  0  0  0  0
  -24.0374   19.9289    5.1760 C   0  0  0  0  0  0  0  0  0  0  0  0
  -23.3706   20.2183    3.9637 C   0  0  0  0  0  0  0  0  0  0  0  0
  -21.9981   19.0973    1.2028 O   0  0  0  0  0  0  0  0  0  0  0  0
  -21.5769   19.5801    2.2686 C   0  0  0  0  0  0  0  0  0  0  0  0
  -20.5257   20.2819    2.3730 O   0  0  0  0  0  0  0  0  0  0  0  0
  -22.7839   18.5870    1.1978 H   0  0  0  0  0  0  0  0  0  0  0  0
  9  8  1  0  0  0
  8  7  1  0  0  0
  8  3  1  0  0  0
 16 17  2  0  0  0
 16 15  1  0  0  0
  7  6  2  0  0  0
 17 18  1  0  0  0
  3 10  2  0  0  0
  3  5  1  0  0  0
 10  4  1  0  0  0
 15 14  2  0  0  0
  6  5  1  0  0  0
  6  1  1  0  0  0
 18  1  1  0  0  0
 18 13  2  0  0  0
  5 12  2  0  0  0
  4 11  2  0  0  0
 14 13  1  0  0  0
 13 20  1  0  0  0
 12 11  1  0  0  0
 20 21  2  0  0  0
 20 19  1  0  0  0
 19 22  1  0  0  0
  1  2  1  0  0  0
M  END
> <minimizedAffinity>
-7.89615

$$$$
5IVV_6EN_A_601


 22 24  0  0  0  0  0  0  0  0999 V2000
  -22.4955   19.8737    1.7095 N   0  0  0  0  0  0  0  0  0  0  0  0
  -22.9637   19.2860    1.0733 H   0  0  0  0  0  0  0  0  0  0  0  0
  -23.9323   20.4055    4.9549 C   0  0  0  0  0  0  0  0  0  0  0  0
  -23.1482   19.3213    6.7913 C   0  0  0  0  0  0  0  0  0  0  0  0
  -22.9969   19.7790    4.1215 C   0  0  0  0  0  0  0  0  0  0  0  0
  -23.2183   20.2437    2.7816 C   0  0  0  0  0  0  0  0  0  0  0  0
  -24.2570   21.1487    2.8580 C   0  0  0  0  0  0  0  0  0  0  0  0
  -24.7081   21.2456    4.1827 N   0  0  0  0  0  0  0  0  0  0  0  0
  -25.8079   22.0885    4.6721 C   0  0  0  0  0  0  0  0  0  0  0  0
  -24.0379   20.2077    6.3020 N   0  0  0  0  0  0  0  0  0  0  0  0
  -22.1949   18.6580    6.0421 C   0  0  0  0  0  0  0  0  0  0  0  0
  -22.1061   18.8790    4.6799 C   0  0  0  0  0  0  0  0  0  0  0  0
  -20.8691   21.3968    0.7295 C   0  0  0  0  0  0  0  0  0  0  0  0
  -19.5430   21.6831    0.3950 C   0  0  0  0  0  0  0  0  0  0  0  0
  -18.5367   20.7599    0.7087 C   0  0  0  0  0  0  0  0  0  0  0  0
  -18.7966   19.5744    1.3248 N   0  0  0  0  0  0  0  0  0  0  0  0
  -20.1006   19.3161    1.6334 C   0  0  0  0  0  0  0  0  0  0  0  0
  -21.1694   20.1990    1.3575 C   0  0  0  0  0  0  0  0  0  0  0  0
  -21.9897   23.5163    0.9535 O   0  0  0  0  0  0  0  0  0  0  0  0
  -21.9524   22.4165    0.3740 C   0  0  0  0  0  0  0  0  0  0  0  0
  -22.7564   22.0587   -0.5393 O   0  0  0  0  0  0  0  0  0  0  0  0
  -21.3631   23.7156    1.6209 H   0  0  0  0  0  0  0  0  0  0  0  0
  9  8  1  0  0  0
  8  7  1  0  0  0
  8  3  1  0  0  0
 16 17  2  0  0  0
 16 15  1  0  0  0
  7  6  2  0  0  0
 17 18  1  0  0  0
  3 10  2  0  0  0
  3  5  1  0  0  0
 10  4  1  0  0  0
 15 14  2  0  0  0
  6  5  1  0  0  0
  6  1  1  0  0  0
 18  1  1  0  0  0
 18 13  2  0  0  0
  5 12  2  0  0  0
  4 11  2  0  0  0
 14 13  1  0  0  0
 13 20  1  0  0  0
 12 11  1  0  0  0
 20 21  2  0  0  0
 20 19  1  0  0  0
 19 22  1  0  0  0
  1  2  1  0  0  0
M  END
> <minimizedAffinity>
-7.79724

$$$$
5IVV_6EN_A_601


 22 24  0  0  0  0  0  0  0  0999 V2000
  -23.3607   19.4155    3.2526 N   0  0  0  0  0  0  0  0  0  0  0  0
  -23.8969   18.6604    2.9186 H   0  0  0  0  0  0  0  0  0  0  0  0
  -21.2629   20.8466    0.7165 C   0  0  0  0  0  0  0  0  0  0  0  0
  -22.1264   22.1080   -0.9644 C   0  0  0  0  0  0  0  0  0  0  0  0
  -22.5280   20.6398    1.2814 C   0  0  0  0  0  0  0  0  0  0  0  0
  -22.3636   19.8095    2.4406 C   0  0  0  0  0  0  0  0  0  0  0  0
  -21.0095   19.5675    2.5481 C   0  0  0  0  0  0  0  0  0  0  0  0
  -20.3289   20.1888    1.4904 N   0  0  0  0  0  0  0  0  0  0  0  0
  -18.8810   20.1535    1.2421 C   0  0  0  0  0  0  0  0  0  0  0  0
  -21.0174   21.5823   -0.4075 N   0  0  0  0  0  0  0  0  0  0  0  0
  -23.4098   21.9530   -0.4755 C   0  0  0  0  0  0  0  0  0  0  0  0
  -23.6313   21.2061    0.6670 C   0  0  0  0  0  0  0  0  0  0  0  0
  -23.3527   19.3054    5.6843 C   0  0  0  0  0  0  0  0  0  0  0  0
  -23.7654   19.8330    6.9106 C   0  0  0  0  0  0  0  0  0  0  0  0
  -24.5708   20.9793    6.9335 C   0  0  0  0  0  0  0  0  0  0  0  0
  -24.9845   21.6066    5.7986 N   0  0  0  0  0  0  0  0  0  0  0  0
  -24.5739   21.0665    4.6144 C   0  0  0  0  0  0  0  0  0  0  0  0
  -23.7554   19.9189    4.5092 C   0  0  0  0  0  0  0  0  0  0  0  0
  -21.3891   18.0473    6.2838 O   0  0  0  0  0  0  0  0  0  0  0  0
  -22.4775   18.0509    5.6821 C   0  0  0  0  0  0  0  0  0  0  0  0
  -22.9552   17.0565    5.0564 O   0  0  0  0  0  0  0  0  0  0  0  0
  -21.0960   18.8194    6.7265 H   0  0  0  0  0  0  0  0  0  0  0  0
  9  8  1  0  0  0
  8  7  1  0  0  0
  8  3  1  0  0  0
 16 17  2  0  0  0
 16 15  1  0  0  0
  7  6  2  0  0  0
 17 18  1  0  0  0
  3 10  2  0  0  0
  3  5  1  0  0  0
 10  4  1  0  0  0
 15 14  2  0  0  0
  6  5  1  0  0  0
  6  1  1  0  0  0
 18  1  1  0  0  0
 18 13  2  0  0  0
  5 12  2  0  0  0
  4 11  2  0  0  0
 14 13  1  0  0  0
 13 20  1  0  0  0
 12 11  1  0  0  0
 20 21  2  0  0  0
 20 19  1  0  0  0
 19 22  1  0  0  0
  1  2  1  0  0  0
M  END
> <minimizedAffinity>
-7.70074

$$$$
