1KYV_RBF_A_501


 32 34  0  0  0  0  0  0  0  0999 V2000
   75.7302   44.9897   42.1212 N   0  0  0  0  0  0  0  0  0  0  0  0
   75.5506   43.7862   42.7908 C   0  0  0  0  0  0  0  0  0  0  0  0
   76.5213   43.0920   42.9529 O   0  0  0  0  0  0  0  0  0  0  0  0
   74.2655   43.5165   43.1936 N   0  0  0  0  0  0  0  0  0  0  0  0
   73.0952   44.2811   43.0280 C   0  0  0  0  0  0  0  0  0  0  0  0
   72.0126   43.8917   43.4523 O   0  0  0  0  0  0  0  0  0  0  0  0
   73.3450   45.5860   42.2701 C   0  0  0  0  0  0  0  0  0  0  0  0
   72.3275   46.3937   42.0328 N   0  0  0  0  0  0  0  0  0  0  0  0
   72.5401   47.6025   41.3267 C   0  0  0  0  0  0  0  0  0  0  0  0
   71.3403   48.4141   41.0913 C   0  0  0  0  0  0  0  0  0  0  0  0
   71.5509   49.6009   40.3773 C   0  0  0  0  0  0  0  0  0  0  0  0
   70.3945   50.5751   40.0226 C   0  0  0  0  0  0  0  0  0  0  0  0
   72.9221   49.9621   39.9226 C   0  0  0  0  0  0  0  0  0  0  0  0
   73.1176   51.2920   39.1179 C   0  0  0  0  0  0  0  0  0  0  0  0
   74.0850   49.2154   40.1405 C   0  0  0  0  0  0  0  0  0  0  0  0
   73.8488   47.9875   40.8686 C   0  0  0  0  0  0  0  0  0  0  0  0
   74.9499   47.0534   41.1736 N   0  0  0  0  0  0  0  0  0  0  0  0
   74.6851   45.8846   41.8559 C   0  0  0  0  0  0  0  0  0  0  0  0
   74.1450   42.6623   43.6681 H   0  0  0  0  0  0  0  0  0  0  0  0
   76.2943   47.4326   40.7170 C   0  0  0  0  0  0  0  0  0  0  0  0
   76.7851   46.7952   39.4261 C   0  0  0  0  0  0  0  0  0  0  0  0
   77.3052   45.4627   39.7621 O   0  0  0  0  0  0  0  0  0  0  0  0
   78.0073   45.5476   40.4259 H   0  0  0  0  0  0  0  0  0  0  0  0
   77.8124   47.7038   38.8402 C   0  0  0  0  0  0  0  0  0  0  0  0
   79.0131   47.8261   39.5976 O   0  0  0  0  0  0  0  0  0  0  0  0
   78.8289   48.3055   40.4205 H   0  0  0  0  0  0  0  0  0  0  0  0
   77.4330   49.1212   38.6063 C   0  0  0  0  0  0  0  0  0  0  0  0
   76.5019   49.1289   37.5038 O   0  0  0  0  0  0  0  0  0  0  0  0
   76.9443   48.8022   36.7048 H   0  0  0  0  0  0  0  0  0  0  0  0
   78.5718   50.1220   38.1450 C   0  0  0  0  0  0  0  0  0  0  0  0
   79.2401   49.5629   36.9913 O   0  0  0  0  0  0  0  0  0  0  0  0
   79.6247   48.7037   37.2252 H   0  0  0  0  0  0  0  0  0  0  0  0
  1  2  1  0  0  0
  1 18  2  0  0  0
  2  3  2  0  0  0
  2  4  1  0  0  0
  4  5  1  0  0  0
  5  6  2  0  0  0
  5  7  1  0  0  0
  7  8  2  0  0  0
  7 18  1  0  0  0
  8  9  1  0  0  0
  9 10  2  0  0  0
  9 16  1  0  0  0
 10 11  1  0  0  0
 11 12  1  0  0  0
 11 13  2  0  0  0
 13 14  1  0  0  0
 13 15  1  0  0  0
 15 16  2  0  0  0
 16 17  1  0  0  0
 17 18  1  0  0  0
 17 20  1  0  0  0
 20 21  1  0  0  0
 21 22  1  0  0  0
 21 24  1  0  0  0
 24 25  1  0  0  0
 24 27  1  0  0  0
 27 28  1  0  0  0
 27 30  1  0  0  0
 30 31  1  0  0  0
  4 19  1  0  0  0
 22 23  1  0  0  0
 25 26  1  0  0  0
 28 29  1  0  0  0
 31 32  1  0  0  0
M  END
> <minimizedAffinity>
-10.83785

$$$$
1KYV_RBF_A_501


 32 34  0  0  0  0  0  0  0  0999 V2000
   73.0931   50.5582   39.5291 N   0  0  0  0  0  0  0  0  0  0  0  0
   72.0538   51.4454   39.2811 C   0  0  0  0  0  0  0  0  0  0  0  0
   72.3205   52.4597   38.6891 O   0  0  0  0  0  0  0  0  0  0  0  0
   70.8212   51.0629   39.7512 N   0  0  0  0  0  0  0  0  0  0  0  0
   70.4506   49.8996   40.4519 C   0  0  0  0  0  0  0  0  0  0  0  0
   69.2919   49.7084   40.8046 O   0  0  0  0  0  0  0  0  0  0  0  0
   71.6339   48.9664   40.7141 C   0  0  0  0  0  0  0  0  0  0  0  0
   71.4287   47.8424   41.3763 N   0  0  0  0  0  0  0  0  0  0  0  0
   72.5142   46.9704   41.6333 C   0  0  0  0  0  0  0  0  0  0  0  0
   72.1847   45.7631   42.3999 C   0  0  0  0  0  0  0  0  0  0  0  0
   73.2639   44.9109   42.6677 C   0  0  0  0  0  0  0  0  0  0  0  0
   73.1048   43.5965   43.4796 C   0  0  0  0  0  0  0  0  0  0  0  0
   74.6257   45.2577   42.1750 C   0  0  0  0  0  0  0  0  0  0  0  0
   75.8099   44.2858   42.5024 C   0  0  0  0  0  0  0  0  0  0  0  0
   74.9684   46.3939   41.4342 C   0  0  0  0  0  0  0  0  0  0  0  0
   73.8455   47.2693   41.1762 C   0  0  0  0  0  0  0  0  0  0  0  0
   74.0132   48.5316   40.4302 N   0  0  0  0  0  0  0  0  0  0  0  0
   72.9234   49.3490   40.2166 C   0  0  0  0  0  0  0  0  0  0  0  0
   70.0887   51.6958   39.5716 H   0  0  0  0  0  0  0  0  0  0  0  0
   75.3657   48.8509   39.9519 C   0  0  0  0  0  0  0  0  0  0  0  0
   76.2408   49.6839   40.8760 C   0  0  0  0  0  0  0  0  0  0  0  0
   75.8566   51.0908   40.6976 O   0  0  0  0  0  0  0  0  0  0  0  0
   75.9585   51.3381   39.7652 H   0  0  0  0  0  0  0  0  0  0  0  0
   77.6617   49.4058   40.5183 C   0  0  0  0  0  0  0  0  0  0  0  0
   78.5625   50.4879   40.7369 O   0  0  0  0  0  0  0  0  0  0  0  0
   78.3757   51.1974   40.1024 H   0  0  0  0  0  0  0  0  0  0  0  0
   77.9608   49.0155   39.1162 C   0  0  0  0  0  0  0  0  0  0  0  0
   78.8397   47.8727   39.1782 O   0  0  0  0  0  0  0  0  0  0  0  0
   79.6740   48.1290   39.6015 H   0  0  0  0  0  0  0  0  0  0  0  0
   78.7529   50.0519   38.2162 C   0  0  0  0  0  0  0  0  0  0  0  0
   79.1100   49.4068   36.9725 O   0  0  0  0  0  0  0  0  0  0  0  0
   79.6643   48.6325   37.1574 H   0  0  0  0  0  0  0  0  0  0  0  0
  1  2  1  0  0  0
  1 18  2  0  0  0
  2  3  2  0  0  0
  2  4  1  0  0  0
  4  5  1  0  0  0
  5  6  2  0  0  0
  5  7  1  0  0  0
  7  8  2  0  0  0
  7 18  1  0  0  0
  8  9  1  0  0  0
  9 10  2  0  0  0
  9 16  1  0  0  0
 10 11  1  0  0  0
 11 12  1  0  0  0
 11 13  2  0  0  0
 13 14  1  0  0  0
 13 15  1  0  0  0
 15 16  2  0  0  0
 16 17  1  0  0  0
 17 18  1  0  0  0
 17 20  1  0  0  0
 20 21  1  0  0  0
 21 22  1  0  0  0
 21 24  1  0  0  0
 24 25  1  0  0  0
 24 27  1  0  0  0
 27 28  1  0  0  0
 27 30  1  0  0  0
 30 31  1  0  0  0
  4 19  1  0  0  0
 22 23  1  0  0  0
 25 26  1  0  0  0
 28 29  1  0  0  0
 31 32  1  0  0  0
M  END
> <minimizedAffinity>
-9.63407

$$$$
1KYV_RBF_A_501


 32 34  0  0  0  0  0  0  0  0999 V2000
   69.4458   49.2454   41.8135 N   0  0  0  0  0  0  0  0  0  0  0  0
   68.1829   48.9909   42.3322 C   0  0  0  0  0  0  0  0  0  0  0  0
   67.3651   49.8719   42.2571 O   0  0  0  0  0  0  0  0  0  0  0  0
   68.0078   47.7463   42.8861 N   0  0  0  0  0  0  0  0  0  0  0  0
   68.9223   46.6831   43.0086 C   0  0  0  0  0  0  0  0  0  0  0  0
   68.6028   45.6237   43.5369 O   0  0  0  0  0  0  0  0  0  0  0  0
   70.3008   47.0216   42.4386 C   0  0  0  0  0  0  0  0  0  0  0  0
   71.2599   46.1159   42.5013 N   0  0  0  0  0  0  0  0  0  0  0  0
   72.5436   46.4153   41.9844 C   0  0  0  0  0  0  0  0  0  0  0  0
   73.5446   45.3519   42.1285 C   0  0  0  0  0  0  0  0  0  0  0  0
   74.8184   45.6574   41.6319 C   0  0  0  0  0  0  0  0  0  0  0  0
   76.0051   44.6588   41.7134 C   0  0  0  0  0  0  0  0  0  0  0  0
   75.0741   46.9839   41.0053 C   0  0  0  0  0  0  0  0  0  0  0  0
   76.5135   47.2939   40.4703 C   0  0  0  0  0  0  0  0  0  0  0  0
   74.1391   48.0122   40.8444 C   0  0  0  0  0  0  0  0  0  0  0  0
   72.8323   47.6855   41.3728 C   0  0  0  0  0  0  0  0  0  0  0  0
   71.7196   48.6534   41.3182 N   0  0  0  0  0  0  0  0  0  0  0  0
   70.4918   48.3135   41.8460 C   0  0  0  0  0  0  0  0  0  0  0  0
   67.1104   47.5720   43.2514 H   0  0  0  0  0  0  0  0  0  0  0  0
   71.9953   49.9545   40.6930 C   0  0  0  0  0  0  0  0  0  0  0  0
   71.5253   50.1390   39.2581 C   0  0  0  0  0  0  0  0  0  0  0  0
   72.7143   50.3969   38.4342 O   0  0  0  0  0  0  0  0  0  0  0  0
   73.1818   51.1751   38.7759 H   0  0  0  0  0  0  0  0  0  0  0  0
   70.5418   51.2600   39.2496 C   0  0  0  0  0  0  0  0  0  0  0  0
   70.0675   51.6573   40.5331 O   0  0  0  0  0  0  0  0  0  0  0  0
   69.5060   50.9572   40.9012 H   0  0  0  0  0  0  0  0  0  0  0  0
   69.2821   51.0723   38.4842 C   0  0  0  0  0  0  0  0  0  0  0  0
   68.4965   50.0985   39.2031 O   0  0  0  0  0  0  0  0  0  0  0  0
   68.9669   49.2503   39.2171 H   0  0  0  0  0  0  0  0  0  0  0  0
   69.3907   50.4656   37.0242 C   0  0  0  0  0  0  0  0  0  0  0  0
   68.0944   50.5510   36.3898 O   0  0  0  0  0  0  0  0  0  0  0  0
   67.4457   50.0530   36.9115 H   0  0  0  0  0  0  0  0  0  0  0  0
  1  2  1  0  0  0
  1 18  2  0  0  0
  2  3  2  0  0  0
  2  4  1  0  0  0
  4  5  1  0  0  0
  5  6  2  0  0  0
  5  7  1  0  0  0
  7  8  2  0  0  0
  7 18  1  0  0  0
  8  9  1  0  0  0
  9 10  2  0  0  0
  9 16  1  0  0  0
 10 11  1  0  0  0
 11 12  1  0  0  0
 11 13  2  0  0  0
 13 14  1  0  0  0
 13 15  1  0  0  0
 15 16  2  0  0  0
 16 17  1  0  0  0
 17 18  1  0  0  0
 17 20  1  0  0  0
 20 21  1  0  0  0
 21 22  1  0  0  0
 21 24  1  0  0  0
 24 25  1  0  0  0
 24 27  1  0  0  0
 27 28  1  0  0  0
 27 30  1  0  0  0
 30 31  1  0  0  0
  4 19  1  0  0  0
 22 23  1  0  0  0
 25 26  1  0  0  0
 28 29  1  0  0  0
 31 32  1  0  0  0
M  END
> <minimizedAffinity>
-9.45553

$$$$
1KYV_RBF_A_501


 32 34  0  0  0  0  0  0  0  0999 V2000
   69.1925   48.0832   41.4588 N   0  0  0  0  0  0  0  0  0  0  0  0
   68.5171   49.1924   40.9666 C   0  0  0  0  0  0  0  0  0  0  0  0
   67.3207   49.2179   41.1024 O   0  0  0  0  0  0  0  0  0  0  0  0
   69.3009   50.1470   40.3659 N   0  0  0  0  0  0  0  0  0  0  0  0
   70.6950   50.1700   40.1722 C   0  0  0  0  0  0  0  0  0  0  0  0
   71.2461   51.1096   39.6091 O   0  0  0  0  0  0  0  0  0  0  0  0
   71.3872   48.9191   40.7159 C   0  0  0  0  0  0  0  0  0  0  0  0
   72.6965   48.8044   40.5872 N   0  0  0  0  0  0  0  0  0  0  0  0
   73.3522   47.6499   41.0790 C   0  0  0  0  0  0  0  0  0  0  0  0
   74.8029   47.6082   40.8612 C   0  0  0  0  0  0  0  0  0  0  0  0
   75.4464   46.4569   41.3333 C   0  0  0  0  0  0  0  0  0  0  0  0
   76.9753   46.2340   41.1754 C   0  0  0  0  0  0  0  0  0  0  0  0
   74.6588   45.3881   42.0077 C   0  0  0  0  0  0  0  0  0  0  0  0
   75.4110   44.1103   42.5135 C   0  0  0  0  0  0  0  0  0  0  0  0
   73.2791   45.4038   42.2388 C   0  0  0  0  0  0  0  0  0  0  0  0
   72.6278   46.5937   41.7351 C   0  0  0  0  0  0  0  0  0  0  0  0
   71.1696   46.7817   41.8627 N   0  0  0  0  0  0  0  0  0  0  0  0
   70.5807   47.9213   41.3568 C   0  0  0  0  0  0  0  0  0  0  0  0
   68.8162   50.9309   40.0197 H   0  0  0  0  0  0  0  0  0  0  0  0
   70.4142   45.7147   42.5341 C   0  0  0  0  0  0  0  0  0  0  0  0
   70.2851   45.8134   44.0465 C   0  0  0  0  0  0  0  0  0  0  0  0
   70.8274   44.5728   44.6173 O   0  0  0  0  0  0  0  0  0  0  0  0
   70.3489   43.8124   44.2516 H   0  0  0  0  0  0  0  0  0  0  0  0
   68.8434   46.0313   44.3597 C   0  0  0  0  0  0  0  0  0  0  0  0
   67.9631   45.9476   43.2424 O   0  0  0  0  0  0  0  0  0  0  0  0
   68.1134   46.7048   42.6550 H   0  0  0  0  0  0  0  0  0  0  0  0
   68.4556   47.3247   44.9796 C   0  0  0  0  0  0  0  0  0  0  0  0
   67.6420   48.0242   44.0147 O   0  0  0  0  0  0  0  0  0  0  0  0
   68.1714   48.2180   43.2253 H   0  0  0  0  0  0  0  0  0  0  0  0
   69.6110   48.3557   45.3167 C   0  0  0  0  0  0  0  0  0  0  0  0
   69.6618   49.3523   44.2706 O   0  0  0  0  0  0  0  0  0  0  0  0
   69.8372   48.9199   43.4202 H   0  0  0  0  0  0  0  0  0  0  0  0
  1  2  1  0  0  0
  1 18  2  0  0  0
  2  3  2  0  0  0
  2  4  1  0  0  0
  4  5  1  0  0  0
  5  6  2  0  0  0
  5  7  1  0  0  0
  7  8  2  0  0  0
  7 18  1  0  0  0
  8  9  1  0  0  0
  9 10  2  0  0  0
  9 16  1  0  0  0
 10 11  1  0  0  0
 11 12  1  0  0  0
 11 13  2  0  0  0
 13 14  1  0  0  0
 13 15  1  0  0  0
 15 16  2  0  0  0
 16 17  1  0  0  0
 17 18  1  0  0  0
 17 20  1  0  0  0
 20 21  1  0  0  0
 21 22  1  0  0  0
 21 24  1  0  0  0
 24 25  1  0  0  0
 24 27  1  0  0  0
 27 28  1  0  0  0
 27 30  1  0  0  0
 30 31  1  0  0  0
  4 19  1  0  0  0
 22 23  1  0  0  0
 25 26  1  0  0  0
 28 29  1  0  0  0
 31 32  1  0  0  0
M  END
> <minimizedAffinity>
-9.38309

$$$$
1KYV_RBF_A_501


 32 34  0  0  0  0  0  0  0  0999 V2000
   76.3613   49.7599   39.2932 N   0  0  0  0  0  0  0  0  0  0  0  0
   77.6683   49.6755   38.8311 C   0  0  0  0  0  0  0  0  0  0  0  0
   78.1221   50.6414   38.2729 O   0  0  0  0  0  0  0  0  0  0  0  0
   78.3037   48.4796   39.0609 N   0  0  0  0  0  0  0  0  0  0  0  0
   77.8259   47.3188   39.6980 C   0  0  0  0  0  0  0  0  0  0  0  0
   78.5304   46.3229   39.8225 O   0  0  0  0  0  0  0  0  0  0  0  0
   76.3781   47.4586   40.1711 C   0  0  0  0  0  0  0  0  0  0  0  0
   75.7997   46.4358   40.7740 N   0  0  0  0  0  0  0  0  0  0  0  0
   74.4579   46.5461   41.2124 C   0  0  0  0  0  0  0  0  0  0  0  0
   73.9009   45.3446   41.8448 C   0  0  0  0  0  0  0  0  0  0  0  0
   72.5677   45.4509   42.2617 C   0  0  0  0  0  0  0  0  0  0  0  0
   71.8101   44.2743   42.9355 C   0  0  0  0  0  0  0  0  0  0  0  0
   71.8232   46.7241   42.0563 C   0  0  0  0  0  0  0  0  0  0  0  0
   70.3308   46.8026   42.5262 C   0  0  0  0  0  0  0  0  0  0  0  0
   72.3295   47.8877   41.4671 C   0  0  0  0  0  0  0  0  0  0  0  0
   73.7032   47.7578   41.0316 C   0  0  0  0  0  0  0  0  0  0  0  0
   74.4042   48.8719   40.3642 N   0  0  0  0  0  0  0  0  0  0  0  0
   75.7086   48.7070   39.9483 C   0  0  0  0  0  0  0  0  0  0  0  0
   79.2299   48.4265   38.7315 H   0  0  0  0  0  0  0  0  0  0  0  0
   73.6499   50.1189   40.1751 C   0  0  0  0  0  0  0  0  0  0  0  0
   73.0753   50.3691   38.7891 C   0  0  0  0  0  0  0  0  0  0  0  0
   74.0066   51.2564   38.0790 O   0  0  0  0  0  0  0  0  0  0  0  0
   74.1241   52.0746   38.5866 H   0  0  0  0  0  0  0  0  0  0  0  0
   71.7153   50.9546   38.9670 C   0  0  0  0  0  0  0  0  0  0  0  0
   71.2188   50.9342   40.3024 O   0  0  0  0  0  0  0  0  0  0  0  0
   71.0323   50.0189   40.5640 H   0  0  0  0  0  0  0  0  0  0  0  0
   70.5951   50.3544   38.1973 C   0  0  0  0  0  0  0  0  0  0  0  0
   70.8587   50.6145   36.8026 O   0  0  0  0  0  0  0  0  0  0  0  0
   70.8506   51.5715   36.6450 H   0  0  0  0  0  0  0  0  0  0  0  0
   69.1437   50.9493   38.4239 C   0  0  0  0  0  0  0  0  0  0  0  0
   68.4821   50.1769   39.4516 O   0  0  0  0  0  0  0  0  0  0  0  0
   68.4237   49.2498   39.1720 H   0  0  0  0  0  0  0  0  0  0  0  0
  1  2  1  0  0  0
  1 18  2  0  0  0
  2  3  2  0  0  0
  2  4  1  0  0  0
  4  5  1  0  0  0
  5  6  2  0  0  0
  5  7  1  0  0  0
  7  8  2  0  0  0
  7 18  1  0  0  0
  8  9  1  0  0  0
  9 10  2  0  0  0
  9 16  1  0  0  0
 10 11  1  0  0  0
 11 12  1  0  0  0
 11 13  2  0  0  0
 13 14  1  0  0  0
 13 15  1  0  0  0
 15 16  2  0  0  0
 16 17  1  0  0  0
 17 18  1  0  0  0
 17 20  1  0  0  0
 20 21  1  0  0  0
 21 22  1  0  0  0
 21 24  1  0  0  0
 24 25  1  0  0  0
 24 27  1  0  0  0
 27 28  1  0  0  0
 27 30  1  0  0  0
 30 31  1  0  0  0
  4 19  1  0  0  0
 22 23  1  0  0  0
 25 26  1  0  0  0
 28 29  1  0  0  0
 31 32  1  0  0  0
M  END
> <minimizedAffinity>
-9.31705

$$$$
1KYV_RBF_A_501


 32 34  0  0  0  0  0  0  0  0999 V2000
   75.3069   45.7077   41.6628 N   0  0  0  0  0  0  0  0  0  0  0  0
   75.6156   44.5142   42.3024 C   0  0  0  0  0  0  0  0  0  0  0  0
   76.7442   44.1064   42.1997 O   0  0  0  0  0  0  0  0  0  0  0  0
   74.5819   43.9214   42.9854 N   0  0  0  0  0  0  0  0  0  0  0  0
   73.2475   44.3441   43.1349 C   0  0  0  0  0  0  0  0  0  0  0  0
   72.4396   43.6901   43.7856 O   0  0  0  0  0  0  0  0  0  0  0  0
   72.9565   45.6522   42.3975 C   0  0  0  0  0  0  0  0  0  0  0  0
   71.7364   46.1555   42.4431 N   0  0  0  0  0  0  0  0  0  0  0  0
   71.4484   47.3621   41.7606 C   0  0  0  0  0  0  0  0  0  0  0  0
   70.0573   47.8208   41.8514 C   0  0  0  0  0  0  0  0  0  0  0  0
   69.7712   49.0055   41.1607 C   0  0  0  0  0  0  0  0  0  0  0  0
   68.3494   49.6299   41.1326 C   0  0  0  0  0  0  0  0  0  0  0  0
   70.8489   49.7082   40.4109 C   0  0  0  0  0  0  0  0  0  0  0  0
   70.4894   51.0250   39.6420 C   0  0  0  0  0  0  0  0  0  0  0  0
   72.1842   49.3019   40.3147 C   0  0  0  0  0  0  0  0  0  0  0  0
   72.4606   48.0711   41.0234 C   0  0  0  0  0  0  0  0  0  0  0  0
   73.8082   47.4696   41.0181 N   0  0  0  0  0  0  0  0  0  0  0  0
   74.0313   46.2872   41.6916 C   0  0  0  0  0  0  0  0  0  0  0  0
   74.8074   43.0762   43.4369 H   0  0  0  0  0  0  0  0  0  0  0  0
   74.8557   48.1826   40.2737 C   0  0  0  0  0  0  0  0  0  0  0  0
   75.6558   49.2230   41.0424 C   0  0  0  0  0  0  0  0  0  0  0  0
   75.2920   50.5425   40.5081 O   0  0  0  0  0  0  0  0  0  0  0  0
   75.4700   50.5656   39.5549 H   0  0  0  0  0  0  0  0  0  0  0  0
   77.1001   48.8913   40.8744 C   0  0  0  0  0  0  0  0  0  0  0  0
   77.9968   49.9813   41.0695 O   0  0  0  0  0  0  0  0  0  0  0  0
   77.8953   50.6173   40.3441 H   0  0  0  0  0  0  0  0  0  0  0  0
   77.5386   48.3434   39.5648 C   0  0  0  0  0  0  0  0  0  0  0  0
   78.6487   47.4606   39.8309 O   0  0  0  0  0  0  0  0  0  0  0  0
   79.3851   47.9704   40.2032 H   0  0  0  0  0  0  0  0  0  0  0  0
   78.1145   49.3618   38.4959 C   0  0  0  0  0  0  0  0  0  0  0  0
   77.0423   50.2255   38.0547 O   0  0  0  0  0  0  0  0  0  0  0  0
   76.3370   49.6894   37.6596 H   0  0  0  0  0  0  0  0  0  0  0  0
  1  2  1  0  0  0
  1 18  2  0  0  0
  2  3  2  0  0  0
  2  4  1  0  0  0
  4  5  1  0  0  0
  5  6  2  0  0  0
  5  7  1  0  0  0
  7  8  2  0  0  0
  7 18  1  0  0  0
  8  9  1  0  0  0
  9 10  2  0  0  0
  9 16  1  0  0  0
 10 11  1  0  0  0
 11 12  1  0  0  0
 11 13  2  0  0  0
 13 14  1  0  0  0
 13 15  1  0  0  0
 15 16  2  0  0  0
 16 17  1  0  0  0
 17 18  1  0  0  0
 17 20  1  0  0  0
 20 21  1  0  0  0
 21 22  1  0  0  0
 21 24  1  0  0  0
 24 25  1  0  0  0
 24 27  1  0  0  0
 27 28  1  0  0  0
 27 30  1  0  0  0
 30 31  1  0  0  0
  4 19  1  0  0  0
 22 23  1  0  0  0
 25 26  1  0  0  0
 28 29  1  0  0  0
 31 32  1  0  0  0
M  END
> <minimizedAffinity>
-9.19134

$$$$
1KYV_RBF_A_501


 32 34  0  0  0  0  0  0  0  0999 V2000
   71.1977   50.2047   40.0748 N   0  0  0  0  0  0  0  0  0  0  0  0
   71.5363   51.3105   39.3058 C   0  0  0  0  0  0  0  0  0  0  0  0
   70.6567   52.0872   39.0345 O   0  0  0  0  0  0  0  0  0  0  0  0
   72.8551   51.3920   38.9305 N   0  0  0  0  0  0  0  0  0  0  0  0
   73.9220   50.5170   39.2094 C   0  0  0  0  0  0  0  0  0  0  0  0
   75.0542   50.7375   38.7934 O   0  0  0  0  0  0  0  0  0  0  0  0
   73.4919   49.3087   40.0429 C   0  0  0  0  0  0  0  0  0  0  0  0
   74.3935   48.3991   40.3650 N   0  0  0  0  0  0  0  0  0  0  0  0
   74.0109   47.2711   41.1304 C   0  0  0  0  0  0  0  0  0  0  0  0
   75.0814   46.3069   41.4102 C   0  0  0  0  0  0  0  0  0  0  0  0
   74.6961   45.1833   42.1528 C   0  0  0  0  0  0  0  0  0  0  0  0
   75.6921   44.0523   42.5283 C   0  0  0  0  0  0  0  0  0  0  0  0
   73.2845   45.0384   42.6045 C   0  0  0  0  0  0  0  0  0  0  0  0
   72.8882   43.7636   43.4242 C   0  0  0  0  0  0  0  0  0  0  0  0
   72.2459   45.9440   42.3627 C   0  0  0  0  0  0  0  0  0  0  0  0
   72.6573   47.0927   41.5850 C   0  0  0  0  0  0  0  0  0  0  0  0
   71.6959   48.1467   41.2070 N   0  0  0  0  0  0  0  0  0  0  0  0
   72.1202   49.2195   40.4516 C   0  0  0  0  0  0  0  0  0  0  0  0
   73.0887   52.1783   38.3861 H   0  0  0  0  0  0  0  0  0  0  0  0
   70.3096   47.9830   41.6665 C   0  0  0  0  0  0  0  0  0  0  0  0
   69.9766   48.5254   43.0480 C   0  0  0  0  0  0  0  0  0  0  0  0
   69.4852   47.4013   43.8566 O   0  0  0  0  0  0  0  0  0  0  0  0
   68.7181   46.9996   43.4194 H   0  0  0  0  0  0  0  0  0  0  0  0
   68.9729   49.6143   42.8718 C   0  0  0  0  0  0  0  0  0  0  0  0
   69.4457   50.7651   42.1773 O   0  0  0  0  0  0  0  0  0  0  0  0
   70.0915   51.2332   42.7294 H   0  0  0  0  0  0  0  0  0  0  0  0
   68.3649   50.2021   44.0934 C   0  0  0  0  0  0  0  0  0  0  0  0
   67.8827   51.5132   43.7318 O   0  0  0  0  0  0  0  0  0  0  0  0
   68.6312   52.0726   43.4717 H   0  0  0  0  0  0  0  0  0  0  0  0
   69.3166   50.4783   45.3301 C   0  0  0  0  0  0  0  0  0  0  0  0
   70.2689   51.5020   44.9618 O   0  0  0  0  0  0  0  0  0  0  0  0
   70.7890   51.2009   44.2003 H   0  0  0  0  0  0  0  0  0  0  0  0
  1  2  1  0  0  0
  1 18  2  0  0  0
  2  3  2  0  0  0
  2  4  1  0  0  0
  4  5  1  0  0  0
  5  6  2  0  0  0
  5  7  1  0  0  0
  7  8  2  0  0  0
  7 18  1  0  0  0
  8  9  1  0  0  0
  9 10  2  0  0  0
  9 16  1  0  0  0
 10 11  1  0  0  0
 11 12  1  0  0  0
 11 13  2  0  0  0
 13 14  1  0  0  0
 13 15  1  0  0  0
 15 16  2  0  0  0
 16 17  1  0  0  0
 17 18  1  0  0  0
 17 20  1  0  0  0
 20 21  1  0  0  0
 21 22  1  0  0  0
 21 24  1  0  0  0
 24 25  1  0  0  0
 24 27  1  0  0  0
 27 28  1  0  0  0
 27 30  1  0  0  0
 30 31  1  0  0  0
  4 19  1  0  0  0
 22 23  1  0  0  0
 25 26  1  0  0  0
 28 29  1  0  0  0
 31 32  1  0  0  0
M  END
> <minimizedAffinity>
-9.16427

$$$$
1KYV_RBF_A_501


 32 34  0  0  0  0  0  0  0  0999 V2000
   70.2699   47.7978   41.8472 N   0  0  0  0  0  0  0  0  0  0  0  0
   69.3867   46.8524   42.3522 C   0  0  0  0  0  0  0  0  0  0  0  0
   68.2497   47.2016   42.5412 O   0  0  0  0  0  0  0  0  0  0  0  0
   69.9190   45.6084   42.5884 N   0  0  0  0  0  0  0  0  0  0  0  0
   71.2340   45.1448   42.3950 C   0  0  0  0  0  0  0  0  0  0  0  0
   71.5494   43.9898   42.6600 O   0  0  0  0  0  0  0  0  0  0  0  0
   72.1686   46.2287   41.8551 C   0  0  0  0  0  0  0  0  0  0  0  0
   73.4374   45.9317   41.6407 N   0  0  0  0  0  0  0  0  0  0  0  0
   74.3176   46.9251   41.1474 C   0  0  0  0  0  0  0  0  0  0  0  0
   75.7112   46.5005   40.9703 C   0  0  0  0  0  0  0  0  0  0  0  0
   76.5833   47.4902   40.4987 C   0  0  0  0  0  0  0  0  0  0  0  0
   78.0960   47.2250   40.2674 C   0  0  0  0  0  0  0  0  0  0  0  0
   76.0696   48.8574   40.2084 C   0  0  0  0  0  0  0  0  0  0  0  0
   77.0763   49.9410   39.6920 C   0  0  0  0  0  0  0  0  0  0  0  0
   74.7470   49.2886   40.3570 C   0  0  0  0  0  0  0  0  0  0  0  0
   73.8617   48.2584   40.8558 C   0  0  0  0  0  0  0  0  0  0  0  0
   72.4320   48.5295   41.1017 N   0  0  0  0  0  0  0  0  0  0  0  0
   71.6212   47.5279   41.5924 C   0  0  0  0  0  0  0  0  0  0  0  0
   69.2877   44.9428   42.9457 H   0  0  0  0  0  0  0  0  0  0  0  0
   71.9479   49.8851   40.8052 C   0  0  0  0  0  0  0  0  0  0  0  0
   71.7311   50.2305   39.3398 C   0  0  0  0  0  0  0  0  0  0  0  0
   72.6351   51.3408   39.0099 O   0  0  0  0  0  0  0  0  0  0  0  0
   72.4558   52.0899   39.5995 H   0  0  0  0  0  0  0  0  0  0  0  0
   70.2885   50.5674   39.1677 C   0  0  0  0  0  0  0  0  0  0  0  0
   69.3978   49.8693   40.0334 O   0  0  0  0  0  0  0  0  0  0  0  0
   69.3721   48.9323   39.7837 H   0  0  0  0  0  0  0  0  0  0  0  0
   69.6787   50.3459   37.8310 C   0  0  0  0  0  0  0  0  0  0  0  0
   70.7185   50.5658   36.8549 O   0  0  0  0  0  0  0  0  0  0  0  0
   71.0139   51.4887   36.8994 H   0  0  0  0  0  0  0  0  0  0  0  0
   68.5216   51.3291   37.3773 C   0  0  0  0  0  0  0  0  0  0  0  0
   67.8064   50.7251   36.2755 O   0  0  0  0  0  0  0  0  0  0  0  0
   68.4189   50.5675   35.5400 H   0  0  0  0  0  0  0  0  0  0  0  0
  1  2  1  0  0  0
  1 18  2  0  0  0
  2  3  2  0  0  0
  2  4  1  0  0  0
  4  5  1  0  0  0
  5  6  2  0  0  0
  5  7  1  0  0  0
  7  8  2  0  0  0
  7 18  1  0  0  0
  8  9  1  0  0  0
  9 10  2  0  0  0
  9 16  1  0  0  0
 10 11  1  0  0  0
 11 12  1  0  0  0
 11 13  2  0  0  0
 13 14  1  0  0  0
 13 15  1  0  0  0
 15 16  2  0  0  0
 16 17  1  0  0  0
 17 18  1  0  0  0
 17 20  1  0  0  0
 20 21  1  0  0  0
 21 22  1  0  0  0
 21 24  1  0  0  0
 24 25  1  0  0  0
 24 27  1  0  0  0
 27 28  1  0  0  0
 27 30  1  0  0  0
 30 31  1  0  0  0
  4 19  1  0  0  0
 22 23  1  0  0  0
 25 26  1  0  0  0
 28 29  1  0  0  0
 31 32  1  0  0  0
M  END
> <minimizedAffinity>
-9.11161

$$$$
1KYV_RBF_A_501


 32 34  0  0  0  0  0  0  0  0999 V2000
   70.5027   47.0744   42.5791 N   0  0  0  0  0  0  0  0  0  0  0  0
   69.8254   46.0556   43.2364 C   0  0  0  0  0  0  0  0  0  0  0  0
   68.7066   46.2892   43.6164 O   0  0  0  0  0  0  0  0  0  0  0  0
   70.5204   44.8804   43.3867 N   0  0  0  0  0  0  0  0  0  0  0  0
   71.8250   44.5515   42.9725 C   0  0  0  0  0  0  0  0  0  0  0  0
   72.3029   43.4430   43.1879 O   0  0  0  0  0  0  0  0  0  0  0  0
   72.5318   45.7124   42.2709 C   0  0  0  0  0  0  0  0  0  0  0  0
   73.7696   45.5438   41.8426 N   0  0  0  0  0  0  0  0  0  0  0  0
   74.4409   46.6102   41.1970 C   0  0  0  0  0  0  0  0  0  0  0  0
   75.8210   46.3287   40.7850 C   0  0  0  0  0  0  0  0  0  0  0  0
   76.4885   47.3912   40.1621 C   0  0  0  0  0  0  0  0  0  0  0  0
   77.9589   47.2792   39.6748 C   0  0  0  0  0  0  0  0  0  0  0  0
   75.7892   48.6894   39.9543 C   0  0  0  0  0  0  0  0  0  0  0  0
   76.5708   49.8582   39.2633 C   0  0  0  0  0  0  0  0  0  0  0  0
   74.4730   48.9841   40.3260 C   0  0  0  0  0  0  0  0  0  0  0  0
   73.8017   47.8807   40.9782 C   0  0  0  0  0  0  0  0  0  0  0  0
   72.4144   48.0077   41.4654 N   0  0  0  0  0  0  0  0  0  0  0  0
   71.8115   46.9401   42.0966 C   0  0  0  0  0  0  0  0  0  0  0  0
   70.0345   44.1622   43.8529 H   0  0  0  0  0  0  0  0  0  0  0  0
   71.7443   49.2972   41.2466 C   0  0  0  0  0  0  0  0  0  0  0  0
   70.7115   49.3527   40.1312 C   0  0  0  0  0  0  0  0  0  0  0  0
   71.3374   50.0235   38.9835 O   0  0  0  0  0  0  0  0  0  0  0  0
   71.6438   50.9040   39.2514 H   0  0  0  0  0  0  0  0  0  0  0  0
   69.5177   50.0720   40.6616 C   0  0  0  0  0  0  0  0  0  0  0  0
   69.8074   51.1872   41.4999 O   0  0  0  0  0  0  0  0  0  0  0  0
   70.1871   50.8735   42.3355 H   0  0  0  0  0  0  0  0  0  0  0  0
   68.5473   49.2982   41.4784 C   0  0  0  0  0  0  0  0  0  0  0  0
   67.2760   49.3720   40.7997 O   0  0  0  0  0  0  0  0  0  0  0  0
   66.9764   50.2942   40.7738 H   0  0  0  0  0  0  0  0  0  0  0  0
   68.2268   49.8263   42.9378 C   0  0  0  0  0  0  0  0  0  0  0  0
   69.2718   49.3798   43.8316 O   0  0  0  0  0  0  0  0  0  0  0  0
   69.3086   48.4105   43.8274 H   0  0  0  0  0  0  0  0  0  0  0  0
  1  2  1  0  0  0
  1 18  2  0  0  0
  2  3  2  0  0  0
  2  4  1  0  0  0
  4  5  1  0  0  0
  5  6  2  0  0  0
  5  7  1  0  0  0
  7  8  2  0  0  0
  7 18  1  0  0  0
  8  9  1  0  0  0
  9 10  2  0  0  0
  9 16  1  0  0  0
 10 11  1  0  0  0
 11 12  1  0  0  0
 11 13  2  0  0  0
 13 14  1  0  0  0
 13 15  1  0  0  0
 15 16  2  0  0  0
 16 17  1  0  0  0
 17 18  1  0  0  0
 17 20  1  0  0  0
 20 21  1  0  0  0
 21 22  1  0  0  0
 21 24  1  0  0  0
 24 25  1  0  0  0
 24 27  1  0  0  0
 27 28  1  0  0  0
 27 30  1  0  0  0
 30 31  1  0  0  0
  4 19  1  0  0  0
 22 23  1  0  0  0
 25 26  1  0  0  0
 28 29  1  0  0  0
 31 32  1  0  0  0
M  END
> <minimizedAffinity>
-9.07173

$$$$
1KYV_RBF_A_501


 32 34  0  0  0  0  0  0  0  0999 V2000
   69.0955   48.2300   41.4308 N   0  0  0  0  0  0  0  0  0  0  0  0
   68.4865   49.3446   40.8689 C   0  0  0  0  0  0  0  0  0  0  0  0
   67.2922   49.4432   40.9893 O   0  0  0  0  0  0  0  0  0  0  0  0
   69.3268   50.2191   40.2243 N   0  0  0  0  0  0  0  0  0  0  0  0
   70.7217   50.1548   40.0456 C   0  0  0  0  0  0  0  0  0  0  0  0
   71.3285   51.0293   39.4367 O   0  0  0  0  0  0  0  0  0  0  0  0
   71.3391   48.9010   40.6672 C   0  0  0  0  0  0  0  0  0  0  0  0
   72.6412   48.7078   40.5603 N   0  0  0  0  0  0  0  0  0  0  0  0
   73.2280   47.5491   41.1241 C   0  0  0  0  0  0  0  0  0  0  0  0
   74.6760   47.4159   40.9257 C   0  0  0  0  0  0  0  0  0  0  0  0
   75.2509   46.2600   41.4695 C   0  0  0  0  0  0  0  0  0  0  0  0
   76.7665   45.9452   41.3420 C   0  0  0  0  0  0  0  0  0  0  0  0
   74.3999   45.2760   42.1940 C   0  0  0  0  0  0  0  0  0  0  0  0
   75.0761   43.9900   42.7799 C   0  0  0  0  0  0  0  0  0  0  0  0
   73.0212   45.3803   42.4080 C   0  0  0  0  0  0  0  0  0  0  0  0
   72.4409   46.5733   41.8304 C   0  0  0  0  0  0  0  0  0  0  0  0
   70.9943   46.8476   41.9304 N   0  0  0  0  0  0  0  0  0  0  0  0
   70.4735   47.9870   41.3541 C   0  0  0  0  0  0  0  0  0  0  0  0
   68.8891   51.0073   39.8288 H   0  0  0  0  0  0  0  0  0  0  0  0
   70.1755   45.8636   42.6522 C   0  0  0  0  0  0  0  0  0  0  0  0
   69.7942   46.2073   44.0841 C   0  0  0  0  0  0  0  0  0  0  0  0
   69.9092   47.6645   44.2335 O   0  0  0  0  0  0  0  0  0  0  0  0
   70.8118   47.9420   44.0117 H   0  0  0  0  0  0  0  0  0  0  0  0
   70.7044   45.4437   44.9856 C   0  0  0  0  0  0  0  0  0  0  0  0
   70.6189   44.0261   44.8704 O   0  0  0  0  0  0  0  0  0  0  0  0
   69.7643   43.7246   45.2164 H   0  0  0  0  0  0  0  0  0  0  0  0
   70.5702   45.6570   46.4499 C   0  0  0  0  0  0  0  0  0  0  0  0
   71.1050   44.4821   47.0948 O   0  0  0  0  0  0  0  0  0  0  0  0
   70.5696   43.7096   46.8550 H   0  0  0  0  0  0  0  0  0  0  0  0
   69.1067   45.7806   47.0451 C   0  0  0  0  0  0  0  0  0  0  0  0
   68.3215   44.6592   46.5801 O   0  0  0  0  0  0  0  0  0  0  0  0
   68.2899   44.6665   45.6106 H   0  0  0  0  0  0  0  0  0  0  0  0
  1  2  1  0  0  0
  1 18  2  0  0  0
  2  3  2  0  0  0
  2  4  1  0  0  0
  4  5  1  0  0  0
  5  6  2  0  0  0
  5  7  1  0  0  0
  7  8  2  0  0  0
  7 18  1  0  0  0
  8  9  1  0  0  0
  9 10  2  0  0  0
  9 16  1  0  0  0
 10 11  1  0  0  0
 11 12  1  0  0  0
 11 13  2  0  0  0
 13 14  1  0  0  0
 13 15  1  0  0  0
 15 16  2  0  0  0
 16 17  1  0  0  0
 17 18  1  0  0  0
 17 20  1  0  0  0
 20 21  1  0  0  0
 21 22  1  0  0  0
 21 24  1  0  0  0
 24 25  1  0  0  0
 24 27  1  0  0  0
 27 28  1  0  0  0
 27 30  1  0  0  0
 30 31  1  0  0  0
  4 19  1  0  0  0
 22 23  1  0  0  0
 25 26  1  0  0  0
 28 29  1  0  0  0
 31 32  1  0  0  0
M  END
> <minimizedAffinity>
-8.67989

$$$$
