3IW5_DF3_A_362


 41 45  0  0  0  0  0  0  0  0999 V2000
   16.9357    3.4651  -23.2094 C   0  0  0  0  0  0  0  0  0  0  0  0
   16.9131    3.7886  -21.8600 C   0  0  0  0  0  0  0  0  0  0  0  0
   17.5442    2.2926  -23.6262 C   0  0  0  0  0  0  0  0  0  0  0  0
   17.5142    2.9205  -20.9375 C   0  0  0  0  0  0  0  0  0  0  0  0
   19.1861   -0.1584  -21.6063 C   0  0  0  0  0  0  0  0  0  0  0  0
   18.8132    0.2259  -22.8101 C   0  0  0  0  0  0  0  0  0  0  0  0
   18.1444    1.4365  -22.7158 C   0  0  0  0  0  0  0  0  0  0  0  0
   18.1390    1.7494  -21.3737 C   0  0  0  0  0  0  0  0  0  0  0  0
   18.7832    0.7631  -20.7557 N   0  0  0  0  0  0  0  0  0  0  0  0
   19.0566    0.6759  -19.3177 C   0  0  0  0  0  0  0  0  0  0  0  0
   20.4600    1.2978  -19.0955 C   0  0  0  0  0  0  0  0  0  0  0  0
   21.7060   -1.0848  -17.9512 O   0  0  0  0  0  0  0  0  0  0  0  0
   21.3785    0.3529  -19.7315 N   0  0  0  0  0  0  0  0  0  0  0  0
   21.9085   -0.7406  -19.1182 C   0  0  0  0  0  0  0  0  0  0  0  0
   21.6307    0.5196  -20.6684 H   0  0  0  0  0  0  0  0  0  0  0  0
   24.6705   -1.5799  -21.6074 C   0  0  0  0  0  0  0  0  0  0  0  0
   23.8109   -0.8499  -20.7917 C   0  0  0  0  0  0  0  0  0  0  0  0
   24.6056   -2.9724  -21.6218 C   0  0  0  0  0  0  0  0  0  0  0  0
   22.8021   -2.9383  -20.0292 C   0  0  0  0  0  0  0  0  0  0  0  0
   22.8882   -1.5264  -19.9932 C   0  0  0  0  0  0  0  0  0  0  0  0
   23.6741   -3.6530  -20.8380 C   0  0  0  0  0  0  0  0  0  0  0  0
   23.7451   -5.7285  -19.7387 F   0  0  0  0  0  0  0  0  0  0  0  0
   22.5476   -5.6417  -21.3675 F   0  0  0  0  0  0  0  0  0  0  0  0
   24.6192   -5.5896  -21.7286 F   0  0  0  0  0  0  0  0  0  0  0  0
   23.6516   -5.1795  -20.9139 C   0  0  0  0  0  0  0  0  0  0  0  0
   19.1801   -0.7180  -24.2535 S   0  0  0  0  0  0  0  0  0  0  0  0
   20.8715   -0.1730  -24.6263 C   0  0  0  0  0  0  0  0  0  0  0  0
   20.2489    1.7337  -25.8383 O   0  0  0  0  0  0  0  0  0  0  0  0
   21.4972    2.0292  -23.9942 N   0  0  0  0  0  0  0  0  0  0  0  0
   20.8491    1.2997  -24.8746 C   0  0  0  0  0  0  0  0  0  0  0  0
   22.0034    1.6083  -23.2622 H   0  0  0  0  0  0  0  0  0  0  0  0
   22.1364    3.9272  -25.1453 C   0  0  0  0  0  0  0  0  0  0  0  0
   22.0795    5.2965  -25.3514 C   0  0  0  0  0  0  0  0  0  0  0  0
   20.6239    4.0644  -23.3068 C   0  0  0  0  0  0  0  0  0  0  0  0
   20.5770    8.0878  -23.7709 C   0  0  0  0  0  0  0  0  0  0  0  0
   19.3451    7.2881  -23.4170 C   0  0  0  0  0  0  0  0  0  0  0  0
   21.2742    7.3775  -24.7843 O   0  0  0  0  0  0  0  0  0  0  0  0
   19.7956    6.1417  -22.6929 O   0  0  0  0  0  0  0  0  0  0  0  0
   21.4508    3.3164  -24.1173 C   0  0  0  0  0  0  0  0  0  0  0  0
   21.2951    6.0491  -24.5305 C   0  0  0  0  0  0  0  0  0  0  0  0
   20.5677    5.4281  -23.5189 C   0  0  0  0  0  0  0  0  0  0  0  0
 28 30  2  0  0  0
 12 14  2  0  0  0
 25 22  1  0  0  0
 25 23  1  0  0  0
 24 25  1  0  0  0
 16 17  2  0  0  0
 16 18  1  0  0  0
  3  1  2  0  0  0
  1  2  1  0  0  0
  2  4  2  0  0  0
 17 20  1  0  0  0
 18 21  2  0  0  0
 33 32  2  0  0  0
 32 39  1  0  0  0
 33 40  1  0  0  0
  3  7  1  0  0  0
  8  4  1  0  0  0
 39 34  2  0  0  0
 41 34  1  0  0  0
 20 19  2  0  0  0
 21 19  1  0  0  0
  6  5  2  0  0  0
  5  9  1  0  0  0
 13 11  1  0  0  0
 10 11  1  0  0  0
 37 35  1  0  0  0
 35 36  1  0  0  0
 36 38  1  0  0  0
  9 10  1  0  0  0
 30 27  1  0  0  0
 27 26  1  0  0  0
 14 13  1  0  0  0
 30 29  1  0  0  0
 39 29  1  0  0  0
 37 40  1  0  0  0
 41 38  1  0  0  0
 26  6  1  0  0  0
 20 14  1  0  0  0
 21 25  1  0  0  0
 40 41  2  0  0  0
  6  7  1  0  0  0
  7  8  2  0  0  0
  8  9  1  0  0  0
 13 15  1  0  0  0
 29 31  1  0  0  0
M  END
> <minimizedAffinity>
-11.66452

$$$$
3IW5_DF3_A_362


 41 45  0  0  0  0  0  0  0  0999 V2000
   18.8141    0.4239  -24.5241 C   0  0  0  0  0  0  0  0  0  0  0  0
   19.3917   -0.5662  -23.7418 C   0  0  0  0  0  0  0  0  0  0  0  0
   18.2447    1.5334  -23.9209 C   0  0  0  0  0  0  0  0  0  0  0  0
   19.3845   -0.4280  -22.3466 C   0  0  0  0  0  0  0  0  0  0  0  0
   18.0132    2.2458  -20.4249 C   0  0  0  0  0  0  0  0  0  0  0  0
   17.7571    2.6273  -21.6597 C   0  0  0  0  0  0  0  0  0  0  0  0
   18.2313    1.6682  -22.5412 C   0  0  0  0  0  0  0  0  0  0  0  0
   18.7918    0.6883  -21.7509 C   0  0  0  0  0  0  0  0  0  0  0  0
   18.6266    1.0820  -20.4909 N   0  0  0  0  0  0  0  0  0  0  0  0
   19.0357    0.3424  -19.2927 C   0  0  0  0  0  0  0  0  0  0  0  0
   20.4379    0.8767  -18.9000 C   0  0  0  0  0  0  0  0  0  0  0  0
   22.2762    0.9459  -21.1705 O   0  0  0  0  0  0  0  0  0  0  0  0
   21.3614   -0.1613  -19.3591 N   0  0  0  0  0  0  0  0  0  0  0  0
   22.1903   -0.0381  -20.4316 C   0  0  0  0  0  0  0  0  0  0  0  0
   21.3848   -1.0080  -18.8572 H   0  0  0  0  0  0  0  0  0  0  0  0
   24.9535   -2.3534  -21.6702 C   0  0  0  0  0  0  0  0  0  0  0  0
   24.2398   -1.1950  -21.3764 C   0  0  0  0  0  0  0  0  0  0  0  0
   24.4378   -3.5998  -21.3183 C   0  0  0  0  0  0  0  0  0  0  0  0
   22.4708   -2.5637  -20.3979 C   0  0  0  0  0  0  0  0  0  0  0  0
   23.0081   -1.2973  -20.7291 C   0  0  0  0  0  0  0  0  0  0  0  0
   23.1995   -3.7088  -20.6859 C   0  0  0  0  0  0  0  0  0  0  0  0
   21.6331   -5.0714  -19.5853 F   0  0  0  0  0  0  0  0  0  0  0  0
   22.2967   -5.7644  -21.3669 F   0  0  0  0  0  0  0  0  0  0  0  0
   23.6753   -5.8033  -19.7785 F   0  0  0  0  0  0  0  0  0  0  0  0
   22.6909   -5.1084  -20.3410 C   0  0  0  0  0  0  0  0  0  0  0  0
   16.9148    4.1333  -22.0223 S   0  0  0  0  0  0  0  0  0  0  0  0
   18.2362    5.3565  -21.7883 C   0  0  0  0  0  0  0  0  0  0  0  0
   18.5064    5.0985  -24.1018 O   0  0  0  0  0  0  0  0  0  0  0  0
   20.2263    5.9550  -22.9381 N   0  0  0  0  0  0  0  0  0  0  0  0
   19.0153    5.4588  -23.0586 C   0  0  0  0  0  0  0  0  0  0  0  0
   20.5946    6.1829  -22.0539 H   0  0  0  0  0  0  0  0  0  0  0  0
   21.4801    5.0497  -24.6540 C   0  0  0  0  0  0  0  0  0  0  0  0
   22.1903    5.1822  -25.8368 C   0  0  0  0  0  0  0  0  0  0  0  0
   20.9988    7.3845  -24.5926 C   0  0  0  0  0  0  0  0  0  0  0  0
   23.2177    7.8317  -27.9513 C   0  0  0  0  0  0  0  0  0  0  0  0
   21.9340    8.5904  -27.7088 C   0  0  0  0  0  0  0  0  0  0  0  0
   23.0038    6.4857  -27.5514 O   0  0  0  0  0  0  0  0  0  0  0  0
   21.8072    8.7380  -26.2933 O   0  0  0  0  0  0  0  0  0  0  0  0
   20.9207    6.1353  -24.0150 C   0  0  0  0  0  0  0  0  0  0  0  0
   22.3058    6.4196  -26.3947 C   0  0  0  0  0  0  0  0  0  0  0  0
   21.7042    7.5104  -25.7734 C   0  0  0  0  0  0  0  0  0  0  0  0
 28 30  2  0  0  0
 12 14  2  0  0  0
 25 22  1  0  0  0
 25 23  1  0  0  0
 24 25  1  0  0  0
 16 17  2  0  0  0
 16 18  1  0  0  0
  3  1  2  0  0  0
  1  2  1  0  0  0
  2  4  2  0  0  0
 17 20  1  0  0  0
 18 21  2  0  0  0
 33 32  2  0  0  0
 32 39  1  0  0  0
 33 40  1  0  0  0
  3  7  1  0  0  0
  8  4  1  0  0  0
 39 34  2  0  0  0
 41 34  1  0  0  0
 20 19  2  0  0  0
 21 19  1  0  0  0
  6  5  2  0  0  0
  5  9  1  0  0  0
 13 11  1  0  0  0
 10 11  1  0  0  0
 37 35  1  0  0  0
 35 36  1  0  0  0
 36 38  1  0  0  0
  9 10  1  0  0  0
 30 27  1  0  0  0
 27 26  1  0  0  0
 14 13  1  0  0  0
 30 29  1  0  0  0
 39 29  1  0  0  0
 37 40  1  0  0  0
 41 38  1  0  0  0
 26  6  1  0  0  0
 20 14  1  0  0  0
 21 25  1  0  0  0
 40 41  2  0  0  0
  6  7  1  0  0  0
  7  8  2  0  0  0
  8  9  1  0  0  0
 13 15  1  0  0  0
 29 31  1  0  0  0
M  END
> <minimizedAffinity>
-10.33362

$$$$
3IW5_DF3_A_362


 41 45  0  0  0  0  0  0  0  0999 V2000
   17.0018    4.3907  -22.6187 C   0  0  0  0  0  0  0  0  0  0  0  0
   16.7626    4.1168  -21.2793 C   0  0  0  0  0  0  0  0  0  0  0  0
   17.7401    3.5013  -23.3820 C   0  0  0  0  0  0  0  0  0  0  0  0
   17.2795    2.9406  -20.7178 C   0  0  0  0  0  0  0  0  0  0  0  0
   19.2296    0.4262  -22.3292 C   0  0  0  0  0  0  0  0  0  0  0  0
   19.0107    1.2814  -23.3073 C   0  0  0  0  0  0  0  0  0  0  0  0
   18.2571    2.3411  -22.8265 C   0  0  0  0  0  0  0  0  0  0  0  0
   18.0367    2.0607  -21.4954 C   0  0  0  0  0  0  0  0  0  0  0  0
   18.6479    0.9052  -21.2489 N   0  0  0  0  0  0  0  0  0  0  0  0
   18.7152    0.2211  -19.9537 C   0  0  0  0  0  0  0  0  0  0  0  0
   19.9925    0.7415  -19.2441 C   0  0  0  0  0  0  0  0  0  0  0  0
   22.2853    1.0229  -21.0337 O   0  0  0  0  0  0  0  0  0  0  0  0
   21.0184   -0.2477  -19.5763 N   0  0  0  0  0  0  0  0  0  0  0  0
   22.0609   -0.0247  -20.4224 C   0  0  0  0  0  0  0  0  0  0  0  0
   20.9497   -1.1365  -19.1586 H   0  0  0  0  0  0  0  0  0  0  0  0
   24.8815   -2.2792  -21.6433 C   0  0  0  0  0  0  0  0  0  0  0  0
   24.1011   -1.1472  -21.4269 C   0  0  0  0  0  0  0  0  0  0  0  0
   24.5149   -3.4993  -21.0772 C   0  0  0  0  0  0  0  0  0  0  0  0
   22.5646   -2.4933  -20.0900 C   0  0  0  0  0  0  0  0  0  0  0  0
   22.9531   -1.2491  -20.6407 C   0  0  0  0  0  0  0  0  0  0  0  0
   23.3594   -3.6103  -20.3041 C   0  0  0  0  0  0  0  0  0  0  0  0
   23.7508   -5.9262  -20.2307 F   0  0  0  0  0  0  0  0  0  0  0  0
   23.2433   -5.0683  -18.4696 F   0  0  0  0  0  0  0  0  0  0  0  0
   21.7167   -5.2173  -19.9091 F   0  0  0  0  0  0  0  0  0  0  0  0
   23.0126   -4.9820  -19.7256 C   0  0  0  0  0  0  0  0  0  0  0  0
   19.6442    1.0314  -24.9337 S   0  0  0  0  0  0  0  0  0  0  0  0
   21.4200    1.3136  -24.6814 C   0  0  0  0  0  0  0  0  0  0  0  0
   22.4476    3.1065  -23.5763 O   0  0  0  0  0  0  0  0  0  0  0  0
   20.9029    3.5868  -25.1349 N   0  0  0  0  0  0  0  0  0  0  0  0
   21.6337    2.7673  -24.4128 C   0  0  0  0  0  0  0  0  0  0  0  0
   20.2266    3.2430  -25.7624 H   0  0  0  0  0  0  0  0  0  0  0  0
   21.8484    5.5373  -25.9333 C   0  0  0  0  0  0  0  0  0  0  0  0
   22.0455    6.9072  -25.8601 C   0  0  0  0  0  0  0  0  0  0  0  0
   20.4589    5.5571  -23.9953 C   0  0  0  0  0  0  0  0  0  0  0  0
   21.1614    9.5311  -23.6510 C   0  0  0  0  0  0  0  0  0  0  0  0
   19.8137    8.9086  -23.3703 C   0  0  0  0  0  0  0  0  0  0  0  0
   21.6725    8.9344  -24.8342 O   0  0  0  0  0  0  0  0  0  0  0  0
   20.0644    7.5749  -22.9228 O   0  0  0  0  0  0  0  0  0  0  0  0
   21.0978    4.8586  -24.9975 C   0  0  0  0  0  0  0  0  0  0  0  0
   21.4496    7.6004  -24.8501 C   0  0  0  0  0  0  0  0  0  0  0  0
   20.6555    6.9226  -23.9292 C   0  0  0  0  0  0  0  0  0  0  0  0
 28 30  2  0  0  0
 12 14  2  0  0  0
 25 22  1  0  0  0
 25 23  1  0  0  0
 24 25  1  0  0  0
 16 17  2  0  0  0
 16 18  1  0  0  0
  3  1  2  0  0  0
  1  2  1  0  0  0
  2  4  2  0  0  0
 17 20  1  0  0  0
 18 21  2  0  0  0
 33 32  2  0  0  0
 32 39  1  0  0  0
 33 40  1  0  0  0
  3  7  1  0  0  0
  8  4  1  0  0  0
 39 34  2  0  0  0
 41 34  1  0  0  0
 20 19  2  0  0  0
 21 19  1  0  0  0
  6  5  2  0  0  0
  5  9  1  0  0  0
 13 11  1  0  0  0
 10 11  1  0  0  0
 37 35  1  0  0  0
 35 36  1  0  0  0
 36 38  1  0  0  0
  9 10  1  0  0  0
 30 27  1  0  0  0
 27 26  1  0  0  0
 14 13  1  0  0  0
 30 29  1  0  0  0
 39 29  1  0  0  0
 37 40  1  0  0  0
 41 38  1  0  0  0
 26  6  1  0  0  0
 20 14  1  0  0  0
 21 25  1  0  0  0
 40 41  2  0  0  0
  6  7  1  0  0  0
  7  8  2  0  0  0
  8  9  1  0  0  0
 13 15  1  0  0  0
 29 31  1  0  0  0
M  END
> <minimizedAffinity>
-9.98001

$$$$
3IW5_DF3_A_362


 41 45  0  0  0  0  0  0  0  0999 V2000
   20.0398   -0.5191  -25.2344 C   0  0  0  0  0  0  0  0  0  0  0  0
   19.6247   -1.2870  -24.1555 C   0  0  0  0  0  0  0  0  0  0  0  0
   20.2314    0.8437  -25.0762 C   0  0  0  0  0  0  0  0  0  0  0  0
   19.4005   -0.6659  -22.9186 C   0  0  0  0  0  0  0  0  0  0  0  0
   19.7586    2.7907  -22.1150 C   0  0  0  0  0  0  0  0  0  0  0  0
   20.1023    2.7610  -23.3866 C   0  0  0  0  0  0  0  0  0  0  0  0
   20.0039    1.4601  -23.8555 C   0  0  0  0  0  0  0  0  0  0  0  0
   19.5815    0.7124  -22.7778 C   0  0  0  0  0  0  0  0  0  0  0  0
   19.4432    1.5613  -21.7629 N   0  0  0  0  0  0  0  0  0  0  0  0
   18.9805    1.2270  -20.4123 C   0  0  0  0  0  0  0  0  0  0  0  0
   20.2122    1.3545  -19.4783 C   0  0  0  0  0  0  0  0  0  0  0  0
   21.7606   -0.6625  -18.0383 O   0  0  0  0  0  0  0  0  0  0  0  0
   21.1717    0.3871  -20.0119 N   0  0  0  0  0  0  0  0  0  0  0  0
   21.8469   -0.5255  -19.2611 C   0  0  0  0  0  0  0  0  0  0  0  0
   21.3406    0.3971  -20.9818 H   0  0  0  0  0  0  0  0  0  0  0  0
   24.6852   -1.5508  -21.5898 C   0  0  0  0  0  0  0  0  0  0  0  0
   23.8175   -0.7620  -20.8398 C   0  0  0  0  0  0  0  0  0  0  0  0
   24.5688   -2.9397  -21.5604 C   0  0  0  0  0  0  0  0  0  0  0  0
   22.6978   -2.7847  -20.0553 C   0  0  0  0  0  0  0  0  0  0  0  0
   22.8350   -1.3764  -20.0628 C   0  0  0  0  0  0  0  0  0  0  0  0
   23.5780   -3.5583  -20.7983 C   0  0  0  0  0  0  0  0  0  0  0  0
   22.3747   -5.5095  -21.3144 F   0  0  0  0  0  0  0  0  0  0  0  0
   24.3762   -5.6166  -21.5924 F   0  0  0  0  0  0  0  0  0  0  0  0
   23.7134   -5.5521  -19.5970 F   0  0  0  0  0  0  0  0  0  0  0  0
   23.5017   -5.0847  -20.8238 C   0  0  0  0  0  0  0  0  0  0  0  0
   20.5755    4.2140  -24.2663 S   0  0  0  0  0  0  0  0  0  0  0  0
   20.7749    5.4105  -22.9152 C   0  0  0  0  0  0  0  0  0  0  0  0
   18.5633    6.0432  -23.3635 O   0  0  0  0  0  0  0  0  0  0  0  0
   19.9808    7.6331  -22.6501 N   0  0  0  0  0  0  0  0  0  0  0  0
   19.6644    6.4060  -22.9985 C   0  0  0  0  0  0  0  0  0  0  0  0
   20.9059    7.8687  -22.4096 H   0  0  0  0  0  0  0  0  0  0  0  0
   18.6931    9.1686  -23.7991 C   0  0  0  0  0  0  0  0  0  0  0  0
   17.6612   10.0927  -23.8447 C   0  0  0  0  0  0  0  0  0  0  0  0
   18.3062    8.7369  -21.4860 C   0  0  0  0  0  0  0  0  0  0  0  0
   15.4037   11.5613  -21.5439 C   0  0  0  0  0  0  0  0  0  0  0  0
   15.2790   10.2722  -20.7659 C   0  0  0  0  0  0  0  0  0  0  0  0
   15.9553   11.2453  -22.8140 O   0  0  0  0  0  0  0  0  0  0  0  0
   16.6053    9.8830  -20.4038 O   0  0  0  0  0  0  0  0  0  0  0  0
   19.0413    8.5228  -22.6323 C   0  0  0  0  0  0  0  0  0  0  0  0
   16.9541   10.3396  -22.7068 C   0  0  0  0  0  0  0  0  0  0  0  0
   17.2763    9.6558  -21.5377 C   0  0  0  0  0  0  0  0  0  0  0  0
 28 30  2  0  0  0
 12 14  2  0  0  0
 25 22  1  0  0  0
 25 23  1  0  0  0
 24 25  1  0  0  0
 16 17  2  0  0  0
 16 18  1  0  0  0
  3  1  2  0  0  0
  1  2  1  0  0  0
  2  4  2  0  0  0
 17 20  1  0  0  0
 18 21  2  0  0  0
 33 32  2  0  0  0
 32 39  1  0  0  0
 33 40  1  0  0  0
  3  7  1  0  0  0
  8  4  1  0  0  0
 39 34  2  0  0  0
 41 34  1  0  0  0
 20 19  2  0  0  0
 21 19  1  0  0  0
  6  5  2  0  0  0
  5  9  1  0  0  0
 13 11  1  0  0  0
 10 11  1  0  0  0
 37 35  1  0  0  0
 35 36  1  0  0  0
 36 38  1  0  0  0
  9 10  1  0  0  0
 30 27  1  0  0  0
 27 26  1  0  0  0
 14 13  1  0  0  0
 30 29  1  0  0  0
 39 29  1  0  0  0
 37 40  1  0  0  0
 41 38  1  0  0  0
 26  6  1  0  0  0
 20 14  1  0  0  0
 21 25  1  0  0  0
 40 41  2  0  0  0
  6  7  1  0  0  0
  7  8  2  0  0  0
  8  9  1  0  0  0
 13 15  1  0  0  0
 29 31  1  0  0  0
M  END
> <minimizedAffinity>
-9.55527

$$$$
3IW5_DF3_A_362


 41 45  0  0  0  0  0  0  0  0999 V2000
   19.3941    1.0353  -24.3605 C   0  0  0  0  0  0  0  0  0  0  0  0
   18.7836    2.0953  -25.0161 C   0  0  0  0  0  0  0  0  0  0  0  0
   19.2465    0.8965  -22.9902 C   0  0  0  0  0  0  0  0  0  0  0  0
   18.0279    3.0150  -24.2753 C   0  0  0  0  0  0  0  0  0  0  0  0
   17.4285    3.0181  -20.7592 C   0  0  0  0  0  0  0  0  0  0  0  0
   18.1756    1.9442  -20.9157 C   0  0  0  0  0  0  0  0  0  0  0  0
   18.5048    1.8088  -22.2555 C   0  0  0  0  0  0  0  0  0  0  0  0
   17.9013    2.8722  -22.8912 C   0  0  0  0  0  0  0  0  0  0  0  0
   17.2759    3.5687  -21.9460 N   0  0  0  0  0  0  0  0  0  0  0  0
   16.5192    4.8092  -22.1431 C   0  0  0  0  0  0  0  0  0  0  0  0
   17.4646    5.9724  -21.7444 C   0  0  0  0  0  0  0  0  0  0  0  0
   19.3012    8.0227  -22.7254 O   0  0  0  0  0  0  0  0  0  0  0  0
   18.6220    5.8153  -22.6257 N   0  0  0  0  0  0  0  0  0  0  0  0
   19.4298    6.8340  -23.0287 C   0  0  0  0  0  0  0  0  0  0  0  0
   18.8311    4.9095  -22.9499 H   0  0  0  0  0  0  0  0  0  0  0  0
   21.9426    6.8507  -25.8948 C   0  0  0  0  0  0  0  0  0  0  0  0
   20.9637    7.2730  -24.9999 C   0  0  0  0  0  0  0  0  0  0  0  0
   22.4828    5.5701  -25.7864 C   0  0  0  0  0  0  0  0  0  0  0  0
   21.0594    5.0924  -23.9061 C   0  0  0  0  0  0  0  0  0  0  0  0
   20.5324    6.4024  -23.9987 C   0  0  0  0  0  0  0  0  0  0  0  0
   22.0435    4.6901  -24.7976 C   0  0  0  0  0  0  0  0  0  0  0  0
   23.9620    3.3374  -24.9032 F   0  0  0  0  0  0  0  0  0  0  0  0
   22.5311    2.7268  -23.6093 F   0  0  0  0  0  0  0  0  0  0  0  0
   22.0876    2.5224  -25.6554 F   0  0  0  0  0  0  0  0  0  0  0  0
   22.6716    3.2975  -24.7463 C   0  0  0  0  0  0  0  0  0  0  0  0
   18.6452    0.9202  -19.5593 S   0  0  0  0  0  0  0  0  0  0  0  0
   20.2992    1.5618  -19.1725 C   0  0  0  0  0  0  0  0  0  0  0  0
   21.9349    0.0503  -18.4431 O   0  0  0  0  0  0  0  0  0  0  0  0
   21.3858    0.0250  -20.6211 N   0  0  0  0  0  0  0  0  0  0  0  0
   21.2924    0.4669  -19.3869 C   0  0  0  0  0  0  0  0  0  0  0  0
   20.8688    0.4410  -21.3485 H   0  0  0  0  0  0  0  0  0  0  0  0
   23.4671   -0.7344  -21.2749 C   0  0  0  0  0  0  0  0  0  0  0  0
   24.3693   -1.7645  -21.4890 C   0  0  0  0  0  0  0  0  0  0  0  0
   21.7785   -2.2597  -20.5615 C   0  0  0  0  0  0  0  0  0  0  0  0
   24.3322   -5.3036  -21.3476 C   0  0  0  0  0  0  0  0  0  0  0  0
   23.4065   -5.2966  -20.1537 C   0  0  0  0  0  0  0  0  0  0  0  0
   24.8971   -4.0054  -21.4613 O   0  0  0  0  0  0  0  0  0  0  0  0
   22.2620   -4.5275  -20.5279 O   0  0  0  0  0  0  0  0  0  0  0  0
   22.1767   -0.9725  -20.8528 C   0  0  0  0  0  0  0  0  0  0  0  0
   23.9719   -3.0437  -21.2409 C   0  0  0  0  0  0  0  0  0  0  0  0
   22.6827   -3.2822  -20.7727 C   0  0  0  0  0  0  0  0  0  0  0  0
 28 30  2  0  0  0
 12 14  2  0  0  0
 25 22  1  0  0  0
 25 23  1  0  0  0
 24 25  1  0  0  0
 16 17  2  0  0  0
 16 18  1  0  0  0
  3  1  2  0  0  0
  1  2  1  0  0  0
  2  4  2  0  0  0
 17 20  1  0  0  0
 18 21  2  0  0  0
 33 32  2  0  0  0
 32 39  1  0  0  0
 33 40  1  0  0  0
  3  7  1  0  0  0
  8  4  1  0  0  0
 39 34  2  0  0  0
 41 34  1  0  0  0
 20 19  2  0  0  0
 21 19  1  0  0  0
  6  5  2  0  0  0
  5  9  1  0  0  0
 13 11  1  0  0  0
 10 11  1  0  0  0
 37 35  1  0  0  0
 35 36  1  0  0  0
 36 38  1  0  0  0
  9 10  1  0  0  0
 30 27  1  0  0  0
 27 26  1  0  0  0
 14 13  1  0  0  0
 30 29  1  0  0  0
 39 29  1  0  0  0
 37 40  1  0  0  0
 41 38  1  0  0  0
 26  6  1  0  0  0
 20 14  1  0  0  0
 21 25  1  0  0  0
 40 41  2  0  0  0
  6  7  1  0  0  0
  7  8  2  0  0  0
  8  9  1  0  0  0
 13 15  1  0  0  0
 29 31  1  0  0  0
M  END
> <minimizedAffinity>
-9.50878

$$$$
3IW5_DF3_A_362


 41 45  0  0  0  0  0  0  0  0999 V2000
   19.3830   -0.2250  -24.9628 C   0  0  0  0  0  0  0  0  0  0  0  0
   19.6579   -1.1505  -23.9658 C   0  0  0  0  0  0  0  0  0  0  0  0
   18.9425    1.0434  -24.6221 C   0  0  0  0  0  0  0  0  0  0  0  0
   19.4795   -0.7851  -22.6240 C   0  0  0  0  0  0  0  0  0  0  0  0
   18.3530    2.3486  -21.3461 C   0  0  0  0  0  0  0  0  0  0  0  0
   18.3457    2.5569  -22.6471 C   0  0  0  0  0  0  0  0  0  0  0  0
   18.7596    1.4039  -23.2960 C   0  0  0  0  0  0  0  0  0  0  0  0
   19.0186    0.4923  -22.2955 C   0  0  0  0  0  0  0  0  0  0  0  0
   18.7511    1.1089  -21.1475 N   0  0  0  0  0  0  0  0  0  0  0  0
   18.8483    0.5220  -19.8072 C   0  0  0  0  0  0  0  0  0  0  0  0
   20.1749    1.0399  -19.1925 C   0  0  0  0  0  0  0  0  0  0  0  0
   22.2616    1.0786  -21.2378 O   0  0  0  0  0  0  0  0  0  0  0  0
   21.1533    0.0019  -19.5184 N   0  0  0  0  0  0  0  0  0  0  0  0
   22.0991    0.1103  -20.4912 C   0  0  0  0  0  0  0  0  0  0  0  0
   21.1256   -0.8332  -18.9978 H   0  0  0  0  0  0  0  0  0  0  0  0
   24.8397   -2.2744  -21.6454 C   0  0  0  0  0  0  0  0  0  0  0  0
   24.0923   -1.1130  -21.4721 C   0  0  0  0  0  0  0  0  0  0  0  0
   24.4516   -3.4556  -21.0147 C   0  0  0  0  0  0  0  0  0  0  0  0
   22.5451   -2.3519  -20.0468 C   0  0  0  0  0  0  0  0  0  0  0  0
   22.9558   -1.1465  -20.6637 C   0  0  0  0  0  0  0  0  0  0  0  0
   23.3072   -3.4985  -20.2188 C   0  0  0  0  0  0  0  0  0  0  0  0
   23.0845   -4.8029  -18.2770 F   0  0  0  0  0  0  0  0  0  0  0  0
   21.7000   -5.1320  -19.7156 F   0  0  0  0  0  0  0  0  0  0  0  0
   23.6507   -5.8030  -20.1270 F   0  0  0  0  0  0  0  0  0  0  0  0
   22.9353   -4.8310  -19.5686 C   0  0  0  0  0  0  0  0  0  0  0  0
   17.8464    4.0951  -23.3497 S   0  0  0  0  0  0  0  0  0  0  0  0
   18.7506    5.2807  -22.3136 C   0  0  0  0  0  0  0  0  0  0  0  0
   18.3500    7.1530  -23.6650 O   0  0  0  0  0  0  0  0  0  0  0  0
   20.4864    6.5487  -23.3236 N   0  0  0  0  0  0  0  0  0  0  0  0
   19.1870    6.4219  -23.1729 C   0  0  0  0  0  0  0  0  0  0  0  0
   21.1078    5.8913  -22.9351 H   0  0  0  0  0  0  0  0  0  0  0  0
   21.0474    8.7888  -23.3803 C   0  0  0  0  0  0  0  0  0  0  0  0
   21.5590    9.8938  -24.0421 C   0  0  0  0  0  0  0  0  0  0  0  0
   21.3876    7.3954  -25.2854 C   0  0  0  0  0  0  0  0  0  0  0  0
   22.7202   10.6446  -27.3031 C   0  0  0  0  0  0  0  0  0  0  0  0
   23.3396    9.2748  -27.4526 C   0  0  0  0  0  0  0  0  0  0  0  0
   22.4777   10.8582  -25.9201 O   0  0  0  0  0  0  0  0  0  0  0  0
   22.3004    8.3265  -27.2031 O   0  0  0  0  0  0  0  0  0  0  0  0
   20.9256    7.5623  -23.9974 C   0  0  0  0  0  0  0  0  0  0  0  0
   21.9821    9.7473  -25.3286 C   0  0  0  0  0  0  0  0  0  0  0  0
   21.9002    8.4989  -25.9390 C   0  0  0  0  0  0  0  0  0  0  0  0
 28 30  2  0  0  0
 12 14  2  0  0  0
 25 22  1  0  0  0
 25 23  1  0  0  0
 24 25  1  0  0  0
 16 17  2  0  0  0
 16 18  1  0  0  0
  3  1  2  0  0  0
  1  2  1  0  0  0
  2  4  2  0  0  0
 17 20  1  0  0  0
 18 21  2  0  0  0
 33 32  2  0  0  0
 32 39  1  0  0  0
 33 40  1  0  0  0
  3  7  1  0  0  0
  8  4  1  0  0  0
 39 34  2  0  0  0
 41 34  1  0  0  0
 20 19  2  0  0  0
 21 19  1  0  0  0
  6  5  2  0  0  0
  5  9  1  0  0  0
 13 11  1  0  0  0
 10 11  1  0  0  0
 37 35  1  0  0  0
 35 36  1  0  0  0
 36 38  1  0  0  0
  9 10  1  0  0  0
 30 27  1  0  0  0
 27 26  1  0  0  0
 14 13  1  0  0  0
 30 29  1  0  0  0
 39 29  1  0  0  0
 37 40  1  0  0  0
 41 38  1  0  0  0
 26  6  1  0  0  0
 20 14  1  0  0  0
 21 25  1  0  0  0
 40 41  2  0  0  0
  6  7  1  0  0  0
  7  8  2  0  0  0
  8  9  1  0  0  0
 13 15  1  0  0  0
 29 31  1  0  0  0
M  END
> <minimizedAffinity>
-9.42829

$$$$
3IW5_DF3_A_362


 41 45  0  0  0  0  0  0  0  0999 V2000
   18.9855   -1.5245  -24.1306 C   0  0  0  0  0  0  0  0  0  0  0  0
   20.2430   -1.3642  -24.6956 C   0  0  0  0  0  0  0  0  0  0  0  0
   18.2171   -0.4108  -23.8339 C   0  0  0  0  0  0  0  0  0  0  0  0
   20.7183   -0.0705  -24.9532 C   0  0  0  0  0  0  0  0  0  0  0  0
   19.0675    3.0276  -24.3214 C   0  0  0  0  0  0  0  0  0  0  0  0
   18.1798    2.1468  -23.9067 C   0  0  0  0  0  0  0  0  0  0  0  0
   18.6884    0.8691  -24.0822 C   0  0  0  0  0  0  0  0  0  0  0  0
   19.9393    1.0444  -24.6334 C   0  0  0  0  0  0  0  0  0  0  0  0
   20.1182    2.3576  -24.7482 N   0  0  0  0  0  0  0  0  0  0  0  0
   21.3205    3.0257  -25.2565 C   0  0  0  0  0  0  0  0  0  0  0  0
   22.0152    3.6781  -24.0327 C   0  0  0  0  0  0  0  0  0  0  0  0
   20.7423    3.7563  -21.4035 O   0  0  0  0  0  0  0  0  0  0  0  0
   21.9825    2.6392  -23.0028 N   0  0  0  0  0  0  0  0  0  0  0  0
   21.3556    2.7627  -21.8010 C   0  0  0  0  0  0  0  0  0  0  0  0
   22.4463    1.7917  -23.1923 H   0  0  0  0  0  0  0  0  0  0  0  0
   21.2259    0.4767  -18.7535 C   0  0  0  0  0  0  0  0  0  0  0  0
   21.0289    1.5768  -19.5832 C   0  0  0  0  0  0  0  0  0  0  0  0
   21.9156   -0.6394  -19.2249 C   0  0  0  0  0  0  0  0  0  0  0  0
   22.2536    0.4274  -21.3551 C   0  0  0  0  0  0  0  0  0  0  0  0
   21.5284    1.5481  -20.8856 C   0  0  0  0  0  0  0  0  0  0  0  0
   22.4312   -0.6667  -20.5205 C   0  0  0  0  0  0  0  0  0  0  0  0
   24.0723   -1.6552  -21.8811 F   0  0  0  0  0  0  0  0  0  0  0  0
   23.8819   -2.4433  -20.0271 F   0  0  0  0  0  0  0  0  0  0  0  0
   22.3129   -2.8339  -21.3727 F   0  0  0  0  0  0  0  0  0  0  0  0
   23.1872   -1.9185  -20.9653 C   0  0  0  0  0  0  0  0  0  0  0  0
   16.6249    2.6276  -23.2283 S   0  0  0  0  0  0  0  0  0  0  0  0
   17.1404    3.7061  -21.8616 C   0  0  0  0  0  0  0  0  0  0  0  0
   16.6966    5.5779  -23.2000 O   0  0  0  0  0  0  0  0  0  0  0  0
   18.5952    5.5783  -21.9995 N   0  0  0  0  0  0  0  0  0  0  0  0
   17.4664    5.0526  -22.4199 C   0  0  0  0  0  0  0  0  0  0  0  0
   19.1963    5.0766  -21.4027 H   0  0  0  0  0  0  0  0  0  0  0  0
   18.2572    7.8567  -21.8240 C   0  0  0  0  0  0  0  0  0  0  0  0
   18.5753    9.1597  -22.1730 C   0  0  0  0  0  0  0  0  0  0  0  0
   19.9277    6.9779  -23.2813 C   0  0  0  0  0  0  0  0  0  0  0  0
   20.7582   10.7646  -24.4547 C   0  0  0  0  0  0  0  0  0  0  0  0
   21.8265    9.7165  -24.2479 C   0  0  0  0  0  0  0  0  0  0  0  0
   19.8399   10.6611  -23.3761 O   0  0  0  0  0  0  0  0  0  0  0  0
   21.2183    8.4528  -24.5211 O   0  0  0  0  0  0  0  0  0  0  0  0
   18.8938    6.7745  -22.3926 C   0  0  0  0  0  0  0  0  0  0  0  0
   19.5697    9.3693  -23.0802 C   0  0  0  0  0  0  0  0  0  0  0  0
   20.2434    8.2785  -23.6228 C   0  0  0  0  0  0  0  0  0  0  0  0
 28 30  2  0  0  0
 12 14  2  0  0  0
 25 22  1  0  0  0
 25 23  1  0  0  0
 24 25  1  0  0  0
 16 17  2  0  0  0
 16 18  1  0  0  0
  3  1  2  0  0  0
  1  2  1  0  0  0
  2  4  2  0  0  0
 17 20  1  0  0  0
 18 21  2  0  0  0
 33 32  2  0  0  0
 32 39  1  0  0  0
 33 40  1  0  0  0
  3  7  1  0  0  0
  8  4  1  0  0  0
 39 34  2  0  0  0
 41 34  1  0  0  0
 20 19  2  0  0  0
 21 19  1  0  0  0
  6  5  2  0  0  0
  5  9  1  0  0  0
 13 11  1  0  0  0
 10 11  1  0  0  0
 37 35  1  0  0  0
 35 36  1  0  0  0
 36 38  1  0  0  0
  9 10  1  0  0  0
 30 27  1  0  0  0
 27 26  1  0  0  0
 14 13  1  0  0  0
 30 29  1  0  0  0
 39 29  1  0  0  0
 37 40  1  0  0  0
 41 38  1  0  0  0
 26  6  1  0  0  0
 20 14  1  0  0  0
 21 25  1  0  0  0
 40 41  2  0  0  0
  6  7  1  0  0  0
  7  8  2  0  0  0
  8  9  1  0  0  0
 13 15  1  0  0  0
 29 31  1  0  0  0
M  END
> <minimizedAffinity>
-9.11697

$$$$
3IW5_DF3_A_362


 41 45  0  0  0  0  0  0  0  0999 V2000
   19.2633   -1.0659  -24.2751 C   0  0  0  0  0  0  0  0  0  0  0  0
   20.2059   -0.5033  -25.1243 C   0  0  0  0  0  0  0  0  0  0  0  0
   18.9146   -0.4127  -23.1043 C   0  0  0  0  0  0  0  0  0  0  0  0
   20.7957    0.7207  -24.7781 C   0  0  0  0  0  0  0  0  0  0  0  0
   20.1880    2.6909  -21.8676 C   0  0  0  0  0  0  0  0  0  0  0  0
   19.3726    1.6711  -21.6916 C   0  0  0  0  0  0  0  0  0  0  0  0
   19.5016    0.7945  -22.7578 C   0  0  0  0  0  0  0  0  0  0  0  0
   20.4468    1.3602  -23.5859 C   0  0  0  0  0  0  0  0  0  0  0  0
   20.8298    2.4917  -23.0004 N   0  0  0  0  0  0  0  0  0  0  0  0
   21.8481    3.4218  -23.4985 C   0  0  0  0  0  0  0  0  0  0  0  0
   21.1739    4.2588  -24.6169 C   0  0  0  0  0  0  0  0  0  0  0  0
   18.4294    5.0157  -23.9584 O   0  0  0  0  0  0  0  0  0  0  0  0
   20.6977    5.4604  -23.9311 N   0  0  0  0  0  0  0  0  0  0  0  0
   19.3910    5.7284  -23.6604 C   0  0  0  0  0  0  0  0  0  0  0  0
   21.3693    6.1213  -23.6457 H   0  0  0  0  0  0  0  0  0  0  0  0
   19.9951    9.2175  -22.2494 C   0  0  0  0  0  0  0  0  0  0  0  0
   20.2097    8.0037  -22.8959 C   0  0  0  0  0  0  0  0  0  0  0  0
   18.7463    9.5059  -21.7011 C   0  0  0  0  0  0  0  0  0  0  0  0
   17.9051    7.3643  -22.4055 C   0  0  0  0  0  0  0  0  0  0  0  0
   19.1643    7.0843  -22.9872 C   0  0  0  0  0  0  0  0  0  0  0  0
   17.7026    8.5836  -21.7751 C   0  0  0  0  0  0  0  0  0  0  0  0
   15.5799    7.9341  -21.0045 F   0  0  0  0  0  0  0  0  0  0  0  0
   16.4843    9.4015  -19.9445 F   0  0  0  0  0  0  0  0  0  0  0  0
   15.7968    9.9241  -21.8626 F   0  0  0  0  0  0  0  0  0  0  0  0
   16.3645    8.9624  -21.1408 C   0  0  0  0  0  0  0  0  0  0  0  0
   18.3371    1.5300  -20.2714 S   0  0  0  0  0  0  0  0  0  0  0  0
   19.5271    1.0115  -19.0017 C   0  0  0  0  0  0  0  0  0  0  0  0
   19.6523   -1.1743  -19.8375 O   0  0  0  0  0  0  0  0  0  0  0  0
   21.5764   -0.0465  -19.5688 N   0  0  0  0  0  0  0  0  0  0  0  0
   20.2703   -0.1804  -19.5097 C   0  0  0  0  0  0  0  0  0  0  0  0
   22.0170    0.7708  -19.2414 H   0  0  0  0  0  0  0  0  0  0  0  0
   23.4118   -0.7444  -20.7854 C   0  0  0  0  0  0  0  0  0  0  0  0
   24.2134   -1.7511  -21.3000 C   0  0  0  0  0  0  0  0  0  0  0  0
   21.9338   -2.3273  -19.7870 C   0  0  0  0  0  0  0  0  0  0  0  0
   24.1552   -5.2905  -21.4271 C   0  0  0  0  0  0  0  0  0  0  0  0
   23.5620   -5.3809  -20.0406 C   0  0  0  0  0  0  0  0  0  0  0  0
   24.6942   -3.9853  -21.5799 O   0  0  0  0  0  0  0  0  0  0  0  0
   22.3728   -4.5889  -20.0520 O   0  0  0  0  0  0  0  0  0  0  0  0
   22.2665   -1.0198  -20.0696 C   0  0  0  0  0  0  0  0  0  0  0  0
   23.8708   -3.0473  -21.0586 C   0  0  0  0  0  0  0  0  0  0  0  0
   22.7383   -3.3267  -20.2987 C   0  0  0  0  0  0  0  0  0  0  0  0
 28 30  2  0  0  0
 12 14  2  0  0  0
 25 22  1  0  0  0
 25 23  1  0  0  0
 24 25  1  0  0  0
 16 17  2  0  0  0
 16 18  1  0  0  0
  3  1  2  0  0  0
  1  2  1  0  0  0
  2  4  2  0  0  0
 17 20  1  0  0  0
 18 21  2  0  0  0
 33 32  2  0  0  0
 32 39  1  0  0  0
 33 40  1  0  0  0
  3  7  1  0  0  0
  8  4  1  0  0  0
 39 34  2  0  0  0
 41 34  1  0  0  0
 20 19  2  0  0  0
 21 19  1  0  0  0
  6  5  2  0  0  0
  5  9  1  0  0  0
 13 11  1  0  0  0
 10 11  1  0  0  0
 37 35  1  0  0  0
 35 36  1  0  0  0
 36 38  1  0  0  0
  9 10  1  0  0  0
 30 27  1  0  0  0
 27 26  1  0  0  0
 14 13  1  0  0  0
 30 29  1  0  0  0
 39 29  1  0  0  0
 37 40  1  0  0  0
 41 38  1  0  0  0
 26  6  1  0  0  0
 20 14  1  0  0  0
 21 25  1  0  0  0
 40 41  2  0  0  0
  6  7  1  0  0  0
  7  8  2  0  0  0
  8  9  1  0  0  0
 13 15  1  0  0  0
 29 31  1  0  0  0
M  END
> <minimizedAffinity>
-9.08983

$$$$
3IW5_DF3_A_362


 41 45  0  0  0  0  0  0  0  0999 V2000
   16.8453    5.0550  -22.1029 C   0  0  0  0  0  0  0  0  0  0  0  0
   16.1354    4.1530  -21.3228 C   0  0  0  0  0  0  0  0  0  0  0  0
   18.1950    4.8491  -22.3375 C   0  0  0  0  0  0  0  0  0  0  0  0
   16.8014    3.0457  -20.7785 C   0  0  0  0  0  0  0  0  0  0  0  0
   20.2436    2.1795  -21.1294 C   0  0  0  0  0  0  0  0  0  0  0  0
   20.1582    3.2847  -21.8415 C   0  0  0  0  0  0  0  0  0  0  0  0
   18.8561    3.7581  -21.7947 C   0  0  0  0  0  0  0  0  0  0  0  0
   18.1668    2.8596  -21.0095 C   0  0  0  0  0  0  0  0  0  0  0  0
   19.0484    1.9379  -20.6315 N   0  0  0  0  0  0  0  0  0  0  0  0
   18.7810    0.7929  -19.7553 C   0  0  0  0  0  0  0  0  0  0  0  0
   19.9601    0.7197  -18.7503 C   0  0  0  0  0  0  0  0  0  0  0  0
   21.3767   -1.6380  -17.7636 O   0  0  0  0  0  0  0  0  0  0  0  0
   20.9670   -0.0929  -19.4335 N   0  0  0  0  0  0  0  0  0  0  0  0
   21.5737   -1.1854  -18.8940 C   0  0  0  0  0  0  0  0  0  0  0  0
   21.2236    0.1688  -20.3473 H   0  0  0  0  0  0  0  0  0  0  0  0
   24.4577   -1.5935  -21.3527 C   0  0  0  0  0  0  0  0  0  0  0  0
   23.5237   -1.0046  -20.5052 C   0  0  0  0  0  0  0  0  0  0  0  0
   24.4982   -2.9801  -21.4920 C   0  0  0  0  0  0  0  0  0  0  0  0
   22.6546   -3.2210  -19.9646 C   0  0  0  0  0  0  0  0  0  0  0  0
   22.6332   -1.8157  -19.8013 C   0  0  0  0  0  0  0  0  0  0  0  0
   23.5996   -3.7945  -20.8033 C   0  0  0  0  0  0  0  0  0  0  0  0
   22.6627   -5.7752  -21.6521 F   0  0  0  0  0  0  0  0  0  0  0  0
   24.6794   -5.6463  -21.7567 F   0  0  0  0  0  0  0  0  0  0  0  0
   23.8590   -5.9004  -19.8365 F   0  0  0  0  0  0  0  0  0  0  0  0
   23.6941   -5.3054  -21.0143 C   0  0  0  0  0  0  0  0  0  0  0  0
   21.5522    3.9809  -22.6668 S   0  0  0  0  0  0  0  0  0  0  0  0
   20.9188    4.1695  -24.3580 C   0  0  0  0  0  0  0  0  0  0  0  0
   23.0225    4.6831  -25.2539 O   0  0  0  0  0  0  0  0  0  0  0  0
   21.3494    6.1378  -25.6155 N   0  0  0  0  0  0  0  0  0  0  0  0
   21.8663    5.0342  -25.1234 C   0  0  0  0  0  0  0  0  0  0  0  0
   20.4146    6.3853  -25.4310 H   0  0  0  0  0  0  0  0  0  0  0  0
   22.7882    6.3378  -27.4116 C   0  0  0  0  0  0  0  0  0  0  0  0
   23.5703    7.1074  -28.2583 C   0  0  0  0  0  0  0  0  0  0  0  0
   22.1310    8.2538  -26.1531 C   0  0  0  0  0  0  0  0  0  0  0  0
   24.5479   10.5035  -28.4988 C   0  0  0  0  0  0  0  0  0  0  0  0
   23.1970   10.9789  -28.0178 C   0  0  0  0  0  0  0  0  0  0  0  0
   24.4064    9.1513  -28.9098 O   0  0  0  0  0  0  0  0  0  0  0  0
   22.9573   10.3319  -26.7665 O   0  0  0  0  0  0  0  0  0  0  0  0
   22.1046    6.8897  -26.3495 C   0  0  0  0  0  0  0  0  0  0  0  0
   23.6334    8.4519  -28.0480 C   0  0  0  0  0  0  0  0  0  0  0  0
   22.9087    9.0167  -27.0021 C   0  0  0  0  0  0  0  0  0  0  0  0
 28 30  2  0  0  0
 12 14  2  0  0  0
 25 22  1  0  0  0
 25 23  1  0  0  0
 24 25  1  0  0  0
 16 17  2  0  0  0
 16 18  1  0  0  0
  3  1  2  0  0  0
  1  2  1  0  0  0
  2  4  2  0  0  0
 17 20  1  0  0  0
 18 21  2  0  0  0
 33 32  2  0  0  0
 32 39  1  0  0  0
 33 40  1  0  0  0
  3  7  1  0  0  0
  8  4  1  0  0  0
 39 34  2  0  0  0
 41 34  1  0  0  0
 20 19  2  0  0  0
 21 19  1  0  0  0
  6  5  2  0  0  0
  5  9  1  0  0  0
 13 11  1  0  0  0
 10 11  1  0  0  0
 37 35  1  0  0  0
 35 36  1  0  0  0
 36 38  1  0  0  0
  9 10  1  0  0  0
 30 27  1  0  0  0
 27 26  1  0  0  0
 14 13  1  0  0  0
 30 29  1  0  0  0
 39 29  1  0  0  0
 37 40  1  0  0  0
 41 38  1  0  0  0
 26  6  1  0  0  0
 20 14  1  0  0  0
 21 25  1  0  0  0
 40 41  2  0  0  0
  6  7  1  0  0  0
  7  8  2  0  0  0
  8  9  1  0  0  0
 13 15  1  0  0  0
 29 31  1  0  0  0
M  END
> <minimizedAffinity>
-9.02602

$$$$
3IW5_DF3_A_362


 41 45  0  0  0  0  0  0  0  0999 V2000
   19.3775   -0.4210  -23.9984 C   0  0  0  0  0  0  0  0  0  0  0  0
   19.0855    0.5784  -24.9161 C   0  0  0  0  0  0  0  0  0  0  0  0
   19.2243   -0.1775  -22.6434 C   0  0  0  0  0  0  0  0  0  0  0  0
   18.6427    1.8255  -24.4528 C   0  0  0  0  0  0  0  0  0  0  0  0
   18.1420    2.8461  -21.0720 C   0  0  0  0  0  0  0  0  0  0  0  0
   18.5441    1.5993  -20.9323 C   0  0  0  0  0  0  0  0  0  0  0  0
   18.7927    1.0571  -22.1837 C   0  0  0  0  0  0  0  0  0  0  0  0
   18.5087    2.0625  -23.0824 C   0  0  0  0  0  0  0  0  0  0  0  0
   18.1304    3.1146  -22.3615 N   0  0  0  0  0  0  0  0  0  0  0  0
   17.7599    4.4334  -22.8843 C   0  0  0  0  0  0  0  0  0  0  0  0
   18.5540    5.4770  -22.0559 C   0  0  0  0  0  0  0  0  0  0  0  0
   21.1698    4.9368  -23.2411 O   0  0  0  0  0  0  0  0  0  0  0  0
   19.2807    6.2565  -23.0586 N   0  0  0  0  0  0  0  0  0  0  0  0
   20.5011    5.9229  -23.5604 C   0  0  0  0  0  0  0  0  0  0  0  0
   18.8573    7.0798  -23.3937 H   0  0  0  0  0  0  0  0  0  0  0  0
   21.3186    9.2194  -25.2908 C   0  0  0  0  0  0  0  0  0  0  0  0
   20.8305    8.3070  -24.3599 C   0  0  0  0  0  0  0  0  0  0  0  0
   22.0314    8.7706  -26.4016 C   0  0  0  0  0  0  0  0  0  0  0  0
   21.7606    6.4866  -25.6946 C   0  0  0  0  0  0  0  0  0  0  0  0
   21.0624    6.9447  -24.5523 C   0  0  0  0  0  0  0  0  0  0  0  0
   22.2519    7.4089  -26.6073 C   0  0  0  0  0  0  0  0  0  0  0  0
   22.2493    6.5280  -28.7858 F   0  0  0  0  0  0  0  0  0  0  0  0
   23.6255    7.9671  -28.4256 F   0  0  0  0  0  0  0  0  0  0  0  0
   23.9615    6.1041  -27.5083 F   0  0  0  0  0  0  0  0  0  0  0  0
   23.0306    6.9886  -27.8537 C   0  0  0  0  0  0  0  0  0  0  0  0
   18.7260    0.8423  -19.3502 S   0  0  0  0  0  0  0  0  0  0  0  0
   20.3937    1.3819  -18.8765 C   0  0  0  0  0  0  0  0  0  0  0  0
   21.8659   -0.3145  -18.2082 O   0  0  0  0  0  0  0  0  0  0  0  0
   21.5423   -0.0200  -20.4115 N   0  0  0  0  0  0  0  0  0  0  0  0
   21.3459    0.2623  -19.1430 C   0  0  0  0  0  0  0  0  0  0  0  0
   21.1247    0.5198  -21.1210 H   0  0  0  0  0  0  0  0  0  0  0  0
   23.6042   -0.8094  -21.0908 C   0  0  0  0  0  0  0  0  0  0  0  0
   24.4719   -1.8551  -21.3635 C   0  0  0  0  0  0  0  0  0  0  0  0
   21.8522   -2.3164  -20.5021 C   0  0  0  0  0  0  0  0  0  0  0  0
   24.3065   -5.3920  -21.4626 C   0  0  0  0  0  0  0  0  0  0  0  0
   23.3648   -5.4314  -20.2819 C   0  0  0  0  0  0  0  0  0  0  0  0
   24.9189   -4.1106  -21.4815 O   0  0  0  0  0  0  0  0  0  0  0  0
   22.2539   -4.5975  -20.6166 O   0  0  0  0  0  0  0  0  0  0  0  0
   22.3003   -1.0280  -20.7009 C   0  0  0  0  0  0  0  0  0  0  0  0
   24.0256   -3.1327  -21.2073 C   0  0  0  0  0  0  0  0  0  0  0  0
   22.7223   -3.3548  -20.7715 C   0  0  0  0  0  0  0  0  0  0  0  0
 28 30  2  0  0  0
 12 14  2  0  0  0
 25 22  1  0  0  0
 25 23  1  0  0  0
 24 25  1  0  0  0
 16 17  2  0  0  0
 16 18  1  0  0  0
  3  1  2  0  0  0
  1  2  1  0  0  0
  2  4  2  0  0  0
 17 20  1  0  0  0
 18 21  2  0  0  0
 33 32  2  0  0  0
 32 39  1  0  0  0
 33 40  1  0  0  0
  3  7  1  0  0  0
  8  4  1  0  0  0
 39 34  2  0  0  0
 41 34  1  0  0  0
 20 19  2  0  0  0
 21 19  1  0  0  0
  6  5  2  0  0  0
  5  9  1  0  0  0
 13 11  1  0  0  0
 10 11  1  0  0  0
 37 35  1  0  0  0
 35 36  1  0  0  0
 36 38  1  0  0  0
  9 10  1  0  0  0
 30 27  1  0  0  0
 27 26  1  0  0  0
 14 13  1  0  0  0
 30 29  1  0  0  0
 39 29  1  0  0  0
 37 40  1  0  0  0
 41 38  1  0  0  0
 26  6  1  0  0  0
 20 14  1  0  0  0
 21 25  1  0  0  0
 40 41  2  0  0  0
  6  7  1  0  0  0
  7  8  2  0  0  0
  8  9  1  0  0  0
 13 15  1  0  0  0
 29 31  1  0  0  0
M  END
> <minimizedAffinity>
-8.93253

$$$$
