5MN1_2AP_A_306


 10 10  0  0  0  0  0  0  0  0999 V2000
   -2.6156  -14.3953  -17.5685 N   0  0  0  0  0  0  0  0  0  0  0  0
   -1.7682  -15.4265  -17.4277 C   0  0  0  0  0  0  0  0  0  0  0  0
   -0.9031  -15.5297  -16.3281 C   0  0  0  0  0  0  0  0  0  0  0  0
   -0.9316  -14.5252  -15.3797 C   0  0  0  0  0  0  0  0  0  0  0  0
   -1.7975  -13.4693  -15.5269 C   0  0  0  0  0  0  0  0  0  0  0  0
   -2.6055  -13.4466  -16.6231 C   0  0  0  0  0  0  0  0  0  0  0  0
   -1.7546  -16.3263  -18.4074 N   0  0  0  0  0  0  0  0  0  0  0  0
   -3.2240  -14.3382  -18.3404 H   0  0  0  0  0  0  0  0  0  0  0  0
   -2.3710  -16.2336  -19.1695 H   0  0  0  0  0  0  0  0  0  0  0  0
   -1.1282  -17.0849  -18.3704 H   0  0  0  0  0  0  0  0  0  0  0  0
  1  2  1  0  0  0
  1  6  2  0  0  0
  2  3  2  0  0  0
  2  7  1  0  0  0
  3  4  1  0  0  0
  4  5  2  0  0  0
  5  6  1  0  0  0
  1  8  1  0  0  0
  7  9  1  0  0  0
  7 10  1  0  0  0
M  CHG 1   1   1
M  END
> <minimizedAffinity>
-5.07879

$$$$
5MN1_2AP_A_306


 10 10  0  0  0  0  0  0  0  0999 V2000
   -0.7818  -15.8785  -16.4445 N   0  0  0  0  0  0  0  0  0  0  0  0
   -1.6523  -15.4381  -17.3663 C   0  0  0  0  0  0  0  0  0  0  0  0
   -2.3503  -14.2313  -17.2093 C   0  0  0  0  0  0  0  0  0  0  0  0
   -2.1298  -13.4953  -16.0608 C   0  0  0  0  0  0  0  0  0  0  0  0
   -1.2408  -13.9490  -15.1173 C   0  0  0  0  0  0  0  0  0  0  0  0
   -0.6029  -15.1300  -15.3482 C   0  0  0  0  0  0  0  0  0  0  0  0
   -1.8571  -16.2257  -18.4186 N   0  0  0  0  0  0  0  0  0  0  0  0
   -0.2916  -16.7230  -16.5698 H   0  0  0  0  0  0  0  0  0  0  0  0
   -1.3557  -17.0682  -18.5079 H   0  0  0  0  0  0  0  0  0  0  0  0
   -2.5102  -15.9661  -19.1080 H   0  0  0  0  0  0  0  0  0  0  0  0
  1  2  1  0  0  0
  1  6  2  0  0  0
  2  3  2  0  0  0
  2  7  1  0  0  0
  3  4  1  0  0  0
  4  5  2  0  0  0
  5  6  1  0  0  0
  1  8  1  0  0  0
  7  9  1  0  0  0
  7 10  1  0  0  0
M  CHG 1   1   1
M  END
> <minimizedAffinity>
-5.01259

$$$$
5MN1_2AP_A_306


 10 10  0  0  0  0  0  0  0  0999 V2000
   -1.0716  -16.0765  -18.1088 N   0  0  0  0  0  0  0  0  0  0  0  0
   -0.3730  -16.2672  -16.9789 C   0  0  0  0  0  0  0  0  0  0  0  0
   -0.6109  -15.5076  -15.8235 C   0  0  0  0  0  0  0  0  0  0  0  0
   -1.5888  -14.5327  -15.8743 C   0  0  0  0  0  0  0  0  0  0  0  0
   -2.3009  -14.3371  -17.0324 C   0  0  0  0  0  0  0  0  0  0  0  0
   -2.0085  -15.1192  -18.1084 C   0  0  0  0  0  0  0  0  0  0  0  0
    0.5911  -17.1829  -17.0202 N   0  0  0  0  0  0  0  0  0  0  0  0
   -0.9013  -16.6216  -18.9107 H   0  0  0  0  0  0  0  0  0  0  0  0
    0.7399  -17.7043  -17.8420 H   0  0  0  0  0  0  0  0  0  0  0  0
    1.1557  -17.3393  -16.2290 H   0  0  0  0  0  0  0  0  0  0  0  0
  1  2  1  0  0  0
  1  6  2  0  0  0
  2  3  2  0  0  0
  2  7  1  0  0  0
  3  4  1  0  0  0
  4  5  2  0  0  0
  5  6  1  0  0  0
  1  8  1  0  0  0
  7  9  1  0  0  0
  7 10  1  0  0  0
M  CHG 1   1   1
M  END
> <minimizedAffinity>
-4.73668

$$$$
5MN1_2AP_A_306


 10 10  0  0  0  0  0  0  0  0999 V2000
   -0.1667  -14.5396  -14.7420 N   0  0  0  0  0  0  0  0  0  0  0  0
   -0.3554  -13.2130  -14.8180 C   0  0  0  0  0  0  0  0  0  0  0  0
   -1.2679  -12.6450  -15.7198 C   0  0  0  0  0  0  0  0  0  0  0  0
   -1.9743  -13.4917  -16.5525 C   0  0  0  0  0  0  0  0  0  0  0  0
   -1.7777  -14.8489  -16.4751 C   0  0  0  0  0  0  0  0  0  0  0  0
   -0.8745  -15.3186  -15.5704 C   0  0  0  0  0  0  0  0  0  0  0  0
    0.4000  -12.4560  -14.0270 N   0  0  0  0  0  0  0  0  0  0  0  0
    0.4704  -14.9271  -14.0992 H   0  0  0  0  0  0  0  0  0  0  0  0
    1.0336  -12.8766  -13.4018 H   0  0  0  0  0  0  0  0  0  0  0  0
    0.3255  -11.4751  -14.0667 H   0  0  0  0  0  0  0  0  0  0  0  0
  1  2  1  0  0  0
  1  6  2  0  0  0
  2  3  2  0  0  0
  2  7  1  0  0  0
  3  4  1  0  0  0
  4  5  2  0  0  0
  5  6  1  0  0  0
  1  8  1  0  0  0
  7  9  1  0  0  0
  7 10  1  0  0  0
M  CHG 1   1   1
M  END
> <minimizedAffinity>
-4.46321

$$$$
5MN1_2AP_A_306


 10 10  0  0  0  0  0  0  0  0999 V2000
   -1.2530  -12.6486  -15.8721 N   0  0  0  0  0  0  0  0  0  0  0  0
   -0.5487  -13.4444  -15.0524 C   0  0  0  0  0  0  0  0  0  0  0  0
   -0.6107  -14.8431  -15.1439 C   0  0  0  0  0  0  0  0  0  0  0  0
   -1.4347  -15.3975  -16.1046 C   0  0  0  0  0  0  0  0  0  0  0  0
   -2.1568  -14.5815  -16.9407 C   0  0  0  0  0  0  0  0  0  0  0  0
   -2.0378  -13.2335  -16.7864 C   0  0  0  0  0  0  0  0  0  0  0  0
    0.1784  -12.8425  -14.1150 N   0  0  0  0  0  0  0  0  0  0  0  0
   -1.1948  -11.6682  -15.8037 H   0  0  0  0  0  0  0  0  0  0  0  0
    0.2070  -11.8595  -14.0699 H   0  0  0  0  0  0  0  0  0  0  0  0
    0.6880  -13.3801  -13.4665 H   0  0  0  0  0  0  0  0  0  0  0  0
  1  2  1  0  0  0
  1  6  2  0  0  0
  2  3  2  0  0  0
  2  7  1  0  0  0
  3  4  1  0  0  0
  4  5  2  0  0  0
  5  6  1  0  0  0
  1  8  1  0  0  0
  7  9  1  0  0  0
  7 10  1  0  0  0
M  CHG 1   1   1
M  END
> <minimizedAffinity>
-4.35962

$$$$
5MN1_2AP_A_306


 10 10  0  0  0  0  0  0  0  0999 V2000
   -1.9194  -14.3676  -17.4322 N   0  0  0  0  0  0  0  0  0  0  0  0
   -1.8949  -13.1598  -16.8475 C   0  0  0  0  0  0  0  0  0  0  0  0
   -1.5617  -12.9984  -15.4942 C   0  0  0  0  0  0  0  0  0  0  0  0
   -1.2643  -14.1285  -14.7568 C   0  0  0  0  0  0  0  0  0  0  0  0
   -1.2925  -15.3639  -15.3563 C   0  0  0  0  0  0  0  0  0  0  0  0
   -1.6241  -15.4326  -16.6755 C   0  0  0  0  0  0  0  0  0  0  0  0
   -2.2479  -12.1233  -17.6030 N   0  0  0  0  0  0  0  0  0  0  0  0
   -2.1466  -14.4674  -18.3849 H   0  0  0  0  0  0  0  0  0  0  0  0
   -2.4776  -12.2604  -18.5504 H   0  0  0  0  0  0  0  0  0  0  0  0
   -2.2793  -11.2192  -17.2146 H   0  0  0  0  0  0  0  0  0  0  0  0
  1  2  1  0  0  0
  1  6  2  0  0  0
  2  3  2  0  0  0
  2  7  1  0  0  0
  3  4  1  0  0  0
  4  5  2  0  0  0
  5  6  1  0  0  0
  1  8  1  0  0  0
  7  9  1  0  0  0
  7 10  1  0  0  0
M  CHG 1   1   1
M  END
> <minimizedAffinity>
-4.07374

$$$$
5MN1_2AP_A_306


 10 10  0  0  0  0  0  0  0  0999 V2000
   -0.0260  -13.0587  -14.1935 N   0  0  0  0  0  0  0  0  0  0  0  0
   -0.9509  -13.8407  -14.7717 C   0  0  0  0  0  0  0  0  0  0  0  0
   -1.6618  -13.4301  -15.9095 C   0  0  0  0  0  0  0  0  0  0  0  0
   -1.3955  -12.1771  -16.4275 C   0  0  0  0  0  0  0  0  0  0  0  0
   -0.4506  -11.3772  -15.8327 C   0  0  0  0  0  0  0  0  0  0  0  0
    0.1958  -11.8527  -14.7323 C   0  0  0  0  0  0  0  0  0  0  0  0
   -1.1957  -15.0096  -14.1857 N   0  0  0  0  0  0  0  0  0  0  0  0
    0.4724  -13.3613  -13.4002 H   0  0  0  0  0  0  0  0  0  0  0  0
   -0.6843  -15.2769  -13.3881 H   0  0  0  0  0  0  0  0  0  0  0  0
   -1.8882  -15.6072  -14.5496 H   0  0  0  0  0  0  0  0  0  0  0  0
  1  2  1  0  0  0
  1  6  2  0  0  0
  2  3  2  0  0  0
  2  7  1  0  0  0
  3  4  1  0  0  0
  4  5  2  0  0  0
  5  6  1  0  0  0
  1  8  1  0  0  0
  7  9  1  0  0  0
  7 10  1  0  0  0
M  CHG 1   1   1
M  END
> <minimizedAffinity>
-3.81655

$$$$
5MN1_2AP_A_306


 10 10  0  0  0  0  0  0  0  0999 V2000
    0.7713  -11.9994  -13.6328 N   0  0  0  0  0  0  0  0  0  0  0  0
   -0.2118  -12.3824  -14.4625 C   0  0  0  0  0  0  0  0  0  0  0  0
   -0.5057  -11.6762  -15.6386 C   0  0  0  0  0  0  0  0  0  0  0  0
    0.2422  -10.5507  -15.9274 C   0  0  0  0  0  0  0  0  0  0  0  0
    1.2460  -10.1589  -15.0757 C   0  0  0  0  0  0  0  0  0  0  0  0
    1.4676  -10.9018  -13.9560 C   0  0  0  0  0  0  0  0  0  0  0  0
   -0.9273  -13.4408  -14.0921 N   0  0  0  0  0  0  0  0  0  0  0  0
    0.9737  -12.5081  -12.8146 H   0  0  0  0  0  0  0  0  0  0  0  0
   -0.7027  -13.9211  -13.2626 H   0  0  0  0  0  0  0  0  0  0  0  0
   -1.6816  -13.7439  -14.6476 H   0  0  0  0  0  0  0  0  0  0  0  0
  1  2  1  0  0  0
  1  6  2  0  0  0
  2  3  2  0  0  0
  2  7  1  0  0  0
  3  4  1  0  0  0
  4  5  2  0  0  0
  5  6  1  0  0  0
  1  8  1  0  0  0
  7  9  1  0  0  0
  7 10  1  0  0  0
M  CHG 1   1   1
M  END
> <minimizedAffinity>
-3.57109

$$$$
5MN1_2AP_A_306


 10 10  0  0  0  0  0  0  0  0999 V2000
    0.8953  -12.0235  -13.7806 N   0  0  0  0  0  0  0  0  0  0  0  0
    1.5263  -10.9313  -14.2393 C   0  0  0  0  0  0  0  0  0  0  0  0
    1.0748  -10.2351  -15.3706 C   0  0  0  0  0  0  0  0  0  0  0  0
   -0.0466  -10.7100  -16.0236 C   0  0  0  0  0  0  0  0  0  0  0  0
   -0.6893  -11.8294  -15.5543 C   0  0  0  0  0  0  0  0  0  0  0  0
   -0.1867  -12.4449  -14.4482 C   0  0  0  0  0  0  0  0  0  0  0  0
    2.6312  -10.5653  -13.5952 N   0  0  0  0  0  0  0  0  0  0  0  0
    1.2169  -12.4987  -12.9806 H   0  0  0  0  0  0  0  0  0  0  0  0
    2.9291  -11.0688  -12.8034 H   0  0  0  0  0  0  0  0  0  0  0  0
    3.1510   -9.7909  -13.9103 H   0  0  0  0  0  0  0  0  0  0  0  0
  1  2  1  0  0  0
  1  6  2  0  0  0
  2  3  2  0  0  0
  2  7  1  0  0  0
  3  4  1  0  0  0
  4  5  2  0  0  0
  5  6  1  0  0  0
  1  8  1  0  0  0
  7  9  1  0  0  0
  7 10  1  0  0  0
M  CHG 1   1   1
M  END
> <minimizedAffinity>
-3.53207

$$$$
5MN1_2AP_A_306


 10 10  0  0  0  0  0  0  0  0999 V2000
   -1.1887  -13.0324  -13.6838 N   0  0  0  0  0  0  0  0  0  0  0  0
   -0.4730  -11.9014  -13.5851 C   0  0  0  0  0  0  0  0  0  0  0  0
   -0.1730  -11.1141  -14.7070 C   0  0  0  0  0  0  0  0  0  0  0  0
   -0.6269  -11.5383  -15.9412 C   0  0  0  0  0  0  0  0  0  0  0  0
   -1.3569  -12.6975  -16.0406 C   0  0  0  0  0  0  0  0  0  0  0  0
   -1.6058  -13.4019  -14.9018 C   0  0  0  0  0  0  0  0  0  0  0  0
   -0.0203  -11.5849  -12.3749 N   0  0  0  0  0  0  0  0  0  0  0  0
   -1.4000  -13.5721  -12.8880 H   0  0  0  0  0  0  0  0  0  0  0  0
   -0.2435  -12.1522  -11.6019 H   0  0  0  0  0  0  0  0  0  0  0  0
    0.5380  -10.7833  -12.2523 H   0  0  0  0  0  0  0  0  0  0  0  0
  1  2  1  0  0  0
  1  6  2  0  0  0
  2  3  2  0  0  0
  2  7  1  0  0  0
  3  4  1  0  0  0
  4  5  2  0  0  0
  5  6  1  0  0  0
  1  8  1  0  0  0
  7  9  1  0  0  0
  7 10  1  0  0  0
M  CHG 1   1   1
M  END
> <minimizedAffinity>
-3.49573

$$$$
