4LJ5_ADP_A_901


 34 36  0  0  0  0  0  0  0  0999 V2000
   52.9355   24.1730   48.0223 C   0  0  0  0  0  0  0  0  0  0  0  0
   52.5282   25.2290   47.1489 O   0  0  0  0  0  0  0  0  0  0  0  0
   51.7240   23.7889   48.8644 C   0  0  0  0  0  0  0  0  0  0  0  0
   52.0269   23.8223   50.2619 O   0  0  0  0  0  0  0  0  0  0  0  0
   50.6503   24.7992   48.5185 C   0  0  0  0  0  0  0  0  0  0  0  0
   50.4942   25.7701   49.5581 O   0  0  0  0  0  0  0  0  0  0  0  0
   51.1242   25.4718   47.2414 C   0  0  0  0  0  0  0  0  0  0  0  0
   52.3207   24.7135   50.5079 H   0  0  0  0  0  0  0  0  0  0  0  0
   51.3372   26.2278   49.7022 H   0  0  0  0  0  0  0  0  0  0  0  0
   50.4230   24.9274   46.0466 N   0  0  0  0  0  0  0  0  0  0  0  0
   50.9946   24.5125   44.8986 C   0  0  0  0  0  0  0  0  0  0  0  0
   50.0608   24.0831   44.0146 N   0  0  0  0  0  0  0  0  0  0  0  0
   48.8613   24.2241   44.5943 C   0  0  0  0  0  0  0  0  0  0  0  0
   47.4528   23.9675   44.2171 C   0  0  0  0  0  0  0  0  0  0  0  0
   47.1422   23.4558   43.0095 N   0  0  0  0  0  0  0  0  0  0  0  0
   46.4905   24.2584   45.1230 N   0  0  0  0  0  0  0  0  0  0  0  0
   46.7873   24.7678   46.3366 C   0  0  0  0  0  0  0  0  0  0  0  0
   48.0454   25.0249   46.7378 N   0  0  0  0  0  0  0  0  0  0  0  0
   49.1044   24.7799   45.9309 C   0  0  0  0  0  0  0  0  0  0  0  0
   47.8561   23.2505   42.3635 H   0  0  0  0  0  0  0  0  0  0  0  0
   46.2013   23.2874   42.7735 H   0  0  0  0  0  0  0  0  0  0  0  0
   53.4822   23.0256   47.1826 C   0  0  0  0  0  0  0  0  0  0  0  0
   52.4121   22.2130   46.7145 O   0  0  0  0  0  0  0  0  0  0  0  0
   52.4285   20.6104   46.8618 P   0  0  0  0  0  0  0  0  0  0  0  0
   51.0406   20.0861   47.1607 O   0  0  0  0  0  0  0  0  0  0  0  0
   53.5683   20.3259   47.8050 O   0  0  0  0  0  0  0  0  0  0  0  0
   53.6416   19.3688   47.9442 H   0  0  0  0  0  0  0  0  0  0  0  0
   52.8301   20.1374   45.3779 O   0  0  0  0  0  0  0  0  0  0  0  0
   53.6180   18.7637   45.1112 P   0  0  0  0  0  0  0  0  0  0  0  0
   55.0326   19.0699   45.5324 O   0  0  0  0  0  0  0  0  0  0  0  0
   52.9076   17.7622   45.9875 O   0  0  0  0  0  0  0  0  0  0  0  0
   53.4385   18.5377   43.6335 O   0  0  0  0  0  0  0  0  0  0  0  0
   53.3243   16.8920   45.8873 H   0  0  0  0  0  0  0  0  0  0  0  0
   53.8875   17.7177   43.3749 H   0  0  0  0  0  0  0  0  0  0  0  0
 29 30  2  0  0  0
 29 31  1  0  0  0
 29 32  1  0  0  0
 29 28  1  0  0  0
 24 25  2  0  0  0
 24 26  1  0  0  0
 24 28  1  0  0  0
 24 23  1  0  0  0
 23 22  1  0  0  0
 22  1  1  0  0  0
  1  2  1  0  0  0
  1  3  1  0  0  0
  2  7  1  0  0  0
  3  4  1  0  0  0
  3  5  1  0  0  0
  5  6  1  0  0  0
  5  7  1  0  0  0
  7 10  1  0  0  0
 10 11  1  0  0  0
 10 19  1  0  0  0
 11 12  2  0  0  0
 12 13  1  0  0  0
 13 14  1  0  0  0
 13 19  2  0  0  0
 14 15  1  0  0  0
 14 16  2  0  0  0
 16 17  1  0  0  0
 17 18  2  0  0  0
 18 19  1  0  0  0
 31 33  1  0  0  0
 32 34  1  0  0  0
 26 27  1  0  0  0
  4  8  1  0  0  0
  6  9  1  0  0  0
 15 20  1  0  0  0
 15 21  1  0  0  0
M  END
> <minimizedAffinity>
-9.36145

$$$$
4LJ5_ADP_A_901


 34 36  0  0  0  0  0  0  0  0999 V2000
   53.4859   23.9139   47.1197 C   0  0  0  0  0  0  0  0  0  0  0  0
   52.7731   24.9072   46.3787 O   0  0  0  0  0  0  0  0  0  0  0  0
   53.4241   24.3141   48.5895 C   0  0  0  0  0  0  0  0  0  0  0  0
   54.7294   24.3680   49.1721 O   0  0  0  0  0  0  0  0  0  0  0  0
   52.7636   25.6766   48.6136 C   0  0  0  0  0  0  0  0  0  0  0  0
   53.7208   26.7156   48.8414 O   0  0  0  0  0  0  0  0  0  0  0  0
   52.1279   25.8421   47.2437 C   0  0  0  0  0  0  0  0  0  0  0  0
   55.2739   25.0073   48.6867 H   0  0  0  0  0  0  0  0  0  0  0  0
   54.3946   26.6931   48.1440 H   0  0  0  0  0  0  0  0  0  0  0  0
   50.6628   25.5833   47.2883 N   0  0  0  0  0  0  0  0  0  0  0  0
   49.8442   25.7751   48.3418 C   0  0  0  0  0  0  0  0  0  0  0  0
   48.5688   25.4289   48.0396 N   0  0  0  0  0  0  0  0  0  0  0  0
   48.5568   25.0010   46.7702 C   0  0  0  0  0  0  0  0  0  0  0  0
   47.5422   24.4841   45.8238 C   0  0  0  0  0  0  0  0  0  0  0  0
   46.2518   24.3600   46.1927 N   0  0  0  0  0  0  0  0  0  0  0  0
   47.9504   24.1453   44.5790 N   0  0  0  0  0  0  0  0  0  0  0  0
   49.2382   24.2674   44.1953 C   0  0  0  0  0  0  0  0  0  0  0  0
   50.2063   24.7282   45.0078 N   0  0  0  0  0  0  0  0  0  0  0  0
   49.9365   25.1042   46.2799 C   0  0  0  0  0  0  0  0  0  0  0  0
   45.9737   24.6116   47.1029 H   0  0  0  0  0  0  0  0  0  0  0  0
   45.5874   24.0177   45.5519 H   0  0  0  0  0  0  0  0  0  0  0  0
   52.8685   22.5511   46.8330 C   0  0  0  0  0  0  0  0  0  0  0  0
   53.7855   21.5196   47.1788 O   0  0  0  0  0  0  0  0  0  0  0  0
   53.4072   19.9608   47.0481 P   0  0  0  0  0  0  0  0  0  0  0  0
   51.9553   19.7934   46.6551 O   0  0  0  0  0  0  0  0  0  0  0  0
   53.9292   19.3343   48.3148 O   0  0  0  0  0  0  0  0  0  0  0  0
   53.7361   18.3837   48.3088 H   0  0  0  0  0  0  0  0  0  0  0  0
   54.3158   19.4942   45.8056 O   0  0  0  0  0  0  0  0  0  0  0  0
   53.9150   18.2388   44.8879 P   0  0  0  0  0  0  0  0  0  0  0  0
   55.2216   17.8093   44.2708 O   0  0  0  0  0  0  0  0  0  0  0  0
   53.3291   17.2486   45.8636 O   0  0  0  0  0  0  0  0  0  0  0  0
   52.9225   18.8181   43.9152 O   0  0  0  0  0  0  0  0  0  0  0  0
   53.0564   16.4486   45.3878 H   0  0  0  0  0  0  0  0  0  0  0  0
   52.6190   18.1231   43.3104 H   0  0  0  0  0  0  0  0  0  0  0  0
 29 30  2  0  0  0
 29 31  1  0  0  0
 29 32  1  0  0  0
 29 28  1  0  0  0
 24 25  2  0  0  0
 24 26  1  0  0  0
 24 28  1  0  0  0
 24 23  1  0  0  0
 23 22  1  0  0  0
 22  1  1  0  0  0
  1  2  1  0  0  0
  1  3  1  0  0  0
  2  7  1  0  0  0
  3  4  1  0  0  0
  3  5  1  0  0  0
  5  6  1  0  0  0
  5  7  1  0  0  0
  7 10  1  0  0  0
 10 11  1  0  0  0
 10 19  1  0  0  0
 11 12  2  0  0  0
 12 13  1  0  0  0
 13 14  1  0  0  0
 13 19  2  0  0  0
 14 15  1  0  0  0
 14 16  2  0  0  0
 16 17  1  0  0  0
 17 18  2  0  0  0
 18 19  1  0  0  0
 31 33  1  0  0  0
 32 34  1  0  0  0
 26 27  1  0  0  0
  4  8  1  0  0  0
  6  9  1  0  0  0
 15 20  1  0  0  0
 15 21  1  0  0  0
M  END
> <minimizedAffinity>
-8.70708

$$$$
4LJ5_ADP_A_901


 34 36  0  0  0  0  0  0  0  0999 V2000
   54.0583   19.5136   47.4135 C   0  0  0  0  0  0  0  0  0  0  0  0
   53.6295   20.2536   48.5591 O   0  0  0  0  0  0  0  0  0  0  0  0
   53.1334   19.8873   46.2606 C   0  0  0  0  0  0  0  0  0  0  0  0
   52.5594   18.7264   45.6533 O   0  0  0  0  0  0  0  0  0  0  0  0
   52.0608   20.7675   46.8673 C   0  0  0  0  0  0  0  0  0  0  0  0
   50.8297   20.0554   47.0243 O   0  0  0  0  0  0  0  0  0  0  0  0
   52.6005   21.1852   48.2247 C   0  0  0  0  0  0  0  0  0  0  0  0
   52.0599   18.2272   46.3182 H   0  0  0  0  0  0  0  0  0  0  0  0
   50.9739   19.2812   47.5907 H   0  0  0  0  0  0  0  0  0  0  0  0
   53.1442   22.5703   48.1919 N   0  0  0  0  0  0  0  0  0  0  0  0
   53.5663   23.2428   47.1027 C   0  0  0  0  0  0  0  0  0  0  0  0
   54.0088   24.4809   47.4332 N   0  0  0  0  0  0  0  0  0  0  0  0
   53.8766   24.6159   48.7594 C   0  0  0  0  0  0  0  0  0  0  0  0
   54.1570   25.6688   49.7619 C   0  0  0  0  0  0  0  0  0  0  0  0
   54.6773   26.8557   49.3916 N   0  0  0  0  0  0  0  0  0  0  0  0
   53.8708   25.4033   51.0576 N   0  0  0  0  0  0  0  0  0  0  0  0
   53.3467   24.2209   51.4420 C   0  0  0  0  0  0  0  0  0  0  0  0
   53.0714   23.2247   50.5809 N   0  0  0  0  0  0  0  0  0  0  0  0
   53.3076   23.3567   49.2545 C   0  0  0  0  0  0  0  0  0  0  0  0
   54.8790   27.0306   48.4440 H   0  0  0  0  0  0  0  0  0  0  0  0
   54.8557   27.5477   50.0687 H   0  0  0  0  0  0  0  0  0  0  0  0
   55.5241   19.8303   47.1457 C   0  0  0  0  0  0  0  0  0  0  0  0
   55.9451   19.2008   45.9411 O   0  0  0  0  0  0  0  0  0  0  0  0
   56.1416   17.6071   45.8332 P   0  0  0  0  0  0  0  0  0  0  0  0
   54.9921   16.8799   46.4968 O   0  0  0  0  0  0  0  0  0  0  0  0
   57.5576   17.3660   46.2876 O   0  0  0  0  0  0  0  0  0  0  0  0
   57.7521   16.4165   46.2497 H   0  0  0  0  0  0  0  0  0  0  0  0
   56.0380   17.3591   44.2474 O   0  0  0  0  0  0  0  0  0  0  0  0
   56.6338   16.0375   43.5565 P   0  0  0  0  0  0  0  0  0  0  0  0
   58.1069   16.3296   43.4260 O   0  0  0  0  0  0  0  0  0  0  0  0
   56.2989   14.9361   44.5313 O   0  0  0  0  0  0  0  0  0  0  0  0
   55.8915   15.9604   42.2488 O   0  0  0  0  0  0  0  0  0  0  0  0
   56.6269   14.0900   44.1885 H   0  0  0  0  0  0  0  0  0  0  0  0
   56.1889   15.1811   41.7536 H   0  0  0  0  0  0  0  0  0  0  0  0
 29 30  2  0  0  0
 29 31  1  0  0  0
 29 32  1  0  0  0
 29 28  1  0  0  0
 24 25  2  0  0  0
 24 26  1  0  0  0
 24 28  1  0  0  0
 24 23  1  0  0  0
 23 22  1  0  0  0
 22  1  1  0  0  0
  1  2  1  0  0  0
  1  3  1  0  0  0
  2  7  1  0  0  0
  3  4  1  0  0  0
  3  5  1  0  0  0
  5  6  1  0  0  0
  5  7  1  0  0  0
  7 10  1  0  0  0
 10 11  1  0  0  0
 10 19  1  0  0  0
 11 12  2  0  0  0
 12 13  1  0  0  0
 13 14  1  0  0  0
 13 19  2  0  0  0
 14 15  1  0  0  0
 14 16  2  0  0  0
 16 17  1  0  0  0
 17 18  2  0  0  0
 18 19  1  0  0  0
 31 33  1  0  0  0
 32 34  1  0  0  0
 26 27  1  0  0  0
  4  8  1  0  0  0
  6  9  1  0  0  0
 15 20  1  0  0  0
 15 21  1  0  0  0
M  END
> <minimizedAffinity>
-8.45440

$$$$
4LJ5_ADP_A_901


 34 36  0  0  0  0  0  0  0  0999 V2000
   55.1902   18.7346   50.0209 C   0  0  0  0  0  0  0  0  0  0  0  0
   55.2195   17.4365   49.4228 O   0  0  0  0  0  0  0  0  0  0  0  0
   56.5359   18.9489   50.7047 C   0  0  0  0  0  0  0  0  0  0  0  0
   56.3723   19.3215   52.0759 O   0  0  0  0  0  0  0  0  0  0  0  0
   57.2683   17.6288   50.5858 C   0  0  0  0  0  0  0  0  0  0  0  0
   57.2648   16.9174   51.8273 O   0  0  0  0  0  0  0  0  0  0  0  0
   56.5128   16.8409   49.5291 C   0  0  0  0  0  0  0  0  0  0  0  0
   55.8805   18.6279   52.5429 H   0  0  0  0  0  0  0  0  0  0  0  0
   56.3494   16.7575   52.1057 H   0  0  0  0  0  0  0  0  0  0  0  0
   57.2126   16.8808   48.2160 N   0  0  0  0  0  0  0  0  0  0  0  0
   58.3458   17.5518   47.9289 C   0  0  0  0  0  0  0  0  0  0  0  0
   58.7029   17.3767   46.6329 N   0  0  0  0  0  0  0  0  0  0  0  0
   57.7858   16.5821   46.0654 C   0  0  0  0  0  0  0  0  0  0  0  0
   57.5537   16.0035   44.7224 C   0  0  0  0  0  0  0  0  0  0  0  0
   58.4054   16.2487   43.7069 N   0  0  0  0  0  0  0  0  0  0  0  0
   56.4645   15.2195   44.5491 N   0  0  0  0  0  0  0  0  0  0  0  0
   55.6055   14.9631   45.5575 C   0  0  0  0  0  0  0  0  0  0  0  0
   55.7598   15.4596   46.7982 N   0  0  0  0  0  0  0  0  0  0  0  0
   56.8072   16.2583   47.1104 C   0  0  0  0  0  0  0  0  0  0  0  0
   59.1926   16.8218   43.8522 H   0  0  0  0  0  0  0  0  0  0  0  0
   58.2402   15.8548   42.8199 H   0  0  0  0  0  0  0  0  0  0  0  0
   54.8844   19.7651   48.9415 C   0  0  0  0  0  0  0  0  0  0  0  0
   53.6161   19.4942   48.3562 O   0  0  0  0  0  0  0  0  0  0  0  0
   53.0735   20.3079   47.0781 P   0  0  0  0  0  0  0  0  0  0  0  0
   53.2686   21.7965   47.2689 O   0  0  0  0  0  0  0  0  0  0  0  0
   51.6982   19.7475   46.8252 O   0  0  0  0  0  0  0  0  0  0  0  0
   51.3026   20.1941   46.0604 H   0  0  0  0  0  0  0  0  0  0  0  0
   54.0729   19.8201   45.9161 O   0  0  0  0  0  0  0  0  0  0  0  0
   53.7929   18.4893   45.0619 P   0  0  0  0  0  0  0  0  0  0  0  0
   52.7502   18.9147   44.0599 O   0  0  0  0  0  0  0  0  0  0  0  0
   55.1358   18.1537   44.4625 O   0  0  0  0  0  0  0  0  0  0  0  0
   53.3070   17.5062   46.0937 O   0  0  0  0  0  0  0  0  0  0  0  0
   55.0577   17.3514   43.9229 H   0  0  0  0  0  0  0  0  0  0  0  0
   53.1093   16.6588   45.6650 H   0  0  0  0  0  0  0  0  0  0  0  0
 29 30  2  0  0  0
 29 31  1  0  0  0
 29 32  1  0  0  0
 29 28  1  0  0  0
 24 25  2  0  0  0
 24 26  1  0  0  0
 24 28  1  0  0  0
 24 23  1  0  0  0
 23 22  1  0  0  0
 22  1  1  0  0  0
  1  2  1  0  0  0
  1  3  1  0  0  0
  2  7  1  0  0  0
  3  4  1  0  0  0
  3  5  1  0  0  0
  5  6  1  0  0  0
  5  7  1  0  0  0
  7 10  1  0  0  0
 10 11  1  0  0  0
 10 19  1  0  0  0
 11 12  2  0  0  0
 12 13  1  0  0  0
 13 14  1  0  0  0
 13 19  2  0  0  0
 14 15  1  0  0  0
 14 16  2  0  0  0
 16 17  1  0  0  0
 17 18  2  0  0  0
 18 19  1  0  0  0
 31 33  1  0  0  0
 32 34  1  0  0  0
 26 27  1  0  0  0
  4  8  1  0  0  0
  6  9  1  0  0  0
 15 20  1  0  0  0
 15 21  1  0  0  0
M  END
> <minimizedAffinity>
-8.17027

$$$$
4LJ5_ADP_A_901


 34 36  0  0  0  0  0  0  0  0999 V2000
   53.9296   19.7998   47.6675 C   0  0  0  0  0  0  0  0  0  0  0  0
   53.3490   20.5818   48.7139 O   0  0  0  0  0  0  0  0  0  0  0  0
   53.0894   20.0236   46.4151 C   0  0  0  0  0  0  0  0  0  0  0  0
   52.6540   18.7842   45.8492 O   0  0  0  0  0  0  0  0  0  0  0  0
   51.9083   20.8601   46.8608 C   0  0  0  0  0  0  0  0  0  0  0  0
   50.7199   20.0699   46.9647 O   0  0  0  0  0  0  0  0  0  0  0  0
   52.2928   21.4086   48.2244 C   0  0  0  0  0  0  0  0  0  0  0  0
   52.1318   18.2953   46.5044 H   0  0  0  0  0  0  0  0  0  0  0  0
   50.8651   19.3491   47.5975 H   0  0  0  0  0  0  0  0  0  0  0  0
   52.7408   22.8252   48.1351 N   0  0  0  0  0  0  0  0  0  0  0  0
   53.6437   23.3299   47.2710 C   0  0  0  0  0  0  0  0  0  0  0  0
   53.8224   24.6588   47.4709 N   0  0  0  0  0  0  0  0  0  0  0  0
   53.0262   25.0251   48.4841 C   0  0  0  0  0  0  0  0  0  0  0  0
   52.7262   26.2797   49.2109 C   0  0  0  0  0  0  0  0  0  0  0  0
   53.3321   27.4358   48.8746 N   0  0  0  0  0  0  0  0  0  0  0  0
   51.8238   26.2291   50.2179 N   0  0  0  0  0  0  0  0  0  0  0  0
   51.2074   25.0796   50.5630 C   0  0  0  0  0  0  0  0  0  0  0  0
   51.4377   23.9078   49.9436 N   0  0  0  0  0  0  0  0  0  0  0  0
   52.3165   23.8157   48.9180 C   0  0  0  0  0  0  0  0  0  0  0  0
   53.9861   27.4529   48.1389 H   0  0  0  0  0  0  0  0  0  0  0  0
   53.1206   28.2630   49.3646 H   0  0  0  0  0  0  0  0  0  0  0  0
   55.3884   20.2067   47.5030 C   0  0  0  0  0  0  0  0  0  0  0  0
   56.0347   19.3363   46.5814 O   0  0  0  0  0  0  0  0  0  0  0  0
   56.9502   18.1049   47.0671 P   0  0  0  0  0  0  0  0  0  0  0  0
   56.3407   17.4291   48.2764 O   0  0  0  0  0  0  0  0  0  0  0  0
   58.3450   18.6702   47.1344 O   0  0  0  0  0  0  0  0  0  0  0  0
   58.9606   17.9786   47.4234 H   0  0  0  0  0  0  0  0  0  0  0  0
   56.8423   17.0908   45.8234 O   0  0  0  0  0  0  0  0  0  0  0  0
   55.4290   16.7046   45.1659 P   0  0  0  0  0  0  0  0  0  0  0  0
   55.7102   15.4182   44.4322 O   0  0  0  0  0  0  0  0  0  0  0  0
   54.5055   16.5601   46.3498 O   0  0  0  0  0  0  0  0  0  0  0  0
   55.1233   17.8802   44.2761 O   0  0  0  0  0  0  0  0  0  0  0  0
   53.6171   16.3243   46.0400 H   0  0  0  0  0  0  0  0  0  0  0  0
   54.2746   17.7355   43.8294 H   0  0  0  0  0  0  0  0  0  0  0  0
 29 30  2  0  0  0
 29 31  1  0  0  0
 29 32  1  0  0  0
 29 28  1  0  0  0
 24 25  2  0  0  0
 24 26  1  0  0  0
 24 28  1  0  0  0
 24 23  1  0  0  0
 23 22  1  0  0  0
 22  1  1  0  0  0
  1  2  1  0  0  0
  1  3  1  0  0  0
  2  7  1  0  0  0
  3  4  1  0  0  0
  3  5  1  0  0  0
  5  6  1  0  0  0
  5  7  1  0  0  0
  7 10  1  0  0  0
 10 11  1  0  0  0
 10 19  1  0  0  0
 11 12  2  0  0  0
 12 13  1  0  0  0
 13 14  1  0  0  0
 13 19  2  0  0  0
 14 15  1  0  0  0
 14 16  2  0  0  0
 16 17  1  0  0  0
 17 18  2  0  0  0
 18 19  1  0  0  0
 31 33  1  0  0  0
 32 34  1  0  0  0
 26 27  1  0  0  0
  4  8  1  0  0  0
  6  9  1  0  0  0
 15 20  1  0  0  0
 15 21  1  0  0  0
M  END
> <minimizedAffinity>
-8.08131

$$$$
4LJ5_ADP_A_901


 34 36  0  0  0  0  0  0  0  0999 V2000
   53.0534   20.3380   47.8137 C   0  0  0  0  0  0  0  0  0  0  0  0
   52.4474   21.1550   48.8182 O   0  0  0  0  0  0  0  0  0  0  0  0
   52.9005   21.0675   46.4836 C   0  0  0  0  0  0  0  0  0  0  0  0
   52.2934   20.2307   45.4951 O   0  0  0  0  0  0  0  0  0  0  0  0
   52.0343   22.2743   46.7778 C   0  0  0  0  0  0  0  0  0  0  0  0
   50.6969   22.0829   46.3065 O   0  0  0  0  0  0  0  0  0  0  0  0
   52.0407   22.4177   48.2902 C   0  0  0  0  0  0  0  0  0  0  0  0
   51.4211   19.9428   45.8068 H   0  0  0  0  0  0  0  0  0  0  0  0
   50.3146   21.2976   46.7286 H   0  0  0  0  0  0  0  0  0  0  0  0
   52.9737   23.4901   48.7317 N   0  0  0  0  0  0  0  0  0  0  0  0
   54.2254   23.3231   49.2030 C   0  0  0  0  0  0  0  0  0  0  0  0
   54.7912   24.5133   49.5208 N   0  0  0  0  0  0  0  0  0  0  0  0
   53.8926   25.4709   49.2562 C   0  0  0  0  0  0  0  0  0  0  0  0
   53.8367   26.9465   49.3639 C   0  0  0  0  0  0  0  0  0  0  0  0
   54.8907   27.6467   49.8281 N   0  0  0  0  0  0  0  0  0  0  0  0
   52.6981   27.5680   48.9785 N   0  0  0  0  0  0  0  0  0  0  0  0
   51.6367   26.8800   48.5090 C   0  0  0  0  0  0  0  0  0  0  0  0
   51.6245   25.5401   48.3888 N   0  0  0  0  0  0  0  0  0  0  0  0
   52.6984   24.7933   48.7373 C   0  0  0  0  0  0  0  0  0  0  0  0
   55.7108   27.1769   50.1039 H   0  0  0  0  0  0  0  0  0  0  0  0
   54.8405   28.6278   49.8915 H   0  0  0  0  0  0  0  0  0  0  0  0
   54.5030   20.0774   48.2023 C   0  0  0  0  0  0  0  0  0  0  0  0
   54.8375   18.7179   47.9481 O   0  0  0  0  0  0  0  0  0  0  0  0
   56.0327   18.3037   46.9531 P   0  0  0  0  0  0  0  0  0  0  0  0
   56.2761   16.8107   47.0012 O   0  0  0  0  0  0  0  0  0  0  0  0
   57.1463   19.2664   47.2736 O   0  0  0  0  0  0  0  0  0  0  0  0
   57.9106   19.0768   46.7071 H   0  0  0  0  0  0  0  0  0  0  0  0
   55.4137   18.6607   45.5122 O   0  0  0  0  0  0  0  0  0  0  0  0
   54.3350   17.7113   44.7953 P   0  0  0  0  0  0  0  0  0  0  0  0
   53.7353   18.5878   43.7255 O   0  0  0  0  0  0  0  0  0  0  0  0
   55.1566   16.5595   44.2719 O   0  0  0  0  0  0  0  0  0  0  0  0
   53.3911   17.3483   45.9108 O   0  0  0  0  0  0  0  0  0  0  0  0
   54.5764   15.9286   43.8177 H   0  0  0  0  0  0  0  0  0  0  0  0
   52.6941   16.7672   45.5683 H   0  0  0  0  0  0  0  0  0  0  0  0
 29 30  2  0  0  0
 29 31  1  0  0  0
 29 32  1  0  0  0
 29 28  1  0  0  0
 24 25  2  0  0  0
 24 26  1  0  0  0
 24 28  1  0  0  0
 24 23  1  0  0  0
 23 22  1  0  0  0
 22  1  1  0  0  0
  1  2  1  0  0  0
  1  3  1  0  0  0
  2  7  1  0  0  0
  3  4  1  0  0  0
  3  5  1  0  0  0
  5  6  1  0  0  0
  5  7  1  0  0  0
  7 10  1  0  0  0
 10 11  1  0  0  0
 10 19  1  0  0  0
 11 12  2  0  0  0
 12 13  1  0  0  0
 13 14  1  0  0  0
 13 19  2  0  0  0
 14 15  1  0  0  0
 14 16  2  0  0  0
 16 17  1  0  0  0
 17 18  2  0  0  0
 18 19  1  0  0  0
 31 33  1  0  0  0
 32 34  1  0  0  0
 26 27  1  0  0  0
  4  8  1  0  0  0
  6  9  1  0  0  0
 15 20  1  0  0  0
 15 21  1  0  0  0
M  END
> <minimizedAffinity>
-8.07863

$$$$
4LJ5_ADP_A_901


 34 36  0  0  0  0  0  0  0  0999 V2000
   54.1741   19.1705   47.0242 C   0  0  0  0  0  0  0  0  0  0  0  0
   53.9030   19.5676   48.3705 O   0  0  0  0  0  0  0  0  0  0  0  0
   53.2073   19.9316   46.1239 C   0  0  0  0  0  0  0  0  0  0  0  0
   52.4821   19.0448   45.2675 O   0  0  0  0  0  0  0  0  0  0  0  0
   52.2712   20.6666   47.0603 C   0  0  0  0  0  0  0  0  0  0  0  0
   50.9923   20.0279   47.1255 O   0  0  0  0  0  0  0  0  0  0  0  0
   52.9462   20.6261   48.4208 C   0  0  0  0  0  0  0  0  0  0  0  0
   51.9870   18.4079   45.8062 H   0  0  0  0  0  0  0  0  0  0  0  0
   51.1029   19.1130   47.4282 H   0  0  0  0  0  0  0  0  0  0  0  0
   53.6162   21.9176   48.7350 N   0  0  0  0  0  0  0  0  0  0  0  0
   54.8664   22.0796   49.2119 C   0  0  0  0  0  0  0  0  0  0  0  0
   55.1545   23.3919   49.3932 N   0  0  0  0  0  0  0  0  0  0  0  0
   54.0735   24.0960   49.0323 C   0  0  0  0  0  0  0  0  0  0  0  0
   53.6963   25.5267   48.9783 C   0  0  0  0  0  0  0  0  0  0  0  0
   54.5650   26.4859   49.3549 N   0  0  0  0  0  0  0  0  0  0  0  0
   52.4562   25.8394   48.5361 N   0  0  0  0  0  0  0  0  0  0  0  0
   51.5777   24.8898   48.1529 C   0  0  0  0  0  0  0  0  0  0  0  0
   51.8591   23.5746   48.1802 N   0  0  0  0  0  0  0  0  0  0  0  0
   53.0639   23.1221   48.6000 C   0  0  0  0  0  0  0  0  0  0  0  0
   55.4630   26.2390   49.6740 H   0  0  0  0  0  0  0  0  0  0  0  0
   54.3016   27.4335   49.3108 H   0  0  0  0  0  0  0  0  0  0  0  0
   55.6399   19.4484   46.7167 C   0  0  0  0  0  0  0  0  0  0  0  0
   56.1260   18.5028   45.7711 O   0  0  0  0  0  0  0  0  0  0  0  0
   56.9924   17.2205   46.2130 P   0  0  0  0  0  0  0  0  0  0  0  0
   57.9057   17.5643   47.3697 O   0  0  0  0  0  0  0  0  0  0  0  0
   57.5638   16.6848   44.9261 O   0  0  0  0  0  0  0  0  0  0  0  0
   58.1046   15.9017   45.1137 H   0  0  0  0  0  0  0  0  0  0  0  0
   55.8592   16.2160   46.7553 O   0  0  0  0  0  0  0  0  0  0  0  0
   54.8742   15.4328   45.7577 P   0  0  0  0  0  0  0  0  0  0  0  0
   53.6196   15.2340   46.5693 O   0  0  0  0  0  0  0  0  0  0  0  0
   54.7198   16.3730   44.5881 O   0  0  0  0  0  0  0  0  0  0  0  0
   55.6262   14.1664   45.4450 O   0  0  0  0  0  0  0  0  0  0  0  0
   54.1320   15.9738   43.9278 H   0  0  0  0  0  0  0  0  0  0  0  0
   55.1015   13.6200   44.8392 H   0  0  0  0  0  0  0  0  0  0  0  0
 29 30  2  0  0  0
 29 31  1  0  0  0
 29 32  1  0  0  0
 29 28  1  0  0  0
 24 25  2  0  0  0
 24 26  1  0  0  0
 24 28  1  0  0  0
 24 23  1  0  0  0
 23 22  1  0  0  0
 22  1  1  0  0  0
  1  2  1  0  0  0
  1  3  1  0  0  0
  2  7  1  0  0  0
  3  4  1  0  0  0
  3  5  1  0  0  0
  5  6  1  0  0  0
  5  7  1  0  0  0
  7 10  1  0  0  0
 10 11  1  0  0  0
 10 19  1  0  0  0
 11 12  2  0  0  0
 12 13  1  0  0  0
 13 14  1  0  0  0
 13 19  2  0  0  0
 14 15  1  0  0  0
 14 16  2  0  0  0
 16 17  1  0  0  0
 17 18  2  0  0  0
 18 19  1  0  0  0
 31 33  1  0  0  0
 32 34  1  0  0  0
 26 27  1  0  0  0
  4  8  1  0  0  0
  6  9  1  0  0  0
 15 20  1  0  0  0
 15 21  1  0  0  0
M  END
> <minimizedAffinity>
-7.94186

$$$$
4LJ5_ADP_A_901


 34 36  0  0  0  0  0  0  0  0999 V2000
   54.2062   19.5617   47.2502 C   0  0  0  0  0  0  0  0  0  0  0  0
   53.8033   20.2542   48.4342 O   0  0  0  0  0  0  0  0  0  0  0  0
   53.1992   19.9070   46.1587 C   0  0  0  0  0  0  0  0  0  0  0  0
   52.6551   18.7287   45.5575 O   0  0  0  0  0  0  0  0  0  0  0  0
   52.1168   20.7149   46.8435 C   0  0  0  0  0  0  0  0  0  0  0  0
   50.9363   19.9333   47.0517 O   0  0  0  0  0  0  0  0  0  0  0  0
   52.7087   21.1344   48.1784 C   0  0  0  0  0  0  0  0  0  0  0  0
   52.2212   18.1897   46.2373 H   0  0  0  0  0  0  0  0  0  0  0  0
   51.1535   19.1572   47.5914 H   0  0  0  0  0  0  0  0  0  0  0  0
   53.1747   22.5477   48.1474 N   0  0  0  0  0  0  0  0  0  0  0  0
   53.4154   23.2910   47.0491 C   0  0  0  0  0  0  0  0  0  0  0  0
   53.8365   24.5355   47.3834 N   0  0  0  0  0  0  0  0  0  0  0  0
   53.8744   24.6030   48.7208 C   0  0  0  0  0  0  0  0  0  0  0  0
   54.2329   25.6235   49.7318 C   0  0  0  0  0  0  0  0  0  0  0  0
   54.6408   26.8530   49.3594 N   0  0  0  0  0  0  0  0  0  0  0  0
   54.1340   25.2844   51.0381 N   0  0  0  0  0  0  0  0  0  0  0  0
   53.7240   24.0586   51.4251 C   0  0  0  0  0  0  0  0  0  0  0  0
   53.3864   23.0885   50.5564 N   0  0  0  0  0  0  0  0  0  0  0  0
   53.4384   23.2931   49.2192 C   0  0  0  0  0  0  0  0  0  0  0  0
   54.7066   27.0814   48.4040 H   0  0  0  0  0  0  0  0  0  0  0  0
   54.8730   27.5226   50.0427 H   0  0  0  0  0  0  0  0  0  0  0  0
   55.6355   19.9635   46.9094 C   0  0  0  0  0  0  0  0  0  0  0  0
   56.4687   19.8117   48.0528 O   0  0  0  0  0  0  0  0  0  0  0  0
   57.4355   18.5391   48.2427 P   0  0  0  0  0  0  0  0  0  0  0  0
   58.6614   18.9135   49.0473 O   0  0  0  0  0  0  0  0  0  0  0  0
   57.5813   17.9614   46.8590 O   0  0  0  0  0  0  0  0  0  0  0  0
   58.1572   17.1816   46.8933 H   0  0  0  0  0  0  0  0  0  0  0  0
   56.5316   17.5575   49.1409 O   0  0  0  0  0  0  0  0  0  0  0  0
   56.2087   16.0515   48.6862 P   0  0  0  0  0  0  0  0  0  0  0  0
   57.5691   15.4354   48.4812 O   0  0  0  0  0  0  0  0  0  0  0  0
   55.4324   15.4808   49.8468 O   0  0  0  0  0  0  0  0  0  0  0  0
   55.4049   16.2306   47.4257 O   0  0  0  0  0  0  0  0  0  0  0  0
   55.1931   14.5606   49.6545 H   0  0  0  0  0  0  0  0  0  0  0  0
   55.1601   15.3611   47.0721 H   0  0  0  0  0  0  0  0  0  0  0  0
 29 30  2  0  0  0
 29 31  1  0  0  0
 29 32  1  0  0  0
 29 28  1  0  0  0
 24 25  2  0  0  0
 24 26  1  0  0  0
 24 28  1  0  0  0
 24 23  1  0  0  0
 23 22  1  0  0  0
 22  1  1  0  0  0
  1  2  1  0  0  0
  1  3  1  0  0  0
  2  7  1  0  0  0
  3  4  1  0  0  0
  3  5  1  0  0  0
  5  6  1  0  0  0
  5  7  1  0  0  0
  7 10  1  0  0  0
 10 11  1  0  0  0
 10 19  1  0  0  0
 11 12  2  0  0  0
 12 13  1  0  0  0
 13 14  1  0  0  0
 13 19  2  0  0  0
 14 15  1  0  0  0
 14 16  2  0  0  0
 16 17  1  0  0  0
 17 18  2  0  0  0
 18 19  1  0  0  0
 31 33  1  0  0  0
 32 34  1  0  0  0
 26 27  1  0  0  0
  4  8  1  0  0  0
  6  9  1  0  0  0
 15 20  1  0  0  0
 15 21  1  0  0  0
M  END
> <minimizedAffinity>
-7.72625

$$$$
4LJ5_ADP_A_901


 34 36  0  0  0  0  0  0  0  0999 V2000
   56.1184   18.8527   47.4522 C   0  0  0  0  0  0  0  0  0  0  0  0
   56.0574   20.2594   47.2044 O   0  0  0  0  0  0  0  0  0  0  0  0
   55.2748   18.5740   48.6912 C   0  0  0  0  0  0  0  0  0  0  0  0
   56.0165   17.8494   49.6765 O   0  0  0  0  0  0  0  0  0  0  0  0
   54.8602   19.9326   49.2161 C   0  0  0  0  0  0  0  0  0  0  0  0
   55.6189   20.2979   50.3730 O   0  0  0  0  0  0  0  0  0  0  0  0
   55.1347   20.9053   48.0818 C   0  0  0  0  0  0  0  0  0  0  0  0
   56.8019   18.3592   49.9296 H   0  0  0  0  0  0  0  0  0  0  0  0
   56.5629   20.3096   50.1502 H   0  0  0  0  0  0  0  0  0  0  0  0
   53.8858   21.2591   47.3534 N   0  0  0  0  0  0  0  0  0  0  0  0
   53.0483   20.4052   46.7319 C   0  0  0  0  0  0  0  0  0  0  0  0
   52.0110   21.0658   46.1614 N   0  0  0  0  0  0  0  0  0  0  0  0
   52.1773   22.3713   46.4117 C   0  0  0  0  0  0  0  0  0  0  0  0
   51.4522   23.6231   46.0964 C   0  0  0  0  0  0  0  0  0  0  0  0
   50.3090   23.5995   45.3829 N   0  0  0  0  0  0  0  0  0  0  0  0
   51.9706   24.7878   46.5501 N   0  0  0  0  0  0  0  0  0  0  0  0
   53.1123   24.8259   47.2681 C   0  0  0  0  0  0  0  0  0  0  0  0
   53.8176   23.7252   47.5855 N   0  0  0  0  0  0  0  0  0  0  0  0
   53.4119   22.4938   47.1961 C   0  0  0  0  0  0  0  0  0  0  0  0
   49.9471   22.7422   45.0613 H   0  0  0  0  0  0  0  0  0  0  0  0
   49.8358   24.4394   45.1834 H   0  0  0  0  0  0  0  0  0  0  0  0
   55.6378   18.1146   46.2094 C   0  0  0  0  0  0  0  0  0  0  0  0
   56.7142   17.3865   45.6298 O   0  0  0  0  0  0  0  0  0  0  0  0
   56.9487   15.8231   45.9314 P   0  0  0  0  0  0  0  0  0  0  0  0
   56.1481   15.3849   47.1386 O   0  0  0  0  0  0  0  0  0  0  0  0
   58.4451   15.6507   45.9081 O   0  0  0  0  0  0  0  0  0  0  0  0
   58.6665   14.7229   46.0839 H   0  0  0  0  0  0  0  0  0  0  0  0
   56.3087   15.1269   44.6304 O   0  0  0  0  0  0  0  0  0  0  0  0
   56.5277   15.7246   43.1561 P   0  0  0  0  0  0  0  0  0  0  0  0
   56.3838   14.5255   42.2540 O   0  0  0  0  0  0  0  0  0  0  0  0
   55.4301   16.7495   43.0134 O   0  0  0  0  0  0  0  0  0  0  0  0
   57.9169   16.3022   43.2147 O   0  0  0  0  0  0  0  0  0  0  0  0
   55.4882   17.1660   42.1393 H   0  0  0  0  0  0  0  0  0  0  0  0
   58.1414   16.6923   42.3554 H   0  0  0  0  0  0  0  0  0  0  0  0
 29 30  2  0  0  0
 29 31  1  0  0  0
 29 32  1  0  0  0
 29 28  1  0  0  0
 24 25  2  0  0  0
 24 26  1  0  0  0
 24 28  1  0  0  0
 24 23  1  0  0  0
 23 22  1  0  0  0
 22  1  1  0  0  0
  1  2  1  0  0  0
  1  3  1  0  0  0
  2  7  1  0  0  0
  3  4  1  0  0  0
  3  5  1  0  0  0
  5  6  1  0  0  0
  5  7  1  0  0  0
  7 10  1  0  0  0
 10 11  1  0  0  0
 10 19  1  0  0  0
 11 12  2  0  0  0
 12 13  1  0  0  0
 13 14  1  0  0  0
 13 19  2  0  0  0
 14 15  1  0  0  0
 14 16  2  0  0  0
 16 17  1  0  0  0
 17 18  2  0  0  0
 18 19  1  0  0  0
 31 33  1  0  0  0
 32 34  1  0  0  0
 26 27  1  0  0  0
  4  8  1  0  0  0
  6  9  1  0  0  0
 15 20  1  0  0  0
 15 21  1  0  0  0
M  END
> <minimizedAffinity>
-7.63026

$$$$
4LJ5_ADP_A_901


 34 36  0  0  0  0  0  0  0  0999 V2000
   54.4689   16.5675   45.4812 C   0  0  0  0  0  0  0  0  0  0  0  0
   53.3338   17.2486   46.0208 O   0  0  0  0  0  0  0  0  0  0  0  0
   55.0622   17.4626   44.3990 C   0  0  0  0  0  0  0  0  0  0  0  0
   55.2054   16.7611   43.1607 O   0  0  0  0  0  0  0  0  0  0  0  0
   54.0990   18.6225   44.2562 C   0  0  0  0  0  0  0  0  0  0  0  0
   53.3018   18.4951   43.0748 O   0  0  0  0  0  0  0  0  0  0  0  0
   53.2162   18.5694   45.4914 C   0  0  0  0  0  0  0  0  0  0  0  0
   54.3385   16.4365   42.8709 H   0  0  0  0  0  0  0  0  0  0  0  0
   52.8054   17.6624   43.1079 H   0  0  0  0  0  0  0  0  0  0  0  0
   53.6369   19.5748   46.5051 N   0  0  0  0  0  0  0  0  0  0  0  0
   54.5875   19.4170   47.4475 C   0  0  0  0  0  0  0  0  0  0  0  0
   54.7091   20.5307   48.2110 N   0  0  0  0  0  0  0  0  0  0  0  0
   53.8208   21.4271   47.7614 C   0  0  0  0  0  0  0  0  0  0  0  0
   53.4179   22.8067   48.1170 C   0  0  0  0  0  0  0  0  0  0  0  0
   54.0146   23.4616   49.1327 N   0  0  0  0  0  0  0  0  0  0  0  0
   52.4371   23.3886   47.3887 N   0  0  0  0  0  0  0  0  0  0  0  0
   51.8334   22.7460   46.3674 C   0  0  0  0  0  0  0  0  0  0  0  0
   52.1526   21.4929   45.9967 N   0  0  0  0  0  0  0  0  0  0  0  0
   53.1176   20.7940   46.6392 C   0  0  0  0  0  0  0  0  0  0  0  0
   54.7265   23.0217   49.6513 H   0  0  0  0  0  0  0  0  0  0  0  0
   53.7385   24.3799   49.3560 H   0  0  0  0  0  0  0  0  0  0  0  0
   55.4387   16.2570   46.6142 C   0  0  0  0  0  0  0  0  0  0  0  0
   56.7624   16.6128   46.2321 O   0  0  0  0  0  0  0  0  0  0  0  0
   58.0564   15.8913   46.8609 P   0  0  0  0  0  0  0  0  0  0  0  0
   57.7349   15.3033   48.2179 O   0  0  0  0  0  0  0  0  0  0  0  0
   59.1651   16.9005   46.7129 O   0  0  0  0  0  0  0  0  0  0  0  0
   59.9870   16.5332   47.0739 H   0  0  0  0  0  0  0  0  0  0  0  0
   58.2982   14.6753   45.8363 O   0  0  0  0  0  0  0  0  0  0  0  0
   58.3275   14.9008   44.2466 P   0  0  0  0  0  0  0  0  0  0  0  0
   58.7488   16.3399   44.0926 O   0  0  0  0  0  0  0  0  0  0  0  0
   59.3410   13.8967   43.7564 O   0  0  0  0  0  0  0  0  0  0  0  0
   56.9108   14.6135   43.8255 O   0  0  0  0  0  0  0  0  0  0  0  0
   59.4233   13.9646   42.7923 H   0  0  0  0  0  0  0  0  0  0  0  0
   56.8297   14.7257   42.8654 H   0  0  0  0  0  0  0  0  0  0  0  0
 29 30  2  0  0  0
 29 31  1  0  0  0
 29 32  1  0  0  0
 29 28  1  0  0  0
 24 25  2  0  0  0
 24 26  1  0  0  0
 24 28  1  0  0  0
 24 23  1  0  0  0
 23 22  1  0  0  0
 22  1  1  0  0  0
  1  2  1  0  0  0
  1  3  1  0  0  0
  2  7  1  0  0  0
  3  4  1  0  0  0
  3  5  1  0  0  0
  5  6  1  0  0  0
  5  7  1  0  0  0
  7 10  1  0  0  0
 10 11  1  0  0  0
 10 19  1  0  0  0
 11 12  2  0  0  0
 12 13  1  0  0  0
 13 14  1  0  0  0
 13 19  2  0  0  0
 14 15  1  0  0  0
 14 16  2  0  0  0
 16 17  1  0  0  0
 17 18  2  0  0  0
 18 19  1  0  0  0
 31 33  1  0  0  0
 32 34  1  0  0  0
 26 27  1  0  0  0
  4  8  1  0  0  0
  6  9  1  0  0  0
 15 20  1  0  0  0
 15 21  1  0  0  0
M  END
> <minimizedAffinity>
-7.55450

$$$$
