3KKU_B95_A_216


 25 27  0  0  0  0  0  0  0  0999 V2000
   -7.2306  -37.9298    3.0068 O   0  0  0  0  0  0  0  0  0  0  0  0
   -6.4002  -35.9786    2.2590 N   0  0  0  0  0  0  0  0  0  0  0  0
   -6.3110  -37.2961    2.5102 C   0  0  0  0  0  0  0  0  0  0  0  0
   -5.5942  -35.4967    1.9635 H   0  0  0  0  0  0  0  0  0  0  0  0
   -7.6495  -35.2350    2.4085 C   0  0  0  0  0  0  0  0  0  0  0  0
   -7.4932  -33.7250    2.3329 C   0  0  0  0  0  0  0  0  0  0  0  0
   -5.7953  -31.3807    7.5780 C   0  0  0  0  0  0  0  0  0  0  0  0
   -6.7983  -32.1966    8.0840 C   0  0  0  0  0  0  0  0  0  0  0  0
   -5.5157  -31.3517    6.2185 C   0  0  0  0  0  0  0  0  0  0  0  0
   -7.5454  -33.0097    7.2502 C   0  0  0  0  0  0  0  0  0  0  0  0
   -6.2221  -32.3253    4.0234 N   0  0  0  0  0  0  0  0  0  0  0  0
   -7.8297  -33.6027    4.8335 N   0  0  0  0  0  0  0  0  0  0  0  0
   -7.1827  -33.2160    3.7036 C   0  0  0  0  0  0  0  0  0  0  0  0
   -6.2608  -32.1560    5.3672 C   0  0  0  0  0  0  0  0  0  0  0  0
   -7.2729  -32.9628    5.8836 C   0  0  0  0  0  0  0  0  0  0  0  0
   -5.6068  -31.8804    3.3967 H   0  0  0  0  0  0  0  0  0  0  0  0
   -5.0445  -38.0347    2.2161 C   0  0  0  0  0  0  0  0  0  0  0  0
   -3.9697  -37.4479    2.8967 O   0  0  0  0  0  0  0  0  0  0  0  0
   -1.6307  -39.2726    3.6963 Br  0  0  0  0  0  0  0  0  0  0  0  0
   -0.5638  -36.7165    0.6310 C   0  0  0  0  0  0  0  0  0  0  0  0
   -1.7324  -35.9818    0.4404 C   0  0  0  0  0  0  0  0  0  0  0  0
   -0.5475  -37.7292    1.5814 C   0  0  0  0  0  0  0  0  0  0  0  0
   -2.8745  -36.1963    1.1997 C   0  0  0  0  0  0  0  0  0  0  0  0
   -1.6959  -37.9510    2.3473 C   0  0  0  0  0  0  0  0  0  0  0  0
   -2.8494  -37.1962    2.1478 C   0  0  0  0  0  0  0  0  0  0  0  0
  1  3  2  0  0  0
 19 24  1  0  0  0
 22 20  2  0  0  0
 20 21  1  0  0  0
 23 21  2  0  0  0
  9  7  2  0  0  0
  7  8  1  0  0  0
 10  8  2  0  0  0
 24 22  1  0  0  0
 25 23  1  0  0  0
 14  9  1  0  0  0
 15 10  1  0  0  0
  2  5  1  0  0  0
  5  6  1  0  0  0
  6 13  1  0  0  0
 17  3  1  0  0  0
 17 18  1  0  0  0
 13 11  1  0  0  0
 11 14  1  0  0  0
  3  2  1  0  0  0
 13 12  2  0  0  0
 12 15  1  0  0  0
 18 25  1  0  0  0
 24 25  2  0  0  0
 14 15  2  0  0  0
 11 16  1  0  0  0
  2  4  1  0  0  0
M  END
> <minimizedAffinity>
-6.62931

$$$$
3KKU_B95_A_216


 25 27  0  0  0  0  0  0  0  0999 V2000
   -7.1001  -37.7058    3.0825 O   0  0  0  0  0  0  0  0  0  0  0  0
   -7.9686  -35.9165    2.0336 N   0  0  0  0  0  0  0  0  0  0  0  0
   -6.9593  -36.7539    2.3289 C   0  0  0  0  0  0  0  0  0  0  0  0
   -7.7737  -35.1046    1.5120 H   0  0  0  0  0  0  0  0  0  0  0  0
   -9.3444  -36.1667    2.4583 C   0  0  0  0  0  0  0  0  0  0  0  0
  -10.0452  -34.9582    3.0573 C   0  0  0  0  0  0  0  0  0  0  0  0
   -6.1621  -32.2294    6.7129 C   0  0  0  0  0  0  0  0  0  0  0  0
   -6.0223  -31.3516    5.6463 C   0  0  0  0  0  0  0  0  0  0  0  0
   -7.0279  -33.3120    6.6387 C   0  0  0  0  0  0  0  0  0  0  0  0
   -6.7458  -31.5253    4.4796 C   0  0  0  0  0  0  0  0  0  0  0  0
   -8.6495  -34.4586    5.1152 N   0  0  0  0  0  0  0  0  0  0  0  0
   -8.4048  -33.0710    3.4160 N   0  0  0  0  0  0  0  0  0  0  0  0
   -9.0464  -34.1844    3.8560 C   0  0  0  0  0  0  0  0  0  0  0  0
   -7.7559  -33.5048    5.4727 C   0  0  0  0  0  0  0  0  0  0  0  0
   -7.6001  -32.6247    4.4035 C   0  0  0  0  0  0  0  0  0  0  0  0
   -8.9528  -35.2120    5.6717 H   0  0  0  0  0  0  0  0  0  0  0  0
   -5.5963  -36.5205    1.7600 C   0  0  0  0  0  0  0  0  0  0  0  0
   -4.8293  -37.6902    1.8386 O   0  0  0  0  0  0  0  0  0  0  0  0
   -4.0411  -39.3994    4.2670 Br  0  0  0  0  0  0  0  0  0  0  0  0
   -0.8297  -37.2137    2.8607 C   0  0  0  0  0  0  0  0  0  0  0  0
   -1.3946  -36.5110    1.7982 C   0  0  0  0  0  0  0  0  0  0  0  0
   -1.6154  -38.1086    3.5755 C   0  0  0  0  0  0  0  0  0  0  0  0
   -2.7329  -36.6404    1.4527 C   0  0  0  0  0  0  0  0  0  0  0  0
   -2.9634  -38.2443    3.2301 C   0  0  0  0  0  0  0  0  0  0  0  0
   -3.5101  -37.5227    2.1715 C   0  0  0  0  0  0  0  0  0  0  0  0
  1  3  2  0  0  0
 19 24  1  0  0  0
 22 20  2  0  0  0
 20 21  1  0  0  0
 23 21  2  0  0  0
  9  7  2  0  0  0
  7  8  1  0  0  0
 10  8  2  0  0  0
 24 22  1  0  0  0
 25 23  1  0  0  0
 14  9  1  0  0  0
 15 10  1  0  0  0
  2  5  1  0  0  0
  5  6  1  0  0  0
  6 13  1  0  0  0
 17  3  1  0  0  0
 17 18  1  0  0  0
 13 11  1  0  0  0
 11 14  1  0  0  0
  3  2  1  0  0  0
 13 12  2  0  0  0
 12 15  1  0  0  0
 18 25  1  0  0  0
 24 25  2  0  0  0
 14 15  2  0  0  0
 11 16  1  0  0  0
  2  4  1  0  0  0
M  END
> <minimizedAffinity>
-6.37220

$$$$
3KKU_B95_A_216


 25 27  0  0  0  0  0  0  0  0999 V2000
   -8.8727  -35.5862    2.5615 O   0  0  0  0  0  0  0  0  0  0  0  0
   -6.8906  -35.7638    3.6082 N   0  0  0  0  0  0  0  0  0  0  0  0
   -7.8570  -35.0607    2.9926 C   0  0  0  0  0  0  0  0  0  0  0  0
   -6.0465  -35.3109    3.8354 H   0  0  0  0  0  0  0  0  0  0  0  0
   -7.0468  -37.1754    3.9527 C   0  0  0  0  0  0  0  0  0  0  0  0
   -6.4748  -38.1385    2.9252 C   0  0  0  0  0  0  0  0  0  0  0  0
   -0.8868  -36.4685    1.5563 C   0  0  0  0  0  0  0  0  0  0  0  0
   -0.5572  -37.2401    2.6626 C   0  0  0  0  0  0  0  0  0  0  0  0
   -2.2066  -36.3320    1.1478 C   0  0  0  0  0  0  0  0  0  0  0  0
   -1.5328  -37.9013    3.3877 C   0  0  0  0  0  0  0  0  0  0  0  0
   -4.5440  -37.0238    1.7160 N   0  0  0  0  0  0  0  0  0  0  0  0
   -4.0136  -38.2306    3.4866 N   0  0  0  0  0  0  0  0  0  0  0  0
   -5.0369  -37.7933    2.7077 C   0  0  0  0  0  0  0  0  0  0  0  0
   -3.1983  -36.9829    1.8686 C   0  0  0  0  0  0  0  0  0  0  0  0
   -2.8584  -37.7458    2.9842 C   0  0  0  0  0  0  0  0  0  0  0  0
   -5.0654  -36.5750    1.0118 H   0  0  0  0  0  0  0  0  0  0  0  0
   -7.6988  -33.5889    2.7808 C   0  0  0  0  0  0  0  0  0  0  0  0
   -8.3650  -32.8780    3.7874 O   0  0  0  0  0  0  0  0  0  0  0  0
   -9.4668  -34.1308    6.3674 Br  0  0  0  0  0  0  0  0  0  0  0  0
   -6.0918  -31.8690    7.1164 C   0  0  0  0  0  0  0  0  0  0  0  0
   -5.7732  -31.3869    5.8484 C   0  0  0  0  0  0  0  0  0  0  0  0
   -7.1770  -32.7231    7.2638 C   0  0  0  0  0  0  0  0  0  0  0  0
   -6.5307  -31.6954    4.7268 C   0  0  0  0  0  0  0  0  0  0  0  0
   -7.9419  -33.0388    6.1369 C   0  0  0  0  0  0  0  0  0  0  0  0
   -7.6121  -32.5357    4.8806 C   0  0  0  0  0  0  0  0  0  0  0  0
  1  3  2  0  0  0
 19 24  1  0  0  0
 22 20  2  0  0  0
 20 21  1  0  0  0
 23 21  2  0  0  0
  9  7  2  0  0  0
  7  8  1  0  0  0
 10  8  2  0  0  0
 24 22  1  0  0  0
 25 23  1  0  0  0
 14  9  1  0  0  0
 15 10  1  0  0  0
  2  5  1  0  0  0
  5  6  1  0  0  0
  6 13  1  0  0  0
 17  3  1  0  0  0
 17 18  1  0  0  0
 13 11  1  0  0  0
 11 14  1  0  0  0
  3  2  1  0  0  0
 13 12  2  0  0  0
 12 15  1  0  0  0
 18 25  1  0  0  0
 24 25  2  0  0  0
 14 15  2  0  0  0
 11 16  1  0  0  0
  2  4  1  0  0  0
M  END
> <minimizedAffinity>
-6.32297

$$$$
3KKU_B95_A_216


 25 27  0  0  0  0  0  0  0  0999 V2000
   -0.8388  -36.6114    3.2861 O   0  0  0  0  0  0  0  0  0  0  0  0
   -2.3191  -37.4585    1.8208 N   0  0  0  0  0  0  0  0  0  0  0  0
   -1.4534  -37.5705    2.8430 C   0  0  0  0  0  0  0  0  0  0  0  0
   -2.7013  -38.2779    1.4313 H   0  0  0  0  0  0  0  0  0  0  0  0
   -2.7139  -36.1653    1.2661 C   0  0  0  0  0  0  0  0  0  0  0  0
   -4.1166  -36.1358    0.6815 C   0  0  0  0  0  0  0  0  0  0  0  0
   -7.7227  -39.0825    4.4500 C   0  0  0  0  0  0  0  0  0  0  0  0
   -7.4192  -40.1668    3.6375 C   0  0  0  0  0  0  0  0  0  0  0  0
   -7.1844  -37.8280    4.1980 C   0  0  0  0  0  0  0  0  0  0  0  0
   -6.5667  -40.0316    2.5561 C   0  0  0  0  0  0  0  0  0  0  0  0
   -5.6810  -36.5903    2.6254 N   0  0  0  0  0  0  0  0  0  0  0  0
   -5.2213  -38.3143    1.3258 N   0  0  0  0  0  0  0  0  0  0  0  0
   -4.9984  -36.9906    1.5335 C   0  0  0  0  0  0  0  0  0  0  0  0
   -6.3330  -37.6735    3.1127 C   0  0  0  0  0  0  0  0  0  0  0  0
   -6.0436  -38.7654    2.2966 C   0  0  0  0  0  0  0  0  0  0  0  0
   -5.7018  -35.6797    2.9992 H   0  0  0  0  0  0  0  0  0  0  0  0
   -1.1838  -38.9063    3.4585 C   0  0  0  0  0  0  0  0  0  0  0  0
   -2.0723  -39.8638    2.9521 O   0  0  0  0  0  0  0  0  0  0  0  0
   -2.4568  -42.8752    2.4793 Br  0  0  0  0  0  0  0  0  0  0  0  0
   -4.6979  -41.5591    5.6908 C   0  0  0  0  0  0  0  0  0  0  0  0
   -4.4012  -40.1979    5.7186 C   0  0  0  0  0  0  0  0  0  0  0  0
   -4.0838  -42.3673    4.7429 C   0  0  0  0  0  0  0  0  0  0  0  0
   -3.5428  -39.6079    4.8009 C   0  0  0  0  0  0  0  0  0  0  0  0
   -3.2165  -41.7786    3.8177 C   0  0  0  0  0  0  0  0  0  0  0  0
   -2.9436  -40.4132    3.8566 C   0  0  0  0  0  0  0  0  0  0  0  0
  1  3  2  0  0  0
 19 24  1  0  0  0
 22 20  2  0  0  0
 20 21  1  0  0  0
 23 21  2  0  0  0
  9  7  2  0  0  0
  7  8  1  0  0  0
 10  8  2  0  0  0
 24 22  1  0  0  0
 25 23  1  0  0  0
 14  9  1  0  0  0
 15 10  1  0  0  0
  2  5  1  0  0  0
  5  6  1  0  0  0
  6 13  1  0  0  0
 17  3  1  0  0  0
 17 18  1  0  0  0
 13 11  1  0  0  0
 11 14  1  0  0  0
  3  2  1  0  0  0
 13 12  2  0  0  0
 12 15  1  0  0  0
 18 25  1  0  0  0
 24 25  2  0  0  0
 14 15  2  0  0  0
 11 16  1  0  0  0
  2  4  1  0  0  0
M  END
> <minimizedAffinity>
-6.30663

$$$$
3KKU_B95_A_216


 25 27  0  0  0  0  0  0  0  0999 V2000
   -6.0836  -37.4930    6.0957 O   0  0  0  0  0  0  0  0  0  0  0  0
   -7.8410  -37.2137    4.7211 N   0  0  0  0  0  0  0  0  0  0  0  0
   -7.1320  -36.9256    5.8262 C   0  0  0  0  0  0  0  0  0  0  0  0
   -8.7313  -36.8084    4.6100 H   0  0  0  0  0  0  0  0  0  0  0  0
   -7.3392  -38.1065    3.6786 C   0  0  0  0  0  0  0  0  0  0  0  0
   -6.9049  -37.4007    2.4044 C   0  0  0  0  0  0  0  0  0  0  0  0
   -0.9307  -37.4711    2.8434 C   0  0  0  0  0  0  0  0  0  0  0  0
   -1.0017  -36.6085    1.7577 C   0  0  0  0  0  0  0  0  0  0  0  0
   -2.0822  -37.9835    3.4254 C   0  0  0  0  0  0  0  0  0  0  0  0
   -2.2216  -36.2285    1.2267 C   0  0  0  0  0  0  0  0  0  0  0  0
   -4.5787  -37.9607    3.2456 N   0  0  0  0  0  0  0  0  0  0  0  0
   -4.6818  -36.6063    1.5056 N   0  0  0  0  0  0  0  0  0  0  0  0
   -5.4117  -37.3341    2.3902 C   0  0  0  0  0  0  0  0  0  0  0  0
   -3.3140  -37.6181    2.9003 C   0  0  0  0  0  0  0  0  0  0  0  0
   -3.3743  -36.7607    1.8033 C   0  0  0  0  0  0  0  0  0  0  0  0
   -4.8407  -38.5566    3.9842 H   0  0  0  0  0  0  0  0  0  0  0  0
   -7.6334  -35.9055    6.7979 C   0  0  0  0  0  0  0  0  0  0  0  0
   -8.2288  -34.8359    6.1167 O   0  0  0  0  0  0  0  0  0  0  0  0
   -8.0058  -33.8417    3.2182 Br  0  0  0  0  0  0  0  0  0  0  0  0
   -5.9836  -31.3516    5.8216 C   0  0  0  0  0  0  0  0  0  0  0  0
   -6.1895  -31.9790    7.0487 C   0  0  0  0  0  0  0  0  0  0  0  0
   -6.5616  -31.8905    4.6795 C   0  0  0  0  0  0  0  0  0  0  0  0
   -6.9192  -33.1540    7.1666 C   0  0  0  0  0  0  0  0  0  0  0  0
   -7.2994  -33.0726    4.7931 C   0  0  0  0  0  0  0  0  0  0  0  0
   -7.4825  -33.6894    6.0285 C   0  0  0  0  0  0  0  0  0  0  0  0
  1  3  2  0  0  0
 19 24  1  0  0  0
 22 20  2  0  0  0
 20 21  1  0  0  0
 23 21  2  0  0  0
  9  7  2  0  0  0
  7  8  1  0  0  0
 10  8  2  0  0  0
 24 22  1  0  0  0
 25 23  1  0  0  0
 14  9  1  0  0  0
 15 10  1  0  0  0
  2  5  1  0  0  0
  5  6  1  0  0  0
  6 13  1  0  0  0
 17  3  1  0  0  0
 17 18  1  0  0  0
 13 11  1  0  0  0
 11 14  1  0  0  0
  3  2  1  0  0  0
 13 12  2  0  0  0
 12 15  1  0  0  0
 18 25  1  0  0  0
 24 25  2  0  0  0
 14 15  2  0  0  0
 11 16  1  0  0  0
  2  4  1  0  0  0
M  END
> <minimizedAffinity>
-6.16499

$$$$
3KKU_B95_A_216


 25 27  0  0  0  0  0  0  0  0999 V2000
   -1.9883  -35.8826    0.4847 O   0  0  0  0  0  0  0  0  0  0  0  0
   -3.3943  -36.7183    2.0276 N   0  0  0  0  0  0  0  0  0  0  0  0
   -2.1658  -36.4452    1.5551 C   0  0  0  0  0  0  0  0  0  0  0  0
   -3.4785  -37.2707    2.8381 H   0  0  0  0  0  0  0  0  0  0  0  0
   -4.6096  -36.2255    1.3825 C   0  0  0  0  0  0  0  0  0  0  0  0
   -5.8631  -37.0162    1.7198 C   0  0  0  0  0  0  0  0  0  0  0  0
   -9.6023  -32.7770    3.7041 C   0  0  0  0  0  0  0  0  0  0  0  0
  -10.5332  -33.8065    3.6646 C   0  0  0  0  0  0  0  0  0  0  0  0
   -8.2814  -32.9936    3.3356 C   0  0  0  0  0  0  0  0  0  0  0  0
  -10.1719  -35.0804    3.2630 C   0  0  0  0  0  0  0  0  0  0  0  0
   -6.7146  -34.7595    2.5038 N   0  0  0  0  0  0  0  0  0  0  0  0
   -8.2058  -36.3849    2.4229 N   0  0  0  0  0  0  0  0  0  0  0  0
   -6.9054  -36.0600    2.2032 C   0  0  0  0  0  0  0  0  0  0  0  0
   -7.9040  -34.2641    2.9233 C   0  0  0  0  0  0  0  0  0  0  0  0
   -8.8484  -35.2878    2.8763 C   0  0  0  0  0  0  0  0  0  0  0  0
   -5.8680  -34.2621    2.4319 H   0  0  0  0  0  0  0  0  0  0  0  0
   -0.9533  -36.8621    2.3244 C   0  0  0  0  0  0  0  0  0  0  0  0
   -1.3272  -37.5314    3.4970 O   0  0  0  0  0  0  0  0  0  0  0  0
   -3.7382  -39.2186    4.3799 Br  0  0  0  0  0  0  0  0  0  0  0  0
   -0.4314  -41.5861    3.6537 C   0  0  0  0  0  0  0  0  0  0  0  0
    0.5313  -40.6449    3.2944 C   0  0  0  0  0  0  0  0  0  0  0  0
   -1.7216  -41.1601    3.9412 C   0  0  0  0  0  0  0  0  0  0  0  0
    0.2586  -39.2843    3.2552 C   0  0  0  0  0  0  0  0  0  0  0  0
   -2.0022  -39.7910    3.9009 C   0  0  0  0  0  0  0  0  0  0  0  0
   -1.0210  -38.8665    3.5507 C   0  0  0  0  0  0  0  0  0  0  0  0
  1  3  2  0  0  0
 19 24  1  0  0  0
 22 20  2  0  0  0
 20 21  1  0  0  0
 23 21  2  0  0  0
  9  7  2  0  0  0
  7  8  1  0  0  0
 10  8  2  0  0  0
 24 22  1  0  0  0
 25 23  1  0  0  0
 14  9  1  0  0  0
 15 10  1  0  0  0
  2  5  1  0  0  0
  5  6  1  0  0  0
  6 13  1  0  0  0
 17  3  1  0  0  0
 17 18  1  0  0  0
 13 11  1  0  0  0
 11 14  1  0  0  0
  3  2  1  0  0  0
 13 12  2  0  0  0
 12 15  1  0  0  0
 18 25  1  0  0  0
 24 25  2  0  0  0
 14 15  2  0  0  0
 11 16  1  0  0  0
  2  4  1  0  0  0
M  END
> <minimizedAffinity>
-6.11434

$$$$
3KKU_B95_A_216


 25 27  0  0  0  0  0  0  0  0999 V2000
   -6.9114  -36.2904    3.4490 O   0  0  0  0  0  0  0  0  0  0  0  0
   -6.9424  -37.8439    5.0743 N   0  0  0  0  0  0  0  0  0  0  0  0
   -7.3497  -36.6902    4.5176 C   0  0  0  0  0  0  0  0  0  0  0  0
   -7.2433  -38.0626    5.9859 H   0  0  0  0  0  0  0  0  0  0  0  0
   -6.0695  -38.7857    4.3765 C   0  0  0  0  0  0  0  0  0  0  0  0
   -4.6373  -38.8080    4.8852 C   0  0  0  0  0  0  0  0  0  0  0  0
   -1.6072  -36.1050    0.4805 C   0  0  0  0  0  0  0  0  0  0  0  0
   -0.5408  -36.8396    0.9816 C   0  0  0  0  0  0  0  0  0  0  0  0
   -2.8694  -36.1977    1.0509 C   0  0  0  0  0  0  0  0  0  0  0  0
   -0.7047  -37.6906    2.0603 C   0  0  0  0  0  0  0  0  0  0  0  0
   -4.1406  -37.3216    2.8910 N   0  0  0  0  0  0  0  0  0  0  0  0
   -2.4350  -38.4689    3.6953 N   0  0  0  0  0  0  0  0  0  0  0  0
   -3.7584  -38.1999    3.8401 C   0  0  0  0  0  0  0  0  0  0  0  0
   -3.0494  -37.0414    2.1383 C   0  0  0  0  0  0  0  0  0  0  0  0
   -1.9702  -37.7658    2.6409 C   0  0  0  0  0  0  0  0  0  0  0  0
   -5.0449  -36.9523    2.7679 H   0  0  0  0  0  0  0  0  0  0  0  0
   -8.3463  -35.8253    5.2210 C   0  0  0  0  0  0  0  0  0  0  0  0
   -8.2682  -34.5090    4.7478 O   0  0  0  0  0  0  0  0  0  0  0  0
   -7.2754  -32.0598    3.1807 Br  0  0  0  0  0  0  0  0  0  0  0  0
   -6.3023  -31.7778    7.1859 C   0  0  0  0  0  0  0  0  0  0  0  0
   -6.8134  -32.9689    7.6975 C   0  0  0  0  0  0  0  0  0  0  0  0
   -6.4760  -31.4892    5.8385 C   0  0  0  0  0  0  0  0  0  0  0  0
   -7.4556  -33.9037    6.8971 C   0  0  0  0  0  0  0  0  0  0  0  0
   -7.1242  -32.4263    5.0283 C   0  0  0  0  0  0  0  0  0  0  0  0
   -7.6168  -33.6163    5.5589 C   0  0  0  0  0  0  0  0  0  0  0  0
  1  3  2  0  0  0
 19 24  1  0  0  0
 22 20  2  0  0  0
 20 21  1  0  0  0
 23 21  2  0  0  0
  9  7  2  0  0  0
  7  8  1  0  0  0
 10  8  2  0  0  0
 24 22  1  0  0  0
 25 23  1  0  0  0
 14  9  1  0  0  0
 15 10  1  0  0  0
  2  5  1  0  0  0
  5  6  1  0  0  0
  6 13  1  0  0  0
 17  3  1  0  0  0
 17 18  1  0  0  0
 13 11  1  0  0  0
 11 14  1  0  0  0
  3  2  1  0  0  0
 13 12  2  0  0  0
 12 15  1  0  0  0
 18 25  1  0  0  0
 24 25  2  0  0  0
 14 15  2  0  0  0
 11 16  1  0  0  0
  2  4  1  0  0  0
M  END
> <minimizedAffinity>
-6.08288

$$$$
3KKU_B95_A_216


 25 27  0  0  0  0  0  0  0  0999 V2000
   -5.1151  -37.9650    1.0100 O   0  0  0  0  0  0  0  0  0  0  0  0
   -6.0293  -36.7682    2.6797 N   0  0  0  0  0  0  0  0  0  0  0  0
   -5.2316  -37.7409    2.2059 C   0  0  0  0  0  0  0  0  0  0  0  0
   -6.1722  -36.7038    3.6516 H   0  0  0  0  0  0  0  0  0  0  0  0
   -6.6922  -35.8028    1.8054 C   0  0  0  0  0  0  0  0  0  0  0  0
   -7.9782  -35.2237    2.3721 C   0  0  0  0  0  0  0  0  0  0  0  0
   -6.2528  -31.3526    6.6061 C   0  0  0  0  0  0  0  0  0  0  0  0
   -6.9232  -32.2267    7.4514 C   0  0  0  0  0  0  0  0  0  0  0  0
   -6.1823  -31.5922    5.2405 C   0  0  0  0  0  0  0  0  0  0  0  0
   -7.5358  -33.3658    6.9598 C   0  0  0  0  0  0  0  0  0  0  0  0
   -6.9024  -33.2042    3.4663 N   0  0  0  0  0  0  0  0  0  0  0  0
   -7.9849  -34.5769    4.8140 N   0  0  0  0  0  0  0  0  0  0  0  0
   -7.6269  -34.3400    3.5254 C   0  0  0  0  0  0  0  0  0  0  0  0
   -6.7978  -32.7267    4.7300 C   0  0  0  0  0  0  0  0  0  0  0  0
   -7.4779  -33.5918    5.5851 C   0  0  0  0  0  0  0  0  0  0  0  0
   -6.5203  -32.7974    2.6553 H   0  0  0  0  0  0  0  0  0  0  0  0
   -4.4739  -38.6197    3.1491 C   0  0  0  0  0  0  0  0  0  0  0  0
   -3.3473  -37.9483    3.6413 O   0  0  0  0  0  0  0  0  0  0  0  0
   -1.4199  -36.5659    1.6884 Br  0  0  0  0  0  0  0  0  0  0  0  0
    0.2787  -39.9544    3.3316 C   0  0  0  0  0  0  0  0  0  0  0  0
   -0.7437  -40.4282    4.1513 C   0  0  0  0  0  0  0  0  0  0  0  0
    0.0881  -38.7748    2.6237 C   0  0  0  0  0  0  0  0  0  0  0  0
   -1.9693  -39.7846    4.2539 C   0  0  0  0  0  0  0  0  0  0  0  0
   -1.1437  -38.1214    2.7252 C   0  0  0  0  0  0  0  0  0  0  0  0
   -2.1562  -38.6196    3.5417 C   0  0  0  0  0  0  0  0  0  0  0  0
  1  3  2  0  0  0
 19 24  1  0  0  0
 22 20  2  0  0  0
 20 21  1  0  0  0
 23 21  2  0  0  0
  9  7  2  0  0  0
  7  8  1  0  0  0
 10  8  2  0  0  0
 24 22  1  0  0  0
 25 23  1  0  0  0
 14  9  1  0  0  0
 15 10  1  0  0  0
  2  5  1  0  0  0
  5  6  1  0  0  0
  6 13  1  0  0  0
 17  3  1  0  0  0
 17 18  1  0  0  0
 13 11  1  0  0  0
 11 14  1  0  0  0
  3  2  1  0  0  0
 13 12  2  0  0  0
 12 15  1  0  0  0
 18 25  1  0  0  0
 24 25  2  0  0  0
 14 15  2  0  0  0
 11 16  1  0  0  0
  2  4  1  0  0  0
M  END
> <minimizedAffinity>
-5.99625

$$$$
3KKU_B95_A_216


 25 27  0  0  0  0  0  0  0  0999 V2000
   -8.3257  -38.0514    5.4444 O   0  0  0  0  0  0  0  0  0  0  0  0
   -6.1233  -37.6325    5.2712 N   0  0  0  0  0  0  0  0  0  0  0  0
   -7.3820  -37.2897    5.5957 C   0  0  0  0  0  0  0  0  0  0  0  0
   -5.4201  -36.9445    5.3082 H   0  0  0  0  0  0  0  0  0  0  0  0
   -5.7603  -38.9888    4.8655 C   0  0  0  0  0  0  0  0  0  0  0  0
   -4.2837  -39.3150    5.0192 C   0  0  0  0  0  0  0  0  0  0  0  0
   -0.7447  -36.5154    1.0788 C   0  0  0  0  0  0  0  0  0  0  0  0
   -1.9451  -35.9938    0.6152 C   0  0  0  0  0  0  0  0  0  0  0  0
   -0.7147  -37.3924    2.1545 C   0  0  0  0  0  0  0  0  0  0  0  0
   -3.1469  -36.3271    1.2147 C   0  0  0  0  0  0  0  0  0  0  0  0
   -2.1880  -38.5673    3.8020 N   0  0  0  0  0  0  0  0  0  0  0  0
   -4.0939  -37.7509    3.0447 N   0  0  0  0  0  0  0  0  0  0  0  0
   -3.5257  -38.5643    3.9723 C   0  0  0  0  0  0  0  0  0  0  0  0
   -1.9122  -37.7427    2.7628 C   0  0  0  0  0  0  0  0  0  0  0  0
   -3.1127  -37.2227    2.2828 C   0  0  0  0  0  0  0  0  0  0  0  0
   -1.5332  -39.0746    4.3341 H   0  0  0  0  0  0  0  0  0  0  0  0
   -7.6766  -35.9243    6.1296 C   0  0  0  0  0  0  0  0  0  0  0  0
   -8.4783  -35.2119    5.2284 O   0  0  0  0  0  0  0  0  0  0  0  0
   -7.3789  -35.1620    2.3598 Br  0  0  0  0  0  0  0  0  0  0  0  0
   -7.1186  -31.4405    4.1348 C   0  0  0  0  0  0  0  0  0  0  0  0
   -7.6386  -31.6831    5.4046 C   0  0  0  0  0  0  0  0  0  0  0  0
   -7.0775  -32.4760    3.2101 C   0  0  0  0  0  0  0  0  0  0  0  0
   -8.0796  -32.9395    5.7969 C   0  0  0  0  0  0  0  0  0  0  0  0
   -7.5226  -33.7429    3.5994 C   0  0  0  0  0  0  0  0  0  0  0  0
   -8.0276  -33.9655    4.8783 C   0  0  0  0  0  0  0  0  0  0  0  0
  1  3  2  0  0  0
 19 24  1  0  0  0
 22 20  2  0  0  0
 20 21  1  0  0  0
 23 21  2  0  0  0
  9  7  2  0  0  0
  7  8  1  0  0  0
 10  8  2  0  0  0
 24 22  1  0  0  0
 25 23  1  0  0  0
 14  9  1  0  0  0
 15 10  1  0  0  0
  2  5  1  0  0  0
  5  6  1  0  0  0
  6 13  1  0  0  0
 17  3  1  0  0  0
 17 18  1  0  0  0
 13 11  1  0  0  0
 11 14  1  0  0  0
  3  2  1  0  0  0
 13 12  2  0  0  0
 12 15  1  0  0  0
 18 25  1  0  0  0
 24 25  2  0  0  0
 14 15  2  0  0  0
 11 16  1  0  0  0
  2  4  1  0  0  0
M  END
> <minimizedAffinity>
-5.90746

$$$$
3KKU_B95_A_216


 25 27  0  0  0  0  0  0  0  0999 V2000
   -5.0836  -39.2813    6.5691 O   0  0  0  0  0  0  0  0  0  0  0  0
   -6.1210  -38.0174    5.0257 N   0  0  0  0  0  0  0  0  0  0  0  0
   -5.1132  -38.8017    5.4453 C   0  0  0  0  0  0  0  0  0  0  0  0
   -6.0403  -37.5680    4.1535 H   0  0  0  0  0  0  0  0  0  0  0  0
   -7.3320  -37.8072    5.8162 C   0  0  0  0  0  0  0  0  0  0  0  0
   -7.2826  -36.5919    6.7278 C   0  0  0  0  0  0  0  0  0  0  0  0
   -7.3819  -31.3681    3.7967 C   0  0  0  0  0  0  0  0  0  0  0  0
   -7.9536  -32.1299    2.7863 C   0  0  0  0  0  0  0  0  0  0  0  0
   -7.0149  -31.9441    5.0053 C   0  0  0  0  0  0  0  0  0  0  0  0
   -8.1804  -33.4844    2.9553 C   0  0  0  0  0  0  0  0  0  0  0  0
   -6.9679  -34.1240    6.2344 N   0  0  0  0  0  0  0  0  0  0  0  0
   -7.8568  -35.3321    4.6149 N   0  0  0  0  0  0  0  0  0  0  0  0
   -7.3590  -35.3644    5.8782 C   0  0  0  0  0  0  0  0  0  0  0  0
   -7.2290  -33.3032    5.1884 C   0  0  0  0  0  0  0  0  0  0  0  0
   -7.7929  -34.0613    4.1641 C   0  0  0  0  0  0  0  0  0  0  0  0
   -6.5671  -33.8632    7.0949 H   0  0  0  0  0  0  0  0  0  0  0  0
   -3.9558  -39.0881    4.5428 C   0  0  0  0  0  0  0  0  0  0  0  0
   -4.1617  -38.5028    3.2868 O   0  0  0  0  0  0  0  0  0  0  0  0
   -5.0285  -36.5941    1.0406 Br  0  0  0  0  0  0  0  0  0  0  0  0
   -0.9509  -36.4114    1.6790 C   0  0  0  0  0  0  0  0  0  0  0  0
   -0.7704  -37.3448    2.6978 C   0  0  0  0  0  0  0  0  0  0  0  0
   -2.2337  -36.1594    1.2102 C   0  0  0  0  0  0  0  0  0  0  0  0
   -1.8261  -38.0686    3.2349 C   0  0  0  0  0  0  0  0  0  0  0  0
   -3.3009  -36.8840    1.7494 C   0  0  0  0  0  0  0  0  0  0  0  0
   -3.0957  -37.8212    2.7592 C   0  0  0  0  0  0  0  0  0  0  0  0
  1  3  2  0  0  0
 19 24  1  0  0  0
 22 20  2  0  0  0
 20 21  1  0  0  0
 23 21  2  0  0  0
  9  7  2  0  0  0
  7  8  1  0  0  0
 10  8  2  0  0  0
 24 22  1  0  0  0
 25 23  1  0  0  0
 14  9  1  0  0  0
 15 10  1  0  0  0
  2  5  1  0  0  0
  5  6  1  0  0  0
  6 13  1  0  0  0
 17  3  1  0  0  0
 17 18  1  0  0  0
 13 11  1  0  0  0
 11 14  1  0  0  0
  3  2  1  0  0  0
 13 12  2  0  0  0
 12 15  1  0  0  0
 18 25  1  0  0  0
 24 25  2  0  0  0
 14 15  2  0  0  0
 11 16  1  0  0  0
  2  4  1  0  0  0
M  END
> <minimizedAffinity>
-5.82299

$$$$
