4AGQ_P96_A_1291


 32 34  0  0  0  0  0  0  0  0999 V2000
   91.4656   93.1455  -45.7477 C   0  0  0  0  0  0  0  0  0  0  0  0
   90.8327   95.3744  -45.0175 C   0  0  0  0  0  0  0  0  0  0  0  0
   91.2331   96.0471  -42.7618 O   0  0  0  0  0  0  0  0  0  0  0  0
   91.9480   92.8613  -44.4625 C   0  0  0  0  0  0  0  0  0  0  0  0
   90.9205   94.4042  -46.0252 C   0  0  0  0  0  0  0  0  0  0  0  0
   91.8728   93.8272  -43.4487 C   0  0  0  0  0  0  0  0  0  0  0  0
   91.3107   95.0743  -43.7332 C   0  0  0  0  0  0  0  0  0  0  0  0
   92.5700   93.4170  -41.4810 I   0  0  0  0  0  0  0  0  0  0  0  0
   90.8543   96.8803  -42.9624 H   0  0  0  0  0  0  0  0  0  0  0  0
   91.5601   92.1808  -46.7968 C   0  0  0  0  0  0  0  0  0  0  0  0
   91.6487   91.3308  -47.6415 C   0  0  0  0  0  0  0  0  0  0  0  0
   91.6957   90.3068  -48.6947 C   0  0  0  0  0  0  0  0  0  0  0  0
   90.5640   89.4156  -48.6325 N   0  0  0  0  0  0  0  0  0  0  0  0
   90.3287   89.0301  -47.7578 H   0  0  0  0  0  0  0  0  0  0  0  0
   89.4699   87.7483  -50.0660 C   0  0  0  0  0  0  0  0  0  0  0  0
   89.7853   89.0666  -49.7263 C   0  0  0  0  0  0  0  0  0  0  0  0
   89.2834   90.0814  -50.5532 C   0  0  0  0  0  0  0  0  0  0  0  0
   88.4941   89.7886  -51.6713 C   0  0  0  0  0  0  0  0  0  0  0  0
   88.1920   88.4689  -51.9869 C   0  0  0  0  0  0  0  0  0  0  0  0
   88.6780   87.4439  -51.1776 C   0  0  0  0  0  0  0  0  0  0  0  0
   90.2234   96.7128  -45.3369 C   0  0  0  0  0  0  0  0  0  0  0  0
   90.7282   97.8244  -44.4431 N   0  0  0  0  0  0  0  0  0  0  0  0
   89.5764   98.6549  -43.9523 C   0  0  0  0  0  0  0  0  0  0  0  0
   90.1171   99.7251  -43.0190 C   0  0  0  0  0  0  0  0  0  0  0  0
   91.1323  100.5795  -43.7741 C   0  0  0  0  0  0  0  0  0  0  0  0
   92.3267   99.7191  -44.2090 C   0  0  0  0  0  0  0  0  0  0  0  0
   91.8400   98.5919  -45.1061 C   0  0  0  0  0  0  0  0  0  0  0  0
   91.5642  101.8052  -42.9545 N   0  0  0  0  0  0  0  0  0  0  0  0
   92.4083  101.6611  -40.5922 C   0  0  0  0  0  0  0  0  0  0  0  0
   91.1715  101.6877  -41.4758 C   0  0  0  0  0  0  0  0  0  0  0  0
   93.0288  102.1822  -43.0746 C   0  0  0  0  0  0  0  0  0  0  0  0
   93.1680  103.5055  -43.8075 C   0  0  0  0  0  0  0  0  0  0  0  0
 15 16  1  0  0  0
 15 20  2  0  0  0
 13 12  1  0  0  0
 13 16  1  0  0  0
  1  4  1  0  0  0
  1  5  2  0  0  0
  1 10  1  0  0  0
  2 21  1  0  0  0
  2  5  1  0  0  0
  2  7  2  0  0  0
 22 21  1  0  0  0
 22 23  1  0  0  0
 22 27  1  0  0  0
  3  7  1  0  0  0
  4  6  2  0  0  0
 28 25  1  0  0  0
 28 31  1  0  0  0
 28 30  1  0  0  0
 23 24  1  0  0  0
 10 11  3  0  0  0
  6  7  1  0  0  0
  6  8  1  0  0  0
 11 12  1  0  0  0
 16 17  2  0  0  0
 17 18  1  0  0  0
 24 25  1  0  0  0
 18 19  2  0  0  0
 25 26  1  0  0  0
 29 30  1  0  0  0
 31 32  1  0  0  0
 26 27  1  0  0  0
 19 20  1  0  0  0
 13 14  1  0  0  0
  3  9  1  0  0  0
M  END
> <minimizedAffinity>
-7.27569

$$$$
4AGQ_P96_A_1291


 32 34  0  0  0  0  0  0  0  0999 V2000
   91.3945   93.2187  -45.8986 C   0  0  0  0  0  0  0  0  0  0  0  0
   90.7885   95.4433  -45.1337 C   0  0  0  0  0  0  0  0  0  0  0  0
   91.2010   96.0773  -42.8690 O   0  0  0  0  0  0  0  0  0  0  0  0
   91.8762   92.9096  -44.6190 C   0  0  0  0  0  0  0  0  0  0  0  0
   90.8633   94.4874  -46.1560 C   0  0  0  0  0  0  0  0  0  0  0  0
   91.8141   93.8609  -43.5906 C   0  0  0  0  0  0  0  0  0  0  0  0
   91.2656   95.1184  -43.8550 C   0  0  0  0  0  0  0  0  0  0  0  0
   92.5103   93.4132  -41.6307 I   0  0  0  0  0  0  0  0  0  0  0  0
   90.8314   96.9177  -43.0562 H   0  0  0  0  0  0  0  0  0  0  0  0
   91.4760   92.2689  -46.9624 C   0  0  0  0  0  0  0  0  0  0  0  0
   91.5497   91.4302  -47.8198 C   0  0  0  0  0  0  0  0  0  0  0  0
   91.5804   90.4242  -48.8908 C   0  0  0  0  0  0  0  0  0  0  0  0
   90.4057   90.4867  -49.7244 N   0  0  0  0  0  0  0  0  0  0  0  0
   89.8610   89.6716  -49.8146 H   0  0  0  0  0  0  0  0  0  0  0  0
   88.7184   92.1799  -50.2877 C   0  0  0  0  0  0  0  0  0  0  0  0
   89.9938   91.6216  -50.4075 C   0  0  0  0  0  0  0  0  0  0  0  0
   90.8933   92.2537  -51.2776 C   0  0  0  0  0  0  0  0  0  0  0  0
   90.5323   93.4003  -51.9943 C   0  0  0  0  0  0  0  0  0  0  0  0
   89.2580   93.9383  -51.8559 C   0  0  0  0  0  0  0  0  0  0  0  0
   88.3481   93.3282  -50.9947 C   0  0  0  0  0  0  0  0  0  0  0  0
   90.1939   96.7932  -45.4316 C   0  0  0  0  0  0  0  0  0  0  0  0
   90.7105   97.8847  -44.5199 N   0  0  0  0  0  0  0  0  0  0  0  0
   89.5620   98.6724  -43.9562 C   0  0  0  0  0  0  0  0  0  0  0  0
   90.1168   99.7220  -43.0078 C   0  0  0  0  0  0  0  0  0  0  0  0
   91.0833  100.6238  -43.7716 C   0  0  0  0  0  0  0  0  0  0  0  0
   92.2772   99.8054  -44.2823 C   0  0  0  0  0  0  0  0  0  0  0  0
   91.7790   98.6988  -45.1985 C   0  0  0  0  0  0  0  0  0  0  0  0
   91.5218  101.8303  -42.9273 N   0  0  0  0  0  0  0  0  0  0  0  0
   92.2185  101.5963  -40.5245 C   0  0  0  0  0  0  0  0  0  0  0  0
   91.0392  101.7331  -41.4739 C   0  0  0  0  0  0  0  0  0  0  0  0
   93.0063  102.1408  -42.9619 C   0  0  0  0  0  0  0  0  0  0  0  0
   93.2418  103.4876  -43.6237 C   0  0  0  0  0  0  0  0  0  0  0  0
 15 16  1  0  0  0
 15 20  2  0  0  0
 13 12  1  0  0  0
 13 16  1  0  0  0
  1  4  1  0  0  0
  1  5  2  0  0  0
  1 10  1  0  0  0
  2 21  1  0  0  0
  2  5  1  0  0  0
  2  7  2  0  0  0
 22 21  1  0  0  0
 22 23  1  0  0  0
 22 27  1  0  0  0
  3  7  1  0  0  0
  4  6  2  0  0  0
 28 25  1  0  0  0
 28 31  1  0  0  0
 28 30  1  0  0  0
 23 24  1  0  0  0
 10 11  3  0  0  0
  6  7  1  0  0  0
  6  8  1  0  0  0
 11 12  1  0  0  0
 16 17  2  0  0  0
 17 18  1  0  0  0
 24 25  1  0  0  0
 18 19  2  0  0  0
 25 26  1  0  0  0
 29 30  1  0  0  0
 31 32  1  0  0  0
 26 27  1  0  0  0
 19 20  1  0  0  0
 13 14  1  0  0  0
  3  9  1  0  0  0
M  END
> <minimizedAffinity>
-7.05396

$$$$
4AGQ_P96_A_1291


 32 34  0  0  0  0  0  0  0  0999 V2000
   90.5043   95.4441  -45.7347 C   0  0  0  0  0  0  0  0  0  0  0  0
   90.5390   97.3762  -44.2625 C   0  0  0  0  0  0  0  0  0  0  0  0
   89.0376   99.1927  -44.6462 O   0  0  0  0  0  0  0  0  0  0  0  0
   89.4751   96.0323  -46.4828 C   0  0  0  0  0  0  0  0  0  0  0  0
   91.0251   96.1113  -44.6203 C   0  0  0  0  0  0  0  0  0  0  0  0
   88.9752   97.2939  -46.1293 C   0  0  0  0  0  0  0  0  0  0  0  0
   89.5151   97.9580  -45.0249 C   0  0  0  0  0  0  0  0  0  0  0  0
   87.4337   98.2260  -47.2611 I   0  0  0  0  0  0  0  0  0  0  0  0
   89.4063   99.6301  -43.9041 H   0  0  0  0  0  0  0  0  0  0  0  0
   91.0047   94.1481  -46.0672 C   0  0  0  0  0  0  0  0  0  0  0  0
   91.4061   93.0396  -46.2991 C   0  0  0  0  0  0  0  0  0  0  0  0
   91.8602   91.6835  -46.6381 C   0  0  0  0  0  0  0  0  0  0  0  0
   92.0894   91.5285  -48.0531 N   0  0  0  0  0  0  0  0  0  0  0  0
   92.9742   91.7767  -48.4063 H   0  0  0  0  0  0  0  0  0  0  0  0
   90.5786   89.7760  -48.8763 C   0  0  0  0  0  0  0  0  0  0  0  0
   91.1432   91.0522  -48.9487 C   0  0  0  0  0  0  0  0  0  0  0  0
   90.7227   91.8828  -49.9970 C   0  0  0  0  0  0  0  0  0  0  0  0
   89.7726   91.4550  -50.9313 C   0  0  0  0  0  0  0  0  0  0  0  0
   89.2234   90.1815  -50.8363 C   0  0  0  0  0  0  0  0  0  0  0  0
   89.6246   89.3396  -49.8009 C   0  0  0  0  0  0  0  0  0  0  0  0
   91.1305   98.0812  -43.0719 C   0  0  0  0  0  0  0  0  0  0  0  0
   91.3491   99.5603  -43.3050 N   0  0  0  0  0  0  0  0  0  0  0  0
   92.4913   99.7689  -44.2584 C   0  0  0  0  0  0  0  0  0  0  0  0
   92.6453  101.2599  -44.5071 C   0  0  0  0  0  0  0  0  0  0  0  0
   92.9003  101.9641  -43.1767 C   0  0  0  0  0  0  0  0  0  0  0  0
   91.6926  101.7874  -42.2460 C   0  0  0  0  0  0  0  0  0  0  0  0
   91.4527  100.3059  -42.0018 C   0  0  0  0  0  0  0  0  0  0  0  0
   93.2701  103.4418  -43.3782 N   0  0  0  0  0  0  0  0  0  0  0  0
   94.5825  104.2048  -41.3759 C   0  0  0  0  0  0  0  0  0  0  0  0
   94.6647  103.7753  -42.8319 C   0  0  0  0  0  0  0  0  0  0  0  0
   93.1318  103.9569  -44.7984 C   0  0  0  0  0  0  0  0  0  0  0  0
   93.3830  105.4546  -44.8364 C   0  0  0  0  0  0  0  0  0  0  0  0
 15 16  1  0  0  0
 15 20  2  0  0  0
 13 12  1  0  0  0
 13 16  1  0  0  0
  1  4  1  0  0  0
  1  5  2  0  0  0
  1 10  1  0  0  0
  2 21  1  0  0  0
  2  5  1  0  0  0
  2  7  2  0  0  0
 22 21  1  0  0  0
 22 23  1  0  0  0
 22 27  1  0  0  0
  3  7  1  0  0  0
  4  6  2  0  0  0
 28 25  1  0  0  0
 28 31  1  0  0  0
 28 30  1  0  0  0
 23 24  1  0  0  0
 10 11  3  0  0  0
  6  7  1  0  0  0
  6  8  1  0  0  0
 11 12  1  0  0  0
 16 17  2  0  0  0
 17 18  1  0  0  0
 24 25  1  0  0  0
 18 19  2  0  0  0
 25 26  1  0  0  0
 29 30  1  0  0  0
 31 32  1  0  0  0
 26 27  1  0  0  0
 19 20  1  0  0  0
 13 14  1  0  0  0
  3  9  1  0  0  0
M  END
> <minimizedAffinity>
-6.48563

$$$$
4AGQ_P96_A_1291


 32 34  0  0  0  0  0  0  0  0999 V2000
   90.5920   96.0186  -45.6721 C   0  0  0  0  0  0  0  0  0  0  0  0
   91.2104   98.2871  -45.0612 C   0  0  0  0  0  0  0  0  0  0  0  0
   89.5324   99.9790  -44.9098 O   0  0  0  0  0  0  0  0  0  0  0  0
   89.2499   96.4110  -45.7713 C   0  0  0  0  0  0  0  0  0  0  0  0
   91.5665   96.9538  -45.3060 C   0  0  0  0  0  0  0  0  0  0  0  0
   88.8808   97.7404  -45.5206 C   0  0  0  0  0  0  0  0  0  0  0  0
   89.8651   98.6690  -45.1729 C   0  0  0  0  0  0  0  0  0  0  0  0
   86.8569   98.3737  -45.6906 I   0  0  0  0  0  0  0  0  0  0  0  0
   90.1998  100.5942  -44.6773 H   0  0  0  0  0  0  0  0  0  0  0  0
   90.9785   94.6622  -45.8984 C   0  0  0  0  0  0  0  0  0  0  0  0
   91.2875   93.5095  -46.0377 C   0  0  0  0  0  0  0  0  0  0  0  0
   91.6238   92.0961  -46.2598 C   0  0  0  0  0  0  0  0  0  0  0  0
   91.9627   91.8312  -47.6359 N   0  0  0  0  0  0  0  0  0  0  0  0
   92.8914   91.9912  -47.9207 H   0  0  0  0  0  0  0  0  0  0  0  0
   90.3793   92.1933  -49.4780 C   0  0  0  0  0  0  0  0  0  0  0  0
   91.0640   91.3654  -48.5845 C   0  0  0  0  0  0  0  0  0  0  0  0
   90.8109   89.9885  -48.6607 C   0  0  0  0  0  0  0  0  0  0  0  0
   89.9130   89.4619  -49.5961 C   0  0  0  0  0  0  0  0  0  0  0  0
   89.2458   90.3062  -50.4763 C   0  0  0  0  0  0  0  0  0  0  0  0
   89.4838   91.6781  -50.4203 C   0  0  0  0  0  0  0  0  0  0  0  0
   92.2807   99.2773  -44.6892 C   0  0  0  0  0  0  0  0  0  0  0  0
   91.8066  100.3229  -43.7036 N   0  0  0  0  0  0  0  0  0  0  0  0
   92.5527  101.6093  -43.9176 C   0  0  0  0  0  0  0  0  0  0  0  0
   92.0133  102.6465  -42.9470 C   0  0  0  0  0  0  0  0  0  0  0  0
   92.1918  102.1350  -41.5196 C   0  0  0  0  0  0  0  0  0  0  0  0
   91.3700  100.8556  -41.3108 C   0  0  0  0  0  0  0  0  0  0  0  0
   91.8283   99.7916  -42.2957 C   0  0  0  0  0  0  0  0  0  0  0  0
   91.8583  103.2182  -40.4824 N   0  0  0  0  0  0  0  0  0  0  0  0
   90.4690  103.5525  -38.4155 C   0  0  0  0  0  0  0  0  0  0  0  0
   90.4849  103.0027  -39.8328 C   0  0  0  0  0  0  0  0  0  0  0  0
   92.9107  103.4367  -39.4117 C   0  0  0  0  0  0  0  0  0  0  0  0
   94.2543  102.9104  -39.8864 C   0  0  0  0  0  0  0  0  0  0  0  0
 15 16  1  0  0  0
 15 20  2  0  0  0
 13 12  1  0  0  0
 13 16  1  0  0  0
  1  4  1  0  0  0
  1  5  2  0  0  0
  1 10  1  0  0  0
  2 21  1  0  0  0
  2  5  1  0  0  0
  2  7  2  0  0  0
 22 21  1  0  0  0
 22 23  1  0  0  0
 22 27  1  0  0  0
  3  7  1  0  0  0
  4  6  2  0  0  0
 28 25  1  0  0  0
 28 31  1  0  0  0
 28 30  1  0  0  0
 23 24  1  0  0  0
 10 11  3  0  0  0
  6  7  1  0  0  0
  6  8  1  0  0  0
 11 12  1  0  0  0
 16 17  2  0  0  0
 17 18  1  0  0  0
 24 25  1  0  0  0
 18 19  2  0  0  0
 25 26  1  0  0  0
 29 30  1  0  0  0
 31 32  1  0  0  0
 26 27  1  0  0  0
 19 20  1  0  0  0
 13 14  1  0  0  0
  3  9  1  0  0  0
M  END
> <minimizedAffinity>
-6.29250

$$$$
4AGQ_P96_A_1291


 32 34  0  0  0  0  0  0  0  0999 V2000
   90.1503   97.8170  -44.9544 C   0  0  0  0  0  0  0  0  0  0  0  0
   90.7634  100.0613  -44.2553 C   0  0  0  0  0  0  0  0  0  0  0  0
   89.0627  101.6826  -43.8308 O   0  0  0  0  0  0  0  0  0  0  0  0
   88.7947   98.1694  -44.8980 C   0  0  0  0  0  0  0  0  0  0  0  0
   91.1301   98.7591  -44.6218 C   0  0  0  0  0  0  0  0  0  0  0  0
   88.4158   99.4669  -44.5247 C   0  0  0  0  0  0  0  0  0  0  0  0
   89.4037  100.4040  -44.2116 C   0  0  0  0  0  0  0  0  0  0  0  0
   86.3684  100.0413  -44.4570 I   0  0  0  0  0  0  0  0  0  0  0  0
   89.7325  102.3038  -43.6228 H   0  0  0  0  0  0  0  0  0  0  0  0
   90.5498   96.4916  -45.3069 C   0  0  0  0  0  0  0  0  0  0  0  0
   90.9272   95.3982  -45.6323 C   0  0  0  0  0  0  0  0  0  0  0  0
   91.3950   94.0454  -45.9658 C   0  0  0  0  0  0  0  0  0  0  0  0
   91.3372   93.1587  -44.8304 N   0  0  0  0  0  0  0  0  0  0  0  0
   90.8967   92.2863  -44.9493 H   0  0  0  0  0  0  0  0  0  0  0  0
   91.1613   94.1444  -42.5879 C   0  0  0  0  0  0  0  0  0  0  0  0
   91.8624   93.4558  -43.5813 C   0  0  0  0  0  0  0  0  0  0  0  0
   93.1728   93.0560  -43.2838 C   0  0  0  0  0  0  0  0  0  0  0  0
   93.7554   93.3301  -42.0411 C   0  0  0  0  0  0  0  0  0  0  0  0
   93.0362   94.0145  -41.0681 C   0  0  0  0  0  0  0  0  0  0  0  0
   91.7310   94.4194  -41.3409 C   0  0  0  0  0  0  0  0  0  0  0  0
   91.8375  101.0612  -43.9223 C   0  0  0  0  0  0  0  0  0  0  0  0
   91.5714  101.8135  -42.6366 N   0  0  0  0  0  0  0  0  0  0  0  0
   92.3940  103.0701  -42.5947 C   0  0  0  0  0  0  0  0  0  0  0  0
   92.0609  103.8217  -41.3168 C   0  0  0  0  0  0  0  0  0  0  0  0
   92.3600  102.9251  -40.1179 C   0  0  0  0  0  0  0  0  0  0  0  0
   91.4625  101.6804  -40.1526 C   0  0  0  0  0  0  0  0  0  0  0  0
   91.7115  100.9111  -41.4404 C   0  0  0  0  0  0  0  0  0  0  0  0
   92.2423  103.6922  -38.7919 N   0  0  0  0  0  0  0  0  0  0  0  0
   89.9959  104.6913  -38.2733 C   0  0  0  0  0  0  0  0  0  0  0  0
   90.8872  103.4711  -38.1068 C   0  0  0  0  0  0  0  0  0  0  0  0
   93.3687  103.4553  -37.8036 C   0  0  0  0  0  0  0  0  0  0  0  0
   94.1353  104.7454  -37.5679 C   0  0  0  0  0  0  0  0  0  0  0  0
 15 16  1  0  0  0
 15 20  2  0  0  0
 13 12  1  0  0  0
 13 16  1  0  0  0
  1  4  1  0  0  0
  1  5  2  0  0  0
  1 10  1  0  0  0
  2 21  1  0  0  0
  2  5  1  0  0  0
  2  7  2  0  0  0
 22 21  1  0  0  0
 22 23  1  0  0  0
 22 27  1  0  0  0
  3  7  1  0  0  0
  4  6  2  0  0  0
 28 25  1  0  0  0
 28 31  1  0  0  0
 28 30  1  0  0  0
 23 24  1  0  0  0
 10 11  3  0  0  0
  6  7  1  0  0  0
  6  8  1  0  0  0
 11 12  1  0  0  0
 16 17  2  0  0  0
 17 18  1  0  0  0
 24 25  1  0  0  0
 18 19  2  0  0  0
 25 26  1  0  0  0
 29 30  1  0  0  0
 31 32  1  0  0  0
 26 27  1  0  0  0
 19 20  1  0  0  0
 13 14  1  0  0  0
  3  9  1  0  0  0
M  END
> <minimizedAffinity>
-6.11728

$$$$
4AGQ_P96_A_1291


 32 34  0  0  0  0  0  0  0  0999 V2000
   91.3087   93.6535  -45.6421 C   0  0  0  0  0  0  0  0  0  0  0  0
   90.6910   95.7507  -44.5831 C   0  0  0  0  0  0  0  0  0  0  0  0
   91.3226   96.1732  -42.3195 O   0  0  0  0  0  0  0  0  0  0  0  0
   91.9427   93.2436  -44.4609 C   0  0  0  0  0  0  0  0  0  0  0  0
   90.6953   94.9097  -45.7043 C   0  0  0  0  0  0  0  0  0  0  0  0
   91.9518   94.0801  -43.3355 C   0  0  0  0  0  0  0  0  0  0  0  0
   91.3210   95.3249  -43.4042 C   0  0  0  0  0  0  0  0  0  0  0  0
   92.8804   93.4753  -41.5194 I   0  0  0  0  0  0  0  0  0  0  0  0
   90.8968   97.0060  -42.3754 H   0  0  0  0  0  0  0  0  0  0  0  0
   91.3149   92.8231  -46.8043 C   0  0  0  0  0  0  0  0  0  0  0  0
   91.3340   92.0822  -47.7501 C   0  0  0  0  0  0  0  0  0  0  0  0
   91.2938   91.1917  -48.9187 C   0  0  0  0  0  0  0  0  0  0  0  0
   90.7012   89.9153  -48.6051 N   0  0  0  0  0  0  0  0  0  0  0  0
   90.8134   89.5675  -47.6909 H   0  0  0  0  0  0  0  0  0  0  0  0
   89.2136   89.6810  -50.5451 C   0  0  0  0  0  0  0  0  0  0  0  0
   89.9832   89.1458  -49.5088 C   0  0  0  0  0  0  0  0  0  0  0  0
   90.0144   87.7495  -49.3861 C   0  0  0  0  0  0  0  0  0  0  0  0
   89.3083   86.9232  -50.2676 C   0  0  0  0  0  0  0  0  0  0  0  0
   88.5517   87.4798  -51.2924 C   0  0  0  0  0  0  0  0  0  0  0  0
   88.5080   88.8653  -51.4350 C   0  0  0  0  0  0  0  0  0  0  0  0
   90.0065   97.0880  -44.6700 C   0  0  0  0  0  0  0  0  0  0  0  0
   90.6011   97.9927  -45.7272 N   0  0  0  0  0  0  0  0  0  0  0  0
   91.7150   98.8111  -45.1384 C   0  0  0  0  0  0  0  0  0  0  0  0
   92.3193   99.6657  -46.2399 C   0  0  0  0  0  0  0  0  0  0  0  0
   91.2316  100.5581  -46.8328 C   0  0  0  0  0  0  0  0  0  0  0  0
   90.1386   99.6978  -47.4817 C   0  0  0  0  0  0  0  0  0  0  0  0
   89.5299   98.7770  -46.4358 C   0  0  0  0  0  0  0  0  0  0  0  0
   91.8149  101.5928  -47.8074 N   0  0  0  0  0  0  0  0  0  0  0  0
   94.0916  102.5672  -48.2324 C   0  0  0  0  0  0  0  0  0  0  0  0
   92.9923  102.3682  -47.2015 C   0  0  0  0  0  0  0  0  0  0  0  0
   92.1958  101.0542  -49.1735 C   0  0  0  0  0  0  0  0  0  0  0  0
   91.2671  101.6197  -50.2343 C   0  0  0  0  0  0  0  0  0  0  0  0
 15 16  1  0  0  0
 15 20  2  0  0  0
 13 12  1  0  0  0
 13 16  1  0  0  0
  1  4  1  0  0  0
  1  5  2  0  0  0
  1 10  1  0  0  0
  2 21  1  0  0  0
  2  5  1  0  0  0
  2  7  2  0  0  0
 22 21  1  0  0  0
 22 23  1  0  0  0
 22 27  1  0  0  0
  3  7  1  0  0  0
  4  6  2  0  0  0
 28 25  1  0  0  0
 28 31  1  0  0  0
 28 30  1  0  0  0
 23 24  1  0  0  0
 10 11  3  0  0  0
  6  7  1  0  0  0
  6  8  1  0  0  0
 11 12  1  0  0  0
 16 17  2  0  0  0
 17 18  1  0  0  0
 24 25  1  0  0  0
 18 19  2  0  0  0
 25 26  1  0  0  0
 29 30  1  0  0  0
 31 32  1  0  0  0
 26 27  1  0  0  0
 19 20  1  0  0  0
 13 14  1  0  0  0
  3  9  1  0  0  0
M  END
> <minimizedAffinity>
-6.11306

$$$$
4AGQ_P96_A_1291


 32 34  0  0  0  0  0  0  0  0999 V2000
   90.1176   98.7382  -43.6152 C   0  0  0  0  0  0  0  0  0  0  0  0
   90.7212  100.4524  -42.0032 C   0  0  0  0  0  0  0  0  0  0  0  0
   89.1075  102.0810  -41.3363 O   0  0  0  0  0  0  0  0  0  0  0  0
   88.8238   99.2713  -43.6980 C   0  0  0  0  0  0  0  0  0  0  0  0
   91.0588   99.3220  -42.7599 C   0  0  0  0  0  0  0  0  0  0  0  0
   88.4723  100.3970  -42.9394 C   0  0  0  0  0  0  0  0  0  0  0  0
   89.4258  100.9817  -42.1021 C   0  0  0  0  0  0  0  0  0  0  0  0
   86.5260  101.2471  -43.0643 I   0  0  0  0  0  0  0  0  0  0  0  0
   89.7539  102.4660  -40.7779 H   0  0  0  0  0  0  0  0  0  0  0  0
   90.4815   97.5760  -44.3618 C   0  0  0  0  0  0  0  0  0  0  0  0
   90.8286   96.5900  -44.9544 C   0  0  0  0  0  0  0  0  0  0  0  0
   91.1925   95.3586  -45.6694 C   0  0  0  0  0  0  0  0  0  0  0  0
   91.0399   94.1881  -44.8415 N   0  0  0  0  0  0  0  0  0  0  0  0
   90.4319   93.4793  -45.1533 H   0  0  0  0  0  0  0  0  0  0  0  0
   91.1835   94.4059  -42.3995 C   0  0  0  0  0  0  0  0  0  0  0  0
   91.6949   93.9965  -43.6338 C   0  0  0  0  0  0  0  0  0  0  0  0
   92.9459   93.3636  -43.6334 C   0  0  0  0  0  0  0  0  0  0  0  0
   93.6534   93.1453  -42.4457 C   0  0  0  0  0  0  0  0  0  0  0  0
   93.1221   93.5597  -41.2298 C   0  0  0  0  0  0  0  0  0  0  0  0
   91.8788   94.1887  -41.2059 C   0  0  0  0  0  0  0  0  0  0  0  0
   91.7581  101.0733  -41.1067 C   0  0  0  0  0  0  0  0  0  0  0  0
   92.2676  102.4029  -41.6190 N   0  0  0  0  0  0  0  0  0  0  0  0
   93.0924  102.1965  -42.8577 C   0  0  0  0  0  0  0  0  0  0  0  0
   93.5409  103.5549  -43.3699 C   0  0  0  0  0  0  0  0  0  0  0  0
   94.3465  104.2581  -42.2803 C   0  0  0  0  0  0  0  0  0  0  0  0
   93.4629  104.5120  -41.0512 C   0  0  0  0  0  0  0  0  0  0  0  0
   92.9364  103.1872  -40.5224 C   0  0  0  0  0  0  0  0  0  0  0  0
   95.0042  105.5451  -42.8017 N   0  0  0  0  0  0  0  0  0  0  0  0
   96.9686  104.8460  -44.2038 C   0  0  0  0  0  0  0  0  0  0  0  0
   95.5483  105.3874  -44.2277 C   0  0  0  0  0  0  0  0  0  0  0  0
   94.1489  106.7945  -42.7073 C   0  0  0  0  0  0  0  0  0  0  0  0
   93.7015  107.2258  -44.0935 C   0  0  0  0  0  0  0  0  0  0  0  0
 15 16  1  0  0  0
 15 20  2  0  0  0
 13 12  1  0  0  0
 13 16  1  0  0  0
  1  4  1  0  0  0
  1  5  2  0  0  0
  1 10  1  0  0  0
  2 21  1  0  0  0
  2  5  1  0  0  0
  2  7  2  0  0  0
 22 21  1  0  0  0
 22 23  1  0  0  0
 22 27  1  0  0  0
  3  7  1  0  0  0
  4  6  2  0  0  0
 28 25  1  0  0  0
 28 31  1  0  0  0
 28 30  1  0  0  0
 23 24  1  0  0  0
 10 11  3  0  0  0
  6  7  1  0  0  0
  6  8  1  0  0  0
 11 12  1  0  0  0
 16 17  2  0  0  0
 17 18  1  0  0  0
 24 25  1  0  0  0
 18 19  2  0  0  0
 25 26  1  0  0  0
 29 30  1  0  0  0
 31 32  1  0  0  0
 26 27  1  0  0  0
 19 20  1  0  0  0
 13 14  1  0  0  0
  3  9  1  0  0  0
M  END
> <minimizedAffinity>
-5.97733

$$$$
4AGQ_P96_A_1291


 32 34  0  0  0  0  0  0  0  0999 V2000
   91.2313   94.1388  -45.5069 C   0  0  0  0  0  0  0  0  0  0  0  0
   90.8957   96.5218  -45.1747 C   0  0  0  0  0  0  0  0  0  0  0  0
   91.0517   97.4520  -42.9813 O   0  0  0  0  0  0  0  0  0  0  0  0
   91.4495   93.9777  -44.1316 C   0  0  0  0  0  0  0  0  0  0  0  0
   90.9670   95.4110  -46.0265 C   0  0  0  0  0  0  0  0  0  0  0  0
   91.3888   95.0832  -43.2710 C   0  0  0  0  0  0  0  0  0  0  0  0
   91.1069   96.3456  -43.7991 C   0  0  0  0  0  0  0  0  0  0  0  0
   91.6870   94.8672  -41.1756 I   0  0  0  0  0  0  0  0  0  0  0  0
   90.8619   98.2945  -43.3449 H   0  0  0  0  0  0  0  0  0  0  0  0
   91.3166   93.0262  -46.3986 C   0  0  0  0  0  0  0  0  0  0  0  0
   91.3580   92.1184  -47.1847 C   0  0  0  0  0  0  0  0  0  0  0  0
   91.4751   91.0122  -48.1453 C   0  0  0  0  0  0  0  0  0  0  0  0
   90.2759   90.8480  -48.9288 N   0  0  0  0  0  0  0  0  0  0  0  0
   89.6484   90.1360  -48.6669 H   0  0  0  0  0  0  0  0  0  0  0  0
   88.6398   91.9657  -50.3798 C   0  0  0  0  0  0  0  0  0  0  0  0
   89.9495   91.6289  -50.0279 C   0  0  0  0  0  0  0  0  0  0  0  0
   90.9797   92.1107  -50.8478 C   0  0  0  0  0  0  0  0  0  0  0  0
   90.7099   92.9011  -51.9708 C   0  0  0  0  0  0  0  0  0  0  0  0
   89.3983   93.2247  -52.2985 C   0  0  0  0  0  0  0  0  0  0  0  0
   88.3583   92.7589  -51.4964 C   0  0  0  0  0  0  0  0  0  0  0  0
   90.5895   97.8755  -45.7563 C   0  0  0  0  0  0  0  0  0  0  0  0
   89.2139   98.3848  -45.3851 N   0  0  0  0  0  0  0  0  0  0  0  0
   88.1840   97.3209  -45.6397 C   0  0  0  0  0  0  0  0  0  0  0  0
   86.8271   97.8502  -45.2068 C   0  0  0  0  0  0  0  0  0  0  0  0
   86.5138   99.1217  -45.9916 C   0  0  0  0  0  0  0  0  0  0  0  0
   87.5447  100.2110  -45.6652 C   0  0  0  0  0  0  0  0  0  0  0  0
   88.9365   99.7173  -46.0273 C   0  0  0  0  0  0  0  0  0  0  0  0
   85.0711   99.5942  -45.7547 N   0  0  0  0  0  0  0  0  0  0  0  0
   84.2060  100.2679  -43.4938 C   0  0  0  0  0  0  0  0  0  0  0  0
   84.9880  100.7209  -44.7162 C   0  0  0  0  0  0  0  0  0  0  0  0
   84.3022   99.9814  -47.0038 C   0  0  0  0  0  0  0  0  0  0  0  0
   84.2058  101.4938  -47.1087 C   0  0  0  0  0  0  0  0  0  0  0  0
 15 16  1  0  0  0
 15 20  2  0  0  0
 13 12  1  0  0  0
 13 16  1  0  0  0
  1  4  1  0  0  0
  1  5  2  0  0  0
  1 10  1  0  0  0
  2 21  1  0  0  0
  2  5  1  0  0  0
  2  7  2  0  0  0
 22 21  1  0  0  0
 22 23  1  0  0  0
 22 27  1  0  0  0
  3  7  1  0  0  0
  4  6  2  0  0  0
 28 25  1  0  0  0
 28 31  1  0  0  0
 28 30  1  0  0  0
 23 24  1  0  0  0
 10 11  3  0  0  0
  6  7  1  0  0  0
  6  8  1  0  0  0
 11 12  1  0  0  0
 16 17  2  0  0  0
 17 18  1  0  0  0
 24 25  1  0  0  0
 18 19  2  0  0  0
 25 26  1  0  0  0
 29 30  1  0  0  0
 31 32  1  0  0  0
 26 27  1  0  0  0
 19 20  1  0  0  0
 13 14  1  0  0  0
  3  9  1  0  0  0
M  END
> <minimizedAffinity>
-5.89502

$$$$
4AGQ_P96_A_1291


 32 34  0  0  0  0  0  0  0  0999 V2000
   87.9906   96.3522  -48.4272 C   0  0  0  0  0  0  0  0  0  0  0  0
   88.2019   94.8137  -50.2953 C   0  0  0  0  0  0  0  0  0  0  0  0
   86.5786   94.8366  -52.0462 O   0  0  0  0  0  0  0  0  0  0  0  0
   86.8216   96.8794  -48.9932 C   0  0  0  0  0  0  0  0  0  0  0  0
   88.6840   95.3299  -49.0847 C   0  0  0  0  0  0  0  0  0  0  0  0
   86.3345   96.3764  -50.2082 C   0  0  0  0  0  0  0  0  0  0  0  0
   87.0258   95.3438  -50.8467 C   0  0  0  0  0  0  0  0  0  0  0  0
   84.5477   97.1355  -51.0787 I   0  0  0  0  0  0  0  0  0  0  0  0
   87.0493   94.1440  -52.4667 H   0  0  0  0  0  0  0  0  0  0  0  0
   88.5130   96.8730  -47.2039 C   0  0  0  0  0  0  0  0  0  0  0  0
   88.9909   97.2721  -46.1762 C   0  0  0  0  0  0  0  0  0  0  0  0
   89.5844   97.8194  -44.9481 C   0  0  0  0  0  0  0  0  0  0  0  0
   90.8941   97.2740  -44.6916 N   0  0  0  0  0  0  0  0  0  0  0  0
   91.6491   97.9020  -44.6220 H   0  0  0  0  0  0  0  0  0  0  0  0
   91.2895   95.2928  -43.2952 C   0  0  0  0  0  0  0  0  0  0  0  0
   91.1587   95.9211  -44.5364 C   0  0  0  0  0  0  0  0  0  0  0  0
   91.3137   95.1247  -45.6798 C   0  0  0  0  0  0  0  0  0  0  0  0
   91.5836   93.7548  -45.5843 C   0  0  0  0  0  0  0  0  0  0  0  0
   91.7066   93.1522  -44.3375 C   0  0  0  0  0  0  0  0  0  0  0  0
   91.5539   93.9239  -43.1872 C   0  0  0  0  0  0  0  0  0  0  0  0
   88.9552   93.7004  -50.9717 C   0  0  0  0  0  0  0  0  0  0  0  0
   88.8085   92.3694  -50.2669 N   0  0  0  0  0  0  0  0  0  0  0  0
   90.0818   91.5806  -50.3843 C   0  0  0  0  0  0  0  0  0  0  0  0
   89.9132   90.2771  -49.6219 C   0  0  0  0  0  0  0  0  0  0  0  0
   88.7305   89.5074  -50.2046 C   0  0  0  0  0  0  0  0  0  0  0  0
   87.4348   90.3081  -50.0153 C   0  0  0  0  0  0  0  0  0  0  0  0
   87.5627   91.6528  -50.7134 C   0  0  0  0  0  0  0  0  0  0  0  0
   88.6313   88.0904  -49.6190 N   0  0  0  0  0  0  0  0  0  0  0  0
   89.7553   86.1906  -50.8195 C   0  0  0  0  0  0  0  0  0  0  0  0
   89.9322   87.2948  -49.7896 C   0  0  0  0  0  0  0  0  0  0  0  0
   88.1620   88.0156  -48.1783 C   0  0  0  0  0  0  0  0  0  0  0  0
   87.1362   86.9062  -48.0211 C   0  0  0  0  0  0  0  0  0  0  0  0
 15 16  1  0  0  0
 15 20  2  0  0  0
 13 12  1  0  0  0
 13 16  1  0  0  0
  1  4  1  0  0  0
  1  5  2  0  0  0
  1 10  1  0  0  0
  2 21  1  0  0  0
  2  5  1  0  0  0
  2  7  2  0  0  0
 22 21  1  0  0  0
 22 23  1  0  0  0
 22 27  1  0  0  0
  3  7  1  0  0  0
  4  6  2  0  0  0
 28 25  1  0  0  0
 28 31  1  0  0  0
 28 30  1  0  0  0
 23 24  1  0  0  0
 10 11  3  0  0  0
  6  7  1  0  0  0
  6  8  1  0  0  0
 11 12  1  0  0  0
 16 17  2  0  0  0
 17 18  1  0  0  0
 24 25  1  0  0  0
 18 19  2  0  0  0
 25 26  1  0  0  0
 29 30  1  0  0  0
 31 32  1  0  0  0
 26 27  1  0  0  0
 19 20  1  0  0  0
 13 14  1  0  0  0
  3  9  1  0  0  0
M  END
> <minimizedAffinity>
-5.69234

$$$$
4AGQ_P96_A_1291


 32 34  0  0  0  0  0  0  0  0999 V2000
   90.3464   90.8299  -48.9829 C   0  0  0  0  0  0  0  0  0  0  0  0
   89.5163   91.2931  -51.2185 C   0  0  0  0  0  0  0  0  0  0  0  0
   88.4326   89.5704  -52.4670 O   0  0  0  0  0  0  0  0  0  0  0  0
   89.8871   89.5095  -49.0857 C   0  0  0  0  0  0  0  0  0  0  0  0
   90.1496   91.7211  -50.0437 C   0  0  0  0  0  0  0  0  0  0  0  0
   89.2448   89.0725  -50.2531 C   0  0  0  0  0  0  0  0  0  0  0  0
   89.0694   89.9666  -51.3123 C   0  0  0  0  0  0  0  0  0  0  0  0
   88.5617   87.0674  -50.4513 I   0  0  0  0  0  0  0  0  0  0  0  0
   88.3198   90.1775  -53.1718 H   0  0  0  0  0  0  0  0  0  0  0  0
   90.9783   91.2962  -47.7897 C   0  0  0  0  0  0  0  0  0  0  0  0
   91.4654   91.7188  -46.7759 C   0  0  0  0  0  0  0  0  0  0  0  0
   92.0667   92.1730  -45.5140 C   0  0  0  0  0  0  0  0  0  0  0  0
   91.5650   93.4630  -45.1103 N   0  0  0  0  0  0  0  0  0  0  0  0
   91.1350   94.0250  -45.7948 H   0  0  0  0  0  0  0  0  0  0  0  0
   92.0836   93.2135  -42.7227 C   0  0  0  0  0  0  0  0  0  0  0  0
   91.6494   93.9632  -43.8191 C   0  0  0  0  0  0  0  0  0  0  0  0
   91.2752   95.2932  -43.5810 C   0  0  0  0  0  0  0  0  0  0  0  0
   91.3377   95.8509  -42.2989 C   0  0  0  0  0  0  0  0  0  0  0  0
   91.7756   95.0851  -41.2245 C   0  0  0  0  0  0  0  0  0  0  0  0
   92.1551   93.7614  -41.4382 C   0  0  0  0  0  0  0  0  0  0  0  0
   89.3354   92.2659  -52.3523 C   0  0  0  0  0  0  0  0  0  0  0  0
   90.0654   93.5735  -52.1360 N   0  0  0  0  0  0  0  0  0  0  0  0
   89.0801   94.7026  -52.0286 C   0  0  0  0  0  0  0  0  0  0  0  0
   89.8464   95.9870  -51.7603 C   0  0  0  0  0  0  0  0  0  0  0  0
   90.8369   96.2242  -52.8975 C   0  0  0  0  0  0  0  0  0  0  0  0
   91.8684   95.0886  -52.9446 C   0  0  0  0  0  0  0  0  0  0  0  0
   91.1543   93.7631  -53.1574 C   0  0  0  0  0  0  0  0  0  0  0  0
   91.4971   97.6079  -52.7961 N   0  0  0  0  0  0  0  0  0  0  0  0
   93.7229   98.4158  -51.9554 C   0  0  0  0  0  0  0  0  0  0  0  0
   93.0188   97.5448  -52.9833 C   0  0  0  0  0  0  0  0  0  0  0  0
   90.9067   98.6757  -53.6976 C   0  0  0  0  0  0  0  0  0  0  0  0
   90.2677   98.0334  -54.9170 C   0  0  0  0  0  0  0  0  0  0  0  0
 15 16  1  0  0  0
 15 20  2  0  0  0
 13 12  1  0  0  0
 13 16  1  0  0  0
  1  4  1  0  0  0
  1  5  2  0  0  0
  1 10  1  0  0  0
  2 21  1  0  0  0
  2  5  1  0  0  0
  2  7  2  0  0  0
 22 21  1  0  0  0
 22 23  1  0  0  0
 22 27  1  0  0  0
  3  7  1  0  0  0
  4  6  2  0  0  0
 28 25  1  0  0  0
 28 31  1  0  0  0
 28 30  1  0  0  0
 23 24  1  0  0  0
 10 11  3  0  0  0
  6  7  1  0  0  0
  6  8  1  0  0  0
 11 12  1  0  0  0
 16 17  2  0  0  0
 17 18  1  0  0  0
 24 25  1  0  0  0
 18 19  2  0  0  0
 25 26  1  0  0  0
 29 30  1  0  0  0
 31 32  1  0  0  0
 26 27  1  0  0  0
 19 20  1  0  0  0
 13 14  1  0  0  0
  3  9  1  0  0  0
M  END
> <minimizedAffinity>
-5.59838

$$$$
