5E2S_5CX_A_302


 21 22  0  0  0  0  0  0  0  0999 V2000
   -5.7410    2.6486   16.0098 C   0  0  0  0  0  0  0  0  0  0  0  0
   -4.6495    2.4596   15.2050 C   0  0  0  0  0  0  0  0  0  0  0  0
   -4.2728    3.4515   14.3062 C   0  0  0  0  0  0  0  0  0  0  0  0
   -4.9811    4.6536   14.2681 C   0  0  0  0  0  0  0  0  0  0  0  0
   -6.0769    4.8068   15.0734 C   0  0  0  0  0  0  0  0  0  0  0  0
   -6.4436    3.8304   15.9662 C   0  0  0  0  0  0  0  0  0  0  0  0
   -6.2750    1.4206   17.1472 S   0  0  0  0  0  0  0  0  0  0  0  0
   -5.3332    0.0843   16.9021 N   0  0  0  0  0  0  0  0  0  0  0  0
   -7.6230    1.2665   16.7520 O   0  0  0  0  0  0  0  0  0  0  0  0
   -6.0519    1.7743   18.4222 O   0  0  0  0  0  0  0  0  0  0  0  0
   -5.4521   -0.2444   15.9439 H   0  0  0  0  0  0  0  0  0  0  0  0
   -5.6119   -0.6517   17.5510 H   0  0  0  0  0  0  0  0  0  0  0  0
   -4.6559    5.6997   13.2668 C   0  0  0  0  0  0  0  0  0  0  0  0
   -5.6156    5.9101   12.2684 C   0  0  0  0  0  0  0  0  0  0  0  0
   -5.4568    6.8248   11.2559 C   0  0  0  0  0  0  0  0  0  0  0  0
   -4.2569    7.5213   11.2208 C   0  0  0  0  0  0  0  0  0  0  0  0
   -3.2878    7.3164   12.2049 C   0  0  0  0  0  0  0  0  0  0  0  0
   -3.4877    6.3990   13.2274 C   0  0  0  0  0  0  0  0  0  0  0  0
   -2.4627    6.1908   14.2736 C   0  0  0  0  0  0  0  0  0  0  0  0
   -1.3109    5.5007   13.5738 C   0  0  0  0  0  0  0  0  0  0  0  0
   -1.9579    7.5425   14.7694 C   0  0  0  0  0  0  0  0  0  0  0  0
 16 15  2  0  0  0
 16 17  1  0  0  0
 15 14  1  0  0  0
 17 18  2  0  0  0
 14 13  2  0  0  0
 20 19  1  0  0  0
 18 13  1  0  0  0
 18 19  1  0  0  0
 13  4  1  0  0  0
 19 21  1  0  0  0
  3  4  2  0  0  0
  3  2  1  0  0  0
  4  5  1  0  0  0
  2  1  2  0  0  0
  5  6  2  0  0  0
  1  6  1  0  0  0
  1  7  1  0  0  0
  8  7  1  0  0  0
  9  7  2  0  0  0
  7 10  2  0  0  0
  8 11  1  0  0  0
  8 12  1  0  0  0
M  END
> <minimizedAffinity>
-7.69990

$$$$
5E2S_5CX_A_302


 21 22  0  0  0  0  0  0  0  0999 V2000
   -5.5726    2.6733   16.1577 C   0  0  0  0  0  0  0  0  0  0  0  0
   -6.2904    3.7630   15.7431 C   0  0  0  0  0  0  0  0  0  0  0  0
   -5.6727    4.7494   14.9820 C   0  0  0  0  0  0  0  0  0  0  0  0
   -4.3380    4.5949   14.6041 C   0  0  0  0  0  0  0  0  0  0  0  0
   -3.6423    3.5029   15.0471 C   0  0  0  0  0  0  0  0  0  0  0  0
   -4.2549    2.5255   15.7916 C   0  0  0  0  0  0  0  0  0  0  0  0
   -6.2960    1.4085   17.1395 S   0  0  0  0  0  0  0  0  0  0  0  0
   -5.4021    0.0375   16.9075 N   0  0  0  0  0  0  0  0  0  0  0  0
   -7.5958    1.3597   16.5870 O   0  0  0  0  0  0  0  0  0  0  0  0
   -6.2032    1.6662   18.4530 O   0  0  0  0  0  0  0  0  0  0  0  0
   -5.4267   -0.2216   15.9213 H   0  0  0  0  0  0  0  0  0  0  0  0
   -5.7909   -0.7208   17.4681 H   0  0  0  0  0  0  0  0  0  0  0  0
   -3.6264    5.6648   13.8612 C   0  0  0  0  0  0  0  0  0  0  0  0
   -2.9665    6.6192   14.6459 C   0  0  0  0  0  0  0  0  0  0  0  0
   -2.2817    7.6844   14.1136 C   0  0  0  0  0  0  0  0  0  0  0  0
   -2.3058    7.8201   12.7326 C   0  0  0  0  0  0  0  0  0  0  0  0
   -2.9660    6.8808   11.9382 C   0  0  0  0  0  0  0  0  0  0  0  0
   -3.6318    5.8032   12.5062 C   0  0  0  0  0  0  0  0  0  0  0  0
   -4.3229    4.8048   11.6611 C   0  0  0  0  0  0  0  0  0  0  0  0
   -4.8437    5.5806   10.4697 C   0  0  0  0  0  0  0  0  0  0  0  0
   -3.3110    3.7875   11.1426 C   0  0  0  0  0  0  0  0  0  0  0  0
 16 15  2  0  0  0
 16 17  1  0  0  0
 15 14  1  0  0  0
 17 18  2  0  0  0
 14 13  2  0  0  0
 20 19  1  0  0  0
 18 13  1  0  0  0
 18 19  1  0  0  0
 13  4  1  0  0  0
 19 21  1  0  0  0
  3  4  2  0  0  0
  3  2  1  0  0  0
  4  5  1  0  0  0
  2  1  2  0  0  0
  5  6  2  0  0  0
  1  6  1  0  0  0
  1  7  1  0  0  0
  8  7  1  0  0  0
  9  7  2  0  0  0
  7 10  2  0  0  0
  8 11  1  0  0  0
  8 12  1  0  0  0
M  END
> <minimizedAffinity>
-7.67150

$$$$
5E2S_5CX_A_302


 21 22  0  0  0  0  0  0  0  0999 V2000
   -5.8666    2.6265   15.7471 C   0  0  0  0  0  0  0  0  0  0  0  0
   -6.4213    3.8733   15.8594 C   0  0  0  0  0  0  0  0  0  0  0  0
   -6.0329    4.8842   14.9872 C   0  0  0  0  0  0  0  0  0  0  0  0
   -5.1175    4.6053   13.9712 C   0  0  0  0  0  0  0  0  0  0  0  0
   -4.5685    3.3541   13.8942 C   0  0  0  0  0  0  0  0  0  0  0  0
   -4.9583    2.3543   14.7506 C   0  0  0  0  0  0  0  0  0  0  0  0
   -6.3036    1.3185   16.8357 S   0  0  0  0  0  0  0  0  0  0  0  0
   -6.0356    1.8542   18.3765 N   0  0  0  0  0  0  0  0  0  0  0  0
   -5.4128    0.3101   16.4039 O   0  0  0  0  0  0  0  0  0  0  0  0
   -7.6138    1.0326   16.7899 O   0  0  0  0  0  0  0  0  0  0  0  0
   -5.0501    2.0929   18.4868 H   0  0  0  0  0  0  0  0  0  0  0  0
   -6.2840    1.1201   19.0397 H   0  0  0  0  0  0  0  0  0  0  0  0
   -4.6215    5.6792   13.0748 C   0  0  0  0  0  0  0  0  0  0  0  0
   -5.3497    5.8755   11.8944 C   0  0  0  0  0  0  0  0  0  0  0  0
   -5.0089    6.8128   10.9497 C   0  0  0  0  0  0  0  0  0  0  0  0
   -3.8557    7.5490   11.1825 C   0  0  0  0  0  0  0  0  0  0  0  0
   -3.1155    7.3587   12.3510 C   0  0  0  0  0  0  0  0  0  0  0  0
   -3.4984    6.4172   13.2965 C   0  0  0  0  0  0  0  0  0  0  0  0
   -2.7169    6.2244   14.5377 C   0  0  0  0  0  0  0  0  0  0  0  0
   -1.5757    5.3064   14.1536 C   0  0  0  0  0  0  0  0  0  0  0  0
   -2.1117    7.5560   14.9715 C   0  0  0  0  0  0  0  0  0  0  0  0
 16 15  2  0  0  0
 16 17  1  0  0  0
 15 14  1  0  0  0
 17 18  2  0  0  0
 14 13  2  0  0  0
 20 19  1  0  0  0
 18 13  1  0  0  0
 18 19  1  0  0  0
 13  4  1  0  0  0
 19 21  1  0  0  0
  3  4  2  0  0  0
  3  2  1  0  0  0
  4  5  1  0  0  0
  2  1  2  0  0  0
  5  6  2  0  0  0
  1  6  1  0  0  0
  1  7  1  0  0  0
  8  7  1  0  0  0
  9  7  2  0  0  0
  7 10  2  0  0  0
  8 11  1  0  0  0
  8 12  1  0  0  0
M  END
> <minimizedAffinity>
-7.44950

$$$$
5E2S_5CX_A_302


 21 22  0  0  0  0  0  0  0  0999 V2000
   -4.5790    2.4873   14.6858 C   0  0  0  0  0  0  0  0  0  0  0  0
   -5.0169    3.6439   15.2734 C   0  0  0  0  0  0  0  0  0  0  0  0
   -4.9799    4.8381   14.5620 C   0  0  0  0  0  0  0  0  0  0  0  0
   -4.5438    4.8385   13.2362 C   0  0  0  0  0  0  0  0  0  0  0  0
   -4.0973    3.6698   12.6815 C   0  0  0  0  0  0  0  0  0  0  0  0
   -4.1416    2.4897   13.3816 C   0  0  0  0  0  0  0  0  0  0  0  0
   -4.5822    0.9549   15.5452 S   0  0  0  0  0  0  0  0  0  0  0  0
   -6.0181    0.8528   16.3579 N   0  0  0  0  0  0  0  0  0  0  0  0
   -3.4505    1.1182   16.3755 O   0  0  0  0  0  0  0  0  0  0  0  0
   -4.5784   -0.0972   14.7123 O   0  0  0  0  0  0  0  0  0  0  0  0
   -6.0921    1.6284   17.0161 H   0  0  0  0  0  0  0  0  0  0  0  0
   -6.0586   -0.0302   16.8669 H   0  0  0  0  0  0  0  0  0  0  0  0
   -4.4160    6.1062   12.4751 C   0  0  0  0  0  0  0  0  0  0  0  0
   -5.5128    6.4529   11.6757 C   0  0  0  0  0  0  0  0  0  0  0  0
   -5.5439    7.5814   10.8930 C   0  0  0  0  0  0  0  0  0  0  0  0
   -4.4001    8.3673   10.8780 C   0  0  0  0  0  0  0  0  0  0  0  0
   -3.2963    8.0300   11.6637 C   0  0  0  0  0  0  0  0  0  0  0  0
   -3.3044    6.8931   12.4603 C   0  0  0  0  0  0  0  0  0  0  0  0
   -2.1366    6.5434   13.2984 C   0  0  0  0  0  0  0  0  0  0  0  0
   -0.9241    6.8893   12.4600 C   0  0  0  0  0  0  0  0  0  0  0  0
   -2.1114    7.4354   14.5359 C   0  0  0  0  0  0  0  0  0  0  0  0
 16 15  2  0  0  0
 16 17  1  0  0  0
 15 14  1  0  0  0
 17 18  2  0  0  0
 14 13  2  0  0  0
 20 19  1  0  0  0
 18 13  1  0  0  0
 18 19  1  0  0  0
 13  4  1  0  0  0
 19 21  1  0  0  0
  3  4  2  0  0  0
  3  2  1  0  0  0
  4  5  1  0  0  0
  2  1  2  0  0  0
  5  6  2  0  0  0
  1  6  1  0  0  0
  1  7  1  0  0  0
  8  7  1  0  0  0
  9  7  2  0  0  0
  7 10  2  0  0  0
  8 11  1  0  0  0
  8 12  1  0  0  0
M  END
> <minimizedAffinity>
-7.25822

$$$$
5E2S_5CX_A_302


 21 22  0  0  0  0  0  0  0  0999 V2000
   -4.5937    2.7898   14.5410 C   0  0  0  0  0  0  0  0  0  0  0  0
   -4.2080    2.7359   13.2283 C   0  0  0  0  0  0  0  0  0  0  0  0
   -4.2229    3.8915   12.4550 C   0  0  0  0  0  0  0  0  0  0  0  0
   -4.5827    5.1075   13.0380 C   0  0  0  0  0  0  0  0  0  0  0  0
   -4.9786    5.1269   14.3479 C   0  0  0  0  0  0  0  0  0  0  0  0
   -4.9560    3.9872   15.1129 C   0  0  0  0  0  0  0  0  0  0  0  0
   -4.6157    1.3572   15.5578 S   0  0  0  0  0  0  0  0  0  0  0  0
   -4.5033    0.0457   14.5579 N   0  0  0  0  0  0  0  0  0  0  0  0
   -5.8708    1.5045   16.1904 O   0  0  0  0  0  0  0  0  0  0  0  0
   -3.5388    1.2804   16.3546 O   0  0  0  0  0  0  0  0  0  0  0  0
   -5.2969    0.0377   13.9171 H   0  0  0  0  0  0  0  0  0  0  0  0
   -4.5079   -0.8084   15.1155 H   0  0  0  0  0  0  0  0  0  0  0  0
   -4.6865    6.3435   12.2230 C   0  0  0  0  0  0  0  0  0  0  0  0
   -5.9580    6.6343   11.7121 C   0  0  0  0  0  0  0  0  0  0  0  0
   -6.2167    7.7273   10.9213 C   0  0  0  0  0  0  0  0  0  0  0  0
   -5.1366    8.5337   10.5909 C   0  0  0  0  0  0  0  0  0  0  0  0
   -3.8622    8.2519   11.0866 C   0  0  0  0  0  0  0  0  0  0  0  0
   -3.6375    7.1504   11.9010 C   0  0  0  0  0  0  0  0  0  0  0  0
   -2.2876    6.8596   12.4318 C   0  0  0  0  0  0  0  0  0  0  0  0
   -1.3282    7.2845   11.3402 C   0  0  0  0  0  0  0  0  0  0  0  0
   -2.0184    7.7378   13.6500 C   0  0  0  0  0  0  0  0  0  0  0  0
 16 15  2  0  0  0
 16 17  1  0  0  0
 15 14  1  0  0  0
 17 18  2  0  0  0
 14 13  2  0  0  0
 20 19  1  0  0  0
 18 13  1  0  0  0
 18 19  1  0  0  0
 13  4  1  0  0  0
 19 21  1  0  0  0
  3  4  2  0  0  0
  3  2  1  0  0  0
  4  5  1  0  0  0
  2  1  2  0  0  0
  5  6  2  0  0  0
  1  6  1  0  0  0
  1  7  1  0  0  0
  8  7  1  0  0  0
  9  7  2  0  0  0
  7 10  2  0  0  0
  8 11  1  0  0  0
  8 12  1  0  0  0
M  END
> <minimizedAffinity>
-6.92579

$$$$
5E2S_5CX_A_302


 21 22  0  0  0  0  0  0  0  0999 V2000
   -3.8451    3.6475   14.9874 C   0  0  0  0  0  0  0  0  0  0  0  0
   -4.7212    4.6913   14.8530 C   0  0  0  0  0  0  0  0  0  0  0  0
   -4.2465    5.9532   14.5126 C   0  0  0  0  0  0  0  0  0  0  0  0
   -2.8857    6.1339   14.2607 C   0  0  0  0  0  0  0  0  0  0  0  0
   -2.0327    5.0755   14.4186 C   0  0  0  0  0  0  0  0  0  0  0  0
   -2.5029    3.8281   14.7468 C   0  0  0  0  0  0  0  0  0  0  0  0
   -4.3867    2.0378   15.4373 S   0  0  0  0  0  0  0  0  0  0  0  0
   -4.2651    1.0866   14.0909 N   0  0  0  0  0  0  0  0  0  0  0  0
   -5.7127    2.3116   15.8422 O   0  0  0  0  0  0  0  0  0  0  0  0
   -3.5810    1.4630   16.3433 O   0  0  0  0  0  0  0  0  0  0  0  0
   -4.8569    1.4660   13.3519 H   0  0  0  0  0  0  0  0  0  0  0  0
   -4.5675    0.1387   14.3158 H   0  0  0  0  0  0  0  0  0  0  0  0
   -2.3350    7.4820   13.9742 C   0  0  0  0  0  0  0  0  0  0  0  0
   -1.8908    8.2101   15.0853 C   0  0  0  0  0  0  0  0  0  0  0  0
   -1.3761    9.4804   14.9929 C   0  0  0  0  0  0  0  0  0  0  0  0
   -1.3548   10.0596   13.7319 C   0  0  0  0  0  0  0  0  0  0  0  0
   -1.8015    9.3487   12.6164 C   0  0  0  0  0  0  0  0  0  0  0  0
   -2.2971    8.0580   12.7405 C   0  0  0  0  0  0  0  0  0  0  0  0
   -2.7612    7.3042   11.5551 C   0  0  0  0  0  0  0  0  0  0  0  0
   -3.8725    8.1415   10.9582 C   0  0  0  0  0  0  0  0  0  0  0  0
   -1.6371    7.2287   10.5264 C   0  0  0  0  0  0  0  0  0  0  0  0
 16 15  2  0  0  0
 16 17  1  0  0  0
 15 14  1  0  0  0
 17 18  2  0  0  0
 14 13  2  0  0  0
 20 19  1  0  0  0
 18 13  1  0  0  0
 18 19  1  0  0  0
 13  4  1  0  0  0
 19 21  1  0  0  0
  3  4  2  0  0  0
  3  2  1  0  0  0
  4  5  1  0  0  0
  2  1  2  0  0  0
  5  6  2  0  0  0
  1  6  1  0  0  0
  1  7  1  0  0  0
  8  7  1  0  0  0
  9  7  2  0  0  0
  7 10  2  0  0  0
  8 11  1  0  0  0
  8 12  1  0  0  0
M  END
> <minimizedAffinity>
-6.88562

$$$$
5E2S_5CX_A_302


 21 22  0  0  0  0  0  0  0  0999 V2000
   -4.2218    3.2902   14.0866 C   0  0  0  0  0  0  0  0  0  0  0  0
   -3.7216    3.2798   12.8121 C   0  0  0  0  0  0  0  0  0  0  0  0
   -3.5180    4.4795   12.1391 C   0  0  0  0  0  0  0  0  0  0  0  0
   -3.7778    5.6876   12.7880 C   0  0  0  0  0  0  0  0  0  0  0  0
   -4.2921    5.6655   14.0560 C   0  0  0  0  0  0  0  0  0  0  0  0
   -4.4853    4.4810   14.7228 C   0  0  0  0  0  0  0  0  0  0  0  0
   -4.5197    1.8041   14.9752 S   0  0  0  0  0  0  0  0  0  0  0  0
   -3.4503    1.7648   16.2352 N   0  0  0  0  0  0  0  0  0  0  0  0
   -4.2731    0.8435   13.9686 O   0  0  0  0  0  0  0  0  0  0  0  0
   -5.7329    1.7865   15.5481 O   0  0  0  0  0  0  0  0  0  0  0  0
   -2.4970    1.7759   15.8725 H   0  0  0  0  0  0  0  0  0  0  0  0
   -3.5971    0.9146   16.7793 H   0  0  0  0  0  0  0  0  0  0  0  0
   -3.6480    6.9815   12.0727 C   0  0  0  0  0  0  0  0  0  0  0  0
   -2.4848    7.7145   12.3407 C   0  0  0  0  0  0  0  0  0  0  0  0
   -2.2243    8.9404   11.7781 C   0  0  0  0  0  0  0  0  0  0  0  0
   -3.2019    9.4716   10.9486 C   0  0  0  0  0  0  0  0  0  0  0  0
   -4.3697    8.7557   10.6784 C   0  0  0  0  0  0  0  0  0  0  0  0
   -4.5938    7.5092   11.2469 C   0  0  0  0  0  0  0  0  0  0  0  0
   -5.8284    6.7494   10.9515 C   0  0  0  0  0  0  0  0  0  0  0  0
   -6.9604    7.6022   11.4844 C   0  0  0  0  0  0  0  0  0  0  0  0
   -6.0082    6.6357    9.4408 C   0  0  0  0  0  0  0  0  0  0  0  0
 16 15  2  0  0  0
 16 17  1  0  0  0
 15 14  1  0  0  0
 17 18  2  0  0  0
 14 13  2  0  0  0
 20 19  1  0  0  0
 18 13  1  0  0  0
 18 19  1  0  0  0
 13  4  1  0  0  0
 19 21  1  0  0  0
  3  4  2  0  0  0
  3  2  1  0  0  0
  4  5  1  0  0  0
  2  1  2  0  0  0
  5  6  2  0  0  0
  1  6  1  0  0  0
  1  7  1  0  0  0
  8  7  1  0  0  0
  9  7  2  0  0  0
  7 10  2  0  0  0
  8 11  1  0  0  0
  8 12  1  0  0  0
M  END
> <minimizedAffinity>
-6.73112

$$$$
5E2S_5CX_A_302


 21 22  0  0  0  0  0  0  0  0999 V2000
   -3.5219    3.7962   12.5241 C   0  0  0  0  0  0  0  0  0  0  0  0
   -2.2130    4.1034   12.2649 C   0  0  0  0  0  0  0  0  0  0  0  0
   -1.7092    5.3472   12.6294 C   0  0  0  0  0  0  0  0  0  0  0  0
   -2.5295    6.2537   13.3027 C   0  0  0  0  0  0  0  0  0  0  0  0
   -3.8376    5.9244   13.5334 C   0  0  0  0  0  0  0  0  0  0  0  0
   -4.3322    4.6932   13.1806 C   0  0  0  0  0  0  0  0  0  0  0  0
   -4.2168    2.2489   12.0657 S   0  0  0  0  0  0  0  0  0  0  0  0
   -4.2458    2.1958   10.4138 N   0  0  0  0  0  0  0  0  0  0  0  0
   -5.4905    2.3448   12.6702 O   0  0  0  0  0  0  0  0  0  0  0  0
   -3.4457    1.2142   12.4335 O   0  0  0  0  0  0  0  0  0  0  0  0
   -4.8194    2.9610   10.0590 H   0  0  0  0  0  0  0  0  0  0  0  0
   -4.6401    1.3058   10.1091 H   0  0  0  0  0  0  0  0  0  0  0  0
   -2.0483    7.6180   13.6342 C   0  0  0  0  0  0  0  0  0  0  0  0
   -1.6903    7.8323   14.9713 C   0  0  0  0  0  0  0  0  0  0  0  0
   -1.2478    9.0435   15.4447 C   0  0  0  0  0  0  0  0  0  0  0  0
   -1.2126   10.0964   14.5412 C   0  0  0  0  0  0  0  0  0  0  0  0
   -1.5738    9.8996   13.2070 C   0  0  0  0  0  0  0  0  0  0  0  0
   -1.9972    8.6571   12.7550 C   0  0  0  0  0  0  0  0  0  0  0  0
   -2.3708    8.4498   11.3387 C   0  0  0  0  0  0  0  0  0  0  0  0
   -3.1178    9.7032   10.9341 C   0  0  0  0  0  0  0  0  0  0  0  0
   -1.1090    8.3690   10.4849 C   0  0  0  0  0  0  0  0  0  0  0  0
 16 15  2  0  0  0
 16 17  1  0  0  0
 15 14  1  0  0  0
 17 18  2  0  0  0
 14 13  2  0  0  0
 20 19  1  0  0  0
 18 13  1  0  0  0
 18 19  1  0  0  0
 13  4  1  0  0  0
 19 21  1  0  0  0
  3  4  2  0  0  0
  3  2  1  0  0  0
  4  5  1  0  0  0
  2  1  2  0  0  0
  5  6  2  0  0  0
  1  6  1  0  0  0
  1  7  1  0  0  0
  8  7  1  0  0  0
  9  7  2  0  0  0
  7 10  2  0  0  0
  8 11  1  0  0  0
  8 12  1  0  0  0
M  END
> <minimizedAffinity>
-6.35004

$$$$
5E2S_5CX_A_302


 21 22  0  0  0  0  0  0  0  0999 V2000
   -5.5672    2.5032   16.2831 C   0  0  0  0  0  0  0  0  0  0  0  0
   -4.2597    2.5635   15.8812 C   0  0  0  0  0  0  0  0  0  0  0  0
   -3.9002    3.3839   14.8175 C   0  0  0  0  0  0  0  0  0  0  0  0
   -4.8679    4.1784   14.2009 C   0  0  0  0  0  0  0  0  0  0  0  0
   -6.1691    4.0845   14.6143 C   0  0  0  0  0  0  0  0  0  0  0  0
   -6.5221    3.2805   15.6697 C   0  0  0  0  0  0  0  0  0  0  0  0
   -6.0811    1.4674   17.6060 S   0  0  0  0  0  0  0  0  0  0  0  0
   -7.5182    0.7823   17.1610 N   0  0  0  0  0  0  0  0  0  0  0  0
   -6.1825    2.4111   18.6530 O   0  0  0  0  0  0  0  0  0  0  0  0
   -5.2476    0.4336   17.7980 O   0  0  0  0  0  0  0  0  0  0  0  0
   -8.2079    1.5155   16.9964 H   0  0  0  0  0  0  0  0  0  0  0  0
   -7.8467    0.1674   17.9056 H   0  0  0  0  0  0  0  0  0  0  0  0
   -4.5345    5.0034   13.0131 C   0  0  0  0  0  0  0  0  0  0  0  0
   -5.3167    6.1503   12.8259 C   0  0  0  0  0  0  0  0  0  0  0  0
   -5.1512    7.0063   11.7643 C   0  0  0  0  0  0  0  0  0  0  0  0
   -4.1886    6.6636   10.8251 C   0  0  0  0  0  0  0  0  0  0  0  0
   -3.4067    5.5194   10.9945 C   0  0  0  0  0  0  0  0  0  0  0  0
   -3.5849    4.6855   12.0900 C   0  0  0  0  0  0  0  0  0  0  0  0
   -2.7486    3.4787   12.2711 C   0  0  0  0  0  0  0  0  0  0  0  0
   -3.3614    2.4280   11.3694 C   0  0  0  0  0  0  0  0  0  0  0  0
   -1.3367    3.7555   11.7636 C   0  0  0  0  0  0  0  0  0  0  0  0
 16 15  2  0  0  0
 16 17  1  0  0  0
 15 14  1  0  0  0
 17 18  2  0  0  0
 14 13  2  0  0  0
 20 19  1  0  0  0
 18 13  1  0  0  0
 18 19  1  0  0  0
 13  4  1  0  0  0
 19 21  1  0  0  0
  3  4  2  0  0  0
  3  2  1  0  0  0
  4  5  1  0  0  0
  2  1  2  0  0  0
  5  6  2  0  0  0
  1  6  1  0  0  0
  1  7  1  0  0  0
  8  7  1  0  0  0
  9  7  2  0  0  0
  7 10  2  0  0  0
  8 11  1  0  0  0
  8 12  1  0  0  0
M  END
> <minimizedAffinity>
-6.02335

$$$$
5E2S_5CX_A_302


 21 22  0  0  0  0  0  0  0  0999 V2000
   -3.8076    4.0879   11.8119 C   0  0  0  0  0  0  0  0  0  0  0  0
   -2.8370    4.5493   10.9635 C   0  0  0  0  0  0  0  0  0  0  0  0
   -2.5147    5.9020   10.9516 C   0  0  0  0  0  0  0  0  0  0  0  0
   -3.1484    6.7703   11.8418 C   0  0  0  0  0  0  0  0  0  0  0  0
   -4.1255    6.2825   12.6665 C   0  0  0  0  0  0  0  0  0  0  0  0
   -4.4376    4.9456   12.6834 C   0  0  0  0  0  0  0  0  0  0  0  0
   -4.2706    2.3936   11.8530 S   0  0  0  0  0  0  0  0  0  0  0  0
   -4.4833    1.9064   10.2878 N   0  0  0  0  0  0  0  0  0  0  0  0
   -5.4617    2.4661   12.6100 O   0  0  0  0  0  0  0  0  0  0  0  0
   -3.2930    1.6089   12.3318 O   0  0  0  0  0  0  0  0  0  0  0  0
   -5.2192    2.4645    9.8550 H   0  0  0  0  0  0  0  0  0  0  0  0
   -4.7491    0.9218   10.2713 H   0  0  0  0  0  0  0  0  0  0  0  0
   -2.8865    8.2306   11.8004 C   0  0  0  0  0  0  0  0  0  0  0  0
   -3.5927    8.9514   10.8288 C   0  0  0  0  0  0  0  0  0  0  0  0
   -3.4469   10.3049   10.6454 C   0  0  0  0  0  0  0  0  0  0  0  0
   -2.5121   10.9501   11.4429 C   0  0  0  0  0  0  0  0  0  0  0  0
   -1.7953   10.2431   12.4103 C   0  0  0  0  0  0  0  0  0  0  0  0
   -1.9810    8.8785   12.5849 C   0  0  0  0  0  0  0  0  0  0  0  0
   -1.2264    8.1341   13.6169 C   0  0  0  0  0  0  0  0  0  0  0  0
    0.1767    8.7016   13.5741 C   0  0  0  0  0  0  0  0  0  0  0  0
   -1.8065    8.4416   14.9941 C   0  0  0  0  0  0  0  0  0  0  0  0
 16 15  2  0  0  0
 16 17  1  0  0  0
 15 14  1  0  0  0
 17 18  2  0  0  0
 14 13  2  0  0  0
 20 19  1  0  0  0
 18 13  1  0  0  0
 18 19  1  0  0  0
 13  4  1  0  0  0
 19 21  1  0  0  0
  3  4  2  0  0  0
  3  2  1  0  0  0
  4  5  1  0  0  0
  2  1  2  0  0  0
  5  6  2  0  0  0
  1  6  1  0  0  0
  1  7  1  0  0  0
  8  7  1  0  0  0
  9  7  2  0  0  0
  7 10  2  0  0  0
  8 11  1  0  0  0
  8 12  1  0  0  0
M  END
> <minimizedAffinity>
-5.99193

$$$$
