2J7B_NTZ_A_1446


 18 19  0  0  0  0  0  0  0  0999 V2000
   33.8053   24.4280   39.1139 C   0  0  0  0  0  0  0  0  0  0  0  0
   34.5879   23.4076   38.3523 C   0  0  0  0  0  0  0  0  0  0  0  0
   35.0205   23.9934   37.0128 C   0  0  0  0  0  0  0  0  0  0  0  0
   33.8969   24.8640   36.4084 C   0  0  0  0  0  0  0  0  0  0  0  0
   33.6704   26.1417   37.2550 C   0  0  0  0  0  0  0  0  0  0  0  0
   33.4225   25.5989   38.6046 N   0  0  0  0  0  0  0  0  0  0  0  0
   32.6619   26.3499   39.4872 N   0  0  0  0  0  0  0  0  0  0  0  0
   32.5762   25.5570   40.6209 N   0  0  0  0  0  0  0  0  0  0  0  0
   33.3228   24.3766   40.3730 N   0  0  0  0  0  0  0  0  0  0  0  0
   35.7279   22.9236   39.0642 O   0  0  0  0  0  0  0  0  0  0  0  0
   35.3401   22.8822   36.1538 O   0  0  0  0  0  0  0  0  0  0  0  0
   34.2422   25.2765   35.0980 O   0  0  0  0  0  0  0  0  0  0  0  0
   36.3443   23.6555   39.2234 H   0  0  0  0  0  0  0  0  0  0  0  0
   34.5602   22.3136   36.0570 H   0  0  0  0  0  0  0  0  0  0  0  0
   35.0491   25.8139   35.1302 H   0  0  0  0  0  0  0  0  0  0  0  0
   32.5101   26.9963   36.7626 C   0  0  0  0  0  0  0  0  0  0  0  0
   31.2529   26.3757   37.0687 O   0  0  0  0  0  0  0  0  0  0  0  0
   31.2027   25.5127   36.6287 H   0  0  0  0  0  0  0  0  0  0  0  0
  1  2  1  0  0  0
  1  6  1  0  0  0
  1  9  2  0  0  0
  2  3  1  0  0  0
  2 10  1  0  0  0
  3  4  1  0  0  0
  3 11  1  0  0  0
  4  5  1  0  0  0
  4 12  1  0  0  0
  5 16  1  0  0  0
  5  6  1  0  0  0
 16 17  1  0  0  0
  6  7  1  0  0  0
  7  8  2  0  0  0
  8  9  1  0  0  0
 10 13  1  0  0  0
 11 14  1  0  0  0
 12 15  1  0  0  0
 17 18  1  0  0  0
M  END
> <minimizedAffinity>
-8.27671

$$$$
2J7B_NTZ_A_1446


 18 19  0  0  0  0  0  0  0  0999 V2000
   33.3979   25.0464   39.4154 C   0  0  0  0  0  0  0  0  0  0  0  0
   33.8687   25.0705   37.9971 C   0  0  0  0  0  0  0  0  0  0  0  0
   32.6937   24.7940   37.0658 C   0  0  0  0  0  0  0  0  0  0  0  0
   31.7670   23.7114   37.6616 C   0  0  0  0  0  0  0  0  0  0  0  0
   31.0491   24.2344   38.9311 C   0  0  0  0  0  0  0  0  0  0  0  0
   32.1714   24.6748   39.7820 N   0  0  0  0  0  0  0  0  0  0  0  0
   31.9915   24.6845   41.1565 N   0  0  0  0  0  0  0  0  0  0  0  0
   33.2189   25.0906   41.6564 N   0  0  0  0  0  0  0  0  0  0  0  0
   34.0694   25.3386   40.5487 N   0  0  0  0  0  0  0  0  0  0  0  0
   34.5013   26.2985   37.6331 O   0  0  0  0  0  0  0  0  0  0  0  0
   33.2489   24.3711   35.8058 O   0  0  0  0  0  0  0  0  0  0  0  0
   30.7674   23.3472   36.7261 O   0  0  0  0  0  0  0  0  0  0  0  0
   33.8627   27.0250   37.7054 H   0  0  0  0  0  0  0  0  0  0  0  0
   33.7891   23.5768   35.9408 H   0  0  0  0  0  0  0  0  0  0  0  0
   30.2225   24.1220   36.5171 H   0  0  0  0  0  0  0  0  0  0  0  0
   30.1916   23.1808   39.6191 C   0  0  0  0  0  0  0  0  0  0  0  0
   31.0016   22.0993   40.1027 O   0  0  0  0  0  0  0  0  0  0  0  0
   31.4590   21.6795   39.3574 H   0  0  0  0  0  0  0  0  0  0  0  0
  1  2  1  0  0  0
  1  6  1  0  0  0
  1  9  2  0  0  0
  2  3  1  0  0  0
  2 10  1  0  0  0
  3  4  1  0  0  0
  3 11  1  0  0  0
  4  5  1  0  0  0
  4 12  1  0  0  0
  5 16  1  0  0  0
  5  6  1  0  0  0
 16 17  1  0  0  0
  6  7  1  0  0  0
  7  8  2  0  0  0
  8  9  1  0  0  0
 10 13  1  0  0  0
 11 14  1  0  0  0
 12 15  1  0  0  0
 17 18  1  0  0  0
M  END
> <minimizedAffinity>
-6.72544

$$$$
2J7B_NTZ_A_1446


 18 19  0  0  0  0  0  0  0  0999 V2000
   30.3565   24.5485   39.5761 C   0  0  0  0  0  0  0  0  0  0  0  0
   30.8898   24.8704   40.9347 C   0  0  0  0  0  0  0  0  0  0  0  0
   32.3346   25.3426   40.8158 C   0  0  0  0  0  0  0  0  0  0  0  0
   33.0927   24.5200   39.7507 C   0  0  0  0  0  0  0  0  0  0  0  0
   32.5453   24.8136   38.3313 C   0  0  0  0  0  0  0  0  0  0  0  0
   31.1041   24.5299   38.4726 N   0  0  0  0  0  0  0  0  0  0  0  0
   30.3937   24.1506   37.3443 N   0  0  0  0  0  0  0  0  0  0  0  0
   29.1110   23.9152   37.8143 N   0  0  0  0  0  0  0  0  0  0  0  0
   29.1074   24.1993   39.2040 N   0  0  0  0  0  0  0  0  0  0  0  0
   30.1128   25.8472   41.6293 O   0  0  0  0  0  0  0  0  0  0  0  0
   32.9330   25.1906   42.1171 O   0  0  0  0  0  0  0  0  0  0  0  0
   34.4690   24.8556   39.7546 O   0  0  0  0  0  0  0  0  0  0  0  0
   30.1326   26.6842   41.1393 H   0  0  0  0  0  0  0  0  0  0  0  0
   32.8850   24.2606   42.3884 H   0  0  0  0  0  0  0  0  0  0  0  0
   34.5735   25.7944   39.5342 H   0  0  0  0  0  0  0  0  0  0  0  0
   33.1899   23.9620   37.2458 C   0  0  0  0  0  0  0  0  0  0  0  0
   33.1409   24.6295   35.9764 O   0  0  0  0  0  0  0  0  0  0  0  0
   32.2162   24.7874   35.7297 H   0  0  0  0  0  0  0  0  0  0  0  0
  1  2  1  0  0  0
  1  6  1  0  0  0
  1  9  2  0  0  0
  2  3  1  0  0  0
  2 10  1  0  0  0
  3  4  1  0  0  0
  3 11  1  0  0  0
  4  5  1  0  0  0
  4 12  1  0  0  0
  5 16  1  0  0  0
  5  6  1  0  0  0
 16 17  1  0  0  0
  6  7  1  0  0  0
  7  8  2  0  0  0
  8  9  1  0  0  0
 10 13  1  0  0  0
 11 14  1  0  0  0
 12 15  1  0  0  0
 17 18  1  0  0  0
M  END
> <minimizedAffinity>
-6.62874

$$$$
2J7B_NTZ_A_1446


 18 19  0  0  0  0  0  0  0  0999 V2000
   31.3301   24.6285   37.8829 C   0  0  0  0  0  0  0  0  0  0  0  0
   32.5640   25.1275   37.2031 C   0  0  0  0  0  0  0  0  0  0  0  0
   33.7682   24.9160   38.1141 C   0  0  0  0  0  0  0  0  0  0  0  0
   33.3995   25.2110   39.5848 C   0  0  0  0  0  0  0  0  0  0  0  0
   32.4021   24.1570   40.1278 C   0  0  0  0  0  0  0  0  0  0  0  0
   31.2974   24.2204   39.1515 N   0  0  0  0  0  0  0  0  0  0  0  0
   30.0272   23.8550   39.5695 N   0  0  0  0  0  0  0  0  0  0  0  0
   29.2291   24.0692   38.4566 N   0  0  0  0  0  0  0  0  0  0  0  0
   30.0711   24.5234   37.4093 N   0  0  0  0  0  0  0  0  0  0  0  0
   32.7978   24.5130   35.9350 O   0  0  0  0  0  0  0  0  0  0  0  0
   34.8059   25.7996   37.6480 O   0  0  0  0  0  0  0  0  0  0  0  0
   34.5553   25.1652   40.4026 O   0  0  0  0  0  0  0  0  0  0  0  0
   32.9379   23.5610   36.0579 H   0  0  0  0  0  0  0  0  0  0  0  0
   34.4905   26.7162   37.6842 H   0  0  0  0  0  0  0  0  0  0  0  0
   34.9421   24.2764   40.3662 H   0  0  0  0  0  0  0  0  0  0  0  0
   31.9272   24.4469   41.5453 C   0  0  0  0  0  0  0  0  0  0  0  0
   31.5362   23.2369   42.2103 O   0  0  0  0  0  0  0  0  0  0  0  0
   30.8064   22.8221   41.7243 H   0  0  0  0  0  0  0  0  0  0  0  0
  1  2  1  0  0  0
  1  6  1  0  0  0
  1  9  2  0  0  0
  2  3  1  0  0  0
  2 10  1  0  0  0
  3  4  1  0  0  0
  3 11  1  0  0  0
  4  5  1  0  0  0
  4 12  1  0  0  0
  5 16  1  0  0  0
  5  6  1  0  0  0
 16 17  1  0  0  0
  6  7  1  0  0  0
  7  8  2  0  0  0
  8  9  1  0  0  0
 10 13  1  0  0  0
 11 14  1  0  0  0
 12 15  1  0  0  0
 17 18  1  0  0  0
M  END
> <minimizedAffinity>
-6.60345

$$$$
2J7B_NTZ_A_1446


 18 19  0  0  0  0  0  0  0  0999 V2000
   32.9257   24.4122   38.7229 C   0  0  0  0  0  0  0  0  0  0  0  0
   32.2247   23.8781   37.5158 C   0  0  0  0  0  0  0  0  0  0  0  0
   30.7191   23.8855   37.7565 C   0  0  0  0  0  0  0  0  0  0  0  0
   30.3958   23.4736   39.2096 C   0  0  0  0  0  0  0  0  0  0  0  0
   30.8824   24.5505   40.2117 C   0  0  0  0  0  0  0  0  0  0  0  0
   32.3123   24.6878   39.8739 N   0  0  0  0  0  0  0  0  0  0  0  0
   33.1839   25.1200   40.8613 N   0  0  0  0  0  0  0  0  0  0  0  0
   34.4279   25.0946   40.2506 N   0  0  0  0  0  0  0  0  0  0  0  0
   34.2355   24.6781   38.9084 N   0  0  0  0  0  0  0  0  0  0  0  0
   32.5312   24.5976   36.3204 O   0  0  0  0  0  0  0  0  0  0  0  0
   30.1398   22.9658   36.8114 O   0  0  0  0  0  0  0  0  0  0  0  0
   28.9972   23.3308   39.3832 O   0  0  0  0  0  0  0  0  0  0  0  0
   32.2296   25.5153   36.4091 H   0  0  0  0  0  0  0  0  0  0  0  0
   30.5164   22.0823   36.9474 H   0  0  0  0  0  0  0  0  0  0  0  0
   28.5617   24.1804   39.2117 H   0  0  0  0  0  0  0  0  0  0  0  0
   30.6763   24.1587   41.6687 C   0  0  0  0  0  0  0  0  0  0  0  0
   31.5464   23.0780   42.0350 O   0  0  0  0  0  0  0  0  0  0  0  0
   31.3522   22.3049   41.4822 H   0  0  0  0  0  0  0  0  0  0  0  0
  1  2  1  0  0  0
  1  6  1  0  0  0
  1  9  2  0  0  0
  2  3  1  0  0  0
  2 10  1  0  0  0
  3  4  1  0  0  0
  3 11  1  0  0  0
  4  5  1  0  0  0
  4 12  1  0  0  0
  5 16  1  0  0  0
  5  6  1  0  0  0
 16 17  1  0  0  0
  6  7  1  0  0  0
  7  8  2  0  0  0
  8  9  1  0  0  0
 10 13  1  0  0  0
 11 14  1  0  0  0
 12 15  1  0  0  0
 17 18  1  0  0  0
M  END
> <minimizedAffinity>
-6.52731

$$$$
2J7B_NTZ_A_1446


 18 19  0  0  0  0  0  0  0  0999 V2000
   33.0647   24.7312   40.0704 C   0  0  0  0  0  0  0  0  0  0  0  0
   32.2974   25.3920   41.1696 C   0  0  0  0  0  0  0  0  0  0  0  0
   30.8970   24.7935   41.2442 C   0  0  0  0  0  0  0  0  0  0  0  0
   30.3413   24.5247   39.8283 C   0  0  0  0  0  0  0  0  0  0  0  0
   31.1335   23.3920   39.1283 C   0  0  0  0  0  0  0  0  0  0  0  0
   32.5262   23.8738   39.2033 N   0  0  0  0  0  0  0  0  0  0  0  0
   33.4267   23.4375   38.2440 N   0  0  0  0  0  0  0  0  0  0  0  0
   34.6048   24.0960   38.5601 N   0  0  0  0  0  0  0  0  0  0  0  0
   34.3602   24.8737   39.7209 N   0  0  0  0  0  0  0  0  0  0  0  0
   32.9378   25.2950   42.4427 O   0  0  0  0  0  0  0  0  0  0  0  0
   30.0758   25.7377   41.9575 O   0  0  0  0  0  0  0  0  0  0  0  0
   28.9865   24.1169   39.8985 O   0  0  0  0  0  0  0  0  0  0  0  0
   33.0060   24.3623   42.7001 H   0  0  0  0  0  0  0  0  0  0  0  0
   30.0745   26.5856   41.4864 H   0  0  0  0  0  0  0  0  0  0  0  0
   28.9231   23.2914   40.4038 H   0  0  0  0  0  0  0  0  0  0  0  0
   30.6931   23.1436   37.6919 C   0  0  0  0  0  0  0  0  0  0  0  0
   29.9071   24.2398   37.2019 O   0  0  0  0  0  0  0  0  0  0  0  0
   29.1131   24.3389   37.7503 H   0  0  0  0  0  0  0  0  0  0  0  0
  1  2  1  0  0  0
  1  6  1  0  0  0
  1  9  2  0  0  0
  2  3  1  0  0  0
  2 10  1  0  0  0
  3  4  1  0  0  0
  3 11  1  0  0  0
  4  5  1  0  0  0
  4 12  1  0  0  0
  5 16  1  0  0  0
  5  6  1  0  0  0
 16 17  1  0  0  0
  6  7  1  0  0  0
  7  8  2  0  0  0
  8  9  1  0  0  0
 10 13  1  0  0  0
 11 14  1  0  0  0
 12 15  1  0  0  0
 17 18  1  0  0  0
M  END
> <minimizedAffinity>
-6.46408

$$$$
2J7B_NTZ_A_1446


 18 19  0  0  0  0  0  0  0  0999 V2000
   32.1746   24.4406   40.3890 C   0  0  0  0  0  0  0  0  0  0  0  0
   30.7378   24.0534   40.5282 C   0  0  0  0  0  0  0  0  0  0  0  0
   30.2937   23.2892   39.2858 C   0  0  0  0  0  0  0  0  0  0  0  0
   30.9139   23.9070   38.0132 C   0  0  0  0  0  0  0  0  0  0  0  0
   32.4483   23.6937   37.9853 C   0  0  0  0  0  0  0  0  0  0  0  0
   32.8815   24.2733   39.2713 N   0  0  0  0  0  0  0  0  0  0  0  0
   34.1756   24.7598   39.3719 N   0  0  0  0  0  0  0  0  0  0  0  0
   34.2477   25.2685   40.6593 N   0  0  0  0  0  0  0  0  0  0  0  0
   32.9959   25.0302   41.2825 N   0  0  0  0  0  0  0  0  0  0  0  0
   30.4728   23.2783   41.6984 O   0  0  0  0  0  0  0  0  0  0  0  0
   28.8551   23.3503   39.2488 O   0  0  0  0  0  0  0  0  0  0  0  0
   30.3771   23.2942   36.8544 O   0  0  0  0  0  0  0  0  0  0  0  0
   30.9619   22.4420   41.6500 H   0  0  0  0  0  0  0  0  0  0  0  0
   28.5717   24.2774   39.2152 H   0  0  0  0  0  0  0  0  0  0  0  0
   30.5918   22.3482   36.8599 H   0  0  0  0  0  0  0  0  0  0  0  0
   33.1310   24.3628   36.7999 C   0  0  0  0  0  0  0  0  0  0  0  0
   32.6395   25.6982   36.6146 O   0  0  0  0  0  0  0  0  0  0  0  0
   31.6858   25.6705   36.4399 H   0  0  0  0  0  0  0  0  0  0  0  0
  1  2  1  0  0  0
  1  6  1  0  0  0
  1  9  2  0  0  0
  2  3  1  0  0  0
  2 10  1  0  0  0
  3  4  1  0  0  0
  3 11  1  0  0  0
  4  5  1  0  0  0
  4 12  1  0  0  0
  5 16  1  0  0  0
  5  6  1  0  0  0
 16 17  1  0  0  0
  6  7  1  0  0  0
  7  8  2  0  0  0
  8  9  1  0  0  0
 10 13  1  0  0  0
 11 14  1  0  0  0
 12 15  1  0  0  0
 17 18  1  0  0  0
M  END
> <minimizedAffinity>
-6.41361

$$$$
2J7B_NTZ_A_1446


 18 19  0  0  0  0  0  0  0  0999 V2000
   33.4409   25.1484   38.4212 C   0  0  0  0  0  0  0  0  0  0  0  0
   33.3194   25.3767   39.8932 C   0  0  0  0  0  0  0  0  0  0  0  0
   32.3256   24.3819   40.4825 C   0  0  0  0  0  0  0  0  0  0  0  0
   31.1293   24.1736   39.5278 C   0  0  0  0  0  0  0  0  0  0  0  0
   31.5739   23.4484   38.2328 C   0  0  0  0  0  0  0  0  0  0  0  0
   32.6650   24.3086   37.7357 N   0  0  0  0  0  0  0  0  0  0  0  0
   32.9346   24.3109   36.3760 N   0  0  0  0  0  0  0  0  0  0  0  0
   33.9559   25.2372   36.2342 N   0  0  0  0  0  0  0  0  0  0  0  0
   34.2735   25.7231   37.5284 N   0  0  0  0  0  0  0  0  0  0  0  0
   34.5669   25.2870   40.5833 O   0  0  0  0  0  0  0  0  0  0  0  0
   31.8968   24.9187   41.7484 O   0  0  0  0  0  0  0  0  0  0  0  0
   30.1376   23.3728   40.1458 O   0  0  0  0  0  0  0  0  0  0  0  0
   34.9243   24.3901   40.4899 H   0  0  0  0  0  0  0  0  0  0  0  0
   31.4887   25.7877   41.6095 H   0  0  0  0  0  0  0  0  0  0  0  0
   30.5084   22.5004   40.3515 H   0  0  0  0  0  0  0  0  0  0  0  0
   30.4564   23.2971   37.2096 C   0  0  0  0  0  0  0  0  0  0  0  0
   29.4919   24.3508   37.3471 O   0  0  0  0  0  0  0  0  0  0  0  0
   29.0992   24.3160   38.2334 H   0  0  0  0  0  0  0  0  0  0  0  0
  1  2  1  0  0  0
  1  6  1  0  0  0
  1  9  2  0  0  0
  2  3  1  0  0  0
  2 10  1  0  0  0
  3  4  1  0  0  0
  3 11  1  0  0  0
  4  5  1  0  0  0
  4 12  1  0  0  0
  5 16  1  0  0  0
  5  6  1  0  0  0
 16 17  1  0  0  0
  6  7  1  0  0  0
  7  8  2  0  0  0
  8  9  1  0  0  0
 10 13  1  0  0  0
 11 14  1  0  0  0
 12 15  1  0  0  0
 17 18  1  0  0  0
M  END
> <minimizedAffinity>
-6.32047

$$$$
2J7B_NTZ_A_1446


 18 19  0  0  0  0  0  0  0  0999 V2000
   32.5175   23.8901   38.6847 C   0  0  0  0  0  0  0  0  0  0  0  0
   31.1475   23.5054   38.2276 C   0  0  0  0  0  0  0  0  0  0  0  0
   30.1101   24.3428   38.9674 C   0  0  0  0  0  0  0  0  0  0  0  0
   30.5171   24.5372   40.4447 C   0  0  0  0  0  0  0  0  0  0  0  0
   31.7814   25.4255   40.5585 C   0  0  0  0  0  0  0  0  0  0  0  0
   32.7531   24.7211   39.7000 N   0  0  0  0  0  0  0  0  0  0  0  0
   34.1041   24.8793   39.9672 N   0  0  0  0  0  0  0  0  0  0  0  0
   34.7315   24.0675   39.0352 N   0  0  0  0  0  0  0  0  0  0  0  0
   33.7209   23.4849   38.2282 N   0  0  0  0  0  0  0  0  0  0  0  0
   30.9652   23.6374   36.8170 O   0  0  0  0  0  0  0  0  0  0  0  0
   28.8546   23.6455   38.8584 O   0  0  0  0  0  0  0  0  0  0  0  0
   29.4786   25.1796   41.1628 O   0  0  0  0  0  0  0  0  0  0  0  0
   31.0703   24.5677   36.5630 H   0  0  0  0  0  0  0  0  0  0  0  0
   28.9407   22.7616   39.2487 H   0  0  0  0  0  0  0  0  0  0  0  0
   29.3167   26.0568   40.7817 H   0  0  0  0  0  0  0  0  0  0  0  0
   32.2879   25.5774   41.9866 C   0  0  0  0  0  0  0  0  0  0  0  0
   32.3168   24.3083   42.6559 O   0  0  0  0  0  0  0  0  0  0  0  0
   31.4202   23.9398   42.6891 H   0  0  0  0  0  0  0  0  0  0  0  0
  1  2  1  0  0  0
  1  6  1  0  0  0
  1  9  2  0  0  0
  2  3  1  0  0  0
  2 10  1  0  0  0
  3  4  1  0  0  0
  3 11  1  0  0  0
  4  5  1  0  0  0
  4 12  1  0  0  0
  5 16  1  0  0  0
  5  6  1  0  0  0
 16 17  1  0  0  0
  6  7  1  0  0  0
  7  8  2  0  0  0
  8  9  1  0  0  0
 10 13  1  0  0  0
 11 14  1  0  0  0
 12 15  1  0  0  0
 17 18  1  0  0  0
M  END
> <minimizedAffinity>
-6.23489

$$$$
2J7B_NTZ_A_1446


 18 19  0  0  0  0  0  0  0  0999 V2000
   30.3130   23.4158   39.2948 C   0  0  0  0  0  0  0  0  0  0  0  0
   29.9355   23.1173   40.7098 C   0  0  0  0  0  0  0  0  0  0  0  0
   30.6492   24.0891   41.6430 C   0  0  0  0  0  0  0  0  0  0  0  0
   32.0925   24.3513   41.1594 C   0  0  0  0  0  0  0  0  0  0  0  0
   32.0949   25.1353   39.8230 C   0  0  0  0  0  0  0  0  0  0  0  0
   31.2555   24.2929   38.9493 N   0  0  0  0  0  0  0  0  0  0  0  0
   31.4610   24.3547   37.5799 N   0  0  0  0  0  0  0  0  0  0  0  0
   30.5688   23.4294   37.0608 N   0  0  0  0  0  0  0  0  0  0  0  0
   29.8440   22.8793   38.1490 N   0  0  0  0  0  0  0  0  0  0  0  0
   28.5266   23.1651   40.9403 O   0  0  0  0  0  0  0  0  0  0  0  0
   30.6374   23.4945   42.9549 O   0  0  0  0  0  0  0  0  0  0  0  0
   32.7989   25.1279   42.1105 O   0  0  0  0  0  0  0  0  0  0  0  0
   28.2015   24.0631   40.7704 H   0  0  0  0  0  0  0  0  0  0  0  0
   31.0880   22.6360   42.9248 H   0  0  0  0  0  0  0  0  0  0  0  0
   32.3607   25.9868   42.2162 H   0  0  0  0  0  0  0  0  0  0  0  0
   33.4885   25.3434   39.2458 C   0  0  0  0  0  0  0  0  0  0  0  0
   34.3073   24.1840   39.4573 O   0  0  0  0  0  0  0  0  0  0  0  0
   34.3942   24.0188   40.4091 H   0  0  0  0  0  0  0  0  0  0  0  0
  1  2  1  0  0  0
  1  6  1  0  0  0
  1  9  2  0  0  0
  2  3  1  0  0  0
  2 10  1  0  0  0
  3  4  1  0  0  0
  3 11  1  0  0  0
  4  5  1  0  0  0
  4 12  1  0  0  0
  5 16  1  0  0  0
  5  6  1  0  0  0
 16 17  1  0  0  0
  6  7  1  0  0  0
  7  8  2  0  0  0
  8  9  1  0  0  0
 10 13  1  0  0  0
 11 14  1  0  0  0
 12 15  1  0  0  0
 17 18  1  0  0  0
M  END
> <minimizedAffinity>
-5.95976

$$$$
