3RM9_613_A_1


 19 20  0  0  0  0  0  0  0  0999 V2000
   33.1367   -5.7112    4.3368 N   0  0  0  0  0  0  0  0  0  0  0  0
   32.5558   -2.9128    4.6492 N   0  0  0  0  0  0  0  0  0  0  0  0
   33.4203   -5.0399    5.6174 C   0  0  0  0  0  0  0  0  0  0  0  0
   33.6592   -3.5435    5.4407 C   0  0  0  0  0  0  0  0  0  0  0  0
   32.2091   -3.6116    3.3717 C   0  0  0  0  0  0  0  0  0  0  0  0
   32.0094   -5.1153    3.5897 C   0  0  0  0  0  0  0  0  0  0  0  0
   32.9432   -7.8500    3.1322 C   0  0  0  0  0  0  0  0  0  0  0  0
   33.9170  -11.6262    4.0527 Cl  0  0  0  0  0  0  0  0  0  0  0  0
   33.1195   -9.2397    3.0535 C   0  0  0  0  0  0  0  0  0  0  0  0
   33.6874   -9.9207    4.1288 C   0  0  0  0  0  0  0  0  0  0  0  0
   34.0756   -9.2193    5.2665 C   0  0  0  0  0  0  0  0  0  0  0  0
   33.8953   -7.8279    5.3330 C   0  0  0  0  0  0  0  0  0  0  0  0
   33.3279   -7.0919    4.2679 C   0  0  0  0  0  0  0  0  0  0  0  0
   30.6456   -1.3726    4.4760 N   0  0  0  0  0  0  0  0  0  0  0  0
   32.1427   -1.1191    6.2948 N   0  0  0  0  0  0  0  0  0  0  0  0
   31.7469   -1.8688    5.1797 C   0  0  0  0  0  0  0  0  0  0  0  0
   30.3135   -1.8497    3.6814 H   0  0  0  0  0  0  0  0  0  0  0  0
   32.9112   -1.4108    6.8366 H   0  0  0  0  0  0  0  0  0  0  0  0
   31.6523   -0.3004    6.5368 H   0  0  0  0  0  0  0  0  0  0  0  0
  7  9  2  0  0  0
  7 13  1  0  0  0
  1 13  1  0  0  0
  1  3  1  0  0  0
  1  6  1  0  0  0
  8 10  1  0  0  0
  9 10  1  0  0  0
  2  4  1  0  0  0
  2  5  1  0  0  0
  2 16  1  0  0  0
 10 11  2  0  0  0
 14 16  2  0  0  0
 11 12  1  0  0  0
 15 16  1  0  0  0
 12 13  2  0  0  0
  3  4  1  0  0  0
  5  6  1  0  0  0
 14 17  1  0  0  0
 15 18  1  0  0  0
 15 19  1  0  0  0
M  END
> <minimizedAffinity>
-6.96812

$$$$
3RM9_613_A_1


 19 20  0  0  0  0  0  0  0  0999 V2000
   33.1373   -5.4248    5.2093 N   0  0  0  0  0  0  0  0  0  0  0  0
   33.0017   -2.6179    5.8166 N   0  0  0  0  0  0  0  0  0  0  0  0
   33.4404   -4.4310    4.1645 C   0  0  0  0  0  0  0  0  0  0  0  0
   32.7453   -3.0974    4.4216 C   0  0  0  0  0  0  0  0  0  0  0  0
   32.7574   -3.6295    6.8925 C   0  0  0  0  0  0  0  0  0  0  0  0
   33.4464   -4.9618    6.5783 C   0  0  0  0  0  0  0  0  0  0  0  0
   32.8726   -7.3381    3.6822 C   0  0  0  0  0  0  0  0  0  0  0  0
   33.9088  -11.2024    3.9049 Cl  0  0  0  0  0  0  0  0  0  0  0  0
   33.0461   -8.6937    3.3644 C   0  0  0  0  0  0  0  0  0  0  0  0
   33.6814   -9.5355    4.2756 C   0  0  0  0  0  0  0  0  0  0  0  0
   34.1387   -9.0265    5.4875 C   0  0  0  0  0  0  0  0  0  0  0  0
   33.9604   -7.6673    5.7938 C   0  0  0  0  0  0  0  0  0  0  0  0
   33.3263   -6.7728    4.9017 C   0  0  0  0  0  0  0  0  0  0  0  0
   34.9830   -1.1622    5.7345 N   0  0  0  0  0  0  0  0  0  0  0  0
   33.0724   -0.4080    6.9155 N   0  0  0  0  0  0  0  0  0  0  0  0
   33.6461   -1.3770    6.0824 C   0  0  0  0  0  0  0  0  0  0  0  0
   35.4491   -1.8040    5.1514 H   0  0  0  0  0  0  0  0  0  0  0  0
   32.1340   -0.4964    7.1999 H   0  0  0  0  0  0  0  0  0  0  0  0
   33.6076    0.3615    7.2168 H   0  0  0  0  0  0  0  0  0  0  0  0
  7  9  2  0  0  0
  7 13  1  0  0  0
  1 13  1  0  0  0
  1  3  1  0  0  0
  1  6  1  0  0  0
  8 10  1  0  0  0
  9 10  1  0  0  0
  2  4  1  0  0  0
  2  5  1  0  0  0
  2 16  1  0  0  0
 10 11  2  0  0  0
 14 16  2  0  0  0
 11 12  1  0  0  0
 15 16  1  0  0  0
 12 13  2  0  0  0
  3  4  1  0  0  0
  5  6  1  0  0  0
 14 17  1  0  0  0
 15 18  1  0  0  0
 15 19  1  0  0  0
M  END
> <minimizedAffinity>
-6.95242

$$$$
3RM9_613_A_1


 19 20  0  0  0  0  0  0  0  0999 V2000
   33.1057   -5.4408    5.1975 N   0  0  0  0  0  0  0  0  0  0  0  0
   32.9846   -2.6301    5.7902 N   0  0  0  0  0  0  0  0  0  0  0  0
   33.4264   -4.4542    4.1512 C   0  0  0  0  0  0  0  0  0  0  0  0
   32.7386   -3.1145    4.3950 C   0  0  0  0  0  0  0  0  0  0  0  0
   32.7222   -3.6347    6.8683 C   0  0  0  0  0  0  0  0  0  0  0  0
   33.4045   -4.9735    6.5674 C   0  0  0  0  0  0  0  0  0  0  0  0
   33.9490   -7.6778    5.7871 C   0  0  0  0  0  0  0  0  0  0  0  0
   33.9229  -11.2145    3.9037 Cl  0  0  0  0  0  0  0  0  0  0  0  0
   34.1488   -9.0355    5.4945 C   0  0  0  0  0  0  0  0  0  0  0  0
   33.6921   -9.5499    4.2824 C   0  0  0  0  0  0  0  0  0  0  0  0
   33.0423   -8.7168    3.3764 C   0  0  0  0  0  0  0  0  0  0  0  0
   32.8470   -7.3596    3.6812 C   0  0  0  0  0  0  0  0  0  0  0  0
   33.2879   -6.7916    4.8982 C   0  0  0  0  0  0  0  0  0  0  0  0
   34.9722   -1.1832    5.7053 N   0  0  0  0  0  0  0  0  0  0  0  0
   33.0684   -0.4226    6.8931 N   0  0  0  0  0  0  0  0  0  0  0  0
   33.6353   -1.3926    6.0565 C   0  0  0  0  0  0  0  0  0  0  0  0
   35.4337   -1.8260    5.1196 H   0  0  0  0  0  0  0  0  0  0  0  0
   32.1304   -0.5073    7.1800 H   0  0  0  0  0  0  0  0  0  0  0  0
   33.6079    0.3438    7.1943 H   0  0  0  0  0  0  0  0  0  0  0  0
  7  9  2  0  0  0
  7 13  1  0  0  0
  1 13  1  0  0  0
  1  3  1  0  0  0
  1  6  1  0  0  0
  8 10  1  0  0  0
  9 10  1  0  0  0
  2  4  1  0  0  0
  2  5  1  0  0  0
  2 16  1  0  0  0
 10 11  2  0  0  0
 14 16  2  0  0  0
 11 12  1  0  0  0
 15 16  1  0  0  0
 12 13  2  0  0  0
  3  4  1  0  0  0
  5  6  1  0  0  0
 14 17  1  0  0  0
 15 18  1  0  0  0
 15 19  1  0  0  0
M  END
> <minimizedAffinity>
-6.94544

$$$$
3RM9_613_A_1


 19 20  0  0  0  0  0  0  0  0999 V2000
   33.4683   -1.0853    5.7933 N   0  0  0  0  0  0  0  0  0  0  0  0
   34.9582    0.3520    7.7885 N   0  0  0  0  0  0  0  0  0  0  0  0
   34.9178   -0.8816    5.6238 C   0  0  0  0  0  0  0  0  0  0  0  0
   35.4137    0.3580    6.3622 C   0  0  0  0  0  0  0  0  0  0  0  0
   33.4986    0.0880    7.9895 C   0  0  0  0  0  0  0  0  0  0  0  0
   33.0373   -1.1454    7.2057 C   0  0  0  0  0  0  0  0  0  0  0  0
   31.3946   -1.8971    4.7429 C   0  0  0  0  0  0  0  0  0  0  0  0
   30.6371   -4.5350    1.8234 Cl  0  0  0  0  0  0  0  0  0  0  0  0
   30.7174   -2.7038    3.8158 C   0  0  0  0  0  0  0  0  0  0  0  0
   31.4472   -3.5389    2.9719 C   0  0  0  0  0  0  0  0  0  0  0  0
   32.8364   -3.5644    3.0534 C   0  0  0  0  0  0  0  0  0  0  0  0
   33.5032   -2.7512    3.9847 C   0  0  0  0  0  0  0  0  0  0  0  0
   32.8084   -1.8848    4.8591 C   0  0  0  0  0  0  0  0  0  0  0  0
   35.4898   -0.0226   10.1608 N   0  0  0  0  0  0  0  0  0  0  0  0
   37.1257    0.9944    8.7811 N   0  0  0  0  0  0  0  0  0  0  0  0
   35.8774    0.3659    8.8750 C   0  0  0  0  0  0  0  0  0  0  0  0
   34.6239   -0.4698   10.2999 H   0  0  0  0  0  0  0  0  0  0  0  0
   37.4613    1.2942    7.9055 H   0  0  0  0  0  0  0  0  0  0  0  0
   37.6675    1.1362    9.5908 H   0  0  0  0  0  0  0  0  0  0  0  0
  7  9  2  0  0  0
  7 13  1  0  0  0
  1 13  1  0  0  0
  1  3  1  0  0  0
  1  6  1  0  0  0
  8 10  1  0  0  0
  9 10  1  0  0  0
  2  4  1  0  0  0
  2  5  1  0  0  0
  2 16  1  0  0  0
 10 11  2  0  0  0
 14 16  2  0  0  0
 11 12  1  0  0  0
 15 16  1  0  0  0
 12 13  2  0  0  0
  3  4  1  0  0  0
  5  6  1  0  0  0
 14 17  1  0  0  0
 15 18  1  0  0  0
 15 19  1  0  0  0
M  END
> <minimizedAffinity>
-6.22454

$$$$
3RM9_613_A_1


 19 20  0  0  0  0  0  0  0  0999 V2000
   34.5256   -4.9020    4.2183 N   0  0  0  0  0  0  0  0  0  0  0  0
   35.1294   -2.0934    4.3349 N   0  0  0  0  0  0  0  0  0  0  0  0
   35.6878   -4.3687    3.4861 C   0  0  0  0  0  0  0  0  0  0  0  0
   35.5157   -2.8950    3.1308 C   0  0  0  0  0  0  0  0  0  0  0  0
   33.9882   -2.6477    5.1293 C   0  0  0  0  0  0  0  0  0  0  0  0
   34.1872   -4.1359    5.4360 C   0  0  0  0  0  0  0  0  0  0  0  0
   34.4648   -7.0561    5.4095 C   0  0  0  0  0  0  0  0  0  0  0  0
   33.7617  -10.8258    4.2473 Cl  0  0  0  0  0  0  0  0  0  0  0  0
   34.2895   -8.4481    5.4295 C   0  0  0  0  0  0  0  0  0  0  0  0
   33.9851   -9.1178    4.2457 C   0  0  0  0  0  0  0  0  0  0  0  0
   33.8559   -8.4032    3.0583 C   0  0  0  0  0  0  0  0  0  0  0  0
   34.0323   -7.0097    3.0512 C   0  0  0  0  0  0  0  0  0  0  0  0
   34.3378   -6.2848    4.2256 C   0  0  0  0  0  0  0  0  0  0  0  0
   37.0913   -0.6213    4.1472 N   0  0  0  0  0  0  0  0  0  0  0  0
   35.7465   -0.4726    6.0923 N   0  0  0  0  0  0  0  0  0  0  0  0
   35.9294   -1.0188    4.8154 C   0  0  0  0  0  0  0  0  0  0  0  0
   37.2832   -0.9668    3.2455 H   0  0  0  0  0  0  0  0  0  0  0  0
   34.9495   -0.7094    6.6195 H   0  0  0  0  0  0  0  0  0  0  0  0
   36.4150    0.1482    6.4625 H   0  0  0  0  0  0  0  0  0  0  0  0
  7  9  2  0  0  0
  7 13  1  0  0  0
  1 13  1  0  0  0
  1  3  1  0  0  0
  1  6  1  0  0  0
  8 10  1  0  0  0
  9 10  1  0  0  0
  2  4  1  0  0  0
  2  5  1  0  0  0
  2 16  1  0  0  0
 10 11  2  0  0  0
 14 16  2  0  0  0
 11 12  1  0  0  0
 15 16  1  0  0  0
 12 13  2  0  0  0
  3  4  1  0  0  0
  5  6  1  0  0  0
 14 17  1  0  0  0
 15 18  1  0  0  0
 15 19  1  0  0  0
M  END
> <minimizedAffinity>
-6.20202

$$$$
3RM9_613_A_1


 19 20  0  0  0  0  0  0  0  0999 V2000
   33.0000   -4.6717    4.4039 N   0  0  0  0  0  0  0  0  0  0  0  0
   32.5013   -7.1780    3.0864 N   0  0  0  0  0  0  0  0  0  0  0  0
   31.7017   -4.9133    3.7502 C   0  0  0  0  0  0  0  0  0  0  0  0
   31.8081   -5.9348    2.6221 C   0  0  0  0  0  0  0  0  0  0  0  0
   33.7946   -6.9547    3.8062 C   0  0  0  0  0  0  0  0  0  0  0  0
   33.6497   -5.8996    4.9081 C   0  0  0  0  0  0  0  0  0  0  0  0
   33.8660   -2.3757    4.6073 C   0  0  0  0  0  0  0  0  0  0  0  0
   33.7040    0.3806    7.5112 Cl  0  0  0  0  0  0  0  0  0  0  0  0
   34.0398   -1.1841    5.3274 C   0  0  0  0  0  0  0  0  0  0  0  0
   33.5062   -1.0743    6.6103 C   0  0  0  0  0  0  0  0  0  0  0  0
   32.8061   -2.1423    7.1638 C   0  0  0  0  0  0  0  0  0  0  0  0
   32.6375   -3.3297    6.4325 C   0  0  0  0  0  0  0  0  0  0  0  0
   33.1559   -3.4885    5.1271 C   0  0  0  0  0  0  0  0  0  0  0  0
   30.9732   -8.8488    4.0478 N   0  0  0  0  0  0  0  0  0  0  0  0
   32.2893   -9.4633    2.1759 N   0  0  0  0  0  0  0  0  0  0  0  0
   31.8699   -8.4530    3.0510 C   0  0  0  0  0  0  0  0  0  0  0  0
   30.6371   -8.1899    4.6975 H   0  0  0  0  0  0  0  0  0  0  0  0
   32.9208   -9.2548    1.4499 H   0  0  0  0  0  0  0  0  0  0  0  0
   31.9526  -10.3817    2.2869 H   0  0  0  0  0  0  0  0  0  0  0  0
  7  9  2  0  0  0
  7 13  1  0  0  0
  1 13  1  0  0  0
  1  3  1  0  0  0
  1  6  1  0  0  0
  8 10  1  0  0  0
  9 10  1  0  0  0
  2  4  1  0  0  0
  2  5  1  0  0  0
  2 16  1  0  0  0
 10 11  2  0  0  0
 14 16  2  0  0  0
 11 12  1  0  0  0
 15 16  1  0  0  0
 12 13  2  0  0  0
  3  4  1  0  0  0
  5  6  1  0  0  0
 14 17  1  0  0  0
 15 18  1  0  0  0
 15 19  1  0  0  0
M  END
> <minimizedAffinity>
-5.89368

$$$$
3RM9_613_A_1


 19 20  0  0  0  0  0  0  0  0999 V2000
   32.1587   -3.0945    3.7970 N   0  0  0  0  0  0  0  0  0  0  0  0
   33.4574   -1.7633    5.9897 N   0  0  0  0  0  0  0  0  0  0  0  0
   31.4494   -2.0381    4.5400 C   0  0  0  0  0  0  0  0  0  0  0  0
   31.9660   -1.8948    5.9683 C   0  0  0  0  0  0  0  0  0  0  0  0
   34.1984   -2.7911    5.1928 C   0  0  0  0  0  0  0  0  0  0  0  0
   33.6267   -2.9245    3.7772 C   0  0  0  0  0  0  0  0  0  0  0  0
   30.4102   -3.0130    2.0653 C   0  0  0  0  0  0  0  0  0  0  0  0
   29.4550   -5.4130   -0.9979 Cl  0  0  0  0  0  0  0  0  0  0  0  0
   29.7651   -3.5480    0.9400 C   0  0  0  0  0  0  0  0  0  0  0  0
   30.2290   -4.7399    0.3861 C   0  0  0  0  0  0  0  0  0  0  0  0
   31.3252   -5.3861    0.9499 C   0  0  0  0  0  0  0  0  0  0  0  0
   31.9634   -4.8399    2.0756 C   0  0  0  0  0  0  0  0  0  0  0  0
   31.5335   -3.6322    2.6712 C   0  0  0  0  0  0  0  0  0  0  0  0
   33.3917    0.3669    7.2180 N   0  0  0  0  0  0  0  0  0  0  0  0
   35.4288   -0.2923    6.2034 N   0  0  0  0  0  0  0  0  0  0  0  0
   34.1071   -0.6194    6.5327 C   0  0  0  0  0  0  0  0  0  0  0  0
   32.4570    0.2040    7.4808 H   0  0  0  0  0  0  0  0  0  0  0  0
   35.9906   -0.9405    5.7203 H   0  0  0  0  0  0  0  0  0  0  0  0
   35.7958    0.5859    6.4551 H   0  0  0  0  0  0  0  0  0  0  0  0
  7  9  2  0  0  0
  7 13  1  0  0  0
  1 13  1  0  0  0
  1  3  1  0  0  0
  1  6  1  0  0  0
  8 10  1  0  0  0
  9 10  1  0  0  0
  2  4  1  0  0  0
  2  5  1  0  0  0
  2 16  1  0  0  0
 10 11  2  0  0  0
 14 16  2  0  0  0
 11 12  1  0  0  0
 15 16  1  0  0  0
 12 13  2  0  0  0
  3  4  1  0  0  0
  5  6  1  0  0  0
 14 17  1  0  0  0
 15 18  1  0  0  0
 15 19  1  0  0  0
M  END
> <minimizedAffinity>
-5.88655

$$$$
3RM9_613_A_1


 19 20  0  0  0  0  0  0  0  0999 V2000
   33.8193   -2.4437    4.5048 N   0  0  0  0  0  0  0  0  0  0  0  0
   32.2008   -4.6078    3.5234 N   0  0  0  0  0  0  0  0  0  0  0  0
   33.1946   -3.3832    5.4526 C   0  0  0  0  0  0  0  0  0  0  0  0
   31.9365   -4.0270    4.8779 C   0  0  0  0  0  0  0  0  0  0  0  0
   32.8887   -3.6909    2.5608 C   0  0  0  0  0  0  0  0  0  0  0  0
   34.1270   -3.0426    3.1893 C   0  0  0  0  0  0  0  0  0  0  0  0
   36.0049   -1.3099    4.5219 C   0  0  0  0  0  0  0  0  0  0  0  0
   37.5505    1.6566    6.7281 Cl  0  0  0  0  0  0  0  0  0  0  0  0
   36.8916   -0.3518    5.0363 C   0  0  0  0  0  0  0  0  0  0  0  0
   36.4801    0.4707    6.0835 C   0  0  0  0  0  0  0  0  0  0  0  0
   35.1974    0.3374    6.6070 C   0  0  0  0  0  0  0  0  0  0  0  0
   34.3183   -0.6246    6.0827 C   0  0  0  0  0  0  0  0  0  0  0  0
   34.6870   -1.4792    5.0189 C   0  0  0  0  0  0  0  0  0  0  0  0
   32.1367   -6.9559    4.2538 N   0  0  0  0  0  0  0  0  0  0  0  0
   31.9725   -6.4862    1.9373 N   0  0  0  0  0  0  0  0  0  0  0  0
   32.0220   -5.9925    3.2472 C   0  0  0  0  0  0  0  0  0  0  0  0
   32.1768   -6.6792    5.1977 H   0  0  0  0  0  0  0  0  0  0  0  0
   31.8920   -5.8633    1.1792 H   0  0  0  0  0  0  0  0  0  0  0  0
   32.0184   -7.4561    1.7747 H   0  0  0  0  0  0  0  0  0  0  0  0
  7  9  2  0  0  0
  7 13  1  0  0  0
  1 13  1  0  0  0
  1  3  1  0  0  0
  1  6  1  0  0  0
  8 10  1  0  0  0
  9 10  1  0  0  0
  2  4  1  0  0  0
  2  5  1  0  0  0
  2 16  1  0  0  0
 10 11  2  0  0  0
 14 16  2  0  0  0
 11 12  1  0  0  0
 15 16  1  0  0  0
 12 13  2  0  0  0
  3  4  1  0  0  0
  5  6  1  0  0  0
 14 17  1  0  0  0
 15 18  1  0  0  0
 15 19  1  0  0  0
M  END
> <minimizedAffinity>
-5.86971

$$$$
3RM9_613_A_1


 19 20  0  0  0  0  0  0  0  0999 V2000
   31.6996   -4.9643    2.1707 N   0  0  0  0  0  0  0  0  0  0  0  0
   30.2179   -3.1537    0.4996 N   0  0  0  0  0  0  0  0  0  0  0  0
   30.5470   -4.2306    2.7225 C   0  0  0  0  0  0  0  0  0  0  0  0
   30.2876   -2.9247    1.9776 C   0  0  0  0  0  0  0  0  0  0  0  0
   31.3485   -3.9483   -0.0755 C   0  0  0  0  0  0  0  0  0  0  0  0
   31.5945   -5.2340    0.7214 C   0  0  0  0  0  0  0  0  0  0  0  0
   32.6079   -7.2255    2.5237 C   0  0  0  0  0  0  0  0  0  0  0  0
   34.3072   -9.0513    5.6597 Cl  0  0  0  0  0  0  0  0  0  0  0  0
   33.2185   -8.1952    3.3335 C   0  0  0  0  0  0  0  0  0  0  0  0
   33.5533   -7.8779    4.6487 C   0  0  0  0  0  0  0  0  0  0  0  0
   33.2824   -6.6064    5.1457 C   0  0  0  0  0  0  0  0  0  0  0  0
   32.6719   -5.6437    4.3249 C   0  0  0  0  0  0  0  0  0  0  0  0
   32.3172   -5.9154    2.9839 C   0  0  0  0  0  0  0  0  0  0  0  0
   28.6133   -1.5225   -0.4034 N   0  0  0  0  0  0  0  0  0  0  0  0
   28.1607   -3.8310   -0.6860 N   0  0  0  0  0  0  0  0  0  0  0  0
   29.0551   -2.8410   -0.2592 C   0  0  0  0  0  0  0  0  0  0  0  0
   29.1913   -0.7763   -0.1237 H   0  0  0  0  0  0  0  0  0  0  0  0
   28.4071   -4.7814   -0.6135 H   0  0  0  0  0  0  0  0  0  0  0  0
   27.2857   -3.5764   -1.0585 H   0  0  0  0  0  0  0  0  0  0  0  0
  7  9  2  0  0  0
  7 13  1  0  0  0
  1 13  1  0  0  0
  1  3  1  0  0  0
  1  6  1  0  0  0
  8 10  1  0  0  0
  9 10  1  0  0  0
  2  4  1  0  0  0
  2  5  1  0  0  0
  2 16  1  0  0  0
 10 11  2  0  0  0
 14 16  2  0  0  0
 11 12  1  0  0  0
 15 16  1  0  0  0
 12 13  2  0  0  0
  3  4  1  0  0  0
  5  6  1  0  0  0
 14 17  1  0  0  0
 15 18  1  0  0  0
 15 19  1  0  0  0
M  END
> <minimizedAffinity>
-5.81820

$$$$
3RM9_613_A_1


 19 20  0  0  0  0  0  0  0  0999 V2000
   33.7131   -3.6042    4.1424 N   0  0  0  0  0  0  0  0  0  0  0  0
   34.4864   -1.0180    5.1323 N   0  0  0  0  0  0  0  0  0  0  0  0
   35.1356   -3.2209    4.1654 C   0  0  0  0  0  0  0  0  0  0  0  0
   35.3240   -1.7084    4.1009 C   0  0  0  0  0  0  0  0  0  0  0  0
   33.0491   -1.4343    5.1677 C   0  0  0  0  0  0  0  0  0  0  0  0
   32.9063   -2.9597    5.1997 C   0  0  0  0  0  0  0  0  0  0  0  0
   34.3589   -5.7860    3.2015 C   0  0  0  0  0  0  0  0  0  0  0  0
   32.3476   -9.1741    2.4728 Cl  0  0  0  0  0  0  0  0  0  0  0  0
   34.0508   -7.0958    2.8038 C   0  0  0  0  0  0  0  0  0  0  0  0
   32.7478   -7.5682    2.9505 C   0  0  0  0  0  0  0  0  0  0  0  0
   31.7671   -6.7410    3.4901 C   0  0  0  0  0  0  0  0  0  0  0  0
   32.0880   -5.4321    3.8858 C   0  0  0  0  0  0  0  0  0  0  0  0
   33.3950   -4.9084    3.7612 C   0  0  0  0  0  0  0  0  0  0  0  0
   34.3295    0.8231    6.7562 N   0  0  0  0  0  0  0  0  0  0  0  0
   36.4341   -0.2115    6.4178 N   0  0  0  0  0  0  0  0  0  0  0  0
   35.0594   -0.2029    6.1486 C   0  0  0  0  0  0  0  0  0  0  0  0
   33.3582    0.8892    6.6102 H   0  0  0  0  0  0  0  0  0  0  0  0
   37.0088   -0.9062    6.0225 H   0  0  0  0  0  0  0  0  0  0  0  0
   36.8255    0.4773    7.0022 H   0  0  0  0  0  0  0  0  0  0  0  0
  7  9  2  0  0  0
  7 13  1  0  0  0
  1 13  1  0  0  0
  1  3  1  0  0  0
  1  6  1  0  0  0
  8 10  1  0  0  0
  9 10  1  0  0  0
  2  4  1  0  0  0
  2  5  1  0  0  0
  2 16  1  0  0  0
 10 11  2  0  0  0
 14 16  2  0  0  0
 11 12  1  0  0  0
 15 16  1  0  0  0
 12 13  2  0  0  0
  3  4  1  0  0  0
  5  6  1  0  0  0
 14 17  1  0  0  0
 15 18  1  0  0  0
 15 19  1  0  0  0
M  END
> <minimizedAffinity>
-5.75335

$$$$
