3GC4_AAQ_A_395


 33 36  0  0  0  0  0  0  0  0999 V2000
   19.2627   17.5475   17.9455 N   0  0  0  0  0  0  0  0  0  0  0  0
   18.5419   17.2514   19.0766 C   0  0  0  0  0  0  0  0  0  0  0  0
   18.8378   17.3303   20.4363 C   0  0  0  0  0  0  0  0  0  0  0  0
   17.7955   17.0339   21.3116 C   0  0  0  0  0  0  0  0  0  0  0  0
   16.5459   16.5575   20.8616 C   0  0  0  0  0  0  0  0  0  0  0  0
   16.3103   16.4023   19.4764 C   0  0  0  0  0  0  0  0  0  0  0  0
   17.3301   16.7907   18.5892 C   0  0  0  0  0  0  0  0  0  0  0  0
   17.3049   16.8188   17.2168 N   0  0  0  0  0  0  0  0  0  0  0  0
   18.4319   17.3817   16.8588 C   0  0  0  0  0  0  0  0  0  0  0  0
   15.5204   16.3180   21.8072 N   0  0  0  0  0  0  0  0  0  0  0  0
   15.6850   16.5594   23.0814 C   0  0  0  0  0  0  0  0  0  0  0  0
   14.7393   16.1943   24.0245 N   0  0  0  0  0  0  0  0  0  0  0  0
   16.9005   17.0012   23.5725 N   0  0  0  0  0  0  0  0  0  0  0  0
   18.0042   17.2092   22.7553 C   0  0  0  0  0  0  0  0  0  0  0  0
   19.1176   17.5196   23.1838 O   0  0  0  0  0  0  0  0  0  0  0  0
   20.2058   17.8285   17.9164 H   0  0  0  0  0  0  0  0  0  0  0  0
   13.8551   15.8718   23.7358 H   0  0  0  0  0  0  0  0  0  0  0  0
   14.9512   16.2572   24.9839 H   0  0  0  0  0  0  0  0  0  0  0  0
   16.9864   17.1747   24.5378 H   0  0  0  0  0  0  0  0  0  0  0  0
   18.9467   17.5274   15.6264 N   0  0  0  0  0  0  0  0  0  0  0  0
   18.0915   17.9646   14.5549 C   0  0  0  0  0  0  0  0  0  0  0  0
   19.8980   17.3374   15.4584 H   0  0  0  0  0  0  0  0  0  0  0  0
   14.9715   16.0194   18.8923 C   0  0  0  0  0  0  0  0  0  0  0  0
   15.0022   14.5255   18.6109 C   0  0  0  0  0  0  0  0  0  0  0  0
   13.9001   14.1131   17.7211 N   0  0  0  0  0  0  0  0  0  0  0  0
   13.9503   13.1033   17.5868 H   0  0  0  0  0  0  0  0  0  0  0  0
   12.5535   14.4552   18.2699 C   0  0  0  0  0  0  0  0  0  0  0  0
   11.8663   15.3815   17.3145 C   0  0  0  0  0  0  0  0  0  0  0  0
   11.5688   16.6851   17.6931 C   0  0  0  0  0  0  0  0  0  0  0  0
   10.9311   17.5703   16.8260 C   0  0  0  0  0  0  0  0  0  0  0  0
   10.5935   17.1112   15.5592 C   0  0  0  0  0  0  0  0  0  0  0  0
   10.8875   15.8066   15.1677 C   0  0  0  0  0  0  0  0  0  0  0  0
   11.5256   14.9284   16.0400 C   0  0  0  0  0  0  0  0  0  0  0  0
  1  2  1  0  0  0
  1  9  1  0  0  0
  2  3  2  0  0  0
  2  7  1  0  0  0
  3  4  1  0  0  0
  4  5  2  0  0  0
  4 14  1  0  0  0
  5  6  1  0  0  0
  5 10  1  0  0  0
  6 23  1  0  0  0
  6  7  2  0  0  0
 23 24  1  0  0  0
 24 25  1  0  0  0
 25 27  1  0  0  0
 27 28  1  0  0  0
 28 29  2  0  0  0
 28 33  1  0  0  0
 29 30  1  0  0  0
 30 31  2  0  0  0
 31 32  1  0  0  0
 32 33  2  0  0  0
  7  8  1  0  0  0
  8  9  2  0  0  0
  9 20  1  0  0  0
 20 21  1  0  0  0
 10 11  2  0  0  0
 11 12  1  0  0  0
 11 13  1  0  0  0
 13 14  1  0  0  0
 14 15  2  0  0  0
  1 16  1  0  0  0
 25 26  1  0  0  0
 20 22  1  0  0  0
 12 17  1  0  0  0
 12 18  1  0  0  0
 13 19  1  0  0  0
M  END
> <minimizedAffinity>
-10.07605

$$$$
3GC4_AAQ_A_395


 33 36  0  0  0  0  0  0  0  0999 V2000
   19.2773   17.5046   18.0147 N   0  0  0  0  0  0  0  0  0  0  0  0
   18.5421   17.2175   19.1387 C   0  0  0  0  0  0  0  0  0  0  0  0
   18.8292   17.2836   20.5010 C   0  0  0  0  0  0  0  0  0  0  0  0
   17.7743   17.0039   21.3670 C   0  0  0  0  0  0  0  0  0  0  0  0
   16.5188   16.5553   20.9051 C   0  0  0  0  0  0  0  0  0  0  0  0
   16.2907   16.4119   19.5174 C   0  0  0  0  0  0  0  0  0  0  0  0
   17.3249   16.7840   18.6399 C   0  0  0  0  0  0  0  0  0  0  0  0
   17.3107   16.8196   17.2675 N   0  0  0  0  0  0  0  0  0  0  0  0
   18.4516   17.3612   16.9209 C   0  0  0  0  0  0  0  0  0  0  0  0
   15.4815   16.3319   21.8417 N   0  0  0  0  0  0  0  0  0  0  0  0
   15.6412   16.5635   23.1183 C   0  0  0  0  0  0  0  0  0  0  0  0
   14.6812   16.2130   24.0524 N   0  0  0  0  0  0  0  0  0  0  0  0
   16.8617   16.9781   23.6209 N   0  0  0  0  0  0  0  0  0  0  0  0
   17.9755   17.1677   22.8131 C   0  0  0  0  0  0  0  0  0  0  0  0
   19.0917   17.4533   23.2515 O   0  0  0  0  0  0  0  0  0  0  0  0
   20.2262   17.7665   17.9942 H   0  0  0  0  0  0  0  0  0  0  0  0
   13.7928   15.9100   23.7554 H   0  0  0  0  0  0  0  0  0  0  0  0
   14.8870   16.2668   25.0137 H   0  0  0  0  0  0  0  0  0  0  0  0
   16.9438   17.1449   24.5876 H   0  0  0  0  0  0  0  0  0  0  0  0
   18.9787   17.5027   15.6932 N   0  0  0  0  0  0  0  0  0  0  0  0
   18.1966   18.1299   14.6609 C   0  0  0  0  0  0  0  0  0  0  0  0
   19.8893   17.1810   15.5021 H   0  0  0  0  0  0  0  0  0  0  0  0
   14.9489   16.0592   18.9213 C   0  0  0  0  0  0  0  0  0  0  0  0
   15.0602   14.6627   18.3304 C   0  0  0  0  0  0  0  0  0  0  0  0
   14.8080   14.6613   16.8769 N   0  0  0  0  0  0  0  0  0  0  0  0
   14.3893   13.7675   16.6198 H   0  0  0  0  0  0  0  0  0  0  0  0
   13.8906   15.7592   16.4470 C   0  0  0  0  0  0  0  0  0  0  0  0
   14.4013   16.3371   15.1632 C   0  0  0  0  0  0  0  0  0  0  0  0
   14.1092   17.6519   14.8208 C   0  0  0  0  0  0  0  0  0  0  0  0
   14.5709   18.2176   13.6338 C   0  0  0  0  0  0  0  0  0  0  0  0
   15.3376   17.4244   12.7896 C   0  0  0  0  0  0  0  0  0  0  0  0
   15.6379   16.1051   13.1225 C   0  0  0  0  0  0  0  0  0  0  0  0
   15.1732   15.5474   14.3109 C   0  0  0  0  0  0  0  0  0  0  0  0
  1  2  1  0  0  0
  1  9  1  0  0  0
  2  3  2  0  0  0
  2  7  1  0  0  0
  3  4  1  0  0  0
  4  5  2  0  0  0
  4 14  1  0  0  0
  5  6  1  0  0  0
  5 10  1  0  0  0
  6 23  1  0  0  0
  6  7  2  0  0  0
 23 24  1  0  0  0
 24 25  1  0  0  0
 25 27  1  0  0  0
 27 28  1  0  0  0
 28 29  2  0  0  0
 28 33  1  0  0  0
 29 30  1  0  0  0
 30 31  2  0  0  0
 31 32  1  0  0  0
 32 33  2  0  0  0
  7  8  1  0  0  0
  8  9  2  0  0  0
  9 20  1  0  0  0
 20 21  1  0  0  0
 10 11  2  0  0  0
 11 12  1  0  0  0
 11 13  1  0  0  0
 13 14  1  0  0  0
 14 15  2  0  0  0
  1 16  1  0  0  0
 25 26  1  0  0  0
 20 22  1  0  0  0
 12 17  1  0  0  0
 12 18  1  0  0  0
 13 19  1  0  0  0
M  END
> <minimizedAffinity>
-9.46958

$$$$
3GC4_AAQ_A_395


 33 36  0  0  0  0  0  0  0  0999 V2000
   18.1246   17.6032   15.5835 N   0  0  0  0  0  0  0  0  0  0  0  0
   17.9364   17.3249   16.9153 C   0  0  0  0  0  0  0  0  0  0  0  0
   18.7747   17.3995   18.0263 C   0  0  0  0  0  0  0  0  0  0  0  0
   18.1876   17.1276   19.2601 C   0  0  0  0  0  0  0  0  0  0  0  0
   16.8553   16.6781   19.3780 C   0  0  0  0  0  0  0  0  0  0  0  0
   16.0598   16.5258   18.2195 C   0  0  0  0  0  0  0  0  0  0  0  0
   16.6232   16.8902   16.9834 C   0  0  0  0  0  0  0  0  0  0  0  0
   16.0276   16.9166   15.7466 N   0  0  0  0  0  0  0  0  0  0  0  0
   16.9128   17.4539   14.9447 C   0  0  0  0  0  0  0  0  0  0  0  0
   16.3141   16.4628   20.6679 N   0  0  0  0  0  0  0  0  0  0  0  0
   17.0004   16.7027   21.7544 C   0  0  0  0  0  0  0  0  0  0  0  0
   16.5282   16.3601   23.0100 N   0  0  0  0  0  0  0  0  0  0  0  0
   18.3183   17.1184   21.6884 N   0  0  0  0  0  0  0  0  0  0  0  0
   18.9836   17.3006   20.4828 C   0  0  0  0  0  0  0  0  0  0  0  0
   20.1799   17.5872   20.4039 O   0  0  0  0  0  0  0  0  0  0  0  0
   18.9746   17.8632   15.1603 H   0  0  0  0  0  0  0  0  0  0  0  0
   15.5982   16.0567   23.1203 H   0  0  0  0  0  0  0  0  0  0  0  0
   17.1226   16.4199   23.7926 H   0  0  0  0  0  0  0  0  0  0  0  0
   18.8028   17.2916   22.5277 H   0  0  0  0  0  0  0  0  0  0  0  0
   16.8686   17.5862   13.6085 N   0  0  0  0  0  0  0  0  0  0  0  0
   16.2430   16.5571   12.8209 C   0  0  0  0  0  0  0  0  0  0  0  0
   17.2595   18.3780   13.1732 H   0  0  0  0  0  0  0  0  0  0  0  0
   14.5923   16.1715   18.2518 C   0  0  0  0  0  0  0  0  0  0  0  0
   14.4829   14.6563   18.1899 C   0  0  0  0  0  0  0  0  0  0  0  0
   13.2101   14.2235   17.5825 N   0  0  0  0  0  0  0  0  0  0  0  0
   13.0856   13.2272   17.7621 H   0  0  0  0  0  0  0  0  0  0  0  0
   12.0288   14.9579   18.1274 C   0  0  0  0  0  0  0  0  0  0  0  0
   11.4769   15.8441   17.0537 C   0  0  0  0  0  0  0  0  0  0  0  0
   11.2554   17.1933   17.3029 C   0  0  0  0  0  0  0  0  0  0  0  0
   10.7438   18.0428   16.3239 C   0  0  0  0  0  0  0  0  0  0  0  0
   10.4546   17.5008   15.0779 C   0  0  0  0  0  0  0  0  0  0  0  0
   10.6733   16.1499   14.8157 C   0  0  0  0  0  0  0  0  0  0  0  0
   11.1855   15.3077   15.7994 C   0  0  0  0  0  0  0  0  0  0  0  0
  1  2  1  0  0  0
  1  9  1  0  0  0
  2  3  2  0  0  0
  2  7  1  0  0  0
  3  4  1  0  0  0
  4  5  2  0  0  0
  4 14  1  0  0  0
  5  6  1  0  0  0
  5 10  1  0  0  0
  6 23  1  0  0  0
  6  7  2  0  0  0
 23 24  1  0  0  0
 24 25  1  0  0  0
 25 27  1  0  0  0
 27 28  1  0  0  0
 28 29  2  0  0  0
 28 33  1  0  0  0
 29 30  1  0  0  0
 30 31  2  0  0  0
 31 32  1  0  0  0
 32 33  2  0  0  0
  7  8  1  0  0  0
  8  9  2  0  0  0
  9 20  1  0  0  0
 20 21  1  0  0  0
 10 11  2  0  0  0
 11 12  1  0  0  0
 11 13  1  0  0  0
 13 14  1  0  0  0
 14 15  2  0  0  0
  1 16  1  0  0  0
 25 26  1  0  0  0
 20 22  1  0  0  0
 12 17  1  0  0  0
 12 18  1  0  0  0
 13 19  1  0  0  0
M  END
> <minimizedAffinity>
-8.92812

$$$$
3GC4_AAQ_A_395


 33 36  0  0  0  0  0  0  0  0999 V2000
   11.3918   18.6882   13.2062 N   0  0  0  0  0  0  0  0  0  0  0  0
   12.7317   18.4961   13.4390 C   0  0  0  0  0  0  0  0  0  0  0  0
   13.8785   18.8869   12.7499 C   0  0  0  0  0  0  0  0  0  0  0  0
   15.0950   18.5893   13.3601 C   0  0  0  0  0  0  0  0  0  0  0  0
   15.1776   17.8254   14.5435 C   0  0  0  0  0  0  0  0  0  0  0  0
   13.9952   17.3666   15.1678 C   0  0  0  0  0  0  0  0  0  0  0  0
   12.7644   17.7467   14.6033 C   0  0  0  0  0  0  0  0  0  0  0  0
   11.4971   17.5039   15.0721 N   0  0  0  0  0  0  0  0  0  0  0  0
   10.6978   18.1735   14.2798 C   0  0  0  0  0  0  0  0  0  0  0  0
   16.4463   17.5994   15.1287 N   0  0  0  0  0  0  0  0  0  0  0  0
   17.5403   18.1077   14.6250 C   0  0  0  0  0  0  0  0  0  0  0  0
   18.7939   17.7737   15.1088 N   0  0  0  0  0  0  0  0  0  0  0  0
   17.5121   18.8402   13.4518 N   0  0  0  0  0  0  0  0  0  0  0  0
   16.3387   19.0742   12.7464 C   0  0  0  0  0  0  0  0  0  0  0  0
   16.3046   19.6501   11.6569 O   0  0  0  0  0  0  0  0  0  0  0  0
   10.9971   19.1174   12.4130 H   0  0  0  0  0  0  0  0  0  0  0  0
   18.8781   17.2531   15.9401 H   0  0  0  0  0  0  0  0  0  0  0  0
   19.6010   18.0569   14.6214 H   0  0  0  0  0  0  0  0  0  0  0  0
   18.3557   19.2095   13.1036 H   0  0  0  0  0  0  0  0  0  0  0  0
    9.3551   18.1650   14.2343 N   0  0  0  0  0  0  0  0  0  0  0  0
    8.6955   18.1500   12.9554 C   0  0  0  0  0  0  0  0  0  0  0  0
    8.8286   18.1690   15.0662 H   0  0  0  0  0  0  0  0  0  0  0  0
   13.9735   16.6515   16.4976 C   0  0  0  0  0  0  0  0  0  0  0  0
   14.6562   15.3062   16.3083 C   0  0  0  0  0  0  0  0  0  0  0  0
   15.3368   14.8595   17.5386 N   0  0  0  0  0  0  0  0  0  0  0  0
   16.3430   14.8568   17.3715 H   0  0  0  0  0  0  0  0  0  0  0  0
   15.0502   15.7393   18.7113 C   0  0  0  0  0  0  0  0  0  0  0  0
   16.3472   16.2589   19.2507 C   0  0  0  0  0  0  0  0  0  0  0  0
   17.3443   16.6905   18.3843 C   0  0  0  0  0  0  0  0  0  0  0  0
   18.5609   17.1797   18.8562 C   0  0  0  0  0  0  0  0  0  0  0  0
   18.7558   17.2235   20.2309 C   0  0  0  0  0  0  0  0  0  0  0  0
   17.7632   16.7945   21.1096 C   0  0  0  0  0  0  0  0  0  0  0  0
   16.5499   16.3075   20.6299 C   0  0  0  0  0  0  0  0  0  0  0  0
  1  2  1  0  0  0
  1  9  1  0  0  0
  2  3  2  0  0  0
  2  7  1  0  0  0
  3  4  1  0  0  0
  4  5  2  0  0  0
  4 14  1  0  0  0
  5  6  1  0  0  0
  5 10  1  0  0  0
  6 23  1  0  0  0
  6  7  2  0  0  0
 23 24  1  0  0  0
 24 25  1  0  0  0
 25 27  1  0  0  0
 27 28  1  0  0  0
 28 29  2  0  0  0
 28 33  1  0  0  0
 29 30  1  0  0  0
 30 31  2  0  0  0
 31 32  1  0  0  0
 32 33  2  0  0  0
  7  8  1  0  0  0
  8  9  2  0  0  0
  9 20  1  0  0  0
 20 21  1  0  0  0
 10 11  2  0  0  0
 11 12  1  0  0  0
 11 13  1  0  0  0
 13 14  1  0  0  0
 14 15  2  0  0  0
  1 16  1  0  0  0
 25 26  1  0  0  0
 20 22  1  0  0  0
 12 17  1  0  0  0
 12 18  1  0  0  0
 13 19  1  0  0  0
M  END
> <minimizedAffinity>
-8.24623

$$$$
3GC4_AAQ_A_395


 33 36  0  0  0  0  0  0  0  0999 V2000
   16.7515   16.2767   18.5068 N   0  0  0  0  0  0  0  0  0  0  0  0
   15.5759   16.2440   17.7974 C   0  0  0  0  0  0  0  0  0  0  0  0
   14.3178   15.7109   18.0728 C   0  0  0  0  0  0  0  0  0  0  0  0
   13.3209   15.9686   17.1344 C   0  0  0  0  0  0  0  0  0  0  0  0
   13.5872   16.6210   15.9120 C   0  0  0  0  0  0  0  0  0  0  0  0
   14.8969   17.0687   15.6249 C   0  0  0  0  0  0  0  0  0  0  0  0
   15.8826   16.8920   16.6124 C   0  0  0  0  0  0  0  0  0  0  0  0
   17.1879   17.3176   16.6038 N   0  0  0  0  0  0  0  0  0  0  0  0
   17.6543   17.0363   17.7948 C   0  0  0  0  0  0  0  0  0  0  0  0
   12.5153   16.8859   15.0265 N   0  0  0  0  0  0  0  0  0  0  0  0
   11.2805   16.5763   15.3237 C   0  0  0  0  0  0  0  0  0  0  0  0
   10.2520   16.7027   14.4055 N   0  0  0  0  0  0  0  0  0  0  0  0
   10.9746   15.9119   16.4979 N   0  0  0  0  0  0  0  0  0  0  0  0
   11.9456   15.5361   17.4172 C   0  0  0  0  0  0  0  0  0  0  0  0
   11.7043   14.8697   18.4259 O   0  0  0  0  0  0  0  0  0  0  0  0
   16.9195   15.8357   19.3708 H   0  0  0  0  0  0  0  0  0  0  0  0
   10.4090   17.1658   13.5510 H   0  0  0  0  0  0  0  0  0  0  0  0
    9.3636   16.3294   14.6070 H   0  0  0  0  0  0  0  0  0  0  0  0
   10.0330   15.6973   16.6892 H   0  0  0  0  0  0  0  0  0  0  0  0
   18.9139   17.1356   18.2515 N   0  0  0  0  0  0  0  0  0  0  0  0
   19.1358   17.4403   19.6402 C   0  0  0  0  0  0  0  0  0  0  0  0
   19.6762   17.0015   17.6431 H   0  0  0  0  0  0  0  0  0  0  0  0
   15.2550   17.8830   14.4047 C   0  0  0  0  0  0  0  0  0  0  0  0
   15.8076   16.9274   13.3592 C   0  0  0  0  0  0  0  0  0  0  0  0
   17.2584   17.1091   13.1634 N   0  0  0  0  0  0  0  0  0  0  0  0
   17.7355   16.2548   13.4513 H   0  0  0  0  0  0  0  0  0  0  0  0
   17.6191   17.4018   11.7436 C   0  0  0  0  0  0  0  0  0  0  0  0
   19.1049   17.5652   11.6492 C   0  0  0  0  0  0  0  0  0  0  0  0
   19.8577   16.6966   10.8681 C   0  0  0  0  0  0  0  0  0  0  0  0
   21.2412   16.8239   10.7599 C   0  0  0  0  0  0  0  0  0  0  0  0
   21.8574   17.8517   11.4626 C   0  0  0  0  0  0  0  0  0  0  0  0
   21.1131   18.7295   12.2482 C   0  0  0  0  0  0  0  0  0  0  0  0
   19.7308   18.5958   12.3505 C   0  0  0  0  0  0  0  0  0  0  0  0
  1  2  1  0  0  0
  1  9  1  0  0  0
  2  3  2  0  0  0
  2  7  1  0  0  0
  3  4  1  0  0  0
  4  5  2  0  0  0
  4 14  1  0  0  0
  5  6  1  0  0  0
  5 10  1  0  0  0
  6 23  1  0  0  0
  6  7  2  0  0  0
 23 24  1  0  0  0
 24 25  1  0  0  0
 25 27  1  0  0  0
 27 28  1  0  0  0
 28 29  2  0  0  0
 28 33  1  0  0  0
 29 30  1  0  0  0
 30 31  2  0  0  0
 31 32  1  0  0  0
 32 33  2  0  0  0
  7  8  1  0  0  0
  8  9  2  0  0  0
  9 20  1  0  0  0
 20 21  1  0  0  0
 10 11  2  0  0  0
 11 12  1  0  0  0
 11 13  1  0  0  0
 13 14  1  0  0  0
 14 15  2  0  0  0
  1 16  1  0  0  0
 25 26  1  0  0  0
 20 22  1  0  0  0
 12 17  1  0  0  0
 12 18  1  0  0  0
 13 19  1  0  0  0
M  END
> <minimizedAffinity>
-8.05132

$$$$
3GC4_AAQ_A_395


 33 36  0  0  0  0  0  0  0  0999 V2000
   16.6853   18.9324   13.6387 N   0  0  0  0  0  0  0  0  0  0  0  0
   15.3248   18.8136   13.7854 C   0  0  0  0  0  0  0  0  0  0  0  0
   14.2540   19.5970   13.3584 C   0  0  0  0  0  0  0  0  0  0  0  0
   12.9811   19.0919   13.6138 C   0  0  0  0  0  0  0  0  0  0  0  0
   12.7734   17.9199   14.3716 C   0  0  0  0  0  0  0  0  0  0  0  0
   13.8829   17.1982   14.8680 C   0  0  0  0  0  0  0  0  0  0  0  0
   15.1689   17.6566   14.5304 C   0  0  0  0  0  0  0  0  0  0  0  0
   16.3834   17.0825   14.8143 N   0  0  0  0  0  0  0  0  0  0  0  0
   17.2686   17.8043   14.1735 C   0  0  0  0  0  0  0  0  0  0  0  0
   11.4530   17.4441   14.5538 N   0  0  0  0  0  0  0  0  0  0  0  0
   10.4230   18.0381   14.0105 C   0  0  0  0  0  0  0  0  0  0  0  0
    9.1227   17.6621   14.3013 N   0  0  0  0  0  0  0  0  0  0  0  0
   10.5746   19.2045   13.2823 N   0  0  0  0  0  0  0  0  0  0  0  0
   11.8105   19.8082   13.0892 C   0  0  0  0  0  0  0  0  0  0  0  0
   11.9557   20.8906   12.5174 O   0  0  0  0  0  0  0  0  0  0  0  0
   17.1597   19.6893   13.2248 H   0  0  0  0  0  0  0  0  0  0  0  0
    8.9512   16.8410   14.8169 H   0  0  0  0  0  0  0  0  0  0  0  0
    8.3694   18.2157   13.9926 H   0  0  0  0  0  0  0  0  0  0  0  0
    9.7763   19.6225   12.8859 H   0  0  0  0  0  0  0  0  0  0  0  0
   18.6093   17.7362   14.2269 N   0  0  0  0  0  0  0  0  0  0  0  0
   19.3820   18.2125   13.1103 C   0  0  0  0  0  0  0  0  0  0  0  0
   19.0579   17.3648   15.0207 H   0  0  0  0  0  0  0  0  0  0  0  0
   13.7684   15.8715   15.5801 C   0  0  0  0  0  0  0  0  0  0  0  0
   13.9367   16.1318   17.0686 C   0  0  0  0  0  0  0  0  0  0  0  0
   15.2457   15.6632   17.5619 N   0  0  0  0  0  0  0  0  0  0  0  0
   15.9695   16.2905   17.2113 H   0  0  0  0  0  0  0  0  0  0  0  0
   15.3246   15.6299   19.0533 C   0  0  0  0  0  0  0  0  0  0  0  0
   16.5962   16.2948   19.4822 C   0  0  0  0  0  0  0  0  0  0  0  0
   16.8674   16.4852   20.8318 C   0  0  0  0  0  0  0  0  0  0  0  0
   18.0421   17.0996   21.2615 C   0  0  0  0  0  0  0  0  0  0  0  0
   18.9454   17.5248   20.2955 C   0  0  0  0  0  0  0  0  0  0  0  0
   18.6851   17.3385   18.9394 C   0  0  0  0  0  0  0  0  0  0  0  0
   17.5090   16.7230   18.5183 C   0  0  0  0  0  0  0  0  0  0  0  0
  1  2  1  0  0  0
  1  9  1  0  0  0
  2  3  2  0  0  0
  2  7  1  0  0  0
  3  4  1  0  0  0
  4  5  2  0  0  0
  4 14  1  0  0  0
  5  6  1  0  0  0
  5 10  1  0  0  0
  6 23  1  0  0  0
  6  7  2  0  0  0
 23 24  1  0  0  0
 24 25  1  0  0  0
 25 27  1  0  0  0
 27 28  1  0  0  0
 28 29  2  0  0  0
 28 33  1  0  0  0
 29 30  1  0  0  0
 30 31  2  0  0  0
 31 32  1  0  0  0
 32 33  2  0  0  0
  7  8  1  0  0  0
  8  9  2  0  0  0
  9 20  1  0  0  0
 20 21  1  0  0  0
 10 11  2  0  0  0
 11 12  1  0  0  0
 11 13  1  0  0  0
 13 14  1  0  0  0
 14 15  2  0  0  0
  1 16  1  0  0  0
 25 26  1  0  0  0
 20 22  1  0  0  0
 12 17  1  0  0  0
 12 18  1  0  0  0
 13 19  1  0  0  0
M  END
> <minimizedAffinity>
-8.02077

$$$$
3GC4_AAQ_A_395


 33 36  0  0  0  0  0  0  0  0999 V2000
   10.6796   18.9812   17.1847 N   0  0  0  0  0  0  0  0  0  0  0  0
   11.6055   18.4064   16.3489 C   0  0  0  0  0  0  0  0  0  0  0  0
   12.1377   18.7889   15.1188 C   0  0  0  0  0  0  0  0  0  0  0  0
   13.1547   17.9838   14.6106 C   0  0  0  0  0  0  0  0  0  0  0  0
   13.5441   16.7789   15.2331 C   0  0  0  0  0  0  0  0  0  0  0  0
   12.9182   16.3741   16.4342 C   0  0  0  0  0  0  0  0  0  0  0  0
   11.9577   17.2339   16.9965 C   0  0  0  0  0  0  0  0  0  0  0  0
   11.2867   17.1046   18.1872 N   0  0  0  0  0  0  0  0  0  0  0  0
   10.6122   18.2181   18.3302 C   0  0  0  0  0  0  0  0  0  0  0  0
   14.6144   16.0349   14.6817 N   0  0  0  0  0  0  0  0  0  0  0  0
   15.2766   16.4494   13.6335 C   0  0  0  0  0  0  0  0  0  0  0  0
   16.2264   15.6602   13.0075 N   0  0  0  0  0  0  0  0  0  0  0  0
   14.9141   17.6102   12.9740 N   0  0  0  0  0  0  0  0  0  0  0  0
   13.8394   18.3925   13.3767 C   0  0  0  0  0  0  0  0  0  0  0  0
   13.4483   19.3817   12.7536 O   0  0  0  0  0  0  0  0  0  0  0  0
   10.1567   19.7944   16.9986 H   0  0  0  0  0  0  0  0  0  0  0  0
   16.5246   14.8216   13.4284 H   0  0  0  0  0  0  0  0  0  0  0  0
   16.6035   15.9375   12.1414 H   0  0  0  0  0  0  0  0  0  0  0  0
   15.4376   17.8924   12.1894 H   0  0  0  0  0  0  0  0  0  0  0  0
    9.6999   18.5367   19.2635 N   0  0  0  0  0  0  0  0  0  0  0  0
   10.0413   18.4012   20.6549 C   0  0  0  0  0  0  0  0  0  0  0  0
    8.8082   18.8591   18.9987 H   0  0  0  0  0  0  0  0  0  0  0  0
   13.3483   15.1705   17.2384 C   0  0  0  0  0  0  0  0  0  0  0  0
   14.3756   15.6400   18.2563 C   0  0  0  0  0  0  0  0  0  0  0  0
   15.7534   15.3430   17.8208 N   0  0  0  0  0  0  0  0  0  0  0  0
   15.7175   14.9142   16.8960 H   0  0  0  0  0  0  0  0  0  0  0  0
   16.6136   16.5623   17.7483 C   0  0  0  0  0  0  0  0  0  0  0  0
   17.3143   16.7347   19.0607 C   0  0  0  0  0  0  0  0  0  0  0  0
   16.6459   16.4776   20.2517 C   0  0  0  0  0  0  0  0  0  0  0  0
   17.2715   16.6281   21.4878 C   0  0  0  0  0  0  0  0  0  0  0  0
   18.5953   17.0491   21.5006 C   0  0  0  0  0  0  0  0  0  0  0  0
   19.2762   17.3089   20.3131 C   0  0  0  0  0  0  0  0  0  0  0  0
   18.6441   17.1555   19.0818 C   0  0  0  0  0  0  0  0  0  0  0  0
  1  2  1  0  0  0
  1  9  1  0  0  0
  2  3  2  0  0  0
  2  7  1  0  0  0
  3  4  1  0  0  0
  4  5  2  0  0  0
  4 14  1  0  0  0
  5  6  1  0  0  0
  5 10  1  0  0  0
  6 23  1  0  0  0
  6  7  2  0  0  0
 23 24  1  0  0  0
 24 25  1  0  0  0
 25 27  1  0  0  0
 27 28  1  0  0  0
 28 29  2  0  0  0
 28 33  1  0  0  0
 29 30  1  0  0  0
 30 31  2  0  0  0
 31 32  1  0  0  0
 32 33  2  0  0  0
  7  8  1  0  0  0
  8  9  2  0  0  0
  9 20  1  0  0  0
 20 21  1  0  0  0
 10 11  2  0  0  0
 11 12  1  0  0  0
 11 13  1  0  0  0
 13 14  1  0  0  0
 14 15  2  0  0  0
  1 16  1  0  0  0
 25 26  1  0  0  0
 20 22  1  0  0  0
 12 17  1  0  0  0
 12 18  1  0  0  0
 13 19  1  0  0  0
M  END
> <minimizedAffinity>
-7.85995

$$$$
3GC4_AAQ_A_395


 33 36  0  0  0  0  0  0  0  0999 V2000
   11.3842   16.3381   17.9977 N   0  0  0  0  0  0  0  0  0  0  0  0
   11.4340   17.3353   17.0545 C   0  0  0  0  0  0  0  0  0  0  0  0
   10.7370   18.5329   16.9044 C   0  0  0  0  0  0  0  0  0  0  0  0
   11.1419   19.3536   15.8541 C   0  0  0  0  0  0  0  0  0  0  0  0
   12.1137   18.9502   14.9140 C   0  0  0  0  0  0  0  0  0  0  0  0
   12.7363   17.6879   15.0445 C   0  0  0  0  0  0  0  0  0  0  0  0
   12.3953   16.8993   16.1579 C   0  0  0  0  0  0  0  0  0  0  0  0
   12.9233   15.6925   16.5452 N   0  0  0  0  0  0  0  0  0  0  0  0
   12.3818   15.4323   17.7089 C   0  0  0  0  0  0  0  0  0  0  0  0
   12.5049   19.8551   13.8985 N   0  0  0  0  0  0  0  0  0  0  0  0
   12.0190   21.0665   13.8273 C   0  0  0  0  0  0  0  0  0  0  0  0
   12.2896   21.9030   12.7577 N   0  0  0  0  0  0  0  0  0  0  0  0
   11.0448   21.4973   14.7101 N   0  0  0  0  0  0  0  0  0  0  0  0
   10.5291   20.6810   15.7085 C   0  0  0  0  0  0  0  0  0  0  0  0
    9.6023   21.0164   16.4489 O   0  0  0  0  0  0  0  0  0  0  0  0
   10.7486   16.2806   18.7473 H   0  0  0  0  0  0  0  0  0  0  0  0
   12.9731   21.6503   12.0957 H   0  0  0  0  0  0  0  0  0  0  0  0
   11.7985   22.7506   12.6591 H   0  0  0  0  0  0  0  0  0  0  0  0
   10.7041   22.4173   14.6275 H   0  0  0  0  0  0  0  0  0  0  0  0
   12.4699   14.3139   18.4481 N   0  0  0  0  0  0  0  0  0  0  0  0
   13.7630   13.7293   18.6864 C   0  0  0  0  0  0  0  0  0  0  0  0
   11.6592   13.8992   18.8223 H   0  0  0  0  0  0  0  0  0  0  0  0
   13.8713   17.2190   14.1656 C   0  0  0  0  0  0  0  0  0  0  0  0
   15.1599   17.7944   14.7316 C   0  0  0  0  0  0  0  0  0  0  0  0
   15.8401   16.8386   15.6260 N   0  0  0  0  0  0  0  0  0  0  0  0
   15.9631   15.9571   15.1278 H   0  0  0  0  0  0  0  0  0  0  0  0
   17.1791   17.3215   16.0793 C   0  0  0  0  0  0  0  0  0  0  0  0
   17.3153   17.0531   17.5464 C   0  0  0  0  0  0  0  0  0  0  0  0
   18.4955   17.3664   18.2100 C   0  0  0  0  0  0  0  0  0  0  0  0
   18.6516   17.1293   19.5744 C   0  0  0  0  0  0  0  0  0  0  0  0
   17.5864   16.5627   20.2628 C   0  0  0  0  0  0  0  0  0  0  0  0
   16.3978   16.2452   19.6087 C   0  0  0  0  0  0  0  0  0  0  0  0
   16.2495   16.4859   18.2451 C   0  0  0  0  0  0  0  0  0  0  0  0
  1  2  1  0  0  0
  1  9  1  0  0  0
  2  3  2  0  0  0
  2  7  1  0  0  0
  3  4  1  0  0  0
  4  5  2  0  0  0
  4 14  1  0  0  0
  5  6  1  0  0  0
  5 10  1  0  0  0
  6 23  1  0  0  0
  6  7  2  0  0  0
 23 24  1  0  0  0
 24 25  1  0  0  0
 25 27  1  0  0  0
 27 28  1  0  0  0
 28 29  2  0  0  0
 28 33  1  0  0  0
 29 30  1  0  0  0
 30 31  2  0  0  0
 31 32  1  0  0  0
 32 33  2  0  0  0
  7  8  1  0  0  0
  8  9  2  0  0  0
  9 20  1  0  0  0
 20 21  1  0  0  0
 10 11  2  0  0  0
 11 12  1  0  0  0
 11 13  1  0  0  0
 13 14  1  0  0  0
 14 15  2  0  0  0
  1 16  1  0  0  0
 25 26  1  0  0  0
 20 22  1  0  0  0
 12 17  1  0  0  0
 12 18  1  0  0  0
 13 19  1  0  0  0
M  END
> <minimizedAffinity>
-7.81786

$$$$
3GC4_AAQ_A_395


 33 36  0  0  0  0  0  0  0  0999 V2000
   18.8067   18.7681   13.9005 N   0  0  0  0  0  0  0  0  0  0  0  0
   18.1801   18.1378   14.9477 C   0  0  0  0  0  0  0  0  0  0  0  0
   18.6051   17.7702   16.2232 C   0  0  0  0  0  0  0  0  0  0  0  0
   17.6349   17.2277   17.0630 C   0  0  0  0  0  0  0  0  0  0  0  0
   16.3261   16.9446   16.6183 C   0  0  0  0  0  0  0  0  0  0  0  0
   15.9549   17.2472   15.2883 C   0  0  0  0  0  0  0  0  0  0  0  0
   16.9062   17.8809   14.4689 C   0  0  0  0  0  0  0  0  0  0  0  0
   16.7547   18.3490   13.1871 N   0  0  0  0  0  0  0  0  0  0  0  0
   17.8709   18.9758   12.9106 C   0  0  0  0  0  0  0  0  0  0  0  0
   15.3822   16.4332   17.5407 N   0  0  0  0  0  0  0  0  0  0  0  0
   15.6769   16.2494   18.8009 C   0  0  0  0  0  0  0  0  0  0  0  0
   14.8057   15.6184   19.6727 N   0  0  0  0  0  0  0  0  0  0  0  0
   16.9539   16.4871   19.2769 N   0  0  0  0  0  0  0  0  0  0  0  0
   17.9859   16.9260   18.4574 C   0  0  0  0  0  0  0  0  0  0  0  0
   19.1488   17.0614   18.8433 O   0  0  0  0  0  0  0  0  0  0  0  0
   19.7562   19.0259   13.8637 H   0  0  0  0  0  0  0  0  0  0  0  0
   13.8831   15.4224   19.3906 H   0  0  0  0  0  0  0  0  0  0  0  0
   15.1090   15.3657   20.5746 H   0  0  0  0  0  0  0  0  0  0  0  0
   17.1382   16.3397   20.2327 H   0  0  0  0  0  0  0  0  0  0  0  0
   18.2755   19.5002   11.7417 N   0  0  0  0  0  0  0  0  0  0  0  0
   17.8338   20.8192   11.3729 C   0  0  0  0  0  0  0  0  0  0  0  0
   18.8672   18.9880   11.1444 H   0  0  0  0  0  0  0  0  0  0  0  0
   14.5496   17.0973   14.7563 C   0  0  0  0  0  0  0  0  0  0  0  0
   14.3301   15.6257   14.4436 C   0  0  0  0  0  0  0  0  0  0  0  0
   13.6148   14.9350   15.5334 N   0  0  0  0  0  0  0  0  0  0  0  0
   13.9213   15.3268   16.4239 H   0  0  0  0  0  0  0  0  0  0  0  0
   12.1311   15.0782   15.4346 C   0  0  0  0  0  0  0  0  0  0  0  0
   11.6963   16.2010   16.3252 C   0  0  0  0  0  0  0  0  0  0  0  0
   11.8951   16.1241   17.6984 C   0  0  0  0  0  0  0  0  0  0  0  0
   11.5022   17.1530   18.5523 C   0  0  0  0  0  0  0  0  0  0  0  0
   10.8970   18.2700   17.9905 C   0  0  0  0  0  0  0  0  0  0  0  0
   10.6932   18.3590   16.6150 C   0  0  0  0  0  0  0  0  0  0  0  0
   11.0894   17.3268   15.7684 C   0  0  0  0  0  0  0  0  0  0  0  0
  1  2  1  0  0  0
  1  9  1  0  0  0
  2  3  2  0  0  0
  2  7  1  0  0  0
  3  4  1  0  0  0
  4  5  2  0  0  0
  4 14  1  0  0  0
  5  6  1  0  0  0
  5 10  1  0  0  0
  6 23  1  0  0  0
  6  7  2  0  0  0
 23 24  1  0  0  0
 24 25  1  0  0  0
 25 27  1  0  0  0
 27 28  1  0  0  0
 28 29  2  0  0  0
 28 33  1  0  0  0
 29 30  1  0  0  0
 30 31  2  0  0  0
 31 32  1  0  0  0
 32 33  2  0  0  0
  7  8  1  0  0  0
  8  9  2  0  0  0
  9 20  1  0  0  0
 20 21  1  0  0  0
 10 11  2  0  0  0
 11 12  1  0  0  0
 11 13  1  0  0  0
 13 14  1  0  0  0
 14 15  2  0  0  0
  1 16  1  0  0  0
 25 26  1  0  0  0
 20 22  1  0  0  0
 12 17  1  0  0  0
 12 18  1  0  0  0
 13 19  1  0  0  0
M  END
> <minimizedAffinity>
-7.68649

$$$$
3GC4_AAQ_A_395


 33 36  0  0  0  0  0  0  0  0999 V2000
   16.9233   16.2583   18.2226 N   0  0  0  0  0  0  0  0  0  0  0  0
   15.7105   16.1998   17.5805 C   0  0  0  0  0  0  0  0  0  0  0  0
   14.5191   15.5348   17.8650 C   0  0  0  0  0  0  0  0  0  0  0  0
   13.4464   15.8035   17.0178 C   0  0  0  0  0  0  0  0  0  0  0  0
   13.5805   16.6014   15.8618 C   0  0  0  0  0  0  0  0  0  0  0  0
   14.8294   17.1874   15.5534 C   0  0  0  0  0  0  0  0  0  0  0  0
   15.8877   16.9929   16.4590 C   0  0  0  0  0  0  0  0  0  0  0  0
   17.1519   17.5274   16.4247 N   0  0  0  0  0  0  0  0  0  0  0  0
   17.7152   17.1632   17.5495 C   0  0  0  0  0  0  0  0  0  0  0  0
   12.4361   16.8652   15.0720 N   0  0  0  0  0  0  0  0  0  0  0  0
   11.2515   16.4214   15.4016 C   0  0  0  0  0  0  0  0  0  0  0  0
   10.1590   16.5551   14.5616 N   0  0  0  0  0  0  0  0  0  0  0  0
   11.0757   15.6133   16.5106 N   0  0  0  0  0  0  0  0  0  0  0  0
   12.1307   15.2274   17.3273 C   0  0  0  0  0  0  0  0  0  0  0  0
   12.0086   14.4403   18.2682 O   0  0  0  0  0  0  0  0  0  0  0  0
   17.1811   15.7447   19.0220 H   0  0  0  0  0  0  0  0  0  0  0  0
   10.2233   17.1174   13.7560 H   0  0  0  0  0  0  0  0  0  0  0  0
    9.3178   16.0879   14.7699 H   0  0  0  0  0  0  0  0  0  0  0  0
   10.1683   15.2998   16.7291 H   0  0  0  0  0  0  0  0  0  0  0  0
   18.9898   17.3214   17.9435 N   0  0  0  0  0  0  0  0  0  0  0  0
   19.2771   17.4860   19.3439 C   0  0  0  0  0  0  0  0  0  0  0  0
   19.7188   17.3247   17.2818 H   0  0  0  0  0  0  0  0  0  0  0  0
   15.0423   18.1534   14.4125 C   0  0  0  0  0  0  0  0  0  0  0  0
   15.3544   17.3359   13.1691 C   0  0  0  0  0  0  0  0  0  0  0  0
   16.6741   16.6829   13.2600 N   0  0  0  0  0  0  0  0  0  0  0  0
   16.5397   15.7171   13.5592 H   0  0  0  0  0  0  0  0  0  0  0  0
   17.4107   16.6818   11.9604 C   0  0  0  0  0  0  0  0  0  0  0  0
   18.1115   17.9961   11.8040 C   0  0  0  0  0  0  0  0  0  0  0  0
   17.5646   18.9915   11.0032 C   0  0  0  0  0  0  0  0  0  0  0  0
   18.1927   20.2247   10.8392 C   0  0  0  0  0  0  0  0  0  0  0  0
   19.3950   20.4362   11.5019 C   0  0  0  0  0  0  0  0  0  0  0  0
   19.9527   19.4462   12.3084 C   0  0  0  0  0  0  0  0  0  0  0  0
   19.3184   18.2167   12.4676 C   0  0  0  0  0  0  0  0  0  0  0  0
  1  2  1  0  0  0
  1  9  1  0  0  0
  2  3  2  0  0  0
  2  7  1  0  0  0
  3  4  1  0  0  0
  4  5  2  0  0  0
  4 14  1  0  0  0
  5  6  1  0  0  0
  5 10  1  0  0  0
  6 23  1  0  0  0
  6  7  2  0  0  0
 23 24  1  0  0  0
 24 25  1  0  0  0
 25 27  1  0  0  0
 27 28  1  0  0  0
 28 29  2  0  0  0
 28 33  1  0  0  0
 29 30  1  0  0  0
 30 31  2  0  0  0
 31 32  1  0  0  0
 32 33  2  0  0  0
  7  8  1  0  0  0
  8  9  2  0  0  0
  9 20  1  0  0  0
 20 21  1  0  0  0
 10 11  2  0  0  0
 11 12  1  0  0  0
 11 13  1  0  0  0
 13 14  1  0  0  0
 14 15  2  0  0  0
  1 16  1  0  0  0
 25 26  1  0  0  0
 20 22  1  0  0  0
 12 17  1  0  0  0
 12 18  1  0  0  0
 13 19  1  0  0  0
M  END
> <minimizedAffinity>
-7.20190

$$$$
