6CSP_FBM_A_807


 12 12  0  0  0  0  0  0  0  0999 V2000
   27.2947   -3.9181   -6.7950 C   0  0  0  0  0  0  0  0  0  0  0  0
   26.5939   -2.7790   -6.8946 N   0  0  0  0  0  0  0  0  0  0  0  0
   27.0443   -4.6960   -5.8533 O   0  0  0  0  0  0  0  0  0  0  0  0
   25.6322   -2.5173   -5.9351 O   0  0  0  0  0  0  0  0  0  0  0  0
   26.7593   -2.1463   -7.6304 H   0  0  0  0  0  0  0  0  0  0  0  0
   25.6089   -3.2447   -5.2938 H   0  0  0  0  0  0  0  0  0  0  0  0
   29.5263   -3.2842   -7.6514 C   0  0  0  0  0  0  0  0  0  0  0  0
   28.3440   -4.1265   -7.8361 C   0  0  0  0  0  0  0  0  0  0  0  0
   28.2147   -4.9619   -8.9003 C   0  0  0  0  0  0  0  0  0  0  0  0
   29.3319   -5.1184   -9.8771 C   0  0  0  0  0  0  0  0  0  0  0  0
   30.1115   -3.8392  -10.0777 C   0  0  0  0  0  0  0  0  0  0  0  0
   30.5814   -3.2778   -8.7413 C   0  0  0  0  0  0  0  0  0  0  0  0
 11 10  1  0  0  0
 11 12  1  0  0  0
 10  9  1  0  0  0
 12  7  1  0  0  0
  9  8  2  0  0  0
  8  7  1  0  0  0
  8  1  1  0  0  0
  2  1  1  0  0  0
  2  4  1  0  0  0
  1  3  2  0  0  0
  2  5  1  0  0  0
  4  6  1  0  0  0
M  END
> <minimizedAffinity>
-7.11621

$$$$
6CSP_FBM_A_807


 12 12  0  0  0  0  0  0  0  0999 V2000
   27.0842   -3.7276   -6.6737 C   0  0  0  0  0  0  0  0  0  0  0  0
   26.6788   -4.7936   -5.9681 N   0  0  0  0  0  0  0  0  0  0  0  0
   26.5330   -2.6280   -6.4694 O   0  0  0  0  0  0  0  0  0  0  0  0
   25.6553   -4.6211   -5.0534 O   0  0  0  0  0  0  0  0  0  0  0  0
   27.0981   -5.6749   -6.0976 H   0  0  0  0  0  0  0  0  0  0  0  0
   25.3672   -3.6949   -5.0614 H   0  0  0  0  0  0  0  0  0  0  0  0
   29.3889   -3.2248   -7.4162 C   0  0  0  0  0  0  0  0  0  0  0  0
   28.1642   -3.9838   -7.6720 C   0  0  0  0  0  0  0  0  0  0  0  0
   28.0296   -4.7874   -8.7597 C   0  0  0  0  0  0  0  0  0  0  0  0
   29.1776   -4.9975   -9.6896 C   0  0  0  0  0  0  0  0  0  0  0  0
   30.0467   -3.7685   -9.8263 C   0  0  0  0  0  0  0  0  0  0  0  0
   30.4907   -3.2659   -8.4580 C   0  0  0  0  0  0  0  0  0  0  0  0
 11 10  1  0  0  0
 11 12  1  0  0  0
 10  9  1  0  0  0
 12  7  1  0  0  0
  9  8  2  0  0  0
  8  7  1  0  0  0
  8  1  1  0  0  0
  2  1  1  0  0  0
  2  4  1  0  0  0
  1  3  2  0  0  0
  2  5  1  0  0  0
  4  6  1  0  0  0
M  END
> <minimizedAffinity>
-7.00749

$$$$
6CSP_FBM_A_807


 12 12  0  0  0  0  0  0  0  0999 V2000
   27.9776   -3.6994   -6.9935 C   0  0  0  0  0  0  0  0  0  0  0  0
   27.1188   -4.6863   -6.6987 N   0  0  0  0  0  0  0  0  0  0  0  0
   28.0308   -2.7060   -6.2417 O   0  0  0  0  0  0  0  0  0  0  0  0
   26.3219   -4.5459   -5.5765 O   0  0  0  0  0  0  0  0  0  0  0  0
   27.0570   -5.4889   -7.2655 H   0  0  0  0  0  0  0  0  0  0  0  0
   26.5178   -3.6997   -5.1446 H   0  0  0  0  0  0  0  0  0  0  0  0
   28.4154   -5.0883   -8.9921 C   0  0  0  0  0  0  0  0  0  0  0  0
   28.7819   -3.8899   -8.2366 C   0  0  0  0  0  0  0  0  0  0  0  0
   29.8051   -3.0821   -8.6205 C   0  0  0  0  0  0  0  0  0  0  0  0
   30.5360   -3.3437   -9.8949 C   0  0  0  0  0  0  0  0  0  0  0  0
   30.6483   -4.8182  -10.2078 C   0  0  0  0  0  0  0  0  0  0  0  0
   29.2777   -5.4831  -10.1760 C   0  0  0  0  0  0  0  0  0  0  0  0
 11 10  1  0  0  0
 11 12  1  0  0  0
 10  9  1  0  0  0
 12  7  1  0  0  0
  9  8  2  0  0  0
  8  7  1  0  0  0
  8  1  1  0  0  0
  2  1  1  0  0  0
  2  4  1  0  0  0
  1  3  2  0  0  0
  2  5  1  0  0  0
  4  6  1  0  0  0
M  END
> <minimizedAffinity>
-6.86882

$$$$
6CSP_FBM_A_807


 12 12  0  0  0  0  0  0  0  0999 V2000
   28.3001   -3.9348   -7.7615 C   0  0  0  0  0  0  0  0  0  0  0  0
   28.5012   -2.9336   -6.8923 N   0  0  0  0  0  0  0  0  0  0  0  0
   27.2904   -4.6536   -7.6254 O   0  0  0  0  0  0  0  0  0  0  0  0
   27.5799   -2.7558   -5.8755 O   0  0  0  0  0  0  0  0  0  0  0  0
   29.2831   -2.3412   -6.9754 H   0  0  0  0  0  0  0  0  0  0  0  0
   26.8826   -3.4259   -5.9502 H   0  0  0  0  0  0  0  0  0  0  0  0
   30.4553   -3.1532   -8.6885 C   0  0  0  0  0  0  0  0  0  0  0  0
   29.3473   -4.1010   -8.8123 C   0  0  0  0  0  0  0  0  0  0  0  0
   29.2741   -4.9928   -9.8351 C   0  0  0  0  0  0  0  0  0  0  0  0
   30.3855   -5.0985  -10.8254 C   0  0  0  0  0  0  0  0  0  0  0  0
   31.0487   -3.7681  -11.0982 C   0  0  0  0  0  0  0  0  0  0  0  0
   31.4890   -3.1072   -9.7977 C   0  0  0  0  0  0  0  0  0  0  0  0
 11 10  1  0  0  0
 11 12  1  0  0  0
 10  9  1  0  0  0
 12  7  1  0  0  0
  9  8  2  0  0  0
  8  7  1  0  0  0
  8  1  1  0  0  0
  2  1  1  0  0  0
  2  4  1  0  0  0
  1  3  2  0  0  0
  2  5  1  0  0  0
  4  6  1  0  0  0
M  END
> <minimizedAffinity>
-6.07365

$$$$
6CSP_FBM_A_807


 12 12  0  0  0  0  0  0  0  0999 V2000
   28.5120   -3.9141   -8.1245 C   0  0  0  0  0  0  0  0  0  0  0  0
   28.6267   -3.1663   -7.0172 N   0  0  0  0  0  0  0  0  0  0  0  0
   27.4470   -4.5310   -8.3241 O   0  0  0  0  0  0  0  0  0  0  0  0
   27.5565   -3.1269   -6.1413 O   0  0  0  0  0  0  0  0  0  0  0  0
   29.4501   -2.6591   -6.8326 H   0  0  0  0  0  0  0  0  0  0  0  0
   26.8385   -3.6824   -6.4830 H   0  0  0  0  0  0  0  0  0  0  0  0
   29.5998   -4.9057  -10.1117 C   0  0  0  0  0  0  0  0  0  0  0  0
   29.7128   -3.9482   -9.0108 C   0  0  0  0  0  0  0  0  0  0  0  0
   30.8417   -3.2207   -8.8028 C   0  0  0  0  0  0  0  0  0  0  0  0
   31.9828   -3.3076   -9.7605 C   0  0  0  0  0  0  0  0  0  0  0  0
   32.1352   -4.6873  -10.3586 C   0  0  0  0  0  0  0  0  0  0  0  0
   30.8227   -5.1576  -10.9732 C   0  0  0  0  0  0  0  0  0  0  0  0
 11 10  1  0  0  0
 11 12  1  0  0  0
 10  9  1  0  0  0
 12  7  1  0  0  0
  9  8  2  0  0  0
  8  7  1  0  0  0
  8  1  1  0  0  0
  2  1  1  0  0  0
  2  4  1  0  0  0
  1  3  2  0  0  0
  2  5  1  0  0  0
  4  6  1  0  0  0
M  END
> <minimizedAffinity>
-5.87012

$$$$
6CSP_FBM_A_807


 12 12  0  0  0  0  0  0  0  0999 V2000
   31.3556   -5.0143  -11.2811 C   0  0  0  0  0  0  0  0  0  0  0  0
   31.9978   -6.1871  -11.1780 N   0  0  0  0  0  0  0  0  0  0  0  0
   31.4903   -4.3464  -12.3253 O   0  0  0  0  0  0  0  0  0  0  0  0
   32.7918   -6.5927  -12.2359 O   0  0  0  0  0  0  0  0  0  0  0  0
   31.9069   -6.7442  -10.3715 H   0  0  0  0  0  0  0  0  0  0  0  0
   32.7617   -5.9238  -12.9378 H   0  0  0  0  0  0  0  0  0  0  0  0
   29.3061   -5.3752   -9.9451 C   0  0  0  0  0  0  0  0  0  0  0  0
   30.5460   -4.6122  -10.0931 C   0  0  0  0  0  0  0  0  0  0  0  0
   30.8705   -3.5961   -9.2510 C   0  0  0  0  0  0  0  0  0  0  0  0
   30.0057   -3.2846   -8.0754 C   0  0  0  0  0  0  0  0  0  0  0  0
   28.5398   -3.5280   -8.3521 C   0  0  0  0  0  0  0  0  0  0  0  0
   28.3170   -4.9397   -8.8807 C   0  0  0  0  0  0  0  0  0  0  0  0
 11 10  1  0  0  0
 11 12  1  0  0  0
 10  9  1  0  0  0
 12  7  1  0  0  0
  9  8  2  0  0  0
  8  7  1  0  0  0
  8  1  1  0  0  0
  2  1  1  0  0  0
  2  4  1  0  0  0
  1  3  2  0  0  0
  2  5  1  0  0  0
  4  6  1  0  0  0
M  END
> <minimizedAffinity>
-5.82321

$$$$
6CSP_FBM_A_807


 12 12  0  0  0  0  0  0  0  0999 V2000
   31.1938   -2.5028  -11.0153 C   0  0  0  0  0  0  0  0  0  0  0  0
   31.3061   -1.2151  -10.6580 N   0  0  0  0  0  0  0  0  0  0  0  0
   31.7432   -2.8833  -12.0680 O   0  0  0  0  0  0  0  0  0  0  0  0
   32.0189   -0.3667  -11.4863 O   0  0  0  0  0  0  0  0  0  0  0  0
   30.8926   -0.8826   -9.8287 H   0  0  0  0  0  0  0  0  0  0  0  0
   32.3512   -0.8641  -12.2499 H   0  0  0  0  0  0  0  0  0  0  0  0
   30.1250   -4.6999  -10.6329 C   0  0  0  0  0  0  0  0  0  0  0  0
   30.3811   -3.3602  -10.1027 C   0  0  0  0  0  0  0  0  0  0  0  0
   29.8603   -2.9433   -8.9187 C   0  0  0  0  0  0  0  0  0  0  0  0
   29.0779   -3.8845   -8.0649 C   0  0  0  0  0  0  0  0  0  0  0  0
   28.2746   -4.8742   -8.8772 C   0  0  0  0  0  0  0  0  0  0  0  0
   29.1648   -5.5999   -9.8786 C   0  0  0  0  0  0  0  0  0  0  0  0
 11 10  1  0  0  0
 11 12  1  0  0  0
 10  9  1  0  0  0
 12  7  1  0  0  0
  9  8  2  0  0  0
  8  7  1  0  0  0
  8  1  1  0  0  0
  2  1  1  0  0  0
  2  4  1  0  0  0
  1  3  2  0  0  0
  2  5  1  0  0  0
  4  6  1  0  0  0
M  END
> <minimizedAffinity>
-5.62549

$$$$
6CSP_FBM_A_807


 12 12  0  0  0  0  0  0  0  0999 V2000
   31.2459   -5.5547  -10.9368 C   0  0  0  0  0  0  0  0  0  0  0  0
   31.2125   -5.1522  -12.2157 N   0  0  0  0  0  0  0  0  0  0  0  0
   32.0048   -6.4928  -10.6229 O   0  0  0  0  0  0  0  0  0  0  0  0
   32.0167   -5.8100  -13.1292 O   0  0  0  0  0  0  0  0  0  0  0  0
   30.6315   -4.4087  -12.4968 H   0  0  0  0  0  0  0  0  0  0  0  0
   32.5154   -6.5083  -12.6769 H   0  0  0  0  0  0  0  0  0  0  0  0
   30.9519   -3.6885   -9.3411 C   0  0  0  0  0  0  0  0  0  0  0  0
   30.3284   -4.8332  -10.0062 C   0  0  0  0  0  0  0  0  0  0  0  0
   29.0538   -5.2177   -9.7329 C   0  0  0  0  0  0  0  0  0  0  0  0
   28.2065   -4.4155   -8.8026 C   0  0  0  0  0  0  0  0  0  0  0  0
   29.0063   -3.7863   -7.6851 C   0  0  0  0  0  0  0  0  0  0  0  0
   30.1766   -2.9856   -8.2430 C   0  0  0  0  0  0  0  0  0  0  0  0
 11 10  1  0  0  0
 11 12  1  0  0  0
 10  9  1  0  0  0
 12  7  1  0  0  0
  9  8  2  0  0  0
  8  7  1  0  0  0
  8  1  1  0  0  0
  2  1  1  0  0  0
  2  4  1  0  0  0
  1  3  2  0  0  0
  2  5  1  0  0  0
  4  6  1  0  0  0
M  END
> <minimizedAffinity>
-5.55485

$$$$
6CSP_FBM_A_807


 12 12  0  0  0  0  0  0  0  0999 V2000
   29.1140   -4.7043   -9.3369 C   0  0  0  0  0  0  0  0  0  0  0  0
   28.4228   -3.9488   -8.4709 N   0  0  0  0  0  0  0  0  0  0  0  0
   28.7897   -5.8995   -9.4819 O   0  0  0  0  0  0  0  0  0  0  0  0
   27.3875   -4.5401   -7.7691 O   0  0  0  0  0  0  0  0  0  0  0  0
   28.6461   -2.9992   -8.3382 H   0  0  0  0  0  0  0  0  0  0  0  0
   27.3135   -5.4724   -8.0265 H   0  0  0  0  0  0  0  0  0  0  0  0
   30.6982   -2.8055   -9.3600 C   0  0  0  0  0  0  0  0  0  0  0  0
   30.2431   -4.0216  -10.0350 C   0  0  0  0  0  0  0  0  0  0  0  0
   30.7737   -4.4294  -11.2179 C   0  0  0  0  0  0  0  0  0  0  0  0
   31.9186   -3.6907  -11.8263 C   0  0  0  0  0  0  0  0  0  0  0  0
   31.8598   -2.2046  -11.5569 C   0  0  0  0  0  0  0  0  0  0  0  0
   31.7182   -1.9313  -10.0646 C   0  0  0  0  0  0  0  0  0  0  0  0
 11 10  1  0  0  0
 11 12  1  0  0  0
 10  9  1  0  0  0
 12  7  1  0  0  0
  9  8  2  0  0  0
  8  7  1  0  0  0
  8  1  1  0  0  0
  2  1  1  0  0  0
  2  4  1  0  0  0
  1  3  2  0  0  0
  2  5  1  0  0  0
  4  6  1  0  0  0
M  END
> <minimizedAffinity>
-5.36250

$$$$
6CSP_FBM_A_807


 12 12  0  0  0  0  0  0  0  0999 V2000
   31.7616   -3.2186  -11.1549 C   0  0  0  0  0  0  0  0  0  0  0  0
   32.7519   -2.8962  -10.3099 N   0  0  0  0  0  0  0  0  0  0  0  0
   31.9054   -2.9735  -12.3689 O   0  0  0  0  0  0  0  0  0  0  0  0
   33.8836   -2.2932  -10.8290 O   0  0  0  0  0  0  0  0  0  0  0  0
   32.6755   -3.0836   -9.3464 H   0  0  0  0  0  0  0  0  0  0  0  0
   33.7830   -2.1880  -11.7880 H   0  0  0  0  0  0  0  0  0  0  0  0
   29.7339   -2.8760   -9.7814 C   0  0  0  0  0  0  0  0  0  0  0  0
   30.5511   -3.8305  -10.5314 C   0  0  0  0  0  0  0  0  0  0  0  0
   30.2467   -5.1540  -10.5828 C   0  0  0  0  0  0  0  0  0  0  0  0
   28.9987   -5.6668   -9.9452 C   0  0  0  0  0  0  0  0  0  0  0  0
   28.6352   -4.9096   -8.6886 C   0  0  0  0  0  0  0  0  0  0  0  0
   28.5774   -3.4111   -8.9585 C   0  0  0  0  0  0  0  0  0  0  0  0
 11 10  1  0  0  0
 11 12  1  0  0  0
 10  9  1  0  0  0
 12  7  1  0  0  0
  9  8  2  0  0  0
  8  7  1  0  0  0
  8  1  1  0  0  0
  2  1  1  0  0  0
  2  4  1  0  0  0
  1  3  2  0  0  0
  2  5  1  0  0  0
  4  6  1  0  0  0
M  END
> <minimizedAffinity>
-5.27451

$$$$
