5ZA9_50I_U_301


 35 38  0  0  0  0  0  0  0  0999 V2000
   27.0227   16.2118  -11.2662 C   0  0  0  0  0  0  0  0  0  0  0  0
   28.7496   15.9141   -9.7177 C   0  0  0  0  0  0  0  0  0  0  0  0
   27.4791   15.6836  -10.1107 N   0  0  0  0  0  0  0  0  0  0  0  0
   29.5849   16.6911  -10.5009 C   0  0  0  0  0  0  0  0  0  0  0  0
   29.1285   17.2193  -11.6564 N   0  0  0  0  0  0  0  0  0  0  0  0
   29.2074   15.3837   -8.5589 N   0  0  0  0  0  0  0  0  0  0  0  0
   27.8582   16.9895  -12.0487 C   0  0  0  0  0  0  0  0  0  0  0  0
   30.1342   15.5522   -8.2728 H   0  0  0  0  0  0  0  0  0  0  0  0
   28.6134   14.8297   -8.0026 H   0  0  0  0  0  0  0  0  0  0  0  0
   27.3543   17.5733  -13.3243 C   0  0  0  0  0  0  0  0  0  0  0  0
   26.8493   17.9554  -15.4754 C   0  0  0  0  0  0  0  0  0  0  0  0
   27.5045   17.0139  -14.6076 C   0  0  0  0  0  0  0  0  0  0  0  0
   25.6719   20.0539  -15.2634 C   0  0  0  0  0  0  0  0  0  0  0  0
   25.4849   20.0603  -16.6431 C   0  0  0  0  0  0  0  0  0  0  0  0
   25.9797   19.0184  -17.4278 C   0  0  0  0  0  0  0  0  0  0  0  0
   26.6689   17.9532  -16.8519 C   0  0  0  0  0  0  0  0  0  0  0  0
   26.3608   18.9805  -14.7208 C   0  0  0  0  0  0  0  0  0  0  0  0
   26.6549   18.7594  -13.4548 O   0  0  0  0  0  0  0  0  0  0  0  0
   24.4046   15.2183  -13.5447 C   0  0  0  0  0  0  0  0  0  0  0  0
   25.4173   14.7952  -12.4841 C   0  0  0  0  0  0  0  0  0  0  0  0
   24.6618   16.9171  -11.2656 C   0  0  0  0  0  0  0  0  0  0  0  0
   23.4320   16.0939  -10.8982 C   0  0  0  0  0  0  0  0  0  0  0  0
   22.4902   15.9706  -12.0905 C   0  0  0  0  0  0  0  0  0  0  0  0
   25.7033   15.9742  -11.6719 N   0  0  0  0  0  0  0  0  0  0  0  0
   22.9823   14.9205  -13.0812 C   0  0  0  0  0  0  0  0  0  0  0  0
   30.9985   16.9472  -10.0661 C   0  0  0  0  0  0  0  0  0  0  0  0
   31.4138   16.4172   -9.0478 O   0  0  0  0  0  0  0  0  0  0  0  0
   31.8285   17.5988  -11.0650 N   0  0  0  0  0  0  0  0  0  0  0  0
   31.4162   18.0979  -11.8067 H   0  0  0  0  0  0  0  0  0  0  0  0
   33.0671   17.5183  -10.9718 C   0  0  0  0  0  0  0  0  0  0  0  0
   33.6209   17.2155  -12.0164 N   0  0  0  0  0  0  0  0  0  0  0  0
   33.8235   17.6798   -9.8316 N   0  0  0  0  0  0  0  0  0  0  0  0
   33.0914   17.0972  -12.8380 H   0  0  0  0  0  0  0  0  0  0  0  0
   34.8032   17.5935   -9.8745 H   0  0  0  0  0  0  0  0  0  0  0  0
   33.3842   17.8816   -8.9740 H   0  0  0  0  0  0  0  0  0  0  0  0
 15 14  2  0  0  0
 15 16  1  0  0  0
 14 13  1  0  0  0
 16 11  2  0  0  0
 13 17  2  0  0  0
 11 17  1  0  0  0
 11 12  1  0  0  0
 17 18  1  0  0  0
 12 10  2  0  0  0
 18 10  1  0  0  0
 22 23  1  0  0  0
 22 21  1  0  0  0
 10  7  1  0  0  0
 23 25  1  0  0  0
 25 19  1  0  0  0
 21 24  1  0  0  0
  7  5  2  0  0  0
  7  1  1  0  0  0
 24 20  1  0  0  0
 24  1  1  0  0  0
 20 19  1  0  0  0
  5  4  1  0  0  0
  1  3  2  0  0  0
 31 30  2  0  0  0
 28 30  1  0  0  0
 28 26  1  0  0  0
 30 32  1  0  0  0
  4 26  1  0  0  0
  4  2  2  0  0  0
  3  2  1  0  0  0
 26 27  2  0  0  0
  2  6  1  0  0  0
 28 29  1  0  0  0
 31 33  1  0  0  0
 32 34  1  0  0  0
 32 35  1  0  0  0
  6  8  1  0  0  0
  6  9  1  0  0  0
M  END
> <minimizedAffinity>
-9.28349

$$$$
5ZA9_50I_U_301


 35 38  0  0  0  0  0  0  0  0999 V2000
   24.8985   16.3044  -11.3552 C   0  0  0  0  0  0  0  0  0  0  0  0
   23.1188   14.9960  -10.5877 C   0  0  0  0  0  0  0  0  0  0  0  0
   23.5834   15.9991  -11.3619 N   0  0  0  0  0  0  0  0  0  0  0  0
   23.9915   14.2792   -9.7880 C   0  0  0  0  0  0  0  0  0  0  0  0
   25.3066   14.5845   -9.7813 N   0  0  0  0  0  0  0  0  0  0  0  0
   21.7998   14.6895  -10.5949 N   0  0  0  0  0  0  0  0  0  0  0  0
   25.7708   15.5880  -10.5547 C   0  0  0  0  0  0  0  0  0  0  0  0
   21.4614   13.9577  -10.0300 H   0  0  0  0  0  0  0  0  0  0  0  0
   21.1793   15.1986  -11.1650 H   0  0  0  0  0  0  0  0  0  0  0  0
   27.2227   15.9252  -10.5467 C   0  0  0  0  0  0  0  0  0  0  0  0
   29.3841   16.1850  -11.0845 C   0  0  0  0  0  0  0  0  0  0  0  0
   28.1369   15.6754  -11.5881 C   0  0  0  0  0  0  0  0  0  0  0  0
   30.1895   17.2599   -9.0769 C   0  0  0  0  0  0  0  0  0  0  0  0
   31.4620   17.3038   -9.6402 C   0  0  0  0  0  0  0  0  0  0  0  0
   31.6872   16.7895  -10.9172 C   0  0  0  0  0  0  0  0  0  0  0  0
   30.6494   16.2231  -11.6544 C   0  0  0  0  0  0  0  0  0  0  0  0
   29.1785   16.6907   -9.8352 C   0  0  0  0  0  0  0  0  0  0  0  0
   27.9083   16.5408   -9.5152 O   0  0  0  0  0  0  0  0  0  0  0  0
   25.3195   19.7359  -12.3950 C   0  0  0  0  0  0  0  0  0  0  0  0
   25.8095   18.5872  -11.5174 C   0  0  0  0  0  0  0  0  0  0  0  0
   25.4327   17.1537  -13.6057 C   0  0  0  0  0  0  0  0  0  0  0  0
   26.7352   17.7790  -14.0929 C   0  0  0  0  0  0  0  0  0  0  0  0
   26.5047   19.2131  -14.5554 C   0  0  0  0  0  0  0  0  0  0  0  0
   25.3794   17.3474  -12.1571 N   0  0  0  0  0  0  0  0  0  0  0  0
   26.4075   20.1700  -13.3717 C   0  0  0  0  0  0  0  0  0  0  0  0
   23.4767   13.1624   -8.9275 C   0  0  0  0  0  0  0  0  0  0  0  0
   22.7802   13.4279   -7.9607 O   0  0  0  0  0  0  0  0  0  0  0  0
   23.6404   11.8362   -9.4981 N   0  0  0  0  0  0  0  0  0  0  0  0
   24.3010   11.6786  -10.2109 H   0  0  0  0  0  0  0  0  0  0  0  0
   22.9355   10.9017   -9.0750 C   0  0  0  0  0  0  0  0  0  0  0  0
   23.5327   10.1248   -8.3473 N   0  0  0  0  0  0  0  0  0  0  0  0
   21.6172   10.6520   -9.3881 N   0  0  0  0  0  0  0  0  0  0  0  0
   24.4749   10.2922   -8.1162 H   0  0  0  0  0  0  0  0  0  0  0  0
   21.1552    9.8782   -8.9918 H   0  0  0  0  0  0  0  0  0  0  0  0
   21.1372   11.2473  -10.0081 H   0  0  0  0  0  0  0  0  0  0  0  0
 15 14  2  0  0  0
 15 16  1  0  0  0
 14 13  1  0  0  0
 16 11  2  0  0  0
 13 17  2  0  0  0
 11 17  1  0  0  0
 11 12  1  0  0  0
 17 18  1  0  0  0
 12 10  2  0  0  0
 18 10  1  0  0  0
 22 23  1  0  0  0
 22 21  1  0  0  0
 10  7  1  0  0  0
 23 25  1  0  0  0
 25 19  1  0  0  0
 21 24  1  0  0  0
  7  5  2  0  0  0
  7  1  1  0  0  0
 24 20  1  0  0  0
 24  1  1  0  0  0
 20 19  1  0  0  0
  5  4  1  0  0  0
  1  3  2  0  0  0
 31 30  2  0  0  0
 28 30  1  0  0  0
 28 26  1  0  0  0
 30 32  1  0  0  0
  4 26  1  0  0  0
  4  2  2  0  0  0
  3  2  1  0  0  0
 26 27  2  0  0  0
  2  6  1  0  0  0
 28 29  1  0  0  0
 31 33  1  0  0  0
 32 34  1  0  0  0
 32 35  1  0  0  0
  6  8  1  0  0  0
  6  9  1  0  0  0
M  END
> <minimizedAffinity>
-9.22526

$$$$
5ZA9_50I_U_301


 35 38  0  0  0  0  0  0  0  0999 V2000
   26.9988   16.0632  -11.3328 C   0  0  0  0  0  0  0  0  0  0  0  0
   28.5067   16.6558   -9.6465 C   0  0  0  0  0  0  0  0  0  0  0  0
   27.2415   16.4216  -10.0540 N   0  0  0  0  0  0  0  0  0  0  0  0
   29.5555   16.5269  -10.5400 C   0  0  0  0  0  0  0  0  0  0  0  0
   29.3128   16.1686  -11.8188 N   0  0  0  0  0  0  0  0  0  0  0  0
   28.7500   17.0147   -8.3637 N   0  0  0  0  0  0  0  0  0  0  0  0
   28.0479   15.9353  -12.2262 C   0  0  0  0  0  0  0  0  0  0  0  0
   29.6730   17.1855   -8.0669 H   0  0  0  0  0  0  0  0  0  0  0  0
   28.0038   17.1049   -7.7278 H   0  0  0  0  0  0  0  0  0  0  0  0
   27.7801   15.5402  -13.6383 C   0  0  0  0  0  0  0  0  0  0  0  0
   27.3716   15.5437  -15.8432 C   0  0  0  0  0  0  0  0  0  0  0  0
   27.5917   16.4183  -14.7227 C   0  0  0  0  0  0  0  0  0  0  0  0
   27.2635   13.1657  -16.2535 C   0  0  0  0  0  0  0  0  0  0  0  0
   27.0182   13.4335  -17.5976 C   0  0  0  0  0  0  0  0  0  0  0  0
   26.9508   14.7498  -18.0547 C   0  0  0  0  0  0  0  0  0  0  0  0
   27.1264   15.8211  -17.1812 C   0  0  0  0  0  0  0  0  0  0  0  0
   27.4341   14.2524  -15.4102 C   0  0  0  0  0  0  0  0  0  0  0  0
   27.6752   14.2457  -14.1140 O   0  0  0  0  0  0  0  0  0  0  0  0
   24.3491   14.2535  -12.9873 C   0  0  0  0  0  0  0  0  0  0  0  0
   25.1717   14.4567  -11.7178 C   0  0  0  0  0  0  0  0  0  0  0  0
   24.8776   16.9508  -12.2186 C   0  0  0  0  0  0  0  0  0  0  0  0
   23.4688   16.7461  -11.6727 C   0  0  0  0  0  0  0  0  0  0  0  0
   22.5920   16.0350  -12.6970 C   0  0  0  0  0  0  0  0  0  0  0  0
   25.6852   15.8228  -11.7555 N   0  0  0  0  0  0  0  0  0  0  0  0
   22.8735   14.5362  -12.7245 C   0  0  0  0  0  0  0  0  0  0  0  0
   30.9631   16.7857  -10.0881 C   0  0  0  0  0  0  0  0  0  0  0  0
   31.3943   16.1916   -9.1127 O   0  0  0  0  0  0  0  0  0  0  0  0
   31.7738   17.5313  -11.0358 N   0  0  0  0  0  0  0  0  0  0  0  0
   31.3471   18.0740  -11.7377 H   0  0  0  0  0  0  0  0  0  0  0  0
   33.0143   17.4756  -10.9497 C   0  0  0  0  0  0  0  0  0  0  0  0
   33.5649   17.1343  -11.9841 N   0  0  0  0  0  0  0  0  0  0  0  0
   33.7768   17.7020   -9.8247 N   0  0  0  0  0  0  0  0  0  0  0  0
   33.0310   16.9695  -12.7947 H   0  0  0  0  0  0  0  0  0  0  0  0
   34.7575   17.6299   -9.8720 H   0  0  0  0  0  0  0  0  0  0  0  0
   33.3409   17.9357   -8.9734 H   0  0  0  0  0  0  0  0  0  0  0  0
 15 14  2  0  0  0
 15 16  1  0  0  0
 14 13  1  0  0  0
 16 11  2  0  0  0
 13 17  2  0  0  0
 11 17  1  0  0  0
 11 12  1  0  0  0
 17 18  1  0  0  0
 12 10  2  0  0  0
 18 10  1  0  0  0
 22 23  1  0  0  0
 22 21  1  0  0  0
 10  7  1  0  0  0
 23 25  1  0  0  0
 25 19  1  0  0  0
 21 24  1  0  0  0
  7  5  2  0  0  0
  7  1  1  0  0  0
 24 20  1  0  0  0
 24  1  1  0  0  0
 20 19  1  0  0  0
  5  4  1  0  0  0
  1  3  2  0  0  0
 31 30  2  0  0  0
 28 30  1  0  0  0
 28 26  1  0  0  0
 30 32  1  0  0  0
  4 26  1  0  0  0
  4  2  2  0  0  0
  3  2  1  0  0  0
 26 27  2  0  0  0
  2  6  1  0  0  0
 28 29  1  0  0  0
 31 33  1  0  0  0
 32 34  1  0  0  0
 32 35  1  0  0  0
  6  8  1  0  0  0
  6  9  1  0  0  0
M  END
> <minimizedAffinity>
-9.03629

$$$$
5ZA9_50I_U_301


 35 38  0  0  0  0  0  0  0  0999 V2000
   27.1753   15.8531  -12.6393 C   0  0  0  0  0  0  0  0  0  0  0  0
   27.9669   16.5976  -10.5687 C   0  0  0  0  0  0  0  0  0  0  0  0
   26.9372   16.3321  -11.3998 N   0  0  0  0  0  0  0  0  0  0  0  0
   29.2673   16.3770  -10.9872 C   0  0  0  0  0  0  0  0  0  0  0  0
   29.5055   15.8979  -12.2267 N   0  0  0  0  0  0  0  0  0  0  0  0
   27.7279   17.0777   -9.3252 N   0  0  0  0  0  0  0  0  0  0  0  0
   28.4760   15.6334  -13.0577 C   0  0  0  0  0  0  0  0  0  0  0  0
   28.4794   17.2712   -8.7194 H   0  0  0  0  0  0  0  0  0  0  0  0
   26.8026   17.2332   -9.0271 H   0  0  0  0  0  0  0  0  0  0  0  0
   28.7392   15.1050  -14.4265 C   0  0  0  0  0  0  0  0  0  0  0  0
   29.1006   14.8948  -16.6295 C   0  0  0  0  0  0  0  0  0  0  0  0
   28.8460   15.8702  -15.6035 C   0  0  0  0  0  0  0  0  0  0  0  0
   29.3624   12.4986  -16.7850 C   0  0  0  0  0  0  0  0  0  0  0  0
   29.5611   12.6338  -18.1563 C   0  0  0  0  0  0  0  0  0  0  0  0
   29.5281   13.8939  -18.7540 C   0  0  0  0  0  0  0  0  0  0  0  0
   29.2965   15.0400  -17.9962 C   0  0  0  0  0  0  0  0  0  0  0  0
   29.1349   13.6571  -16.0588 C   0  0  0  0  0  0  0  0  0  0  0  0
   28.9237   13.7761  -14.7629 O   0  0  0  0  0  0  0  0  0  0  0  0
   25.2986   13.9387  -15.0572 C   0  0  0  0  0  0  0  0  0  0  0  0
   25.5998   14.2135  -13.5864 C   0  0  0  0  0  0  0  0  0  0  0  0
   25.5373   16.6763  -14.2857 C   0  0  0  0  0  0  0  0  0  0  0  0
   24.0243   16.4877  -14.2857 C   0  0  0  0  0  0  0  0  0  0  0  0
   23.5771   15.7178  -15.5230 C   0  0  0  0  0  0  0  0  0  0  0  0
   26.1062   15.5803  -13.5021 N   0  0  0  0  0  0  0  0  0  0  0  0
   23.8328   14.2220  -15.3694 C   0  0  0  0  0  0  0  0  0  0  0  0
   30.4135   16.6704  -10.0637 C   0  0  0  0  0  0  0  0  0  0  0  0
   30.6417   15.9092   -9.1370 O   0  0  0  0  0  0  0  0  0  0  0  0
   31.3180   17.7056  -10.5343 N   0  0  0  0  0  0  0  0  0  0  0  0
   31.0238   18.3518  -11.2163 H   0  0  0  0  0  0  0  0  0  0  0  0
   32.4692   17.7657  -10.0649 C   0  0  0  0  0  0  0  0  0  0  0  0
   32.5232   18.2741   -8.9566 N   0  0  0  0  0  0  0  0  0  0  0  0
   33.6369   17.3764  -10.6841 N   0  0  0  0  0  0  0  0  0  0  0  0
   31.6959   18.5565   -8.5038 H   0  0  0  0  0  0  0  0  0  0  0  0
   34.4975   17.4697  -10.2152 H   0  0  0  0  0  0  0  0  0  0  0  0
   33.6106   17.0048  -11.5954 H   0  0  0  0  0  0  0  0  0  0  0  0
 15 14  2  0  0  0
 15 16  1  0  0  0
 14 13  1  0  0  0
 16 11  2  0  0  0
 13 17  2  0  0  0
 11 17  1  0  0  0
 11 12  1  0  0  0
 17 18  1  0  0  0
 12 10  2  0  0  0
 18 10  1  0  0  0
 22 23  1  0  0  0
 22 21  1  0  0  0
 10  7  1  0  0  0
 23 25  1  0  0  0
 25 19  1  0  0  0
 21 24  1  0  0  0
  7  5  2  0  0  0
  7  1  1  0  0  0
 24 20  1  0  0  0
 24  1  1  0  0  0
 20 19  1  0  0  0
  5  4  1  0  0  0
  1  3  2  0  0  0
 31 30  2  0  0  0
 28 30  1  0  0  0
 28 26  1  0  0  0
 30 32  1  0  0  0
  4 26  1  0  0  0
  4  2  2  0  0  0
  3  2  1  0  0  0
 26 27  2  0  0  0
  2  6  1  0  0  0
 28 29  1  0  0  0
 31 33  1  0  0  0
 32 34  1  0  0  0
 32 35  1  0  0  0
  6  8  1  0  0  0
  6  9  1  0  0  0
M  END
> <minimizedAffinity>
-8.83064

$$$$
5ZA9_50I_U_301


 35 38  0  0  0  0  0  0  0  0999 V2000
   27.1930   15.8680  -12.6461 C   0  0  0  0  0  0  0  0  0  0  0  0
   27.9721   16.6307  -10.5773 C   0  0  0  0  0  0  0  0  0  0  0  0
   26.9472   16.3550  -11.4111 N   0  0  0  0  0  0  0  0  0  0  0  0
   29.2753   16.4125  -10.9883 C   0  0  0  0  0  0  0  0  0  0  0  0
   29.5211   15.9255  -12.2233 N   0  0  0  0  0  0  0  0  0  0  0  0
   27.7254   17.1186   -9.3384 N   0  0  0  0  0  0  0  0  0  0  0  0
   28.4964   15.6508  -13.0571 C   0  0  0  0  0  0  0  0  0  0  0  0
   28.4733   17.3196   -8.7306 H   0  0  0  0  0  0  0  0  0  0  0  0
   26.7981   17.2724   -9.0456 H   0  0  0  0  0  0  0  0  0  0  0  0
   28.7681   15.1136  -14.4208 C   0  0  0  0  0  0  0  0  0  0  0  0
   29.1494   14.8901  -16.6191 C   0  0  0  0  0  0  0  0  0  0  0  0
   28.8943   15.8725  -15.6000 C   0  0  0  0  0  0  0  0  0  0  0  0
   29.3887   12.4907  -16.7615 C   0  0  0  0  0  0  0  0  0  0  0  0
   29.6025   12.6178  -18.1314 C   0  0  0  0  0  0  0  0  0  0  0  0
   29.5881   13.8755  -18.7348 C   0  0  0  0  0  0  0  0  0  0  0  0
   29.3605   15.0272  -17.9844 C   0  0  0  0  0  0  0  0  0  0  0  0
   29.1656   13.6547  -16.0428 C   0  0  0  0  0  0  0  0  0  0  0  0
   28.9426   13.7816  -14.7495 O   0  0  0  0  0  0  0  0  0  0  0  0
   24.0415   16.4709  -14.3008 C   0  0  0  0  0  0  0  0  0  0  0  0
   25.5548   16.6699  -14.3016 C   0  0  0  0  0  0  0  0  0  0  0  0
   25.6336   14.2108  -13.5913 C   0  0  0  0  0  0  0  0  0  0  0  0
   25.3347   13.9276  -15.0594 C   0  0  0  0  0  0  0  0  0  0  0  0
   23.8676   14.1979  -15.3726 C   0  0  0  0  0  0  0  0  0  0  0  0
   26.1289   15.5846  -13.5117 N   0  0  0  0  0  0  0  0  0  0  0  0
   23.5998   15.6907  -15.5346 C   0  0  0  0  0  0  0  0  0  0  0  0
   30.4161   16.7172  -10.0618 C   0  0  0  0  0  0  0  0  0  0  0  0
   30.6092   15.9947   -9.0970 O   0  0  0  0  0  0  0  0  0  0  0  0
   31.3563   17.7035  -10.5663 N   0  0  0  0  0  0  0  0  0  0  0  0
   31.0905   18.3246  -11.2823 H   0  0  0  0  0  0  0  0  0  0  0  0
   32.5019   17.7536  -10.0822 C   0  0  0  0  0  0  0  0  0  0  0  0
   32.5477   18.2714   -8.9780 N   0  0  0  0  0  0  0  0  0  0  0  0
   33.6727   17.3443  -10.6824 N   0  0  0  0  0  0  0  0  0  0  0  0
   31.7182   18.5682   -8.5387 H   0  0  0  0  0  0  0  0  0  0  0  0
   34.5282   17.4313  -10.2030 H   0  0  0  0  0  0  0  0  0  0  0  0
   33.6537   16.9647  -11.5906 H   0  0  0  0  0  0  0  0  0  0  0  0
 15 14  2  0  0  0
 15 16  1  0  0  0
 14 13  1  0  0  0
 16 11  2  0  0  0
 13 17  2  0  0  0
 11 17  1  0  0  0
 11 12  1  0  0  0
 17 18  1  0  0  0
 12 10  2  0  0  0
 18 10  1  0  0  0
 22 23  1  0  0  0
 22 21  1  0  0  0
 10  7  1  0  0  0
 23 25  1  0  0  0
 25 19  1  0  0  0
 21 24  1  0  0  0
  7  5  2  0  0  0
  7  1  1  0  0  0
 24 20  1  0  0  0
 24  1  1  0  0  0
 20 19  1  0  0  0
  5  4  1  0  0  0
  1  3  2  0  0  0
 31 30  2  0  0  0
 28 30  1  0  0  0
 28 26  1  0  0  0
 30 32  1  0  0  0
  4 26  1  0  0  0
  4  2  2  0  0  0
  3  2  1  0  0  0
 26 27  2  0  0  0
  2  6  1  0  0  0
 28 29  1  0  0  0
 31 33  1  0  0  0
 32 34  1  0  0  0
 32 35  1  0  0  0
  6  8  1  0  0  0
  6  9  1  0  0  0
M  END
> <minimizedAffinity>
-8.77883

$$$$
5ZA9_50I_U_301


 35 38  0  0  0  0  0  0  0  0999 V2000
   24.3763   16.6930  -12.2611 C   0  0  0  0  0  0  0  0  0  0  0  0
   22.4205   15.5119  -11.7627 C   0  0  0  0  0  0  0  0  0  0  0  0
   23.0542   16.4897  -12.4439 N   0  0  0  0  0  0  0  0  0  0  0  0
   23.1270   14.7166  -10.8779 C   0  0  0  0  0  0  0  0  0  0  0  0
   24.4491   14.9198  -10.6951 N   0  0  0  0  0  0  0  0  0  0  0  0
   21.0945   15.3079  -11.9465 N   0  0  0  0  0  0  0  0  0  0  0  0
   25.0823   15.8979  -11.3755 C   0  0  0  0  0  0  0  0  0  0  0  0
   20.6327   14.5945  -11.4494 H   0  0  0  0  0  0  0  0  0  0  0  0
   20.5922   15.8728  -12.5772 H   0  0  0  0  0  0  0  0  0  0  0  0
   26.5420   16.1225  -11.1731 C   0  0  0  0  0  0  0  0  0  0  0  0
   28.5481   16.6770  -10.3386 C   0  0  0  0  0  0  0  0  0  0  0  0
   27.1431   16.6840  -10.0304 C   0  0  0  0  0  0  0  0  0  0  0  0
   29.9674   15.9944  -12.1700 C   0  0  0  0  0  0  0  0  0  0  0  0
   31.0735   16.4200  -11.4393 C   0  0  0  0  0  0  0  0  0  0  0  0
   30.9108   16.9699  -10.1676 C   0  0  0  0  0  0  0  0  0  0  0  0
   29.6444   17.1053   -9.6026 C   0  0  0  0  0  0  0  0  0  0  0  0
   28.7217   16.1420  -11.5805 C   0  0  0  0  0  0  0  0  0  0  0  0
   27.5443   15.8136  -12.0747 O   0  0  0  0  0  0  0  0  0  0  0  0
   26.7651   18.0756  -14.5882 C   0  0  0  0  0  0  0  0  0  0  0  0
   25.3738   17.4875  -14.3685 C   0  0  0  0  0  0  0  0  0  0  0  0
   25.3508   18.9561  -12.2707 C   0  0  0  0  0  0  0  0  0  0  0  0
   25.0799   20.0952  -13.2475 C   0  0  0  0  0  0  0  0  0  0  0  0
   26.3547   20.4868  -13.9857 C   0  0  0  0  0  0  0  0  0  0  0  0
   25.0326   17.7097  -12.9665 N   0  0  0  0  0  0  0  0  0  0  0  0
   26.6696   19.5055  -15.1101 C   0  0  0  0  0  0  0  0  0  0  0  0
   22.4241   13.6279  -10.1207 C   0  0  0  0  0  0  0  0  0  0  0  0
   21.9256   12.6997  -10.7373 O   0  0  0  0  0  0  0  0  0  0  0  0
   22.6454   13.6516   -8.6848 N   0  0  0  0  0  0  0  0  0  0  0  0
   22.9532   14.4751   -8.2417 H   0  0  0  0  0  0  0  0  0  0  0  0
   22.4412   12.6183   -8.0216 C   0  0  0  0  0  0  0  0  0  0  0  0
   23.3147   11.7746   -8.1431 N   0  0  0  0  0  0  0  0  0  0  0  0
   21.3389   12.3383   -7.2439 N   0  0  0  0  0  0  0  0  0  0  0  0
   24.1072   11.9626   -8.6961 H   0  0  0  0  0  0  0  0  0  0  0  0
   21.2826   11.4831   -6.7595 H   0  0  0  0  0  0  0  0  0  0  0  0
   20.6075   12.9934   -7.1727 H   0  0  0  0  0  0  0  0  0  0  0  0
 15 14  2  0  0  0
 15 16  1  0  0  0
 14 13  1  0  0  0
 16 11  2  0  0  0
 13 17  2  0  0  0
 11 17  1  0  0  0
 11 12  1  0  0  0
 17 18  1  0  0  0
 12 10  2  0  0  0
 18 10  1  0  0  0
 22 23  1  0  0  0
 22 21  1  0  0  0
 10  7  1  0  0  0
 23 25  1  0  0  0
 25 19  1  0  0  0
 21 24  1  0  0  0
  7  5  2  0  0  0
  7  1  1  0  0  0
 24 20  1  0  0  0
 24  1  1  0  0  0
 20 19  1  0  0  0
  5  4  1  0  0  0
  1  3  2  0  0  0
 31 30  2  0  0  0
 28 30  1  0  0  0
 28 26  1  0  0  0
 30 32  1  0  0  0
  4 26  1  0  0  0
  4  2  2  0  0  0
  3  2  1  0  0  0
 26 27  2  0  0  0
  2  6  1  0  0  0
 28 29  1  0  0  0
 31 33  1  0  0  0
 32 34  1  0  0  0
 32 35  1  0  0  0
  6  8  1  0  0  0
  6  9  1  0  0  0
M  END
> <minimizedAffinity>
-7.84033

$$$$
5ZA9_50I_U_301


 35 38  0  0  0  0  0  0  0  0999 V2000
   25.5722   17.8117  -12.8849 C   0  0  0  0  0  0  0  0  0  0  0  0
   26.5270   17.3200  -10.8076 C   0  0  0  0  0  0  0  0  0  0  0  0
   25.4601   17.6945  -11.5446 N   0  0  0  0  0  0  0  0  0  0  0  0
   27.7357   17.0545  -11.4268 C   0  0  0  0  0  0  0  0  0  0  0  0
   27.8478   17.1717  -12.7671 N   0  0  0  0  0  0  0  0  0  0  0  0
   26.4144   17.2019   -9.4634 N   0  0  0  0  0  0  0  0  0  0  0  0
   26.7814   17.5470  -13.5036 C   0  0  0  0  0  0  0  0  0  0  0  0
   27.1929   16.9287   -8.9262 H   0  0  0  0  0  0  0  0  0  0  0  0
   25.5539   17.3894   -9.0232 H   0  0  0  0  0  0  0  0  0  0  0  0
   26.9055   17.6769  -14.9833 C   0  0  0  0  0  0  0  0  0  0  0  0
   27.0353   17.2721  -17.1851 C   0  0  0  0  0  0  0  0  0  0  0  0
   26.8799   16.6195  -15.9127 C   0  0  0  0  0  0  0  0  0  0  0  0
   27.3002   19.5265  -18.0111 C   0  0  0  0  0  0  0  0  0  0  0  0
   27.3523   19.0196  -19.3067 C   0  0  0  0  0  0  0  0  0  0  0  0
   27.2464   17.6471  -19.5330 C   0  0  0  0  0  0  0  0  0  0  0  0
   27.0871   16.7568  -18.4731 C   0  0  0  0  0  0  0  0  0  0  0  0
   27.1407   18.6156  -16.9785 C   0  0  0  0  0  0  0  0  0  0  0  0
   27.0640   18.8583  -15.6849 O   0  0  0  0  0  0  0  0  0  0  0  0
   22.6861   19.8141  -13.7184 C   0  0  0  0  0  0  0  0  0  0  0  0
   24.1974   19.6275  -13.8231 C   0  0  0  0  0  0  0  0  0  0  0  0
   23.6194   17.1683  -14.2429 C   0  0  0  0  0  0  0  0  0  0  0  0
   23.2455   17.6454  -15.6420 C   0  0  0  0  0  0  0  0  0  0  0  0
   21.9023   18.3659  -15.6247 C   0  0  0  0  0  0  0  0  0  0  0  0
   24.4651   18.2030  -13.6486 N   0  0  0  0  0  0  0  0  0  0  0  0
   22.0431   19.7915  -15.1012 C   0  0  0  0  0  0  0  0  0  0  0  0
   28.9228   16.6365  -10.6089 C   0  0  0  0  0  0  0  0  0  0  0  0
   28.8573   15.6158   -9.9425 O   0  0  0  0  0  0  0  0  0  0  0  0
   30.1471   17.3593  -10.9088 N   0  0  0  0  0  0  0  0  0  0  0  0
   30.1117   18.2328  -11.3616 H   0  0  0  0  0  0  0  0  0  0  0  0
   31.2411   16.8610  -10.5864 C   0  0  0  0  0  0  0  0  0  0  0  0
   31.3725   16.6975   -9.3840 N   0  0  0  0  0  0  0  0  0  0  0  0
   32.2865   16.5454  -11.4265 N   0  0  0  0  0  0  0  0  0  0  0  0
   30.6328   16.9192   -8.7733 H   0  0  0  0  0  0  0  0  0  0  0  0
   33.1113   16.1524  -11.0598 H   0  0  0  0  0  0  0  0  0  0  0  0
   32.2087   16.7129  -12.3935 H   0  0  0  0  0  0  0  0  0  0  0  0
 15 14  2  0  0  0
 15 16  1  0  0  0
 14 13  1  0  0  0
 16 11  2  0  0  0
 13 17  2  0  0  0
 11 17  1  0  0  0
 11 12  1  0  0  0
 17 18  1  0  0  0
 12 10  2  0  0  0
 18 10  1  0  0  0
 22 23  1  0  0  0
 22 21  1  0  0  0
 10  7  1  0  0  0
 23 25  1  0  0  0
 25 19  1  0  0  0
 21 24  1  0  0  0
  7  5  2  0  0  0
  7  1  1  0  0  0
 24 20  1  0  0  0
 24  1  1  0  0  0
 20 19  1  0  0  0
  5  4  1  0  0  0
  1  3  2  0  0  0
 31 30  2  0  0  0
 28 30  1  0  0  0
 28 26  1  0  0  0
 30 32  1  0  0  0
  4 26  1  0  0  0
  4  2  2  0  0  0
  3  2  1  0  0  0
 26 27  2  0  0  0
  2  6  1  0  0  0
 28 29  1  0  0  0
 31 33  1  0  0  0
 32 34  1  0  0  0
 32 35  1  0  0  0
  6  8  1  0  0  0
  6  9  1  0  0  0
M  END
> <minimizedAffinity>
-7.71788

$$$$
5ZA9_50I_U_301


 35 38  0  0  0  0  0  0  0  0999 V2000
   25.2412   15.8640  -11.9055 C   0  0  0  0  0  0  0  0  0  0  0  0
   27.2279   17.0862  -11.7387 C   0  0  0  0  0  0  0  0  0  0  0  0
   26.1142   16.7533  -12.4247 N   0  0  0  0  0  0  0  0  0  0  0  0
   27.4737   16.5164  -10.5018 C   0  0  0  0  0  0  0  0  0  0  0  0
   26.6007   15.6271   -9.9827 N   0  0  0  0  0  0  0  0  0  0  0  0
   28.1032   17.9787  -12.2593 N   0  0  0  0  0  0  0  0  0  0  0  0
   25.4879   15.2938  -10.6690 C   0  0  0  0  0  0  0  0  0  0  0  0
   28.9154   18.2211  -11.7585 H   0  0  0  0  0  0  0  0  0  0  0  0
   27.9274   18.3851  -13.1386 H   0  0  0  0  0  0  0  0  0  0  0  0
   24.5244   14.3114  -10.0958 C   0  0  0  0  0  0  0  0  0  0  0  0
   23.4666   12.4374   -9.4653 C   0  0  0  0  0  0  0  0  0  0  0  0
   24.6345   12.9091  -10.1599 C   0  0  0  0  0  0  0  0  0  0  0  0
   21.5604   13.3932   -8.3307 C   0  0  0  0  0  0  0  0  0  0  0  0
   21.1066   12.1052   -8.0599 C   0  0  0  0  0  0  0  0  0  0  0  0
   21.8325   10.9951   -8.4921 C   0  0  0  0  0  0  0  0  0  0  0  0
   23.0220   11.1491   -9.2011 C   0  0  0  0  0  0  0  0  0  0  0  0
   22.7467   13.5132   -9.0374 C   0  0  0  0  0  0  0  0  0  0  0  0
   23.3658   14.6176   -9.4054 O   0  0  0  0  0  0  0  0  0  0  0  0
   23.3474   14.7762  -14.7802 C   0  0  0  0  0  0  0  0  0  0  0  0
   24.1400   14.3826  -13.5366 C   0  0  0  0  0  0  0  0  0  0  0  0
   22.8718   16.3056  -12.4177 C   0  0  0  0  0  0  0  0  0  0  0  0
   21.7030   15.3268  -12.3907 C   0  0  0  0  0  0  0  0  0  0  0  0
   21.0765   15.1971  -13.7743 C   0  0  0  0  0  0  0  0  0  0  0  0
   24.0870   15.5172  -12.6193 N   0  0  0  0  0  0  0  0  0  0  0  0
   21.9057   14.2893  -14.6770 C   0  0  0  0  0  0  0  0  0  0  0  0
   28.7110   16.8865   -9.7370 C   0  0  0  0  0  0  0  0  0  0  0  0
   28.6115   17.2126   -8.5649 O   0  0  0  0  0  0  0  0  0  0  0  0
   29.9568   16.5540  -10.4070 N   0  0  0  0  0  0  0  0  0  0  0  0
   29.9746   16.4042  -11.3799 H   0  0  0  0  0  0  0  0  0  0  0  0
   31.0011   16.4609   -9.7362 C   0  0  0  0  0  0  0  0  0  0  0  0
   30.9074   15.7065   -8.7814 N   0  0  0  0  0  0  0  0  0  0  0  0
   32.1787   17.1468   -9.9387 N   0  0  0  0  0  0  0  0  0  0  0  0
   30.0712   15.2107   -8.6259 H   0  0  0  0  0  0  0  0  0  0  0  0
   32.9467   16.9932   -9.3422 H   0  0  0  0  0  0  0  0  0  0  0  0
   32.2522   17.7906  -10.6799 H   0  0  0  0  0  0  0  0  0  0  0  0
 15 14  2  0  0  0
 15 16  1  0  0  0
 14 13  1  0  0  0
 16 11  2  0  0  0
 13 17  2  0  0  0
 11 17  1  0  0  0
 11 12  1  0  0  0
 17 18  1  0  0  0
 12 10  2  0  0  0
 18 10  1  0  0  0
 22 23  1  0  0  0
 22 21  1  0  0  0
 10  7  1  0  0  0
 23 25  1  0  0  0
 25 19  1  0  0  0
 21 24  1  0  0  0
  7  5  2  0  0  0
  7  1  1  0  0  0
 24 20  1  0  0  0
 24  1  1  0  0  0
 20 19  1  0  0  0
  5  4  1  0  0  0
  1  3  2  0  0  0
 31 30  2  0  0  0
 28 30  1  0  0  0
 28 26  1  0  0  0
 30 32  1  0  0  0
  4 26  1  0  0  0
  4  2  2  0  0  0
  3  2  1  0  0  0
 26 27  2  0  0  0
  2  6  1  0  0  0
 28 29  1  0  0  0
 31 33  1  0  0  0
 32 34  1  0  0  0
 32 35  1  0  0  0
  6  8  1  0  0  0
  6  9  1  0  0  0
M  END
> <minimizedAffinity>
-7.67679

$$$$
5ZA9_50I_U_301


 35 38  0  0  0  0  0  0  0  0999 V2000
   26.2627   17.0807  -13.8808 C   0  0  0  0  0  0  0  0  0  0  0  0
   26.4925   17.8451  -11.6828 C   0  0  0  0  0  0  0  0  0  0  0  0
   25.8281   17.8467  -12.8576 N   0  0  0  0  0  0  0  0  0  0  0  0
   27.6187   17.0564  -11.5269 C   0  0  0  0  0  0  0  0  0  0  0  0
   28.0533   16.2903  -12.5501 N   0  0  0  0  0  0  0  0  0  0  0  0
   26.0562   18.6131  -10.6564 N   0  0  0  0  0  0  0  0  0  0  0  0
   27.3895   16.2927  -13.7248 C   0  0  0  0  0  0  0  0  0  0  0  0
   26.5412   18.6116   -9.7997 H   0  0  0  0  0  0  0  0  0  0  0  0
   25.2540   19.1731  -10.7670 H   0  0  0  0  0  0  0  0  0  0  0  0
   27.8699   15.4472  -14.8546 C   0  0  0  0  0  0  0  0  0  0  0  0
   28.9094   14.6719  -16.6839 C   0  0  0  0  0  0  0  0  0  0  0  0
   28.7896   15.8358  -15.8473 C   0  0  0  0  0  0  0  0  0  0  0  0
   27.9955   12.4376  -16.7705 C   0  0  0  0  0  0  0  0  0  0  0  0
   28.7530   12.1984  -17.9139 C   0  0  0  0  0  0  0  0  0  0  0  0
   29.5807   13.1937  -18.4338 C   0  0  0  0  0  0  0  0  0  0  0  0
   29.6678   14.4435  -17.8241 C   0  0  0  0  0  0  0  0  0  0  0  0
   28.1042   13.6902  -16.1871 C   0  0  0  0  0  0  0  0  0  0  0  0
   27.4915   14.1417  -15.1105 O   0  0  0  0  0  0  0  0  0  0  0  0
   24.7002   15.6166  -16.7874 C   0  0  0  0  0  0  0  0  0  0  0  0
   24.5532   16.0684  -15.3369 C   0  0  0  0  0  0  0  0  0  0  0  0
   25.9043   18.1089  -16.0912 C   0  0  0  0  0  0  0  0  0  0  0  0
   24.5910   18.5661  -16.7166 C   0  0  0  0  0  0  0  0  0  0  0  0
   24.3052   17.7904  -17.9974 C   0  0  0  0  0  0  0  0  0  0  0  0
   25.5740   17.0849  -15.1005 N   0  0  0  0  0  0  0  0  0  0  0  0
   23.7566   16.3999  -17.6943 C   0  0  0  0  0  0  0  0  0  0  0  0
   28.3579   17.0523  -10.2207 C   0  0  0  0  0  0  0  0  0  0  0  0
   27.7749   16.7005   -9.2075 O   0  0  0  0  0  0  0  0  0  0  0  0
   29.7969   17.2143  -10.3410 N   0  0  0  0  0  0  0  0  0  0  0  0
   30.1879   17.6038  -11.1562 H   0  0  0  0  0  0  0  0  0  0  0  0
   30.5292   16.8547   -9.4010 C   0  0  0  0  0  0  0  0  0  0  0  0
   31.4476   17.6246   -9.1699 N   0  0  0  0  0  0  0  0  0  0  0  0
   30.4279   15.6901   -8.6716 N   0  0  0  0  0  0  0  0  0  0  0  0
   31.5309   18.4599   -9.6842 H   0  0  0  0  0  0  0  0  0  0  0  0
   31.0663   15.5074   -7.9448 H   0  0  0  0  0  0  0  0  0  0  0  0
   29.7171   15.0408   -8.8773 H   0  0  0  0  0  0  0  0  0  0  0  0
 15 14  2  0  0  0
 15 16  1  0  0  0
 14 13  1  0  0  0
 16 11  2  0  0  0
 13 17  2  0  0  0
 11 17  1  0  0  0
 11 12  1  0  0  0
 17 18  1  0  0  0
 12 10  2  0  0  0
 18 10  1  0  0  0
 22 23  1  0  0  0
 22 21  1  0  0  0
 10  7  1  0  0  0
 23 25  1  0  0  0
 25 19  1  0  0  0
 21 24  1  0  0  0
  7  5  2  0  0  0
  7  1  1  0  0  0
 24 20  1  0  0  0
 24  1  1  0  0  0
 20 19  1  0  0  0
  5  4  1  0  0  0
  1  3  2  0  0  0
 31 30  2  0  0  0
 28 30  1  0  0  0
 28 26  1  0  0  0
 30 32  1  0  0  0
  4 26  1  0  0  0
  4  2  2  0  0  0
  3  2  1  0  0  0
 26 27  2  0  0  0
  2  6  1  0  0  0
 28 29  1  0  0  0
 31 33  1  0  0  0
 32 34  1  0  0  0
 32 35  1  0  0  0
  6  8  1  0  0  0
  6  9  1  0  0  0
M  END
> <minimizedAffinity>
-7.33657

$$$$
5ZA9_50I_U_301


 35 38  0  0  0  0  0  0  0  0999 V2000
   24.1202   16.2750  -11.4363 C   0  0  0  0  0  0  0  0  0  0  0  0
   26.0552   17.5868  -11.3774 C   0  0  0  0  0  0  0  0  0  0  0  0
   24.8028   17.3705  -11.8318 N   0  0  0  0  0  0  0  0  0  0  0  0
   26.6387   16.6856  -10.5043 C   0  0  0  0  0  0  0  0  0  0  0  0
   25.9561   15.5901  -10.1088 N   0  0  0  0  0  0  0  0  0  0  0  0
   26.7396   18.6859  -11.7738 N   0  0  0  0  0  0  0  0  0  0  0  0
   24.7045   15.3736  -10.5639 C   0  0  0  0  0  0  0  0  0  0  0  0
   27.6531   18.8432  -11.4421 H   0  0  0  0  0  0  0  0  0  0  0  0
   26.3237   19.3277  -12.3938 H   0  0  0  0  0  0  0  0  0  0  0  0
   23.9511   14.1637  -10.1274 C   0  0  0  0  0  0  0  0  0  0  0  0
   22.6891   12.6944   -8.9973 C   0  0  0  0  0  0  0  0  0  0  0  0
   23.2100   14.0339   -8.9373 C   0  0  0  0  0  0  0  0  0  0  0  0
   22.7798   10.8131  -10.5096 C   0  0  0  0  0  0  0  0  0  0  0  0
   21.9741   10.0972   -9.6284 C   0  0  0  0  0  0  0  0  0  0  0  0
   21.5327   10.6817   -8.4411 C   0  0  0  0  0  0  0  0  0  0  0  0
   21.8863   11.9885   -8.1116 C   0  0  0  0  0  0  0  0  0  0  0  0
   23.1138   12.1104  -10.1538 C   0  0  0  0  0  0  0  0  0  0  0  0
   23.8557   12.9714  -10.8220 O   0  0  0  0  0  0  0  0  0  0  0  0
   20.6041   15.4999  -11.1715 C   0  0  0  0  0  0  0  0  0  0  0  0
   21.6921   16.5701  -11.1454 C   0  0  0  0  0  0  0  0  0  0  0  0
   22.6467   15.3023  -13.1552 C   0  0  0  0  0  0  0  0  0  0  0  0
   21.5274   15.9850  -13.9335 C   0  0  0  0  0  0  0  0  0  0  0  0
   20.1875   15.3161  -13.6490 C   0  0  0  0  0  0  0  0  0  0  0  0
   22.8215   16.0500  -11.9104 N   0  0  0  0  0  0  0  0  0  0  0  0
   19.6184   15.7609  -12.3057 C   0  0  0  0  0  0  0  0  0  0  0  0
   28.0308   16.9254   -9.9970 C   0  0  0  0  0  0  0  0  0  0  0  0
   28.2458   16.8659   -8.7968 O   0  0  0  0  0  0  0  0  0  0  0  0
   29.0548   16.9393  -11.0277 N   0  0  0  0  0  0  0  0  0  0  0  0
   28.8122   17.0966  -11.9688 H   0  0  0  0  0  0  0  0  0  0  0  0
   30.2424   16.7499  -10.7066 C   0  0  0  0  0  0  0  0  0  0  0  0
   31.0465   17.1892  -11.5129 N   0  0  0  0  0  0  0  0  0  0  0  0
   30.7022   16.0707   -9.5996 N   0  0  0  0  0  0  0  0  0  0  0  0
   30.7304   17.6763  -12.3079 H   0  0  0  0  0  0  0  0  0  0  0  0
   31.6702   15.9816   -9.4437 H   0  0  0  0  0  0  0  0  0  0  0  0
   30.0628   15.6744   -8.9645 H   0  0  0  0  0  0  0  0  0  0  0  0
 15 14  2  0  0  0
 15 16  1  0  0  0
 14 13  1  0  0  0
 16 11  2  0  0  0
 13 17  2  0  0  0
 11 17  1  0  0  0
 11 12  1  0  0  0
 17 18  1  0  0  0
 12 10  2  0  0  0
 18 10  1  0  0  0
 22 23  1  0  0  0
 22 21  1  0  0  0
 10  7  1  0  0  0
 23 25  1  0  0  0
 25 19  1  0  0  0
 21 24  1  0  0  0
  7  5  2  0  0  0
  7  1  1  0  0  0
 24 20  1  0  0  0
 24  1  1  0  0  0
 20 19  1  0  0  0
  5  4  1  0  0  0
  1  3  2  0  0  0
 31 30  2  0  0  0
 28 30  1  0  0  0
 28 26  1  0  0  0
 30 32  1  0  0  0
  4 26  1  0  0  0
  4  2  2  0  0  0
  3  2  1  0  0  0
 26 27  2  0  0  0
  2  6  1  0  0  0
 28 29  1  0  0  0
 31 33  1  0  0  0
 32 34  1  0  0  0
 32 35  1  0  0  0
  6  8  1  0  0  0
  6  9  1  0  0  0
M  END
> <minimizedAffinity>
-7.16669

$$$$
