1TTM_667_A_264


 23 25  0  0  0  0  0  0  0  0999 V2000
   20.6224   28.9652   19.1941 C   0  0  0  0  0  0  0  0  0  0  0  0
   20.1738   29.6862   20.2968 C   0  0  0  0  0  0  0  0  0  0  0  0
   20.2339   31.1206   20.2878 C   0  0  0  0  0  0  0  0  0  0  0  0
   20.7648   31.8233   19.1264 C   0  0  0  0  0  0  0  0  0  0  0  0
   21.2243   31.0453   17.9692 C   0  0  0  0  0  0  0  0  0  0  0  0
   21.1596   29.6139   18.0046 C   0  0  0  0  0  0  0  0  0  0  0  0
   20.8469   33.3960   19.0822 C   0  0  0  0  0  0  0  0  0  0  0  0
   21.3526   34.0259   17.9454 C   0  0  0  0  0  0  0  0  0  0  0  0
   21.8247   33.1603   16.7404 C   0  0  0  0  0  0  0  0  0  0  0  0
   20.3647   34.2282   20.3163 C   0  0  0  0  0  0  0  0  0  0  0  0
   21.4705   35.6043   17.8024 C   0  0  0  0  0  0  0  0  0  0  0  0
   22.2652   33.7105   15.7453 O   0  0  0  0  0  0  0  0  0  0  0  0
   21.7761   31.5002   16.7172 O   0  0  0  0  0  0  0  0  0  0  0  0
   20.3381   36.4826   18.4575 C   0  0  0  0  0  0  0  0  0  0  0  0
   18.9961   35.7490   18.7460 C   0  0  0  0  0  0  0  0  0  0  0  0
   19.0228   34.9394   20.0692 C   0  0  0  0  0  0  0  0  0  0  0  0
   20.5640   27.5976   19.2184 O   0  0  0  0  0  0  0  0  0  0  0  0
   21.5784   26.6920   19.0426 S   0  0  0  0  0  0  0  0  0  0  0  0
   21.1269   25.4251   19.9781 O   0  0  0  0  0  0  0  0  0  0  0  0
   21.5546   26.3394   17.4532 O   0  0  0  0  0  0  0  0  0  0  0  0
   22.9628   27.4365   19.6008 N   0  0  0  0  0  0  0  0  0  0  0  0
   23.7558   26.8040   19.4937 H   0  0  0  0  0  0  0  0  0  0  0  0
   22.8477   27.6737   20.5861 H   0  0  0  0  0  0  0  0  0  0  0  0
 18 19  2  0  0  0
 18 20  2  0  0  0
 18 17  1  0  0  0
 18 21  1  0  0  0
 17  1  1  0  0  0
  1  2  2  0  0  0
  1  6  1  0  0  0
  2  3  1  0  0  0
  3  4  2  0  0  0
  4  5  1  0  0  0
  4  7  1  0  0  0
  5  6  2  0  0  0
  5 13  1  0  0  0
  7  8  2  0  0  0
  7 10  1  0  0  0
  8  9  1  0  0  0
  8 11  1  0  0  0
  9 12  2  0  0  0
  9 13  1  0  0  0
 10 16  1  0  0  0
 11 14  1  0  0  0
 14 15  1  0  0  0
 15 16  1  0  0  0
 21 22  1  0  0  0
 21 23  1  0  0  0
M  END
> <minimizedAffinity>
-8.06036

$$$$
1TTM_667_A_264


 23 25  0  0  0  0  0  0  0  0999 V2000
   21.0267   29.5370   19.9131 C   0  0  0  0  0  0  0  0  0  0  0  0
   19.7783   30.1414   19.7970 C   0  0  0  0  0  0  0  0  0  0  0  0
   19.6609   31.5686   19.8985 C   0  0  0  0  0  0  0  0  0  0  0  0
   20.8465   32.3860   20.1239 C   0  0  0  0  0  0  0  0  0  0  0  0
   22.1556   31.7306   20.2342 C   0  0  0  0  0  0  0  0  0  0  0  0
   22.2462   30.3036   20.1353 C   0  0  0  0  0  0  0  0  0  0  0  0
   20.7550   33.9544   20.2416 C   0  0  0  0  0  0  0  0  0  0  0  0
   21.9175   34.6969   20.4470 C   0  0  0  0  0  0  0  0  0  0  0  0
   23.2845   33.9593   20.5539 C   0  0  0  0  0  0  0  0  0  0  0  0
   19.3608   34.6558   20.1317 C   0  0  0  0  0  0  0  0  0  0  0  0
   21.9297   36.2811   20.5732 C   0  0  0  0  0  0  0  0  0  0  0  0
   24.3016   34.6081   20.7315 O   0  0  0  0  0  0  0  0  0  0  0  0
   23.4582   32.3108   20.4477 O   0  0  0  0  0  0  0  0  0  0  0  0
   20.9118   37.0914   19.6843 C   0  0  0  0  0  0  0  0  0  0  0  0
   20.3487   36.3377   18.4444 C   0  0  0  0  0  0  0  0  0  0  0  0
   19.1680   35.3947   18.7958 C   0  0  0  0  0  0  0  0  0  0  0  0
   21.1232   28.1746   19.8194 O   0  0  0  0  0  0  0  0  0  0  0  0
   21.7802   27.4235   18.8790 S   0  0  0  0  0  0  0  0  0  0  0  0
   21.8010   28.3946   17.5597 O   0  0  0  0  0  0  0  0  0  0  0  0
   23.2644   27.1774   19.5015 O   0  0  0  0  0  0  0  0  0  0  0  0
   20.8524   26.0561   18.6508 N   0  0  0  0  0  0  0  0  0  0  0  0
   21.2966   25.4559   17.9559 H   0  0  0  0  0  0  0  0  0  0  0  0
   19.9245   26.3255   18.3241 H   0  0  0  0  0  0  0  0  0  0  0  0
 18 19  2  0  0  0
 18 20  2  0  0  0
 18 17  1  0  0  0
 18 21  1  0  0  0
 17  1  1  0  0  0
  1  2  2  0  0  0
  1  6  1  0  0  0
  2  3  1  0  0  0
  3  4  2  0  0  0
  4  5  1  0  0  0
  4  7  1  0  0  0
  5  6  2  0  0  0
  5 13  1  0  0  0
  7  8  2  0  0  0
  7 10  1  0  0  0
  8  9  1  0  0  0
  8 11  1  0  0  0
  9 12  2  0  0  0
  9 13  1  0  0  0
 10 16  1  0  0  0
 11 14  1  0  0  0
 14 15  1  0  0  0
 15 16  1  0  0  0
 21 22  1  0  0  0
 21 23  1  0  0  0
M  END
> <minimizedAffinity>
-7.51570

$$$$
1TTM_667_A_264


 23 25  0  0  0  0  0  0  0  0999 V2000
   21.1561   28.2049   19.2873 C   0  0  0  0  0  0  0  0  0  0  0  0
   22.5074   28.3046   19.6053 C   0  0  0  0  0  0  0  0  0  0  0  0
   23.0719   29.5807   19.9428 C   0  0  0  0  0  0  0  0  0  0  0  0
   22.2327   30.7725   19.9522 C   0  0  0  0  0  0  0  0  0  0  0  0
   20.8076   30.6452   19.6232 C   0  0  0  0  0  0  0  0  0  0  0  0
   20.2688   29.3612   19.2837 C   0  0  0  0  0  0  0  0  0  0  0  0
   22.8184   32.1889   20.3165 C   0  0  0  0  0  0  0  0  0  0  0  0
   21.9755   33.2999   20.3228 C   0  0  0  0  0  0  0  0  0  0  0  0
   20.4699   33.1168   19.9710 C   0  0  0  0  0  0  0  0  0  0  0  0
   24.3382   32.3296   20.6607 C   0  0  0  0  0  0  0  0  0  0  0  0
   22.4692   34.7673   20.6818 C   0  0  0  0  0  0  0  0  0  0  0  0
   19.7319   34.0875   19.9783 O   0  0  0  0  0  0  0  0  0  0  0  0
   19.7833   31.6585   19.5698 O   0  0  0  0  0  0  0  0  0  0  0  0
   23.5760   34.9128   21.7939 C   0  0  0  0  0  0  0  0  0  0  0  0
   23.7280   33.7007   22.7583 C   0  0  0  0  0  0  0  0  0  0  0  0
   24.5916   32.5585   22.1611 C   0  0  0  0  0  0  0  0  0  0  0  0
   20.6322   26.9825   18.9624 O   0  0  0  0  0  0  0  0  0  0  0  0
   19.9212   26.1160   19.7523 S   0  0  0  0  0  0  0  0  0  0  0  0
   20.2924   24.6441   19.1362 O   0  0  0  0  0  0  0  0  0  0  0  0
   20.5124   26.3363   21.2533 O   0  0  0  0  0  0  0  0  0  0  0  0
   18.3146   26.5107   19.5393 N   0  0  0  0  0  0  0  0  0  0  0  0
   17.7346   25.8934   20.1076 H   0  0  0  0  0  0  0  0  0  0  0  0
   18.0652   26.4018   18.5563 H   0  0  0  0  0  0  0  0  0  0  0  0
 18 19  2  0  0  0
 18 20  2  0  0  0
 18 17  1  0  0  0
 18 21  1  0  0  0
 17  1  1  0  0  0
  1  2  2  0  0  0
  1  6  1  0  0  0
  2  3  1  0  0  0
  3  4  2  0  0  0
  4  5  1  0  0  0
  4  7  1  0  0  0
  5  6  2  0  0  0
  5 13  1  0  0  0
  7  8  2  0  0  0
  7 10  1  0  0  0
  8  9  1  0  0  0
  8 11  1  0  0  0
  9 12  2  0  0  0
  9 13  1  0  0  0
 10 16  1  0  0  0
 11 14  1  0  0  0
 14 15  1  0  0  0
 15 16  1  0  0  0
 21 22  1  0  0  0
 21 23  1  0  0  0
M  END
> <minimizedAffinity>
-7.25593

$$$$
1TTM_667_A_264


 23 25  0  0  0  0  0  0  0  0999 V2000
   22.3101   30.2253   18.7210 C   0  0  0  0  0  0  0  0  0  0  0  0
   21.9283   30.8335   19.9133 C   0  0  0  0  0  0  0  0  0  0  0  0
   21.5354   32.2143   19.9196 C   0  0  0  0  0  0  0  0  0  0  0  0
   21.5365   32.9809   18.6799 C   0  0  0  0  0  0  0  0  0  0  0  0
   21.9334   32.3190   17.4310 C   0  0  0  0  0  0  0  0  0  0  0  0
   22.3273   30.9410   17.4515 C   0  0  0  0  0  0  0  0  0  0  0  0
   21.1126   34.4980   18.6496 C   0  0  0  0  0  0  0  0  0  0  0  0
   21.1189   35.1890   17.4383 C   0  0  0  0  0  0  0  0  0  0  0  0
   21.5435   34.4451   16.1382 C   0  0  0  0  0  0  0  0  0  0  0  0
   20.6958   35.2088   19.9797 C   0  0  0  0  0  0  0  0  0  0  0  0
   20.7033   36.7171   17.3037 C   0  0  0  0  0  0  0  0  0  0  0  0
   21.5474   35.0482   15.0784 O   0  0  0  0  0  0  0  0  0  0  0  0
   22.0099   32.8515   16.0933 O   0  0  0  0  0  0  0  0  0  0  0  0
   19.5385   37.2402   18.2270 C   0  0  0  0  0  0  0  0  0  0  0  0
   18.5969   36.1473   18.8112 C   0  0  0  0  0  0  0  0  0  0  0  0
   19.1804   35.4591   20.0732 C   0  0  0  0  0  0  0  0  0  0  0  0
   22.6874   28.9093   18.7306 O   0  0  0  0  0  0  0  0  0  0  0  0
   21.9090   27.7922   18.5679 S   0  0  0  0  0  0  0  0  0  0  0  0
   21.7532   27.6676   16.9418 O   0  0  0  0  0  0  0  0  0  0  0  0
   22.7810   26.5767   19.2106 O   0  0  0  0  0  0  0  0  0  0  0  0
   20.4602   28.1257   19.3244 N   0  0  0  0  0  0  0  0  0  0  0  0
   19.8371   27.3232   19.2346 H   0  0  0  0  0  0  0  0  0  0  0  0
   20.0292   28.9413   18.8892 H   0  0  0  0  0  0  0  0  0  0  0  0
 18 19  2  0  0  0
 18 20  2  0  0  0
 18 17  1  0  0  0
 18 21  1  0  0  0
 17  1  1  0  0  0
  1  2  2  0  0  0
  1  6  1  0  0  0
  2  3  1  0  0  0
  3  4  2  0  0  0
  4  5  1  0  0  0
  4  7  1  0  0  0
  5  6  2  0  0  0
  5 13  1  0  0  0
  7  8  2  0  0  0
  7 10  1  0  0  0
  8  9  1  0  0  0
  8 11  1  0  0  0
  9 12  2  0  0  0
  9 13  1  0  0  0
 10 16  1  0  0  0
 11 14  1  0  0  0
 14 15  1  0  0  0
 15 16  1  0  0  0
 21 22  1  0  0  0
 21 23  1  0  0  0
M  END
> <minimizedAffinity>
-6.89277

$$$$
1TTM_667_A_264


 23 25  0  0  0  0  0  0  0  0999 V2000
   21.4140   29.2825   19.0254 C   0  0  0  0  0  0  0  0  0  0  0  0
   21.1482   30.0423   20.1607 C   0  0  0  0  0  0  0  0  0  0  0  0
   21.6371   31.3890   20.2524 C   0  0  0  0  0  0  0  0  0  0  0  0
   22.4124   31.9619   19.1591 C   0  0  0  0  0  0  0  0  0  0  0  0
   22.6742   31.1476   17.9658 C   0  0  0  0  0  0  0  0  0  0  0  0
   22.1804   29.8037   17.9005 C   0  0  0  0  0  0  0  0  0  0  0  0
   22.9656   33.4355   19.2259 C   0  0  0  0  0  0  0  0  0  0  0  0
   23.6937   33.9453   18.1513 C   0  0  0  0  0  0  0  0  0  0  0  0
   23.9436   33.0466   16.9047 C   0  0  0  0  0  0  0  0  0  0  0  0
   22.6947   34.3038   20.4989 C   0  0  0  0  0  0  0  0  0  0  0  0
   24.2878   35.4191   18.1210 C   0  0  0  0  0  0  0  0  0  0  0  0
   24.5785   33.4924   15.9639 O   0  0  0  0  0  0  0  0  0  0  0  0
   23.3994   31.4834   16.7657 O   0  0  0  0  0  0  0  0  0  0  0  0
   23.4404   36.5610   18.7998 C   0  0  0  0  0  0  0  0  0  0  0  0
   21.9272   36.2540   18.9956 C   0  0  0  0  0  0  0  0  0  0  0  0
   21.6428   35.4012   20.2600 C   0  0  0  0  0  0  0  0  0  0  0  0
   20.9460   27.9979   18.9536 O   0  0  0  0  0  0  0  0  0  0  0  0
   21.6416   26.8228   19.0778 S   0  0  0  0  0  0  0  0  0  0  0  0
   21.5843   26.1830   17.5707 O   0  0  0  0  0  0  0  0  0  0  0  0
   23.1452   27.2701   19.5139 O   0  0  0  0  0  0  0  0  0  0  0  0
   20.8042   25.9071   20.1925 N   0  0  0  0  0  0  0  0  0  0  0  0
   21.2800   25.0147   20.3256 H   0  0  0  0  0  0  0  0  0  0  0  0
   19.8571   25.7401   19.8526 H   0  0  0  0  0  0  0  0  0  0  0  0
 18 19  2  0  0  0
 18 20  2  0  0  0
 18 17  1  0  0  0
 18 21  1  0  0  0
 17  1  1  0  0  0
  1  2  2  0  0  0
  1  6  1  0  0  0
  2  3  1  0  0  0
  3  4  2  0  0  0
  4  5  1  0  0  0
  4  7  1  0  0  0
  5  6  2  0  0  0
  5 13  1  0  0  0
  7  8  2  0  0  0
  7 10  1  0  0  0
  8  9  1  0  0  0
  8 11  1  0  0  0
  9 12  2  0  0  0
  9 13  1  0  0  0
 10 16  1  0  0  0
 11 14  1  0  0  0
 14 15  1  0  0  0
 15 16  1  0  0  0
 21 22  1  0  0  0
 21 23  1  0  0  0
M  END
> <minimizedAffinity>
-6.85792

$$$$
1TTM_667_A_264


 23 25  0  0  0  0  0  0  0  0999 V2000
   21.3972   29.5242   19.6889 C   0  0  0  0  0  0  0  0  0  0  0  0
   22.7022   30.0021   19.6132 C   0  0  0  0  0  0  0  0  0  0  0  0
   22.9476   31.4166   19.6018 C   0  0  0  0  0  0  0  0  0  0  0  0
   21.8327   32.3532   19.6685 C   0  0  0  0  0  0  0  0  0  0  0  0
   20.4641   31.8294   19.7575 C   0  0  0  0  0  0  0  0  0  0  0  0
   20.2444   30.4131   19.7612 C   0  0  0  0  0  0  0  0  0  0  0  0
   22.0647   33.9114   19.6571 C   0  0  0  0  0  0  0  0  0  0  0  0
   20.9682   34.7698   19.7332 C   0  0  0  0  0  0  0  0  0  0  0  0
   19.5351   34.1693   19.8302 C   0  0  0  0  0  0  0  0  0  0  0  0
   23.5214   34.4734   19.5551 C   0  0  0  0  0  0  0  0  0  0  0  0
   21.0989   36.3537   19.7344 C   0  0  0  0  0  0  0  0  0  0  0  0
   18.5760   34.9193   19.8988 O   0  0  0  0  0  0  0  0  0  0  0  0
   19.2123   32.5399   19.8396 O   0  0  0  0  0  0  0  0  0  0  0  0
   22.3397   36.9826   20.4745 C   0  0  0  0  0  0  0  0  0  0  0  0
   23.0357   36.0675   21.5236 C   0  0  0  0  0  0  0  0  0  0  0  0
   24.0284   35.0618   20.8835 C   0  0  0  0  0  0  0  0  0  0  0  0
   21.1774   28.1728   19.6937 O   0  0  0  0  0  0  0  0  0  0  0  0
   21.6954   27.2162   18.8591 S   0  0  0  0  0  0  0  0  0  0  0  0
   21.7281   27.9589   17.3992 O   0  0  0  0  0  0  0  0  0  0  0  0
   23.1846   26.9124   19.4430 O   0  0  0  0  0  0  0  0  0  0  0  0
   20.6240   25.9383   18.9015 N   0  0  0  0  0  0  0  0  0  0  0  0
   20.9613   25.1916   18.2941 H   0  0  0  0  0  0  0  0  0  0  0  0
   19.7084   26.2515   18.5792 H   0  0  0  0  0  0  0  0  0  0  0  0
 18 19  2  0  0  0
 18 20  2  0  0  0
 18 17  1  0  0  0
 18 21  1  0  0  0
 17  1  1  0  0  0
  1  2  2  0  0  0
  1  6  1  0  0  0
  2  3  1  0  0  0
  3  4  2  0  0  0
  4  5  1  0  0  0
  4  7  1  0  0  0
  5  6  2  0  0  0
  5 13  1  0  0  0
  7  8  2  0  0  0
  7 10  1  0  0  0
  8  9  1  0  0  0
  8 11  1  0  0  0
  9 12  2  0  0  0
  9 13  1  0  0  0
 10 16  1  0  0  0
 11 14  1  0  0  0
 14 15  1  0  0  0
 15 16  1  0  0  0
 21 22  1  0  0  0
 21 23  1  0  0  0
M  END
> <minimizedAffinity>
-6.73159

$$$$
1TTM_667_A_264


 23 25  0  0  0  0  0  0  0  0999 V2000
   22.1788   29.3649   18.5341 C   0  0  0  0  0  0  0  0  0  0  0  0
   22.5904   29.7759   17.2697 C   0  0  0  0  0  0  0  0  0  0  0  0
   23.4403   30.9246   17.1310 C   0  0  0  0  0  0  0  0  0  0  0  0
   23.8722   31.6620   18.3119 C   0  0  0  0  0  0  0  0  0  0  0  0
   23.4350   31.2071   19.6375 C   0  0  0  0  0  0  0  0  0  0  0  0
   22.5818   30.0609   19.7496 C   0  0  0  0  0  0  0  0  0  0  0  0
   24.8036   32.9274   18.1973 C   0  0  0  0  0  0  0  0  0  0  0  0
   25.2003   33.5956   19.3554 C   0  0  0  0  0  0  0  0  0  0  0  0
   24.7153   33.0749   20.7402 C   0  0  0  0  0  0  0  0  0  0  0  0
   25.2658   33.4194   16.7858 C   0  0  0  0  0  0  0  0  0  0  0  0
   26.1417   34.8761   19.3445 C   0  0  0  0  0  0  0  0  0  0  0  0
   25.0634   33.6575   21.7533 O   0  0  0  0  0  0  0  0  0  0  0  0
   23.7274   31.7544   20.9390 O   0  0  0  0  0  0  0  0  0  0  0  0
   27.2841   34.9322   18.2608 C   0  0  0  0  0  0  0  0  0  0  0  0
   27.6948   33.5651   17.6406 C   0  0  0  0  0  0  0  0  0  0  0  0
   26.7459   33.1097   16.5008 C   0  0  0  0  0  0  0  0  0  0  0  0
   21.3642   28.2708   18.6511 O   0  0  0  0  0  0  0  0  0  0  0  0
   21.6860   27.0004   19.0545 S   0  0  0  0  0  0  0  0  0  0  0  0
   21.4872   26.1057   17.6966 O   0  0  0  0  0  0  0  0  0  0  0  0
   23.2422   27.0918   19.5247 O   0  0  0  0  0  0  0  0  0  0  0  0
   20.5891   26.6036   20.2469 N   0  0  0  0  0  0  0  0  0  0  0  0
   20.7823   25.6614   20.5867 H   0  0  0  0  0  0  0  0  0  0  0  0
   19.6439   26.6403   19.8653 H   0  0  0  0  0  0  0  0  0  0  0  0
 18 19  2  0  0  0
 18 20  2  0  0  0
 18 17  1  0  0  0
 18 21  1  0  0  0
 17  1  1  0  0  0
  1  2  2  0  0  0
  1  6  1  0  0  0
  2  3  1  0  0  0
  3  4  2  0  0  0
  4  5  1  0  0  0
  4  7  1  0  0  0
  5  6  2  0  0  0
  5 13  1  0  0  0
  7  8  2  0  0  0
  7 10  1  0  0  0
  8  9  1  0  0  0
  8 11  1  0  0  0
  9 12  2  0  0  0
  9 13  1  0  0  0
 10 16  1  0  0  0
 11 14  1  0  0  0
 14 15  1  0  0  0
 15 16  1  0  0  0
 21 22  1  0  0  0
 21 23  1  0  0  0
M  END
> <minimizedAffinity>
-6.68013

$$$$
1TTM_667_A_264


 23 25  0  0  0  0  0  0  0  0999 V2000
   21.1538   28.7142   19.4917 C   0  0  0  0  0  0  0  0  0  0  0  0
   21.8755   29.3871   20.4733 C   0  0  0  0  0  0  0  0  0  0  0  0
   22.8942   30.3260   20.0967 C   0  0  0  0  0  0  0  0  0  0  0  0
   23.1750   30.5751   18.6882 C   0  0  0  0  0  0  0  0  0  0  0  0
   22.3965   29.8624   17.6677 C   0  0  0  0  0  0  0  0  0  0  0  0
   21.3887   28.9256   18.0689 C   0  0  0  0  0  0  0  0  0  0  0  0
   24.2862   31.5973   18.2385 C   0  0  0  0  0  0  0  0  0  0  0  0
   24.5130   31.8116   16.8793 C   0  0  0  0  0  0  0  0  0  0  0  0
   23.6605   31.0362   15.8325 C   0  0  0  0  0  0  0  0  0  0  0  0
   25.1228   32.3534   19.3232 C   0  0  0  0  0  0  0  0  0  0  0  0
   25.6056   32.8248   16.3264 C   0  0  0  0  0  0  0  0  0  0  0  0
   23.8570   31.2245   14.6438 O   0  0  0  0  0  0  0  0  0  0  0  0
   22.4788   29.9387   16.2303 O   0  0  0  0  0  0  0  0  0  0  0  0
   25.8445   34.1540   17.1381 C   0  0  0  0  0  0  0  0  0  0  0  0
   24.6915   34.5789   18.0932 C   0  0  0  0  0  0  0  0  0  0  0  0
   24.7298   33.8354   19.4543 C   0  0  0  0  0  0  0  0  0  0  0  0
   20.1888   27.8178   19.8652 O   0  0  0  0  0  0  0  0  0  0  0  0
   20.2907   26.4583   20.0117 S   0  0  0  0  0  0  0  0  0  0  0  0
   19.1124   25.8783   19.0323 O   0  0  0  0  0  0  0  0  0  0  0  0
   21.7858   26.0907   19.4818 O   0  0  0  0  0  0  0  0  0  0  0  0
   19.9937   26.1448   21.6229 N   0  0  0  0  0  0  0  0  0  0  0  0
   20.0568   25.1407   21.7912 H   0  0  0  0  0  0  0  0  0  0  0  0
   19.0588   26.4722   21.8663 H   0  0  0  0  0  0  0  0  0  0  0  0
 18 19  2  0  0  0
 18 20  2  0  0  0
 18 17  1  0  0  0
 18 21  1  0  0  0
 17  1  1  0  0  0
  1  2  2  0  0  0
  1  6  1  0  0  0
  2  3  1  0  0  0
  3  4  2  0  0  0
  4  5  1  0  0  0
  4  7  1  0  0  0
  5  6  2  0  0  0
  5 13  1  0  0  0
  7  8  2  0  0  0
  7 10  1  0  0  0
  8  9  1  0  0  0
  8 11  1  0  0  0
  9 12  2  0  0  0
  9 13  1  0  0  0
 10 16  1  0  0  0
 11 14  1  0  0  0
 14 15  1  0  0  0
 15 16  1  0  0  0
 21 22  1  0  0  0
 21 23  1  0  0  0
M  END
> <minimizedAffinity>
-6.66449

$$$$
1TTM_667_A_264


 23 25  0  0  0  0  0  0  0  0999 V2000
   21.1307   28.8110   19.5129 C   0  0  0  0  0  0  0  0  0  0  0  0
   22.3800   28.9033   20.1192 C   0  0  0  0  0  0  0  0  0  0  0  0
   23.2973   29.9320   19.7172 C   0  0  0  0  0  0  0  0  0  0  0  0
   22.9231   30.8793   18.6745 C   0  0  0  0  0  0  0  0  0  0  0  0
   21.5971   30.7712   18.0537 C   0  0  0  0  0  0  0  0  0  0  0  0
   20.7013   29.7319   18.4680 C   0  0  0  0  0  0  0  0  0  0  0  0
   23.9045   32.0198   18.2075 C   0  0  0  0  0  0  0  0  0  0  0  0
   23.4996   32.9102   17.2135 C   0  0  0  0  0  0  0  0  0  0  0  0
   22.0826   32.7597   16.5862 C   0  0  0  0  0  0  0  0  0  0  0  0
   25.3212   32.1338   18.8618 C   0  0  0  0  0  0  0  0  0  0  0  0
   24.4136   34.0956   16.6793 C   0  0  0  0  0  0  0  0  0  0  0  0
   21.7272   33.5392   15.7184 O   0  0  0  0  0  0  0  0  0  0  0  0
   20.9978   31.5794   17.0210 O   0  0  0  0  0  0  0  0  0  0  0  0
   25.3464   34.8232   17.7201 C   0  0  0  0  0  0  0  0  0  0  0  0
   24.9460   34.6608   19.2153 C   0  0  0  0  0  0  0  0  0  0  0  0
   25.4374   33.3239   19.8302 C   0  0  0  0  0  0  0  0  0  0  0  0
   20.2679   27.8219   19.9025 O   0  0  0  0  0  0  0  0  0  0  0  0
   20.2445   26.5047   19.5224 S   0  0  0  0  0  0  0  0  0  0  0  0
   18.6620   26.2268   19.2021 O   0  0  0  0  0  0  0  0  0  0  0  0
   21.1768   26.4366   18.1893 O   0  0  0  0  0  0  0  0  0  0  0  0
   20.7920   25.6358   20.8368 N   0  0  0  0  0  0  0  0  0  0  0  0
   20.7957   24.6414   20.6094 H   0  0  0  0  0  0  0  0  0  0  0  0
   20.1765   25.8001   21.6333 H   0  0  0  0  0  0  0  0  0  0  0  0
 18 19  2  0  0  0
 18 20  2  0  0  0
 18 17  1  0  0  0
 18 21  1  0  0  0
 17  1  1  0  0  0
  1  2  2  0  0  0
  1  6  1  0  0  0
  2  3  1  0  0  0
  3  4  2  0  0  0
  4  5  1  0  0  0
  4  7  1  0  0  0
  5  6  2  0  0  0
  5 13  1  0  0  0
  7  8  2  0  0  0
  7 10  1  0  0  0
  8  9  1  0  0  0
  8 11  1  0  0  0
  9 12  2  0  0  0
  9 13  1  0  0  0
 10 16  1  0  0  0
 11 14  1  0  0  0
 14 15  1  0  0  0
 15 16  1  0  0  0
 21 22  1  0  0  0
 21 23  1  0  0  0
M  END
> <minimizedAffinity>
-6.66336

$$$$
1TTM_667_A_264


 23 25  0  0  0  0  0  0  0  0999 V2000
   21.3022   35.0894   17.3499 C   0  0  0  0  0  0  0  0  0  0  0  0
   20.8459   34.6624   18.5936 C   0  0  0  0  0  0  0  0  0  0  0  0
   20.8521   33.2638   18.9175 C   0  0  0  0  0  0  0  0  0  0  0  0
   21.3343   32.2899   17.9461 C   0  0  0  0  0  0  0  0  0  0  0  0
   21.8203   32.7610   16.6433 C   0  0  0  0  0  0  0  0  0  0  0  0
   21.7986   34.1619   16.3412 C   0  0  0  0  0  0  0  0  0  0  0  0
   21.3544   30.7476   18.2670 C   0  0  0  0  0  0  0  0  0  0  0  0
   21.8344   29.8532   17.3107 C   0  0  0  0  0  0  0  0  0  0  0  0
   22.3434   30.3985   15.9442 C   0  0  0  0  0  0  0  0  0  0  0  0
   20.8306   30.2412   19.6516 C   0  0  0  0  0  0  0  0  0  0  0  0
   21.9005   28.2821   17.5414 C   0  0  0  0  0  0  0  0  0  0  0  0
   22.7651   29.6172   15.1084 O   0  0  0  0  0  0  0  0  0  0  0  0
   22.3457   32.0076   15.5319 O   0  0  0  0  0  0  0  0  0  0  0  0
   22.2461   27.7717   18.9915 C   0  0  0  0  0  0  0  0  0  0  0  0
   22.9537   28.8016   19.9194 C   0  0  0  0  0  0  0  0  0  0  0  0
   21.9638   29.7903   20.5898 C   0  0  0  0  0  0  0  0  0  0  0  0
   21.2859   36.4257   17.0525 O   0  0  0  0  0  0  0  0  0  0  0  0
   20.2561   37.1814   16.5540 S   0  0  0  0  0  0  0  0  0  0  0  0
   19.5856   37.8455   17.8933 O   0  0  0  0  0  0  0  0  0  0  0  0
   20.9725   38.2861   15.5962 O   0  0  0  0  0  0  0  0  0  0  0  0
   19.2289   36.1132   15.7884 N   0  0  0  0  0  0  0  0  0  0  0  0
   18.4383   36.6240   15.3955 H   0  0  0  0  0  0  0  0  0  0  0  0
   18.8892   35.4264   16.4616 H   0  0  0  0  0  0  0  0  0  0  0  0
 18 19  2  0  0  0
 18 20  2  0  0  0
 18 17  1  0  0  0
 18 21  1  0  0  0
 17  1  1  0  0  0
  1  2  2  0  0  0
  1  6  1  0  0  0
  2  3  1  0  0  0
  3  4  2  0  0  0
  4  5  1  0  0  0
  4  7  1  0  0  0
  5  6  2  0  0  0
  5 13  1  0  0  0
  7  8  2  0  0  0
  7 10  1  0  0  0
  8  9  1  0  0  0
  8 11  1  0  0  0
  9 12  2  0  0  0
  9 13  1  0  0  0
 10 16  1  0  0  0
 11 14  1  0  0  0
 14 15  1  0  0  0
 15 16  1  0  0  0
 21 22  1  0  0  0
 21 23  1  0  0  0
M  END
> <minimizedAffinity>
-6.18276

$$$$
