6FE0_V90_A_302


 30 31  0  0  0  0  0  0  0  0999 V2000
  -30.6386   12.8010  -92.4174 F   0  0  0  0  0  0  0  0  0  0  0  0
  -29.3095   12.8419  -92.5431 C   0  0  0  0  0  0  0  0  0  0  0  0
  -28.7813   13.7442  -93.5769 C   0  0  0  0  0  0  0  0  0  0  0  0
  -27.3237   13.8527  -93.7552 C   0  0  0  0  0  0  0  0  0  0  0  0
  -26.8145   14.6815  -94.6897 F   0  0  0  0  0  0  0  0  0  0  0  0
  -28.4031   11.9930  -91.7051 C   0  0  0  0  0  0  0  0  0  0  0  0
  -26.9238   12.1324  -91.8558 C   0  0  0  0  0  0  0  0  0  0  0  0
  -26.4187   13.0446  -92.9104 C   0  0  0  0  0  0  0  0  0  0  0  0
  -25.1011   13.1609  -93.0800 F   0  0  0  0  0  0  0  0  0  0  0  0
  -25.8420   11.2544  -91.0023 S   0  0  0  0  0  0  0  0  0  0  0  0
  -24.7359   10.8654  -91.8530 O   0  0  0  0  0  0  0  0  0  0  0  0
  -26.5340    9.9196  -90.4449 N   0  0  0  0  0  0  0  0  0  0  0  0
  -25.4723   11.9926  -89.8205 O   0  0  0  0  0  0  0  0  0  0  0  0
  -26.8275    9.3361  -91.2284 H   0  0  0  0  0  0  0  0  0  0  0  0
  -27.3478   10.1679  -89.8823 H   0  0  0  0  0  0  0  0  0  0  0  0
  -28.8467   11.2910  -90.6494 N   0  0  0  0  0  0  0  0  0  0  0  0
  -28.5661   10.3550  -90.5291 H   0  0  0  0  0  0  0  0  0  0  0  0
  -29.7503   11.9172  -89.6734 C   0  0  0  0  0  0  0  0  0  0  0  0
  -28.9504   13.0031  -88.9169 C   0  0  0  0  0  0  0  0  0  0  0  0
  -29.6660   14.3133  -88.5837 C   0  0  0  0  0  0  0  0  0  0  0  0
  -31.0247   14.2129  -87.9239 C   0  0  0  0  0  0  0  0  0  0  0  0
  -30.9621   13.5139  -86.5687 C   0  0  0  0  0  0  0  0  0  0  0  0
  -30.7654   11.9993  -86.5242 C   0  0  0  0  0  0  0  0  0  0  0  0
  -31.3174   11.2050  -87.6990 C   0  0  0  0  0  0  0  0  0  0  0  0
  -30.2369   10.8361  -88.7184 C   0  0  0  0  0  0  0  0  0  0  0  0
  -29.8753   14.6181  -94.5631 S   0  0  0  0  0  0  0  0  0  0  0  0
  -30.3230   16.1125  -93.7637 C   0  0  0  0  0  0  0  0  0  0  0  0
  -31.5993   15.9487  -92.9739 C   0  0  0  0  0  0  0  0  0  0  0  0
  -32.4126   15.0857  -93.7600 O   0  0  0  0  0  0  0  0  0  0  0  0
  -31.9457   14.2487  -93.9093 H   0  0  0  0  0  0  0  0  0  0  0  0
 23 22  1  0  0  0
 23 24  1  0  0  0
 22 21  1  0  0  0
 21 20  1  0  0  0
 29 28  1  0  0  0
 24 25  1  0  0  0
 28 27  1  0  0  0
 20 19  1  0  0  0
 25 18  1  0  0  0
 27 26  1  0  0  0
 19 18  1  0  0  0
 18 16  1  0  0  0
  1  2  1  0  0  0
 26  3  1  0  0  0
  2  3  2  0  0  0
  2  6  1  0  0  0
 16  6  1  0  0  0
  3  4  1  0  0  0
  6  7  2  0  0  0
  4  5  1  0  0  0
  4  8  2  0  0  0
  7  8  1  0  0  0
  7 10  1  0  0  0
 12 10  1  0  0  0
  8  9  1  0  0  0
 11 10  2  0  0  0
 10 13  2  0  0  0
 29 30  1  0  0  0
 12 14  1  0  0  0
 12 15  1  0  0  0
 16 17  1  0  0  0
M  END
> <minimizedAffinity>
-7.92135

$$$$
6FE0_V90_A_302


 30 31  0  0  0  0  0  0  0  0999 V2000
  -29.3595   14.6566  -94.9877 F   0  0  0  0  0  0  0  0  0  0  0  0
  -28.8574   13.9456  -93.9748 C   0  0  0  0  0  0  0  0  0  0  0  0
  -27.4176   13.6536  -94.0356 C   0  0  0  0  0  0  0  0  0  0  0  0
  -26.7952   12.8908  -92.9408 C   0  0  0  0  0  0  0  0  0  0  0  0
  -25.4743   12.6194  -92.9686 F   0  0  0  0  0  0  0  0  0  0  0  0
  -29.7135   13.4408  -92.8538 C   0  0  0  0  0  0  0  0  0  0  0  0
  -29.0770   12.7030  -91.7219 C   0  0  0  0  0  0  0  0  0  0  0  0
  -27.6247   12.4167  -91.8125 C   0  0  0  0  0  0  0  0  0  0  0  0
  -27.0433   11.7339  -90.8254 F   0  0  0  0  0  0  0  0  0  0  0  0
  -29.9115   12.1010  -90.4528 S   0  0  0  0  0  0  0  0  0  0  0  0
  -31.3143   12.4414  -90.5738 O   0  0  0  0  0  0  0  0  0  0  0  0
  -29.3630   12.7321  -89.0844 N   0  0  0  0  0  0  0  0  0  0  0  0
  -29.6335   10.6911  -90.3395 O   0  0  0  0  0  0  0  0  0  0  0  0
  -29.5240   13.7393  -89.0859 H   0  0  0  0  0  0  0  0  0  0  0  0
  -28.3632   12.5477  -89.0016 H   0  0  0  0  0  0  0  0  0  0  0  0
  -30.9881   13.8313  -92.6892 N   0  0  0  0  0  0  0  0  0  0  0  0
  -31.6864   13.1628  -92.5029 H   0  0  0  0  0  0  0  0  0  0  0  0
  -31.3426   15.2547  -92.7867 C   0  0  0  0  0  0  0  0  0  0  0  0
  -30.9109   15.9410  -91.4699 C   0  0  0  0  0  0  0  0  0  0  0  0
  -30.3084   17.3439  -91.5614 C   0  0  0  0  0  0  0  0  0  0  0  0
  -31.0632   18.3708  -92.3784 C   0  0  0  0  0  0  0  0  0  0  0  0
  -32.4583   18.6434  -91.8230 C   0  0  0  0  0  0  0  0  0  0  0  0
  -33.5532   17.5964  -92.0225 C   0  0  0  0  0  0  0  0  0  0  0  0
  -33.4509   16.7318  -93.2706 C   0  0  0  0  0  0  0  0  0  0  0  0
  -32.8489   15.3542  -92.9834 C   0  0  0  0  0  0  0  0  0  0  0  0
  -26.5135   14.1815  -95.3911 S   0  0  0  0  0  0  0  0  0  0  0  0
  -25.4563   15.4968  -94.9169 C   0  0  0  0  0  0  0  0  0  0  0  0
  -24.4009   15.7547  -95.9652 C   0  0  0  0  0  0  0  0  0  0  0  0
  -24.6818   14.8292  -97.0085 O   0  0  0  0  0  0  0  0  0  0  0  0
  -25.5849   14.9715  -97.3326 H   0  0  0  0  0  0  0  0  0  0  0  0
 23 22  1  0  0  0
 23 24  1  0  0  0
 22 21  1  0  0  0
 21 20  1  0  0  0
 29 28  1  0  0  0
 24 25  1  0  0  0
 28 27  1  0  0  0
 20 19  1  0  0  0
 25 18  1  0  0  0
 27 26  1  0  0  0
 19 18  1  0  0  0
 18 16  1  0  0  0
  1  2  1  0  0  0
 26  3  1  0  0  0
  2  3  2  0  0  0
  2  6  1  0  0  0
 16  6  1  0  0  0
  3  4  1  0  0  0
  6  7  2  0  0  0
  4  5  1  0  0  0
  4  8  2  0  0  0
  7  8  1  0  0  0
  7 10  1  0  0  0
 12 10  1  0  0  0
  8  9  1  0  0  0
 11 10  2  0  0  0
 10 13  2  0  0  0
 29 30  1  0  0  0
 12 14  1  0  0  0
 12 15  1  0  0  0
 16 17  1  0  0  0
M  END
> <minimizedAffinity>
-7.07448

$$$$
6FE0_V90_A_302


 30 31  0  0  0  0  0  0  0  0999 V2000
  -30.8406   16.1165  -89.5986 F   0  0  0  0  0  0  0  0  0  0  0  0
  -30.5968   15.8529  -90.8850 C   0  0  0  0  0  0  0  0  0  0  0  0
  -31.0264   16.8747  -91.8512 C   0  0  0  0  0  0  0  0  0  0  0  0
  -30.7702   16.6568  -93.2847 C   0  0  0  0  0  0  0  0  0  0  0  0
  -31.1453   17.5842  -94.1894 F   0  0  0  0  0  0  0  0  0  0  0  0
  -29.9538   14.5747  -91.3289 C   0  0  0  0  0  0  0  0  0  0  0  0
  -29.6557   14.3702  -92.7780 C   0  0  0  0  0  0  0  0  0  0  0  0
  -30.1058   15.4137  -93.7309 C   0  0  0  0  0  0  0  0  0  0  0  0
  -29.8744   15.2360  -95.0322 F   0  0  0  0  0  0  0  0  0  0  0  0
  -28.9656   13.0153  -93.3760 S   0  0  0  0  0  0  0  0  0  0  0  0
  -28.6100   13.2108  -94.7666 O   0  0  0  0  0  0  0  0  0  0  0  0
  -29.9970   11.7902  -93.2940 N   0  0  0  0  0  0  0  0  0  0  0  0
  -27.8749   12.6299  -92.5158 O   0  0  0  0  0  0  0  0  0  0  0  0
  -30.8066   11.9874  -93.8824 H   0  0  0  0  0  0  0  0  0  0  0  0
  -30.3009   11.6656  -92.3283 H   0  0  0  0  0  0  0  0  0  0  0  0
  -29.4055   13.7062  -90.4634 N   0  0  0  0  0  0  0  0  0  0  0  0
  -28.4265   13.6540  -90.3738 H   0  0  0  0  0  0  0  0  0  0  0  0
  -30.2642   12.8334  -89.6495 C   0  0  0  0  0  0  0  0  0  0  0  0
  -30.2573   13.3791  -88.2026 C   0  0  0  0  0  0  0  0  0  0  0  0
  -31.5726   13.3469  -87.4225 C   0  0  0  0  0  0  0  0  0  0  0  0
  -32.3386   12.0414  -87.4081 C   0  0  0  0  0  0  0  0  0  0  0  0
  -31.5431   10.9082  -86.7660 C   0  0  0  0  0  0  0  0  0  0  0  0
  -30.3832   10.2849  -87.5412 C   0  0  0  0  0  0  0  0  0  0  0  0
  -30.4951   10.2921  -89.0588 C   0  0  0  0  0  0  0  0  0  0  0  0
  -29.6906   11.4243  -89.7020 C   0  0  0  0  0  0  0  0  0  0  0  0
  -31.8387   18.2723  -91.2853 S   0  0  0  0  0  0  0  0  0  0  0  0
  -30.6927   19.3410  -90.4996 C   0  0  0  0  0  0  0  0  0  0  0  0
  -29.4557   19.5315  -91.3438 C   0  0  0  0  0  0  0  0  0  0  0  0
  -28.4220   18.8474  -90.6454 O   0  0  0  0  0  0  0  0  0  0  0  0
  -28.6687   17.9160  -90.5340 H   0  0  0  0  0  0  0  0  0  0  0  0
 23 22  1  0  0  0
 23 24  1  0  0  0
 22 21  1  0  0  0
 21 20  1  0  0  0
 29 28  1  0  0  0
 24 25  1  0  0  0
 28 27  1  0  0  0
 20 19  1  0  0  0
 25 18  1  0  0  0
 27 26  1  0  0  0
 19 18  1  0  0  0
 18 16  1  0  0  0
  1  2  1  0  0  0
 26  3  1  0  0  0
  2  3  2  0  0  0
  2  6  1  0  0  0
 16  6  1  0  0  0
  3  4  1  0  0  0
  6  7  2  0  0  0
  4  5  1  0  0  0
  4  8  2  0  0  0
  7  8  1  0  0  0
  7 10  1  0  0  0
 12 10  1  0  0  0
  8  9  1  0  0  0
 11 10  2  0  0  0
 10 13  2  0  0  0
 29 30  1  0  0  0
 12 14  1  0  0  0
 12 15  1  0  0  0
 16 17  1  0  0  0
M  END
> <minimizedAffinity>
-6.54120

$$$$
6FE0_V90_A_302


 30 31  0  0  0  0  0  0  0  0999 V2000
  -30.2982   11.6706  -89.4900 F   0  0  0  0  0  0  0  0  0  0  0  0
  -29.9560   12.4020  -90.5539 C   0  0  0  0  0  0  0  0  0  0  0  0
  -28.6601   12.0847  -91.1719 C   0  0  0  0  0  0  0  0  0  0  0  0
  -28.2303   12.8395  -92.3608 C   0  0  0  0  0  0  0  0  0  0  0  0
  -27.0506   12.5598  -92.9520 F   0  0  0  0  0  0  0  0  0  0  0  0
  -30.8228   13.5082  -91.0729 C   0  0  0  0  0  0  0  0  0  0  0  0
  -30.4082   14.2468  -92.3030 C   0  0  0  0  0  0  0  0  0  0  0  0
  -29.0936   13.9109  -92.9017 C   0  0  0  0  0  0  0  0  0  0  0  0
  -28.6926   14.5793  -93.9838 F   0  0  0  0  0  0  0  0  0  0  0  0
  -31.2690   15.4741  -92.9532 S   0  0  0  0  0  0  0  0  0  0  0  0
  -31.4879   16.5074  -91.9619 O   0  0  0  0  0  0  0  0  0  0  0  0
  -32.7008   14.9432  -93.4426 N   0  0  0  0  0  0  0  0  0  0  0  0
  -30.6134   15.9146  -94.1591 O   0  0  0  0  0  0  0  0  0  0  0  0
  -33.2327   14.6098  -92.6387 H   0  0  0  0  0  0  0  0  0  0  0  0
  -32.5716   14.1788  -94.1055 H   0  0  0  0  0  0  0  0  0  0  0  0
  -32.0763   13.7070  -90.6336 N   0  0  0  0  0  0  0  0  0  0  0  0
  -32.8411   13.4412  -91.1938 H   0  0  0  0  0  0  0  0  0  0  0  0
  -32.3089   14.3208  -89.3181 C   0  0  0  0  0  0  0  0  0  0  0  0
  -30.9652   14.9061  -88.8249 C   0  0  0  0  0  0  0  0  0  0  0  0
  -30.9982   16.2501  -88.0953 C   0  0  0  0  0  0  0  0  0  0  0  0
  -31.9970   16.4029  -86.9682 C   0  0  0  0  0  0  0  0  0  0  0  0
  -31.7476   15.4140  -85.8329 C   0  0  0  0  0  0  0  0  0  0  0  0
  -32.1151   13.9447  -86.0355 C   0  0  0  0  0  0  0  0  0  0  0  0
  -33.2756   13.6555  -86.9764 C   0  0  0  0  0  0  0  0  0  0  0  0
  -32.8096   13.2374  -88.3731 C   0  0  0  0  0  0  0  0  0  0  0  0
  -27.6755   10.8695  -90.4739 S   0  0  0  0  0  0  0  0  0  0  0  0
  -26.0865   11.5252  -90.1306 C   0  0  0  0  0  0  0  0  0  0  0  0
  -25.0037   10.5137  -90.4203 C   0  0  0  0  0  0  0  0  0  0  0  0
  -24.6428   10.7368  -91.7783 O   0  0  0  0  0  0  0  0  0  0  0  0
  -24.3476   11.6542  -91.8879 H   0  0  0  0  0  0  0  0  0  0  0  0
 23 22  1  0  0  0
 23 24  1  0  0  0
 22 21  1  0  0  0
 21 20  1  0  0  0
 29 28  1  0  0  0
 24 25  1  0  0  0
 28 27  1  0  0  0
 20 19  1  0  0  0
 25 18  1  0  0  0
 27 26  1  0  0  0
 19 18  1  0  0  0
 18 16  1  0  0  0
  1  2  1  0  0  0
 26  3  1  0  0  0
  2  3  2  0  0  0
  2  6  1  0  0  0
 16  6  1  0  0  0
  3  4  1  0  0  0
  6  7  2  0  0  0
  4  5  1  0  0  0
  4  8  2  0  0  0
  7  8  1  0  0  0
  7 10  1  0  0  0
 12 10  1  0  0  0
  8  9  1  0  0  0
 11 10  2  0  0  0
 10 13  2  0  0  0
 29 30  1  0  0  0
 12 14  1  0  0  0
 12 15  1  0  0  0
 16 17  1  0  0  0
M  END
> <minimizedAffinity>
-6.45499

$$$$
6FE0_V90_A_302


 30 31  0  0  0  0  0  0  0  0999 V2000
  -32.6850   15.7796  -90.5880 F   0  0  0  0  0  0  0  0  0  0  0  0
  -31.5724   15.7207  -91.3246 C   0  0  0  0  0  0  0  0  0  0  0  0
  -30.9197   17.0045  -91.6210 C   0  0  0  0  0  0  0  0  0  0  0  0
  -29.6776   17.0101  -92.4117 C   0  0  0  0  0  0  0  0  0  0  0  0
  -29.0545   18.1741  -92.6878 F   0  0  0  0  0  0  0  0  0  0  0  0
  -31.0331   14.4263  -91.8518 C   0  0  0  0  0  0  0  0  0  0  0  0
  -29.7513   14.4257  -92.6185 C   0  0  0  0  0  0  0  0  0  0  0  0
  -29.1181   15.7351  -92.9086 C   0  0  0  0  0  0  0  0  0  0  0  0
  -27.9882   15.7576  -93.6166 F   0  0  0  0  0  0  0  0  0  0  0  0
  -29.0748   13.0776  -93.2465 S   0  0  0  0  0  0  0  0  0  0  0  0
  -28.3149   13.4098  -94.4341 O   0  0  0  0  0  0  0  0  0  0  0  0
  -30.2167   12.0317  -93.6632 N   0  0  0  0  0  0  0  0  0  0  0  0
  -28.3278   12.4066  -92.2121 O   0  0  0  0  0  0  0  0  0  0  0  0
  -30.7955   12.4358  -94.3995 H   0  0  0  0  0  0  0  0  0  0  0  0
  -30.7973   11.8209  -92.8515 H   0  0  0  0  0  0  0  0  0  0  0  0
  -31.5118   13.2341  -91.4601 N   0  0  0  0  0  0  0  0  0  0  0  0
  -31.7988   12.5750  -92.1327 H   0  0  0  0  0  0  0  0  0  0  0  0
  -31.6080   12.9113  -90.0290 C   0  0  0  0  0  0  0  0  0  0  0  0
  -30.4357   11.9661  -89.6774 C   0  0  0  0  0  0  0  0  0  0  0  0
  -29.7360   12.1682  -88.3323 C   0  0  0  0  0  0  0  0  0  0  0  0
  -30.6133   12.2744  -87.1033 C   0  0  0  0  0  0  0  0  0  0  0  0
  -31.4344   11.0102  -86.8648 C   0  0  0  0  0  0  0  0  0  0  0  0
  -32.6344   10.7245  -87.7665 C   0  0  0  0  0  0  0  0  0  0  0  0
  -33.3575   11.9331  -88.3429 C   0  0  0  0  0  0  0  0  0  0  0  0
  -32.9475   12.2294  -89.7875 C   0  0  0  0  0  0  0  0  0  0  0  0
  -31.6384   18.4564  -91.0654 S   0  0  0  0  0  0  0  0  0  0  0  0
  -30.5991   19.2075  -89.8703 C   0  0  0  0  0  0  0  0  0  0  0  0
  -31.1113   18.9651  -88.4710 C   0  0  0  0  0  0  0  0  0  0  0  0
  -30.7603   17.6182  -88.1765 O   0  0  0  0  0  0  0  0  0  0  0  0
  -29.7996   17.5098  -88.2557 H   0  0  0  0  0  0  0  0  0  0  0  0
 23 22  1  0  0  0
 23 24  1  0  0  0
 22 21  1  0  0  0
 21 20  1  0  0  0
 29 28  1  0  0  0
 24 25  1  0  0  0
 28 27  1  0  0  0
 20 19  1  0  0  0
 25 18  1  0  0  0
 27 26  1  0  0  0
 19 18  1  0  0  0
 18 16  1  0  0  0
  1  2  1  0  0  0
 26  3  1  0  0  0
  2  3  2  0  0  0
  2  6  1  0  0  0
 16  6  1  0  0  0
  3  4  1  0  0  0
  6  7  2  0  0  0
  4  5  1  0  0  0
  4  8  2  0  0  0
  7  8  1  0  0  0
  7 10  1  0  0  0
 12 10  1  0  0  0
  8  9  1  0  0  0
 11 10  2  0  0  0
 10 13  2  0  0  0
 29 30  1  0  0  0
 12 14  1  0  0  0
 12 15  1  0  0  0
 16 17  1  0  0  0
M  END
> <minimizedAffinity>
-6.37211

$$$$
6FE0_V90_A_302


 30 31  0  0  0  0  0  0  0  0999 V2000
  -29.0644   12.3578  -91.6099 F   0  0  0  0  0  0  0  0  0  0  0  0
  -29.5471   13.5963  -91.7401 C   0  0  0  0  0  0  0  0  0  0  0  0
  -29.5522   14.1528  -93.1011 C   0  0  0  0  0  0  0  0  0  0  0  0
  -30.0895   15.5062  -93.3188 C   0  0  0  0  0  0  0  0  0  0  0  0
  -30.1148   16.0346  -94.5595 F   0  0  0  0  0  0  0  0  0  0  0  0
  -30.0258   14.3928  -90.5650 C   0  0  0  0  0  0  0  0  0  0  0  0
  -30.6094   15.7492  -90.7893 C   0  0  0  0  0  0  0  0  0  0  0  0
  -30.5958   16.2884  -92.1708 C   0  0  0  0  0  0  0  0  0  0  0  0
  -31.0862   17.5096  -92.3870 F   0  0  0  0  0  0  0  0  0  0  0  0
  -31.1546   16.7087  -89.5845 S   0  0  0  0  0  0  0  0  0  0  0  0
  -32.5784   16.9309  -89.7318 O   0  0  0  0  0  0  0  0  0  0  0  0
  -30.4206   18.1333  -89.6406 N   0  0  0  0  0  0  0  0  0  0  0  0
  -30.7530   16.1428  -88.3209 O   0  0  0  0  0  0  0  0  0  0  0  0
  -30.6564   18.6031  -90.5147 H   0  0  0  0  0  0  0  0  0  0  0  0
  -29.4109   17.9979  -89.5890 H   0  0  0  0  0  0  0  0  0  0  0  0
  -30.1861   13.8522  -89.3460 N   0  0  0  0  0  0  0  0  0  0  0  0
  -29.8120   14.3040  -88.5553 H   0  0  0  0  0  0  0  0  0  0  0  0
  -30.9190   12.5873  -89.1899 C   0  0  0  0  0  0  0  0  0  0  0  0
  -32.2333   12.8923  -88.4343 C   0  0  0  0  0  0  0  0  0  0  0  0
  -33.4974   12.1532  -88.8761 C   0  0  0  0  0  0  0  0  0  0  0  0
  -33.4041   10.6501  -89.0295 C   0  0  0  0  0  0  0  0  0  0  0  0
  -33.0525    9.9532  -87.7180 C   0  0  0  0  0  0  0  0  0  0  0  0
  -31.6215   10.0453  -87.1901 C   0  0  0  0  0  0  0  0  0  0  0  0
  -30.5187   10.1835  -88.2296 C   0  0  0  0  0  0  0  0  0  0  0  0
  -30.0438   11.6293  -88.3938 C   0  0  0  0  0  0  0  0  0  0  0  0
  -28.9058   13.2244  -94.3869 S   0  0  0  0  0  0  0  0  0  0  0  0
  -27.1584   13.3628  -94.3918 C   0  0  0  0  0  0  0  0  0  0  0  0
  -26.7226   14.7700  -94.7222 C   0  0  0  0  0  0  0  0  0  0  0  0
  -26.0810   14.6711  -95.9882 O   0  0  0  0  0  0  0  0  0  0  0  0
  -26.7004   14.3009  -96.6365 H   0  0  0  0  0  0  0  0  0  0  0  0
 23 22  1  0  0  0
 23 24  1  0  0  0
 22 21  1  0  0  0
 21 20  1  0  0  0
 29 28  1  0  0  0
 24 25  1  0  0  0
 28 27  1  0  0  0
 20 19  1  0  0  0
 25 18  1  0  0  0
 27 26  1  0  0  0
 19 18  1  0  0  0
 18 16  1  0  0  0
  1  2  1  0  0  0
 26  3  1  0  0  0
  2  3  2  0  0  0
  2  6  1  0  0  0
 16  6  1  0  0  0
  3  4  1  0  0  0
  6  7  2  0  0  0
  4  5  1  0  0  0
  4  8  2  0  0  0
  7  8  1  0  0  0
  7 10  1  0  0  0
 12 10  1  0  0  0
  8  9  1  0  0  0
 11 10  2  0  0  0
 10 13  2  0  0  0
 29 30  1  0  0  0
 12 14  1  0  0  0
 12 15  1  0  0  0
 16 17  1  0  0  0
M  END
> <minimizedAffinity>
-6.35619

$$$$
6FE0_V90_A_302


 30 31  0  0  0  0  0  0  0  0999 V2000
  -30.6231   13.6891  -89.0460 F   0  0  0  0  0  0  0  0  0  0  0  0
  -30.3168   14.4454  -90.1033 C   0  0  0  0  0  0  0  0  0  0  0  0
  -30.4474   15.8989  -89.9232 C   0  0  0  0  0  0  0  0  0  0  0  0
  -30.1063   16.7922  -91.0429 C   0  0  0  0  0  0  0  0  0  0  0  0
  -30.2079   18.1295  -90.8989 F   0  0  0  0  0  0  0  0  0  0  0  0
  -29.8965   13.8518  -91.4130 C   0  0  0  0  0  0  0  0  0  0  0  0
  -29.5103   14.7571  -92.5364 C   0  0  0  0  0  0  0  0  0  0  0  0
  -29.6580   16.2182  -92.3295 C   0  0  0  0  0  0  0  0  0  0  0  0
  -29.3457   17.0420  -93.3306 F   0  0  0  0  0  0  0  0  0  0  0  0
  -29.0446   14.2224  -94.0084 S   0  0  0  0  0  0  0  0  0  0  0  0
  -27.6159   14.3971  -94.1715 O   0  0  0  0  0  0  0  0  0  0  0  0
  -29.7826   15.0624  -95.1578 N   0  0  0  0  0  0  0  0  0  0  0  0
  -29.5182   12.8723  -94.1844 O   0  0  0  0  0  0  0  0  0  0  0  0
  -29.4975   16.0401  -95.1008 H   0  0  0  0  0  0  0  0  0  0  0  0
  -30.7927   14.9951  -95.0329 H   0  0  0  0  0  0  0  0  0  0  0  0
  -29.6106   12.5470  -91.5534 N   0  0  0  0  0  0  0  0  0  0  0  0
  -30.1659   11.9828  -92.1387 H   0  0  0  0  0  0  0  0  0  0  0  0
  -28.4704   11.9596  -90.8349 C   0  0  0  0  0  0  0  0  0  0  0  0
  -27.2971   11.8310  -91.8340 C   0  0  0  0  0  0  0  0  0  0  0  0
  -25.8887   12.1388  -91.3229 C   0  0  0  0  0  0  0  0  0  0  0  0
  -25.4578   11.4726  -90.0338 C   0  0  0  0  0  0  0  0  0  0  0  0
  -25.4472    9.9503  -90.1420 C   0  0  0  0  0  0  0  0  0  0  0  0
  -26.7775    9.1986  -90.1524 C   0  0  0  0  0  0  0  0  0  0  0  0
  -27.9296    9.8406  -89.3933 C   0  0  0  0  0  0  0  0  0  0  0  0
  -28.8933   10.5931  -90.3141 C   0  0  0  0  0  0  0  0  0  0  0  0
  -31.0211   16.5085  -88.4291 S   0  0  0  0  0  0  0  0  0  0  0  0
  -32.3017   17.6696  -88.7204 C   0  0  0  0  0  0  0  0  0  0  0  0
  -31.9475   19.0259  -88.1598 C   0  0  0  0  0  0  0  0  0  0  0  0
  -30.5592   18.9505  -87.8580 O   0  0  0  0  0  0  0  0  0  0  0  0
  -30.0649   18.7288  -88.6626 H   0  0  0  0  0  0  0  0  0  0  0  0
 23 22  1  0  0  0
 23 24  1  0  0  0
 22 21  1  0  0  0
 21 20  1  0  0  0
 29 28  1  0  0  0
 24 25  1  0  0  0
 28 27  1  0  0  0
 20 19  1  0  0  0
 25 18  1  0  0  0
 27 26  1  0  0  0
 19 18  1  0  0  0
 18 16  1  0  0  0
  1  2  1  0  0  0
 26  3  1  0  0  0
  2  3  2  0  0  0
  2  6  1  0  0  0
 16  6  1  0  0  0
  3  4  1  0  0  0
  6  7  2  0  0  0
  4  5  1  0  0  0
  4  8  2  0  0  0
  7  8  1  0  0  0
  7 10  1  0  0  0
 12 10  1  0  0  0
  8  9  1  0  0  0
 11 10  2  0  0  0
 10 13  2  0  0  0
 29 30  1  0  0  0
 12 14  1  0  0  0
 12 15  1  0  0  0
 16 17  1  0  0  0
M  END
> <minimizedAffinity>
-6.31249

$$$$
6FE0_V90_A_302


 30 31  0  0  0  0  0  0  0  0999 V2000
  -32.0339   13.5704  -89.8182 F   0  0  0  0  0  0  0  0  0  0  0  0
  -30.9186   13.2871  -90.4962 C   0  0  0  0  0  0  0  0  0  0  0  0
  -29.9078   12.4924  -89.7830 C   0  0  0  0  0  0  0  0  0  0  0  0
  -28.6626   12.1274  -90.4790 C   0  0  0  0  0  0  0  0  0  0  0  0
  -27.7248   11.3901  -89.8496 F   0  0  0  0  0  0  0  0  0  0  0  0
  -30.6886   13.7776  -91.8930 C   0  0  0  0  0  0  0  0  0  0  0  0
  -29.4451   13.3737  -92.6149 C   0  0  0  0  0  0  0  0  0  0  0  0
  -28.4399   12.5778  -91.8695 C   0  0  0  0  0  0  0  0  0  0  0  0
  -27.3100   12.2317  -92.4876 F   0  0  0  0  0  0  0  0  0  0  0  0
  -29.0861   13.8544  -94.1346 S   0  0  0  0  0  0  0  0  0  0  0  0
  -29.1465   15.2988  -94.2263 O   0  0  0  0  0  0  0  0  0  0  0  0
  -30.1487   13.2456  -95.1699 N   0  0  0  0  0  0  0  0  0  0  0  0
  -27.8262   13.2707  -94.5220 O   0  0  0  0  0  0  0  0  0  0  0  0
  -31.0766   13.6139  -94.9607 H   0  0  0  0  0  0  0  0  0  0  0  0
  -30.1598   12.2290  -95.0872 H   0  0  0  0  0  0  0  0  0  0  0  0
  -31.6567   14.3584  -92.6205 N   0  0  0  0  0  0  0  0  0  0  0  0
  -32.0612   13.8738  -93.3760 H   0  0  0  0  0  0  0  0  0  0  0  0
  -32.1135   15.7165  -92.2913 C   0  0  0  0  0  0  0  0  0  0  0  0
  -32.4708   16.4296  -93.6161 C   0  0  0  0  0  0  0  0  0  0  0  0
  -33.7013   17.3382  -93.6272 C   0  0  0  0  0  0  0  0  0  0  0  0
  -33.8169   18.3625  -92.5186 C   0  0  0  0  0  0  0  0  0  0  0  0
  -32.6645   19.3629  -92.5297 C   0  0  0  0  0  0  0  0  0  0  0  0
  -31.2867   18.9120  -92.0466 C   0  0  0  0  0  0  0  0  0  0  0  0
  -31.2592   17.8208  -90.9863 C   0  0  0  0  0  0  0  0  0  0  0  0
  -30.9790   16.4361  -91.5752 C   0  0  0  0  0  0  0  0  0  0  0  0
  -30.1937   12.0412  -88.1557 S   0  0  0  0  0  0  0  0  0  0  0  0
  -30.8604   10.4209  -88.1031 C   0  0  0  0  0  0  0  0  0  0  0  0
  -32.3620   10.4425  -88.2581 C   0  0  0  0  0  0  0  0  0  0  0  0
  -32.6453    9.4656  -89.2528 O   0  0  0  0  0  0  0  0  0  0  0  0
  -32.3032    8.6042  -88.9667 H   0  0  0  0  0  0  0  0  0  0  0  0
 23 22  1  0  0  0
 23 24  1  0  0  0
 22 21  1  0  0  0
 21 20  1  0  0  0
 29 28  1  0  0  0
 24 25  1  0  0  0
 28 27  1  0  0  0
 20 19  1  0  0  0
 25 18  1  0  0  0
 27 26  1  0  0  0
 19 18  1  0  0  0
 18 16  1  0  0  0
  1  2  1  0  0  0
 26  3  1  0  0  0
  2  3  2  0  0  0
  2  6  1  0  0  0
 16  6  1  0  0  0
  3  4  1  0  0  0
  6  7  2  0  0  0
  4  5  1  0  0  0
  4  8  2  0  0  0
  7  8  1  0  0  0
  7 10  1  0  0  0
 12 10  1  0  0  0
  8  9  1  0  0  0
 11 10  2  0  0  0
 10 13  2  0  0  0
 29 30  1  0  0  0
 12 14  1  0  0  0
 12 15  1  0  0  0
 16 17  1  0  0  0
M  END
> <minimizedAffinity>
-5.97324

$$$$
6FE0_V90_A_302


 30 31  0  0  0  0  0  0  0  0999 V2000
  -32.4658   14.6172  -90.5621 F   0  0  0  0  0  0  0  0  0  0  0  0
  -31.3444   14.0868  -91.0570 C   0  0  0  0  0  0  0  0  0  0  0  0
  -30.4824   13.3779  -90.0997 C   0  0  0  0  0  0  0  0  0  0  0  0
  -29.2402   12.7520  -90.5825 C   0  0  0  0  0  0  0  0  0  0  0  0
  -28.4381   12.0871  -89.7258 F   0  0  0  0  0  0  0  0  0  0  0  0
  -30.9626   14.2318  -92.4983 C   0  0  0  0  0  0  0  0  0  0  0  0
  -29.7246   13.5625  -92.9983 C   0  0  0  0  0  0  0  0  0  0  0  0
  -28.8705   12.8601  -92.0099 C   0  0  0  0  0  0  0  0  0  0  0  0
  -27.7459   12.2806  -92.4318 F   0  0  0  0  0  0  0  0  0  0  0  0
  -29.2072   13.6586  -94.5451 S   0  0  0  0  0  0  0  0  0  0  0  0
  -27.7851   13.3914  -94.6111 O   0  0  0  0  0  0  0  0  0  0  0  0
  -29.4633   15.1335  -95.1203 N   0  0  0  0  0  0  0  0  0  0  0  0
  -30.0276   12.8019  -95.3644 O   0  0  0  0  0  0  0  0  0  0  0  0
  -28.9121   15.8065  -94.5877 H   0  0  0  0  0  0  0  0  0  0  0  0
  -30.4535   15.3636  -95.0374 H   0  0  0  0  0  0  0  0  0  0  0  0
  -31.8053   14.7259  -93.4201 N   0  0  0  0  0  0  0  0  0  0  0  0
  -31.8747   14.2957  -94.3029 H   0  0  0  0  0  0  0  0  0  0  0  0
  -32.6243   15.9077  -93.1136 C   0  0  0  0  0  0  0  0  0  0  0  0
  -34.0490   15.6497  -93.6566 C   0  0  0  0  0  0  0  0  0  0  0  0
  -35.2312   16.1279  -92.8121 C   0  0  0  0  0  0  0  0  0  0  0  0
  -35.1921   17.5554  -92.3098 C   0  0  0  0  0  0  0  0  0  0  0  0
  -35.1640   18.5712  -93.4484 C   0  0  0  0  0  0  0  0  0  0  0  0
  -33.8734   18.7562  -94.2452 C   0  0  0  0  0  0  0  0  0  0  0  0
  -32.5705   18.4974  -93.5027 C   0  0  0  0  0  0  0  0  0  0  0  0
  -31.9914   17.1115  -93.7975 C   0  0  0  0  0  0  0  0  0  0  0  0
  -30.9315   13.3273  -88.4477 S   0  0  0  0  0  0  0  0  0  0  0  0
  -30.2817   14.7282  -87.6183 C   0  0  0  0  0  0  0  0  0  0  0  0
  -31.1376   15.9492  -87.8551 C   0  0  0  0  0  0  0  0  0  0  0  0
  -30.3881   16.7578  -88.7542 O   0  0  0  0  0  0  0  0  0  0  0  0
  -30.2054   16.2565  -89.5643 H   0  0  0  0  0  0  0  0  0  0  0  0
 23 22  1  0  0  0
 23 24  1  0  0  0
 22 21  1  0  0  0
 21 20  1  0  0  0
 29 28  1  0  0  0
 24 25  1  0  0  0
 28 27  1  0  0  0
 20 19  1  0  0  0
 25 18  1  0  0  0
 27 26  1  0  0  0
 19 18  1  0  0  0
 18 16  1  0  0  0
  1  2  1  0  0  0
 26  3  1  0  0  0
  2  3  2  0  0  0
  2  6  1  0  0  0
 16  6  1  0  0  0
  3  4  1  0  0  0
  6  7  2  0  0  0
  4  5  1  0  0  0
  4  8  2  0  0  0
  7  8  1  0  0  0
  7 10  1  0  0  0
 12 10  1  0  0  0
  8  9  1  0  0  0
 11 10  2  0  0  0
 10 13  2  0  0  0
 29 30  1  0  0  0
 12 14  1  0  0  0
 12 15  1  0  0  0
 16 17  1  0  0  0
M  END
> <minimizedAffinity>
-5.75174

$$$$
6FE0_V90_A_302


 30 31  0  0  0  0  0  0  0  0999 V2000
  -28.8714   13.3559  -90.9866 F   0  0  0  0  0  0  0  0  0  0  0  0
  -29.4761   12.9807  -89.8564 C   0  0  0  0  0  0  0  0  0  0  0  0
  -29.2178   11.6050  -89.4061 C   0  0  0  0  0  0  0  0  0  0  0  0
  -29.8373   11.1327  -88.1566 C   0  0  0  0  0  0  0  0  0  0  0  0
  -29.6072    9.8784  -87.7172 F   0  0  0  0  0  0  0  0  0  0  0  0
  -30.3948   13.8932  -89.1030 C   0  0  0  0  0  0  0  0  0  0  0  0
  -30.9909   13.4304  -87.8142 C   0  0  0  0  0  0  0  0  0  0  0  0
  -30.7191   12.0364  -87.3873 C   0  0  0  0  0  0  0  0  0  0  0  0
  -31.2658   11.5950  -86.2538 F   0  0  0  0  0  0  0  0  0  0  0  0
  -32.0106   14.3355  -86.9137 S   0  0  0  0  0  0  0  0  0  0  0  0
  -32.2729   13.6793  -85.6493 O   0  0  0  0  0  0  0  0  0  0  0  0
  -33.4079   14.5164  -87.6794 N   0  0  0  0  0  0  0  0  0  0  0  0
  -31.4783   15.6711  -86.8090 O   0  0  0  0  0  0  0  0  0  0  0  0
  -33.8529   13.6058  -87.7944 H   0  0  0  0  0  0  0  0  0  0  0  0
  -33.2420   14.9320  -88.5960 H   0  0  0  0  0  0  0  0  0  0  0  0
  -30.5157   15.1977  -89.3990 N   0  0  0  0  0  0  0  0  0  0  0  0
  -30.2851   15.8777  -88.7254 H   0  0  0  0  0  0  0  0  0  0  0  0
  -30.9916   15.6125  -90.7267 C   0  0  0  0  0  0  0  0  0  0  0  0
  -29.9992   16.6623  -91.2783 C   0  0  0  0  0  0  0  0  0  0  0  0
  -29.6574   16.6064  -92.7682 C   0  0  0  0  0  0  0  0  0  0  0  0
  -30.8133   16.5236  -93.7422 C   0  0  0  0  0  0  0  0  0  0  0  0
  -31.7327   17.7387  -93.6570 C   0  0  0  0  0  0  0  0  0  0  0  0
  -32.6752   17.8729  -92.4618 C   0  0  0  0  0  0  0  0  0  0  0  0
  -33.1628   16.5777  -91.8290 C   0  0  0  0  0  0  0  0  0  0  0  0
  -32.3819   16.2110  -90.5647 C   0  0  0  0  0  0  0  0  0  0  0  0
  -28.2305   10.5832  -90.3623 S   0  0  0  0  0  0  0  0  0  0  0  0
  -26.5719   11.1476  -90.3064 C   0  0  0  0  0  0  0  0  0  0  0  0
  -25.6048   10.0353  -90.6331 C   0  0  0  0  0  0  0  0  0  0  0  0
  -24.6332   10.6285  -91.4865 O   0  0  0  0  0  0  0  0  0  0  0  0
  -24.2157   11.3760  -91.0306 H   0  0  0  0  0  0  0  0  0  0  0  0
 23 22  1  0  0  0
 23 24  1  0  0  0
 22 21  1  0  0  0
 21 20  1  0  0  0
 29 28  1  0  0  0
 24 25  1  0  0  0
 28 27  1  0  0  0
 20 19  1  0  0  0
 25 18  1  0  0  0
 27 26  1  0  0  0
 19 18  1  0  0  0
 18 16  1  0  0  0
  1  2  1  0  0  0
 26  3  1  0  0  0
  2  3  2  0  0  0
  2  6  1  0  0  0
 16  6  1  0  0  0
  3  4  1  0  0  0
  6  7  2  0  0  0
  4  5  1  0  0  0
  4  8  2  0  0  0
  7  8  1  0  0  0
  7 10  1  0  0  0
 12 10  1  0  0  0
  8  9  1  0  0  0
 11 10  2  0  0  0
 10 13  2  0  0  0
 29 30  1  0  0  0
 12 14  1  0  0  0
 12 15  1  0  0  0
 16 17  1  0  0  0
M  END
> <minimizedAffinity>
-5.70390

$$$$
