2ZX6_ZX6_A_901


 30 32  0  0  0  0  0  0  0  0999 V2000
   -2.4766   26.5289   29.5682 C   0  0  0  0  0  0  0  0  0  0  0  0
   -3.5562   25.9559   29.4290 O   0  0  0  0  0  0  0  0  0  0  0  0
   -1.6423   26.7413   28.5514 N   0  0  0  0  0  0  0  0  0  0  0  0
   -0.8606   27.3223   28.6953 H   0  0  0  0  0  0  0  0  0  0  0  0
   -2.1516   27.1465   30.9335 C   0  0  0  0  0  0  0  0  0  0  0  0
   -0.6608   25.1185   31.7066 C   0  0  0  0  0  0  0  0  0  0  0  0
   -1.0981   24.0039   31.0011 C   0  0  0  0  0  0  0  0  0  0  0  0
   -0.4661   22.7758   31.1793 C   0  0  0  0  0  0  0  0  0  0  0  0
    0.5990   22.6567   32.0658 C   0  0  0  0  0  0  0  0  0  0  0  0
    1.0351   23.7722   32.7753 C   0  0  0  0  0  0  0  0  0  0  0  0
    0.4065   24.9987   32.5902 C   0  0  0  0  0  0  0  0  0  0  0  0
    0.6446   26.2084   33.0885 N   0  0  0  0  0  0  0  0  0  0  0  0
   -0.2159   27.0802   32.5654 C   0  0  0  0  0  0  0  0  0  0  0  0
   -1.0303   26.4592   31.7156 C   0  0  0  0  0  0  0  0  0  0  0  0
    1.3476   26.4258   33.7425 H   0  0  0  0  0  0  0  0  0  0  0  0
   -1.8420   26.1419   27.2201 C   0  0  0  0  0  0  0  0  0  0  0  0
   -1.5690   27.0526   26.0181 C   0  0  0  0  0  0  0  0  0  0  0  0
   -0.1219   27.2958   25.8728 N   0  0  0  0  0  0  0  0  0  0  0  0
    0.1740   28.2263   24.7674 C   0  0  0  0  0  0  0  0  0  0  0  0
    1.6871   28.4175   24.6574 C   0  0  0  0  0  0  0  0  0  0  0  0
   -0.3913   27.7522   23.4208 C   0  0  0  0  0  0  0  0  0  0  0  0
    0.3274   26.6070   22.9519 O   0  0  0  0  0  0  0  0  0  0  0  0
   -1.8724   27.3938   23.5725 C   0  0  0  0  0  0  0  0  0  0  0  0
   -2.4004   26.8201   22.3750 O   0  0  0  0  0  0  0  0  0  0  0  0
   -2.0051   26.3810   24.7093 C   0  0  0  0  0  0  0  0  0  0  0  0
   -3.3568   25.9198   24.7378 O   0  0  0  0  0  0  0  0  0  0  0  0
    0.3444   26.4074   25.6891 H   0  0  0  0  0  0  0  0  0  0  0  0
    0.2352   25.8833   23.5912 H   0  0  0  0  0  0  0  0  0  0  0  0
   -1.9161   26.0062   22.1655 H   0  0  0  0  0  0  0  0  0  0  0  0
   -3.9531   26.6741   24.8655 H   0  0  0  0  0  0  0  0  0  0  0  0
  6  7  2  0  0  0
  6 11  1  0  0  0
  6 14  1  0  0  0
  7  8  1  0  0  0
  8  9  2  0  0  0
  9 10  1  0  0  0
 10 11  2  0  0  0
 11 12  1  0  0  0
 12 13  1  0  0  0
 13 14  2  0  0  0
 14  5  1  0  0  0
  5  1  1  0  0  0
  1  2  2  0  0  0
  1  3  1  0  0  0
  3 16  1  0  0  0
 16 17  1  0  0  0
 17 18  1  0  0  0
 17 25  1  0  0  0
 18 19  1  0  0  0
 19 20  1  0  0  0
 19 21  1  0  0  0
 21 22  1  0  0  0
 21 23  1  0  0  0
 23 24  1  0  0  0
 23 25  1  0  0  0
 25 26  1  0  0  0
 12 15  1  0  0  0
  3  4  1  0  0  0
 18 27  1  0  0  0
 22 28  1  0  0  0
 24 29  1  0  0  0
 26 30  1  0  0  0
M  END
> <minimizedAffinity>
-10.41680

$$$$
2ZX6_ZX6_A_901


 30 32  0  0  0  0  0  0  0  0999 V2000
   -1.9260   26.0545   29.6136 C   0  0  0  0  0  0  0  0  0  0  0  0
   -3.1426   25.8850   29.6804 O   0  0  0  0  0  0  0  0  0  0  0  0
   -1.2860   26.2002   28.4541 N   0  0  0  0  0  0  0  0  0  0  0  0
   -0.3389   26.4684   28.4679 H   0  0  0  0  0  0  0  0  0  0  0  0
   -1.1458   26.2496   30.9190 C   0  0  0  0  0  0  0  0  0  0  0  0
    0.5301   24.8919   32.4294 C   0  0  0  0  0  0  0  0  0  0  0  0
    1.2296   25.8201   33.1914 C   0  0  0  0  0  0  0  0  0  0  0  0
    2.1740   25.3881   34.1191 C   0  0  0  0  0  0  0  0  0  0  0  0
    2.4262   24.0302   34.2837 C   0  0  0  0  0  0  0  0  0  0  0  0
    1.7281   23.1004   33.5182 C   0  0  0  0  0  0  0  0  0  0  0  0
    0.7808   23.5343   32.5974 C   0  0  0  0  0  0  0  0  0  0  0  0
   -0.0467   22.8769   31.7904 N   0  0  0  0  0  0  0  0  0  0  0  0
   -0.8026   23.7488   31.1250 C   0  0  0  0  0  0  0  0  0  0  0  0
   -0.4858   24.9904   31.4847 C   0  0  0  0  0  0  0  0  0  0  0  0
   -0.0934   21.8978   31.6988 H   0  0  0  0  0  0  0  0  0  0  0  0
   -1.9384   25.9763   27.1518 C   0  0  0  0  0  0  0  0  0  0  0  0
   -1.5937   26.9732   26.0400 C   0  0  0  0  0  0  0  0  0  0  0  0
   -0.1341   27.1626   25.9509 N   0  0  0  0  0  0  0  0  0  0  0  0
    0.2317   28.1699   24.9375 C   0  0  0  0  0  0  0  0  0  0  0  0
    1.7541   28.3018   24.8806 C   0  0  0  0  0  0  0  0  0  0  0  0
   -0.3158   27.8384   23.5419 C   0  0  0  0  0  0  0  0  0  0  0  0
    0.3661   26.7063   22.9929 O   0  0  0  0  0  0  0  0  0  0  0  0
   -1.8144   27.5351   23.6265 C   0  0  0  0  0  0  0  0  0  0  0  0
   -2.3331   27.0900   22.3716 O   0  0  0  0  0  0  0  0  0  0  0  0
   -2.0217   26.4359   24.6679 C   0  0  0  0  0  0  0  0  0  0  0  0
   -3.3920   26.0351   24.6242 O   0  0  0  0  0  0  0  0  0  0  0  0
    0.2988   26.2732   25.7023 H   0  0  0  0  0  0  0  0  0  0  0  0
    0.2255   25.9355   23.5648 H   0  0  0  0  0  0  0  0  0  0  0  0
   -1.8784   26.2761   22.1041 H   0  0  0  0  0  0  0  0  0  0  0  0
   -3.9590   26.8017   24.8023 H   0  0  0  0  0  0  0  0  0  0  0  0
  6  7  2  0  0  0
  6 11  1  0  0  0
  6 14  1  0  0  0
  7  8  1  0  0  0
  8  9  2  0  0  0
  9 10  1  0  0  0
 10 11  2  0  0  0
 11 12  1  0  0  0
 12 13  1  0  0  0
 13 14  2  0  0  0
 14  5  1  0  0  0
  5  1  1  0  0  0
  1  2  2  0  0  0
  1  3  1  0  0  0
  3 16  1  0  0  0
 16 17  1  0  0  0
 17 18  1  0  0  0
 17 25  1  0  0  0
 18 19  1  0  0  0
 19 20  1  0  0  0
 19 21  1  0  0  0
 21 22  1  0  0  0
 21 23  1  0  0  0
 23 24  1  0  0  0
 23 25  1  0  0  0
 25 26  1  0  0  0
 12 15  1  0  0  0
  3  4  1  0  0  0
 18 27  1  0  0  0
 22 28  1  0  0  0
 24 29  1  0  0  0
 26 30  1  0  0  0
M  END
> <minimizedAffinity>
-10.37602

$$$$
2ZX6_ZX6_A_901


 30 32  0  0  0  0  0  0  0  0999 V2000
   -2.1326   26.9189   29.5416 C   0  0  0  0  0  0  0  0  0  0  0  0
   -0.9608   26.8875   29.9148 O   0  0  0  0  0  0  0  0  0  0  0  0
   -2.5196   26.4476   28.3570 N   0  0  0  0  0  0  0  0  0  0  0  0
   -3.4834   26.3744   28.1699 H   0  0  0  0  0  0  0  0  0  0  0  0
   -3.2012   27.3843   30.5378 C   0  0  0  0  0  0  0  0  0  0  0  0
   -5.3472   27.3613   29.0123 C   0  0  0  0  0  0  0  0  0  0  0  0
   -5.0151   28.0266   27.8382 C   0  0  0  0  0  0  0  0  0  0  0  0
   -5.9535   28.1440   26.8160 C   0  0  0  0  0  0  0  0  0  0  0  0
   -7.2262   27.6033   26.9660 C   0  0  0  0  0  0  0  0  0  0  0  0
   -7.5603   26.9399   28.1433 C   0  0  0  0  0  0  0  0  0  0  0  0
   -6.6190   26.8182   29.1596 C   0  0  0  0  0  0  0  0  0  0  0  0
   -6.6533   26.2067   30.3399 N   0  0  0  0  0  0  0  0  0  0  0  0
   -5.4717   26.3372   30.9409 C   0  0  0  0  0  0  0  0  0  0  0  0
   -4.6435   27.0335   30.1662 C   0  0  0  0  0  0  0  0  0  0  0  0
   -7.4311   25.7313   30.7118 H   0  0  0  0  0  0  0  0  0  0  0  0
   -1.5637   26.0317   27.3155 C   0  0  0  0  0  0  0  0  0  0  0  0
   -1.4052   26.9801   26.1222 C   0  0  0  0  0  0  0  0  0  0  0  0
    0.0189   27.2831   25.8893 N   0  0  0  0  0  0  0  0  0  0  0  0
    0.2060   28.2500   24.7913 C   0  0  0  0  0  0  0  0  0  0  0  0
    1.7002   28.5030   24.5879 C   0  0  0  0  0  0  0  0  0  0  0  0
   -0.4288   27.7855   23.4726 C   0  0  0  0  0  0  0  0  0  0  0  0
    0.3000   26.6806   22.9285 O   0  0  0  0  0  0  0  0  0  0  0  0
   -1.8821   27.3658   23.7111 C   0  0  0  0  0  0  0  0  0  0  0  0
   -2.4661   26.7998   22.5361 O   0  0  0  0  0  0  0  0  0  0  0  0
   -1.9012   26.3224   24.8277 C   0  0  0  0  0  0  0  0  0  0  0  0
   -3.2297   25.8080   24.9322 O   0  0  0  0  0  0  0  0  0  0  0  0
    0.5052   26.4183   25.6528 H   0  0  0  0  0  0  0  0  0  0  0  0
    0.2775   25.9392   23.5536 H   0  0  0  0  0  0  0  0  0  0  0  0
   -1.9664   26.0106   22.2746 H   0  0  0  0  0  0  0  0  0  0  0  0
   -3.8443   26.5351   25.1178 H   0  0  0  0  0  0  0  0  0  0  0  0
  6  7  2  0  0  0
  6 11  1  0  0  0
  6 14  1  0  0  0
  7  8  1  0  0  0
  8  9  2  0  0  0
  9 10  1  0  0  0
 10 11  2  0  0  0
 11 12  1  0  0  0
 12 13  1  0  0  0
 13 14  2  0  0  0
 14  5  1  0  0  0
  5  1  1  0  0  0
  1  2  2  0  0  0
  1  3  1  0  0  0
  3 16  1  0  0  0
 16 17  1  0  0  0
 17 18  1  0  0  0
 17 25  1  0  0  0
 18 19  1  0  0  0
 19 20  1  0  0  0
 19 21  1  0  0  0
 21 22  1  0  0  0
 21 23  1  0  0  0
 23 24  1  0  0  0
 23 25  1  0  0  0
 25 26  1  0  0  0
 12 15  1  0  0  0
  3  4  1  0  0  0
 18 27  1  0  0  0
 22 28  1  0  0  0
 24 29  1  0  0  0
 26 30  1  0  0  0
M  END
> <minimizedAffinity>
-10.13616

$$$$
2ZX6_ZX6_A_901


 30 32  0  0  0  0  0  0  0  0999 V2000
   -1.3696   26.2136   29.6228 C   0  0  0  0  0  0  0  0  0  0  0  0
   -0.8384   25.1041   29.6312 O   0  0  0  0  0  0  0  0  0  0  0  0
   -1.9628   26.7153   28.5404 N   0  0  0  0  0  0  0  0  0  0  0  0
   -2.4873   27.5435   28.6305 H   0  0  0  0  0  0  0  0  0  0  0  0
   -1.4770   26.9788   30.9472 C   0  0  0  0  0  0  0  0  0  0  0  0
   -3.7761   27.1948   32.2123 C   0  0  0  0  0  0  0  0  0  0  0  0
   -4.3438   28.3995   31.8152 C   0  0  0  0  0  0  0  0  0  0  0  0
   -5.5945   28.7727   32.3010 C   0  0  0  0  0  0  0  0  0  0  0  0
   -6.2775   27.9476   33.1882 C   0  0  0  0  0  0  0  0  0  0  0  0
   -5.7076   26.7424   33.5889 C   0  0  0  0  0  0  0  0  0  0  0  0
   -4.4618   26.3692   33.0968 C   0  0  0  0  0  0  0  0  0  0  0  0
   -3.7244   25.2761   33.2694 N   0  0  0  0  0  0  0  0  0  0  0  0
   -2.6131   25.3718   32.5412 C   0  0  0  0  0  0  0  0  0  0  0  0
   -2.6034   26.5259   31.8786 C   0  0  0  0  0  0  0  0  0  0  0  0
   -3.9627   24.5145   33.8458 H   0  0  0  0  0  0  0  0  0  0  0  0
   -1.8657   26.0807   27.2139 C   0  0  0  0  0  0  0  0  0  0  0  0
   -1.5900   27.0170   26.0325 C   0  0  0  0  0  0  0  0  0  0  0  0
   -0.1426   27.2635   25.8960 N   0  0  0  0  0  0  0  0  0  0  0  0
    0.1559   28.2176   24.8116 C   0  0  0  0  0  0  0  0  0  0  0  0
    1.6692   28.4114   24.7094 C   0  0  0  0  0  0  0  0  0  0  0  0
   -0.4060   27.7724   23.4537 C   0  0  0  0  0  0  0  0  0  0  0  0
    0.3141   26.6376   22.9621 O   0  0  0  0  0  0  0  0  0  0  0  0
   -1.8874   27.4105   23.5940 C   0  0  0  0  0  0  0  0  0  0  0  0
   -2.4123   26.8626   22.3831 O   0  0  0  0  0  0  0  0  0  0  0  0
   -2.0227   26.3735   24.7085 C   0  0  0  0  0  0  0  0  0  0  0  0
   -3.3743   25.9116   24.7238 O   0  0  0  0  0  0  0  0  0  0  0  0
    0.3243   26.3793   25.6945 H   0  0  0  0  0  0  0  0  0  0  0  0
    0.2205   25.9003   23.5855 H   0  0  0  0  0  0  0  0  0  0  0  0
   -1.9274   26.0534   22.1575 H   0  0  0  0  0  0  0  0  0  0  0  0
   -3.9712   26.6629   24.8661 H   0  0  0  0  0  0  0  0  0  0  0  0
  6  7  2  0  0  0
  6 11  1  0  0  0
  6 14  1  0  0  0
  7  8  1  0  0  0
  8  9  2  0  0  0
  9 10  1  0  0  0
 10 11  2  0  0  0
 11 12  1  0  0  0
 12 13  1  0  0  0
 13 14  2  0  0  0
 14  5  1  0  0  0
  5  1  1  0  0  0
  1  2  2  0  0  0
  1  3  1  0  0  0
  3 16  1  0  0  0
 16 17  1  0  0  0
 17 18  1  0  0  0
 17 25  1  0  0  0
 18 19  1  0  0  0
 19 20  1  0  0  0
 19 21  1  0  0  0
 21 22  1  0  0  0
 21 23  1  0  0  0
 23 24  1  0  0  0
 23 25  1  0  0  0
 25 26  1  0  0  0
 12 15  1  0  0  0
  3  4  1  0  0  0
 18 27  1  0  0  0
 22 28  1  0  0  0
 24 29  1  0  0  0
 26 30  1  0  0  0
M  END
> <minimizedAffinity>
-9.92462

$$$$
2ZX6_ZX6_A_901


 30 32  0  0  0  0  0  0  0  0999 V2000
   -1.2655   26.5635   30.8949 C   0  0  0  0  0  0  0  0  0  0  0  0
   -0.3399   27.3699   30.9736 O   0  0  0  0  0  0  0  0  0  0  0  0
   -1.1579   25.3060   31.3222 N   0  0  0  0  0  0  0  0  0  0  0  0
   -1.9688   24.7490   31.3597 H   0  0  0  0  0  0  0  0  0  0  0  0
   -2.6333   27.0697   30.4219 C   0  0  0  0  0  0  0  0  0  0  0  0
   -4.0748   27.2105   28.2229 C   0  0  0  0  0  0  0  0  0  0  0  0
   -5.2708   27.8311   28.5632 C   0  0  0  0  0  0  0  0  0  0  0  0
   -6.2307   28.0758   27.5844 C   0  0  0  0  0  0  0  0  0  0  0  0
   -6.0012   27.6963   26.2661 C   0  0  0  0  0  0  0  0  0  0  0  0
   -4.8048   27.0715   25.9255 C   0  0  0  0  0  0  0  0  0  0  0  0
   -3.8454   26.8346   26.9038 C   0  0  0  0  0  0  0  0  0  0  0  0
   -2.6234   26.3131   26.8483 N   0  0  0  0  0  0  0  0  0  0  0  0
   -2.0742   26.3413   28.0615 C   0  0  0  0  0  0  0  0  0  0  0  0
   -2.9240   26.8821   28.9313 C   0  0  0  0  0  0  0  0  0  0  0  0
   -2.1917   25.9608   26.0367 H   0  0  0  0  0  0  0  0  0  0  0  0
    0.1255   24.7153   31.7410 C   0  0  0  0  0  0  0  0  0  0  0  0
    0.4192   24.7272   33.2451 C   0  0  0  0  0  0  0  0  0  0  0  0
    0.4879   23.3504   33.7685 N   0  0  0  0  0  0  0  0  0  0  0  0
    0.6993   23.3237   35.2280 C   0  0  0  0  0  0  0  0  0  0  0  0
    0.7828   21.8721   35.7014 C   0  0  0  0  0  0  0  0  0  0  0  0
    1.9584   24.0875   35.6625 C   0  0  0  0  0  0  0  0  0  0  0  0
    3.1360   23.3867   35.2499 O   0  0  0  0  0  0  0  0  0  0  0  0
    1.9597   25.4885   35.0442 C   0  0  0  0  0  0  0  0  0  0  0  0
    3.1796   26.1820   35.3143 O   0  0  0  0  0  0  0  0  0  0  0  0
    1.7947   25.3436   33.5317 C   0  0  0  0  0  0  0  0  0  0  0  0
    1.9668   26.6326   32.9406 O   0  0  0  0  0  0  0  0  0  0  0  0
    1.2612   22.8639   33.3148 H   0  0  0  0  0  0  0  0  0  0  0  0
    3.1455   23.3118   34.2828 H   0  0  0  0  0  0  0  0  0  0  0  0
    3.9232   25.6877   34.9355 H   0  0  0  0  0  0  0  0  0  0  0  0
    1.3136   27.2474   33.3098 H   0  0  0  0  0  0  0  0  0  0  0  0
  6  7  2  0  0  0
  6 11  1  0  0  0
  6 14  1  0  0  0
  7  8  1  0  0  0
  8  9  2  0  0  0
  9 10  1  0  0  0
 10 11  2  0  0  0
 11 12  1  0  0  0
 12 13  1  0  0  0
 13 14  2  0  0  0
 14  5  1  0  0  0
  5  1  1  0  0  0
  1  2  2  0  0  0
  1  3  1  0  0  0
  3 16  1  0  0  0
 16 17  1  0  0  0
 17 18  1  0  0  0
 17 25  1  0  0  0
 18 19  1  0  0  0
 19 20  1  0  0  0
 19 21  1  0  0  0
 21 22  1  0  0  0
 21 23  1  0  0  0
 23 24  1  0  0  0
 23 25  1  0  0  0
 25 26  1  0  0  0
 12 15  1  0  0  0
  3  4  1  0  0  0
 18 27  1  0  0  0
 22 28  1  0  0  0
 24 29  1  0  0  0
 26 30  1  0  0  0
M  END
> <minimizedAffinity>
-9.01050

$$$$
2ZX6_ZX6_A_901


 30 32  0  0  0  0  0  0  0  0999 V2000
   -1.7442   26.8321   30.2791 C   0  0  0  0  0  0  0  0  0  0  0  0
   -1.2965   26.4707   29.1918 O   0  0  0  0  0  0  0  0  0  0  0  0
   -1.2887   26.3532   31.4360 N   0  0  0  0  0  0  0  0  0  0  0  0
   -1.5873   26.7770   32.2729 H   0  0  0  0  0  0  0  0  0  0  0  0
   -2.7602   27.9803   30.3023 C   0  0  0  0  0  0  0  0  0  0  0  0
   -4.8492   27.5204   28.7668 C   0  0  0  0  0  0  0  0  0  0  0  0
   -4.4378   27.7214   27.4546 C   0  0  0  0  0  0  0  0  0  0  0  0
   -5.3313   27.5164   26.4064 C   0  0  0  0  0  0  0  0  0  0  0  0
   -6.6379   27.1164   26.6660 C   0  0  0  0  0  0  0  0  0  0  0  0
   -7.0514   26.9183   27.9804 C   0  0  0  0  0  0  0  0  0  0  0  0
   -6.1550   27.1172   29.0247 C   0  0  0  0  0  0  0  0  0  0  0  0
   -6.2662   26.9559   30.3400 N   0  0  0  0  0  0  0  0  0  0  0  0
   -5.1008   27.2365   30.9209 C   0  0  0  0  0  0  0  0  0  0  0  0
   -4.2067   27.5842   29.9985 C   0  0  0  0  0  0  0  0  0  0  0  0
   -7.0830   26.6731   30.8112 H   0  0  0  0  0  0  0  0  0  0  0  0
   -0.3560   25.2149   31.5137 C   0  0  0  0  0  0  0  0  0  0  0  0
    0.1643   24.8581   32.9103 C   0  0  0  0  0  0  0  0  0  0  0  0
    0.5866   23.4462   32.9587 N   0  0  0  0  0  0  0  0  0  0  0  0
    1.0279   23.0471   34.3083 C   0  0  0  0  0  0  0  0  0  0  0  0
    1.4714   21.5839   34.2844 C   0  0  0  0  0  0  0  0  0  0  0  0
    2.1633   23.9277   34.8495 C   0  0  0  0  0  0  0  0  0  0  0  0
    3.3758   23.6781   34.1313 O   0  0  0  0  0  0  0  0  0  0  0  0
    1.7888   25.4063   34.7130 C   0  0  0  0  0  0  0  0  0  0  0  0
    2.8742   26.2603   35.0802 O   0  0  0  0  0  0  0  0  0  0  0  0
    1.4181   25.6729   33.2545 C   0  0  0  0  0  0  0  0  0  0  0  0
    1.2353   27.0803   33.0927 O   0  0  0  0  0  0  0  0  0  0  0  0
    1.3590   23.3110   32.3063 H   0  0  0  0  0  0  0  0  0  0  0  0
    3.2464   23.8922   33.1942 H   0  0  0  0  0  0  0  0  0  0  0  0
    3.6314   26.0891   34.4986 H   0  0  0  0  0  0  0  0  0  0  0  0
    0.5403   27.3875   33.6956 H   0  0  0  0  0  0  0  0  0  0  0  0
  6  7  2  0  0  0
  6 11  1  0  0  0
  6 14  1  0  0  0
  7  8  1  0  0  0
  8  9  2  0  0  0
  9 10  1  0  0  0
 10 11  2  0  0  0
 11 12  1  0  0  0
 12 13  1  0  0  0
 13 14  2  0  0  0
 14  5  1  0  0  0
  5  1  1  0  0  0
  1  2  2  0  0  0
  1  3  1  0  0  0
  3 16  1  0  0  0
 16 17  1  0  0  0
 17 18  1  0  0  0
 17 25  1  0  0  0
 18 19  1  0  0  0
 19 20  1  0  0  0
 19 21  1  0  0  0
 21 22  1  0  0  0
 21 23  1  0  0  0
 23 24  1  0  0  0
 23 25  1  0  0  0
 25 26  1  0  0  0
 12 15  1  0  0  0
  3  4  1  0  0  0
 18 27  1  0  0  0
 22 28  1  0  0  0
 24 29  1  0  0  0
 26 30  1  0  0  0
M  END
> <minimizedAffinity>
-8.90650

$$$$
2ZX6_ZX6_A_901


 30 32  0  0  0  0  0  0  0  0999 V2000
   -1.3986   27.1573   31.4250 C   0  0  0  0  0  0  0  0  0  0  0  0
   -0.4093   27.4655   30.7620 O   0  0  0  0  0  0  0  0  0  0  0  0
   -2.6362   27.2180   30.9352 N   0  0  0  0  0  0  0  0  0  0  0  0
   -3.3722   26.8311   31.4622 H   0  0  0  0  0  0  0  0  0  0  0  0
   -1.1817   26.5442   32.8136 C   0  0  0  0  0  0  0  0  0  0  0  0
   -0.4588   24.0233   32.5775 C   0  0  0  0  0  0  0  0  0  0  0  0
   -1.5700   23.3260   32.1188 C   0  0  0  0  0  0  0  0  0  0  0  0
   -1.4778   21.9598   31.8652 C   0  0  0  0  0  0  0  0  0  0  0  0
   -0.2789   21.2864   32.0746 C   0  0  0  0  0  0  0  0  0  0  0  0
    0.8333   21.9839   32.5374 C   0  0  0  0  0  0  0  0  0  0  0  0
    0.7402   23.3494   32.7832 C   0  0  0  0  0  0  0  0  0  0  0  0
    1.6379   24.2499   33.1724 N   0  0  0  0  0  0  0  0  0  0  0  0
    1.0666   25.4522   33.2222 C   0  0  0  0  0  0  0  0  0  0  0  0
   -0.2124   25.3614   32.8657 C   0  0  0  0  0  0  0  0  0  0  0  0
    2.5787   24.0579   33.3899 H   0  0  0  0  0  0  0  0  0  0  0  0
   -2.9480   27.8409   29.6366 C   0  0  0  0  0  0  0  0  0  0  0  0
   -3.4839   26.9060   28.5469 C   0  0  0  0  0  0  0  0  0  0  0  0
   -4.5565   27.5673   27.7810 N   0  0  0  0  0  0  0  0  0  0  0  0
   -5.1455   26.6715   26.7681 C   0  0  0  0  0  0  0  0  0  0  0  0
   -6.2318   27.4227   25.9976 C   0  0  0  0  0  0  0  0  0  0  0  0
   -4.1038   26.1115   25.7888 C   0  0  0  0  0  0  0  0  0  0  0  0
   -3.6227   27.1458   24.9247 O   0  0  0  0  0  0  0  0  0  0  0  0
   -2.9275   25.5107   26.5637 C   0  0  0  0  0  0  0  0  0  0  0  0
   -1.8749   25.1010   25.6884 O   0  0  0  0  0  0  0  0  0  0  0  0
   -2.3920   26.5751   27.5209 C   0  0  0  0  0  0  0  0  0  0  0  0
   -1.1944   26.0744   28.1169 O   0  0  0  0  0  0  0  0  0  0  0  0
   -4.1692   28.3858   27.3115 H   0  0  0  0  0  0  0  0  0  0  0  0
   -3.1988   27.8389   25.4548 H   0  0  0  0  0  0  0  0  0  0  0  0
   -1.5466   25.8693   25.1957 H   0  0  0  0  0  0  0  0  0  0  0  0
   -1.3870   25.2455   28.5825 H   0  0  0  0  0  0  0  0  0  0  0  0
  6  7  2  0  0  0
  6 11  1  0  0  0
  6 14  1  0  0  0
  7  8  1  0  0  0
  8  9  2  0  0  0
  9 10  1  0  0  0
 10 11  2  0  0  0
 11 12  1  0  0  0
 12 13  1  0  0  0
 13 14  2  0  0  0
 14  5  1  0  0  0
  5  1  1  0  0  0
  1  2  2  0  0  0
  1  3  1  0  0  0
  3 16  1  0  0  0
 16 17  1  0  0  0
 17 18  1  0  0  0
 17 25  1  0  0  0
 18 19  1  0  0  0
 19 20  1  0  0  0
 19 21  1  0  0  0
 21 22  1  0  0  0
 21 23  1  0  0  0
 23 24  1  0  0  0
 23 25  1  0  0  0
 25 26  1  0  0  0
 12 15  1  0  0  0
  3  4  1  0  0  0
 18 27  1  0  0  0
 22 28  1  0  0  0
 24 29  1  0  0  0
 26 30  1  0  0  0
M  END
> <minimizedAffinity>
-8.32112

$$$$
2ZX6_ZX6_A_901


 30 32  0  0  0  0  0  0  0  0999 V2000
   -1.8608   26.7634   30.3953 C   0  0  0  0  0  0  0  0  0  0  0  0
   -0.6674   27.0142   30.5574 O   0  0  0  0  0  0  0  0  0  0  0  0
   -2.3262   25.5175   30.3159 N   0  0  0  0  0  0  0  0  0  0  0  0
   -3.3005   25.3759   30.3237 H   0  0  0  0  0  0  0  0  0  0  0  0
   -2.8602   27.9256   30.4327 C   0  0  0  0  0  0  0  0  0  0  0  0
   -4.8812   27.5105   28.7968 C   0  0  0  0  0  0  0  0  0  0  0  0
   -4.3991   27.6897   27.5058 C   0  0  0  0  0  0  0  0  0  0  0  0
   -5.2441   27.5006   26.4152 C   0  0  0  0  0  0  0  0  0  0  0  0
   -6.5727   27.1386   26.6112 C   0  0  0  0  0  0  0  0  0  0  0  0
   -7.0569   26.9624   27.9044 C   0  0  0  0  0  0  0  0  0  0  0  0
   -6.2090   27.1452   28.9912 C   0  0  0  0  0  0  0  0  0  0  0  0
   -6.3906   26.9977   30.3002 N   0  0  0  0  0  0  0  0  0  0  0  0
   -5.2486   27.2510   30.9373 C   0  0  0  0  0  0  0  0  0  0  0  0
   -4.2999   27.5668   30.0590 C   0  0  0  0  0  0  0  0  0  0  0  0
   -7.2376   26.7410   30.7315 H   0  0  0  0  0  0  0  0  0  0  0  0
   -1.4420   24.3428   30.2169 C   0  0  0  0  0  0  0  0  0  0  0  0
   -1.2655   23.5167   31.4956 C   0  0  0  0  0  0  0  0  0  0  0  0
   -1.6537   22.1136   31.2613 N   0  0  0  0  0  0  0  0  0  0  0  0
   -1.5640   21.3027   32.4900 C   0  0  0  0  0  0  0  0  0  0  0  0
   -1.9572   19.8591   32.1743 C   0  0  0  0  0  0  0  0  0  0  0  0
   -0.1668   21.3357   33.1260 C   0  0  0  0  0  0  0  0  0  0  0  0
    0.7697   20.6209   32.3135 O   0  0  0  0  0  0  0  0  0  0  0  0
    0.3019   22.7850   33.2836 C   0  0  0  0  0  0  0  0  0  0  0  0
    1.6521   22.8542   33.7464 O   0  0  0  0  0  0  0  0  0  0  0  0
    0.2082   23.4687   31.9200 C   0  0  0  0  0  0  0  0  0  0  0  0
    0.8035   24.7626   32.0299 O   0  0  0  0  0  0  0  0  0  0  0  0
   -1.0338   21.7137   30.5569 H   0  0  0  0  0  0  0  0  0  0  0  0
    0.8243   21.0384   31.4397 H   0  0  0  0  0  0  0  0  0  0  0  0
    2.2362   22.4195   33.1055 H   0  0  0  0  0  0  0  0  0  0  0  0
    0.3425   25.2735   32.7136 H   0  0  0  0  0  0  0  0  0  0  0  0
  6  7  2  0  0  0
  6 11  1  0  0  0
  6 14  1  0  0  0
  7  8  1  0  0  0
  8  9  2  0  0  0
  9 10  1  0  0  0
 10 11  2  0  0  0
 11 12  1  0  0  0
 12 13  1  0  0  0
 13 14  2  0  0  0
 14  5  1  0  0  0
  5  1  1  0  0  0
  1  2  2  0  0  0
  1  3  1  0  0  0
  3 16  1  0  0  0
 16 17  1  0  0  0
 17 18  1  0  0  0
 17 25  1  0  0  0
 18 19  1  0  0  0
 19 20  1  0  0  0
 19 21  1  0  0  0
 21 22  1  0  0  0
 21 23  1  0  0  0
 23 24  1  0  0  0
 23 25  1  0  0  0
 25 26  1  0  0  0
 12 15  1  0  0  0
  3  4  1  0  0  0
 18 27  1  0  0  0
 22 28  1  0  0  0
 24 29  1  0  0  0
 26 30  1  0  0  0
M  END
> <minimizedAffinity>
-8.09293

$$$$
2ZX6_ZX6_A_901


 30 32  0  0  0  0  0  0  0  0999 V2000
   -1.9774   26.0962   31.2688 C   0  0  0  0  0  0  0  0  0  0  0  0
   -2.7765   25.1764   31.4381 O   0  0  0  0  0  0  0  0  0  0  0  0
   -0.6603   25.9303   31.3817 N   0  0  0  0  0  0  0  0  0  0  0  0
   -0.0662   26.6640   31.1024 H   0  0  0  0  0  0  0  0  0  0  0  0
   -2.5134   27.4427   30.7681 C   0  0  0  0  0  0  0  0  0  0  0  0
   -3.2117   26.9343   28.2807 C   0  0  0  0  0  0  0  0  0  0  0  0
   -2.0949   26.4006   27.6489 C   0  0  0  0  0  0  0  0  0  0  0  0
   -2.1741   25.9996   26.3176 C   0  0  0  0  0  0  0  0  0  0  0  0
   -3.3656   26.1362   25.6132 C   0  0  0  0  0  0  0  0  0  0  0  0
   -4.4835   26.6740   26.2447 C   0  0  0  0  0  0  0  0  0  0  0  0
   -4.4033   27.0671   27.5761 C   0  0  0  0  0  0  0  0  0  0  0  0
   -5.3090   27.5535   28.4197 N   0  0  0  0  0  0  0  0  0  0  0  0
   -4.7495   27.7333   29.6151 C   0  0  0  0  0  0  0  0  0  0  0  0
   -3.4707   27.3671   29.5767 C   0  0  0  0  0  0  0  0  0  0  0  0
   -6.2472   27.7503   28.1955 H   0  0  0  0  0  0  0  0  0  0  0  0
   -0.0565   24.6932   31.9078 C   0  0  0  0  0  0  0  0  0  0  0  0
    0.3514   24.7122   33.3849 C   0  0  0  0  0  0  0  0  0  0  0  0
    0.4477   23.3383   33.9115 N   0  0  0  0  0  0  0  0  0  0  0  0
    0.7699   23.3192   35.3507 C   0  0  0  0  0  0  0  0  0  0  0  0
    0.8765   21.8701   35.8270 C   0  0  0  0  0  0  0  0  0  0  0  0
    2.0652   24.0740   35.6823 C   0  0  0  0  0  0  0  0  0  0  0  0
    3.2016   23.3596   35.1859 O   0  0  0  0  0  0  0  0  0  0  0  0
    2.0316   25.4708   35.0555 C   0  0  0  0  0  0  0  0  0  0  0  0
    3.2746   26.1547   35.2266 O   0  0  0  0  0  0  0  0  0  0  0  0
    1.7502   25.3176   33.5611 C   0  0  0  0  0  0  0  0  0  0  0  0
    1.8880   26.6010   32.9493 O   0  0  0  0  0  0  0  0  0  0  0  0
    1.1797   22.8416   33.4037 H   0  0  0  0  0  0  0  0  0  0  0  0
    3.1364   23.2782   34.2216 H   0  0  0  0  0  0  0  0  0  0  0  0
    3.9828   25.6509   34.7956 H   0  0  0  0  0  0  0  0  0  0  0  0
    1.2704   27.2243   33.3628 H   0  0  0  0  0  0  0  0  0  0  0  0
  6  7  2  0  0  0
  6 11  1  0  0  0
  6 14  1  0  0  0
  7  8  1  0  0  0
  8  9  2  0  0  0
  9 10  1  0  0  0
 10 11  2  0  0  0
 11 12  1  0  0  0
 12 13  1  0  0  0
 13 14  2  0  0  0
 14  5  1  0  0  0
  5  1  1  0  0  0
  1  2  2  0  0  0
  1  3  1  0  0  0
  3 16  1  0  0  0
 16 17  1  0  0  0
 17 18  1  0  0  0
 17 25  1  0  0  0
 18 19  1  0  0  0
 19 20  1  0  0  0
 19 21  1  0  0  0
 21 22  1  0  0  0
 21 23  1  0  0  0
 23 24  1  0  0  0
 23 25  1  0  0  0
 25 26  1  0  0  0
 12 15  1  0  0  0
  3  4  1  0  0  0
 18 27  1  0  0  0
 22 28  1  0  0  0
 24 29  1  0  0  0
 26 30  1  0  0  0
M  END
> <minimizedAffinity>
-8.05019

$$$$
2ZX6_ZX6_A_901


 30 32  0  0  0  0  0  0  0  0999 V2000
   -1.7695   26.9626   30.4852 C   0  0  0  0  0  0  0  0  0  0  0  0
   -0.6058   27.3460   30.5954 O   0  0  0  0  0  0  0  0  0  0  0  0
   -2.0964   25.6720   30.4342 N   0  0  0  0  0  0  0  0  0  0  0  0
   -3.0477   25.4234   30.4839 H   0  0  0  0  0  0  0  0  0  0  0  0
   -2.8896   28.0073   30.5562 C   0  0  0  0  0  0  0  0  0  0  0  0
   -4.9089   27.4669   28.9551 C   0  0  0  0  0  0  0  0  0  0  0  0
   -4.5068   27.8072   27.6691 C   0  0  0  0  0  0  0  0  0  0  0  0
   -5.3660   27.5979   26.5933 C   0  0  0  0  0  0  0  0  0  0  0  0
   -6.6296   27.0545   26.7998 C   0  0  0  0  0  0  0  0  0  0  0  0
   -7.0341   26.7168   28.0883 C   0  0  0  0  0  0  0  0  0  0  0  0
   -6.1713   26.9205   29.1596 C   0  0  0  0  0  0  0  0  0  0  0  0
   -6.2787   26.6485   30.4568 N   0  0  0  0  0  0  0  0  0  0  0  0
   -5.1519   26.9950   31.0769 C   0  0  0  0  0  0  0  0  0  0  0  0
   -4.2874   27.4977   30.1988 C   0  0  0  0  0  0  0  0  0  0  0  0
   -7.0684   26.2525   30.8914 H   0  0  0  0  0  0  0  0  0  0  0  0
   -1.0918   24.6014   30.3066 C   0  0  0  0  0  0  0  0  0  0  0  0
   -0.5447   24.0247   31.6169 C   0  0  0  0  0  0  0  0  0  0  0  0
    0.6006   24.8219   32.0932 N   0  0  0  0  0  0  0  0  0  0  0  0
    1.1985   24.2547   33.3164 C   0  0  0  0  0  0  0  0  0  0  0  0
    2.3624   25.1375   33.7680 C   0  0  0  0  0  0  0  0  0  0  0  0
    0.1854   24.1015   34.4600 C   0  0  0  0  0  0  0  0  0  0  0  0
   -0.1943   25.3847   34.9672 O   0  0  0  0  0  0  0  0  0  0  0  0
   -1.0608   23.3655   33.9596 C   0  0  0  0  0  0  0  0  0  0  0  0
   -2.0829   23.3226   34.9574 O   0  0  0  0  0  0  0  0  0  0  0  0
   -1.5936   24.1065   32.7338 C   0  0  0  0  0  0  0  0  0  0  0  0
   -2.8462   23.5230   32.3718 O   0  0  0  0  0  0  0  0  0  0  0  0
    0.2818   25.7703   32.2918 H   0  0  0  0  0  0  0  0  0  0  0  0
   -0.6111   25.9015   34.2600 H   0  0  0  0  0  0  0  0  0  0  0  0
   -2.3441   24.2269   35.1917 H   0  0  0  0  0  0  0  0  0  0  0  0
   -2.7219   22.5789   32.1873 H   0  0  0  0  0  0  0  0  0  0  0  0
  6  7  2  0  0  0
  6 11  1  0  0  0
  6 14  1  0  0  0
  7  8  1  0  0  0
  8  9  2  0  0  0
  9 10  1  0  0  0
 10 11  2  0  0  0
 11 12  1  0  0  0
 12 13  1  0  0  0
 13 14  2  0  0  0
 14  5  1  0  0  0
  5  1  1  0  0  0
  1  2  2  0  0  0
  1  3  1  0  0  0
  3 16  1  0  0  0
 16 17  1  0  0  0
 17 18  1  0  0  0
 17 25  1  0  0  0
 18 19  1  0  0  0
 19 20  1  0  0  0
 19 21  1  0  0  0
 21 22  1  0  0  0
 21 23  1  0  0  0
 23 24  1  0  0  0
 23 25  1  0  0  0
 25 26  1  0  0  0
 12 15  1  0  0  0
  3  4  1  0  0  0
 18 27  1  0  0  0
 22 28  1  0  0  0
 24 29  1  0  0  0
 26 30  1  0  0  0
M  END
> <minimizedAffinity>
-7.88112

$$$$
