4Z83_4L7_E_401


 26 29  0  0  0  0  0  0  0  0999 V2000
  -14.0707  -10.4150    6.1424 C   0  0  0  0  0  0  0  0  0  0  0  0
  -15.1829   -9.3495    6.1144 C   0  0  0  0  0  0  0  0  0  0  0  0
  -13.3297   -8.4343    7.2221 C   0  0  0  0  0  0  0  0  0  0  0  0
  -14.6631   -8.1259    6.7468 N   0  0  0  0  0  0  0  0  0  0  0  0
  -13.2284   -9.9781    7.3775 C   0  0  0  0  0  0  0  0  0  0  0  0
  -15.2600   -7.8535    7.5277 H   0  0  0  0  0  0  0  0  0  0  0  0
   -6.9663  -11.1490    8.7961 O   0  0  0  0  0  0  0  0  0  0  0  0
   -7.5591  -10.9101    7.7456 C   0  0  0  0  0  0  0  0  0  0  0  0
   -6.8666  -10.7186    6.5482 N   0  0  0  0  0  0  0  0  0  0  0  0
   -7.5002  -10.4641    5.3785 C   0  0  0  0  0  0  0  0  0  0  0  0
   -8.8217  -10.3324    5.2384 N   0  0  0  0  0  0  0  0  0  0  0  0
   -9.5932  -10.4922    6.3976 C   0  0  0  0  0  0  0  0  0  0  0  0
  -10.9782  -10.3343    6.2882 C   0  0  0  0  0  0  0  0  0  0  0  0
   -9.0265  -10.8036    7.6415 C   0  0  0  0  0  0  0  0  0  0  0  0
   -9.8555  -11.0216    8.7388 C   0  0  0  0  0  0  0  0  0  0  0  0
  -11.2257  -10.8759    8.6115 C   0  0  0  0  0  0  0  0  0  0  0  0
  -11.7963  -10.4720    7.4096 C   0  0  0  0  0  0  0  0  0  0  0  0
   -5.8835  -10.7703    6.5545 H   0  0  0  0  0  0  0  0  0  0  0  0
  -14.6570  -11.8180    6.1994 C   0  0  0  0  0  0  0  0  0  0  0  0
  -14.5888  -12.4969    7.2071 O   0  0  0  0  0  0  0  0  0  0  0  0
  -16.8398  -12.3010    0.9621 Br  0  0  0  0  0  0  0  0  0  0  0  0
  -16.2681  -13.7248    3.4051 C   0  0  0  0  0  0  0  0  0  0  0  0
  -15.7529  -13.5780    4.7059 C   0  0  0  0  0  0  0  0  0  0  0  0
  -15.3028  -12.3194    4.9851 C   0  0  0  0  0  0  0  0  0  0  0  0
  -16.2183  -12.5767    2.7082 C   0  0  0  0  0  0  0  0  0  0  0  0
  -15.5238  -11.2692    3.6046 S   0  0  0  0  0  0  0  0  0  0  0  0
 21 25  1  0  0  0
 22 25  2  0  0  0
 22 23  1  0  0  0
 25 26  1  0  0  0
 23 24  2  0  0  0
 11 10  2  0  0  0
 11 12  1  0  0  0
 10  9  1  0  0  0
 24 26  1  0  0  0
 24 19  1  0  0  0
 13 12  2  0  0  0
 13 17  1  0  0  0
  9  8  1  0  0  0
 12 14  1  0  0  0
  2  1  1  0  0  0
  2  4  1  0  0  0
  1 19  1  0  0  0
  1  5  1  0  0  0
 19 20  2  0  0  0
  4  3  1  0  0  0
  3  5  1  0  0  0
 17  5  1  0  0  0
 17 16  2  0  0  0
 14  8  1  0  0  0
 14 15  2  0  0  0
  8  7  2  0  0  0
 16 15  1  0  0  0
  4  6  1  0  0  0
  9 18  1  0  0  0
M  END
> <minimizedAffinity>
-10.48764

$$$$
4Z83_4L7_E_401


 26 29  0  0  0  0  0  0  0  0999 V2000
  -17.1416   -8.5802    6.7621 C   0  0  0  0  0  0  0  0  0  0  0  0
  -17.1249   -8.1958    8.2538 C   0  0  0  0  0  0  0  0  0  0  0  0
  -18.5139   -6.6776    7.1292 C   0  0  0  0  0  0  0  0  0  0  0  0
  -18.0263   -7.0472    8.4425 N   0  0  0  0  0  0  0  0  0  0  0  0
  -17.5089   -7.2296    6.0790 C   0  0  0  0  0  0  0  0  0  0  0  0
  -17.5188   -6.2676    8.8608 H   0  0  0  0  0  0  0  0  0  0  0  0
  -20.5979   -9.0879    0.6383 O   0  0  0  0  0  0  0  0  0  0  0  0
  -19.4989   -8.5777    0.8477 C   0  0  0  0  0  0  0  0  0  0  0  0
  -18.5743   -8.3959   -0.1830 N   0  0  0  0  0  0  0  0  0  0  0  0
  -17.3625   -7.8276    0.0238 C   0  0  0  0  0  0  0  0  0  0  0  0
  -16.9029   -7.4181    1.2090 N   0  0  0  0  0  0  0  0  0  0  0  0
  -17.7627   -7.5805    2.3039 C   0  0  0  0  0  0  0  0  0  0  0  0
  -17.3001   -7.1853    3.5628 C   0  0  0  0  0  0  0  0  0  0  0  0
  -19.0522   -8.1154    2.1751 C   0  0  0  0  0  0  0  0  0  0  0  0
  -19.8830   -8.1816    3.2905 C   0  0  0  0  0  0  0  0  0  0  0  0
  -19.4159   -7.7731    4.5273 C   0  0  0  0  0  0  0  0  0  0  0  0
  -18.1075   -7.3318    4.6908 C   0  0  0  0  0  0  0  0  0  0  0  0
  -18.8116   -8.6912   -1.0916 H   0  0  0  0  0  0  0  0  0  0  0  0
  -15.8175   -9.2005    6.3412 C   0  0  0  0  0  0  0  0  0  0  0  0
  -14.7746   -8.5757    6.3969 O   0  0  0  0  0  0  0  0  0  0  0  0
  -16.8095  -13.9126    3.3016 Br  0  0  0  0  0  0  0  0  0  0  0  0
  -15.4257  -12.8525    5.6003 C   0  0  0  0  0  0  0  0  0  0  0  0
  -15.2173  -11.6842    6.3557 C   0  0  0  0  0  0  0  0  0  0  0  0
  -15.8530  -10.5824    5.8593 C   0  0  0  0  0  0  0  0  0  0  0  0
  -16.2267  -12.6357    4.5431 C   0  0  0  0  0  0  0  0  0  0  0  0
  -16.7482  -10.9906    4.4138 S   0  0  0  0  0  0  0  0  0  0  0  0
 21 25  1  0  0  0
 22 25  2  0  0  0
 22 23  1  0  0  0
 25 26  1  0  0  0
 23 24  2  0  0  0
 11 10  2  0  0  0
 11 12  1  0  0  0
 10  9  1  0  0  0
 24 26  1  0  0  0
 24 19  1  0  0  0
 13 12  2  0  0  0
 13 17  1  0  0  0
  9  8  1  0  0  0
 12 14  1  0  0  0
  2  1  1  0  0  0
  2  4  1  0  0  0
  1 19  1  0  0  0
  1  5  1  0  0  0
 19 20  2  0  0  0
  4  3  1  0  0  0
  3  5  1  0  0  0
 17  5  1  0  0  0
 17 16  2  0  0  0
 14  8  1  0  0  0
 14 15  2  0  0  0
  8  7  2  0  0  0
 16 15  1  0  0  0
  4  6  1  0  0  0
  9 18  1  0  0  0
M  END
> <minimizedAffinity>
-9.65366

$$$$
4Z83_4L7_E_401


 26 29  0  0  0  0  0  0  0  0999 V2000
  -18.3032   -8.9865    0.2452 C   0  0  0  0  0  0  0  0  0  0  0  0
  -18.8502   -9.6060   -1.0549 C   0  0  0  0  0  0  0  0  0  0  0  0
  -20.6441   -9.3381    0.4314 C   0  0  0  0  0  0  0  0  0  0  0  0
  -20.3077   -9.7581   -0.9137 N   0  0  0  0  0  0  0  0  0  0  0  0
  -19.3565   -9.4460    1.2965 C   0  0  0  0  0  0  0  0  0  0  0  0
  -20.5743  -10.7326   -1.0543 H   0  0  0  0  0  0  0  0  0  0  0  0
  -18.1043   -6.1954    6.8157 O   0  0  0  0  0  0  0  0  0  0  0  0
  -18.9935   -6.9777    6.4849 C   0  0  0  0  0  0  0  0  0  0  0  0
  -19.9377   -7.4357    7.4062 N   0  0  0  0  0  0  0  0  0  0  0  0
  -20.9307   -8.2895    7.0610 C   0  0  0  0  0  0  0  0  0  0  0  0
  -21.1008   -8.8112    5.8434 N   0  0  0  0  0  0  0  0  0  0  0  0
  -20.1834   -8.4172    4.8597 C   0  0  0  0  0  0  0  0  0  0  0  0
  -20.3195   -8.9665    3.5811 C   0  0  0  0  0  0  0  0  0  0  0  0
  -19.1530   -7.5015    5.1155 C   0  0  0  0  0  0  0  0  0  0  0  0
  -18.3205   -7.0961    4.0755 C   0  0  0  0  0  0  0  0  0  0  0  0
  -18.4768   -7.6378    2.8118 C   0  0  0  0  0  0  0  0  0  0  0  0
  -19.4301   -8.6192    2.5641 C   0  0  0  0  0  0  0  0  0  0  0  0
  -19.8796   -7.1271    8.3392 H   0  0  0  0  0  0  0  0  0  0  0  0
  -16.8700   -9.4283    0.5022 C   0  0  0  0  0  0  0  0  0  0  0  0
  -15.9221   -8.7382    0.1762 O   0  0  0  0  0  0  0  0  0  0  0  0
  -15.8515  -13.5468    4.3005 Br  0  0  0  0  0  0  0  0  0  0  0  0
  -16.6503  -13.0099    1.5810 C   0  0  0  0  0  0  0  0  0  0  0  0
  -16.8676  -11.9794    0.6483 C   0  0  0  0  0  0  0  0  0  0  0  0
  -16.6799  -10.7251    1.1543 C   0  0  0  0  0  0  0  0  0  0  0  0
  -16.2875  -12.5350    2.7848 C   0  0  0  0  0  0  0  0  0  0  0  0
  -16.2118  -10.8068    2.8372 S   0  0  0  0  0  0  0  0  0  0  0  0
 21 25  1  0  0  0
 22 25  2  0  0  0
 22 23  1  0  0  0
 25 26  1  0  0  0
 23 24  2  0  0  0
 11 10  2  0  0  0
 11 12  1  0  0  0
 10  9  1  0  0  0
 24 26  1  0  0  0
 24 19  1  0  0  0
 13 12  2  0  0  0
 13 17  1  0  0  0
  9  8  1  0  0  0
 12 14  1  0  0  0
  2  1  1  0  0  0
  2  4  1  0  0  0
  1 19  1  0  0  0
  1  5  1  0  0  0
 19 20  2  0  0  0
  4  3  1  0  0  0
  3  5  1  0  0  0
 17  5  1  0  0  0
 17 16  2  0  0  0
 14  8  1  0  0  0
 14 15  2  0  0  0
  8  7  2  0  0  0
 16 15  1  0  0  0
  4  6  1  0  0  0
  9 18  1  0  0  0
M  END
> <minimizedAffinity>
-9.36698

$$$$
4Z83_4L7_E_401


 26 29  0  0  0  0  0  0  0  0999 V2000
  -16.8934  -12.7368    2.7595 C   0  0  0  0  0  0  0  0  0  0  0  0
  -16.2489  -14.1060    3.0477 C   0  0  0  0  0  0  0  0  0  0  0  0
  -16.0434  -12.7875    4.9760 C   0  0  0  0  0  0  0  0  0  0  0  0
  -15.7833  -14.1099    4.4443 N   0  0  0  0  0  0  0  0  0  0  0  0
  -16.1606  -11.8089    3.7733 C   0  0  0  0  0  0  0  0  0  0  0  0
  -14.7844  -14.3128    4.4809 H   0  0  0  0  0  0  0  0  0  0  0  0
  -18.1634   -6.2218    6.4880 O   0  0  0  0  0  0  0  0  0  0  0  0
  -18.7578   -7.2182    6.0807 C   0  0  0  0  0  0  0  0  0  0  0  0
  -20.1338   -7.3690    6.2650 N   0  0  0  0  0  0  0  0  0  0  0  0
  -20.8096   -8.4534    5.8160 C   0  0  0  0  0  0  0  0  0  0  0  0
  -20.2537   -9.4964    5.1941 N   0  0  0  0  0  0  0  0  0  0  0  0
  -18.8694   -9.4347    4.9835 C   0  0  0  0  0  0  0  0  0  0  0  0
  -18.2540  -10.5234    4.3581 C   0  0  0  0  0  0  0  0  0  0  0  0
  -18.0977   -8.3307    5.3722 C   0  0  0  0  0  0  0  0  0  0  0  0
  -16.7393   -8.3006    5.0677 C   0  0  0  0  0  0  0  0  0  0  0  0
  -16.1473   -9.3797    4.4352 C   0  0  0  0  0  0  0  0  0  0  0  0
  -16.8777  -10.5229    4.1308 C   0  0  0  0  0  0  0  0  0  0  0  0
  -20.6300   -6.6623    6.7379 H   0  0  0  0  0  0  0  0  0  0  0  0
  -16.7513  -12.3622    1.2915 C   0  0  0  0  0  0  0  0  0  0  0  0
  -16.2577  -13.1268    0.4835 O   0  0  0  0  0  0  0  0  0  0  0  0
  -17.0533   -6.9467   -0.4427 Br  0  0  0  0  0  0  0  0  0  0  0  0
  -18.6064   -9.2696    0.2748 C   0  0  0  0  0  0  0  0  0  0  0  0
  -18.5116  -10.5965    0.7324 C   0  0  0  0  0  0  0  0  0  0  0  0
  -17.2292  -11.0371    0.8933 C   0  0  0  0  0  0  0  0  0  0  0  0
  -17.3985   -8.7060    0.1024 C   0  0  0  0  0  0  0  0  0  0  0  0
  -16.0911   -9.7770    0.4751 S   0  0  0  0  0  0  0  0  0  0  0  0
 21 25  1  0  0  0
 22 25  2  0  0  0
 22 23  1  0  0  0
 25 26  1  0  0  0
 23 24  2  0  0  0
 11 10  2  0  0  0
 11 12  1  0  0  0
 10  9  1  0  0  0
 24 26  1  0  0  0
 24 19  1  0  0  0
 13 12  2  0  0  0
 13 17  1  0  0  0
  9  8  1  0  0  0
 12 14  1  0  0  0
  2  1  1  0  0  0
  2  4  1  0  0  0
  1 19  1  0  0  0
  1  5  1  0  0  0
 19 20  2  0  0  0
  4  3  1  0  0  0
  3  5  1  0  0  0
 17  5  1  0  0  0
 17 16  2  0  0  0
 14  8  1  0  0  0
 14 15  2  0  0  0
  8  7  2  0  0  0
 16 15  1  0  0  0
  4  6  1  0  0  0
  9 18  1  0  0  0
M  END
> <minimizedAffinity>
-9.15456

$$$$
4Z83_4L7_E_401


 26 29  0  0  0  0  0  0  0  0999 V2000
  -15.5319   -9.8472    7.2279 C   0  0  0  0  0  0  0  0  0  0  0  0
  -14.8931   -8.9683    8.3200 C   0  0  0  0  0  0  0  0  0  0  0  0
  -16.1005   -7.5688    6.8769 C   0  0  0  0  0  0  0  0  0  0  0  0
  -15.3131   -7.5756    8.0930 N   0  0  0  0  0  0  0  0  0  0  0  0
  -15.7187   -8.8349    6.0591 C   0  0  0  0  0  0  0  0  0  0  0  0
  -14.4955   -6.9754    7.9853 H   0  0  0  0  0  0  0  0  0  0  0  0
  -20.8065  -11.3081    2.8042 O   0  0  0  0  0  0  0  0  0  0  0  0
  -19.6200  -11.1567    2.5189 C   0  0  0  0  0  0  0  0  0  0  0  0
  -19.0883  -11.6629    1.3310 N   0  0  0  0  0  0  0  0  0  0  0  0
  -17.7872  -11.4992    0.9928 C   0  0  0  0  0  0  0  0  0  0  0  0
  -16.8730  -10.8849    1.7481 N   0  0  0  0  0  0  0  0  0  0  0  0
  -17.3192  -10.3611    2.9692 C   0  0  0  0  0  0  0  0  0  0  0  0
  -16.3800   -9.7349    3.7943 C   0  0  0  0  0  0  0  0  0  0  0  0
  -18.6576  -10.4426    3.3786 C   0  0  0  0  0  0  0  0  0  0  0  0
  -19.0497   -9.8372    4.5697 C   0  0  0  0  0  0  0  0  0  0  0  0
  -18.1111   -9.2084    5.3687 C   0  0  0  0  0  0  0  0  0  0  0  0
  -16.7636   -9.2033    5.0256 C   0  0  0  0  0  0  0  0  0  0  0  0
  -19.6801  -12.1561    0.7179 H   0  0  0  0  0  0  0  0  0  0  0  0
  -14.6657  -11.0610    6.9250 C   0  0  0  0  0  0  0  0  0  0  0  0
  -15.1550  -12.1470    6.6757 O   0  0  0  0  0  0  0  0  0  0  0  0
   -9.1783  -11.0167    8.4459 Br  0  0  0  0  0  0  0  0  0  0  0  0
  -11.0285  -10.3922    6.3224 C   0  0  0  0  0  0  0  0  0  0  0  0
  -12.3921  -10.3826    5.9765 C   0  0  0  0  0  0  0  0  0  0  0  0
  -13.2149  -10.8672    6.9526 C   0  0  0  0  0  0  0  0  0  0  0  0
  -10.8237  -10.8716    7.5612 C   0  0  0  0  0  0  0  0  0  0  0  0
  -12.2864  -11.3485    8.3540 S   0  0  0  0  0  0  0  0  0  0  0  0
 21 25  1  0  0  0
 22 25  2  0  0  0
 22 23  1  0  0  0
 25 26  1  0  0  0
 23 24  2  0  0  0
 11 10  2  0  0  0
 11 12  1  0  0  0
 10  9  1  0  0  0
 24 26  1  0  0  0
 24 19  1  0  0  0
 13 12  2  0  0  0
 13 17  1  0  0  0
  9  8  1  0  0  0
 12 14  1  0  0  0
  2  1  1  0  0  0
  2  4  1  0  0  0
  1 19  1  0  0  0
  1  5  1  0  0  0
 19 20  2  0  0  0
  4  3  1  0  0  0
  3  5  1  0  0  0
 17  5  1  0  0  0
 17 16  2  0  0  0
 14  8  1  0  0  0
 14 15  2  0  0  0
  8  7  2  0  0  0
 16 15  1  0  0  0
  4  6  1  0  0  0
  9 18  1  0  0  0
M  END
> <minimizedAffinity>
-9.00405

$$$$
4Z83_4L7_E_401


 26 29  0  0  0  0  0  0  0  0999 V2000
  -15.5222  -10.0062    7.0467 C   0  0  0  0  0  0  0  0  0  0  0  0
  -15.1628   -9.1897    8.3027 C   0  0  0  0  0  0  0  0  0  0  0  0
  -16.0100   -7.7095    6.6932 C   0  0  0  0  0  0  0  0  0  0  0  0
  -15.5285   -7.7848    8.0575 N   0  0  0  0  0  0  0  0  0  0  0  0
  -15.4382   -8.9325    5.9217 C   0  0  0  0  0  0  0  0  0  0  0  0
  -14.7128   -7.1839    8.1758 H   0  0  0  0  0  0  0  0  0  0  0  0
  -17.3101  -10.6329   -0.0950 O   0  0  0  0  0  0  0  0  0  0  0  0
  -17.5910   -9.6845    0.6355 C   0  0  0  0  0  0  0  0  0  0  0  0
  -18.3776   -8.6246    0.1796 N   0  0  0  0  0  0  0  0  0  0  0  0
  -18.7069   -7.5754    0.9701 C   0  0  0  0  0  0  0  0  0  0  0  0
  -18.3010   -7.4127    2.2320 N   0  0  0  0  0  0  0  0  0  0  0  0
  -17.4905   -8.4247    2.7643 C   0  0  0  0  0  0  0  0  0  0  0  0
  -17.0279   -8.2704    4.0748 C   0  0  0  0  0  0  0  0  0  0  0  0
  -17.1388   -9.5689    2.0346 C   0  0  0  0  0  0  0  0  0  0  0  0
  -16.3915  -10.5715    2.6471 C   0  0  0  0  0  0  0  0  0  0  0  0
  -15.9532  -10.4109    3.9497 C   0  0  0  0  0  0  0  0  0  0  0  0
  -16.2099   -9.2402    4.6546 C   0  0  0  0  0  0  0  0  0  0  0  0
  -18.7044   -8.6407   -0.7490 H   0  0  0  0  0  0  0  0  0  0  0  0
  -14.6002  -11.2066    6.8912 C   0  0  0  0  0  0  0  0  0  0  0  0
  -15.0385  -12.3298    6.7255 O   0  0  0  0  0  0  0  0  0  0  0  0
   -9.1592  -10.9387    8.5499 Br  0  0  0  0  0  0  0  0  0  0  0  0
  -10.9800  -10.3851    6.3817 C   0  0  0  0  0  0  0  0  0  0  0  0
  -12.3337  -10.4312    6.0017 C   0  0  0  0  0  0  0  0  0  0  0  0
  -13.1599  -10.9527    6.9557 C   0  0  0  0  0  0  0  0  0  0  0  0
  -10.7866  -10.8594    7.6243 C   0  0  0  0  0  0  0  0  0  0  0  0
  -12.2475  -11.3993    8.3790 S   0  0  0  0  0  0  0  0  0  0  0  0
 21 25  1  0  0  0
 22 25  2  0  0  0
 22 23  1  0  0  0
 25 26  1  0  0  0
 23 24  2  0  0  0
 11 10  2  0  0  0
 11 12  1  0  0  0
 10  9  1  0  0  0
 24 26  1  0  0  0
 24 19  1  0  0  0
 13 12  2  0  0  0
 13 17  1  0  0  0
  9  8  1  0  0  0
 12 14  1  0  0  0
  2  1  1  0  0  0
  2  4  1  0  0  0
  1 19  1  0  0  0
  1  5  1  0  0  0
 19 20  2  0  0  0
  4  3  1  0  0  0
  3  5  1  0  0  0
 17  5  1  0  0  0
 17 16  2  0  0  0
 14  8  1  0  0  0
 14 15  2  0  0  0
  8  7  2  0  0  0
 16 15  1  0  0  0
  4  6  1  0  0  0
  9 18  1  0  0  0
M  END
> <minimizedAffinity>
-8.96684

$$$$
4Z83_4L7_E_401


 26 29  0  0  0  0  0  0  0  0999 V2000
  -16.7360   -9.0645    6.5848 C   0  0  0  0  0  0  0  0  0  0  0  0
  -16.5630   -8.7332    8.0793 C   0  0  0  0  0  0  0  0  0  0  0  0
  -17.7965   -7.0012    7.0906 C   0  0  0  0  0  0  0  0  0  0  0  0
  -17.2775   -7.4764    8.3570 N   0  0  0  0  0  0  0  0  0  0  0  0
  -16.9540   -7.6551    5.9590 C   0  0  0  0  0  0  0  0  0  0  0  0
  -16.6372   -6.7889    8.7543 H   0  0  0  0  0  0  0  0  0  0  0  0
  -20.4612   -8.9989    0.6214 O   0  0  0  0  0  0  0  0  0  0  0  0
  -19.3426   -8.5177    0.7923 C   0  0  0  0  0  0  0  0  0  0  0  0
  -18.4940   -8.2520   -0.2844 N   0  0  0  0  0  0  0  0  0  0  0  0
  -17.2624   -7.7134   -0.1193 C   0  0  0  0  0  0  0  0  0  0  0  0
  -16.7111   -7.4144    1.0597 N   0  0  0  0  0  0  0  0  0  0  0  0
  -17.4901   -7.6670    2.1972 C   0  0  0  0  0  0  0  0  0  0  0  0
  -16.9305   -7.3888    3.4480 C   0  0  0  0  0  0  0  0  0  0  0  0
  -18.7929   -8.1786    2.1183 C   0  0  0  0  0  0  0  0  0  0  0  0
  -19.5403   -8.3375    3.2824 C   0  0  0  0  0  0  0  0  0  0  0  0
  -18.9776   -8.0440    4.5121 C   0  0  0  0  0  0  0  0  0  0  0  0
  -17.6547   -7.6289    4.6158 C   0  0  0  0  0  0  0  0  0  0  0  0
  -18.8017   -8.4635   -1.1953 H   0  0  0  0  0  0  0  0  0  0  0  0
  -15.5450   -9.8503    6.0562 C   0  0  0  0  0  0  0  0  0  0  0  0
  -15.6405  -10.5744    5.0827 O   0  0  0  0  0  0  0  0  0  0  0  0
  -10.7697  -10.8503    8.9926 Br  0  0  0  0  0  0  0  0  0  0  0  0
  -12.3112   -8.8192    7.6433 C   0  0  0  0  0  0  0  0  0  0  0  0
  -13.5107   -8.5860    6.9462 C   0  0  0  0  0  0  0  0  0  0  0  0
  -14.2781   -9.7024    6.7744 C   0  0  0  0  0  0  0  0  0  0  0  0
  -12.1794  -10.1062    8.0076 C   0  0  0  0  0  0  0  0  0  0  0  0
  -13.5068  -11.0939    7.5001 S   0  0  0  0  0  0  0  0  0  0  0  0
 21 25  1  0  0  0
 22 25  2  0  0  0
 22 23  1  0  0  0
 25 26  1  0  0  0
 23 24  2  0  0  0
 11 10  2  0  0  0
 11 12  1  0  0  0
 10  9  1  0  0  0
 24 26  1  0  0  0
 24 19  1  0  0  0
 13 12  2  0  0  0
 13 17  1  0  0  0
  9  8  1  0  0  0
 12 14  1  0  0  0
  2  1  1  0  0  0
  2  4  1  0  0  0
  1 19  1  0  0  0
  1  5  1  0  0  0
 19 20  2  0  0  0
  4  3  1  0  0  0
  3  5  1  0  0  0
 17  5  1  0  0  0
 17 16  2  0  0  0
 14  8  1  0  0  0
 14 15  2  0  0  0
  8  7  2  0  0  0
 16 15  1  0  0  0
  4  6  1  0  0  0
  9 18  1  0  0  0
M  END
> <minimizedAffinity>
-8.90913

$$$$
4Z83_4L7_E_401


 26 29  0  0  0  0  0  0  0  0999 V2000
  -15.8862   -8.9448    7.0030 C   0  0  0  0  0  0  0  0  0  0  0  0
  -17.2700   -9.1011    7.6617 C   0  0  0  0  0  0  0  0  0  0  0  0
  -15.6641   -9.9697    9.1333 C   0  0  0  0  0  0  0  0  0  0  0  0
  -17.0793   -9.6915    8.9968 N   0  0  0  0  0  0  0  0  0  0  0  0
  -15.0607  -10.0645    7.7033 C   0  0  0  0  0  0  0  0  0  0  0  0
  -17.6164  -10.5547    9.0789 H   0  0  0  0  0  0  0  0  0  0  0  0
   -8.7710   -9.4854    6.0599 O   0  0  0  0  0  0  0  0  0  0  0  0
   -9.3533  -10.1036    6.9492 C   0  0  0  0  0  0  0  0  0  0  0  0
   -8.6690  -10.9842    7.7895 N   0  0  0  0  0  0  0  0  0  0  0  0
   -9.2889  -11.6675    8.7810 C   0  0  0  0  0  0  0  0  0  0  0  0
  -10.5970  -11.6127    9.0444 N   0  0  0  0  0  0  0  0  0  0  0  0
  -11.3637  -10.7638    8.2344 C   0  0  0  0  0  0  0  0  0  0  0  0
  -12.7409  -10.7046    8.4686 C   0  0  0  0  0  0  0  0  0  0  0  0
  -10.7989   -9.9834    7.2159 C   0  0  0  0  0  0  0  0  0  0  0  0
  -11.6051   -9.1055    6.4959 C   0  0  0  0  0  0  0  0  0  0  0  0
  -12.9643   -9.0475    6.7491 C   0  0  0  0  0  0  0  0  0  0  0  0
  -13.5563   -9.8850    7.6880 C   0  0  0  0  0  0  0  0  0  0  0  0
   -7.7020  -11.1130    7.6566 H   0  0  0  0  0  0  0  0  0  0  0  0
  -15.9866   -9.0409    5.4877 C   0  0  0  0  0  0  0  0  0  0  0  0
  -16.0742   -8.0473    4.7905 O   0  0  0  0  0  0  0  0  0  0  0  0
  -17.4902  -13.9193    2.9645 Br  0  0  0  0  0  0  0  0  0  0  0  0
  -15.2734  -12.4279    4.0527 C   0  0  0  0  0  0  0  0  0  0  0  0
  -14.9268  -11.2295    4.7029 C   0  0  0  0  0  0  0  0  0  0  0  0
  -15.9794  -10.3833    4.9038 C   0  0  0  0  0  0  0  0  0  0  0  0
  -16.5868  -12.4914    3.7745 C   0  0  0  0  0  0  0  0  0  0  0  0
  -17.4556  -11.0822    4.2792 S   0  0  0  0  0  0  0  0  0  0  0  0
 21 25  1  0  0  0
 22 25  2  0  0  0
 22 23  1  0  0  0
 25 26  1  0  0  0
 23 24  2  0  0  0
 11 10  2  0  0  0
 11 12  1  0  0  0
 10  9  1  0  0  0
 24 26  1  0  0  0
 24 19  1  0  0  0
 13 12  2  0  0  0
 13 17  1  0  0  0
  9  8  1  0  0  0
 12 14  1  0  0  0
  2  1  1  0  0  0
  2  4  1  0  0  0
  1 19  1  0  0  0
  1  5  1  0  0  0
 19 20  2  0  0  0
  4  3  1  0  0  0
  3  5  1  0  0  0
 17  5  1  0  0  0
 17 16  2  0  0  0
 14  8  1  0  0  0
 14 15  2  0  0  0
  8  7  2  0  0  0
 16 15  1  0  0  0
  4  6  1  0  0  0
  9 18  1  0  0  0
M  END
> <minimizedAffinity>
-8.79540

$$$$
4Z83_4L7_E_401


 26 29  0  0  0  0  0  0  0  0999 V2000
  -15.4635  -11.8717    4.8554 C   0  0  0  0  0  0  0  0  0  0  0  0
  -15.5580  -13.1850    5.6553 C   0  0  0  0  0  0  0  0  0  0  0  0
  -16.8264  -13.4347    3.6988 C   0  0  0  0  0  0  0  0  0  0  0  0
  -16.3672  -14.1387    4.8788 N   0  0  0  0  0  0  0  0  0  0  0  0
  -16.7672  -11.9112    4.0041 C   0  0  0  0  0  0  0  0  0  0  0  0
  -17.1641  -14.4546    5.4315 H   0  0  0  0  0  0  0  0  0  0  0  0
  -16.6032   -7.0501   -0.3479 O   0  0  0  0  0  0  0  0  0  0  0  0
  -17.3160   -8.0447   -0.2259 C   0  0  0  0  0  0  0  0  0  0  0  0
  -18.4213   -8.2521   -1.0538 N   0  0  0  0  0  0  0  0  0  0  0  0
  -19.2136   -9.3448   -0.9429 C   0  0  0  0  0  0  0  0  0  0  0  0
  -19.0614  -10.3095   -0.0321 N   0  0  0  0  0  0  0  0  0  0  0  0
  -17.9836  -10.1705    0.8530 C   0  0  0  0  0  0  0  0  0  0  0  0
  -17.8133  -11.1512    1.8351 C   0  0  0  0  0  0  0  0  0  0  0  0
  -17.0849   -9.0969    0.7814 C   0  0  0  0  0  0  0  0  0  0  0  0
  -15.9925   -9.0568    1.6439 C   0  0  0  0  0  0  0  0  0  0  0  0
  -15.8292  -10.0426    2.6012 C   0  0  0  0  0  0  0  0  0  0  0  0
  -16.7642  -11.0609    2.7500 C   0  0  0  0  0  0  0  0  0  0  0  0
  -18.6320   -7.5804   -1.7421 H   0  0  0  0  0  0  0  0  0  0  0  0
  -15.3102  -10.6751    5.7827 C   0  0  0  0  0  0  0  0  0  0  0  0
  -16.2360   -9.9164    6.0027 O   0  0  0  0  0  0  0  0  0  0  0  0
  -11.0633   -9.9162    9.4995 Br  0  0  0  0  0  0  0  0  0  0  0  0
  -11.7005  -10.2899    6.7108 C   0  0  0  0  0  0  0  0  0  0  0  0
  -12.7653  -10.4460    5.8048 C   0  0  0  0  0  0  0  0  0  0  0  0
  -13.9963  -10.4717    6.3953 C   0  0  0  0  0  0  0  0  0  0  0  0
  -12.1275  -10.1857    7.9809 C   0  0  0  0  0  0  0  0  0  0  0  0
  -13.8487  -10.2908    8.1283 S   0  0  0  0  0  0  0  0  0  0  0  0
 21 25  1  0  0  0
 22 25  2  0  0  0
 22 23  1  0  0  0
 25 26  1  0  0  0
 23 24  2  0  0  0
 11 10  2  0  0  0
 11 12  1  0  0  0
 10  9  1  0  0  0
 24 26  1  0  0  0
 24 19  1  0  0  0
 13 12  2  0  0  0
 13 17  1  0  0  0
  9  8  1  0  0  0
 12 14  1  0  0  0
  2  1  1  0  0  0
  2  4  1  0  0  0
  1 19  1  0  0  0
  1  5  1  0  0  0
 19 20  2  0  0  0
  4  3  1  0  0  0
  3  5  1  0  0  0
 17  5  1  0  0  0
 17 16  2  0  0  0
 14  8  1  0  0  0
 14 15  2  0  0  0
  8  7  2  0  0  0
 16 15  1  0  0  0
  4  6  1  0  0  0
  9 18  1  0  0  0
M  END
> <minimizedAffinity>
-8.76894

$$$$
4Z83_4L7_E_401


 26 29  0  0  0  0  0  0  0  0999 V2000
  -16.3761   -9.1509    7.0289 C   0  0  0  0  0  0  0  0  0  0  0  0
  -17.0675   -9.0122    8.3986 C   0  0  0  0  0  0  0  0  0  0  0  0
  -18.7221   -8.9269    6.7390 C   0  0  0  0  0  0  0  0  0  0  0  0
  -18.5200   -8.9280    8.1736 N   0  0  0  0  0  0  0  0  0  0  0  0
  -17.3956   -8.4608    6.0749 C   0  0  0  0  0  0  0  0  0  0  0  0
  -18.8892   -8.0688    8.5809 H   0  0  0  0  0  0  0  0  0  0  0  0
  -15.4208  -10.0304    0.0555 O   0  0  0  0  0  0  0  0  0  0  0  0
  -16.2923   -9.2759    0.4836 C   0  0  0  0  0  0  0  0  0  0  0  0
  -17.0167   -8.4434   -0.3721 N   0  0  0  0  0  0  0  0  0  0  0  0
  -17.9871   -7.6122    0.0770 C   0  0  0  0  0  0  0  0  0  0  0  0
  -18.3337   -7.4644    1.3583 N   0  0  0  0  0  0  0  0  0  0  0  0
  -17.6420   -8.2518    2.2888 C   0  0  0  0  0  0  0  0  0  0  0  0
  -17.9641   -8.1006    3.6411 C   0  0  0  0  0  0  0  0  0  0  0  0
  -16.6558   -9.1731    1.9093 C   0  0  0  0  0  0  0  0  0  0  0  0
  -16.0584   -9.9774    2.8764 C   0  0  0  0  0  0  0  0  0  0  0  0
  -16.3983   -9.8262    4.2093 C   0  0  0  0  0  0  0  0  0  0  0  0
  -17.3024   -8.8503    4.6136 C   0  0  0  0  0  0  0  0  0  0  0  0
  -16.8150   -8.4613   -1.3355 H   0  0  0  0  0  0  0  0  0  0  0  0
  -14.9787   -8.5494    7.0570 C   0  0  0  0  0  0  0  0  0  0  0  0
  -14.7890   -7.3675    6.8379 O   0  0  0  0  0  0  0  0  0  0  0  0
   -9.8414  -10.7193    8.2087 Br  0  0  0  0  0  0  0  0  0  0  0  0
  -12.6404  -11.3504    7.9095 C   0  0  0  0  0  0  0  0  0  0  0  0
  -13.8963  -10.8012    7.5929 C   0  0  0  0  0  0  0  0  0  0  0  0
  -13.8691   -9.4571    7.3535 C   0  0  0  0  0  0  0  0  0  0  0  0
  -11.6656  -10.4253    7.8971 C   0  0  0  0  0  0  0  0  0  0  0  0
  -12.2415   -8.8386    7.5148 S   0  0  0  0  0  0  0  0  0  0  0  0
 21 25  1  0  0  0
 22 25  2  0  0  0
 22 23  1  0  0  0
 25 26  1  0  0  0
 23 24  2  0  0  0
 11 10  2  0  0  0
 11 12  1  0  0  0
 10  9  1  0  0  0
 24 26  1  0  0  0
 24 19  1  0  0  0
 13 12  2  0  0  0
 13 17  1  0  0  0
  9  8  1  0  0  0
 12 14  1  0  0  0
  2  1  1  0  0  0
  2  4  1  0  0  0
  1 19  1  0  0  0
  1  5  1  0  0  0
 19 20  2  0  0  0
  4  3  1  0  0  0
  3  5  1  0  0  0
 17  5  1  0  0  0
 17 16  2  0  0  0
 14  8  1  0  0  0
 14 15  2  0  0  0
  8  7  2  0  0  0
 16 15  1  0  0  0
  4  6  1  0  0  0
  9 18  1  0  0  0
M  END
> <minimizedAffinity>
-8.74397

$$$$
